310945140
  -OEChem-07211613022D

 37 41  0     1  0  0  0  0  0999 V2000
   -2.9906   -3.0285    0.0000 F   0  0  0  0  0  0  0  0  0  0  0  0
   -3.7938   -2.2253    0.0000 F   0  0  0  0  0  0  0  0  0  0  0  0
   -2.9906   -1.4220    0.0000 F   0  0  0  0  0  0  0  0  0  0  0  0
    3.5007    3.0285    0.0000 O   0  0  0  0  0  0  0  0  0  0  0  0
   -2.1765   -2.2144    0.0000 O   0  0  0  0  0  0  0  0  0  0  0  0
   -4.2280   -0.0651    0.0000 O   0  0  0  0  0  0  0  0  0  0  0  0
    2.0136    0.7164    0.0000 N   0  0  0  0  0  0  0  0  0  0  0  0
    4.2172    1.8019    0.0000 N   0  0  0  0  0  0  0  0  0  0  0  0
    4.2280   -0.6948    0.0000 N   0  0  0  0  0  0  0  0  0  0  0  0
   -0.9389    1.3894    0.0000 N   0  0  0  0  0  0  0  0  0  0  0  0
   -2.9906   -0.7707    0.0000 N   0  0  0  0  0  0  0  0  0  0  0  0
    3.5116    0.5536    0.0000 C   0  0  3  0  0  0  0  0  0  0  0  0
    2.7843    0.9770    0.0000 C   0  0  0  0  0  0  0  0  0  0  0  0
    2.7952    1.7911    0.0000 C   0  0  0  0  0  0  0  0  0  0  0  0
    1.5251    1.3786    0.0000 C   0  0  0  0  0  0  0  0  0  0  0  0
    2.0136    2.0516    0.0000 C   0  0  0  0  0  0  0  0  0  0  0  0
    3.5007    2.1927    0.0000 C   0  0  0  0  0  0  0  0  0  0  0  0
    4.2172    0.9552    0.0000 C   0  0  0  0  0  0  0  0  0  0  0  0
    0.7110    1.3894    0.0000 C   0  0  0  0  0  0  0  0  0  0  0  0
    4.2280    0.1302    0.0000 C   0  0  0  0  0  0  0  0  0  0  0  0
    2.8060    0.1411    0.0000 C   0  0  0  0  0  0  0  0  0  0  0  0
    0.2876    0.6621    0.0000 C   0  0  0  0  0  0  0  0  0  0  0  0
   -0.5265    0.6730    0.0000 C   0  0  0  0  0  0  0  0  0  0  0  0
   -0.9389   -0.0651    0.0000 C   0  0  0  0  0  0  0  0  0  0  0  0
    0.2985    2.0950    0.0000 C   0  0  0  0  0  0  0  0  0  0  0  0
    2.7952   -0.6948    0.0000 C   0  0  0  0  0  0  0  0  0  0  0  0
   -2.1765   -0.7815    0.0000 C   0  0  0  0  0  0  0  0  0  0  0  0
    3.5224   -1.1180    0.0000 C   0  0  0  0  0  0  0  0  0  0  0  0
   -1.7639   -1.4763    0.0000 C   0  0  0  0  0  0  0  0  0  0  0  0
   -1.7639   -0.0651    0.0000 C   0  0  0  0  0  0  0  0  0  0  0  0
   -0.5265    2.1058    0.0000 C   0  0  0  0  0  0  0  0  0  0  0  0
   -0.5373   -0.7707    0.0000 C   0  0  0  0  0  0  0  0  0  0  0  0
   -0.9389   -1.4871    0.0000 C   0  0  0  0  0  0  0  0  0  0  0  0
   -2.9906   -2.2144    0.0000 C   0  0  0  0  0  0  0  0  0  0  0  0
   -3.3814   -0.0651    0.0000 C   0  0  0  0  0  0  0  0  0  0  0  0
   -2.9906    0.6621    0.0000 C   0  0  0  0  0  0  0  0  0  0  0  0
   -3.4790    1.3460    0.0000 C   0  0  0  0  0  0  0  0  0  0  0  0
  1 34  1  0  0  0  0
  2 34  1  0  0  0  0
  3 34  1  0  0  0  0
  4 17  2  0  0  0  0
  5 29  1  0  0  0  0
  5 34  1  0  0  0  0
  6 35  2  0  0  0  0
  7 13  1  0  0  0  0
  7 15  1  0  0  0  0
  8 17  1  0  0  0  0
  8 18  1  0  0  0  0
  9 20  1  0  0  0  0
  9 28  1  0  0  0  0
 10 23  2  0  0  0  0
 10 31  1  0  0  0  0
 11 27  1  0  0  0  0
 11 35  1  0  0  0  0
 12 13  1  0  0  0  0
 12 18  1  0  0  0  0
 12 20  1  0  0  0  0
 12 21  1  0  0  0  0
 13 14  2  0  0  0  0
 14 16  1  0  0  0  0
 14 17  1  0  0  0  0
 15 16  2  0  0  0  0
 15 19  1  0  0  0  0
 19 22  2  0  0  0  0
 19 25  1  0  0  0  0
 21 26  1  0  0  0  0
 22 23  1  0  0  0  0
 23 24  1  0  0  0  0
 24 30  2  0  0  0  0
 24 32  1  0  0  0  0
 25 31  2  0  0  0  0
 26 28  1  0  0  0  0
 27 29  2  0  0  0  0
 27 30  1  0  0  0  0
 29 33  1  0  0  0  0
 32 33  2  0  0  0  0
 35 36  1  0  0  0  0
 36 37  2  0  0  0  0
M  END
> <PUBCHEM_COMPOUND_ID_TYPE>
0

> <PUBCHEM_TOTAL_CHARGE>
0

> <PUBCHEM_SUBSTANCE_ID>
310945140

> <PUBCHEM_SUBSTANCE_VERSION>
1

> <PUBCHEM_EXT_DATASOURCE_NAME>
4488

> <PUBCHEM_EXT_DATASOURCE_REGID>
SCHEMBL16123230

> <PUBCHEM_SUBSTANCE_COMMENT>
InChI=1S/C26H24F3N5O3/c1-2-22(35)33-20-11-15(4-5-21(20)37-26(27,28)29)18-10-16(6-9-31-18)19-12-17-23(34-19)25(14-32-24(17)36)7-3-8-30-13-25/h2,4-6,9-12,30,34H,1,3,7-8,13-14H2,(H,32,36)(H,33,35)
InChIKey=PQDCPWOIWGKLCR-UHFFFAOYSA-N

> <PUBCHEM_SUBSTANCE_SYNONYM>
SCHEMBL16123230

> <PUBCHEM_XREF_EXT_ID>
SCHEMBL16123230

> <PUBCHEM_EXT_DATASOURCE_URL>
https://www.surechembl.org/

> <PUBCHEM_EXT_SUBSTANCE_URL>
https://www.surechembl.org/chemical/SCHEMBL16123230

> <PUBCHEM_CID_ASSOCIATIONS>
86300016  1

> <PUBCHEM_COORDINATE_TYPE>
1
3

$$$$
