310931024
  -OEChem-07211613022D

 31 35  0     1  0  0  0  0  0999 V2000
    1.6841   -2.7204    0.0000 O   0  0  0  0  0  0  0  0  0  0  0  0
    3.1091   -2.5045    0.0000 N   0  0  0  0  0  0  0  0  0  0  0  0
    3.5409   -3.7568    0.0000 N   0  0  0  0  0  0  0  0  0  0  0  0
    4.5773   -2.7204    0.0000 N   0  0  0  0  0  0  0  0  0  0  0  0
    2.4613   -8.0318    0.0000 N   0  0  0  0  0  0  0  0  0  0  0  0
    2.7204   -3.7568    0.0000 C   0  0  3  0  0  0  0  0  0  0  0  0
    2.4613   -2.9795    0.0000 C   0  0  0  0  0  0  0  0  0  0  0  0
    2.2454   -4.4477    0.0000 C   0  0  0  0  0  0  0  0  0  0  0  0
    3.0659   -4.4909    0.0000 C   0  0  0  0  0  0  0  0  0  0  0  0
    3.8000   -2.9795    0.0000 C   0  0  0  0  0  0  0  0  0  0  0  0
    2.1591   -5.2681    0.0000 C   0  0  0  0  0  0  0  0  0  0  0  0
    1.4682   -4.7932    0.0000 C   0  0  0  0  0  0  0  0  0  0  0  0
    3.1091   -1.6841    0.0000 C   0  0  0  0  0  0  0  0  0  0  0  0
    2.6341   -5.1818    0.0000 C   0  0  0  0  0  0  0  0  0  0  0  0
    3.9296   -4.5773    0.0000 C   0  0  0  0  0  0  0  0  0  0  0  0
    3.0227   -5.9159    0.0000 C   0  0  0  0  0  0  0  0  0  0  0  0
    4.2750   -5.2681    0.0000 C   0  0  0  0  0  0  0  0  0  0  0  0
    2.4182   -1.2523    0.0000 C   0  0  0  0  0  0  0  0  0  0  0  0
    3.8432   -1.2523    0.0000 C   0  0  0  0  0  0  0  0  0  0  0  0
    3.8432   -6.0023    0.0000 C   0  0  0  0  0  0  0  0  0  0  0  0
    2.5477   -6.6068    0.0000 C   0  0  0  0  0  0  0  0  0  0  0  0
    2.4182   -0.4318    0.0000 C   0  0  0  0  0  0  0  0  0  0  0  0
    3.8432   -0.4318    0.0000 C   0  0  0  0  0  0  0  0  0  0  0  0
    1.7273   -6.6068    0.0000 C   0  0  0  0  0  0  0  0  0  0  0  0
    2.8932   -7.3841    0.0000 C   0  0  0  0  0  0  0  0  0  0  0  0
    3.1091    0.0000    0.0000 C   0  0  0  0  0  0  0  0  0  0  0  0
    1.2955   -7.2545    0.0000 C   0  0  0  0  0  0  0  0  0  0  0  0
    1.6409   -8.0318    0.0000 C   0  0  0  0  0  0  0  0  0  0  0  0
    0.4750   -7.2114    0.0000 C   0  0  0  0  0  0  0  0  0  0  0  0
    0.0000   -7.9022    0.0000 C   0  0  0  0  0  0  0  0  0  0  0  0
    0.3886   -8.6363    0.0000 C   0  0  0  0  0  0  0  0  0  0  0  0
  1  7  2  0  0  0  0
  2  7  1  0  0  0  0
  2 10  1  0  0  0  0
  2 13  1  0  0  0  0
  3  6  1  0  0  0  0
  3 10  1  0  0  0  0
  4 10  2  3  0  0  0
  5 25  1  0  0  0  0
  5 28  2  0  0  0  0
  6  7  1  0  0  0  0
  6  8  1  0  0  0  0
  6  9  1  0  0  0  0
  8 11  1  0  0  0  0
  8 12  1  0  0  0  0
  9 14  1  0  0  0  0
  9 15  2  0  0  0  0
 11 12  1  0  0  0  0
 13 18  1  0  0  0  0
 13 19  1  0  0  0  0
 14 16  2  0  0  0  0
 15 17  1  0  0  0  0
 16 20  1  0  0  0  0
 16 21  1  0  0  0  0
 17 20  2  0  0  0  0
 18 22  1  0  0  0  0
 19 23  1  0  0  0  0
 21 24  1  0  0  0  0
 21 25  2  0  0  0  0
 22 26  1  0  0  0  0
 23 26  1  0  0  0  0
 24 27  2  0  0  0  0
 27 28  1  0  0  0  0
 27 29  1  0  0  0  0
 29 30  3  0  0  0  0
 30 31  1  0  0  0  0
M  END
> <PUBCHEM_COMPOUND_ID_TYPE>
0

> <PUBCHEM_TOTAL_CHARGE>
0

> <PUBCHEM_SUBSTANCE_ID>
310931024

> <PUBCHEM_SUBSTANCE_VERSION>
1

> <PUBCHEM_EXT_DATASOURCE_NAME>
4488

> <PUBCHEM_EXT_DATASOURCE_REGID>
SCHEMBL16108325

> <PUBCHEM_SUBSTANCE_COMMENT>
InChI=1S/C26H28N4O/c1-2-7-18-14-20(17-28-16-18)19-8-6-9-22(15-19)26(21-12-13-21)24(31)30(25(27)29-26)23-10-4-3-5-11-23/h6,8-9,14-17,21,23H,3-5,10-13H2,1H3,(H2,27,29)
InChIKey=KNGJVADYHMHDRH-UHFFFAOYSA-N

> <PUBCHEM_SUBSTANCE_SYNONYM>
SCHEMBL16108325

> <PUBCHEM_XREF_EXT_ID>
SCHEMBL16108325

> <PUBCHEM_EXT_DATASOURCE_URL>
https://www.surechembl.org/

> <PUBCHEM_EXT_SUBSTANCE_URL>
https://www.surechembl.org/chemical/SCHEMBL16108325

> <PUBCHEM_CID_ASSOCIATIONS>
86274319  1

> <PUBCHEM_COORDINATE_TYPE>
1
3

$$$$
