310948352
  -OEChem-07211613022D

 16 17  0     1  0  0  0  0  0999 V2000
   -0.2858    2.3494    0.0000 Br  0  0  0  0  0  0  0  0  0  0  0  0
    0.4252   -1.3734    0.0000 N   0  0  0  0  0  0  0  0  0  0  0  0
    1.1921   -1.0388    0.0000 N   0  0  0  0  0  0  0  0  0  0  0  0
    1.7359   -1.6523    0.0000 N   0  0  0  0  0  0  0  0  0  0  0  0
   -0.2998   -0.9412    0.0000 C   0  0  3  0  0  0  0  0  0  0  0  0
   -0.2858   -0.1185    0.0000 C   0  0  0  0  0  0  0  0  0  0  0  0
   -1.0109   -1.3594    0.0000 C   0  0  0  0  0  0  0  0  0  0  0  0
    0.5228   -2.1821    0.0000 C   0  0  0  0  0  0  0  0  0  0  0  0
    0.4252    0.2998    0.0000 C   0  0  0  0  0  0  0  0  0  0  0  0
   -1.0109    0.2998    0.0000 C   0  0  0  0  0  0  0  0  0  0  0  0
   -0.2998    1.5267    0.0000 C   0  0  0  0  0  0  0  0  0  0  0  0
    1.3315   -2.3494    0.0000 C   0  0  0  0  0  0  0  0  0  0  0  0
    0.4252    1.1085    0.0000 C   0  0  0  0  0  0  0  0  0  0  0  0
   -1.0109    1.1224    0.0000 C   0  0  0  0  0  0  0  0  0  0  0  0
   -1.7359   -0.9272    0.0000 C   0  0  0  0  0  0  0  0  0  0  0  0
   -0.9969   -2.2100    0.0000 C   0  0  0  0  0  0  0  0  0  0  0  0
  1 11  1  0  0  0  0
  2  3  1  0  0  0  0
  2  5  1  0  0  0  0
  2  8  1  0  0  0  0
  3  4  2  0  0  0  0
  4 12  1  0  0  0  0
  5  6  1  0  0  0  0
  5  7  1  0  0  0  0
  6  9  2  0  0  0  0
  6 10  1  0  0  0  0
  7 15  1  0  0  0  0
  7 16  1  0  0  0  0
  8 12  2  0  0  0  0
  9 13  1  0  0  0  0
 10 14  2  0  0  0  0
 11 13  2  0  0  0  0
 11 14  1  0  0  0  0
M  END
> <PUBCHEM_COMPOUND_ID_TYPE>
0

> <PUBCHEM_TOTAL_CHARGE>
0

> <PUBCHEM_SUBSTANCE_ID>
310948352

> <PUBCHEM_SUBSTANCE_VERSION>
1

> <PUBCHEM_EXT_DATASOURCE_NAME>
4488

> <PUBCHEM_EXT_DATASOURCE_REGID>
SCHEMBL16126530

> <PUBCHEM_SUBSTANCE_COMMENT>
InChI=1S/C12H14BrN3/c1-9(2)12(16-8-7-14-15-16)10-3-5-11(13)6-4-10/h3-9,12H,1-2H3
InChIKey=HZXNSVPJDOTONT-UHFFFAOYSA-N

> <PUBCHEM_SUBSTANCE_SYNONYM>
SCHEMBL16126530

> <PUBCHEM_XREF_EXT_ID>
SCHEMBL16126530

> <PUBCHEM_EXT_DATASOURCE_URL>
https://www.surechembl.org/

> <PUBCHEM_EXT_SUBSTANCE_URL>
https://www.surechembl.org/chemical/SCHEMBL16126530

> <PUBCHEM_CID_ASSOCIATIONS>
117613916  1

> <PUBCHEM_COORDINATE_TYPE>
1
3

$$$$
