310949103
  -OEChem-07211613022D

 10 11  0     1  0  0  0  0  0999 V2000
   -0.8912   -0.1725    0.0000 O   0  0  0  0  0  0  0  0  0  0  0  0
   -0.2013    1.0350    0.0000 N   0  0  0  0  0  0  0  0  0  0  0  0
   -0.0863   -0.3066    0.0000 C   0  0  3  0  0  0  0  0  0  0  0  0
    0.3354    0.4025    0.0000 C   0  0  3  0  0  0  0  0  0  0  0  0
   -0.9871    0.6708    0.0000 C   0  0  3  0  0  0  0  0  0  0  0  0
    0.3929   -1.0350    0.0000 C   0  0  0  0  0  0  0  0  0  0  0  0
    1.1978    0.3833    0.0000 C   0  0  0  0  0  0  0  0  0  0  0  0
    1.1787   -1.0350    0.0000 C   0  0  0  0  0  0  0  0  0  0  0  0
    1.6004   -0.3450    0.0000 C   0  0  0  0  0  0  0  0  0  0  0  0
   -1.6004    1.0350    0.0000 C   0  0  0  0  0  0  0  0  0  0  0  0
  1  3  1  0  0  0  0
  1  5  1  0  0  0  0
  2  4  1  0  0  0  0
  2  5  1  0  0  0  0
  3  4  1  0  0  0  0
  3  6  1  0  0  0  0
  4  7  1  0  0  0  0
  5 10  1  0  0  0  0
  6  8  2  0  0  0  0
  7  9  2  0  0  0  0
  8  9  1  0  0  0  0
M  END
> <PUBCHEM_COMPOUND_ID_TYPE>
0

> <PUBCHEM_TOTAL_CHARGE>
0

> <PUBCHEM_SUBSTANCE_ID>
310949103

> <PUBCHEM_SUBSTANCE_VERSION>
1

> <PUBCHEM_EXT_DATASOURCE_NAME>
4488

> <PUBCHEM_EXT_DATASOURCE_REGID>
SCHEMBL16127293

> <PUBCHEM_SUBSTANCE_COMMENT>
InChI=1S/C8H11NO/c1-6-9-7-4-2-3-5-8(7)10-6/h2-9H,1H3
InChIKey=SDKBKECIXTYFBC-UHFFFAOYSA-N

> <PUBCHEM_SUBSTANCE_SYNONYM>
SCHEMBL16127293

> <PUBCHEM_XREF_EXT_ID>
SCHEMBL16127293

> <PUBCHEM_EXT_DATASOURCE_URL>
https://www.surechembl.org/

> <PUBCHEM_EXT_SUBSTANCE_URL>
https://www.surechembl.org/chemical/SCHEMBL16127293

> <PUBCHEM_CID_ASSOCIATIONS>
117614604  1

> <PUBCHEM_COORDINATE_TYPE>
1
3

$$$$
