310930008
  -OEChem-07211613022D

 27 27  0     1  0  0  0  0  0999 V2000
    2.8286    3.6095    0.0000 S   0  0  0  0  0  0  0  0  0  0  0  0
    4.3045   -3.8879    0.0000 S   0  0  0  0  0  0  0  0  0  0  0  0
    2.8286    2.7845    0.0000 O   0  0  0  0  0  0  0  0  0  0  0  0
    6.4009   -0.1030    0.0000 O   0  5  0  0  0  0  0  0  0  0  0  0
    5.6865    1.1345    0.0000 O   0  0  0  0  0  0  0  0  0  0  0  0
    2.8286    4.4345    0.0000 O   0  5  0  0  0  0  0  0  0  0  0  0
    2.0036    3.6095    0.0000 O   0  0  0  0  0  0  0  0  0  0  0  0
    3.6536    3.6095    0.0000 O   0  0  0  0  0  0  0  0  0  0  0  0
    4.2575    1.1345    0.0000 N   0  0  3  0  0  0  0  0  0  0  0  0
    5.6865    0.3095    0.0000 N   0  3  0  0  0  0  0  0  0  0  0  0
    4.2575   -2.1655    0.0000 N   0  0  0  0  0  0  0  0  0  0  0  0
    4.9720   -2.5780    0.0000 N   0  0  0  0  0  0  0  0  0  0  0  0
    5.6394   -3.8879    0.0000 N   0  0  0  0  0  0  0  0  0  0  0  0
    4.5595   -4.6726    0.0000 N   0  0  0  0  0  0  0  0  0  0  0  0
    4.2575    0.3095    0.0000 C   0  0  0  0  0  0  0  0  0  0  0  0
    4.9720   -0.1030    0.0000 C   0  0  0  0  0  0  0  0  0  0  0  0
    4.2575   -1.3405    0.0000 C   0  0  0  0  0  0  0  0  0  0  0  0
    4.9720   -0.9280    0.0000 C   0  0  0  0  0  0  0  0  0  0  0  0
    3.5430   -0.1030    0.0000 C   0  0  0  0  0  0  0  0  0  0  0  0
    3.5430   -0.9280    0.0000 C   0  0  0  0  0  0  0  0  0  0  0  0
    3.5430    1.5470    0.0000 C   0  0  0  0  0  0  0  0  0  0  0  0
    4.9720    1.5470    0.0000 C   0  0  0  0  0  0  0  0  0  0  0  0
    4.9720   -3.4030    0.0000 C   0  0  0  0  0  0  0  0  0  0  0  0
    3.5430    2.3720    0.0000 C   0  0  0  0  0  0  0  0  0  0  0  0
    5.3845   -4.6726    0.0000 C   0  0  0  0  0  0  0  0  0  0  0  0
    4.9720    2.3720    0.0000 C   0  0  0  0  0  0  0  0  0  0  0  0
    0.0000    0.0000    0.0000 H   0  3  0  0  0  0  0  0  0  0  0  0
  1  3  1  0  0  0  0
  1  6  1  0  0  0  0
  1  7  2  0  0  0  0
  1  8  2  0  0  0  0
  2 14  1  0  0  0  0
  2 23  1  0  0  0  0
  3 24  1  0  0  0  0
  4 10  1  0  0  0  0
  5 10  2  0  0  0  0
  9 15  1  0  0  0  0
  9 21  1  0  0  0  0
  9 22  1  0  0  0  0
 10 16  1  0  0  0  0
 11 12  2  0  0  0  0
 11 17  1  0  0  0  0
 12 23  1  0  0  0  0
 13 23  2  0  0  0  0
 13 25  1  0  0  0  0
 14 25  2  0  0  0  0
 15 16  2  0  0  0  0
 15 19  1  0  0  0  0
 16 18  1  0  0  0  0
 17 18  2  0  0  0  0
 17 20  1  0  0  0  0
 19 20  2  0  0  0  0
 21 24  1  0  0  0  0
 22 26  1  0  0  0  0
M  CHG  4   4  -1   6  -1  10   1  27   1
M  END
> <PUBCHEM_COMPOUND_ID_TYPE>
0

> <PUBCHEM_TOTAL_CHARGE>
0

> <PUBCHEM_SUBSTANCE_ID>
310930008

> <PUBCHEM_SUBSTANCE_VERSION>
1

> <PUBCHEM_EXT_DATASOURCE_NAME>
4488

> <PUBCHEM_EXT_DATASOURCE_REGID>
SCHEMBL16107247

> <PUBCHEM_SUBSTANCE_COMMENT>
InChI=1S/C12H14N6O6S2/c1-2-17(5-6-24-26(21,22)23)10-4-3-9(7-11(10)18(19)20)15-16-12-13-8-14-25-12/h3-4,7-8H,2,5-6H2,1H3,(H,21,22,23)/b16-15+
InChIKey=IOHMSRBADAXPHM-FOCLMDBBSA-N

> <PUBCHEM_SUBSTANCE_SYNONYM>
SCHEMBL16107247

> <PUBCHEM_XREF_EXT_ID>
SCHEMBL16107247

> <PUBCHEM_EXT_DATASOURCE_URL>
https://www.surechembl.org/

> <PUBCHEM_EXT_SUBSTANCE_URL>
https://www.surechembl.org/chemical/SCHEMBL16107247

> <PUBCHEM_CID_ASSOCIATIONS>
117599258  1
783  2
89559101  2

> <PUBCHEM_COORDINATE_TYPE>
1
3

> <PUBCHEM_BONDANNOTATIONS>
11  17  3

$$$$
