310941915
  -OEChem-07211613022D

 29 31  0     1  0  0  0  0  0999 V2000
   -2.3143   -1.4156    0.0000 O   0  0  0  0  0  0  0  0  0  0  0  0
    3.5277    2.8986    0.0000 O   0  0  0  0  0  0  0  0  0  0  0  0
    1.4156   -0.6965    0.0000 N   0  0  3  0  0  0  0  0  0  0  0  0
   -2.3143    0.0225    0.0000 N   0  0  0  0  0  0  0  0  0  0  0  0
    2.6739    1.4605    0.0000 N   0  0  3  0  0  0  0  0  0  0  0  0
   -1.0560   -0.6517    0.0000 C   0  0  0  0  0  0  0  0  0  0  0  0
   -1.4605   -1.4156    0.0000 C   0  0  0  0  0  0  0  0  0  0  0  0
    0.1573   -1.3706    0.0000 C   0  0  0  0  0  0  0  0  0  0  0  0
   -1.0560   -2.1345    0.0000 C   0  0  0  0  0  0  0  0  0  0  0  0
   -0.2472   -0.7414    0.0000 C   0  0  0  0  0  0  0  0  0  0  0  0
   -0.2022   -2.1345    0.0000 C   0  0  0  0  0  0  0  0  0  0  0  0
   -1.4156   -0.0225    0.0000 C   0  0  0  0  0  0  0  0  0  0  0  0
    1.0111   -1.4156    0.0000 C   0  0  0  0  0  0  0  0  0  0  0  0
   -1.4605   -2.8986    0.0000 C   0  0  0  0  0  0  0  0  0  0  0  0
   -2.7188    0.7414    0.0000 C   0  0  0  0  0  0  0  0  0  0  0  0
    2.2694   -0.6965    0.0000 C   0  0  0  0  0  0  0  0  0  0  0  0
   -3.5727    0.7864    0.0000 C   0  0  0  0  0  0  0  0  0  0  0  0
   -2.3143    1.5054    0.0000 C   0  0  0  0  0  0  0  0  0  0  0  0
    2.6739    0.0225    0.0000 C   0  0  0  0  0  0  0  0  0  0  0  0
    2.2694    0.7414    0.0000 C   0  0  0  0  0  0  0  0  0  0  0  0
    1.0560    0.0225    0.0000 C   0  0  0  0  0  0  0  0  0  0  0  0
   -3.9322    1.4156    0.0000 C   0  0  0  0  0  0  0  0  0  0  0  0
   -2.7188    2.1795    0.0000 C   0  0  0  0  0  0  0  0  0  0  0  0
    3.5277    1.4605    0.0000 C   0  0  0  0  0  0  0  0  0  0  0  0
    2.5840    1.7751    0.0000 C   0  0  0  0  0  0  0  0  0  0  0  0
   -3.5277    2.1345    0.0000 C   0  0  0  0  0  0  0  0  0  0  0  0
    3.9322    2.1795    0.0000 C   0  0  0  0  0  0  0  0  0  0  0  0
    2.2694    2.1795    0.0000 C   0  0  0  0  0  0  0  0  0  0  0  0
    2.6739    2.8986    0.0000 C   0  0  0  0  0  0  0  0  0  0  0  0
  1  7  1  0  0  0  0
  2 27  1  0  0  0  0
  2 29  1  0  0  0  0
  3 13  1  0  0  0  0
  3 16  1  0  0  0  0
  3 21  1  0  0  0  0
  4 12  2  0  0  0  0
  4 15  1  0  0  0  0
  5 20  1  0  0  0  0
  5 24  1  0  0  0  0
  5 25  1  0  0  0  0
  6  7  2  0  0  0  0
  6 10  1  0  0  0  0
  6 12  1  0  0  0  0
  7  9  1  0  0  0  0
  8 10  2  0  0  0  0
  8 11  1  0  0  0  0
  8 13  1  0  0  0  0
  9 11  2  0  0  0  0
  9 14  1  0  0  0  0
 15 17  1  0  0  0  0
 15 18  1  0  0  0  0
 16 19  1  0  0  0  0
 17 22  1  0  0  0  0
 18 23  1  0  0  0  0
 19 20  1  0  0  0  0
 22 26  1  0  0  0  0
 23 26  1  0  0  0  0
 24 27  1  0  0  0  0
 25 28  1  0  0  0  0
 28 29  1  0  0  0  0
M  END
> <PUBCHEM_COMPOUND_ID_TYPE>
0

> <PUBCHEM_TOTAL_CHARGE>
0

> <PUBCHEM_SUBSTANCE_ID>
310941915

> <PUBCHEM_SUBSTANCE_VERSION>
1

> <PUBCHEM_EXT_DATASOURCE_NAME>
4488

> <PUBCHEM_EXT_DATASOURCE_REGID>
SCHEMBL16119947

> <PUBCHEM_SUBSTANCE_COMMENT>
InChI=1S/C24H39N3O2/c1-20-16-21(17-22(24(20)28)18-25-23-8-4-3-5-9-23)19-26(2)10-6-11-27-12-7-14-29-15-13-27/h16-18,23,28H,3-15,19H2,1-2H3/b25-18+
InChIKey=QKNGUYKCSVVODU-XIEYBQDHSA-N

> <PUBCHEM_SUBSTANCE_SYNONYM>
SCHEMBL16119947

> <PUBCHEM_XREF_EXT_ID>
SCHEMBL16119947

> <PUBCHEM_EXT_DATASOURCE_URL>
https://www.surechembl.org/

> <PUBCHEM_EXT_SUBSTANCE_URL>
https://www.surechembl.org/chemical/SCHEMBL16119947

> <PUBCHEM_CID_ASSOCIATIONS>
117608647  1

> <PUBCHEM_COORDINATE_TYPE>
1
3

$$$$
