310930578
  -OEChem-07211613022D

 24 27  0     1  0  0  0  0  0999 V2000
    4.4399   -2.2643    0.0000 O   0  0  0  0  0  0  0  0  0  0  0  0
    5.5054   -0.8214    0.0000 O   0  0  0  0  0  0  0  0  0  0  0  0
    0.0000   -1.9313    0.0000 O   0  0  0  0  0  0  0  0  0  0  0  0
    4.1956   -0.1554    0.0000 N   0  0  0  0  0  0  0  0  0  0  0  0
    0.3996   -2.6639    0.0000 N   0  0  0  0  0  0  0  0  0  0  0  0
    6.3490   -1.1099    0.0000 N   0  0  0  0  0  0  0  0  0  0  0  0
    4.1956   -1.4873    0.0000 C   0  0  3  0  0  0  0  0  0  0  0  0
    3.4186   -1.2432    0.0000 C   0  0  0  0  0  0  0  0  0  0  0  0
    3.4186   -0.3996    0.0000 C   0  0  0  0  0  0  0  0  0  0  0  0
    4.6840   -0.8214    0.0000 C   0  0  0  0  0  0  0  0  0  0  0  0
    5.0170   -1.5983    0.0000 C   0  0  0  0  0  0  0  0  0  0  0  0
    2.6861   -1.6428    0.0000 C   0  0  0  0  0  0  0  0  0  0  0  0
    1.9979   -1.2432    0.0000 C   0  0  0  0  0  0  0  0  0  0  0  0
    1.2876   -1.6650    0.0000 C   0  0  0  0  0  0  0  0  0  0  0  0
    2.6861    0.0000    0.0000 C   0  0  0  0  0  0  0  0  0  0  0  0
    1.9979   -0.3996    0.0000 C   0  0  0  0  0  0  0  0  0  0  0  0
    5.5498   -0.9768    0.0000 C   0  0  0  0  0  0  0  0  0  0  0  0
    5.3278   -2.3753    0.0000 C   0  0  0  0  0  0  0  0  0  0  0  0
    0.5328   -1.3319    0.0000 C   0  0  0  0  0  0  0  0  0  0  0  0
    1.1988   -2.4641    0.0000 C   0  0  0  0  0  0  0  0  0  0  0  0
    6.1270   -2.5085    0.0000 C   0  0  0  0  0  0  0  0  0  0  0  0
    6.6597   -1.8869    0.0000 C   0  0  0  0  0  0  0  0  0  0  0  0
    0.3552   -0.5328    0.0000 C   0  0  0  0  0  0  0  0  0  0  0  0
    1.8203   -3.0191    0.0000 C   0  0  0  0  0  0  0  0  0  0  0  0
  1  7  1  0  0  0  0
  2 10  2  0  0  0  0
  3  5  1  0  0  0  0
  3 19  1  0  0  0  0
  4  9  1  0  0  0  0
  4 10  1  0  0  0  0
  5 20  2  0  0  0  0
  6 17  1  0  0  0  0
  6 22  2  0  0  0  0
  7  8  1  0  0  0  0
  7 10  1  0  0  0  0
  7 11  1  0  0  0  0
  8  9  2  0  0  0  0
  8 12  1  0  0  0  0
  9 15  1  0  0  0  0
 11 17  2  0  0  0  0
 11 18  1  0  0  0  0
 12 13  2  0  0  0  0
 13 14  1  0  0  0  0
 13 16  1  0  0  0  0
 14 19  2  0  0  0  0
 14 20  1  0  0  0  0
 15 16  2  0  0  0  0
 18 21  2  0  0  0  0
 19 23  1  0  0  0  0
 20 24  1  0  0  0  0
 21 22  1  0  0  0  0
M  END
> <PUBCHEM_COMPOUND_ID_TYPE>
0

> <PUBCHEM_TOTAL_CHARGE>
0

> <PUBCHEM_SUBSTANCE_ID>
310930578

> <PUBCHEM_SUBSTANCE_VERSION>
1

> <PUBCHEM_EXT_DATASOURCE_NAME>
4488

> <PUBCHEM_EXT_DATASOURCE_REGID>
SCHEMBL16107873

> <PUBCHEM_SUBSTANCE_COMMENT>
InChI=1S/C18H15N3O3/c1-10-16(11(2)24-21-10)12-5-6-15-14(8-12)18(23,17(22)20-15)13-4-3-7-19-9-13/h3-9,23H,1-2H3,(H,20,22)
InChIKey=PHEGRKLLKIQRAG-UHFFFAOYSA-N

> <PUBCHEM_SUBSTANCE_SYNONYM>
SCHEMBL16107873

> <PUBCHEM_XREF_EXT_ID>
SCHEMBL16107873

> <PUBCHEM_EXT_DATASOURCE_URL>
https://www.surechembl.org/

> <PUBCHEM_EXT_SUBSTANCE_URL>
https://www.surechembl.org/chemical/SCHEMBL16107873

> <PUBCHEM_CID_ASSOCIATIONS>
86295883  1

> <PUBCHEM_COORDINATE_TYPE>
1
3

$$$$
