310949530
  -OEChem-07211613022D

 27 27  0     1  0  0  0  0  0999 V2000
   -4.0197   -1.4261    0.0000 O   0  0  0  0  0  0  0  0  0  0  0  0
   -2.5796   -0.6012    0.0000 O   0  0  0  0  0  0  0  0  0  0  0  0
   -5.4599   -0.6012    0.0000 O   0  0  0  0  0  0  0  0  0  0  0  0
   -5.4599    1.0347    0.0000 O   0  0  0  0  0  0  0  0  0  0  0  0
   -3.2787    0.6991    0.0000 C   0  0  3  0  0  0  0  0  0  0  0  0
   -3.9918   -0.5313    0.0000 C   0  0  0  0  0  0  0  0  0  0  0  0
   -3.2787   -0.1258    0.0000 C   0  0  3  0  0  0  0  0  0  0  0  0
   -4.0057    1.1046    0.0000 C   0  0  3  0  0  0  0  0  0  0  0  0
   -4.7328   -0.1398    0.0000 C   0  0  0  0  0  0  0  0  0  0  0  0
   -4.7188    0.6851    0.0000 C   0  0  0  0  0  0  0  0  0  0  0  0
   -2.5656    1.1046    0.0000 C   0  0  0  0  0  0  0  0  0  0  0  0
   -4.0057    1.8037    0.0000 C   0  0  0  0  0  0  0  0  0  0  0  0
   -1.8246    0.6991    0.0000 C   0  0  0  0  0  0  0  0  0  0  0  0
   -1.0976    1.1046    0.0000 C   0  0  0  0  0  0  0  0  0  0  0  0
   -3.2508   -1.8037    0.0000 C   0  0  0  0  0  0  0  0  0  0  0  0
   -0.3565    0.6991    0.0000 C   0  0  0  0  0  0  0  0  0  0  0  0
   -1.0976    1.8037    0.0000 C   0  0  0  0  0  0  0  0  0  0  0  0
    0.3425    1.1046    0.0000 C   0  0  0  0  0  0  0  0  0  0  0  0
    1.0976    0.6991    0.0000 C   0  0  0  0  0  0  0  0  0  0  0  0
    1.7967    1.1046    0.0000 C   0  0  0  0  0  0  0  0  0  0  0  0
    2.5377    0.6991    0.0000 C   0  0  0  0  0  0  0  0  0  0  0  0
    3.2368    1.1046    0.0000 C   0  0  0  0  0  0  0  0  0  0  0  0
    1.8106    1.8037    0.0000 C   0  0  0  0  0  0  0  0  0  0  0  0
    3.9918    0.6991    0.0000 C   0  0  0  0  0  0  0  0  0  0  0  0
    4.7049    1.1046    0.0000 C   0  0  0  0  0  0  0  0  0  0  0  0
    4.7049    1.8037    0.0000 C   0  0  0  0  0  0  0  0  0  0  0  0
    5.4599    0.6991    0.0000 C   0  0  0  0  0  0  0  0  0  0  0  0
  1  6  1  0  0  0  0
  1 15  1  0  0  0  0
  2  7  1  0  0  0  0
  3  9  1  0  0  0  0
  4 10  2  0  0  0  0
  5  7  1  0  0  0  0
  5  8  1  0  0  0  0
  5 11  1  0  0  0  0
  6  7  1  0  0  0  0
  6  9  2  0  0  0  0
  8 10  1  0  0  0  0
  8 12  1  0  0  0  0
  9 10  1  0  0  0  0
 11 13  1  0  0  0  0
 13 14  2  0  0  0  0
 14 16  1  0  0  0  0
 14 17  1  0  0  0  0
 16 18  1  0  0  0  0
 18 19  1  0  0  0  0
 19 20  2  0  0  0  0
 20 21  1  0  0  0  0
 20 23  1  0  0  0  0
 21 22  1  0  0  0  0
 22 24  1  0  0  0  0
 24 25  2  0  0  0  0
 25 26  1  0  0  0  0
 25 27  1  0  0  0  0
M  END
> <PUBCHEM_COMPOUND_ID_TYPE>
0

> <PUBCHEM_TOTAL_CHARGE>
0

> <PUBCHEM_SUBSTANCE_ID>
310949530

> <PUBCHEM_SUBSTANCE_VERSION>
1

> <PUBCHEM_EXT_DATASOURCE_NAME>
4488

> <PUBCHEM_EXT_DATASOURCE_REGID>
SCHEMBL16127725

> <PUBCHEM_SUBSTANCE_COMMENT>
InChI=1S/C23H36O4/c1-15(2)9-7-10-16(3)11-8-12-17(4)13-14-19-18(5)20(24)22(26)23(27-6)21(19)25/h9,11,13,18-19,21,25-26H,7-8,10,12,14H2,1-6H3/b16-11+,17-13+
InChIKey=HUZXIOARNZMNFL-IUBLYSDUSA-N

> <PUBCHEM_SUBSTANCE_SYNONYM>
SCHEMBL16127725

> <PUBCHEM_XREF_EXT_ID>
SCHEMBL16127725

> <PUBCHEM_EXT_DATASOURCE_URL>
https://www.surechembl.org/

> <PUBCHEM_EXT_SUBSTANCE_URL>
https://www.surechembl.org/chemical/SCHEMBL16127725

> <PUBCHEM_CID_ASSOCIATIONS>
117614958  1

> <PUBCHEM_COORDINATE_TYPE>
1
3

$$$$
