310932457
  -OEChem-07211613022D

 13 14  0     1  0  0  0  0  0999 V2000
    0.4212    0.0000    0.0000 O   0  0  0  0  0  0  0  0  0  0  0  0
    1.5518   -1.9508    0.0000 O   0  0  0  0  0  0  0  0  0  0  0  0
    2.2611   -0.7094    0.0000 O   0  0  0  0  0  0  0  0  0  0  0  0
    0.0000   -0.7094    0.0000 C   0  0  0  0  0  0  0  0  0  0  0  0
    0.8202   -0.7094    0.0000 C   0  0  3  0  0  0  0  0  0  0  0  0
    0.7316   -1.1306    0.0000 C   0  0  0  0  0  0  0  0  0  0  0  0
    2.1503   -1.1306    0.0000 C   0  0  0  0  0  0  0  0  0  0  0  0
    1.5518   -1.1306    0.0000 C   0  0  0  0  0  0  0  0  0  0  0  0
    1.4409   -0.7094    0.0000 C   0  0  0  0  0  0  0  0  0  0  0  0
    2.2611   -2.3720    0.0000 C   0  0  0  0  0  0  0  0  0  0  0  0
    2.2611   -3.1922    0.0000 C   0  0  0  0  0  0  0  0  0  0  0  0
    2.9927   -3.6135    0.0000 C   0  0  0  0  0  0  0  0  0  0  0  0
    2.9927   -4.4337    0.0000 C   0  0  0  0  0  0  0  0  0  0  0  0
  1  4  1  0  0  0  0
  1  5  1  0  0  0  0
  2  8  1  0  0  0  0
  2 10  1  0  0  0  0
  3  8  2  0  0  0  0
  4  5  1  0  0  0  0
  4  6  1  0  0  0  0
  4  7  1  0  0  0  0
  5  8  1  0  0  0  0
  6  9  1  0  0  0  0
  7  9  1  0  0  0  0
 10 11  1  0  0  0  0
 11 12  1  0  0  0  0
 12 13  1  0  0  0  0
M  END
> <PUBCHEM_COMPOUND_ID_TYPE>
0

> <PUBCHEM_TOTAL_CHARGE>
0

> <PUBCHEM_SUBSTANCE_ID>
310932457

> <PUBCHEM_SUBSTANCE_VERSION>
1

> <PUBCHEM_EXT_DATASOURCE_NAME>
4488

> <PUBCHEM_EXT_DATASOURCE_REGID>
SCHEMBL16109828

> <PUBCHEM_SUBSTANCE_COMMENT>
InChI=1S/C10H16O3/c1-2-3-7-12-9(11)8-10(13-8)5-4-6-10/h8H,2-7H2,1H3
InChIKey=WKZQXXIOHBKRRL-UHFFFAOYSA-N

> <PUBCHEM_SUBSTANCE_SYNONYM>
SCHEMBL16109828

> <PUBCHEM_XREF_EXT_ID>
SCHEMBL16109828

> <PUBCHEM_EXT_DATASOURCE_URL>
https://www.surechembl.org/

> <PUBCHEM_EXT_SUBSTANCE_URL>
https://www.surechembl.org/chemical/SCHEMBL16109828

> <PUBCHEM_CID_ASSOCIATIONS>
117600998  1

> <PUBCHEM_COORDINATE_TYPE>
1
3

$$$$
