310946624
  -OEChem-07211613022D

 30 29  0     1  0  0  0  0  0999 V2000
   -7.4352   15.8666    0.0000 O   0  0  0  0  0  0  0  0  0  0  0  0
   -7.3915   17.0597    0.0000 O   0  0  0  0  0  0  0  0  0  0  0  0
   -8.0979   18.2973    0.0000 O   0  0  0  0  0  0  0  0  0  0  0  0
   -8.4455   14.8561    0.0000 O   0  0  0  0  0  0  0  0  0  0  0  0
  -11.7040   17.6320    0.0000 O   0  0  0  0  0  0  0  0  0  0  0  0
  -10.6936   18.6424    0.0000 O   0  0  0  0  0  0  0  0  0  0  0  0
  -13.1329   14.3320    0.0000 O   0  0  0  0  0  0  0  0  0  0  0  0
  -12.2924   12.8761    0.0000 O   0  5  0  0  0  0  0  0  0  0  0  0
  -11.4518   14.3320    0.0000 O   0  0  0  0  0  0  0  0  0  0  0  0
   -8.8155   16.2365    0.0000 N   0  0  0  0  0  0  0  0  0  0  0  0
  -12.2924   13.8468    0.0000 N   0  3  0  0  0  0  0  0  0  0  0  0
   -8.8135   17.0615    0.0000 C   0  0  3  0  0  0  0  0  0  0  0  0
   -8.0979   17.4723    0.0000 C   0  0  0  0  0  0  0  0  0  0  0  0
   -8.2320   15.6531    0.0000 C   0  0  0  0  0  0  0  0  0  0  0  0
   -6.8517   15.2833    0.0000 C   0  0  0  0  0  0  0  0  0  0  0  0
   -9.5269   17.4757    0.0000 C   0  0  0  0  0  0  0  0  0  0  0  0
  -10.3239   17.2622    0.0000 C   0  0  0  0  0  0  0  0  0  0  0  0
  -10.9071   17.8456    0.0000 C   0  0  0  0  0  0  0  0  0  0  0  0
   -6.1373   15.6958    0.0000 C   0  0  0  0  0  0  0  0  0  0  0  0
   -6.8517   14.4583    0.0000 C   0  0  0  0  0  0  0  0  0  0  0  0
   -7.4352   14.6999    0.0000 C   0  0  0  0  0  0  0  0  0  0  0  0
   -6.6769   17.4723    0.0000 C   0  0  0  0  0  0  0  0  0  0  0  0
  -11.7040   16.8070    0.0000 C   0  0  0  0  0  0  0  0  0  0  0  0
   -5.9625   17.0597    0.0000 C   0  0  0  0  0  0  0  0  0  0  0  0
  -12.4185   16.3945    0.0000 C   0  0  0  0  0  0  0  0  0  0  0  0
   -5.2480   17.4723    0.0000 C   0  0  0  0  0  0  0  0  0  0  0  0
  -12.4185   15.5696    0.0000 C   0  0  0  0  0  0  0  0  0  0  0  0
  -13.1329   15.1570    0.0000 C   0  0  0  0  0  0  0  0  0  0  0  0
   -4.5336   17.0597    0.0000 C   0  0  0  0  0  0  0  0  0  0  0  0
   -3.8190   17.4723    0.0000 C   0  0  0  0  0  0  0  0  0  0  0  0
  1 14  1  0  0  0  0
  1 15  1  0  0  0  0
  2 13  1  0  0  0  0
  2 22  1  0  0  0  0
  3 13  2  0  0  0  0
  4 14  2  0  0  0  0
  5 18  1  0  0  0  0
  5 23  1  0  0  0  0
  6 18  2  0  0  0  0
  7 11  1  0  0  0  0
  7 28  1  0  0  0  0
  8 11  1  0  0  0  0
  9 11  2  0  0  0  0
 10 12  1  0  0  0  0
 10 14  1  0  0  0  0
 12 13  1  0  0  0  0
 12 16  1  0  0  0  0
 15 19  1  0  0  0  0
 15 20  1  0  0  0  0
 15 21  1  0  0  0  0
 16 17  1  0  0  0  0
 17 18  1  0  0  0  0
 22 24  1  0  0  0  0
 23 25  1  0  0  0  0
 24 26  1  0  0  0  0
 25 27  1  0  0  0  0
 26 29  1  0  0  0  0
 27 28  1  0  0  0  0
 29 30  1  0  0  0  0
M  CHG  2   8  -1  11   1
M  END
> <PUBCHEM_COMPOUND_ID_TYPE>
0

> <PUBCHEM_TOTAL_CHARGE>
0

> <PUBCHEM_SUBSTANCE_ID>
310946624

> <PUBCHEM_SUBSTANCE_VERSION>
1

> <PUBCHEM_EXT_DATASOURCE_NAME>
4488

> <PUBCHEM_EXT_DATASOURCE_REGID>
SCHEMBL16124745

> <PUBCHEM_SUBSTANCE_COMMENT>
InChI=1S/C19H34N2O9/c1-5-6-7-13-28-17(23)15(20-18(24)30-19(2,3)4)10-11-16(22)27-12-8-9-14-29-21(25)26/h15H,5-14H2,1-4H3,(H,20,24)
InChIKey=RYYCESMTJCBSDD-UHFFFAOYSA-N

> <PUBCHEM_SUBSTANCE_SYNONYM>
SCHEMBL16124745

> <PUBCHEM_XREF_EXT_ID>
SCHEMBL16124745

> <PUBCHEM_EXT_DATASOURCE_URL>
https://www.surechembl.org/

> <PUBCHEM_EXT_SUBSTANCE_URL>
https://www.surechembl.org/chemical/SCHEMBL16124745

> <PUBCHEM_CID_ASSOCIATIONS>
117612524  1

> <PUBCHEM_COORDINATE_TYPE>
1
3

$$$$
