310945386
  -OEChem-07211613022D

 31 33  0     1  0  0  0  0  0999 V2000
    4.1223    1.5346    0.0000 I   0  0  0  0  0  0  0  0  0  0  0  0
   -4.1223   -1.6172    0.0000 Br  0  0  0  0  0  0  0  0  0  0  0  0
   -3.0487    1.2456    0.0000 O   0  0  0  0  0  0  0  0  0  0  0  0
    4.1223    1.1355    0.0000 O   0  0  0  0  0  0  0  0  0  0  0  0
    1.2731    2.0026    0.0000 N   0  0  0  0  0  0  0  0  0  0  0  0
   -1.6172    1.2594    0.0000 N   0  0  0  0  0  0  0  0  0  0  0  0
   -0.9153   -0.0069    0.0000 N   0  0  0  0  0  0  0  0  0  0  0  0
   -2.3743   -2.4568    0.0000 N   0  0  0  0  0  0  0  0  0  0  0  0
    0.5161    0.8465    0.0000 C   0  0  3  0  0  0  0  0  0  0  0  0
   -0.1445    2.0302    0.0000 C   0  0  3  0  0  0  0  0  0  0  0  0
   -0.1583    1.2319    0.0000 C   0  0  0  0  0  0  0  0  0  0  0  0
    0.5437    2.4568    0.0000 C   0  0  0  0  0  0  0  0  0  0  0  0
    1.2456    1.1906    0.0000 C   0  0  0  0  0  0  0  0  0  0  0  0
   -0.9015    0.8327    0.0000 C   0  0  0  0  0  0  0  0  0  0  0  0
    1.9751    2.4294    0.0000 C   0  0  0  0  0  0  0  0  0  0  0  0
   -2.3192    0.8465    0.0000 C   0  0  0  0  0  0  0  0  0  0  0  0
   -2.3605    0.0206    0.0000 C   0  0  0  0  0  0  0  0  0  0  0  0
    2.7046    2.0164    0.0000 C   0  0  3  0  0  0  0  0  0  0  0  0
   -1.6311   -0.3648    0.0000 C   0  0  0  0  0  0  0  0  0  0  0  0
   -3.0625   -0.3648    0.0000 C   0  0  0  0  0  0  0  0  0  0  0  0
   -3.1038   -1.1768    0.0000 C   0  0  0  0  0  0  0  0  0  0  0  0
   -1.6448   -1.1906    0.0000 C   0  0  0  0  0  0  0  0  0  0  0  0
    3.3928    2.4018    0.0000 C   0  0  0  0  0  0  0  0  0  0  0  0
    2.7184    1.1768    0.0000 C   0  0  0  0  0  0  0  0  0  0  0  0
   -2.3881   -1.5898    0.0000 C   0  0  0  0  0  0  0  0  0  0  0  0
   -0.1996   -0.4061    0.0000 C   0  0  0  0  0  0  0  0  0  0  0  0
   -0.9291   -1.6311    0.0000 C   0  0  0  0  0  0  0  0  0  0  0  0
   -0.2133   -1.2181    0.0000 C   0  0  0  0  0  0  0  0  0  0  0  0
    4.1223    1.9751    0.0000 C   0  0  0  0  0  0  0  0  0  0  0  0
    3.4066    0.7776    0.0000 C   0  0  0  0  0  0  0  0  0  0  0  0
   -1.6724   -1.2044    0.0000 C   0  0  0  0  0  0  0  0  0  0  0  0
  1 29  1  0  0  0  0
  2 21  1  0  0  0  0
  3 16  2  0  0  0  0
  4 30  1  0  0  0  0
  5 12  1  0  0  0  0
  5 13  1  0  0  0  0
  5 15  1  0  0  0  0
  6 14  1  0  0  0  0
  6 16  1  0  0  0  0
  7 19  1  0  0  0  0
  7 26  2  0  0  0  0
  8 25  1  0  0  0  0
  9 10  1  0  0  0  0
  9 11  1  0  0  0  0
  9 13  1  0  0  0  0
 10 11  1  0  0  0  0
 10 12  1  0  0  0  0
 11 14  1  0  0  0  0
 15 18  1  0  0  0  0
 16 17  1  0  0  0  0
 17 19  2  0  0  0  0
 17 20  1  0  0  0  0
 18 23  1  0  0  0  0
 18 24  1  0  0  0  0
 19 22  1  0  0  0  0
 20 21  2  0  0  0  0
 21 25  1  0  0  0  0
 22 27  1  0  0  0  0
 23 29  1  0  0  0  0
 24 30  1  0  0  0  0
 25 31  2  0  0  0  0
 26 28  1  0  0  0  0
 27 28  2  0  0  0  0
M  END
> <PUBCHEM_COMPOUND_ID_TYPE>
0

> <PUBCHEM_TOTAL_CHARGE>
0

> <PUBCHEM_SUBSTANCE_ID>
310945386

> <PUBCHEM_SUBSTANCE_VERSION>
1

> <PUBCHEM_EXT_DATASOURCE_NAME>
4488

> <PUBCHEM_EXT_DATASOURCE_REGID>
SCHEMBL16123484

> <PUBCHEM_SUBSTANCE_COMMENT>
InChI=1S/C23H32BrIN4O2/c1-15(26)21(24)10-17(22-4-2-3-8-27-22)23(31)28-11-18-19-13-29(14-20(18)19)12-16(5-7-25)6-9-30/h2-3,8,10,16,18-20,30H,1,4-7,9,11-14,26H2,(H,28,31)/b21-10+,22-17-
InChIKey=AGFPQSAJCXKUQO-LIGQUWCQSA-N

> <PUBCHEM_SUBSTANCE_SYNONYM>
SCHEMBL16123484

> <PUBCHEM_XREF_EXT_ID>
SCHEMBL16123484

> <PUBCHEM_EXT_DATASOURCE_URL>
https://www.surechembl.org/

> <PUBCHEM_EXT_SUBSTANCE_URL>
https://www.surechembl.org/chemical/SCHEMBL16123484

> <PUBCHEM_CID_ASSOCIATIONS>
117611436  1

> <PUBCHEM_COORDINATE_TYPE>
1
3

$$$$
