310932337
  -OEChem-07211613022D

 23 25  0     1  0  0  0  0  0999 V2000
    3.2844    0.0000    0.0000 O   0  0  0  0  0  0  0  0  0  0  0  0
    4.3921   -1.9434    0.0000 O   0  0  0  0  0  0  0  0  0  0  0  0
    5.1111   -0.7191    0.0000 O   0  0  0  0  0  0  0  0  0  0  0  0
    3.6925   -0.7191    0.0000 C   0  0  3  0  0  0  0  0  0  0  0  0
    2.8762   -0.7191    0.0000 C   0  0  3  0  0  0  0  0  0  0  0  0
    3.4787   -1.5158    0.0000 C   0  0  0  0  0  0  0  0  0  0  0  0
    4.3921   -1.1272    0.0000 C   0  0  0  0  0  0  0  0  0  0  0  0
    2.1572   -1.1272    0.0000 C   0  0  0  0  0  0  0  0  0  0  0  0
    4.0617   -2.0989    0.0000 C   0  0  0  0  0  0  0  0  0  0  0  0
    2.6819   -1.7296    0.0000 C   0  0  0  0  0  0  0  0  0  0  0  0
    2.1378   -1.9628    0.0000 C   0  0  0  0  0  0  0  0  0  0  0  0
    1.4381   -0.7191    0.0000 C   0  0  0  0  0  0  0  0  0  0  0  0
    5.1111   -2.3709    0.0000 C   0  0  0  0  0  0  0  0  0  0  0  0
    3.8479   -2.8956    0.0000 C   0  0  0  0  0  0  0  0  0  0  0  0
    2.4681   -2.5264    0.0000 C   0  0  0  0  0  0  0  0  0  0  0  0
    1.4381   -2.3709    0.0000 C   0  0  0  0  0  0  0  0  0  0  0  0
    0.7191   -1.1272    0.0000 C   0  0  0  0  0  0  0  0  0  0  0  0
    0.7191   -1.9434    0.0000 C   0  0  0  0  0  0  0  0  0  0  0  0
    3.0511   -3.1094    0.0000 C   0  0  0  0  0  0  0  0  0  0  0  0
    4.7030   -3.0900    0.0000 C   0  0  0  0  0  0  0  0  0  0  0  0
    5.8302   -2.7596    0.0000 C   0  0  0  0  0  0  0  0  0  0  0  0
    5.5192   -1.6519    0.0000 C   0  0  0  0  0  0  0  0  0  0  0  0
    0.0000   -2.3709    0.0000 C   0  0  0  0  0  0  0  0  0  0  0  0
  1  4  1  0  0  0  0
  1  5  1  0  0  0  0
  2  7  1  0  0  0  0
  2 13  1  0  0  0  0
  3  7  2  0  0  0  0
  4  5  1  0  0  0  0
  4  6  1  0  0  0  0
  4  7  1  0  0  0  0
  5  8  1  0  0  0  0
  6  9  2  0  0  0  0
  6 10  1  0  0  0  0
  8 11  2  0  0  0  0
  8 12  1  0  0  0  0
  9 14  1  0  0  0  0
 10 15  2  0  0  0  0
 11 16  1  0  0  0  0
 12 17  2  0  0  0  0
 13 20  1  0  0  0  0
 13 21  1  0  0  0  0
 13 22  1  0  0  0  0
 14 19  2  0  0  0  0
 15 19  1  0  0  0  0
 16 18  2  0  0  0  0
 17 18  1  0  0  0  0
 18 23  1  0  0  0  0
M  END
> <PUBCHEM_COMPOUND_ID_TYPE>
0

> <PUBCHEM_TOTAL_CHARGE>
0

> <PUBCHEM_SUBSTANCE_ID>
310932337

> <PUBCHEM_SUBSTANCE_VERSION>
1

> <PUBCHEM_EXT_DATASOURCE_NAME>
4488

> <PUBCHEM_EXT_DATASOURCE_REGID>
SCHEMBL16109703

> <PUBCHEM_SUBSTANCE_COMMENT>
InChI=1S/C20H22O3/c1-14-10-12-15(13-11-14)17-20(22-17,16-8-6-5-7-9-16)18(21)23-19(2,3)4/h5-13,17H,1-4H3
InChIKey=NIMRZIHXGSYYBP-UHFFFAOYSA-N

> <PUBCHEM_SUBSTANCE_SYNONYM>
SCHEMBL16109703

> <PUBCHEM_XREF_EXT_ID>
SCHEMBL16109703

> <PUBCHEM_EXT_DATASOURCE_URL>
https://www.surechembl.org/

> <PUBCHEM_EXT_SUBSTANCE_URL>
https://www.surechembl.org/chemical/SCHEMBL16109703

> <PUBCHEM_CID_ASSOCIATIONS>
117600892  1

> <PUBCHEM_COORDINATE_TYPE>
1
3

$$$$
