310942035
  -OEChem-07211613022D

 27 30  0     1  0  0  0  0  0999 V2000
    1.6835   -0.5750    0.0000 N   0  0  0  0  0  0  0  0  0  0  0  0
   -1.2816   -2.0853    0.0000 N   0  0  0  0  0  0  0  0  0  0  0  0
   -1.7527   -1.4063    0.0000 N   0  0  0  0  0  0  0  0  0  0  0  0
   -2.3346    0.2286    0.0000 N   0  0  3  0  0  0  0  0  0  0  0  0
   -3.4708    1.9883    0.0000 N   0  0  0  0  0  0  0  0  0  0  0  0
   -0.4642   -0.9629    0.0000 C   0  0  0  0  0  0  0  0  0  0  0  0
   -0.4781   -1.7804    0.0000 C   0  0  0  0  0  0  0  0  0  0  0  0
    0.9768   -0.9629    0.0000 C   0  0  0  0  0  0  0  0  0  0  0  0
   -1.2678   -0.6858    0.0000 C   0  0  0  0  0  0  0  0  0  0  0  0
    3.1383    0.2979    0.0000 C   0  0  0  0  0  0  0  0  0  0  0  0
    0.2563   -0.5473    0.0000 C   0  0  0  0  0  0  0  0  0  0  0  0
    0.2425   -2.1961    0.0000 C   0  0  0  0  0  0  0  0  0  0  0  0
    0.9768   -1.7804    0.0000 C   0  0  0  0  0  0  0  0  0  0  0  0
    2.4455   -0.9491    0.0000 C   0  0  0  0  0  0  0  0  0  0  0  0
    1.7112    0.2979    0.0000 C   0  0  0  0  0  0  0  0  0  0  0  0
    3.1383   -0.5473    0.0000 C   0  0  0  0  0  0  0  0  0  0  0  0
    2.4178    0.6997    0.0000 C   0  0  0  0  0  0  0  0  0  0  0  0
   -1.5172    0.0901    0.0000 C   0  0  0  0  0  0  0  0  0  0  0  0
    3.0552    1.0599    0.0000 C   0  0  0  0  0  0  0  0  0  0  0  0
    3.7756   -0.1594    0.0000 C   0  0  0  0  0  0  0  0  0  0  0  0
    3.7618    1.4756    0.0000 C   0  0  0  0  0  0  0  0  0  0  0  0
    4.4823    0.2425    0.0000 C   0  0  0  0  0  0  0  0  0  0  0  0
    4.4823    1.0599    0.0000 C   0  0  0  0  0  0  0  0  0  0  0  0
   -2.5841    1.0461    0.0000 C   0  0  0  0  0  0  0  0  0  0  0  0
   -2.8888   -0.3672    0.0000 C   0  0  0  0  0  0  0  0  0  0  0  0
   -3.4015    1.2401    0.0000 C   0  0  0  0  0  0  0  0  0  0  0  0
   -4.4823    2.1961    0.0000 C   0  0  0  0  0  0  0  0  0  0  0  0
  1  8  1  0  0  0  0
  1 14  1  0  0  0  0
  1 15  1  0  0  0  0
  2  3  1  0  0  0  0
  2  7  1  0  0  0  0
  3  9  2  0  0  0  0
  4 18  1  0  0  0  0
  4 24  1  0  0  0  0
  4 25  1  0  0  0  0
  5 26  1  0  0  0  0
  5 27  1  0  0  0  0
  6  7  1  0  0  0  0
  6  9  1  0  0  0  0
  6 11  2  0  0  0  0
  7 12  2  0  0  0  0
  8 11  1  0  0  0  0
  8 13  2  0  0  0  0
  9 18  1  0  0  0  0
 10 16  1  0  0  0  0
 10 17  1  0  0  0  0
 10 19  1  0  0  0  0
 10 20  1  0  0  0  0
 12 13  1  0  0  0  0
 14 16  1  0  0  0  0
 15 17  1  0  0  0  0
 19 21  1  0  0  0  0
 20 22  1  0  0  0  0
 21 23  1  0  0  0  0
 22 23  1  0  0  0  0
 24 26  1  0  0  0  0
M  END
> <PUBCHEM_COMPOUND_ID_TYPE>
0

> <PUBCHEM_TOTAL_CHARGE>
0

> <PUBCHEM_SUBSTANCE_ID>
310942035

> <PUBCHEM_SUBSTANCE_VERSION>
1

> <PUBCHEM_EXT_DATASOURCE_NAME>
4488

> <PUBCHEM_EXT_DATASOURCE_REGID>
SCHEMBL16120069

> <PUBCHEM_SUBSTANCE_COMMENT>
InChI=1S/C22H35N5/c1-23-12-15-26(2)17-21-19-16-18(6-7-20(19)24-25-21)27-13-10-22(11-14-27)8-4-3-5-9-22/h6-7,16,23H,3-5,8-15,17H2,1-2H3,(H,24,25)
InChIKey=VYZABAGJAMWVQO-UHFFFAOYSA-N

> <PUBCHEM_SUBSTANCE_SYNONYM>
SCHEMBL16120069

> <PUBCHEM_XREF_EXT_ID>
SCHEMBL16120069

> <PUBCHEM_EXT_DATASOURCE_URL>
https://www.surechembl.org/

> <PUBCHEM_EXT_SUBSTANCE_URL>
https://www.surechembl.org/chemical/SCHEMBL16120069

> <PUBCHEM_CID_ASSOCIATIONS>
117608721  1

> <PUBCHEM_COORDINATE_TYPE>
1
3

$$$$
