310935212
  -OEChem-07211613022D

 28 30  0     1  0  0  0  0  0999 V2000
    1.2593   -2.8711    0.0000 O   0  0  0  0  0  0  0  0  0  0  0  0
    5.7673   -1.3348    0.0000 O   0  0  0  0  0  0  0  0  0  0  0  0
    0.4281   -4.3066    0.0000 O   0  0  0  0  0  0  0  0  0  0  0  0
    6.4725   -2.5940    0.0000 O   0  0  0  0  0  0  0  0  0  0  0  0
    1.6622   -5.0370    0.0000 O   0  0  0  0  0  0  0  0  0  0  0  0
    4.1555   -3.6014    0.0000 N   0  0  0  0  0  0  0  0  0  0  0  0
    2.4933   -2.1407    0.0000 N   0  0  0  0  0  0  0  0  0  0  0  0
    4.9866   -3.3999    0.0000 N   0  0  0  0  0  0  0  0  0  0  0  0
    2.9214   -2.8711    0.0000 C   0  0  0  0  0  0  0  0  0  0  0  0
    3.7273   -2.8711    0.0000 C   0  0  0  0  0  0  0  0  0  0  0  0
    2.4933   -3.6014    0.0000 C   0  0  0  0  0  0  0  0  0  0  0  0
    2.9214   -4.3066    0.0000 C   0  0  0  0  0  0  0  0  0  0  0  0
    4.3066   -2.2415    0.0000 C   0  0  0  0  0  0  0  0  0  0  0  0
    5.0621   -2.5688    0.0000 C   0  0  0  0  0  0  0  0  0  0  0  0
    3.7273   -4.3066    0.0000 C   0  0  0  0  0  0  0  0  0  0  0  0
    1.6622   -3.6014    0.0000 C   0  0  3  0  0  0  0  0  0  0  0  0
    1.6622   -2.1659    0.0000 C   0  0  0  0  0  0  0  0  0  0  0  0
    2.9214   -1.4355    0.0000 C   0  0  0  0  0  0  0  0  0  0  0  0
    5.7673   -2.1659    0.0000 C   0  0  0  0  0  0  0  0  0  0  0  0
    1.2593   -4.3066    0.0000 C   0  0  0  0  0  0  0  0  0  0  0  0
    1.6622   -0.7051    0.0000 C   0  0  0  0  0  0  0  0  0  0  0  0
    1.2341   -1.4355    0.0000 C   0  0  0  0  0  0  0  0  0  0  0  0
    2.4933   -0.7303    0.0000 C   0  0  0  0  0  0  0  0  0  0  0  0
    2.4933   -5.0370    0.0000 C   0  0  0  0  0  0  0  0  0  0  0  0
    1.2593    0.0000    0.0000 C   0  0  0  0  0  0  0  0  0  0  0  0
    2.0904    0.0000    0.0000 C   0  0  0  0  0  0  0  0  0  0  0  0
    6.4725   -0.9066    0.0000 C   0  0  0  0  0  0  0  0  0  0  0  0
    0.0000   -5.0370    0.0000 C   0  0  0  0  0  0  0  0  0  0  0  0
  1 16  1  0  0  0  0
  2 19  1  0  0  0  0
  2 27  1  0  0  0  0
  3 20  1  0  0  0  0
  3 28  1  0  0  0  0
  4 19  2  0  0  0  0
  5 20  2  0  0  0  0
  6  8  1  0  0  0  0
  6 10  1  0  0  0  0
  6 15  1  0  0  0  0
  7  9  1  0  0  0  0
  7 17  1  0  0  0  0
  7 18  1  0  0  0  0
  8 14  2  0  0  0  0
  9 10  1  0  0  0  0
  9 11  2  0  0  0  0
 10 13  2  0  0  0  0
 11 12  1  0  0  0  0
 11 16  1  0  0  0  0
 12 15  2  0  0  0  0
 12 24  1  0  0  0  0
 13 14  1  0  0  0  0
 14 19  1  0  0  0  0
 16 20  1  0  0  0  0
 17 22  1  0  0  0  0
 18 23  1  0  0  0  0
 21 22  1  0  0  0  0
 21 23  1  0  0  0  0
 21 25  1  0  0  0  0
 21 26  1  0  0  0  0
M  END
> <PUBCHEM_COMPOUND_ID_TYPE>
0

> <PUBCHEM_TOTAL_CHARGE>
0

> <PUBCHEM_SUBSTANCE_ID>
310935212

> <PUBCHEM_SUBSTANCE_VERSION>
1

> <PUBCHEM_EXT_DATASOURCE_NAME>
4488

> <PUBCHEM_EXT_DATASOURCE_REGID>
SCHEMBL16112740

> <PUBCHEM_SUBSTANCE_COMMENT>
InChI=1S/C20H27N3O5/c1-12-11-23-14(10-13(21-23)18(25)27-4)16(15(12)17(24)19(26)28-5)22-8-6-20(2,3)7-9-22/h10-11,17,24H,6-9H2,1-5H3
InChIKey=HRIZJZPBSQFHDQ-UHFFFAOYSA-N

> <PUBCHEM_SUBSTANCE_SYNONYM>
SCHEMBL16112740

> <PUBCHEM_XREF_EXT_ID>
SCHEMBL16112740

> <PUBCHEM_EXT_DATASOURCE_URL>
https://www.surechembl.org/

> <PUBCHEM_EXT_SUBSTANCE_URL>
https://www.surechembl.org/chemical/SCHEMBL16112740

> <PUBCHEM_CID_ASSOCIATIONS>
117603292  1

> <PUBCHEM_COORDINATE_TYPE>
1
3

$$$$
