310941060
  -OEChem-07211613022D

 46 49  0     1  0  0  0  0  0999 V2000
    5.0781    0.6790    0.0000 O   0  0  0  0  0  0  0  0  0  0  0  0
    3.9419   -1.2886    0.0000 O   0  0  0  0  0  0  0  0  0  0  0  0
    1.7805    0.7760    0.0000 O   0  0  0  0  0  0  0  0  0  0  0  0
   -0.3672   -1.3024    0.0000 O   0  0  0  0  0  0  0  0  0  0  0  0
    3.9419   -2.9374    0.0000 O   0  0  0  0  0  0  0  0  0  0  0  0
   -2.5286    0.7760    0.0000 O   0  0  0  0  0  0  0  0  0  0  0  0
   -5.3968    0.7621    0.0000 O   0  0  0  0  0  0  0  0  0  0  0  0
    2.5147   -0.4434    0.0000 N   0  0  0  0  0  0  0  0  0  0  0  0
    0.3533   -0.0415    0.0000 N   0  0  0  0  0  0  0  0  0  0  0  0
   -1.8082   -0.4572    0.0000 N   0  0  0  0  0  0  0  0  0  0  0  0
   -0.3810    2.5355    0.0000 N   0  0  0  0  0  0  0  0  0  0  0  0
   -3.9558   -0.0554    0.0000 N   0  0  0  0  0  0  0  0  0  0  0  0
    4.6623    0.0000    0.0000 C   0  0  3  0  0  0  0  0  0  0  0  0
    3.9419   -0.4157    0.0000 C   0  0  0  0  0  0  0  0  0  0  0  0
    4.2744    0.6928    0.0000 C   0  0  0  0  0  0  0  0  0  0  0  0
    3.2215   -0.0138    0.0000 C   0  0  3  0  0  0  0  0  0  0  0  0
    5.3968   -0.4434    0.0000 C   0  0  0  0  0  0  0  0  0  0  0  0
    3.2353    1.3024    0.0000 C   0  0  0  0  0  0  0  0  0  0  0  0
    1.7805   -0.0554    0.0000 C   0  0  0  0  0  0  0  0  0  0  0  0
    2.4870    1.7320    0.0000 C   0  0  0  0  0  0  0  0  0  0  0  0
    1.0738   -0.4572    0.0000 C   0  0  3  0  0  0  0  0  0  0  0  0
    1.0738   -1.2747    0.0000 C   0  0  0  0  0  0  0  0  0  0  0  0
    1.7666    1.3024    0.0000 C   0  0  0  0  0  0  0  0  0  0  0  0
    2.4870    2.5494    0.0000 C   0  0  0  0  0  0  0  0  0  0  0  0
    1.7943   -1.6904    0.0000 C   0  0  0  0  0  0  0  0  0  0  0  0
   -0.3672   -0.4295    0.0000 C   0  0  0  0  0  0  0  0  0  0  0  0
    1.0599    2.5355    0.0000 C   0  0  0  0  0  0  0  0  0  0  0  0
    1.0599    1.7043    0.0000 C   0  0  0  0  0  0  0  0  0  0  0  0
    1.7666    2.9374    0.0000 C   0  0  0  0  0  0  0  0  0  0  0  0
   -1.0877   -0.0277    0.0000 C   0  0  3  0  0  0  0  0  0  0  0  0
    2.5009   -1.2747    0.0000 C   0  0  0  0  0  0  0  0  0  0  0  0
    1.7943   -2.5217    0.0000 C   0  0  0  0  0  0  0  0  0  0  0  0
    3.2076   -2.5078    0.0000 C   0  0  0  0  0  0  0  0  0  0  0  0
    0.3256    2.9374    0.0000 C   0  0  0  0  0  0  0  0  0  0  0  0
    3.2215   -1.6904    0.0000 C   0  0  0  0  0  0  0  0  0  0  0  0
    2.5147   -2.9235    0.0000 C   0  0  0  0  0  0  0  0  0  0  0  0
   -2.5286   -0.0554    0.0000 C   0  0  0  0  0  0  0  0  0  0  0  0
   -1.0877    0.8037    0.0000 C   0  0  0  0  0  0  0  0  0  0  0  0
   -3.2491   -0.4572    0.0000 C   0  0  0  0  0  0  0  0  0  0  0  0
   -3.9558    0.7760    0.0000 C   0  0  0  0  0  0  0  0  0  0  0  0
   -4.6901   -0.4572    0.0000 C   0  0  0  0  0  0  0  0  0  0  0  0
   -4.6762    1.1916    0.0000 C   0  0  0  0  0  0  0  0  0  0  0  0
   -5.3968   -0.0554    0.0000 C   0  0  0  0  0  0  0  0  0  0  0  0
   -0.3810    1.6904    0.0000 C   0  0  0  0  0  0  0  0  0  0  0  0
   -1.1154    2.9374    0.0000 C   0  0  0  0  0  0  0  0  0  0  0  0
    4.6901   -2.5217    0.0000 C   0  0  0  0  0  0  0  0  0  0  0  0
  1 13  1  0  0  0  0
  1 15  1  0  0  0  0
  2 14  2  0  0  0  0
  3 19  2  0  0  0  0
  4 26  2  0  0  0  0
  5 33  1  0  0  0  0
  5 46  1  0  0  0  0
  6 37  2  0  0  0  0
  7 42  1  0  0  0  0
  7 43  1  0  0  0  0
  8 16  1  0  0  0  0
  8 19  1  0  0  0  0
  9 21  1  0  0  0  0
  9 26  1  0  0  0  0
 10 30  1  0  0  0  0
 10 37  1  0  0  0  0
 11 34  1  0  0  0  0
 11 44  1  0  0  0  0
 11 45  1  0  0  0  0
 12 39  1  0  0  0  0
 12 40  1  0  0  0  0
 12 41  1  0  0  0  0
 13 14  1  0  0  0  0
 13 15  1  0  0  0  0
 13 17  1  0  0  0  0
 14 16  1  0  0  0  0
 16 18  1  0  0  0  0
 18 20  1  0  0  0  0
 19 21  1  0  0  0  0
 20 23  2  0  0  0  0
 20 24  1  0  0  0  0
 21 22  1  0  0  0  0
 22 25  1  0  0  0  0
 23 28  1  0  0  0  0
 24 29  2  0  0  0  0
 25 31  2  0  0  0  0
 25 32  1  0  0  0  0
 26 30  1  0  0  0  0
 27 28  2  0  0  0  0
 27 29  1  0  0  0  0
 27 34  1  0  0  0  0
 30 38  1  0  0  0  0
 31 35  1  0  0  0  0
 32 36  2  0  0  0  0
 33 35  2  0  0  0  0
 33 36  1  0  0  0  0
 37 39  1  0  0  0  0
 40 42  1  0  0  0  0
 41 43  1  0  0  0  0
M  END
> <PUBCHEM_COMPOUND_ID_TYPE>
0

> <PUBCHEM_TOTAL_CHARGE>
0

> <PUBCHEM_SUBSTANCE_ID>
310941060

> <PUBCHEM_SUBSTANCE_VERSION>
1

> <PUBCHEM_EXT_DATASOURCE_NAME>
4488

> <PUBCHEM_EXT_DATASOURCE_REGID>
SCHEMBL16119020

> <PUBCHEM_SUBSTANCE_COMMENT>
InChI=1S/C34H47N5O7/c1-23(35-30(40)21-39-14-16-45-17-15-39)32(42)37-29(19-25-10-12-27(44-5)13-11-25)33(43)36-28(31(41)34(2)22-46-34)18-24-6-8-26(9-7-24)20-38(3)4/h6-13,23,28-29H,14-22H2,1-5H3,(H,35,40)(H,36,43)(H,37,42)
InChIKey=HEJFPNCCEULMPU-UHFFFAOYSA-N

> <PUBCHEM_SUBSTANCE_SYNONYM>
SCHEMBL16119020

> <PUBCHEM_XREF_EXT_ID>
SCHEMBL16119020

> <PUBCHEM_EXT_DATASOURCE_URL>
https://www.surechembl.org/

> <PUBCHEM_EXT_SUBSTANCE_URL>
https://www.surechembl.org/chemical/SCHEMBL16119020

> <PUBCHEM_CID_ASSOCIATIONS>
117607952  1

> <PUBCHEM_COORDINATE_TYPE>
1
3

$$$$
