310941891
  -OEChem-07211613022D

 21 20  0     1  0  0  0  0  0999 V2000
   -0.0124    1.7308    0.0000 O   0  0  0  0  0  0  0  0  0  0  0  0
   -0.7294    2.9670    0.0000 O   0  0  0  0  0  0  0  0  0  0  0  0
   -0.5316   -0.4945    0.0000 O   0  0  0  0  0  0  0  0  0  0  0  0
    2.8434    1.7308    0.0000 O   0  0  0  0  0  0  0  0  0  0  0  0
   -1.2981    0.9148    0.0000 N   0  0  0  0  0  0  0  0  0  0  0  0
   -1.4341    1.7431    0.0000 C   0  0  3  0  0  0  0  0  0  0  0  0
   -0.7294    2.1388    0.0000 C   0  0  0  0  0  0  0  0  0  0  0  0
   -2.1511    2.1511    0.0000 C   0  0  0  0  0  0  0  0  0  0  0  0
   -0.5192    0.3462    0.0000 C   0  0  0  0  0  0  0  0  0  0  0  0
    0.1854    0.7418    0.0000 C   0  0  0  0  0  0  0  0  0  0  0  0
   -2.8434    1.7308    0.0000 C   0  0  0  0  0  0  0  0  0  0  0  0
   -2.1511    2.9670    0.0000 C   0  0  0  0  0  0  0  0  0  0  0  0
    0.7047    2.1511    0.0000 C   0  0  0  0  0  0  0  0  0  0  0  0
    0.9148    0.3462    0.0000 C   0  0  0  0  0  0  0  0  0  0  0  0
    1.4341    1.7431    0.0000 C   0  0  0  0  0  0  0  0  0  0  0  0
    0.8901   -0.4821    0.0000 C   0  0  0  0  0  0  0  0  0  0  0  0
    2.1388    2.1511    0.0000 C   0  0  0  0  0  0  0  0  0  0  0  0
    1.6566   -0.8778    0.0000 C   0  0  0  0  0  0  0  0  0  0  0  0
    1.5700   -1.6690    0.0000 C   0  0  0  0  0  0  0  0  0  0  0  0
    2.3489   -2.0892    0.0000 C   0  0  0  0  0  0  0  0  0  0  0  0
    2.3242   -2.9670    0.0000 C   0  0  0  0  0  0  0  0  0  0  0  0
  1  7  1  0  0  0  0
  1 13  1  0  0  0  0
  2  7  2  0  0  0  0
  3  9  2  0  0  0  0
  4 17  1  0  0  0  0
  5  6  1  0  0  0  0
  5  9  1  0  0  0  0
  6  7  1  0  0  0  0
  6  8  1  0  0  0  0
  8 11  1  0  0  0  0
  8 12  1  0  0  0  0
  9 10  1  0  0  0  0
 10 14  1  0  0  0  0
 13 15  1  0  0  0  0
 14 16  1  0  0  0  0
 15 17  1  0  0  0  0
 16 18  1  0  0  0  0
 18 19  1  0  0  0  0
 19 20  1  0  0  0  0
 20 21  1  0  0  0  0
M  END
> <PUBCHEM_COMPOUND_ID_TYPE>
0

> <PUBCHEM_TOTAL_CHARGE>
0

> <PUBCHEM_SUBSTANCE_ID>
310941891

> <PUBCHEM_SUBSTANCE_VERSION>
1

> <PUBCHEM_EXT_DATASOURCE_NAME>
4488

> <PUBCHEM_EXT_DATASOURCE_REGID>
SCHEMBL16119923

> <PUBCHEM_SUBSTANCE_COMMENT>
InChI=1S/C16H31NO4/c1-4-5-6-7-8-10-14(19)17-15(13(2)3)16(20)21-12-9-11-18/h13,15,18H,4-12H2,1-3H3,(H,17,19)
InChIKey=LGUZMHRQUMBAKH-UHFFFAOYSA-N

> <PUBCHEM_SUBSTANCE_SYNONYM>
SCHEMBL16119923

> <PUBCHEM_XREF_EXT_ID>
SCHEMBL16119923

> <PUBCHEM_EXT_DATASOURCE_URL>
https://www.surechembl.org/

> <PUBCHEM_EXT_SUBSTANCE_URL>
https://www.surechembl.org/chemical/SCHEMBL16119923

> <PUBCHEM_CID_ASSOCIATIONS>
71525968  1

> <PUBCHEM_COORDINATE_TYPE>
1
3

$$$$
