310945963
  -OEChem-07211613022D

 30 31  0     1  0  0  0  0  0999 V2000
   -2.1946   -3.6798    0.0000 F   0  0  0  0  0  0  0  0  0  0  0  0
   -0.7648   -3.6798    0.0000 F   0  0  0  0  0  0  0  0  0  0  0  0
   -1.4741   -4.1010    0.0000 F   0  0  0  0  0  0  0  0  0  0  0  0
   -0.0554   -0.7980    0.0000 O   0  0  0  0  0  0  0  0  0  0  0  0
    3.5025   -1.2082    0.0000 O   0  0  0  0  0  0  0  0  0  0  0  0
    2.7932    0.0222    0.0000 O   0  0  0  0  0  0  0  0  0  0  0  0
   -3.6576   -1.1306    0.0000 N   0  0  0  0  0  0  0  0  0  0  0  0
   -4.2119   -0.5209    0.0000 N   0  0  0  0  0  0  0  0  0  0  0  0
   -2.5493    1.3855    0.0000 N   0  0  3  0  0  0  0  0  0  0  0  0
   -1.4741    3.2697    0.0000 N   0  0  0  0  0  0  0  0  0  0  0  0
   -2.1835   -1.1971    0.0000 C   0  0  0  0  0  0  0  0  0  0  0  0
   -2.9151   -0.7759    0.0000 C   0  0  0  0  0  0  0  0  0  0  0  0
   -1.4741   -2.4163    0.0000 C   0  0  0  0  0  0  0  0  0  0  0  0
   -3.0037    0.0443    0.0000 C   0  0  0  0  0  0  0  0  0  0  0  0
   -2.1835   -2.0172    0.0000 C   0  0  0  0  0  0  0  0  0  0  0  0
   -1.4852   -3.2587    0.0000 C   0  0  0  0  0  0  0  0  0  0  0  0
   -0.7648   -1.1859    0.0000 C   0  0  0  0  0  0  0  0  0  0  0  0
   -1.4963   -0.7870    0.0000 C   0  0  0  0  0  0  0  0  0  0  0  0
   -0.7759   -2.0172    0.0000 C   0  0  0  0  0  0  0  0  0  0  0  0
   -3.7907    0.2217    0.0000 C   0  0  0  0  0  0  0  0  0  0  0  0
   -2.3830    0.6096    0.0000 C   0  0  0  0  0  0  0  0  0  0  0  0
    0.6650   -1.1859    0.0000 C   0  0  0  0  0  0  0  0  0  0  0  0
   -1.9508    1.9508    0.0000 C   0  0  0  0  0  0  0  0  0  0  0  0
   -3.3363    1.6404    0.0000 C   0  0  0  0  0  0  0  0  0  0  0  0
    1.3633   -0.7759    0.0000 C   0  0  0  0  0  0  0  0  0  0  0  0
   -2.1059    2.7709    0.0000 C   0  0  0  0  0  0  0  0  0  0  0  0
    2.0948   -1.1859    0.0000 C   0  0  0  0  0  0  0  0  0  0  0  0
    2.7932   -0.7980    0.0000 C   0  0  0  0  0  0  0  0  0  0  0  0
   -1.6071    4.1010    0.0000 C   0  0  0  0  0  0  0  0  0  0  0  0
    4.2119   -0.7648    0.0000 C   0  0  0  0  0  0  0  0  0  0  0  0
  1 16  1  0  0  0  0
  2 16  1  0  0  0  0
  3 16  1  0  0  0  0
  4 17  1  0  0  0  0
  4 22  1  0  0  0  0
  5 28  1  0  0  0  0
  5 30  1  0  0  0  0
  6 28  2  0  0  0  0
  7  8  1  0  0  0  0
  7 12  2  0  0  0  0
  8 20  1  0  0  0  0
  9 21  1  0  0  0  0
  9 23  1  0  0  0  0
  9 24  1  0  0  0  0
 10 26  1  0  0  0  0
 10 29  1  0  0  0  0
 11 12  1  0  0  0  0
 11 15  1  0  0  0  0
 11 18  2  0  0  0  0
 12 14  1  0  0  0  0
 13 15  2  0  0  0  0
 13 16  1  0  0  0  0
 13 19  1  0  0  0  0
 14 20  2  0  0  0  0
 14 21  1  0  0  0  0
 17 18  1  0  0  0  0
 17 19  2  0  0  0  0
 22 25  1  0  0  0  0
 23 26  1  0  0  0  0
 25 27  1  0  0  0  0
 27 28  1  0  0  0  0
M  END
> <PUBCHEM_COMPOUND_ID_TYPE>
0

> <PUBCHEM_TOTAL_CHARGE>
0

> <PUBCHEM_SUBSTANCE_ID>
310945963

> <PUBCHEM_SUBSTANCE_VERSION>
1

> <PUBCHEM_EXT_DATASOURCE_NAME>
4488

> <PUBCHEM_EXT_DATASOURCE_REGID>
SCHEMBL16124068

> <PUBCHEM_SUBSTANCE_COMMENT>
InChI=1S/C20H27F3N4O3/c1-24-6-7-27(2)13-15-12-25-26-19(15)14-9-16(20(21,22)23)11-17(10-14)30-8-4-5-18(28)29-3/h9-12,24H,4-8,13H2,1-3H3,(H,25,26)
InChIKey=RJVXHUGRGQKQAQ-UHFFFAOYSA-N

> <PUBCHEM_SUBSTANCE_SYNONYM>
SCHEMBL16124068

> <PUBCHEM_XREF_EXT_ID>
SCHEMBL16124068

> <PUBCHEM_EXT_DATASOURCE_URL>
https://www.surechembl.org/

> <PUBCHEM_EXT_SUBSTANCE_URL>
https://www.surechembl.org/chemical/SCHEMBL16124068

> <PUBCHEM_CID_ASSOCIATIONS>
86300775  1

> <PUBCHEM_COORDINATE_TYPE>
1
3

$$$$
