310934061
  -OEChem-07211613022D

 41 46  0     1  0  0  0  0  0999 V2000
    6.7857    0.0000    0.0000 Cl  0  0  0  0  0  0  0  0  0  0  0  0
    4.3807   -8.5895    0.0000 F   0  0  0  0  0  0  0  0  0  0  0  0
    7.2152   -4.9819    0.0000 O   0  0  0  0  0  0  0  0  0  0  0  0
    0.6871   -5.7120    0.0000 O   0  0  0  0  0  0  0  0  0  0  0  0
    6.0126   -4.2948    0.0000 N   0  0  0  0  0  0  0  0  0  0  0  0
    4.2948   -5.6691    0.0000 N   0  0  0  0  0  0  0  0  0  0  0  0
    8.4607   -2.8346    0.0000 N   0  0  0  0  0  0  0  0  0  0  0  0
    4.2948   -4.3377    0.0000 N   0  0  0  0  0  0  0  0  0  0  0  0
    9.3196   -2.8775    0.0000 N   0  0  0  0  0  0  0  0  0  0  0  0
    9.4914   -3.6935    0.0000 N   0  0  0  0  0  0  0  0  0  0  0  0
    8.7613   -4.1230    0.0000 N   0  0  0  0  0  0  0  0  0  0  0  0
    2.2763   -7.2152    0.0000 N   0  0  0  0  0  0  0  0  0  0  0  0
    5.6261   -4.9819    0.0000 C   0  0  3  0  0  0  0  0  0  0  0  0
    7.2152   -2.1474    0.0000 C   0  0  0  0  0  0  0  0  0  0  0  0
    6.8287   -2.8775    0.0000 C   0  0  0  0  0  0  0  0  0  0  0  0
    4.7672   -5.0249    0.0000 C   0  0  0  0  0  0  0  0  0  0  0  0
    8.0312   -2.1474    0.0000 C   0  0  0  0  0  0  0  0  0  0  0  0
    6.8287   -4.2948    0.0000 C   0  0  0  0  0  0  0  0  0  0  0  0
    7.2582   -3.5646    0.0000 C   0  0  0  0  0  0  0  0  0  0  0  0
    5.5832   -3.5646    0.0000 C   0  0  0  0  0  0  0  0  0  0  0  0
    3.5217   -5.4114    0.0000 C   0  0  0  0  0  0  0  0  0  0  0  0
    6.0126   -2.8775    0.0000 C   0  0  0  0  0  0  0  0  0  0  0  0
    6.7857   -1.4173    0.0000 C   0  0  0  0  0  0  0  0  0  0  0  0
    6.0126   -5.7120    0.0000 C   0  0  0  0  0  0  0  0  0  0  0  0
    2.8775   -5.9268    0.0000 C   0  0  0  0  0  0  0  0  0  0  0  0
    8.4607   -1.4173    0.0000 C   0  0  0  0  0  0  0  0  0  0  0  0
    3.5217   -4.5954    0.0000 C   0  0  0  0  0  0  0  0  0  0  0  0
    7.2152   -0.7301    0.0000 C   0  0  0  0  0  0  0  0  0  0  0  0
    5.6261   -6.4422    0.0000 C   0  0  0  0  0  0  0  0  0  0  0  0
    8.0312   -0.6871    0.0000 C   0  0  0  0  0  0  0  0  0  0  0  0
    8.1601   -3.5646    0.0000 C   0  0  0  0  0  0  0  0  0  0  0  0
    2.1044   -5.5832    0.0000 C   0  0  0  0  0  0  0  0  0  0  0  0
    2.9205   -6.7428    0.0000 C   0  0  0  0  0  0  0  0  0  0  0  0
    1.4173   -6.0556    0.0000 C   0  0  0  0  0  0  0  0  0  0  0  0
    6.0556   -7.1293    0.0000 C   0  0  0  0  0  0  0  0  0  0  0  0
    4.8101   -6.4422    0.0000 C   0  0  0  0  0  0  0  0  0  0  0  0
    1.5032   -6.9146    0.0000 C   0  0  0  0  0  0  0  0  0  0  0  0
    5.6261   -7.8594    0.0000 C   0  0  0  0  0  0  0  0  0  0  0  0
    4.3807   -7.1722    0.0000 C   0  0  0  0  0  0  0  0  0  0  0  0
    4.8101   -7.8594    0.0000 C   0  0  0  0  0  0  0  0  0  0  0  0
    0.0000   -6.2274    0.0000 C   0  0  0  0  0  0  0  0  0  0  0  0
  1 28  1  0  0  0  0
  2 40  1  0  0  0  0
  3 18  2  0  0  0  0
  4 34  1  0  0  0  0
  4 41  1  0  0  0  0
  5 13  1  0  0  0  0
  5 18  1  0  0  0  0
  5 20  1  0  0  0  0
  6 16  1  0  0  0  0
  6 21  1  0  0  0  0
  7  9  1  0  0  0  0
  7 17  1  0  0  0  0
  7 31  1  0  0  0  0
  8 16  2  0  0  0  0
  8 27  1  0  0  0  0
  9 10  2  0  0  0  0
 10 11  1  0  0  0  0
 11 31  2  0  0  0  0
 12 33  1  0  0  0  0
 12 37  2  0  0  0  0
 13 16  1  0  0  0  0
 13 24  1  0  0  0  0
 14 15  1  0  0  0  0
 14 17  1  0  0  0  0
 14 23  2  0  0  0  0
 15 19  2  0  0  0  0
 15 22  1  0  0  0  0
 17 26  2  0  0  0  0
 18 19  1  0  0  0  0
 20 22  2  0  0  0  0
 21 25  1  0  0  0  0
 21 27  2  0  0  0  0
 23 28  1  0  0  0  0
 24 29  1  0  0  0  0
 25 32  1  0  0  0  0
 25 33  2  0  0  0  0
 26 30  1  0  0  0  0
 28 30  2  0  0  0  0
 29 35  2  0  0  0  0
 29 36  1  0  0  0  0
 32 34  2  0  0  0  0
 34 37  1  0  0  0  0
 35 38  1  0  0  0  0
 36 39  2  0  0  0  0
 38 40  2  0  0  0  0
 39 40  1  0  0  0  0
M  END
> <PUBCHEM_COMPOUND_ID_TYPE>
0

> <PUBCHEM_TOTAL_CHARGE>
0

> <PUBCHEM_SUBSTANCE_ID>
310934061

> <PUBCHEM_SUBSTANCE_VERSION>
1

> <PUBCHEM_EXT_DATASOURCE_NAME>
4488

> <PUBCHEM_EXT_DATASOURCE_REGID>
SCHEMBL16111505

> <PUBCHEM_SUBSTANCE_COMMENT>
InChI=1S/C29H22ClFN8O2/c1-41-23-11-20(14-32-15-23)25-16-33-29(35-25)27(10-18-2-5-22(31)6-3-18)38-9-8-19(12-28(38)40)24-13-21(30)4-7-26(24)39-17-34-36-37-39/h2-9,11-17,27H,10H2,1H3,(H,33,35)
InChIKey=FBYRVBICJLCJSQ-UHFFFAOYSA-N

> <PUBCHEM_SUBSTANCE_SYNONYM>
SCHEMBL16111505

> <PUBCHEM_XREF_EXT_ID>
SCHEMBL16111505

> <PUBCHEM_EXT_DATASOURCE_URL>
https://www.surechembl.org/

> <PUBCHEM_EXT_SUBSTANCE_URL>
https://www.surechembl.org/chemical/SCHEMBL16111505

> <PUBCHEM_CID_ASSOCIATIONS>
86301867  1

> <PUBCHEM_COORDINATE_TYPE>
1
3

$$$$
