310946250
  -OEChem-07211613022D

 25 27  0     1  0  0  0  0  0999 V2000
    3.5831    1.6398    0.0000 S   0  0  0  0  0  0  0  0  0  0  0  0
    2.7581    1.6398    0.0000 O   0  0  0  0  0  0  0  0  0  0  0  0
   -0.0998    1.6398    0.0000 O   0  0  0  0  0  0  0  0  0  0  0  0
   -1.5287    4.1148    0.0000 O   0  0  0  0  0  0  0  0  0  0  0  0
   -0.0998    4.9398    0.0000 O   0  0  0  0  0  0  0  0  0  0  0  0
    3.9956    2.3542    0.0000 O   0  0  0  0  0  0  0  0  0  0  0  0
    3.9956    0.9253    0.0000 O   0  0  0  0  0  0  0  0  0  0  0  0
    4.4081    1.6398    0.0000 O   0  0  0  0  0  0  0  0  0  0  0  0
    0.6147    2.8773    0.0000 N   0  0  0  0  0  0  0  0  0  0  0  0
    2.0436    2.0523    0.0000 N   0  0  0  0  0  0  0  0  0  0  0  0
   -0.8143    3.7023    0.0000 N   0  0  0  0  0  0  0  0  0  0  0  0
   -3.6112    4.5406    0.0000 N   0  0  0  0  0  0  0  0  0  0  0  0
    0.6147    2.0523    0.0000 C   0  0  0  0  0  0  0  0  0  0  0  0
    2.0436    2.8773    0.0000 C   0  0  3  0  0  0  0  0  0  0  0  0
    0.6147    3.7023    0.0000 C   0  0  3  0  0  0  0  0  0  0  0  0
    1.3291    2.4648    0.0000 C   0  0  0  0  0  0  0  0  0  0  0  0
    2.0436    3.7023    0.0000 C   0  0  0  0  0  0  0  0  0  0  0  0
    1.3291    4.1148    0.0000 C   0  0  0  0  0  0  0  0  0  0  0  0
   -0.0998    4.1148    0.0000 C   0  0  0  0  0  0  0  0  0  0  0  0
   -2.2432    3.7023    0.0000 C   0  0  3  0  0  0  0  0  0  0  0  0
   -3.0278    3.9572    0.0000 C   0  0  3  0  0  0  0  0  0  0  0  0
   -2.2432    2.8773    0.0000 C   0  0  0  0  0  0  0  0  0  0  0  0
   -3.5128    3.2898    0.0000 C   0  0  0  0  0  0  0  0  0  0  0  0
   -3.0278    2.6223    0.0000 C   0  0  0  0  0  0  0  0  0  0  0  0
   -4.4081    4.3271    0.0000 C   0  0  0  0  0  0  0  0  0  0  0  0
  1  2  1  0  0  0  0
  1  6  2  0  0  0  0
  1  7  2  0  0  0  0
  1  8  1  0  0  0  0
  2 10  1  0  0  0  0
  3 13  2  0  0  0  0
  4 11  1  0  0  0  0
  4 20  1  0  0  0  0
  5 19  2  0  0  0  0
  9 13  1  0  0  0  0
  9 15  1  0  0  0  0
  9 16  1  0  0  0  0
 10 13  1  0  0  0  0
 10 14  1  0  0  0  0
 11 19  1  0  0  0  0
 12 21  1  0  0  0  0
 12 25  1  0  0  0  0
 14 16  1  6  0  0  0
 14 17  1  0  0  0  0
 15 18  1  0  0  0  0
 15 19  1  6  0  0  0
 17 18  1  0  0  0  0
 20 21  1  0  0  0  0
 20 22  1  0  0  0  0
 21 23  1  0  0  0  0
 22 24  1  0  0  0  0
 23 24  1  0  0  0  0
M  END
> <PUBCHEM_COMPOUND_ID_TYPE>
0

> <PUBCHEM_TOTAL_CHARGE>
0

> <PUBCHEM_SUBSTANCE_ID>
310946250

> <PUBCHEM_SUBSTANCE_VERSION>
1

> <PUBCHEM_EXT_DATASOURCE_NAME>
4488

> <PUBCHEM_EXT_DATASOURCE_REGID>
SCHEMBL16124368

> <PUBCHEM_SUBSTANCE_COMMENT>
InChI=1S/C13H22N4O7S/c1-14-9-3-2-4-11(9)23-15-12(18)10-6-5-8-7-16(10)13(19)17(8)24-25(20,21)22/h8-11,14H,2-7H2,1H3,(H,15,18)(H,20,21,22)/t8-,9?,10+,11?/m1/s1
InChIKey=QGQUMGHZCJOXIQ-VKAADOFISA-N

> <PUBCHEM_SUBSTANCE_SYNONYM>
SCHEMBL16124368

> <PUBCHEM_XREF_EXT_ID>
SCHEMBL16124368

> <PUBCHEM_EXT_DATASOURCE_URL>
https://www.surechembl.org/

> <PUBCHEM_EXT_SUBSTANCE_URL>
https://www.surechembl.org/chemical/SCHEMBL16124368

> <PUBCHEM_CID_ASSOCIATIONS>
117612198  1

> <PUBCHEM_COORDINATE_TYPE>
1
3

> <PUBCHEM_BONDANNOTATIONS>
14  16  6
15  19  6

$$$$
