310946367
  -OEChem-07211613022D

 14 14  0     1  0  0  0  0  0999 V2000
   -7.5136    9.7050    0.0000 I   0  0  0  0  0  0  0  0  0  0  0  0
   -6.0846   12.1800    0.0000 I   0  0  0  0  0  0  0  0  0  0  0  0
   -7.5136   11.3550    0.0000 O   0  0  0  0  0  0  0  0  0  0  0  0
   -2.5123   10.1175    0.0000 O   0  0  0  0  0  0  0  0  0  0  0  0
   -3.9412   10.9425    0.0000 N   0  0  0  0  0  0  0  0  0  0  0  0
   -6.7991   10.9425    0.0000 C   0  0  0  0  0  0  0  0  0  0  0  0
   -6.7991   10.1175    0.0000 C   0  0  0  0  0  0  0  0  0  0  0  0
   -6.0846   11.3550    0.0000 C   0  0  0  0  0  0  0  0  0  0  0  0
   -5.3702   10.1175    0.0000 C   0  0  0  0  0  0  0  0  0  0  0  0
   -6.0846    9.7050    0.0000 C   0  0  0  0  0  0  0  0  0  0  0  0
   -5.3702   10.9425    0.0000 C   0  0  0  0  0  0  0  0  0  0  0  0
   -4.6557    9.7050    0.0000 C   0  0  0  0  0  0  0  0  0  0  0  0
   -3.9412   10.1175    0.0000 C   0  0  3  0  0  0  0  0  0  0  0  0
   -3.2268    9.7050    0.0000 C   0  0  0  0  0  0  0  0  0  0  0  0
  1  7  1  0  0  0  0
  2  8  1  0  0  0  0
  3  6  1  0  0  0  0
  4 14  1  0  0  0  0
  5 13  1  0  0  0  0
  6  7  2  0  0  0  0
  6  8  1  0  0  0  0
  7 10  1  0  0  0  0
  8 11  2  0  0  0  0
  9 10  2  0  0  0  0
  9 11  1  0  0  0  0
  9 12  1  0  0  0  0
 12 13  1  0  0  0  0
 13 14  1  0  0  0  0
M  END
> <PUBCHEM_COMPOUND_ID_TYPE>
0

> <PUBCHEM_TOTAL_CHARGE>
0

> <PUBCHEM_SUBSTANCE_ID>
310946367

> <PUBCHEM_SUBSTANCE_VERSION>
1

> <PUBCHEM_EXT_DATASOURCE_NAME>
4488

> <PUBCHEM_EXT_DATASOURCE_REGID>
SCHEMBL16124486

> <PUBCHEM_SUBSTANCE_COMMENT>
InChI=1S/C9H11I2NO2/c10-7-2-5(1-6(12)4-13)3-8(11)9(7)14/h2-3,6,13-14H,1,4,12H2
InChIKey=BCLQYRWDGWSMSV-UHFFFAOYSA-N

> <PUBCHEM_SUBSTANCE_SYNONYM>
SCHEMBL16124486

> <PUBCHEM_XREF_EXT_ID>
SCHEMBL16124486

> <PUBCHEM_EXT_DATASOURCE_URL>
https://www.surechembl.org/

> <PUBCHEM_EXT_SUBSTANCE_URL>
https://www.surechembl.org/chemical/SCHEMBL16124486

> <PUBCHEM_CID_ASSOCIATIONS>
117612289  1

> <PUBCHEM_COORDINATE_TYPE>
1
3

$$$$
