310935614
  -OEChem-07211613022D

 20 23  0     1  0  0  0  0  0999 V2000
    2.6488   -0.7637    0.0000 O   0  0  0  0  0  0  0  0  0  0  0  0
   -0.9502   -0.4581    0.0000 N   0  0  0  0  0  0  0  0  0  0  0  0
   -1.6270   -0.9298    0.0000 N   0  0  0  0  0  0  0  0  0  0  0  0
    0.5324   -0.9724    0.0000 C   0  0  0  0  0  0  0  0  0  0  0  0
    0.7719   -1.7619    0.0000 C   0  0  3  0  0  0  0  0  0  0  0  0
   -0.2924   -0.9561    0.0000 C   0  0  0  0  0  0  0  0  0  0  0  0
   -0.5628   -1.7356    0.0000 C   0  0  3  0  0  0  0  0  0  0  0  0
    2.1393   -1.3472    0.0000 C   0  0  3  0  0  0  0  0  0  0  0  0
    2.9427   -1.5346    0.0000 C   0  0  0  0  0  0  0  0  0  0  0  0
    0.0950   -2.2336    0.0000 C   0  0  0  0  0  0  0  0  0  0  0  0
    1.5753   -1.9493    0.0000 C   0  0  0  0  0  0  0  0  0  0  0  0
    1.0964   -0.3703    0.0000 C   0  0  0  0  0  0  0  0  0  0  0  0
    1.8999   -0.5577    0.0000 C   0  0  0  0  0  0  0  0  0  0  0  0
   -1.3876   -1.7193    0.0000 C   0  0  0  0  0  0  0  0  0  0  0  0
    3.7234   -1.2678    0.0000 C   0  0  0  0  0  0  0  0  0  0  0  0
    2.7835   -2.3441    0.0000 C   0  0  0  0  0  0  0  0  0  0  0  0
    4.3448   -1.8104    0.0000 C   0  0  0  0  0  0  0  0  0  0  0  0
    3.4049   -2.8867    0.0000 C   0  0  0  0  0  0  0  0  0  0  0  0
    4.1856   -2.6199    0.0000 C   0  0  0  0  0  0  0  0  0  0  0  0
    4.8070   -3.1626    0.0000 C   0  0  0  0  0  0  0  0  0  0  0  0
  1  9  1  0  0  0  0
  2  3  1  0  0  0  0
  2  6  1  0  0  0  0
  3 14  1  0  0  0  0
  4  5  1  0  0  0  0
  4  6  2  0  0  0  0
  4 12  1  0  0  0  0
  5 10  1  0  0  0  0
  5 11  1  0  0  0  0
  6  7  1  0  0  0  0
  7 10  1  0  0  0  0
  7 14  1  0  0  0  0
  8  9  1  0  0  0  0
  8 11  1  0  0  0  0
  8 13  1  0  0  0  0
  9 15  1  0  0  0  0
  9 16  1  0  0  0  0
 12 13  2  0  0  0  0
 15 17  1  0  0  0  0
 16 18  1  0  0  0  0
 17 19  1  0  0  0  0
 18 19  1  0  0  0  0
 19 20  1  0  0  0  0
M  END
> <PUBCHEM_COMPOUND_ID_TYPE>
0

> <PUBCHEM_TOTAL_CHARGE>
0

> <PUBCHEM_SUBSTANCE_ID>
310935614

> <PUBCHEM_SUBSTANCE_VERSION>
1

> <PUBCHEM_EXT_DATASOURCE_NAME>
4488

> <PUBCHEM_EXT_DATASOURCE_REGID>
SCHEMBL16113188

> <PUBCHEM_SUBSTANCE_COMMENT>
InChI=1S/C17H26N2O/c1-11-4-6-17(20,7-5-11)14-2-3-15-12(9-14)8-13-10-18-19-16(13)15/h2-3,11-14,18-20H,4-10H2,1H3
InChIKey=GQYHTPODPCBRDT-UHFFFAOYSA-N

> <PUBCHEM_SUBSTANCE_SYNONYM>
SCHEMBL16113188

> <PUBCHEM_XREF_EXT_ID>
SCHEMBL16113188

> <PUBCHEM_EXT_DATASOURCE_URL>
https://www.surechembl.org/

> <PUBCHEM_EXT_SUBSTANCE_URL>
https://www.surechembl.org/chemical/SCHEMBL16113188

> <PUBCHEM_CID_ASSOCIATIONS>
117603632  1

> <PUBCHEM_COORDINATE_TYPE>
1
3

$$$$
