310933519
  -OEChem-07211613022D

 45 51  0     1  0  0  0  0  0999 V2000
    3.7380   -2.5418    0.0000 Cl  0  0  0  0  0  0  0  0  0  0  0  0
    2.7911   -3.8875    0.0000 F   0  0  0  0  0  0  0  0  0  0  0  0
    0.0000   -6.2300    0.0000 O   0  0  0  0  0  0  0  0  0  0  0  0
    2.8907   -4.5853    0.0000 O   0  0  0  0  0  0  0  0  0  0  0  0
    1.4454   -6.2300    0.0000 N   0  0  0  0  0  0  0  0  0  0  0  0
    1.1463   -3.7380    0.0000 N   0  0  0  0  0  0  0  0  0  0  0  0
    0.0498   -4.4856    0.0000 N   0  0  0  0  0  0  0  0  0  0  0  0
    1.4454   -4.5853    0.0000 N   0  0  0  0  0  0  0  0  0  0  0  0
    2.8409   -9.5195    0.0000 N   0  0  0  0  0  0  0  0  0  0  0  0
    4.2364   -9.5195    0.0000 N   0  0  0  0  0  0  0  0  0  0  0  0
    2.0933   -0.7975    0.0000 N   0  0  0  0  0  0  0  0  0  0  0  0
    0.7975   -0.7975    0.0000 N   0  0  0  0  0  0  0  0  0  0  0  0
    2.1432   -5.8313    0.0000 C   0  0  3  0  0  0  0  0  0  0  0  0
    2.8907   -6.2300    0.0000 C   0  0  0  0  0  0  0  0  0  0  0  0
    2.8907   -7.0275    0.0000 C   0  0  0  0  0  0  0  0  0  0  0  0
    0.7476   -5.8313    0.0000 C   0  0  0  0  0  0  0  0  0  0  0  0
    3.5885   -7.4760    0.0000 C   0  0  0  0  0  0  0  0  0  0  0  0
    2.1432   -4.9840    0.0000 C   0  0  0  0  0  0  0  0  0  0  0  0
    0.7476   -4.9840    0.0000 C   0  0  0  0  0  0  0  0  0  0  0  0
    1.4454   -7.0275    0.0000 C   0  0  0  0  0  0  0  0  0  0  0  0
    2.1432   -7.4760    0.0000 C   0  0  0  0  0  0  0  0  0  0  0  0
    3.5885   -5.8313    0.0000 C   0  0  0  0  0  0  0  0  0  0  0  0
    3.5386   -8.2735    0.0000 C   0  0  0  0  0  0  0  0  0  0  0  0
    4.2862   -7.0275    0.0000 C   0  0  0  0  0  0  0  0  0  0  0  0
    1.5451   -4.6850    0.0000 C   0  0  0  0  0  0  0  0  0  0  0  0
    1.6447   -3.0402    0.0000 C   0  0  0  0  0  0  0  0  0  0  0  0
    4.2862   -6.2300    0.0000 C   0  0  0  0  0  0  0  0  0  0  0  0
    0.2991   -3.7380    0.0000 C   0  0  0  0  0  0  0  0  0  0  0  0
    2.4422   -3.1399    0.0000 C   0  0  0  0  0  0  0  0  0  0  0  0
    1.4454   -3.7380    0.0000 C   0  0  0  0  0  0  0  0  0  0  0  0
    2.8409   -8.7220    0.0000 C   0  0  0  0  0  0  0  0  0  0  0  0
    4.2862   -8.7220    0.0000 C   0  0  0  0  0  0  0  0  0  0  0  0
    1.2958   -2.2926    0.0000 C   0  0  0  0  0  0  0  0  0  0  0  0
    2.9405   -2.4920    0.0000 C   0  0  0  0  0  0  0  0  0  0  0  0
    0.7476   -3.3393    0.0000 C   0  0  0  0  0  0  0  0  0  0  0  0
    2.1432   -3.3393    0.0000 C   0  0  0  0  0  0  0  0  0  0  0  0
    1.7942   -1.6447    0.0000 C   0  0  0  0  0  0  0  0  0  0  0  0
    1.4454   -2.0933    0.0000 C   0  0  0  0  0  0  0  0  0  0  0  0
    2.5917   -1.7444    0.0000 C   0  0  0  0  0  0  0  0  0  0  0  0
    0.7476   -2.4920    0.0000 C   0  0  0  0  0  0  0  0  0  0  0  0
    2.1432   -2.4920    0.0000 C   0  0  0  0  0  0  0  0  0  0  0  0
    1.4454   -1.2460    0.0000 C   0  0  0  0  0  0  0  0  0  0  0  0
    3.5386   -9.9680    0.0000 C   0  0  0  0  0  0  0  0  0  0  0  0
    1.8441    0.0000    0.0000 C   0  0  0  0  0  0  0  0  0  0  0  0
    1.0466    0.0000    0.0000 C   0  0  0  0  0  0  0  0  0  0  0  0
  1 34  1  0  0  0  0
  2 29  1  0  0  0  0
  3 16  2  0  0  0  0
  4 18  2  0  0  0  0
  5 13  1  0  0  0  0
  5 16  1  0  0  0  0
  5 20  1  0  0  0  0
  6 25  1  0  0  0  0
  6 26  1  0  0  0  0
  6 28  1  0  0  0  0
  7 19  1  0  0  0  0
  7 28  2  0  0  0  0
  8 18  1  0  0  0  0
  8 30  1  0  0  0  0
  9 31  2  0  0  0  0
  9 43  1  0  0  0  0
 10 32  1  0  0  0  0
 10 43  2  0  0  0  0
 11 42  2  0  0  0  0
 11 44  1  0  0  0  0
 12 42  1  0  0  0  0
 12 45  1  0  0  0  0
 13 14  1  0  0  0  0
 13 18  1  0  0  0  0
 14 15  2  0  0  0  0
 14 22  1  0  0  0  0
 15 17  1  0  0  0  0
 15 21  1  0  0  0  0
 16 19  1  0  0  0  0
 17 23  1  0  0  0  0
 17 24  2  0  0  0  0
 19 25  2  0  0  0  0
 20 21  1  0  0  0  0
 22 27  2  0  0  0  0
 23 31  1  0  0  0  0
 23 32  2  0  0  0  0
 24 27  1  0  0  0  0
 26 29  1  0  0  0  0
 26 33  2  0  0  0  0
 29 34  2  0  0  0  0
 30 35  2  0  0  0  0
 30 36  1  0  0  0  0
 33 37  1  0  0  0  0
 34 39  1  0  0  0  0
 35 40  1  0  0  0  0
 36 41  2  0  0  0  0
 37 39  2  0  0  0  0
 38 40  2  0  0  0  0
 38 41  1  0  0  0  0
 38 42  1  0  0  0  0
 44 45  2  0  0  0  0
M  END
> <PUBCHEM_COMPOUND_ID_TYPE>
0

> <PUBCHEM_TOTAL_CHARGE>
0

> <PUBCHEM_SUBSTANCE_ID>
310933519

> <PUBCHEM_SUBSTANCE_VERSION>
1

> <PUBCHEM_EXT_DATASOURCE_NAME>
4488

> <PUBCHEM_EXT_DATASOURCE_REGID>
SCHEMBL16110941

> <PUBCHEM_SUBSTANCE_COMMENT>
InChI=1S/C33H24ClFN8O2/c34-26-5-2-6-28(29(26)35)42-17-27(40-19-42)33(45)43-14-11-24-23(21-15-36-18-37-16-21)3-1-4-25(24)30(43)32(44)41-22-9-7-20(8-10-22)31-38-12-13-39-31/h1-10,12-13,15-19,30H,11,14H2,(H,38,39)(H,41,44)
InChIKey=ZKICZUQLZGZMFK-UHFFFAOYSA-N

> <PUBCHEM_SUBSTANCE_SYNONYM>
SCHEMBL16110941

> <PUBCHEM_XREF_EXT_ID>
SCHEMBL16110941

> <PUBCHEM_EXT_DATASOURCE_URL>
https://www.surechembl.org/

> <PUBCHEM_EXT_SUBSTANCE_URL>
https://www.surechembl.org/chemical/SCHEMBL16110941

> <PUBCHEM_CID_ASSOCIATIONS>
117601909  1

> <PUBCHEM_COORDINATE_TYPE>
1
3

$$$$
