310938448
  -OEChem-07211613022D

 45 48  0     1  0  0  0  0  0999 V2000
    0.6392   -0.1808    0.0000 O   0  0  0  0  0  0  0  0  0  0  0  0
    1.5572   -0.8289    0.0000 O   0  0  0  0  0  0  0  0  0  0  0  0
   -2.0036    1.1844    0.0000 O   0  0  0  0  0  0  0  0  0  0  0  0
   -0.8614    4.1061    0.0000 O   0  0  0  0  0  0  0  0  0  0  0  0
   -0.3111    4.9368    0.0000 O   0  0  0  0  0  0  0  0  0  0  0  0
    0.7035    4.5015    0.0000 O   0  0  0  0  0  0  0  0  0  0  0  0
    1.5807    0.8941    0.0000 N   0  0  0  0  0  0  0  0  0  0  0  0
   -0.6020    0.9064    0.0000 N   0  0  0  0  0  0  0  0  0  0  0  0
    2.9860   -0.8093    0.0000 N   0  0  0  0  0  0  0  0  0  0  0  0
   -1.6826    2.8029    0.0000 N   0  0  0  0  0  0  0  0  0  0  0  0
    4.4664   -1.6911    0.0000 N   0  0  0  0  0  0  0  0  0  0  0  0
    3.8148   -2.8562    0.0000 N   0  0  0  0  0  0  0  0  0  0  0  0
    5.0267   -2.2966    0.0000 N   0  0  0  0  0  0  0  0  0  0  0  0
    4.6240   -3.0167    0.0000 N   0  0  0  0  0  0  0  0  0  0  0  0
    1.8249    1.6821    0.0000 C   0  0  0  0  0  0  0  0  0  0  0  0
    2.2547    0.4183    0.0000 C   0  0  3  0  0  0  0  0  0  0  0  0
    2.6499    1.6934    0.0000 C   0  0  0  0  0  0  0  0  0  0  0  0
    0.7997    0.6284    0.0000 C   0  0  0  0  0  0  0  0  0  0  0  0
    2.9155    0.9123    0.0000 C   0  0  0  0  0  0  0  0  0  0  0  0
    2.2660   -0.4066    0.0000 C   0  0  0  0  0  0  0  0  0  0  0  0
    0.1791    1.1720    0.0000 C   0  0  3  0  0  0  0  0  0  0  0  0
    1.4027    2.3909    0.0000 C   0  0  0  0  0  0  0  0  0  0  0  0
    3.0526    2.4134    0.0000 C   0  0  0  0  0  0  0  0  0  0  0  0
    1.8054    3.1109    0.0000 C   0  0  0  0  0  0  0  0  0  0  0  0
    2.6303    3.1222    0.0000 C   0  0  0  0  0  0  0  0  0  0  0  0
    0.3396    1.9813    0.0000 C   0  0  0  0  0  0  0  0  0  0  0  0
   -1.2226    1.4500    0.0000 C   0  0  0  0  0  0  0  0  0  0  0  0
   -1.0621    2.2592    0.0000 C   0  0  3  0  0  0  0  0  0  0  0  0
    2.9973   -1.6343    0.0000 C   0  0  0  0  0  0  0  0  0  0  0  0
   -0.2810    2.5249    0.0000 C   0  0  0  0  0  0  0  0  0  0  0  0
   -0.5863    2.9332    0.0000 C   0  0  3  0  0  0  0  0  0  0  0  0
    3.7174   -2.0370    0.0000 C   0  0  0  0  0  0  0  0  0  0  0  0
   -1.5222    3.6121    0.0000 C   0  0  0  0  0  0  0  0  0  0  0  0
   -0.1205    3.3341    0.0000 C   0  0  0  0  0  0  0  0  0  0  0  0
   -0.9321    3.6823    0.0000 C   0  0  0  0  0  0  0  0  0  0  0  0
   -0.2611    3.6914    0.0000 C   0  0  0  0  0  0  0  0  0  0  0  0
   -2.1427    4.1557    0.0000 C   0  0  0  0  0  0  0  0  0  0  0  0
   -2.9238    3.8901    0.0000 C   0  0  0  0  0  0  0  0  0  0  0  0
   -0.0455    4.1557    0.0000 C   0  0  0  0  0  0  0  0  0  0  0  0
   -0.4564    4.3563    0.0000 C   0  0  0  0  0  0  0  0  0  0  0  0
   -3.0843    3.0808    0.0000 C   0  0  0  0  0  0  0  0  0  0  0  0
   -3.5444    4.4337    0.0000 C   0  0  0  0  0  0  0  0  0  0  0  0
   -3.8653    2.8152    0.0000 C   0  0  0  0  0  0  0  0  0  0  0  0
   -4.3254    4.1680    0.0000 C   0  0  0  0  0  0  0  0  0  0  0  0
   -4.4859    3.3588    0.0000 C   0  0  0  0  0  0  0  0  0  0  0  0
  1 18  2  0  0  0  0
  2 20  2  0  0  0  0
  3 27  2  0  0  0  0
  4 33  2  0  0  0  0
  5 39  2  0  0  0  0
  6 39  1  0  0  0  0
  7 15  1  0  0  0  0
  7 16  1  0  0  0  0
  7 18  1  6  0  0  0
  8 21  1  0  0  0  0
  8 27  1  0  0  0  0
  9 20  1  0  0  0  0
  9 29  1  0  0  0  0
 10 28  1  0  0  0  0
 10 33  1  0  0  0  0
 11 13  2  0  0  0  0
 11 32  1  0  0  0  0
 12 14  1  0  0  0  0
 12 32  2  0  0  0  0
 13 14  1  0  0  0  0
 15 17  2  0  0  0  0
 15 22  1  0  0  0  0
 16 19  1  0  0  0  0
 16 20  1  0  0  0  0
 17 19  1  0  0  0  0
 17 23  1  0  0  0  0
 18 21  1  0  0  0  0
 21 26  1  0  0  0  0
 22 24  2  0  0  0  0
 23 25  2  0  0  0  0
 24 25  1  0  0  0  0
 26 30  1  0  0  0  0
 28 27  1  1  0  0  0
 28 31  1  0  0  0  0
 29 32  1  0  0  0  0
 30 34  1  0  0  0  0
 31 35  1  0  0  0  0
 31 36  1  6  0  0  0
 33 37  1  0  0  0  0
 34 39  1  0  0  0  0
 35 40  1  0  0  0  0
 37 38  1  0  0  0  0
 38 41  2  0  0  0  0
 38 42  1  0  0  0  0
 41 43  1  0  0  0  0
 42 44  2  0  0  0  0
 43 45  2  0  0  0  0
 44 45  1  0  0  0  0
M  END
> <PUBCHEM_COMPOUND_ID_TYPE>
0

> <PUBCHEM_TOTAL_CHARGE>
0

> <PUBCHEM_SUBSTANCE_ID>
310938448

> <PUBCHEM_SUBSTANCE_VERSION>
1

> <PUBCHEM_EXT_DATASOURCE_NAME>
4488

> <PUBCHEM_EXT_DATASOURCE_REGID>
SCHEMBL16116347

> <PUBCHEM_SUBSTANCE_COMMENT>
InChI=1S/C31H38N8O6/c1-3-19(2)28(34-26(40)16-20-10-5-4-6-11-20)30(44)33-22(13-9-15-27(41)42)31(45)39-23-14-8-7-12-21(23)17-24(39)29(43)32-18-25-35-37-38-36-25/h4-8,10-12,14,19,22,24,28H,3,9,13,15-18H2,1-2H3,(H,32,43)(H,33,44)(H,34,40)(H,41,42)(H,35,36,37,38)/t19-,22?,24?,28-/m0/s1
InChIKey=QNMAXZJKICUFSA-DOQRNXNLSA-N

> <PUBCHEM_SUBSTANCE_SYNONYM>
SCHEMBL16116347

> <PUBCHEM_XREF_EXT_ID>
SCHEMBL16116347

> <PUBCHEM_EXT_DATASOURCE_URL>
https://www.surechembl.org/

> <PUBCHEM_EXT_SUBSTANCE_URL>
https://www.surechembl.org/chemical/SCHEMBL16116347

> <PUBCHEM_CID_ASSOCIATIONS>
117605910  1

> <PUBCHEM_COORDINATE_TYPE>
1
3

> <PUBCHEM_BONDANNOTATIONS>
28  27  5
31  36  6
7  18  6

$$$$
