310932036
  -OEChem-07211613022D

 33 36  0     1  0  0  0  0  0999 V2000
    4.0589   -2.7425    0.0000 O   0  0  0  0  0  0  0  0  0  0  0  0
    8.5566   -2.8156    0.0000 O   0  0  0  0  0  0  0  0  0  0  0  0
    4.9365   -1.6090    0.0000 N   0  0  0  0  0  0  0  0  0  0  0  0
    4.8634   -0.7679    0.0000 N   0  0  0  0  0  0  0  0  0  0  0  0
    6.3992   -1.6090    0.0000 N   0  0  0  0  0  0  0  0  0  0  0  0
    7.8253   -4.0589    0.0000 N   0  0  0  0  0  0  0  0  0  0  0  0
   10.0193   -4.4246    0.0000 N   0  0  3  0  0  0  0  0  0  0  0  0
    0.0000   -2.4499    0.0000 N   0  0  0  0  0  0  0  0  0  0  0  0
    3.6201   -1.3164    0.0000 C   0  0  0  0  0  0  0  0  0  0  0  0
    4.2052   -1.9381    0.0000 C   0  0  0  0  0  0  0  0  0  0  0  0
    2.8156   -1.4261    0.0000 C   0  0  0  0  0  0  0  0  0  0  0  0
    5.6679   -2.0112    0.0000 C   0  0  0  0  0  0  0  0  0  0  0  0
    4.0589   -0.6216    0.0000 C   0  0  0  0  0  0  0  0  0  0  0  0
    2.3037   -0.7679    0.0000 C   0  0  0  0  0  0  0  0  0  0  0  0
    7.0940   -2.8156    0.0000 C   0  0  0  0  0  0  0  0  0  0  0  0
    5.6679   -2.8156    0.0000 C   0  0  0  0  0  0  0  0  0  0  0  0
    2.4865   -2.1940    0.0000 C   0  0  0  0  0  0  0  0  0  0  0  0
    7.8253   -3.2544    0.0000 C   0  0  0  0  0  0  0  0  0  0  0  0
    7.0940   -2.0112    0.0000 C   0  0  0  0  0  0  0  0  0  0  0  0
    6.3992   -3.2544    0.0000 C   0  0  0  0  0  0  0  0  0  0  0  0
    1.4992   -0.8411    0.0000 C   0  0  0  0  0  0  0  0  0  0  0  0
    1.1701   -1.6090    0.0000 C   0  0  0  0  0  0  0  0  0  0  0  0
    1.6455   -2.2671    0.0000 C   0  0  0  0  0  0  0  0  0  0  0  0
    9.2514   -4.0589    0.0000 C   0  0  3  0  0  0  0  0  0  0  0  0
    8.5566   -4.4977    0.0000 C   0  0  0  0  0  0  0  0  0  0  0  0
    2.6328    0.0000    0.0000 C   0  0  0  0  0  0  0  0  0  0  0  0
    9.3611   -3.2544    0.0000 C   0  0  0  0  0  0  0  0  0  0  0  0
    0.3291   -1.6821    0.0000 C   0  0  0  0  0  0  0  0  0  0  0  0
   10.5678   -3.8030    0.0000 C   0  0  0  0  0  0  0  0  0  0  0  0
   10.1656   -3.0716    0.0000 C   0  0  0  0  0  0  0  0  0  0  0  0
    7.0940   -4.4977    0.0000 C   0  0  0  0  0  0  0  0  0  0  0  0
   10.2021   -5.2290    0.0000 C   0  0  0  0  0  0  0  0  0  0  0  0
   10.9701   -5.4850    0.0000 C   0  0  0  0  0  0  0  0  0  0  0  0
  1 10  1  0  0  0  0
  2 18  2  0  0  0  0
  3  4  1  0  0  0  0
  3 10  1  0  0  0  0
  3 12  1  0  0  0  0
  4 13  2  0  0  0  0
  5 12  2  0  0  0  0
  5 19  1  0  0  0  0
  6 18  1  0  0  0  0
  6 25  1  0  0  0  0
  6 31  1  0  0  0  0
  7 24  1  0  0  0  0
  7 29  1  0  0  0  0
  7 32  1  0  0  0  0
  8 28  3  0  0  0  0
  9 10  2  0  0  0  0
  9 11  1  0  0  0  0
  9 13  1  0  0  0  0
 11 14  1  0  0  0  0
 11 17  2  0  0  0  0
 12 16  1  0  0  0  0
 14 21  2  0  0  0  0
 14 26  1  0  0  0  0
 15 18  1  0  0  0  0
 15 19  2  0  0  0  0
 15 20  1  0  0  0  0
 16 20  2  0  0  0  0
 17 23  1  0  0  0  0
 21 22  1  0  0  0  0
 22 23  2  0  0  0  0
 22 28  1  0  0  0  0
 24 25  1  0  0  0  0
 24 27  1  0  0  0  0
 27 30  1  0  0  0  0
 29 30  1  0  0  0  0
 32 33  1  0  0  0  0
M  END
> <PUBCHEM_COMPOUND_ID_TYPE>
0

> <PUBCHEM_TOTAL_CHARGE>
0

> <PUBCHEM_SUBSTANCE_ID>
310932036

> <PUBCHEM_SUBSTANCE_VERSION>
1

> <PUBCHEM_EXT_DATASOURCE_NAME>
4488

> <PUBCHEM_EXT_DATASOURCE_REGID>
SCHEMBL16109379

> <PUBCHEM_SUBSTANCE_COMMENT>
InChI=1S/C25H28N6O2/c1-4-30-11-5-6-20(30)16-29(3)24(32)19-8-10-23(27-14-19)31-25(33)22(15-28-31)21-9-7-18(13-26)12-17(21)2/h7-10,12,14-15,20,33H,4-6,11,16H2,1-3H3
InChIKey=ROWGETKTKPDNPP-UHFFFAOYSA-N

> <PUBCHEM_SUBSTANCE_SYNONYM>
SCHEMBL16109379

> <PUBCHEM_XREF_EXT_ID>
SCHEMBL16109379

> <PUBCHEM_EXT_DATASOURCE_URL>
https://www.surechembl.org/

> <PUBCHEM_EXT_SUBSTANCE_URL>
https://www.surechembl.org/chemical/SCHEMBL16109379

> <PUBCHEM_CID_ASSOCIATIONS>
117600670  1

> <PUBCHEM_COORDINATE_TYPE>
1
3

$$$$
