310937343
  -OEChem-07211613022D

 33 36  0     1  0  0  0  0  0999 V2000
    2.9328    1.3099    0.0000 S   0  0  0  0  0  0  0  0  0  0  0  0
   -0.4496   -1.5777    0.0000 F   0  0  0  0  0  0  0  0  0  0  0  0
    0.0462   -1.6967    0.0000 F   0  0  0  0  0  0  0  0  0  0  0  0
   -0.7220   -0.4432    0.0000 F   0  0  0  0  0  0  0  0  0  0  0  0
    0.4610    4.2184    0.0000 F   0  0  0  0  0  0  0  0  0  0  0  0
    1.9657   -0.9224    0.0000 O   0  0  0  0  0  0  0  0  0  0  0  0
   -1.1951    2.3791    0.0000 O   0  0  0  0  0  0  0  0  0  0  0  0
    1.4808    1.0799    0.0000 N   0  0  0  0  0  0  0  0  0  0  0  0
    2.2654    0.0000    0.0000 N   0  0  0  0  0  0  0  0  0  0  0  0
    2.0993   -1.5561    0.0000 N   0  0  0  0  0  0  0  0  0  0  0  0
   -0.8980    3.7769    0.0000 N   0  0  0  0  0  0  0  0  0  0  0  0
    2.6270    4.4885    0.0000 N   0  0  0  0  0  0  0  0  0  0  0  0
    0.9959    0.4125    0.0000 C   0  0  3  0  0  0  0  0  0  0  0  0
    0.4125   -0.1709    0.0000 C   0  0  3  0  0  0  0  0  0  0  0  0
   -0.0186   -0.8743    0.0000 C   0  0  0  0  0  0  0  0  0  0  0  0
    1.4808   -0.2549    0.0000 C   0  0  0  0  0  0  0  0  0  0  0  0
    0.4125    0.9959    0.0000 C   0  0  0  0  0  0  0  0  0  0  0  0
   -0.1709    0.4125    0.0000 C   0  0  0  0  0  0  0  0  0  0  0  0
    0.8436   -0.8743    0.0000 C   0  0  0  0  0  0  0  0  0  0  0  0
    2.2654    0.8250    0.0000 C   0  0  0  0  0  0  0  0  0  0  0  0
    1.2258    1.8646    0.0000 C   0  0  0  0  0  0  0  0  0  0  0  0
    1.6683   -0.8527    0.0000 C   0  0  0  0  0  0  0  0  0  0  0  0
    0.4499   -1.5993    0.0000 C   0  0  0  0  0  0  0  0  0  0  0  0
    0.4189    2.0361    0.0000 C   0  0  0  0  0  0  0  0  0  0  0  0
    1.7779    2.4777    0.0000 C   0  0  0  0  0  0  0  0  0  0  0  0
    0.1639    2.8207    0.0000 C   0  0  0  0  0  0  0  0  0  0  0  0
    1.5229    3.2623    0.0000 C   0  0  0  0  0  0  0  0  0  0  0  0
    0.7160    3.4338    0.0000 C   0  0  0  0  0  0  0  0  0  0  0  0
    0.8810   -2.3027    0.0000 C   0  0  0  0  0  0  0  0  0  0  0  0
    1.7057   -2.2811    0.0000 C   0  0  0  0  0  0  0  0  0  0  0  0
   -0.6430    2.9922    0.0000 C   0  0  0  0  0  0  0  0  0  0  0  0
    2.0750    3.8754    0.0000 C   0  0  0  0  0  0  0  0  0  0  0  0
   -1.7049    3.9484    0.0000 C   0  0  0  0  0  0  0  0  0  0  0  0
  1 20  2  0  0  0  0
  2 15  1  0  0  0  0
  3 15  1  0  0  0  0
  4 15  1  0  0  0  0
  5 28  1  0  0  0  0
  6 16  2  0  0  0  0
  7 31  2  0  0  0  0
  8 13  1  0  0  0  0
  8 20  1  0  0  0  0
  8 21  1  0  0  0  0
  9 16  1  0  0  0  0
  9 20  1  0  0  0  0
 10 22  2  0  0  0  0
 10 30  1  0  0  0  0
 11 31  1  0  0  0  0
 11 33  1  0  0  0  0
 12 32  3  0  0  0  0
 13 14  1  0  0  0  0
 13 16  1  0  0  0  0
 13 17  1  0  0  0  0
 14 15  1  0  0  0  0
 14 18  1  0  0  0  0
 14 19  1  0  0  0  0
 17 18  1  0  0  0  0
 19 22  1  0  0  0  0
 19 23  2  0  0  0  0
 21 24  2  0  0  0  0
 21 25  1  0  0  0  0
 23 29  1  0  0  0  0
 24 26  1  0  0  0  0
 25 27  2  0  0  0  0
 26 28  2  0  0  0  0
 26 31  1  0  0  0  0
 27 28  1  0  0  0  0
 27 32  1  0  0  0  0
 29 30  2  0  0  0  0
M  END
> <PUBCHEM_COMPOUND_ID_TYPE>
0

> <PUBCHEM_TOTAL_CHARGE>
0

> <PUBCHEM_SUBSTANCE_ID>
310937343

> <PUBCHEM_SUBSTANCE_VERSION>
1

> <PUBCHEM_EXT_DATASOURCE_NAME>
4488

> <PUBCHEM_EXT_DATASOURCE_REGID>
SCHEMBL16115097

> <PUBCHEM_SUBSTANCE_COMMENT>
InChI=1S/C21H15F4N5O2S/c1-27-16(31)14-8-13(7-11(9-26)15(14)22)30-18(33)29-17(32)20(30)5-4-19(20,21(23,24)25)12-3-2-6-28-10-12/h2-3,6-8,10H,4-5H2,1H3,(H,27,31)(H,29,32,33)
InChIKey=SISXDRNHZBVZRW-UHFFFAOYSA-N

> <PUBCHEM_SUBSTANCE_SYNONYM>
SCHEMBL16115097

> <PUBCHEM_XREF_EXT_ID>
SCHEMBL16115097

> <PUBCHEM_EXT_DATASOURCE_URL>
https://www.surechembl.org/

> <PUBCHEM_EXT_SUBSTANCE_URL>
https://www.surechembl.org/chemical/SCHEMBL16115097

> <PUBCHEM_CID_ASSOCIATIONS>
117605119  1

> <PUBCHEM_COORDINATE_TYPE>
1
3

$$$$
