310946089
  -OEChem-07211613022D

 21 23  0     1  0  0  0  0  0999 V2000
   -0.8263  -16.0014    0.0000 O   0  0  0  0  0  0  0  0  0  0  0  0
   -1.5408  -14.7639    0.0000 O   0  0  0  0  0  0  0  0  0  0  0  0
   -0.1118  -15.5889    0.0000 C   0  0  3  0  0  0  0  0  0  0  0  0
    0.6026  -16.0014    0.0000 C   0  0  3  0  0  0  0  0  0  0  0  0
    0.6026  -14.3514    0.0000 C   0  0  3  0  0  0  0  0  0  0  0  0
    1.3171  -15.5889    0.0000 C   0  0  3  0  0  0  0  0  0  0  0  0
    1.3171  -14.7639    0.0000 C   0  0  3  0  0  0  0  0  0  0  0  0
   -0.1118  -14.7639    0.0000 C   0  0  0  0  0  0  0  0  0  0  0  0
    0.8162  -15.1482    0.0000 C   0  0  0  0  0  0  0  0  0  0  0  0
    2.0316  -14.3514    0.0000 C   0  0  3  0  0  0  0  0  0  0  0  0
   -0.1118  -16.4139    0.0000 C   0  0  0  0  0  0  0  0  0  0  0  0
    2.0316  -16.0014    0.0000 C   0  0  0  0  0  0  0  0  0  0  0  0
    2.7460  -14.7639    0.0000 C   0  0  0  0  0  0  0  0  0  0  0  0
   -1.5408  -15.5889    0.0000 C   0  0  0  0  0  0  0  0  0  0  0  0
    2.7460  -15.5889    0.0000 C   0  0  0  0  0  0  0  0  0  0  0  0
    2.2451  -15.1482    0.0000 C   0  0  0  0  0  0  0  0  0  0  0  0
    0.6026  -16.8264    0.0000 C   0  0  0  0  0  0  0  0  0  0  0  0
   -2.2552  -16.0014    0.0000 C   0  0  0  0  0  0  0  0  0  0  0  0
    2.0316  -15.9451    0.0000 C   0  0  0  0  0  0  0  0  0  0  0  0
   -2.6677  -15.2869    0.0000 C   0  0  0  0  0  0  0  0  0  0  0  0
   -1.8427  -16.7158    0.0000 C   0  0  0  0  0  0  0  0  0  0  0  0
  1  3  1  0  0  0  0
  1 14  1  0  0  0  0
  2 14  2  0  0  0  0
  3  4  1  0  0  0  0
  3  8  1  0  0  0  0
  3 11  1  0  0  0  0
  4  6  1  0  0  0  0
  4  9  1  0  0  0  0
  5  7  1  0  0  0  0
  5  8  1  0  0  0  0
  5  9  1  0  0  0  0
  6  7  1  0  0  0  0
  6 12  1  0  0  0  0
  7 10  1  0  0  0  0
 10 13  1  0  0  0  0
 10 16  1  0  0  0  0
 11 17  1  0  0  0  0
 12 15  1  0  0  0  0
 13 15  1  0  0  0  0
 14 18  1  0  0  0  0
 16 19  1  0  0  0  0
 18 20  1  0  0  0  0
 18 21  1  0  0  0  0
M  END
> <PUBCHEM_COMPOUND_ID_TYPE>
0

> <PUBCHEM_TOTAL_CHARGE>
0

> <PUBCHEM_SUBSTANCE_ID>
310946089

> <PUBCHEM_SUBSTANCE_VERSION>
1

> <PUBCHEM_EXT_DATASOURCE_NAME>
4488

> <PUBCHEM_EXT_DATASOURCE_REGID>
SCHEMBL16124196

> <PUBCHEM_SUBSTANCE_COMMENT>
InChI=1S/C19H32O2/c1-5-13-8-7-9-15-16-10-14(17(13)15)11-19(16,6-2)21-18(20)12(3)4/h12-17H,5-11H2,1-4H3
InChIKey=UZJPPZNCORYPRW-UHFFFAOYSA-N

> <PUBCHEM_SUBSTANCE_SYNONYM>
SCHEMBL16124196

> <PUBCHEM_XREF_EXT_ID>
SCHEMBL16124196

> <PUBCHEM_EXT_DATASOURCE_URL>
https://www.surechembl.org/

> <PUBCHEM_EXT_SUBSTANCE_URL>
https://www.surechembl.org/chemical/SCHEMBL16124196

> <PUBCHEM_CID_ASSOCIATIONS>
117612054  1

> <PUBCHEM_COORDINATE_TYPE>
1
3

> <PUBCHEM_BONDANNOTATIONS>
18  20  3
18  21  3

$$$$
