310931831
  -OEChem-07211613022D

 31 34  0     1  0  0  0  0  0999 V2000
    3.9874   -2.7084    0.0000 O   0  0  0  0  0  0  0  0  0  0  0  0
    8.4262   -2.7836    0.0000 O   0  0  0  0  0  0  0  0  0  0  0  0
    4.8902   -1.5799    0.0000 N   0  0  0  0  0  0  0  0  0  0  0  0
    4.7773   -0.7523    0.0000 N   0  0  0  0  0  0  0  0  0  0  0  0
    6.3197   -1.5799    0.0000 N   0  0  0  0  0  0  0  0  0  0  0  0
    7.7114   -4.0250    0.0000 N   0  0  0  0  0  0  0  0  0  0  0  0
   10.4575   -3.7617    0.0000 N   0  0  3  0  0  0  0  0  0  0  0  0
    0.0000   -2.4075    0.0000 N   0  0  0  0  0  0  0  0  0  0  0  0
    3.5736   -1.3166    0.0000 C   0  0  0  0  0  0  0  0  0  0  0  0
    4.1379   -1.9184    0.0000 C   0  0  0  0  0  0  0  0  0  0  0  0
    2.7460   -1.3918    0.0000 C   0  0  0  0  0  0  0  0  0  0  0  0
    5.6049   -1.9937    0.0000 C   0  0  0  0  0  0  0  0  0  0  0  0
    3.9874   -0.6019    0.0000 C   0  0  0  0  0  0  0  0  0  0  0  0
    2.2570   -0.7523    0.0000 C   0  0  0  0  0  0  0  0  0  0  0  0
    2.4451   -2.1442    0.0000 C   0  0  0  0  0  0  0  0  0  0  0  0
    5.6049   -2.7836    0.0000 C   0  0  0  0  0  0  0  0  0  0  0  0
    6.9968   -2.7836    0.0000 C   0  0  0  0  0  0  0  0  0  0  0  0
    1.4671   -0.8276    0.0000 C   0  0  0  0  0  0  0  0  0  0  0  0
    6.9968   -1.9937    0.0000 C   0  0  0  0  0  0  0  0  0  0  0  0
    6.3197   -3.1974    0.0000 C   0  0  0  0  0  0  0  0  0  0  0  0
    1.1285   -1.5799    0.0000 C   0  0  0  0  0  0  0  0  0  0  0  0
    1.6175   -2.2570    0.0000 C   0  0  0  0  0  0  0  0  0  0  0  0
    7.7114   -3.1974    0.0000 C   0  0  0  0  0  0  0  0  0  0  0  0
    2.5956    0.0000    0.0000 C   0  0  0  0  0  0  0  0  0  0  0  0
    0.3009   -1.6928    0.0000 C   0  0  0  0  0  0  0  0  0  0  0  0
    9.1409   -4.0250    0.0000 C   0  0  3  0  0  0  0  0  0  0  0  0
    8.4262   -4.4388    0.0000 C   0  0  0  0  0  0  0  0  0  0  0  0
    9.8933   -4.3636    0.0000 C   0  0  0  0  0  0  0  0  0  0  0  0
    9.2538   -3.2350    0.0000 C   0  0  0  0  0  0  0  0  0  0  0  0
   10.0437   -3.0470    0.0000 C   0  0  0  0  0  0  0  0  0  0  0  0
   11.2851   -3.8370    0.0000 C   0  0  0  0  0  0  0  0  0  0  0  0
  1 10  1  0  0  0  0
  2 23  2  0  0  0  0
  3  4  1  0  0  0  0
  3 10  1  0  0  0  0
  3 12  1  0  0  0  0
  4 13  2  0  0  0  0
  5 12  2  0  0  0  0
  5 19  1  0  0  0  0
  6 23  1  0  0  0  0
  6 27  1  0  0  0  0
  7 28  1  0  0  0  0
  7 30  1  0  0  0  0
  7 31  1  0  0  0  0
  8 25  3  0  0  0  0
  9 10  2  0  0  0  0
  9 11  1  0  0  0  0
  9 13  1  0  0  0  0
 11 14  1  0  0  0  0
 11 15  2  0  0  0  0
 12 16  1  0  0  0  0
 14 18  2  0  0  0  0
 14 24  1  0  0  0  0
 15 22  1  0  0  0  0
 16 20  2  0  0  0  0
 17 19  2  0  0  0  0
 17 20  1  0  0  0  0
 17 23  1  0  0  0  0
 18 21  1  0  0  0  0
 21 22  2  0  0  0  0
 21 25  1  0  0  0  0
 26 27  1  0  0  0  0
 26 28  1  0  0  0  0
 26 29  1  0  0  0  0
 29 30  1  0  0  0  0
M  END
> <PUBCHEM_COMPOUND_ID_TYPE>
0

> <PUBCHEM_TOTAL_CHARGE>
0

> <PUBCHEM_SUBSTANCE_ID>
310931831

> <PUBCHEM_SUBSTANCE_VERSION>
1

> <PUBCHEM_EXT_DATASOURCE_NAME>
4488

> <PUBCHEM_EXT_DATASOURCE_REGID>
SCHEMBL16109164

> <PUBCHEM_SUBSTANCE_COMMENT>
InChI=1S/C23H24N6O2/c1-15-9-16(10-24)3-5-19(15)20-13-27-29(23(20)31)21-6-4-18(12-25-21)22(30)26-11-17-7-8-28(2)14-17/h3-6,9,12-13,17,31H,7-8,11,14H2,1-2H3,(H,26,30)
InChIKey=QIIVQEADFAJNCN-UHFFFAOYSA-N

> <PUBCHEM_SUBSTANCE_SYNONYM>
SCHEMBL16109164

> <PUBCHEM_XREF_EXT_ID>
SCHEMBL16109164

> <PUBCHEM_EXT_DATASOURCE_URL>
https://www.surechembl.org/

> <PUBCHEM_EXT_SUBSTANCE_URL>
https://www.surechembl.org/chemical/SCHEMBL16109164

> <PUBCHEM_CID_ASSOCIATIONS>
117600503  1

> <PUBCHEM_COORDINATE_TYPE>
1
3

$$$$
