310948344
  -OEChem-07211613022D

 16 17  0     1  0  0  0  0  0999 V2000
   -2.8826    0.8699    0.0000 Br  0  0  0  0  0  0  0  0  0  0  0  0
    0.3241   -0.6481    0.0000 S   0  0  0  0  0  0  0  0  0  0  0  0
    0.1535   -1.4669    0.0000 O   0  0  0  0  0  0  0  0  0  0  0  0
    0.9382   -1.1940    0.0000 O   0  0  0  0  0  0  0  0  0  0  0  0
    0.8188    0.0341    0.0000 N   0  0  3  0  0  0  0  0  0  0  0  0
   -0.4776   -0.3582    0.0000 C   0  0  0  0  0  0  0  0  0  0  0  0
   -0.4435    0.4605    0.0000 C   0  0  0  0  0  0  0  0  0  0  0  0
    0.3241    0.6993    0.0000 C   0  0  0  0  0  0  0  0  0  0  0  0
   -1.1599   -0.7846    0.0000 C   0  0  0  0  0  0  0  0  0  0  0  0
   -1.1770    0.8529    0.0000 C   0  0  0  0  0  0  0  0  0  0  0  0
    1.6375    0.0341    0.0000 C   0  0  0  0  0  0  0  0  0  0  0  0
   -1.8933    0.4605    0.0000 C   0  0  0  0  0  0  0  0  0  0  0  0
   -1.8762   -0.3753    0.0000 C   0  0  0  0  0  0  0  0  0  0  0  0
    2.0468    0.7676    0.0000 C   0  0  0  0  0  0  0  0  0  0  0  0
    1.6375    1.4669    0.0000 C   0  0  0  0  0  0  0  0  0  0  0  0
    2.8826    0.7505    0.0000 C   0  0  0  0  0  0  0  0  0  0  0  0
  1 12  1  0  0  0  0
  2  3  2  0  0  0  0
  2  4  2  0  0  0  0
  2  5  1  0  0  0  0
  2  6  1  0  0  0  0
  5  8  1  0  0  0  0
  5 11  1  0  0  0  0
  6  7  1  0  0  0  0
  6  9  2  0  0  0  0
  7  8  1  0  0  0  0
  7 10  2  0  0  0  0
  9 13  1  0  0  0  0
 10 12  1  0  0  0  0
 11 14  1  0  0  0  0
 12 13  2  0  0  0  0
 14 15  1  0  0  0  0
 14 16  1  0  0  0  0
M  END
> <PUBCHEM_COMPOUND_ID_TYPE>
0

> <PUBCHEM_TOTAL_CHARGE>
0

> <PUBCHEM_SUBSTANCE_ID>
310948344

> <PUBCHEM_SUBSTANCE_VERSION>
1

> <PUBCHEM_EXT_DATASOURCE_NAME>
4488

> <PUBCHEM_EXT_DATASOURCE_REGID>
SCHEMBL16126522

> <PUBCHEM_SUBSTANCE_COMMENT>
InChI=1S/C11H14BrNO2S/c1-8(2)6-13-7-9-5-10(12)3-4-11(9)16(13,14)15/h3-5,8H,6-7H2,1-2H3
InChIKey=LAUFQSVBKBFFQS-UHFFFAOYSA-N

> <PUBCHEM_SUBSTANCE_SYNONYM>
SCHEMBL16126522

> <PUBCHEM_XREF_EXT_ID>
SCHEMBL16126522

> <PUBCHEM_EXT_DATASOURCE_URL>
https://www.surechembl.org/

> <PUBCHEM_EXT_SUBSTANCE_URL>
https://www.surechembl.org/chemical/SCHEMBL16126522

> <PUBCHEM_CID_ASSOCIATIONS>
117613908  1

> <PUBCHEM_COORDINATE_TYPE>
1
3

$$$$
