310944856
  -OEChem-07211613022D

 27 30  0     1  0  0  0  0  0999 V2000
   -3.6679   -1.8068    0.0000 O   0  0  0  0  0  0  0  0  0  0  0  0
    3.2086    1.1904    0.0000 O   0  0  0  0  0  0  0  0  0  0  0  0
   -3.7404    0.6707    0.0000 O   0  0  0  0  0  0  0  0  0  0  0  0
    1.4563   -0.9971    0.0000 N   0  0  0  0  0  0  0  0  0  0  0  0
   -0.2598   -0.9245    0.0000 N   0  0  0  0  0  0  0  0  0  0  0  0
   -1.5530   -1.5409    0.0000 N   0  0  0  0  0  0  0  0  0  0  0  0
    3.7404   -0.0785    0.0000 N   0  0  0  0  0  0  0  0  0  0  0  0
   -1.4442   -0.1148    0.0000 N   0  0  0  0  0  0  0  0  0  0  0  0
   -2.4956   -0.0061    0.0000 N   0  0  0  0  0  0  0  0  0  0  0  0
    1.0212   -0.2961    0.0000 C   0  0  0  0  0  0  0  0  0  0  0  0
    2.3265    0.0302    0.0000 C   0  0  0  0  0  0  0  0  0  0  0  0
    2.2418   -0.7916    0.0000 C   0  0  0  0  0  0  0  0  0  0  0  0
    0.1994   -0.2236    0.0000 C   0  0  0  0  0  0  0  0  0  0  0  0
    1.5530    0.3324    0.0000 C   0  0  0  0  0  0  0  0  0  0  0  0
    3.0636    0.3807    0.0000 C   0  0  0  0  0  0  0  0  0  0  0  0
   -1.0938   -0.8520    0.0000 C   0  0  0  0  0  0  0  0  0  0  0  0
   -2.3748   -1.4684    0.0000 C   0  0  3  0  0  0  0  0  0  0  0  0
    2.9549   -1.2629    0.0000 C   0  0  0  0  0  0  0  0  0  0  0  0
   -2.7977   -0.7916    0.0000 C   0  0  3  0  0  0  0  0  0  0  0  0
   -0.1511    0.5015    0.0000 C   0  0  0  0  0  0  0  0  0  0  0  0
    3.6800   -0.9003    0.0000 C   0  0  0  0  0  0  0  0  0  0  0  0
   -0.9850    0.5741    0.0000 C   0  0  0  0  0  0  0  0  0  0  0  0
   -2.8945   -2.1089    0.0000 C   0  0  0  0  0  0  0  0  0  0  0  0
   -3.5954   -0.9729    0.0000 C   0  0  0  0  0  0  0  0  0  0  0  0
   -2.9065    0.6829    0.0000 C   0  0  0  0  0  0  0  0  0  0  0  0
   -2.5319    1.4321    0.0000 C   0  0  0  0  0  0  0  0  0  0  0  0
   -3.0153    2.1089    0.0000 C   0  0  0  0  0  0  0  0  0  0  0  0
  1 23  1  0  0  0  0
  1 24  1  0  0  0  0
  2 15  2  0  0  0  0
  3 25  2  0  0  0  0
  4 10  1  0  0  0  0
  4 12  1  0  0  0  0
  5 13  2  0  0  0  0
  5 16  1  0  0  0  0
  6 16  1  0  0  0  0
  6 17  1  0  0  0  0
  7 15  1  0  0  0  0
  7 21  1  0  0  0  0
  8 16  2  0  0  0  0
  8 22  1  0  0  0  0
  9 19  1  0  0  0  0
  9 25  1  0  0  0  0
 10 13  1  0  0  0  0
 10 14  2  0  0  0  0
 11 12  2  0  0  0  0
 11 14  1  0  0  0  0
 11 15  1  0  0  0  0
 12 18  1  0  0  0  0
 13 20  1  0  0  0  0
 17 19  1  0  0  0  0
 17 23  1  0  0  0  0
 18 21  1  0  0  0  0
 19 24  1  0  0  0  0
 20 22  2  0  0  0  0
 25 26  1  0  0  0  0
 26 27  2  0  0  0  0
M  END
> <PUBCHEM_COMPOUND_ID_TYPE>
0

> <PUBCHEM_TOTAL_CHARGE>
0

> <PUBCHEM_SUBSTANCE_ID>
310944856

> <PUBCHEM_SUBSTANCE_VERSION>
1

> <PUBCHEM_EXT_DATASOURCE_NAME>
4488

> <PUBCHEM_EXT_DATASOURCE_REGID>
SCHEMBL16122938

> <PUBCHEM_SUBSTANCE_COMMENT>
InChI=1S/C18H20N6O3/c1-2-16(25)22-14-8-27-9-15(14)24-18-20-6-4-12(23-18)13-7-10-11(21-13)3-5-19-17(10)26/h2,4,6-7,14-15,21H,1,3,5,8-9H2,(H,19,26)(H,22,25)(H,20,23,24)
InChIKey=VCSBHYAENKJTNU-UHFFFAOYSA-N

> <PUBCHEM_SUBSTANCE_SYNONYM>
SCHEMBL16122938

> <PUBCHEM_XREF_EXT_ID>
SCHEMBL16122938

> <PUBCHEM_EXT_DATASOURCE_URL>
https://www.surechembl.org/

> <PUBCHEM_EXT_SUBSTANCE_URL>
https://www.surechembl.org/chemical/SCHEMBL16122938

> <PUBCHEM_CID_ASSOCIATIONS>
86300462  1

> <PUBCHEM_COORDINATE_TYPE>
1
3

$$$$
