310946508
  -OEChem-07211613022D

 24 25  0     1  0  0  0  0  0999 V2000
    5.0556   -2.7504    0.0000 O   0  0  0  0  0  0  0  0  0  0  0  0
    3.6754   -3.1202    0.0000 O   0  0  0  0  0  0  0  0  0  0  0  0
    3.9713   -6.1932    0.0000 O   0  0  0  0  0  0  0  0  0  0  0  0
    3.2569   -4.9557    0.0000 O   0  0  0  0  0  0  0  0  0  0  0  0
    4.6858   -4.1307    0.0000 N   0  0  0  0  0  0  0  0  0  0  0  0
    4.6858   -4.9557    0.0000 C   0  0  3  0  0  0  0  0  0  0  0  0
    5.2692   -1.9535    0.0000 C   0  0  0  0  0  0  0  0  0  0  0  0
    4.4723   -3.3338    0.0000 C   0  0  0  0  0  0  0  0  0  0  0  0
    5.4003   -5.3681    0.0000 C   0  0  0  0  0  0  0  0  0  0  0  0
    6.2253   -5.3681    0.0000 C   0  0  0  0  0  0  0  0  0  0  0  0
    6.2796   -0.9431    0.0000 C   0  0  0  0  0  0  0  0  0  0  0  0
    3.9713   -5.3682    0.0000 C   0  0  0  0  0  0  0  0  0  0  0  0
    6.0661   -1.7400    0.0000 C   0  0  0  0  0  0  0  0  0  0  0  0
    4.6858   -1.3701    0.0000 C   0  0  0  0  0  0  0  0  0  0  0  0
    5.6962   -0.3597    0.0000 C   0  0  0  0  0  0  0  0  0  0  0  0
    4.8993   -0.5733    0.0000 C   0  0  0  0  0  0  0  0  0  0  0  0
    6.6378   -6.0826    0.0000 C   0  0  0  0  0  0  0  0  0  0  0  0
    6.6378   -4.6537    0.0000 C   0  0  0  0  0  0  0  0  0  0  0  0
    7.0765   -0.7296    0.0000 C   0  0  0  0  0  0  0  0  0  0  0  0
    7.4628   -6.0826    0.0000 C   0  0  0  0  0  0  0  0  0  0  0  0
    7.4628   -4.6537    0.0000 C   0  0  0  0  0  0  0  0  0  0  0  0
    7.8753   -5.3681    0.0000 C   0  0  0  0  0  0  0  0  0  0  0  0
    7.2900    0.0673    0.0000 C   0  0  0  0  0  0  0  0  0  0  0  0
    8.0869    0.2808    0.0000 C   0  0  0  0  0  0  0  0  0  0  0  0
  1  7  1  0  0  0  0
  1  8  1  0  0  0  0
  2  8  2  0  0  0  0
  3 12  2  0  0  0  0
  4 12  1  0  0  0  0
  5  6  1  0  0  0  0
  5  8  1  0  0  0  0
  6  9  1  0  0  0  0
  6 12  1  0  0  0  0
  7 13  2  0  0  0  0
  7 14  1  0  0  0  0
  9 10  1  0  0  0  0
 10 17  2  0  0  0  0
 10 18  1  0  0  0  0
 11 13  1  0  0  0  0
 11 15  2  0  0  0  0
 11 19  1  0  0  0  0
 14 16  2  0  0  0  0
 15 16  1  0  0  0  0
 17 20  1  0  0  0  0
 18 21  2  0  0  0  0
 19 23  1  0  0  0  0
 20 22  2  0  0  0  0
 21 22  1  0  0  0  0
 23 24  1  0  0  0  0
M  END
> <PUBCHEM_COMPOUND_ID_TYPE>
0

> <PUBCHEM_TOTAL_CHARGE>
0

> <PUBCHEM_SUBSTANCE_ID>
310946508

> <PUBCHEM_SUBSTANCE_VERSION>
1

> <PUBCHEM_EXT_DATASOURCE_NAME>
4488

> <PUBCHEM_EXT_DATASOURCE_REGID>
SCHEMBL16124629

> <PUBCHEM_SUBSTANCE_COMMENT>
InChI=1S/C19H21NO4/c1-2-7-14-10-6-11-16(12-14)24-19(23)20-17(18(21)22)13-15-8-4-3-5-9-15/h3-6,8-12,17H,2,7,13H2,1H3,(H,20,23)(H,21,22)
InChIKey=AYLSJKPQVIWAHY-UHFFFAOYSA-N

> <PUBCHEM_SUBSTANCE_SYNONYM>
SCHEMBL16124629

> <PUBCHEM_XREF_EXT_ID>
SCHEMBL16124629

> <PUBCHEM_EXT_DATASOURCE_URL>
https://www.surechembl.org/

> <PUBCHEM_EXT_SUBSTANCE_URL>
https://www.surechembl.org/chemical/SCHEMBL16124629

> <PUBCHEM_CID_ASSOCIATIONS>
117612413  1

> <PUBCHEM_COORDINATE_TYPE>
1
3

$$$$
