310945577
  -OEChem-07211613022D

 17 18  0     1  0  0  0  0  0999 V2000
   -1.3336   -1.2167    0.0000 N   0  0  0  0  0  0  0  0  0  0  0  0
    0.0137   -1.2167    0.0000 N   0  0  0  0  0  0  0  0  0  0  0  0
    1.0585    0.1444    0.0000 N   0  0  3  0  0  0  0  0  0  0  0  0
    2.8458    1.3954    0.0000 N   0  0  0  0  0  0  0  0  0  0  0  0
   -1.0724   -0.4056    0.0000 C   0  0  0  0  0  0  0  0  0  0  0  0
   -0.2475   -0.4193    0.0000 C   0  0  0  0  0  0  0  0  0  0  0  0
   -1.5535    0.2681    0.0000 C   0  0  0  0  0  0  0  0  0  0  0  0
    0.2475    0.2681    0.0000 C   0  0  0  0  0  0  0  0  0  0  0  0
   -0.6461   -1.6703    0.0000 C   0  0  0  0  0  0  0  0  0  0  0  0
   -1.2236    1.0105    0.0000 C   0  0  0  0  0  0  0  0  0  0  0  0
   -2.3784    0.1856    0.0000 C   0  0  0  0  0  0  0  0  0  0  0  0
   -1.6910    1.6703    0.0000 C   0  0  0  0  0  0  0  0  0  0  0  0
   -2.8458    0.8317    0.0000 C   0  0  0  0  0  0  0  0  0  0  0  0
    1.5535    0.8455    0.0000 C   0  0  0  0  0  0  0  0  0  0  0  0
   -2.5159    1.5879    0.0000 C   0  0  0  0  0  0  0  0  0  0  0  0
    1.4160   -0.5980    0.0000 C   0  0  0  0  0  0  0  0  0  0  0  0
    2.3647    0.7630    0.0000 C   0  0  0  0  0  0  0  0  0  0  0  0
  1  5  1  0  0  0  0
  1  9  1  0  0  0  0
  2  6  1  0  0  0  0
  2  9  2  0  0  0  0
  3  8  1  0  0  0  0
  3 14  1  0  0  0  0
  3 16  1  0  0  0  0
  4 17  1  0  0  0  0
  5  6  2  0  0  0  0
  5  7  1  0  0  0  0
  6  8  1  0  0  0  0
  7 10  2  0  0  0  0
  7 11  1  0  0  0  0
 10 12  1  0  0  0  0
 11 13  2  0  0  0  0
 12 15  2  0  0  0  0
 13 15  1  0  0  0  0
 14 17  1  0  0  0  0
M  END
> <PUBCHEM_COMPOUND_ID_TYPE>
0

> <PUBCHEM_TOTAL_CHARGE>
0

> <PUBCHEM_SUBSTANCE_ID>
310945577

> <PUBCHEM_SUBSTANCE_VERSION>
1

> <PUBCHEM_EXT_DATASOURCE_NAME>
4488

> <PUBCHEM_EXT_DATASOURCE_REGID>
SCHEMBL16123675

> <PUBCHEM_SUBSTANCE_COMMENT>
InChI=1S/C13H18N4/c1-17(8-7-14)9-12-13(16-10-15-12)11-5-3-2-4-6-11/h2-6,10H,7-9,14H2,1H3,(H,15,16)
InChIKey=IWFJHMQPIPCPNL-UHFFFAOYSA-N

> <PUBCHEM_SUBSTANCE_SYNONYM>
SCHEMBL16123675

> <PUBCHEM_XREF_EXT_ID>
SCHEMBL16123675

> <PUBCHEM_EXT_DATASOURCE_URL>
https://www.surechembl.org/

> <PUBCHEM_EXT_SUBSTANCE_URL>
https://www.surechembl.org/chemical/SCHEMBL16123675

> <PUBCHEM_CID_ASSOCIATIONS>
117611605  1

> <PUBCHEM_COORDINATE_TYPE>
1
3

$$$$
