310946454
  -OEChem-07211613022D

 14 13  0     1  0  0  0  0  0999 V2000
   -1.4289  -15.3708    0.0000 O   0  0  0  0  0  0  0  0  0  0  0  0
   -2.1434  -16.6083    0.0000 O   0  0  0  0  0  0  0  0  0  0  0  0
   -3.5724  -14.1333    0.0000 O   0  0  0  0  0  0  0  0  0  0  0  0
   -3.5724  -15.7833    0.0000 N   0  0  0  0  0  0  0  0  0  0  0  0
    0.7145  -15.7833    0.0000 N   0  0  0  0  0  0  0  0  0  0  0  0
   -2.8579  -15.3708    0.0000 C   0  0  3  0  0  0  0  0  0  0  0  0
   -2.1434  -15.7833    0.0000 C   0  0  0  0  0  0  0  0  0  0  0  0
   -2.8579  -14.5458    0.0000 C   0  0  3  0  0  0  0  0  0  0  0  0
   -0.7145  -15.7833    0.0000 C   0  0  0  0  0  0  0  0  0  0  0  0
   -2.1434  -14.1333    0.0000 C   0  0  0  0  0  0  0  0  0  0  0  0
    0.0000  -15.3708    0.0000 C   0  0  0  0  0  0  0  0  0  0  0  0
    1.4289  -15.3708    0.0000 C   0  0  0  0  0  0  0  0  0  0  0  0
    2.1434  -15.7833    0.0000 C   0  0  0  0  0  0  0  0  0  0  0  0
    2.8579  -15.3708    0.0000 C   0  0  0  0  0  0  0  0  0  0  0  0
  1  7  1  0  0  0  0
  1  9  1  0  0  0  0
  2  7  2  0  0  0  0
  3  8  1  0  0  0  0
  4  6  1  0  0  0  0
  5 11  1  0  0  0  0
  5 12  1  0  0  0  0
  6  7  1  0  0  0  0
  6  8  1  0  0  0  0
  8 10  1  0  0  0  0
  9 11  1  0  0  0  0
 12 13  1  0  0  0  0
 13 14  1  0  0  0  0
M  END
> <PUBCHEM_COMPOUND_ID_TYPE>
0

> <PUBCHEM_TOTAL_CHARGE>
0

> <PUBCHEM_SUBSTANCE_ID>
310946454

> <PUBCHEM_SUBSTANCE_VERSION>
1

> <PUBCHEM_EXT_DATASOURCE_NAME>
4488

> <PUBCHEM_EXT_DATASOURCE_REGID>
SCHEMBL16124575

> <PUBCHEM_SUBSTANCE_COMMENT>
InChI=1S/C9H20N2O3/c1-3-4-11-5-6-14-9(13)8(10)7(2)12/h7-8,11-12H,3-6,10H2,1-2H3
InChIKey=AEIFOBKLPKDPRQ-UHFFFAOYSA-N

> <PUBCHEM_SUBSTANCE_SYNONYM>
SCHEMBL16124575

> <PUBCHEM_XREF_EXT_ID>
SCHEMBL16124575

> <PUBCHEM_EXT_DATASOURCE_URL>
https://www.surechembl.org/

> <PUBCHEM_EXT_SUBSTANCE_URL>
https://www.surechembl.org/chemical/SCHEMBL16124575

> <PUBCHEM_CID_ASSOCIATIONS>
117612365  1

> <PUBCHEM_COORDINATE_TYPE>
1
3

$$$$
