310935005
  -OEChem-07211613022D

 12 13  0     1  0  0  0  0  0999 V2000
    0.0000   -2.7808    0.0000 O   0  0  0  0  0  0  0  0  0  0  0  0
    2.4660   -1.3467    0.0000 N   0  0  0  0  0  0  0  0  0  0  0  0
    2.6233    0.0000    0.0000 N   0  0  0  0  0  0  0  0  0  0  0  0
    1.2417   -3.4978    0.0000 N   0  0  0  0  0  0  0  0  0  0  0  0
    2.0637   -0.6296    0.0000 C   0  0  0  0  0  0  0  0  0  0  0  0
    1.2417   -2.0637    0.0000 C   0  0  3  0  0  0  0  0  0  0  0  0
    2.0637   -2.0637    0.0000 C   0  0  0  0  0  0  0  0  0  0  0  0
    1.2417   -0.6296    0.0000 C   0  0  0  0  0  0  0  0  0  0  0  0
    0.8220   -1.3467    0.0000 C   0  0  0  0  0  0  0  0  0  0  0  0
    3.3054   -1.1543    0.0000 C   0  0  0  0  0  0  0  0  0  0  0  0
    0.8220   -2.7808    0.0000 C   0  0  0  0  0  0  0  0  0  0  0  0
    3.3754   -0.3323    0.0000 C   0  0  0  0  0  0  0  0  0  0  0  0
  1 11  2  0  0  0  0
  2  5  1  0  0  0  0
  2  7  1  0  0  0  0
  2 10  1  0  0  0  0
  3  5  2  0  0  0  0
  3 12  1  0  0  0  0
  4 11  1  0  0  0  0
  5  8  1  0  0  0  0
  6  7  1  0  0  0  0
  6  9  1  0  0  0  0
  6 11  1  0  0  0  0
  8  9  1  0  0  0  0
 10 12  2  0  0  0  0
M  END
> <PUBCHEM_COMPOUND_ID_TYPE>
0

> <PUBCHEM_TOTAL_CHARGE>
0

> <PUBCHEM_SUBSTANCE_ID>
310935005

> <PUBCHEM_SUBSTANCE_VERSION>
1

> <PUBCHEM_EXT_DATASOURCE_NAME>
4488

> <PUBCHEM_EXT_DATASOURCE_REGID>
SCHEMBL16112524

> <PUBCHEM_SUBSTANCE_COMMENT>
InChI=1S/C8H11N3O/c9-8(12)6-1-2-7-10-3-4-11(7)5-6/h3-4,6H,1-2,5H2,(H2,9,12)
InChIKey=BXHYFINDJAQIKZ-UHFFFAOYSA-N

> <PUBCHEM_SUBSTANCE_SYNONYM>
SCHEMBL16112524

> <PUBCHEM_XREF_EXT_ID>
SCHEMBL16112524

> <PUBCHEM_EXT_DATASOURCE_URL>
https://www.surechembl.org/

> <PUBCHEM_EXT_SUBSTANCE_URL>
https://www.surechembl.org/chemical/SCHEMBL16112524

> <PUBCHEM_CID_ASSOCIATIONS>
117603118  1

> <PUBCHEM_COORDINATE_TYPE>
1
3

$$$$
