310944679
  -OEChem-07211613022D

 26 28  0     1  0  0  0  0  0999 V2000
   -4.1059    1.6721    0.0000 Cl  0  0  0  0  0  0  0  0  0  0  0  0
   -4.1059    0.0247    0.0000 Cl  0  0  0  0  0  0  0  0  0  0  0  0
    0.3406    2.5019    0.0000 O   0  0  0  0  0  0  0  0  0  0  0  0
    4.0687   -0.8918    0.0000 O   0  0  0  0  0  0  0  0  0  0  0  0
   -1.0838    0.0247    0.0000 O   0  0  0  0  0  0  0  0  0  0  0  0
    1.0714    1.2633    0.0000 N   0  0  0  0  0  0  0  0  0  0  0  0
    2.6568   -0.8918    0.0000 N   0  0  0  0  0  0  0  0  0  0  0  0
   -1.0714    1.6845    0.0000 N   0  0  0  0  0  0  0  0  0  0  0  0
    1.8641    0.1858    0.0000 C   0  0  3  0  0  0  0  0  0  0  0  0
    1.0838    0.4459    0.0000 C   0  0  0  0  0  0  0  0  0  0  0  0
    2.6444   -0.0620    0.0000 C   0  0  0  0  0  0  0  0  0  0  0  0
    2.3471    0.8670    0.0000 C   0  0  0  0  0  0  0  0  0  0  0  0
    1.3810   -0.4830    0.0000 C   0  0  0  0  0  0  0  0  0  0  0  0
    1.8641    1.5235    0.0000 C   0  0  0  0  0  0  0  0  0  0  0  0
    1.8765   -1.1518    0.0000 C   0  0  0  0  0  0  0  0  0  0  0  0
    0.3406    1.6721    0.0000 C   0  0  0  0  0  0  0  0  0  0  0  0
    3.3627   -1.3129    0.0000 C   0  0  0  0  0  0  0  0  0  0  0  0
   -1.7897    1.2757    0.0000 C   0  0  0  0  0  0  0  0  0  0  0  0
   -0.3530    1.2757    0.0000 C   0  0  0  0  0  0  0  0  0  0  0  0
   -1.8021    0.4459    0.0000 C   0  0  0  0  0  0  0  0  0  0  0  0
   -3.2141    1.2757    0.0000 C   0  0  0  0  0  0  0  0  0  0  0  0
   -2.4957    1.6721    0.0000 C   0  0  0  0  0  0  0  0  0  0  0  0
   -3.2265    0.4459    0.0000 C   0  0  0  0  0  0  0  0  0  0  0  0
   -2.4957    0.0371    0.0000 C   0  0  0  0  0  0  0  0  0  0  0  0
    3.3627   -2.1303    0.0000 C   0  0  0  0  0  0  0  0  0  0  0  0
    4.1059   -2.5019    0.0000 C   0  0  0  0  0  0  0  0  0  0  0  0
  1 21  1  0  0  0  0
  2 23  1  0  0  0  0
  3 16  2  0  0  0  0
  4 17  2  0  0  0  0
  5 20  1  0  0  0  0
  6 10  1  0  0  0  0
  6 14  1  0  0  0  0
  6 16  1  0  0  0  0
  7 11  1  0  0  0  0
  7 15  1  0  0  0  0
  7 17  1  0  0  0  0
  8 18  1  0  0  0  0
  8 19  1  0  0  0  0
  9 10  1  0  0  0  0
  9 11  1  0  0  0  0
  9 12  1  0  0  0  0
  9 13  1  0  0  0  0
 12 14  1  0  0  0  0
 13 15  1  0  0  0  0
 16 19  1  0  0  0  0
 17 25  1  0  0  0  0
 18 20  1  0  0  0  0
 18 22  2  0  0  0  0
 20 24  2  0  0  0  0
 21 22  1  0  0  0  0
 21 23  2  0  0  0  0
 23 24  1  0  0  0  0
 25 26  2  0  0  0  0
M  END
> <PUBCHEM_COMPOUND_ID_TYPE>
0

> <PUBCHEM_TOTAL_CHARGE>
0

> <PUBCHEM_SUBSTANCE_ID>
310944679

> <PUBCHEM_SUBSTANCE_VERSION>
1

> <PUBCHEM_EXT_DATASOURCE_NAME>
4488

> <PUBCHEM_EXT_DATASOURCE_REGID>
SCHEMBL16122758

> <PUBCHEM_SUBSTANCE_COMMENT>
InChI=1S/C18H21Cl2N3O3/c1-2-16(25)22-5-3-18(10-22)4-6-23(11-18)17(26)9-21-14-7-12(19)13(20)8-15(14)24/h2,7-8,21,24H,1,3-6,9-11H2
InChIKey=NGBGVBSZKMOBFE-UHFFFAOYSA-N

> <PUBCHEM_SUBSTANCE_SYNONYM>
SCHEMBL16122758

> <PUBCHEM_XREF_EXT_ID>
SCHEMBL16122758

> <PUBCHEM_EXT_DATASOURCE_URL>
https://www.surechembl.org/

> <PUBCHEM_EXT_SUBSTANCE_URL>
https://www.surechembl.org/chemical/SCHEMBL16122758

> <PUBCHEM_CID_ASSOCIATIONS>
117610905  1

> <PUBCHEM_COORDINATE_TYPE>
1
3

$$$$
