310947192
  -OEChem-07211613022D

 27 32  0     1  0  0  0  0  0999 V2000
   -2.2996   -1.8349    0.0000 O   0  0  0  0  0  0  0  0  0  0  0  0
   -3.4534   -1.1778    0.0000 O   0  0  0  0  0  0  0  0  0  0  0  0
    2.9727    0.3766    0.0000 O   0  0  0  0  0  0  0  0  0  0  0  0
    2.9727    1.7227    0.0000 O   0  0  0  0  0  0  0  0  0  0  0  0
    0.0080   -0.5849    0.0000 N   0  0  3  0  0  0  0  0  0  0  0  0
    0.0080    0.2644    0.0000 C   0  0  0  0  0  0  0  0  0  0  0  0
   -0.6971    0.6490    0.0000 C   0  0  0  0  0  0  0  0  0  0  0  0
   -1.4022    0.2484    0.0000 C   0  0  0  0  0  0  0  0  0  0  0  0
    0.7291    0.6650    0.0000 C   0  0  0  0  0  0  0  0  0  0  0  0
   -1.4182   -0.5689    0.0000 C   0  0  0  0  0  0  0  0  0  0  0  0
    0.7451    1.4823    0.0000 C   0  0  0  0  0  0  0  0  0  0  0  0
   -2.1234   -0.9855    0.0000 C   0  0  0  0  0  0  0  0  0  0  0  0
   -0.6650   -1.0016    0.0000 C   0  0  0  0  0  0  0  0  0  0  0  0
   -2.8605   -0.5849    0.0000 C   0  0  0  0  0  0  0  0  0  0  0  0
   -0.6810    1.4823    0.0000 C   0  0  0  0  0  0  0  0  0  0  0  0
    1.4663    0.2484    0.0000 C   0  0  0  0  0  0  0  0  0  0  0  0
    2.1714    0.6650    0.0000 C   0  0  0  0  0  0  0  0  0  0  0  0
   -2.1394    0.6330    0.0000 C   0  0  0  0  0  0  0  0  0  0  0  0
    2.1875    1.4823    0.0000 C   0  0  0  0  0  0  0  0  0  0  0  0
    0.0080    1.8830    0.0000 C   0  0  0  0  0  0  0  0  0  0  0  0
    1.4663    1.8830    0.0000 C   0  0  0  0  0  0  0  0  0  0  0  0
   -2.8445    0.2484    0.0000 C   0  0  0  0  0  0  0  0  0  0  0  0
    0.7451   -1.0016    0.0000 C   0  0  0  0  0  0  0  0  0  0  0  0
   -3.1490   -1.8830    0.0000 C   0  0  0  0  0  0  0  0  0  0  0  0
    3.4534    1.0817    0.0000 C   0  0  0  0  0  0  0  0  0  0  0  0
    1.4663   -0.5849    0.0000 C   0  0  0  0  0  0  0  0  0  0  0  0
    2.2035   -1.0016    0.0000 C   0  0  0  0  0  0  0  0  0  0  0  0
  1 12  1  0  0  0  0
  1 24  1  0  0  0  0
  2 14  1  0  0  0  0
  2 24  1  0  0  0  0
  3 17  1  0  0  0  0
  3 25  1  0  0  0  0
  4 19  1  0  0  0  0
  4 25  1  0  0  0  0
  5  6  1  0  0  0  0
  5 13  1  0  0  0  0
  5 23  1  0  0  0  0
  6  7  2  0  0  0  0
  6  9  1  0  0  0  0
  7  8  1  0  0  0  0
  7 15  1  0  0  0  0
  8 10  1  0  0  0  0
  8 18  2  0  0  0  0
  9 11  2  0  0  0  0
  9 16  1  0  0  0  0
 10 12  2  0  0  0  0
 10 13  1  0  0  0  0
 11 20  1  0  0  0  0
 11 21  1  0  0  0  0
 12 14  1  0  0  0  0
 14 22  2  0  0  0  0
 15 20  2  0  0  0  0
 16 17  2  0  0  0  0
 17 19  1  0  0  0  0
 18 22  1  0  0  0  0
 19 21  2  0  0  0  0
 23 26  1  0  0  0  0
 26 27  1  0  0  0  0
M  END
> <PUBCHEM_COMPOUND_ID_TYPE>
0

> <PUBCHEM_TOTAL_CHARGE>
0

> <PUBCHEM_SUBSTANCE_ID>
310947192

> <PUBCHEM_SUBSTANCE_VERSION>
1

> <PUBCHEM_EXT_DATASOURCE_NAME>
4488

> <PUBCHEM_EXT_DATASOURCE_REGID>
SCHEMBL16125346

> <PUBCHEM_SUBSTANCE_COMMENT>
InChI=1S/C22H19NO4/c1-2-7-23-10-17-14(5-6-18-22(17)27-12-24-18)15-4-3-13-8-19-20(26-11-25-19)9-16(13)21(15)23/h3-6,8-9H,2,7,10-12H2,1H3
InChIKey=AATKEMTZOIYBEF-UHFFFAOYSA-N

> <PUBCHEM_SUBSTANCE_SYNONYM>
SCHEMBL16125346

> <PUBCHEM_XREF_EXT_ID>
SCHEMBL16125346

> <PUBCHEM_EXT_DATASOURCE_URL>
https://www.surechembl.org/

> <PUBCHEM_EXT_SUBSTANCE_URL>
https://www.surechembl.org/chemical/SCHEMBL16125346

> <PUBCHEM_CID_ASSOCIATIONS>
117613015  1

> <PUBCHEM_COORDINATE_TYPE>
1
3

$$$$
