310943093
  -OEChem-07211613022D

 28 29  0     1  0  0  0  0  0999 V2000
    1.3174    0.6061    0.0000 S   0  0  0  0  0  0  0  0  0  0  0  0
   -3.4219   -0.6482    0.0000 F   0  0  0  0  0  0  0  0  0  0  0  0
   -3.4978    0.4967    0.0000 F   0  0  0  0  0  0  0  0  0  0  0  0
   -2.3529    0.5556    0.0000 F   0  0  0  0  0  0  0  0  0  0  0  0
   -1.4774   -1.4143    0.0000 F   0  0  0  0  0  0  0  0  0  0  0  0
   -2.2855   -2.2308    0.0000 F   0  0  0  0  0  0  0  0  0  0  0  0
   -3.0937   -1.4143    0.0000 F   0  0  0  0  0  0  0  0  0  0  0  0
   -2.9927   -1.0186    0.0000 O   0  0  0  0  0  0  0  0  0  0  0  0
    1.3174   -0.2189    0.0000 O   0  0  0  0  0  0  0  0  0  0  0  0
    1.3259    1.4311    0.0000 O   0  0  0  0  0  0  0  0  0  0  0  0
    0.6104    1.0271    0.0000 N   0  0  3  0  0  0  0  0  0  0  0  0
   -2.2855   -0.5892    0.0000 C   0  0  0  0  0  0  0  0  0  0  0  0
   -2.2940   -1.4143    0.0000 C   0  0  0  0  0  0  0  0  0  0  0  0
   -2.8916   -0.0337    0.0000 C   0  0  0  0  0  0  0  0  0  0  0  0
   -1.5616   -0.1852    0.0000 C   0  0  0  0  0  0  0  0  0  0  0  0
   -0.1052    0.6229    0.0000 C   0  0  0  0  0  0  0  0  0  0  0  0
   -1.5448    0.6397    0.0000 C   0  0  0  0  0  0  0  0  0  0  0  0
   -0.8207   -0.5977    0.0000 C   0  0  0  0  0  0  0  0  0  0  0  0
    2.0498    1.0186    0.0000 C   0  0  0  0  0  0  0  0  0  0  0  0
   -0.8124    1.0354    0.0000 C   0  0  0  0  0  0  0  0  0  0  0  0
   -0.1220   -0.2020    0.0000 C   0  0  0  0  0  0  0  0  0  0  0  0
    2.7654    0.5977    0.0000 C   0  0  0  0  0  0  0  0  0  0  0  0
    2.0667    1.8268    0.0000 C   0  0  0  0  0  0  0  0  0  0  0  0
    0.6187    1.8436    0.0000 C   0  0  0  0  0  0  0  0  0  0  0  0
    3.4809    0.9934    0.0000 C   0  0  0  0  0  0  0  0  0  0  0  0
    2.7822    2.2308    0.0000 C   0  0  0  0  0  0  0  0  0  0  0  0
    3.4978    1.8099    0.0000 C   0  0  0  0  0  0  0  0  0  0  0  0
    2.7569   -0.2273    0.0000 C   0  0  0  0  0  0  0  0  0  0  0  0
  1  9  2  0  0  0  0
  1 10  2  0  0  0  0
  1 11  1  0  0  0  0
  1 19  1  0  0  0  0
  2 14  1  0  0  0  0
  3 14  1  0  0  0  0
  4 14  1  0  0  0  0
  5 13  1  0  0  0  0
  6 13  1  0  0  0  0
  7 13  1  0  0  0  0
  8 12  1  0  0  0  0
 11 16  1  0  0  0  0
 11 24  1  0  0  0  0
 12 13  1  0  0  0  0
 12 14  1  0  0  0  0
 12 15  1  0  0  0  0
 15 17  2  0  0  0  0
 15 18  1  0  0  0  0
 16 20  2  0  0  0  0
 16 21  1  0  0  0  0
 17 20  1  0  0  0  0
 18 21  2  0  0  0  0
 19 22  2  0  0  0  0
 19 23  1  0  0  0  0
 22 25  1  0  0  0  0
 22 28  1  0  0  0  0
 23 26  2  0  0  0  0
 25 27  2  0  0  0  0
 26 27  1  0  0  0  0
M  END
> <PUBCHEM_COMPOUND_ID_TYPE>
0

> <PUBCHEM_TOTAL_CHARGE>
0

> <PUBCHEM_SUBSTANCE_ID>
310943093

> <PUBCHEM_SUBSTANCE_VERSION>
1

> <PUBCHEM_EXT_DATASOURCE_NAME>
4488

> <PUBCHEM_EXT_DATASOURCE_REGID>
SCHEMBL16121152

> <PUBCHEM_SUBSTANCE_COMMENT>
InChI=1S/C17H15F6NO3S/c1-11-5-3-4-6-14(11)28(26,27)24(2)13-9-7-12(8-10-13)15(25,16(18,19)20)17(21,22)23/h3-10,25H,1-2H3
InChIKey=UZEWOSPCORJBPV-UHFFFAOYSA-N

> <PUBCHEM_SUBSTANCE_SYNONYM>
SCHEMBL16121152

> <PUBCHEM_XREF_EXT_ID>
SCHEMBL16121152

> <PUBCHEM_EXT_DATASOURCE_URL>
https://www.surechembl.org/

> <PUBCHEM_EXT_SUBSTANCE_URL>
https://www.surechembl.org/chemical/SCHEMBL16121152

> <PUBCHEM_CID_ASSOCIATIONS>
117609524  1

> <PUBCHEM_COORDINATE_TYPE>
1
3

$$$$
