310946795
  -OEChem-07211613022D

 16 17  0     1  0  0  0  0  0999 V2000
   -2.0660   -9.6765    0.0000 O   0  0  0  0  0  0  0  0  0  0  0  0
   -2.3430  -12.4756    0.0000 N   0  0  0  0  0  0  0  0  0  0  0  0
   -1.8581  -13.1431    0.0000 N   0  0  0  0  0  0  0  0  0  0  0  0
    0.3554  -12.0631    0.0000 N   0  0  3  0  0  0  0  0  0  0  0  0
   -1.8581  -11.8082    0.0000 C   0  0  0  0  0  0  0  0  0  0  0  0
   -1.0735  -12.0631    0.0000 C   0  0  0  0  0  0  0  0  0  0  0  0
   -2.0716  -11.0113    0.0000 C   0  0  0  0  0  0  0  0  0  0  0  0
   -1.0735  -12.8881    0.0000 C   0  0  0  0  0  0  0  0  0  0  0  0
   -0.3590  -11.6506    0.0000 C   0  0  0  0  0  0  0  0  0  0  0  0
   -1.5839  -10.3459    0.0000 C   0  0  0  0  0  0  0  0  0  0  0  0
   -2.8552  -10.7531    0.0000 C   0  0  0  0  0  0  0  0  0  0  0  0
   -2.8517   -9.9281    0.0000 C   0  0  0  0  0  0  0  0  0  0  0  0
    1.0699  -11.6506    0.0000 C   0  0  0  0  0  0  0  0  0  0  0  0
    0.3554  -12.8881    0.0000 C   0  0  0  0  0  0  0  0  0  0  0  0
    1.7844  -12.0631    0.0000 C   0  0  0  0  0  0  0  0  0  0  0  0
    2.4989  -11.6506    0.0000 C   0  0  0  0  0  0  0  0  0  0  0  0
  1 10  1  0  0  0  0
  1 12  1  0  0  0  0
  2  3  1  0  0  0  0
  2  5  2  0  0  0  0
  3  8  1  0  0  0  0
  4  9  1  0  0  0  0
  4 13  1  0  0  0  0
  4 14  1  0  0  0  0
  5  6  1  0  0  0  0
  5  7  1  0  0  0  0
  6  8  2  0  0  0  0
  6  9  1  0  0  0  0
  7 10  2  0  0  0  0
  7 11  1  0  0  0  0
 11 12  2  0  0  0  0
 13 15  1  0  0  0  0
 15 16  1  0  0  0  0
M  END
> <PUBCHEM_COMPOUND_ID_TYPE>
0

> <PUBCHEM_TOTAL_CHARGE>
0

> <PUBCHEM_SUBSTANCE_ID>
310946795

> <PUBCHEM_SUBSTANCE_VERSION>
1

> <PUBCHEM_EXT_DATASOURCE_NAME>
4488

> <PUBCHEM_EXT_DATASOURCE_REGID>
SCHEMBL16124919

> <PUBCHEM_SUBSTANCE_COMMENT>
InChI=1S/C12H17N3O/c1-3-5-15(2)8-11-7-13-14-12(11)10-4-6-16-9-10/h4,6-7,9H,3,5,8H2,1-2H3,(H,13,14)
InChIKey=SUFFZBNJAOWIBT-UHFFFAOYSA-N

> <PUBCHEM_SUBSTANCE_SYNONYM>
SCHEMBL16124919

> <PUBCHEM_XREF_EXT_ID>
SCHEMBL16124919

> <PUBCHEM_EXT_DATASOURCE_URL>
https://www.surechembl.org/

> <PUBCHEM_EXT_SUBSTANCE_URL>
https://www.surechembl.org/chemical/SCHEMBL16124919

> <PUBCHEM_CID_ASSOCIATIONS>
117612656  1

> <PUBCHEM_COORDINATE_TYPE>
1
3

$$$$
