310940476
  -OEChem-07211613022D

 15 16  0     1  0  0  0  0  0999 V2000
    0.9698    0.3613    0.0000 N   0  0  3  0  0  0  0  0  0  0  0  0
   -0.4564   -1.3881    0.0000 N   0  0  0  0  0  0  0  0  0  0  0  0
   -1.2740   -1.2550    0.0000 N   0  0  0  0  0  0  0  0  0  0  0  0
   -0.6655   -0.0760    0.0000 C   0  0  0  0  0  0  0  0  0  0  0  0
   -0.0951   -0.6276    0.0000 C   0  0  0  0  0  0  0  0  0  0  0  0
   -1.4072   -0.4374    0.0000 C   0  0  0  0  0  0  0  0  0  0  0  0
    0.7225   -0.4374    0.0000 C   0  0  0  0  0  0  0  0  0  0  0  0
   -0.3994    0.7796    0.0000 C   0  0  0  0  0  0  0  0  0  0  0  0
   -2.0727    0.0190    0.0000 C   0  0  0  0  0  0  0  0  0  0  0  0
    0.3423    0.9507    0.0000 C   0  0  0  0  0  0  0  0  0  0  0  0
    1.7875    0.5705    0.0000 C   0  0  0  0  0  0  0  0  0  0  0  0
   -2.3579   -0.3042    0.0000 C   0  0  0  0  0  0  0  0  0  0  0  0
   -1.9016    0.4374    0.0000 C   0  0  0  0  0  0  0  0  0  0  0  0
    2.0727    1.3881    0.0000 C   0  0  0  0  0  0  0  0  0  0  0  0
    2.3579   -0.0760    0.0000 C   0  0  0  0  0  0  0  0  0  0  0  0
  1  7  1  0  0  0  0
  1 10  1  0  0  0  0
  1 11  1  0  0  0  0
  2  3  1  0  0  0  0
  2  5  1  0  0  0  0
  3  6  2  0  0  0  0
  4  5  2  0  0  0  0
  4  6  1  0  0  0  0
  4  8  1  0  0  0  0
  5  7  1  0  0  0  0
  6  9  1  0  0  0  0
  8 10  1  0  0  0  0
  9 12  1  0  0  0  0
  9 13  1  0  0  0  0
 11 14  1  0  0  0  0
 11 15  1  0  0  0  0
M  END
> <PUBCHEM_COMPOUND_ID_TYPE>
0

> <PUBCHEM_TOTAL_CHARGE>
0

> <PUBCHEM_SUBSTANCE_ID>
310940476

> <PUBCHEM_SUBSTANCE_VERSION>
1

> <PUBCHEM_EXT_DATASOURCE_NAME>
4488

> <PUBCHEM_EXT_DATASOURCE_REGID>
SCHEMBL16118429

> <PUBCHEM_SUBSTANCE_COMMENT>
InChI=1S/C12H21N3/c1-8(2)12-10-5-6-15(9(3)4)7-11(10)13-14-12/h8-9H,5-7H2,1-4H3,(H,13,14)
InChIKey=RAEBQWKAIIXBEI-UHFFFAOYSA-N

> <PUBCHEM_SUBSTANCE_SYNONYM>
SCHEMBL16118429

> <PUBCHEM_XREF_EXT_ID>
SCHEMBL16118429

> <PUBCHEM_EXT_DATASOURCE_URL>
https://www.surechembl.org/

> <PUBCHEM_EXT_SUBSTANCE_URL>
https://www.surechembl.org/chemical/SCHEMBL16118429

> <PUBCHEM_CID_ASSOCIATIONS>
68059063  1

> <PUBCHEM_COORDINATE_TYPE>
1
3

$$$$
