310937585
  -OEChem-07211613022D

 32 35  0     1  0  0  0  0  0999 V2000
   -0.5837    0.8085    0.0000 O   0  0  0  0  0  0  0  0  0  0  0  0
    4.0668    3.1729    0.0000 O   0  0  0  0  0  0  0  0  0  0  0  0
    6.2102    1.1104    0.0000 O   0  0  0  0  0  0  0  0  0  0  0  0
    5.6132    3.4655    0.0000 O   0  0  0  0  0  0  0  0  0  0  0  0
    6.5693    4.5274    0.0000 O   0  0  0  0  0  0  0  0  0  0  0  0
    1.1387    0.8555    0.0000 N   0  0  0  0  0  0  0  0  0  0  0  0
    7.0109    3.1684    0.0000 N   0  0  0  0  0  0  0  0  0  0  0  0
    5.4957    2.3479    0.0000 N   0  0  0  0  0  0  0  0  0  0  0  0
   -0.5837    2.2374    0.0000 N   0  0  0  0  0  0  0  0  0  0  0  0
   -1.4856    3.7056    0.0000 N   0  0  0  0  0  0  0  0  0  0  0  0
   -2.6417    3.0381    0.0000 N   0  0  0  0  0  0  0  0  0  0  0  0
   -2.0987    4.2576    0.0000 N   0  0  0  0  0  0  0  0  0  0  0  0
   -2.8132    3.8451    0.0000 N   0  0  0  0  0  0  0  0  0  0  0  0
    1.9233    1.9354    0.0000 C   0  0  0  0  0  0  0  0  0  0  0  0
    1.9233    1.1104    0.0000 C   0  0  0  0  0  0  0  0  0  0  0  0
    0.6538    1.5229    0.0000 C   0  0  3  0  0  0  0  0  0  0  0  0
    1.1387    2.1904    0.0000 C   0  0  0  0  0  0  0  0  0  0  0  0
    3.3523    1.9354    0.0000 C   0  0  0  0  0  0  0  0  0  0  0  0
    2.6378    2.3479    0.0000 C   0  0  0  0  0  0  0  0  0  0  0  0
    6.9246    2.3479    0.0000 C   0  0  3  0  0  0  0  0  0  0  0  0
    2.6378    0.6979    0.0000 C   0  0  0  0  0  0  0  0  0  0  0  0
   -0.1712    1.5229    0.0000 C   0  0  0  0  0  0  0  0  0  0  0  0
    4.0668    2.3479    0.0000 C   0  0  0  0  0  0  0  0  0  0  0  0
    3.3523    1.1104    0.0000 C   0  0  0  0  0  0  0  0  0  0  0  0
    6.2102    1.9354    0.0000 C   0  0  0  0  0  0  0  0  0  0  0  0
    7.6783    2.0124    0.0000 C   0  0  0  0  0  0  0  0  0  0  0  0
    7.8178    3.3400    0.0000 C   0  0  0  0  0  0  0  0  0  0  0  0
    6.3978    3.7205    0.0000 C   0  0  0  0  0  0  0  0  0  0  0  0
    4.7812    1.9354    0.0000 C   0  0  0  0  0  0  0  0  0  0  0  0
    8.2303    2.6255    0.0000 C   0  0  0  0  0  0  0  0  0  0  0  0
   -1.4087    2.2374    0.0000 C   0  0  0  0  0  0  0  0  0  0  0  0
   -1.8212    2.9519    0.0000 C   0  0  0  0  0  0  0  0  0  0  0  0
  1 22  2  0  0  0  0
  2 23  2  0  0  0  0
  3 25  2  0  0  0  0
  4 28  2  0  0  0  0
  5 28  1  0  0  0  0
  6 15  1  0  0  0  0
  6 16  1  0  0  0  0
  7 20  1  0  0  0  0
  7 27  1  0  0  0  0
  7 28  1  0  0  0  0
  8 25  1  0  0  0  0
  8 29  1  0  0  0  0
  9 22  1  0  0  0  0
  9 31  1  0  0  0  0
 10 12  2  0  0  0  0
 10 32  1  0  0  0  0
 11 13  1  0  0  0  0
 11 32  2  0  0  0  0
 12 13  1  0  0  0  0
 14 15  1  0  0  0  0
 14 17  1  0  0  0  0
 14 19  2  0  0  0  0
 15 21  2  0  0  0  0
 16 17  1  0  0  0  0
 16 22  1  0  0  0  0
 18 19  1  0  0  0  0
 18 23  1  0  0  0  0
 18 24  2  0  0  0  0
 20 25  1  0  0  0  0
 20 26  1  0  0  0  0
 21 24  1  0  0  0  0
 23 29  1  0  0  0  0
 26 30  1  0  0  0  0
 27 30  1  0  0  0  0
 31 32  1  0  0  0  0
M  END
> <PUBCHEM_COMPOUND_ID_TYPE>
0

> <PUBCHEM_TOTAL_CHARGE>
0

> <PUBCHEM_SUBSTANCE_ID>
310937585

> <PUBCHEM_SUBSTANCE_VERSION>
1

> <PUBCHEM_EXT_DATASOURCE_NAME>
4488

> <PUBCHEM_EXT_DATASOURCE_REGID>
SCHEMBL16115365

> <PUBCHEM_SUBSTANCE_COMMENT>
InChI=1S/C19H22N8O5/c28-15(8-20-18(30)14-2-1-5-27(14)19(31)32)10-3-4-12-11(6-10)7-13(22-12)17(29)21-9-16-23-25-26-24-16/h3-4,6,13-14,22H,1-2,5,7-9H2,(H,20,30)(H,21,29)(H,31,32)(H,23,24,25,26)
InChIKey=HLJHVYYKWIZBAI-UHFFFAOYSA-N

> <PUBCHEM_SUBSTANCE_SYNONYM>
SCHEMBL16115365

> <PUBCHEM_XREF_EXT_ID>
SCHEMBL16115365

> <PUBCHEM_EXT_DATASOURCE_URL>
https://www.surechembl.org/

> <PUBCHEM_EXT_SUBSTANCE_URL>
https://www.surechembl.org/chemical/SCHEMBL16115365

> <PUBCHEM_CID_ASSOCIATIONS>
117605294  1

> <PUBCHEM_COORDINATE_TYPE>
1
3

$$$$
