310937696
  -OEChem-07211613022D

 19 21  0     1  0  0  0  0  0999 V2000
    0.4999   -0.1173    0.0000 N   0  0  0  0  0  0  0  0  0  0  0  0
    4.0902   -2.3141    0.0000 N   0  0  0  0  0  0  0  0  0  0  0  0
    1.4755   -2.8748    0.0000 N   0  0  0  0  0  0  0  0  0  0  0  0
    2.1275   -1.3591    0.0000 C   0  0  0  0  0  0  0  0  0  0  0  0
    2.9466   -1.4573    0.0000 C   0  0  0  0  0  0  0  0  0  0  0  0
    1.9893   -0.5417    0.0000 C   0  0  0  0  0  0  0  0  0  0  0  0
    1.6113   -0.9304    0.0000 C   0  0  0  0  0  0  0  0  0  0  0  0
    1.0605   -0.5572    0.0000 C   0  0  3  0  0  0  0  0  0  0  0  0
    0.6396   -0.9304    0.0000 C   0  0  3  0  0  0  0  0  0  0  0  0
    1.8015   -2.1170    0.0000 C   0  0  0  0  0  0  0  0  0  0  0  0
    3.4413   -0.7971    0.0000 C   0  0  0  0  0  0  0  0  0  0  0  0
    0.7400   -1.2658    0.0000 C   0  0  0  0  0  0  0  0  0  0  0  0
    0.1197   -1.6427    0.0000 C   0  0  0  0  0  0  0  0  0  0  0  0
    3.2711   -2.2158    0.0000 C   0  0  0  0  0  0  0  0  0  0  0  0
    4.2604   -0.8953    0.0000 C   0  0  0  0  0  0  0  0  0  0  0  0
    4.5849   -1.6538    0.0000 C   0  0  0  0  0  0  0  0  0  0  0  0
    4.7550   -0.2350    0.0000 C   0  0  0  0  0  0  0  0  0  0  0  0
    5.2497    0.4252    0.0000 C   0  0  0  0  0  0  0  0  0  0  0  0
    5.7443    1.0855    0.0000 C   0  0  0  0  0  0  0  0  0  0  0  0
  1  8  1  0  0  0  0
  1  9  1  0  0  0  0
  2 14  2  0  0  0  0
  2 16  1  0  0  0  0
  3 10  3  0  0  0  0
  4  5  1  0  0  0  0
  4  6  1  0  0  0  0
  4  7  1  0  0  0  0
  4 10  1  6  0  0  0
  5 11  2  0  0  0  0
  5 14  1  0  0  0  0
  8  6  1  1  0  0  0
  9  7  1  6  0  0  0
  8 12  1  0  0  0  0
  9 13  1  0  0  0  0
 11 15  1  0  0  0  0
 12 13  1  0  0  0  0
 15 16  2  0  0  0  0
 15 17  1  0  0  0  0
 17 18  3  0  0  0  0
 18 19  1  0  0  0  0
M  END
> <PUBCHEM_COMPOUND_ID_TYPE>
0

> <PUBCHEM_TOTAL_CHARGE>
0

> <PUBCHEM_SUBSTANCE_ID>
310937696

> <PUBCHEM_SUBSTANCE_VERSION>
1

> <PUBCHEM_EXT_DATASOURCE_NAME>
4488

> <PUBCHEM_EXT_DATASOURCE_REGID>
SCHEMBL16115489

> <PUBCHEM_SUBSTANCE_COMMENT>
InChI=1S/C16H17N3/c1-2-3-12-6-13(10-18-9-12)16(11-17)7-14-4-5-15(8-16)19-14/h6,9-10,14-15,19H,4-5,7-8H2,1H3/t14-,15+,16-
InChIKey=NLIHWOOIRAYUEZ-MUJYYYPQSA-N

> <PUBCHEM_SUBSTANCE_SYNONYM>
SCHEMBL16115489

> <PUBCHEM_XREF_EXT_ID>
SCHEMBL16115489

> <PUBCHEM_EXT_DATASOURCE_URL>
https://www.surechembl.org/

> <PUBCHEM_EXT_SUBSTANCE_URL>
https://www.surechembl.org/chemical/SCHEMBL16115489

> <PUBCHEM_CID_ASSOCIATIONS>
117605377  1

> <PUBCHEM_COORDINATE_TYPE>
1
3

> <PUBCHEM_BONDANNOTATIONS>
4  10  6
8  6  5
9  7  6

$$$$
