310938230
  -OEChem-07211613022D

 31 34  0     1  0  0  0  0  0999 V2000
   -1.0547    0.3500    0.0000 F   0  0  0  0  0  0  0  0  0  0  0  0
    2.0367    1.0527    0.0000 O   0  0  0  0  0  0  0  0  0  0  0  0
    4.8946    4.3527    0.0000 O   0  0  0  0  0  0  0  0  0  0  0  0
    3.4186   -0.6697    0.0000 N   0  0  0  0  0  0  0  0  0  0  0  0
    3.1637   -1.4544    0.0000 N   0  0  0  0  0  0  0  0  0  0  0  0
    3.4656    1.8777    0.0000 N   0  0  0  0  0  0  0  0  0  0  0  0
    2.7512   -0.1848    0.0000 C   0  0  0  0  0  0  0  0  0  0  0  0
    2.0837   -0.6697    0.0000 C   0  0  0  0  0  0  0  0  0  0  0  0
    2.7512    0.6402    0.0000 C   0  0  0  0  0  0  0  0  0  0  0  0
    3.4656    1.0527    0.0000 C   0  0  3  0  0  0  0  0  0  0  0  0
    1.2991   -0.4148    0.0000 C   0  0  0  0  0  0  0  0  0  0  0  0
    2.3387   -1.4544    0.0000 C   0  0  0  0  0  0  0  0  0  0  0  0
    4.1801    0.6402    0.0000 C   0  0  0  0  0  0  0  0  0  0  0  0
    0.6860   -0.9668    0.0000 C   0  0  0  0  0  0  0  0  0  0  0  0
    1.1276    0.3922    0.0000 C   0  0  0  0  0  0  0  0  0  0  0  0
    4.1801    2.2902    0.0000 C   0  0  0  0  0  0  0  0  0  0  0  0
    4.8946    1.0527    0.0000 C   0  0  0  0  0  0  0  0  0  0  0  0
    4.1801   -0.1848    0.0000 C   0  0  0  0  0  0  0  0  0  0  0  0
   -0.0986   -0.7119    0.0000 C   0  0  0  0  0  0  0  0  0  0  0  0
    0.3430    0.6471    0.0000 C   0  0  0  0  0  0  0  0  0  0  0  0
   -0.2701    0.0951    0.0000 C   0  0  0  0  0  0  0  0  0  0  0  0
    3.6486   -2.1218    0.0000 C   0  0  0  0  0  0  0  0  0  0  0  0
    4.1801    3.1152    0.0000 C   0  0  0  0  0  0  0  0  0  0  0  0
    4.8946    1.8777    0.0000 C   0  0  0  0  0  0  0  0  0  0  0  0
    4.8946    3.5277    0.0000 C   0  0  0  0  0  0  0  0  0  0  0  0
    5.6091    0.6402    0.0000 C   0  0  0  0  0  0  0  0  0  0  0  0
    4.8946   -0.5973    0.0000 C   0  0  0  0  0  0  0  0  0  0  0  0
    5.6091    2.2902    0.0000 C   0  0  0  0  0  0  0  0  0  0  0  0
    5.6091    3.1152    0.0000 C   0  0  0  0  0  0  0  0  0  0  0  0
    5.6091   -0.1848    0.0000 C   0  0  0  0  0  0  0  0  0  0  0  0
    5.6091    4.7652    0.0000 C   0  0  0  0  0  0  0  0  0  0  0  0
  1 21  1  0  0  0  0
  2  9  2  0  0  0  0
  3 25  1  0  0  0  0
  3 31  1  0  0  0  0
  4  5  1  0  0  0  0
  4  7  2  0  0  0  0
  5 12  1  0  0  0  0
  5 22  1  0  0  0  0
  6 10  1  0  0  0  0
  6 16  1  0  0  0  0
  7  8  1  0  0  0  0
  7  9  1  0  0  0  0
  8 11  1  0  0  0  0
  8 12  2  0  0  0  0
  9 10  1  0  0  0  0
 10 13  1  0  0  0  0
 11 14  2  0  0  0  0
 11 15  1  0  0  0  0
 13 17  2  0  0  0  0
 13 18  1  0  0  0  0
 14 19  1  0  0  0  0
 15 20  2  0  0  0  0
 16 23  2  0  0  0  0
 16 24  1  0  0  0  0
 17 26  1  0  0  0  0
 18 27  2  0  0  0  0
 19 21  2  0  0  0  0
 20 21  1  0  0  0  0
 23 25  1  0  0  0  0
 24 28  2  0  0  0  0
 25 29  2  0  0  0  0
 26 30  2  0  0  0  0
 27 30  1  0  0  0  0
 28 29  1  0  0  0  0
M  END
> <PUBCHEM_COMPOUND_ID_TYPE>
0

> <PUBCHEM_TOTAL_CHARGE>
0

> <PUBCHEM_SUBSTANCE_ID>
310938230

> <PUBCHEM_SUBSTANCE_VERSION>
1

> <PUBCHEM_EXT_DATASOURCE_NAME>
4488

> <PUBCHEM_EXT_DATASOURCE_REGID>
SCHEMBL16116093

> <PUBCHEM_SUBSTANCE_COMMENT>
InChI=1S/C25H22FN3O2/c1-29-16-22(17-11-13-19(26)14-12-17)24(28-29)25(30)23(18-7-4-3-5-8-18)27-20-9-6-10-21(15-20)31-2/h3-16,23,27H,1-2H3
InChIKey=XHQWVZHDUZIANR-UHFFFAOYSA-N

> <PUBCHEM_SUBSTANCE_SYNONYM>
SCHEMBL16116093

> <PUBCHEM_XREF_EXT_ID>
SCHEMBL16116093

> <PUBCHEM_EXT_DATASOURCE_URL>
https://www.surechembl.org/

> <PUBCHEM_EXT_SUBSTANCE_URL>
https://www.surechembl.org/chemical/SCHEMBL16116093

> <PUBCHEM_CID_ASSOCIATIONS>
86275538  1

> <PUBCHEM_COORDINATE_TYPE>
1
3

$$$$
