310947246
  -OEChem-07211613022D

 32 36  0     1  0  0  0  0  0999 V2000
    5.3908   -4.9668    0.0000 O   0  0  0  0  0  0  0  0  0  0  0  0
    6.3371   -3.3322    0.0000 O   0  0  0  0  0  0  0  0  0  0  0  0
    8.7985   -3.5909    0.0000 O   0  0  0  0  0  0  0  0  0  0  0  0
    4.0106   -5.3367    0.0000 O   0  0  0  0  0  0  0  0  0  0  0  0
    5.0210   -6.3470    0.0000 O   0  0  0  0  0  0  0  0  0  0  0  0
    8.6492   -5.0120    0.0000 N   0  0  0  0  0  0  0  0  0  0  0  0
    8.4775   -7.1538    0.0000 N   0  0  0  0  0  0  0  0  0  0  0  0
    8.1642   -5.6793    0.0000 C   0  0  0  0  0  0  0  0  0  0  0  0
    8.6492   -6.3469    0.0000 C   0  0  0  0  0  0  0  0  0  0  0  0
    7.0082   -4.8394    0.0000 C   0  0  0  0  0  0  0  0  0  0  0  0
    9.4338   -6.0919    0.0000 C   0  0  0  0  0  0  0  0  0  0  0  0
    7.4931   -4.1721    0.0000 C   0  0  0  0  0  0  0  0  0  0  0  0
    6.1877   -4.7533    0.0000 C   0  0  3  0  0  0  0  0  0  0  0  0
    8.3136   -4.2583    0.0000 C   0  0  0  0  0  0  0  0  0  0  0  0
    7.3438   -5.5932    0.0000 C   0  0  0  0  0  0  0  0  0  0  0  0
    9.4338   -5.2669    0.0000 C   0  0  0  0  0  0  0  0  0  0  0  0
   10.0469   -6.6440    0.0000 C   0  0  0  0  0  0  0  0  0  0  0  0
    9.8752   -7.4509    0.0000 C   0  0  0  0  0  0  0  0  0  0  0  0
    9.0906   -7.7059    0.0000 C   0  0  0  0  0  0  0  0  0  0  0  0
    7.1575   -3.4184    0.0000 C   0  0  0  0  0  0  0  0  0  0  0  0
    5.8521   -3.9995    0.0000 C   0  0  0  0  0  0  0  0  0  0  0  0
    6.1877   -5.5783    0.0000 C   0  0  0  0  0  0  0  0  0  0  0  0
   10.4883   -8.0029    0.0000 C   0  0  0  0  0  0  0  0  0  0  0  0
   10.8437   -6.4303    0.0000 C   0  0  0  0  0  0  0  0  0  0  0  0
    8.9191   -8.5128    0.0000 C   0  0  0  0  0  0  0  0  0  0  0  0
    4.8075   -5.5502    0.0000 C   0  0  0  0  0  0  0  0  0  0  0  0
   10.3168   -8.8098    0.0000 C   0  0  0  0  0  0  0  0  0  0  0  0
    9.5322   -9.0649    0.0000 C   0  0  0  0  0  0  0  0  0  0  0  0
    5.4732   -5.9907    0.0000 C   0  0  0  0  0  0  0  0  0  0  0  0
   11.0572   -5.6336    0.0000 C   0  0  0  0  0  0  0  0  0  0  0  0
   10.9299   -9.3620    0.0000 C   0  0  0  0  0  0  0  0  0  0  0  0
    3.2961   -5.7492    0.0000 C   0  0  0  0  0  0  0  0  0  0  0  0
  1 13  1  0  0  0  0
  1 26  1  0  0  0  0
  2 20  1  0  0  0  0
  2 21  1  0  0  0  0
  3 14  2  0  0  0  0
  4 26  1  0  0  0  0
  4 32  1  0  0  0  0
  5 26  2  0  0  0  0
  6  8  1  0  0  0  0
  6 14  1  0  0  0  0
  6 16  1  0  0  0  0
  7  9  2  0  0  0  0
  7 19  1  0  0  0  0
  8  9  1  0  0  0  0
  8 15  2  0  0  0  0
  9 11  1  0  0  0  0
 10 12  2  0  0  0  0
 10 13  1  0  0  0  0
 10 15  1  0  0  0  0
 11 16  1  0  0  0  0
 11 17  2  0  0  0  0
 12 14  1  0  0  0  0
 12 20  1  0  0  0  0
 13 21  1  0  0  0  0
 13 22  1  0  0  0  0
 17 18  1  0  0  0  0
 17 24  1  0  0  0  0
 18 19  1  0  0  0  0
 18 23  2  0  0  0  0
 19 25  2  0  0  0  0
 22 29  1  0  0  0  0
 23 27  1  0  0  0  0
 24 30  1  0  0  0  0
 25 28  1  0  0  0  0
 27 28  2  0  0  0  0
 27 31  1  0  0  0  0
M  END
> <PUBCHEM_COMPOUND_ID_TYPE>
0

> <PUBCHEM_TOTAL_CHARGE>
0

> <PUBCHEM_SUBSTANCE_ID>
310947246

> <PUBCHEM_SUBSTANCE_VERSION>
1

> <PUBCHEM_EXT_DATASOURCE_NAME>
4488

> <PUBCHEM_EXT_DATASOURCE_REGID>
SCHEMBL16125401

> <PUBCHEM_SUBSTANCE_COMMENT>
InChI=1S/C25H26N2O5/c1-5-15-16-9-14(3)7-8-20(16)26-22-17(15)11-27-21(22)10-19-18(23(27)28)12-31-13-25(19,6-2)32-24(29)30-4/h7-10H,5-6,11-13H2,1-4H3
InChIKey=KXZLMKAACJXETJ-UHFFFAOYSA-N

> <PUBCHEM_SUBSTANCE_SYNONYM>
SCHEMBL16125401

> <PUBCHEM_XREF_EXT_ID>
SCHEMBL16125401

> <PUBCHEM_EXT_DATASOURCE_URL>
https://www.surechembl.org/

> <PUBCHEM_EXT_SUBSTANCE_URL>
https://www.surechembl.org/chemical/SCHEMBL16125401

> <PUBCHEM_CID_ASSOCIATIONS>
117613056  1

> <PUBCHEM_COORDINATE_TYPE>
1
3

$$$$
