310936274
  -OEChem-07211613022D

 14 13  0     1  0  0  0  0  0999 V2000
    2.8528   -1.2274    0.0000 O   0  0  0  0  0  0  0  0  0  0  0  0
    3.5494    0.0000    0.0000 O   0  0  0  0  0  0  0  0  0  0  0  0
    4.2626   -2.0566    0.0000 N   0  0  0  0  0  0  0  0  0  0  0  0
    3.5494   -0.8127    0.0000 C   0  0  0  0  0  0  0  0  0  0  0  0
    1.4264   -1.2439    0.0000 C   0  0  0  0  0  0  0  0  0  0  0  0
    4.2626   -1.2274    0.0000 C   0  0  3  0  0  0  0  0  0  0  0  0
    2.1396   -0.8127    0.0000 C   0  0  0  0  0  0  0  0  0  0  0  0
    1.4264   -2.0566    0.0000 C   0  0  0  0  0  0  0  0  0  0  0  0
    0.7132   -0.8293    0.0000 C   0  0  0  0  0  0  0  0  0  0  0  0
    4.9758   -0.8127    0.0000 C   0  0  0  0  0  0  0  0  0  0  0  0
    0.7132   -2.4713    0.0000 C   0  0  0  0  0  0  0  0  0  0  0  0
    0.0000   -1.2439    0.0000 C   0  0  0  0  0  0  0  0  0  0  0  0
    0.7132   -3.3006    0.0000 C   0  0  0  0  0  0  0  0  0  0  0  0
    0.0000   -2.0566    0.0000 C   0  0  0  0  0  0  0  0  0  0  0  0
  1  4  1  0  0  0  0
  1  7  1  0  0  0  0
  2  4  2  0  0  0  0
  3  6  1  0  0  0  0
  4  6  1  0  0  0  0
  5  7  1  0  0  0  0
  5  8  1  0  0  0  0
  5  9  1  0  0  0  0
  6 10  1  0  0  0  0
  8 11  1  0  0  0  0
  9 12  1  0  0  0  0
 11 13  1  0  0  0  0
 12 14  1  0  0  0  0
M  END
> <PUBCHEM_COMPOUND_ID_TYPE>
0

> <PUBCHEM_TOTAL_CHARGE>
0

> <PUBCHEM_SUBSTANCE_ID>
310936274

> <PUBCHEM_SUBSTANCE_VERSION>
1

> <PUBCHEM_EXT_DATASOURCE_NAME>
4488

> <PUBCHEM_EXT_DATASOURCE_REGID>
SCHEMBL16113894

> <PUBCHEM_SUBSTANCE_COMMENT>
InChI=1S/C11H23NO2/c1-4-6-10(7-5-2)8-14-11(13)9(3)12/h9-10H,4-8,12H2,1-3H3
InChIKey=YMWYMAXALRRPIH-UHFFFAOYSA-N

> <PUBCHEM_SUBSTANCE_SYNONYM>
SCHEMBL16113894

> <PUBCHEM_XREF_EXT_ID>
SCHEMBL16113894

> <PUBCHEM_EXT_DATASOURCE_URL>
https://www.surechembl.org/

> <PUBCHEM_EXT_SUBSTANCE_URL>
https://www.surechembl.org/chemical/SCHEMBL16113894

> <PUBCHEM_CID_ASSOCIATIONS>
74957490  1

> <PUBCHEM_COORDINATE_TYPE>
1
3

$$$$
