310933282
  -OEChem-07211613022D

 16 17  0     1  0  0  0  0  0999 V2000
    0.5680   -0.2524    0.0000 F   0  0  0  0  0  0  0  0  0  0  0  0
    0.1262   -1.6199    0.0000 F   0  0  0  0  0  0  0  0  0  0  0  0
    2.1879   -0.8205    0.0000 N   0  0  3  0  0  0  0  0  0  0  0  0
    3.0926   -2.7770    0.0000 N   0  0  0  0  0  0  0  0  0  0  0  0
    1.7882   -2.1038    0.0000 C   0  0  3  0  0  0  0  0  0  0  0  0
    1.5357   -1.3254    0.0000 C   0  0  3  0  0  0  0  0  0  0  0  0
    2.6087   -2.1038    0.0000 C   0  0  3  0  0  0  0  0  0  0  0  0
    1.3043   -2.7770    0.0000 C   0  0  0  0  0  0  0  0  0  0  0  0
    2.8611   -1.3254    0.0000 C   0  0  0  0  0  0  0  0  0  0  0  0
    0.7574   -1.0519    0.0000 C   0  0  0  0  0  0  0  0  0  0  0  0
    1.6409   -3.5343    0.0000 C   0  0  0  0  0  0  0  0  0  0  0  0
    0.4839   -2.6928    0.0000 C   0  0  0  0  0  0  0  0  0  0  0  0
    2.1879    0.0000    0.0000 C   0  0  0  0  0  0  0  0  0  0  0  0
    1.1571   -4.2075    0.0000 C   0  0  0  0  0  0  0  0  0  0  0  0
    0.0000   -3.3660    0.0000 C   0  0  0  0  0  0  0  0  0  0  0  0
    0.3156   -4.1234    0.0000 C   0  0  0  0  0  0  0  0  0  0  0  0
  1 10  1  0  0  0  0
  2 10  1  0  0  0  0
  3  6  1  0  0  0  0
  3  9  1  0  0  0  0
  3 13  1  0  0  0  0
  4  7  1  0  0  0  0
  5  6  1  0  0  0  0
  5  7  1  0  0  0  0
  5  8  1  0  0  0  0
  6 10  1  0  0  0  0
  7  9  1  0  0  0  0
  8 11  2  0  0  0  0
  8 12  1  0  0  0  0
 11 14  1  0  0  0  0
 12 15  2  0  0  0  0
 14 16  2  0  0  0  0
 15 16  1  0  0  0  0
M  END
> <PUBCHEM_COMPOUND_ID_TYPE>
0

> <PUBCHEM_TOTAL_CHARGE>
0

> <PUBCHEM_SUBSTANCE_ID>
310933282

> <PUBCHEM_SUBSTANCE_VERSION>
1

> <PUBCHEM_EXT_DATASOURCE_NAME>
4488

> <PUBCHEM_EXT_DATASOURCE_REGID>
SCHEMBL16110693

> <PUBCHEM_SUBSTANCE_COMMENT>
InChI=1S/C12H16F2N2/c1-16-7-9(15)10(11(16)12(13)14)8-5-3-2-4-6-8/h2-6,9-12H,7,15H2,1H3
InChIKey=OJYRPTIZAJLEPG-UHFFFAOYSA-N

> <PUBCHEM_SUBSTANCE_SYNONYM>
SCHEMBL16110693

> <PUBCHEM_XREF_EXT_ID>
SCHEMBL16110693

> <PUBCHEM_EXT_DATASOURCE_URL>
https://www.surechembl.org/

> <PUBCHEM_EXT_SUBSTANCE_URL>
https://www.surechembl.org/chemical/SCHEMBL16110693

> <PUBCHEM_CID_ASSOCIATIONS>
117601707  1

> <PUBCHEM_COORDINATE_TYPE>
1
3

$$$$
