310935019
  -OEChem-07211613022D

 37 41  0     1  0  0  0  0  0999 V2000
    6.9485   -0.6457    0.0000 F   0  0  0  0  0  0  0  0  0  0  0  0
    5.7495   -1.4758    0.0000 O   0  0  0  0  0  0  0  0  0  0  0  0
    5.7495   -2.9209    0.0000 O   0  0  0  0  0  0  0  0  0  0  0  0
    0.6149   -4.5196    0.0000 O   0  0  0  0  0  0  0  0  0  0  0  0
    8.2398   -4.3351    0.0000 O   0  0  0  0  0  0  0  0  0  0  0  0
    2.0907   -5.1653    0.0000 N   0  0  0  0  0  0  0  0  0  0  0  0
    4.5504   -2.1829    0.0000 C   0  0  3  0  0  0  0  0  0  0  0  0
    4.9193   -1.4758    0.0000 C   0  0  0  0  0  0  0  0  0  0  0  0
    4.0585   -2.8594    0.0000 C   0  0  0  0  0  0  0  0  0  0  0  0
    3.2898   -2.6134    0.0000 C   0  0  0  0  0  0  0  0  0  0  0  0
    5.3497   -2.1829    0.0000 C   0  0  0  0  0  0  0  0  0  0  0  0
    4.0585   -1.5373    0.0000 C   0  0  0  0  0  0  0  0  0  0  0  0
    2.6134   -3.0746    0.0000 C   0  0  0  0  0  0  0  0  0  0  0  0
    5.9031   -1.5988    0.0000 C   0  0  0  0  0  0  0  0  0  0  0  0
    3.2898   -1.7833    0.0000 C   0  0  0  0  0  0  0  0  0  0  0  0
    4.4581   -0.7687    0.0000 C   0  0  0  0  0  0  0  0  0  0  0  0
    2.0292   -4.3659    0.0000 C   0  0  0  0  0  0  0  0  0  0  0  0
    6.1184   -0.6764    0.0000 C   0  0  0  0  0  0  0  0  0  0  0  0
    2.6749   -3.9047    0.0000 C   0  0  0  0  0  0  0  0  0  0  0  0
    1.2913   -4.0277    0.0000 C   0  0  0  0  0  0  0  0  0  0  0  0
    1.8755   -2.7364    0.0000 C   0  0  0  0  0  0  0  0  0  0  0  0
    1.1991   -3.2283    0.0000 C   0  0  0  0  0  0  0  0  0  0  0  0
    4.8271   -0.0308    0.0000 C   0  0  0  0  0  0  0  0  0  0  0  0
    0.6764   -5.3190    0.0000 C   0  0  0  0  0  0  0  0  0  0  0  0
    5.6572    0.0000    0.0000 C   0  0  0  0  0  0  0  0  0  0  0  0
    6.1799   -2.0907    0.0000 C   0  0  0  0  0  0  0  0  0  0  0  0
    1.4143   -5.6572    0.0000 C   0  0  0  0  0  0  0  0  0  0  0  0
    6.5796   -1.4758    0.0000 C   0  0  0  0  0  0  0  0  0  0  0  0
    6.9792   -2.2137    0.0000 C   0  0  0  0  0  0  0  0  0  0  0  0
    0.0000   -5.8109    0.0000 C   0  0  0  0  0  0  0  0  0  0  0  0
    0.7687   -6.1492    0.0000 C   0  0  0  0  0  0  0  0  0  0  0  0
    6.5796   -2.9209    0.0000 C   0  0  0  0  0  0  0  0  0  0  0  0
    7.8094   -2.2137    0.0000 C   0  0  0  0  0  0  0  0  0  0  0  0
    7.8094   -3.6280    0.0000 C   0  0  0  0  0  0  0  0  0  0  0  0
    6.9792   -3.6280    0.0000 C   0  0  0  0  0  0  0  0  0  0  0  0
    8.2398   -2.9209    0.0000 C   0  0  0  0  0  0  0  0  0  0  0  0
    9.0392   -4.3351    0.0000 C   0  0  0  0  0  0  0  0  0  0  0  0
  1 18  1  0  0  0  0
  2 11  1  0  0  0  0
  2 28  1  0  0  0  0
  3 11  2  0  0  0  0
  4 20  1  0  0  0  0
  4 24  1  0  0  0  0
  5 34  1  0  0  0  0
  5 37  1  0  0  0  0
  6 17  1  0  0  0  0
  6 27  1  0  0  0  0
  7  8  1  0  0  0  0
  7  9  1  0  0  0  0
  7 11  1  0  0  0  0
  7 12  1  0  0  0  0
  8 14  1  0  0  0  0
  8 16  2  0  0  0  0
  9 10  2  0  0  0  0
 10 13  1  0  0  0  0
 10 15  1  0  0  0  0
 12 15  1  0  0  0  0
 13 19  2  0  0  0  0
 13 21  1  0  0  0  0
 14 18  2  0  0  0  0
 14 26  1  0  0  0  0
 16 23  1  0  0  0  0
 17 19  1  0  0  0  0
 17 20  2  0  0  0  0
 18 25  1  0  0  0  0
 20 22  1  0  0  0  0
 21 22  2  0  0  0  0
 23 25  2  0  0  0  0
 24 27  1  0  0  0  0
 24 30  1  0  0  0  0
 24 31  1  0  0  0  0
 28 29  1  0  0  0  0
 29 32  2  0  0  0  0
 29 33  1  0  0  0  0
 32 35  1  0  0  0  0
 33 36  2  0  0  0  0
 34 35  2  0  0  0  0
 34 36  1  0  0  0  0
M  END
> <PUBCHEM_COMPOUND_ID_TYPE>
0

> <PUBCHEM_TOTAL_CHARGE>
0

> <PUBCHEM_SUBSTANCE_ID>
310935019

> <PUBCHEM_SUBSTANCE_VERSION>
1

> <PUBCHEM_EXT_DATASOURCE_NAME>
4488

> <PUBCHEM_EXT_DATASOURCE_REGID>
SCHEMBL16112538

> <PUBCHEM_SUBSTANCE_COMMENT>
InChI=1S/C31H32FNO4/c1-20-25(6-5-7-26(20)32)31(29(34)36-18-21-8-11-24(35-4)12-9-21)15-14-23(17-31)22-10-13-28-27(16-22)33-19-30(2,3)37-28/h5-13,16-17,33H,14-15,18-19H2,1-4H3
InChIKey=RVYSMOSBNDGSRN-UHFFFAOYSA-N

> <PUBCHEM_SUBSTANCE_SYNONYM>
SCHEMBL16112538

> <PUBCHEM_XREF_EXT_ID>
SCHEMBL16112538

> <PUBCHEM_EXT_DATASOURCE_URL>
https://www.surechembl.org/

> <PUBCHEM_EXT_SUBSTANCE_URL>
https://www.surechembl.org/chemical/SCHEMBL16112538

> <PUBCHEM_CID_ASSOCIATIONS>
117603130  1

> <PUBCHEM_COORDINATE_TYPE>
1
3

$$$$
