310933061
  -OEChem-07211613022D

 33 37  0     1  0  0  0  0  0999 V2000
    8.0911   -0.6980    0.0000 F   0  0  0  0  0  0  0  0  0  0  0  0
    5.7431   -2.0307    0.0000 O   0  0  0  0  0  0  0  0  0  0  0  0
    1.6182   -3.7758    0.0000 O   0  0  0  0  0  0  0  0  0  0  0  0
    1.0788   -0.7615    0.0000 N   0  0  3  0  0  0  0  0  0  0  0  0
    1.7768   -2.3480    0.0000 N   0  0  0  0  0  0  0  0  0  0  0  0
    5.3623   -3.4585    0.0000 N   0  0  0  0  0  0  0  0  0  0  0  0
    5.7748   -4.1883    0.0000 N   0  0  0  0  0  0  0  0  0  0  0  0
    4.0614   -4.0297    0.0000 N   0  0  0  0  0  0  0  0  0  0  0  0
    9.5189   -0.6980    0.0000 N   0  0  0  0  0  0  0  0  0  0  0  0
    0.5711   -1.4596    0.0000 C   0  0  0  0  0  0  0  0  0  0  0  0
    0.0000   -1.8403    0.0000 C   0  0  0  0  0  0  0  0  0  0  0  0
    0.0952   -0.9519    0.0000 C   0  0  0  0  0  0  0  0  0  0  0  0
    0.9201   -2.2528    0.0000 C   0  0  0  0  0  0  0  0  0  0  0  0
    6.6632   -3.1730    0.0000 C   0  0  0  0  0  0  0  0  0  0  0  0
    5.9017   -2.8557    0.0000 C   0  0  0  0  0  0  0  0  0  0  0  0
    7.3613   -2.7604    0.0000 C   0  0  0  0  0  0  0  0  0  0  0  0
    2.0941   -3.0778    0.0000 C   0  0  0  0  0  0  0  0  0  0  0  0
    4.5373   -3.3634    0.0000 C   0  0  0  0  0  0  0  0  0  0  0  0
    1.9355   -0.8250    0.0000 C   0  0  0  0  0  0  0  0  0  0  0  0
    2.9191   -3.2047    0.0000 C   0  0  0  0  0  0  0  0  0  0  0  0
    2.3162   -1.6182    0.0000 C   0  0  0  0  0  0  0  0  0  0  0  0
    7.3613   -1.9355    0.0000 C   0  0  0  0  0  0  0  0  0  0  0  0
    6.5680   -3.9979    0.0000 C   0  0  0  0  0  0  0  0  0  0  0  0
    8.0911   -1.5230    0.0000 C   0  0  0  0  0  0  0  0  0  0  0  0
    8.0911   -3.1730    0.0000 C   0  0  0  0  0  0  0  0  0  0  0  0
    4.2200   -2.6018    0.0000 C   0  0  0  0  0  0  0  0  0  0  0  0
    3.2364   -3.9344    0.0000 C   0  0  0  0  0  0  0  0  0  0  0  0
    3.3951   -2.5383    0.0000 C   0  0  0  0  0  0  0  0  0  0  0  0
    8.7891   -1.9355    0.0000 C   0  0  0  0  0  0  0  0  0  0  0  0
    0.7298    0.0000    0.0000 C   0  0  0  0  0  0  0  0  0  0  0  0
    8.7891   -2.7604    0.0000 C   0  0  0  0  0  0  0  0  0  0  0  0
    6.6632   -1.5230    0.0000 C   0  0  0  0  0  0  0  0  0  0  0  0
    9.5189   -1.5230    0.0000 C   0  0  0  0  0  0  0  0  0  0  0  0
  1 24  1  0  0  0  0
  2 15  1  0  0  0  0
  3 17  2  0  0  0  0
  4 10  1  0  0  0  0
  4 19  1  0  0  0  0
  4 30  1  0  0  0  0
  5 13  1  0  0  0  0
  5 17  1  0  0  0  0
  5 21  1  0  0  0  0
  6  7  1  0  0  0  0
  6 15  1  0  0  0  0
  6 18  1  0  0  0  0
  7 23  2  0  0  0  0
  8 18  1  0  0  0  0
  8 27  2  0  0  0  0
  9 33  3  0  0  0  0
 10 11  1  0  0  0  0
 10 12  1  0  0  0  0
 10 13  1  0  0  0  0
 11 12  1  0  0  0  0
 14 15  2  0  0  0  0
 14 16  1  0  0  0  0
 14 23  1  0  0  0  0
 16 22  2  0  0  0  0
 16 25  1  0  0  0  0
 17 20  1  0  0  0  0
 18 26  2  0  0  0  0
 19 21  1  0  0  0  0
 20 27  1  0  0  0  0
 20 28  2  0  0  0  0
 22 24  1  0  0  0  0
 22 32  1  0  0  0  0
 24 29  2  0  0  0  0
 25 31  2  0  0  0  0
 26 28  1  0  0  0  0
 29 31  1  0  0  0  0
 29 33  1  0  0  0  0
M  END
> <PUBCHEM_COMPOUND_ID_TYPE>
0

> <PUBCHEM_TOTAL_CHARGE>
0

> <PUBCHEM_SUBSTANCE_ID>
310933061

> <PUBCHEM_SUBSTANCE_VERSION>
1

> <PUBCHEM_EXT_DATASOURCE_NAME>
4488

> <PUBCHEM_EXT_DATASOURCE_REGID>
SCHEMBL16110462

> <PUBCHEM_SUBSTANCE_COMMENT>
InChI=1S/C24H23FN6O2/c1-15-18(5-3-16(11-26)21(15)25)19-13-28-31(23(19)33)20-6-4-17(12-27-20)22(32)30-10-9-29(2)24(14-30)7-8-24/h3-6,12-13,33H,7-10,14H2,1-2H3
InChIKey=ZYHUFPLQLUKEPY-UHFFFAOYSA-N

> <PUBCHEM_SUBSTANCE_SYNONYM>
SCHEMBL16110462

> <PUBCHEM_XREF_EXT_ID>
SCHEMBL16110462

> <PUBCHEM_EXT_DATASOURCE_URL>
https://www.surechembl.org/

> <PUBCHEM_EXT_SUBSTANCE_URL>
https://www.surechembl.org/chemical/SCHEMBL16110462

> <PUBCHEM_CID_ASSOCIATIONS>
117601521  1

> <PUBCHEM_COORDINATE_TYPE>
1
3

$$$$
