310931435
  -OEChem-07211613022D

 19 21  0     1  0  0  0  0  0999 V2000
    2.8464   -2.4751    0.0000 O   0  0  0  0  0  0  0  0  0  0  0  0
    0.0000    0.0000    0.0000 O   0  0  0  0  0  0  0  0  0  0  0  0
    0.7013   -1.2375    0.0000 N   0  0  0  0  0  0  0  0  0  0  0  0
    1.4438    0.0000    0.0000 N   0  0  0  0  0  0  0  0  0  0  0  0
    2.1657   -1.2375    0.0000 C   0  0  0  0  0  0  0  0  0  0  0  0
    1.4438   -1.6501    0.0000 C   0  0  3  0  0  0  0  0  0  0  0  0
    2.1657   -0.4125    0.0000 C   0  0  0  0  0  0  0  0  0  0  0  0
    2.8464   -1.6501    0.0000 C   0  0  0  0  0  0  0  0  0  0  0  0
    1.4438   -2.4751    0.0000 C   0  0  0  0  0  0  0  0  0  0  0  0
    0.7013   -0.4125    0.0000 C   0  0  0  0  0  0  0  0  0  0  0  0
    2.8464    0.0000    0.0000 C   0  0  0  0  0  0  0  0  0  0  0  0
    3.5682   -1.2375    0.0000 C   0  0  0  0  0  0  0  0  0  0  0  0
    3.5682   -0.4125    0.0000 C   0  0  0  0  0  0  0  0  0  0  0  0
    2.1657   -2.8876    0.0000 C   0  0  0  0  0  0  0  0  0  0  0  0
    0.7219   -2.8876    0.0000 C   0  0  0  0  0  0  0  0  0  0  0  0
    2.1657   -3.7126    0.0000 C   0  0  0  0  0  0  0  0  0  0  0  0
    0.7219   -3.7126    0.0000 C   0  0  0  0  0  0  0  0  0  0  0  0
    1.4438   -4.1251    0.0000 C   0  0  0  0  0  0  0  0  0  0  0  0
    3.5476   -2.8876    0.0000 C   0  0  0  0  0  0  0  0  0  0  0  0
  1  8  1  0  0  0  0
  1 19  1  0  0  0  0
  2 10  2  0  0  0  0
  3  6  1  0  0  0  0
  3 10  1  0  0  0  0
  4  7  1  0  0  0  0
  4 10  1  0  0  0  0
  5  6  1  0  0  0  0
  5  7  2  0  0  0  0
  5  8  1  0  0  0  0
  6  9  1  0  0  0  0
  7 11  1  0  0  0  0
  8 12  2  0  0  0  0
  9 14  2  0  0  0  0
  9 15  1  0  0  0  0
 11 13  2  0  0  0  0
 12 13  1  0  0  0  0
 14 16  1  0  0  0  0
 15 17  2  0  0  0  0
 16 18  2  0  0  0  0
 17 18  1  0  0  0  0
M  END
> <PUBCHEM_COMPOUND_ID_TYPE>
0

> <PUBCHEM_TOTAL_CHARGE>
0

> <PUBCHEM_SUBSTANCE_ID>
310931435

> <PUBCHEM_SUBSTANCE_VERSION>
1

> <PUBCHEM_EXT_DATASOURCE_NAME>
4488

> <PUBCHEM_EXT_DATASOURCE_REGID>
SCHEMBL16108760

> <PUBCHEM_SUBSTANCE_COMMENT>
InChI=1S/C15H14N2O2/c1-19-12-9-5-8-11-13(12)14(17-15(18)16-11)10-6-3-2-4-7-10/h2-9,14H,1H3,(H2,16,17,18)
InChIKey=DGBHNJQVPBMRTC-UHFFFAOYSA-N

> <PUBCHEM_SUBSTANCE_SYNONYM>
SCHEMBL16108760

> <PUBCHEM_XREF_EXT_ID>
SCHEMBL16108760

> <PUBCHEM_EXT_DATASOURCE_URL>
https://www.surechembl.org/

> <PUBCHEM_EXT_SUBSTANCE_URL>
https://www.surechembl.org/chemical/SCHEMBL16108760

> <PUBCHEM_CID_ASSOCIATIONS>
117600212  1

> <PUBCHEM_COORDINATE_TYPE>
1
3

$$$$
