310942249
  -OEChem-07211613022D

 24 26  0     1  0  0  0  0  0999 V2000
   -0.6124   -0.7687    0.0000 F   0  0  0  0  0  0  0  0  0  0  0  0
   -0.6124    2.1185    0.0000 F   0  0  0  0  0  0  0  0  0  0  0  0
   -1.4498    0.6687    0.0000 O   0  0  0  0  0  0  0  0  0  0  0  0
    1.8873   -0.7687    0.0000 N   0  0  0  0  0  0  0  0  0  0  0  0
    0.6374   -0.0437    0.0000 C   0  0  0  0  0  0  0  0  0  0  0  0
   -0.1875   -0.0312    0.0000 C   0  0  0  0  0  0  0  0  0  0  0  0
   -0.5999    0.6812    0.0000 C   0  0  0  0  0  0  0  0  0  0  0  0
   -0.2000    1.4061    0.0000 C   0  0  0  0  0  0  0  0  0  0  0  0
    1.0499   -0.7562    0.0000 C   0  0  3  0  0  0  0  0  0  0  0  0
    1.0499    0.6687    0.0000 C   0  0  0  0  0  0  0  0  0  0  0  0
    0.6374    1.3936    0.0000 C   0  0  0  0  0  0  0  0  0  0  0  0
   -1.8623    1.4061    0.0000 C   0  0  0  0  0  0  0  0  0  0  0  0
    2.2997   -1.4811    0.0000 C   0  0  0  0  0  0  0  0  0  0  0  0
    0.6374   -1.4936    0.0000 C   0  0  0  0  0  0  0  0  0  0  0  0
   -1.4498    2.1185    0.0000 C   0  0  0  0  0  0  0  0  0  0  0  0
   -2.6872    1.4061    0.0000 C   0  0  0  0  0  0  0  0  0  0  0  0
    1.8248   -2.1560    0.0000 C   0  0  0  0  0  0  0  0  0  0  0  0
    3.0996   -1.7560    0.0000 C   0  0  0  0  0  0  0  0  0  0  0  0
   -1.8623    2.8309    0.0000 C   0  0  0  0  0  0  0  0  0  0  0  0
   -3.0996    2.1185    0.0000 C   0  0  0  0  0  0  0  0  0  0  0  0
    2.3122   -2.8309    0.0000 C   0  0  0  0  0  0  0  0  0  0  0  0
    3.0996   -2.5810    0.0000 C   0  0  0  0  0  0  0  0  0  0  0  0
    1.0624   -2.2060    0.0000 C   0  0  0  0  0  0  0  0  0  0  0  0
   -2.6872    2.8309    0.0000 C   0  0  0  0  0  0  0  0  0  0  0  0
  1  6  1  0  0  0  0
  2  8  1  0  0  0  0
  3  7  1  0  0  0  0
  3 12  1  0  0  0  0
  4  9  1  0  0  0  0
  4 13  1  0  0  0  0
  5  6  2  0  0  0  0
  5  9  1  0  0  0  0
  5 10  1  0  0  0  0
  6  7  1  0  0  0  0
  7  8  2  0  0  0  0
  8 11  1  0  0  0  0
  9 14  1  0  0  0  0
 10 11  2  0  0  0  0
 12 15  2  0  0  0  0
 12 16  1  0  0  0  0
 13 17  1  0  0  0  0
 13 18  1  0  0  0  0
 14 23  1  0  0  0  0
 15 19  1  0  0  0  0
 16 20  2  0  0  0  0
 17 21  1  0  0  0  0
 18 22  1  0  0  0  0
 19 24  2  0  0  0  0
 20 24  1  0  0  0  0
 21 22  1  0  0  0  0
M  END
> <PUBCHEM_COMPOUND_ID_TYPE>
0

> <PUBCHEM_TOTAL_CHARGE>
0

> <PUBCHEM_SUBSTANCE_ID>
310942249

> <PUBCHEM_SUBSTANCE_VERSION>
1

> <PUBCHEM_EXT_DATASOURCE_NAME>
4488

> <PUBCHEM_EXT_DATASOURCE_REGID>
SCHEMBL16120284

> <PUBCHEM_SUBSTANCE_COMMENT>
InChI=1S/C20H23F2NO/c1-2-18(23-14-8-6-7-9-14)16-12-13-17(21)20(19(16)22)24-15-10-4-3-5-11-15/h3-5,10-14,18,23H,2,6-9H2,1H3
InChIKey=KQJQRWURGADOLI-UHFFFAOYSA-N

> <PUBCHEM_SUBSTANCE_SYNONYM>
SCHEMBL16120284

> <PUBCHEM_XREF_EXT_ID>
SCHEMBL16120284

> <PUBCHEM_EXT_DATASOURCE_URL>
https://www.surechembl.org/

> <PUBCHEM_EXT_SUBSTANCE_URL>
https://www.surechembl.org/chemical/SCHEMBL16120284

> <PUBCHEM_CID_ASSOCIATIONS>
117608900  1

> <PUBCHEM_COORDINATE_TYPE>
1
3

$$$$
