310945429
  -OEChem-07211613022D

 26 28  0     1  0  0  0  0  0999 V2000
    2.6671    0.4783    0.0000 F   0  0  0  0  0  0  0  0  0  0  0  0
    2.1742   -0.5363    0.0000 F   0  0  0  0  0  0  0  0  0  0  0  0
    1.1596   -0.0290    0.0000 F   0  0  0  0  0  0  0  0  0  0  0  0
   -2.6671    1.5365    0.0000 O   0  0  0  0  0  0  0  0  0  0  0  0
    0.1305    0.7973    0.0000 N   0  0  0  0  0  0  0  0  0  0  0  0
    2.1452    1.7249    0.0000 N   0  0  0  0  0  0  0  0  0  0  0  0
   -0.5942   -1.4350    0.0000 N   0  0  0  0  0  0  0  0  0  0  0  0
    0.7828    1.3045    0.0000 C   0  0  0  0  0  0  0  0  0  0  0  0
    0.5363    2.0582    0.0000 C   0  0  0  0  0  0  0  0  0  0  0  0
   -0.5363    1.2901    0.0000 C   0  0  0  0  0  0  0  0  0  0  0  0
   -0.2899    2.0727    0.0000 C   0  0  0  0  0  0  0  0  0  0  0  0
    1.5944    1.1162    0.0000 C   0  0  0  0  0  0  0  0  0  0  0  0
    0.1159   -0.1884    0.0000 C   0  0  3  0  0  0  0  0  0  0  0  0
    1.8988    0.2319    0.0000 C   0  0  0  0  0  0  0  0  0  0  0  0
    1.0871    2.6816    0.0000 C   0  0  0  0  0  0  0  0  0  0  0  0
   -1.3335    1.1162    0.0000 C   0  0  0  0  0  0  0  0  0  0  0  0
   -0.8262    2.6671    0.0000 C   0  0  0  0  0  0  0  0  0  0  0  0
    1.8988    2.4931    0.0000 C   0  0  0  0  0  0  0  0  0  0  0  0
   -1.8698    1.7249    0.0000 C   0  0  0  0  0  0  0  0  0  0  0  0
   -1.6089    2.5076    0.0000 C   0  0  0  0  0  0  0  0  0  0  0  0
   -0.5653   -0.5942    0.0000 C   0  0  0  0  0  0  0  0  0  0  0  0
    0.8407   -0.5942    0.0000 C   0  0  0  0  0  0  0  0  0  0  0  0
   -1.2901   -1.8408    0.0000 C   0  0  0  0  0  0  0  0  0  0  0  0
    0.1159   -1.8408    0.0000 C   0  0  0  0  0  0  0  0  0  0  0  0
   -1.2756   -2.6816    0.0000 C   0  0  0  0  0  0  0  0  0  0  0  0
    0.1450   -2.6816    0.0000 C   0  0  0  0  0  0  0  0  0  0  0  0
  1 14  1  0  0  0  0
  2 14  1  0  0  0  0
  3 14  1  0  0  0  0
  4 19  1  0  0  0  0
  5  8  1  0  0  0  0
  5 10  1  0  0  0  0
  5 13  1  0  0  0  0
  6 12  2  0  0  0  0
  6 18  1  0  0  0  0
  7 21  1  0  0  0  0
  7 23  1  0  0  0  0
  7 24  1  0  0  0  0
  8  9  2  0  0  0  0
  8 12  1  0  0  0  0
  9 11  1  0  0  0  0
  9 15  1  0  0  0  0
 10 11  2  0  0  0  0
 10 16  1  0  0  0  0
 11 17  1  0  0  0  0
 12 14  1  0  0  0  0
 13 21  1  0  0  0  0
 13 22  1  0  0  0  0
 15 18  2  0  0  0  0
 16 19  2  0  0  0  0
 17 20  2  0  0  0  0
 19 20  1  0  0  0  0
 23 25  1  0  0  0  0
 24 26  1  0  0  0  0
M  END
> <PUBCHEM_COMPOUND_ID_TYPE>
0

> <PUBCHEM_TOTAL_CHARGE>
0

> <PUBCHEM_SUBSTANCE_ID>
310945429

> <PUBCHEM_SUBSTANCE_VERSION>
1

> <PUBCHEM_EXT_DATASOURCE_NAME>
4488

> <PUBCHEM_EXT_DATASOURCE_REGID>
SCHEMBL16123527

> <PUBCHEM_SUBSTANCE_COMMENT>
InChI=1S/C19H22F3N3O/c1-4-24(5-2)11-12(3)25-16-10-13(26)6-7-14(16)15-8-9-23-18(17(15)25)19(20,21)22/h6-10,12,26H,4-5,11H2,1-3H3
InChIKey=HAGJLJJAKYGCFJ-UHFFFAOYSA-N

> <PUBCHEM_SUBSTANCE_SYNONYM>
SCHEMBL16123527

> <PUBCHEM_XREF_EXT_ID>
SCHEMBL16123527

> <PUBCHEM_EXT_DATASOURCE_URL>
https://www.surechembl.org/

> <PUBCHEM_EXT_SUBSTANCE_URL>
https://www.surechembl.org/chemical/SCHEMBL16123527

> <PUBCHEM_CID_ASSOCIATIONS>
117611474  1

> <PUBCHEM_COORDINATE_TYPE>
1
3

$$$$
