310934815
  -OEChem-07211613022D

 26 28  0     1  0  0  0  0  0999 V2000
    4.3202   -0.6513    0.0000 F   0  0  0  0  0  0  0  0  0  0  0  0
    3.1479   -1.4980    0.0000 O   0  0  0  0  0  0  0  0  0  0  0  0
    3.1479   -2.9091    0.0000 O   0  0  0  0  0  0  0  0  0  0  0  0
    0.0000   -3.0828    0.0000 O   0  0  0  0  0  0  0  0  0  0  0  0
    5.6011   -4.3419    0.0000 O   0  0  0  0  0  0  0  0  0  0  0  0
    1.9104   -2.1927    0.0000 C   0  0  3  0  0  0  0  0  0  0  0  0
    2.3012   -1.4546    0.0000 C   0  0  0  0  0  0  0  0  0  0  0  0
    2.7354   -2.1927    0.0000 C   0  0  0  0  0  0  0  0  0  0  0  0
    1.4329   -2.8656    0.0000 C   0  0  0  0  0  0  0  0  0  0  0  0
    1.4329   -1.5197    0.0000 C   0  0  0  0  0  0  0  0  0  0  0  0
    3.2782   -1.5848    0.0000 C   0  0  0  0  0  0  0  0  0  0  0  0
    0.6513   -2.6052    0.0000 C   0  0  0  0  0  0  0  0  0  0  0  0
    1.8453   -0.7598    0.0000 C   0  0  0  0  0  0  0  0  0  0  0  0
    0.6513   -1.8019    0.0000 C   0  0  0  0  0  0  0  0  0  0  0  0
    3.4953   -0.6947    0.0000 C   0  0  0  0  0  0  0  0  0  0  0  0
    2.2144   -0.0434    0.0000 C   0  0  0  0  0  0  0  0  0  0  0  0
    3.0610    0.0000    0.0000 C   0  0  0  0  0  0  0  0  0  0  0  0
    3.5604   -2.1058    0.0000 C   0  0  0  0  0  0  0  0  0  0  0  0
    3.9728   -1.4980    0.0000 C   0  0  0  0  0  0  0  0  0  0  0  0
    4.3854   -2.2144    0.0000 C   0  0  0  0  0  0  0  0  0  0  0  0
    3.9728   -2.9091    0.0000 C   0  0  0  0  0  0  0  0  0  0  0  0
    5.2103   -2.2144    0.0000 C   0  0  0  0  0  0  0  0  0  0  0  0
    5.2103   -3.6255    0.0000 C   0  0  0  0  0  0  0  0  0  0  0  0
    4.3854   -3.6255    0.0000 C   0  0  0  0  0  0  0  0  0  0  0  0
    5.6011   -2.9091    0.0000 C   0  0  0  0  0  0  0  0  0  0  0  0
    6.4261   -4.3419    0.0000 C   0  0  0  0  0  0  0  0  0  0  0  0
  1 15  1  0  0  0  0
  2  8  1  0  0  0  0
  2 19  1  0  0  0  0
  3  8  2  0  0  0  0
  4 12  2  0  0  0  0
  5 23  1  0  0  0  0
  5 26  1  0  0  0  0
  6  7  1  0  0  0  0
  6  8  1  0  0  0  0
  6  9  1  0  0  0  0
  6 10  1  0  0  0  0
  7 11  1  0  0  0  0
  7 13  2  0  0  0  0
  9 12  1  0  0  0  0
 10 14  1  0  0  0  0
 11 15  2  0  0  0  0
 11 18  1  0  0  0  0
 12 14  1  0  0  0  0
 13 16  1  0  0  0  0
 15 17  1  0  0  0  0
 16 17  2  0  0  0  0
 19 20  1  0  0  0  0
 20 21  2  0  0  0  0
 20 22  1  0  0  0  0
 21 24  1  0  0  0  0
 22 25  2  0  0  0  0
 23 24  2  0  0  0  0
 23 25  1  0  0  0  0
M  END
> <PUBCHEM_COMPOUND_ID_TYPE>
0

> <PUBCHEM_TOTAL_CHARGE>
0

> <PUBCHEM_SUBSTANCE_ID>
310934815

> <PUBCHEM_SUBSTANCE_VERSION>
1

> <PUBCHEM_EXT_DATASOURCE_NAME>
4488

> <PUBCHEM_EXT_DATASOURCE_REGID>
SCHEMBL16112320

> <PUBCHEM_SUBSTANCE_COMMENT>
InChI=1S/C21H21FO4/c1-14-18(4-3-5-19(14)22)21(11-10-16(23)12-21)20(24)26-13-15-6-8-17(25-2)9-7-15/h3-9H,10-13H2,1-2H3
InChIKey=DRARQQYNNZDNJK-UHFFFAOYSA-N

> <PUBCHEM_SUBSTANCE_SYNONYM>
SCHEMBL16112320

> <PUBCHEM_XREF_EXT_ID>
SCHEMBL16112320

> <PUBCHEM_EXT_DATASOURCE_URL>
https://www.surechembl.org/

> <PUBCHEM_EXT_SUBSTANCE_URL>
https://www.surechembl.org/chemical/SCHEMBL16112320

> <PUBCHEM_CID_ASSOCIATIONS>
117602960  1

> <PUBCHEM_COORDINATE_TYPE>
1
3

$$$$
