310945818
  -OEChem-07211613022D

 39 41  0     1  0  0  0  0  0999 V2000
   -4.3301   -1.1684    0.0000 F   0  0  0  0  0  0  0  0  0  0  0  0
   -3.5053   -1.1684    0.0000 F   0  0  0  0  0  0  0  0  0  0  0  0
    4.3301    0.6598    0.0000 O   0  0  0  0  0  0  0  0  0  0  0  0
    3.2030   -1.2784    0.0000 O   0  0  0  0  0  0  0  0  0  0  0  0
    1.0584    0.7698    0.0000 O   0  0  0  0  0  0  0  0  0  0  0  0
   -1.0723   -1.2784    0.0000 O   0  0  0  0  0  0  0  0  0  0  0  0
   -3.2167    0.7698    0.0000 O   0  0  0  0  0  0  0  0  0  0  0  0
    3.2030   -2.9280    0.0000 O   0  0  0  0  0  0  0  0  0  0  0  0
    1.7733   -0.4536    0.0000 N   0  0  0  0  0  0  0  0  0  0  0  0
   -0.3574   -0.0413    0.0000 N   0  0  0  0  0  0  0  0  0  0  0  0
   -2.5019   -0.4536    0.0000 N   0  0  0  0  0  0  0  0  0  0  0  0
    3.9178    0.0000    0.0000 C   0  0  3  0  0  0  0  0  0  0  0  0
    3.2167   -0.4124    0.0000 C   0  0  0  0  0  0  0  0  0  0  0  0
    3.5329    0.6736    0.0000 C   0  0  0  0  0  0  0  0  0  0  0  0
    2.5019   -0.0137    0.0000 C   0  0  3  0  0  0  0  0  0  0  0  0
    4.6463   -0.4399    0.0000 C   0  0  0  0  0  0  0  0  0  0  0  0
    2.5019    1.2784    0.0000 C   0  0  0  0  0  0  0  0  0  0  0  0
    1.0584   -0.0413    0.0000 C   0  0  0  0  0  0  0  0  0  0  0  0
    0.3574   -0.4262    0.0000 C   0  0  3  0  0  0  0  0  0  0  0  0
    1.7871    1.7183    0.0000 C   0  0  0  0  0  0  0  0  0  0  0  0
    0.3574   -1.2647    0.0000 C   0  0  0  0  0  0  0  0  0  0  0  0
   -1.0584   -0.4124    0.0000 C   0  0  0  0  0  0  0  0  0  0  0  0
    1.0860   -1.6633    0.0000 C   0  0  0  0  0  0  0  0  0  0  0  0
   -1.8008   -0.0137    0.0000 C   0  0  3  0  0  0  0  0  0  0  0  0
    1.0723    1.3059    0.0000 C   0  0  0  0  0  0  0  0  0  0  0  0
    1.7871    2.5156    0.0000 C   0  0  0  0  0  0  0  0  0  0  0  0
   -3.2167   -0.0413    0.0000 C   0  0  0  0  0  0  0  0  0  0  0  0
   -3.9178   -0.4399    0.0000 C   0  0  0  0  0  0  0  0  0  0  0  0
    1.7733   -1.2647    0.0000 C   0  0  0  0  0  0  0  0  0  0  0  0
    1.0860   -2.4881    0.0000 C   0  0  0  0  0  0  0  0  0  0  0  0
    2.5019   -2.4743    0.0000 C   0  0  0  0  0  0  0  0  0  0  0  0
    0.3712    1.7045    0.0000 C   0  0  0  0  0  0  0  0  0  0  0  0
    1.0584    2.9280    0.0000 C   0  0  0  0  0  0  0  0  0  0  0  0
    2.5019   -1.6771    0.0000 C   0  0  0  0  0  0  0  0  0  0  0  0
    1.7871   -2.8868    0.0000 C   0  0  0  0  0  0  0  0  0  0  0  0
    0.3712    2.5156    0.0000 C   0  0  0  0  0  0  0  0  0  0  0  0
   -1.7733    0.8111    0.0000 C   0  0  0  0  0  0  0  0  0  0  0  0
   -4.6463   -0.0413    0.0000 C   0  0  0  0  0  0  0  0  0  0  0  0
    3.9452   -2.5019    0.0000 C   0  0  0  0  0  0  0  0  0  0  0  0
  1 28  1  0  0  0  0
  2 28  1  0  0  0  0
  3 12  1  0  0  0  0
  3 14  1  0  0  0  0
  4 13  2  0  0  0  0
  5 18  2  0  0  0  0
  6 22  2  0  0  0  0
  7 27  2  0  0  0  0
  8 31  1  0  0  0  0
  8 39  1  0  0  0  0
  9 15  1  0  0  0  0
  9 18  1  0  0  0  0
 10 19  1  0  0  0  0
 10 22  1  0  0  0  0
 11 24  1  0  0  0  0
 11 27  1  0  0  0  0
 12 13  1  0  0  0  0
 12 14  1  0  0  0  0
 12 16  1  0  0  0  0
 13 15  1  0  0  0  0
 15 17  1  0  0  0  0
 17 20  1  0  0  0  0
 18 19  1  0  0  0  0
 19 21  1  0  0  0  0
 20 25  2  0  0  0  0
 20 26  1  0  0  0  0
 21 23  1  0  0  0  0
 22 24  1  0  0  0  0
 23 29  2  0  0  0  0
 23 30  1  0  0  0  0
 24 37  1  0  0  0  0
 25 32  1  0  0  0  0
 26 33  2  0  0  0  0
 27 28  1  0  0  0  0
 28 38  1  0  0  0  0
 29 34  1  0  0  0  0
 30 35  2  0  0  0  0
 31 34  2  0  0  0  0
 31 35  1  0  0  0  0
 32 36  2  0  0  0  0
 33 36  1  0  0  0  0
M  END
> <PUBCHEM_COMPOUND_ID_TYPE>
0

> <PUBCHEM_TOTAL_CHARGE>
0

> <PUBCHEM_SUBSTANCE_ID>
310945818

> <PUBCHEM_SUBSTANCE_VERSION>
1

> <PUBCHEM_EXT_DATASOURCE_NAME>
4488

> <PUBCHEM_EXT_DATASOURCE_REGID>
SCHEMBL16123923

> <PUBCHEM_SUBSTANCE_COMMENT>
InChI=1S/C28H33F2N3O6/c1-17(31-26(37)28(3,29)30)24(35)33-22(15-19-10-12-20(38-4)13-11-19)25(36)32-21(23(34)27(2)16-39-27)14-18-8-6-5-7-9-18/h5-13,17,21-22H,14-16H2,1-4H3,(H,31,37)(H,32,36)(H,33,35)
InChIKey=BUDWESIQXIZMSN-UHFFFAOYSA-N

> <PUBCHEM_SUBSTANCE_SYNONYM>
SCHEMBL16123923

> <PUBCHEM_XREF_EXT_ID>
SCHEMBL16123923

> <PUBCHEM_EXT_DATASOURCE_URL>
https://www.surechembl.org/

> <PUBCHEM_EXT_SUBSTANCE_URL>
https://www.surechembl.org/chemical/SCHEMBL16123923

> <PUBCHEM_CID_ASSOCIATIONS>
117611804  1

> <PUBCHEM_COORDINATE_TYPE>
1
3

$$$$
