310947417
  -OEChem-07211613022D

 19 21  0     1  0  0  0  0  0999 V2000
   -0.7146    0.6184    0.0000 O   0  0  0  0  0  0  0  0  0  0  0  0
   -0.7146   -1.8827    0.0000 O   0  0  0  0  0  0  0  0  0  0  0  0
   -2.1438   -1.8827    0.0000 O   0  0  0  0  0  0  0  0  0  0  0  0
    2.8584    1.8827    0.0000 O   0  0  0  0  0  0  0  0  0  0  0  0
   -1.4430   -0.6046    0.0000 C   0  0  0  0  0  0  0  0  0  0  0  0
   -1.4292    0.2199    0.0000 C   0  0  0  0  0  0  0  0  0  0  0  0
    0.0000    0.2199    0.0000 C   0  0  3  0  0  0  0  0  0  0  0  0
   -0.7146   -1.0169    0.0000 C   0  0  0  0  0  0  0  0  0  0  0  0
   -2.1576   -1.0307    0.0000 C   0  0  0  0  0  0  0  0  0  0  0  0
   -0.0137   -0.6321    0.0000 C   0  0  0  0  0  0  0  0  0  0  0  0
    0.7146    0.6321    0.0000 C   0  0  0  0  0  0  0  0  0  0  0  0
   -2.1576    0.6184    0.0000 C   0  0  0  0  0  0  0  0  0  0  0  0
   -2.8584   -0.6184    0.0000 C   0  0  0  0  0  0  0  0  0  0  0  0
   -2.8584    0.2061    0.0000 C   0  0  0  0  0  0  0  0  0  0  0  0
    1.4430    0.2199    0.0000 C   0  0  0  0  0  0  0  0  0  0  0  0
    0.7146    1.4704    0.0000 C   0  0  0  0  0  0  0  0  0  0  0  0
    2.1438    1.4704    0.0000 C   0  0  0  0  0  0  0  0  0  0  0  0
    2.1301    0.6321    0.0000 C   0  0  0  0  0  0  0  0  0  0  0  0
    1.4155    1.8690    0.0000 C   0  0  0  0  0  0  0  0  0  0  0  0
  1  6  1  0  0  0  0
  1  7  1  0  0  0  0
  2  8  2  0  0  0  0
  3  9  1  0  0  0  0
  4 17  1  0  0  0  0
  5  6  1  0  0  0  0
  5  8  1  0  0  0  0
  5  9  2  0  0  0  0
  6 12  2  0  0  0  0
  7 10  1  0  0  0  0
  7 11  1  0  0  0  0
  8 10  1  0  0  0  0
  9 13  1  0  0  0  0
 11 15  2  0  0  0  0
 11 16  1  0  0  0  0
 12 14  1  0  0  0  0
 13 14  2  0  0  0  0
 15 18  1  0  0  0  0
 16 19  2  0  0  0  0
 17 18  2  0  0  0  0
 17 19  1  0  0  0  0
M  END
> <PUBCHEM_COMPOUND_ID_TYPE>
0

> <PUBCHEM_TOTAL_CHARGE>
0

> <PUBCHEM_SUBSTANCE_ID>
310947417

> <PUBCHEM_SUBSTANCE_VERSION>
1

> <PUBCHEM_EXT_DATASOURCE_NAME>
4488

> <PUBCHEM_EXT_DATASOURCE_REGID>
SCHEMBL16125578

> <PUBCHEM_SUBSTANCE_COMMENT>
InChI=1S/C15H12O4/c16-10-6-4-9(5-7-10)14-8-12(18)15-11(17)2-1-3-13(15)19-14/h1-7,14,16-17H,8H2
InChIKey=LOXUJSDOXFACIX-UHFFFAOYSA-N

> <PUBCHEM_SUBSTANCE_SYNONYM>
SCHEMBL16125578

> <PUBCHEM_XREF_EXT_ID>
SCHEMBL16125578

> <PUBCHEM_EXT_DATASOURCE_URL>
https://www.surechembl.org/

> <PUBCHEM_EXT_SUBSTANCE_URL>
https://www.surechembl.org/chemical/SCHEMBL16125578

> <PUBCHEM_CID_ASSOCIATIONS>
12365225  1

> <PUBCHEM_COORDINATE_TYPE>
1
3

$$$$
