310937004
  -OEChem-07211613022D

 10 11  0     1  0  0  0  0  0999 V2000
    0.0862   -2.4628    0.0000 O   0  0  0  0  0  0  0  0  0  0  0  0
    1.5639   -2.4628    0.0000 O   0  0  0  0  0  0  0  0  0  0  0  0
    0.8251   -1.1945    0.0000 N   0  0  0  0  0  0  0  0  0  0  0  0
    1.6501   -0.7142    0.0000 C   0  0  3  0  0  0  0  0  0  0  0  0
    0.0000   -0.7142    0.0000 C   0  0  3  0  0  0  0  0  0  0  0  0
    0.8251   -2.0441    0.0000 C   0  0  0  0  0  0  0  0  0  0  0  0
    0.4187    0.0000    0.0000 C   0  0  0  0  0  0  0  0  0  0  0  0
    1.2437    0.0000    0.0000 C   0  0  0  0  0  0  0  0  0  0  0  0
    1.2437   -1.4284    0.0000 C   0  0  0  0  0  0  0  0  0  0  0  0
    0.4187   -1.4284    0.0000 C   0  0  0  0  0  0  0  0  0  0  0  0
  1  6  2  0  0  0  0
  2  6  1  0  0  0  0
  3  4  1  0  0  0  0
  3  5  1  0  0  0  0
  3  6  1  0  0  0  0
  4  8  1  0  0  0  0
  4  9  1  0  0  0  0
  5  7  1  0  0  0  0
  5 10  1  0  0  0  0
  7  8  2  0  0  0  0
  9 10  1  0  0  0  0
M  END
> <PUBCHEM_COMPOUND_ID_TYPE>
0

> <PUBCHEM_TOTAL_CHARGE>
0

> <PUBCHEM_SUBSTANCE_ID>
310937004

> <PUBCHEM_SUBSTANCE_VERSION>
1

> <PUBCHEM_EXT_DATASOURCE_NAME>
4488

> <PUBCHEM_EXT_DATASOURCE_REGID>
SCHEMBL16114712

> <PUBCHEM_SUBSTANCE_COMMENT>
InChI=1S/C7H9NO2/c9-7(10)8-5-1-2-6(8)4-3-5/h1-2,5-6H,3-4H2,(H,9,10)
InChIKey=XSYWHYBWSKMIPO-UHFFFAOYSA-N

> <PUBCHEM_SUBSTANCE_SYNONYM>
SCHEMBL16114712

> <PUBCHEM_XREF_EXT_ID>
SCHEMBL16114712

> <PUBCHEM_EXT_DATASOURCE_URL>
https://www.surechembl.org/

> <PUBCHEM_EXT_SUBSTANCE_URL>
https://www.surechembl.org/chemical/SCHEMBL16114712

> <PUBCHEM_CID_ASSOCIATIONS>
117604860  1

> <PUBCHEM_COORDINATE_TYPE>
1
3

$$$$
