310937146
  -OEChem-07211613022D

 25 27  0     1  0  0  0  0  0999 V2000
    5.6360   -1.4385    0.0000 S   0  0  0  0  0  0  0  0  0  0  0  0
    2.1224   -2.7355    0.0000 O   0  0  0  0  0  0  0  0  0  0  0  0
    6.3670   -1.9337    0.0000 O   0  0  0  0  0  0  0  0  0  0  0  0
    7.0744   -3.1599    0.0000 O   0  0  0  0  0  0  0  0  0  0  0  0
    4.5512   -0.6603    0.0000 N   0  0  0  0  0  0  0  0  0  0  0  0
    4.9757   -2.7355    0.0000 C   0  0  3  0  0  0  0  0  0  0  0  0
    4.9757   -1.9337    0.0000 C   0  0  0  0  0  0  0  0  0  0  0  0
    4.2447   -3.1599    0.0000 C   0  0  0  0  0  0  0  0  0  0  0  0
    3.5372   -2.7590    0.0000 C   0  0  0  0  0  0  0  0  0  0  0  0
    4.3154   -1.4385    0.0000 C   0  0  0  0  0  0  0  0  0  0  0  0
    5.6596   -3.1599    0.0000 C   0  0  0  0  0  0  0  0  0  0  0  0
    2.8298   -3.1599    0.0000 C   0  0  0  0  0  0  0  0  0  0  0  0
    5.3530   -0.6603    0.0000 C   0  0  0  0  0  0  0  0  0  0  0  0
    4.2447   -3.9853    0.0000 C   0  0  0  0  0  0  0  0  0  0  0  0
    2.8298   -3.9617    0.0000 C   0  0  0  0  0  0  0  0  0  0  0  0
    3.5372   -4.3861    0.0000 C   0  0  0  0  0  0  0  0  0  0  0  0
    6.3670   -2.7355    0.0000 C   0  0  0  0  0  0  0  0  0  0  0  0
    2.1224   -1.9337    0.0000 C   0  0  0  0  0  0  0  0  0  0  0  0
    5.8482    0.0000    0.0000 C   0  0  0  0  0  0  0  0  0  0  0  0
    1.4149   -1.5092    0.0000 C   0  0  0  0  0  0  0  0  0  0  0  0
    1.4385   -0.6839    0.0000 C   0  0  0  0  0  0  0  0  0  0  0  0
    0.7074   -1.9101    0.0000 C   0  0  0  0  0  0  0  0  0  0  0  0
    0.7074   -0.2830    0.0000 C   0  0  0  0  0  0  0  0  0  0  0  0
    0.0000   -1.5092    0.0000 C   0  0  0  0  0  0  0  0  0  0  0  0
    0.0000   -0.6839    0.0000 C   0  0  0  0  0  0  0  0  0  0  0  0
  1  7  1  0  0  0  0
  1 13  1  0  0  0  0
  2 12  1  0  0  0  0
  2 18  1  0  0  0  0
  3 17  2  0  0  0  0
  4 17  1  0  0  0  0
  5 10  1  0  0  0  0
  5 13  2  0  0  0  0
  6  7  1  0  0  0  0
  6  8  1  0  0  0  0
  6 11  1  0  0  0  0
  7 10  2  0  0  0  0
  8  9  1  0  0  0  0
  8 14  2  0  0  0  0
  9 12  2  0  0  0  0
 11 17  1  0  0  0  0
 12 15  1  0  0  0  0
 13 19  1  0  0  0  0
 14 16  1  0  0  0  0
 15 16  2  0  0  0  0
 18 20  1  0  0  0  0
 20 21  2  0  0  0  0
 20 22  1  0  0  0  0
 21 23  1  0  0  0  0
 22 24  2  0  0  0  0
 23 25  2  0  0  0  0
 24 25  1  0  0  0  0
M  END
> <PUBCHEM_COMPOUND_ID_TYPE>
0

> <PUBCHEM_TOTAL_CHARGE>
0

> <PUBCHEM_SUBSTANCE_ID>
310937146

> <PUBCHEM_SUBSTANCE_VERSION>
1

> <PUBCHEM_EXT_DATASOURCE_NAME>
4488

> <PUBCHEM_EXT_DATASOURCE_REGID>
SCHEMBL16114867

> <PUBCHEM_SUBSTANCE_COMMENT>
InChI=1S/C20H19NO3S/c1-14-21-12-19(25-14)18(11-20(22)23)16-8-5-9-17(10-16)24-13-15-6-3-2-4-7-15/h2-10,12,18H,11,13H2,1H3,(H,22,23)
InChIKey=KHZALPCUSWFMPF-UHFFFAOYSA-N

> <PUBCHEM_SUBSTANCE_SYNONYM>
SCHEMBL16114867

> <PUBCHEM_XREF_EXT_ID>
SCHEMBL16114867

> <PUBCHEM_EXT_DATASOURCE_URL>
https://www.surechembl.org/

> <PUBCHEM_EXT_SUBSTANCE_URL>
https://www.surechembl.org/chemical/SCHEMBL16114867

> <PUBCHEM_CID_ASSOCIATIONS>
117604970  1

> <PUBCHEM_COORDINATE_TYPE>
1
3

$$$$
