310949314
  -OEChem-07211613022D

 16 18  0     1  0  0  0  0  0999 V2000
   -2.3503   -1.1446    0.0000 O   0  0  0  0  0  0  0  0  0  0  0  0
   -2.8614    0.1000    0.0000 O   0  0  0  0  0  0  0  0  0  0  0  0
    2.2391   -1.5335    0.0000 O   0  0  0  0  0  0  0  0  0  0  0  0
    2.8614   -0.2889    0.0000 O   0  0  0  0  0  0  0  0  0  0  0  0
    0.1166   -0.0667    0.0000 C   0  0  3  0  0  0  0  0  0  0  0  0
   -0.7278    0.1444    0.0000 C   0  0  3  0  0  0  0  0  0  0  0  0
    0.4834    0.6334    0.0000 C   0  0  3  0  0  0  0  0  0  0  0  0
   -0.2945    0.8668    0.0000 C   0  0  3  0  0  0  0  0  0  0  0  0
   -1.5057   -0.0667    0.0000 C   0  0  0  0  0  0  0  0  0  0  0  0
   -0.6945    1.5335    0.0000 C   0  0  0  0  0  0  0  0  0  0  0  0
   -1.0945    0.6334    0.0000 C   0  0  0  0  0  0  0  0  0  0  0  0
    0.6612   -0.6889    0.0000 C   0  0  0  0  0  0  0  0  0  0  0  0
    1.4168   -0.3556    0.0000 C   0  0  0  0  0  0  0  0  0  0  0  0
    1.3501    0.4667    0.0000 C   0  0  0  0  0  0  0  0  0  0  0  0
   -2.2280   -0.3445    0.0000 C   0  0  0  0  0  0  0  0  0  0  0  0
    2.1947   -0.7001    0.0000 C   0  0  0  0  0  0  0  0  0  0  0  0
  1 15  2  0  0  0  0
  2 15  1  0  0  0  0
  3 16  2  0  0  0  0
  4 16  1  0  0  0  0
  5  6  1  0  0  0  0
  5  7  1  0  0  0  0
  5 12  1  0  0  0  0
  6  9  1  0  0  0  0
  6 10  1  0  0  0  0
  7  8  1  0  0  0  0
  7 14  1  0  0  0  0
  8 10  1  0  0  0  0
  8 11  1  0  0  0  0
  9 11  2  0  0  0  0
  9 15  1  0  0  0  0
 12 13  2  0  0  0  0
 13 14  1  0  0  0  0
 13 16  1  0  0  0  0
M  END
> <PUBCHEM_COMPOUND_ID_TYPE>
0

> <PUBCHEM_TOTAL_CHARGE>
0

> <PUBCHEM_SUBSTANCE_ID>
310949314

> <PUBCHEM_SUBSTANCE_VERSION>
1

> <PUBCHEM_EXT_DATASOURCE_NAME>
4488

> <PUBCHEM_EXT_DATASOURCE_REGID>
SCHEMBL16127504

> <PUBCHEM_SUBSTANCE_COMMENT>
InChI=1S/C12H12O4/c13-11(14)6-3-7-5-1-9(8(7)4-6)10(2-5)12(15)16/h2,4-5,7-9H,1,3H2,(H,13,14)(H,15,16)
InChIKey=OHBKQYDZAJJZNC-UHFFFAOYSA-N

> <PUBCHEM_SUBSTANCE_SYNONYM>
SCHEMBL16127504

> <PUBCHEM_XREF_EXT_ID>
SCHEMBL16127504

> <PUBCHEM_EXT_DATASOURCE_URL>
https://www.surechembl.org/

> <PUBCHEM_EXT_SUBSTANCE_URL>
https://www.surechembl.org/chemical/SCHEMBL16127504

> <PUBCHEM_CID_ASSOCIATIONS>
18683437  1

> <PUBCHEM_COORDINATE_TYPE>
1
3

$$$$
