310945689
  -OEChem-07211613022D

 19 19  0     1  0  0  0  0  0999 V2000
    0.3434    0.6199    0.0000 N   0  0  0  0  0  0  0  0  0  0  0  0
   -1.0973    1.4408    0.0000 N   0  0  0  0  0  0  0  0  0  0  0  0
   -2.5213    0.6199    0.0000 N   0  0  0  0  0  0  0  0  0  0  0  0
    1.0806    0.2345    0.0000 C   0  0  0  0  0  0  0  0  0  0  0  0
    1.7842    0.6366    0.0000 C   0  0  0  0  0  0  0  0  0  0  0  0
    1.0471   -0.6031    0.0000 C   0  0  0  0  0  0  0  0  0  0  0  0
    2.5046    0.2345    0.0000 C   0  0  0  0  0  0  0  0  0  0  0  0
    1.8009   -1.0052    0.0000 C   0  0  0  0  0  0  0  0  0  0  0  0
    2.4878   -0.5864    0.0000 C   0  0  0  0  0  0  0  0  0  0  0  0
    1.7842    1.4910    0.0000 C   0  0  0  0  0  0  0  0  0  0  0  0
    0.3434   -1.0554    0.0000 C   0  0  0  0  0  0  0  0  0  0  0  0
    3.2250    0.6366    0.0000 C   0  0  0  0  0  0  0  0  0  0  0  0
    1.7842   -1.8764    0.0000 C   0  0  0  0  0  0  0  0  0  0  0  0
    3.2250   -1.0554    0.0000 C   0  0  0  0  0  0  0  0  0  0  0  0
    0.3434    1.4743    0.0000 C   0  0  0  0  0  0  0  0  0  0  0  0
   -0.3769    1.8764    0.0000 C   0  0  0  0  0  0  0  0  0  0  0  0
   -1.8009    1.8764    0.0000 C   0  0  0  0  0  0  0  0  0  0  0  0
   -2.5046    1.4743    0.0000 C   0  0  3  0  0  0  0  0  0  0  0  0
   -3.2250    1.8596    0.0000 C   0  0  0  0  0  0  0  0  0  0  0  0
  1  4  1  0  0  0  0
  1 15  1  0  0  0  0
  2 16  1  0  0  0  0
  2 17  1  0  0  0  0
  3 18  1  0  0  0  0
  4  5  2  0  0  0  0
  4  6  1  0  0  0  0
  5  7  1  0  0  0  0
  5 10  1  0  0  0  0
  6  8  2  0  0  0  0
  6 11  1  0  0  0  0
  7  9  2  0  0  0  0
  7 12  1  0  0  0  0
  8  9  1  0  0  0  0
  8 13  1  0  0  0  0
  9 14  1  0  0  0  0
 15 16  1  0  0  0  0
 17 18  1  0  0  0  0
 18 19  1  0  0  0  0
M  END
> <PUBCHEM_COMPOUND_ID_TYPE>
0

> <PUBCHEM_TOTAL_CHARGE>
0

> <PUBCHEM_SUBSTANCE_ID>
310945689

> <PUBCHEM_SUBSTANCE_VERSION>
1

> <PUBCHEM_EXT_DATASOURCE_NAME>
4488

> <PUBCHEM_EXT_DATASOURCE_REGID>
SCHEMBL16123790

> <PUBCHEM_SUBSTANCE_COMMENT>
InChI=1S/C16H29N3/c1-10(17)9-18-7-8-19-16-14(5)12(3)11(2)13(4)15(16)6/h10,18-19H,7-9,17H2,1-6H3
InChIKey=XWBYFMWHNVBALW-UHFFFAOYSA-N

> <PUBCHEM_SUBSTANCE_SYNONYM>
SCHEMBL16123790

> <PUBCHEM_XREF_EXT_ID>
SCHEMBL16123790

> <PUBCHEM_EXT_DATASOURCE_URL>
https://www.surechembl.org/

> <PUBCHEM_EXT_SUBSTANCE_URL>
https://www.surechembl.org/chemical/SCHEMBL16123790

> <PUBCHEM_CID_ASSOCIATIONS>
117611686  1

> <PUBCHEM_COORDINATE_TYPE>
1
3

$$$$
