310935984
  -OEChem-07211613022D

 42 45  0     1  0  0  0  0  0999 V2000
   -2.2539   -1.0461    0.0000 O   0  0  0  0  0  0  0  0  0  0  0  0
    0.2211   -3.9039    0.0000 O   0  0  0  0  0  0  0  0  0  0  0  0
   -4.7289   -1.0461    0.0000 O   0  0  0  0  0  0  0  0  0  0  0  0
   -3.4914   -0.3316    0.0000 O   0  0  0  0  0  0  0  0  0  0  0  0
    3.5211    0.3829    0.0000 O   0  0  0  0  0  0  0  0  0  0  0  0
   -1.0164   -3.1895    0.0000 N   0  0  0  0  0  0  0  0  0  0  0  0
   -0.1960   -4.7046    0.0000 N   0  0  0  0  0  0  0  0  0  0  0  0
   -1.3520   -5.3721    0.0000 N   0  0  0  0  0  0  0  0  0  0  0  0
   -0.1914   -1.7605    0.0000 N   0  0  0  0  0  0  0  0  0  0  0  0
    2.2836    1.0974    0.0000 N   0  0  0  0  0  0  0  0  0  0  0  0
   -1.4289   -3.9039    0.0000 C   0  0  3  0  0  0  0  0  0  0  0  0
   -1.0164   -4.6184    0.0000 C   0  0  0  0  0  0  0  0  0  0  0  0
   -0.1914   -3.1895    0.0000 C   0  0  0  0  0  0  0  0  0  0  0  0
   -2.2539   -2.4750    0.0000 C   0  0  0  0  0  0  0  0  0  0  0  0
   -1.4289   -2.4750    0.0000 C   0  0  0  0  0  0  0  0  0  0  0  0
   -2.6664   -1.7605    0.0000 C   0  0  0  0  0  0  0  0  0  0  0  0
    0.2211   -2.4750    0.0000 C   0  0  3  0  0  0  0  0  0  0  0  0
   -0.0244   -5.5116    0.0000 C   0  0  0  0  0  0  0  0  0  0  0  0
   -3.4914   -1.7605    0.0000 C   0  0  0  0  0  0  0  0  0  0  0  0
    1.4586   -1.7605    0.0000 C   0  0  0  0  0  0  0  0  0  0  0  0
    1.0461   -2.4750    0.0000 C   0  0  0  0  0  0  0  0  0  0  0  0
   -0.7389   -5.9241    0.0000 C   0  0  0  0  0  0  0  0  0  0  0  0
    0.7292   -5.8472    0.0000 C   0  0  0  0  0  0  0  0  0  0  0  0
    2.2836   -1.7605    0.0000 C   0  0  0  0  0  0  0  0  0  0  0  0
    1.0461   -1.0461    0.0000 C   0  0  0  0  0  0  0  0  0  0  0  0
   -2.6664   -3.1895    0.0000 C   0  0  0  0  0  0  0  0  0  0  0  0
   -3.9039   -2.4750    0.0000 C   0  0  0  0  0  0  0  0  0  0  0  0
    2.2836   -0.3316    0.0000 C   0  0  0  0  0  0  0  0  0  0  0  0
   -3.9039   -1.0461    0.0000 C   0  0  0  0  0  0  0  0  0  0  0  0
   -2.2539   -3.9039    0.0000 C   0  0  0  0  0  0  0  0  0  0  0  0
    2.6961   -1.0461    0.0000 C   0  0  0  0  0  0  0  0  0  0  0  0
    1.4586   -0.3316    0.0000 C   0  0  0  0  0  0  0  0  0  0  0  0
   -3.4914   -3.1895    0.0000 C   0  0  0  0  0  0  0  0  0  0  0  0
    0.8155   -6.6677    0.0000 C   0  0  0  0  0  0  0  0  0  0  0  0
    1.3967   -5.3623    0.0000 C   0  0  0  0  0  0  0  0  0  0  0  0
    2.6961    0.3829    0.0000 C   0  0  0  0  0  0  0  0  0  0  0  0
    2.6961   -2.4750    0.0000 C   0  0  0  0  0  0  0  0  0  0  0  0
    0.2211   -1.0461    0.0000 C   0  0  0  0  0  0  0  0  0  0  0  0
    1.5692   -7.0032    0.0000 C   0  0  0  0  0  0  0  0  0  0  0  0
    2.1504   -5.6978    0.0000 C   0  0  0  0  0  0  0  0  0  0  0  0
   -2.6664   -0.3316    0.0000 C   0  0  0  0  0  0  0  0  0  0  0  0
    2.2366   -6.5183    0.0000 C   0  0  0  0  0  0  0  0  0  0  0  0
  1 16  1  0  0  0  0
  1 41  1  0  0  0  0
  2 13  2  0  0  0  0
  3 29  2  0  0  0  0
  4 29  1  0  0  0  0
  5 36  2  0  0  0  0
  6 11  1  0  0  0  0
  6 13  1  0  0  0  0
  6 15  1  0  0  0  0
  7 12  2  0  0  0  0
  7 18  1  0  0  0  0
  8 12  1  0  0  0  0
  8 22  1  0  0  0  0
  9 17  1  0  0  0  0
 10 36  1  0  0  0  0
 11 12  1  0  0  0  0
 11 30  1  0  0  0  0
 13 17  1  0  0  0  0
 14 15  1  0  0  0  0
 14 16  1  0  0  0  0
 14 26  2  0  0  0  0
 16 19  2  0  0  0  0
 17 21  1  0  0  0  0
 18 22  2  0  0  0  0
 18 23  1  0  0  0  0
 19 27  1  0  0  0  0
 19 29  1  0  0  0  0
 20 21  1  0  0  0  0
 20 24  2  0  0  0  0
 20 25  1  0  0  0  0
 23 34  2  0  0  0  0
 23 35  1  0  0  0  0
 24 31  1  0  0  0  0
 24 37  1  0  0  0  0
 25 32  2  0  0  0  0
 25 38  1  0  0  0  0
 26 33  1  0  0  0  0
 27 33  2  0  0  0  0
 28 31  2  0  0  0  0
 28 32  1  0  0  0  0
 28 36  1  0  0  0  0
 34 39  1  0  0  0  0
 35 40  2  0  0  0  0
 39 42  2  0  0  0  0
 40 42  1  0  0  0  0
M  END
> <PUBCHEM_COMPOUND_ID_TYPE>
0

> <PUBCHEM_TOTAL_CHARGE>
0

> <PUBCHEM_SUBSTANCE_ID>
310935984

> <PUBCHEM_SUBSTANCE_VERSION>
1

> <PUBCHEM_EXT_DATASOURCE_NAME>
4488

> <PUBCHEM_EXT_DATASOURCE_REGID>
SCHEMBL16113585

> <PUBCHEM_SUBSTANCE_COMMENT>
InChI=1S/C32H35N5O5/c1-18-13-23(29(34)38)14-19(2)25(18)15-26(33)31(39)37(17-22-11-8-12-24(32(40)41)28(22)42-4)20(3)30-35-16-27(36-30)21-9-6-5-7-10-21/h5-14,16,20,26H,15,17,33H2,1-4H3,(H2,34,38)(H,35,36)(H,40,41)
InChIKey=LMQBMVSRAONGHU-UHFFFAOYSA-N

> <PUBCHEM_SUBSTANCE_SYNONYM>
SCHEMBL16113585

> <PUBCHEM_XREF_EXT_ID>
SCHEMBL16113585

> <PUBCHEM_EXT_DATASOURCE_URL>
https://www.surechembl.org/

> <PUBCHEM_EXT_SUBSTANCE_URL>
https://www.surechembl.org/chemical/SCHEMBL16113585

> <PUBCHEM_CID_ASSOCIATIONS>
117603958  1

> <PUBCHEM_COORDINATE_TYPE>
1
3

$$$$
