310932180
  -OEChem-07211613022D

 19 21  0     1  0  0  0  0  0999 V2000
    3.2779    0.0000    0.0000 O   0  0  0  0  0  0  0  0  0  0  0  0
    4.3977   -1.9545    0.0000 O   0  0  0  0  0  0  0  0  0  0  0  0
    5.1102   -0.7329    0.0000 O   0  0  0  0  0  0  0  0  0  0  0  0
    0.0000   -2.3821    0.0000 O   0  0  0  0  0  0  0  0  0  0  0  0
    3.6851   -0.7329    0.0000 C   0  0  3  0  0  0  0  0  0  0  0  0
    2.8504   -0.7329    0.0000 C   0  0  3  0  0  0  0  0  0  0  0  0
    4.3977   -1.1401    0.0000 C   0  0  0  0  0  0  0  0  0  0  0  0
    2.1377   -1.1401    0.0000 C   0  0  0  0  0  0  0  0  0  0  0  0
    3.4611   -1.5270    0.0000 C   0  0  0  0  0  0  0  0  0  0  0  0
    2.1377   -1.9749    0.0000 C   0  0  0  0  0  0  0  0  0  0  0  0
    1.4252   -0.7329    0.0000 C   0  0  0  0  0  0  0  0  0  0  0  0
    5.1102   -2.3821    0.0000 C   0  0  0  0  0  0  0  0  0  0  0  0
    1.4252   -2.3821    0.0000 C   0  0  0  0  0  0  0  0  0  0  0  0
    0.7329   -1.1401    0.0000 C   0  0  0  0  0  0  0  0  0  0  0  0
    0.7126   -1.9545    0.0000 C   0  0  0  0  0  0  0  0  0  0  0  0
    5.8839   -2.1581    0.0000 C   0  0  0  0  0  0  0  0  0  0  0  0
    5.3139   -3.1965    0.0000 C   0  0  0  0  0  0  0  0  0  0  0  0
    6.1079   -2.9725    0.0000 C   0  0  0  0  0  0  0  0  0  0  0  0
    0.0000   -3.1965    0.0000 C   0  0  0  0  0  0  0  0  0  0  0  0
  1  5  1  0  0  0  0
  1  6  1  0  0  0  0
  2  7  1  0  0  0  0
  2 12  1  0  0  0  0
  3  7  2  0  0  0  0
  4 15  1  0  0  0  0
  4 19  1  0  0  0  0
  5  6  1  0  0  0  0
  5  7  1  0  0  0  0
  5  9  1  0  0  0  0
  6  8  1  0  0  0  0
  8 10  2  0  0  0  0
  8 11  1  0  0  0  0
 10 13  1  0  0  0  0
 11 14  2  0  0  0  0
 12 16  1  0  0  0  0
 12 17  1  0  0  0  0
 13 15  2  0  0  0  0
 14 15  1  0  0  0  0
 16 18  1  0  0  0  0
 17 18  1  0  0  0  0
M  END
> <PUBCHEM_COMPOUND_ID_TYPE>
0

> <PUBCHEM_TOTAL_CHARGE>
0

> <PUBCHEM_SUBSTANCE_ID>
310932180

> <PUBCHEM_SUBSTANCE_VERSION>
1

> <PUBCHEM_EXT_DATASOURCE_NAME>
4488

> <PUBCHEM_EXT_DATASOURCE_REGID>
SCHEMBL16109534

> <PUBCHEM_SUBSTANCE_COMMENT>
InChI=1S/C15H18O4/c1-15(14(16)18-12-4-3-5-12)13(19-15)10-6-8-11(17-2)9-7-10/h6-9,12-13H,3-5H2,1-2H3
InChIKey=XUUGUURLZHVFEK-UHFFFAOYSA-N

> <PUBCHEM_SUBSTANCE_SYNONYM>
SCHEMBL16109534

> <PUBCHEM_XREF_EXT_ID>
SCHEMBL16109534

> <PUBCHEM_EXT_DATASOURCE_URL>
https://www.surechembl.org/

> <PUBCHEM_EXT_SUBSTANCE_URL>
https://www.surechembl.org/chemical/SCHEMBL16109534

> <PUBCHEM_CID_ASSOCIATIONS>
117600776  1

> <PUBCHEM_COORDINATE_TYPE>
1
3

$$$$
