310931178
  -OEChem-07211613022D

 32 36  0     1  0  0  0  0  0999 V2000
    3.1381   -0.6864    0.0000 O   0  0  0  0  0  0  0  0  0  0  0  0
    6.2435   -2.1574    0.0000 O   0  0  0  0  0  0  0  0  0  0  0  0
    2.1247   -1.7325    0.0000 N   0  0  0  0  0  0  0  0  0  0  0  0
    2.9419   -2.8112    0.0000 N   0  0  0  0  0  0  0  0  0  0  0  0
    1.4710   -3.0727    0.0000 N   0  0  0  0  0  0  0  0  0  0  0  0
    9.8065   -0.0981    0.0000 N   0  0  0  0  0  0  0  0  0  0  0  0
    3.3996   -2.1574    0.0000 C   0  0  3  0  0  0  0  0  0  0  0  0
    2.9093   -1.4710    0.0000 C   0  0  0  0  0  0  0  0  0  0  0  0
    3.7592   -1.4056    0.0000 C   0  0  0  0  0  0  0  0  0  0  0  0
    4.1187   -2.5497    0.0000 C   0  0  0  0  0  0  0  0  0  0  0  0
    2.1247   -2.5824    0.0000 C   0  0  0  0  0  0  0  0  0  0  0  0
    3.6938   -0.5884    0.0000 C   0  0  0  0  0  0  0  0  0  0  0  0
    4.4456   -0.9153    0.0000 C   0  0  0  0  0  0  0  0  0  0  0  0
    1.4383   -1.2748    0.0000 C   0  0  0  0  0  0  0  0  0  0  0  0
    4.8052   -2.1574    0.0000 C   0  0  0  0  0  0  0  0  0  0  0  0
    4.0860   -3.3669    0.0000 C   0  0  0  0  0  0  0  0  0  0  0  0
    5.5243   -2.5824    0.0000 C   0  0  0  0  0  0  0  0  0  0  0  0
    0.6864   -1.6344    0.0000 C   0  0  0  0  0  0  0  0  0  0  0  0
    1.5036   -0.4576    0.0000 C   0  0  0  0  0  0  0  0  0  0  0  0
    4.8052   -3.7918    0.0000 C   0  0  0  0  0  0  0  0  0  0  0  0
    5.5243   -3.3996    0.0000 C   0  0  0  0  0  0  0  0  0  0  0  0
    0.0000   -1.1768    0.0000 C   0  0  0  0  0  0  0  0  0  0  0  0
    0.8172    0.0000    0.0000 C   0  0  0  0  0  0  0  0  0  0  0  0
    0.0654   -0.3269    0.0000 C   0  0  0  0  0  0  0  0  0  0  0  0
    6.9626   -2.5824    0.0000 C   0  0  0  0  0  0  0  0  0  0  0  0
    7.6818   -2.1574    0.0000 C   0  0  0  0  0  0  0  0  0  0  0  0
    7.6818   -1.3402    0.0000 C   0  0  0  0  0  0  0  0  0  0  0  0
    8.4009   -2.5824    0.0000 C   0  0  0  0  0  0  0  0  0  0  0  0
    9.1201   -1.3402    0.0000 C   0  0  0  0  0  0  0  0  0  0  0  0
    8.4009   -0.9153    0.0000 C   0  0  0  0  0  0  0  0  0  0  0  0
    9.1201   -2.1574    0.0000 C   0  0  0  0  0  0  0  0  0  0  0  0
    9.8065   -0.9153    0.0000 C   0  0  0  0  0  0  0  0  0  0  0  0
  1  8  2  0  0  0  0
  2 17  1  0  0  0  0
  2 25  1  0  0  0  0
  3  8  1  0  0  0  0
  3 11  1  0  0  0  0
  3 14  1  0  0  0  0
  4  7  1  0  0  0  0
  4 11  1  0  0  0  0
  5 11  2  3  0  0  0
  6 32  3  0  0  0  0
  7  8  1  0  0  0  0
  7  9  1  0  0  0  0
  7 10  1  0  0  0  0
  9 12  1  0  0  0  0
  9 13  1  0  0  0  0
 10 15  1  0  0  0  0
 10 16  2  0  0  0  0
 12 13  1  0  0  0  0
 14 18  1  0  0  0  0
 14 19  1  0  0  0  0
 15 17  2  0  0  0  0
 16 20  1  0  0  0  0
 17 21  1  0  0  0  0
 18 22  1  0  0  0  0
 19 23  1  0  0  0  0
 20 21  2  0  0  0  0
 22 24  1  0  0  0  0
 23 24  1  0  0  0  0
 25 26  1  0  0  0  0
 26 27  2  0  0  0  0
 26 28  1  0  0  0  0
 27 30  1  0  0  0  0
 28 31  2  0  0  0  0
 29 30  2  0  0  0  0
 29 31  1  0  0  0  0
 29 32  1  0  0  0  0
M  END
> <PUBCHEM_COMPOUND_ID_TYPE>
0

> <PUBCHEM_TOTAL_CHARGE>
0

> <PUBCHEM_SUBSTANCE_ID>
310931178

> <PUBCHEM_SUBSTANCE_VERSION>
1

> <PUBCHEM_EXT_DATASOURCE_NAME>
4488

> <PUBCHEM_EXT_DATASOURCE_REGID>
SCHEMBL16108487

> <PUBCHEM_SUBSTANCE_COMMENT>
InChI=1S/C26H28N4O2/c27-16-18-9-11-19(12-10-18)17-32-23-8-4-5-21(15-23)26(20-13-14-20)24(31)30(25(28)29-26)22-6-2-1-3-7-22/h4-5,8-12,15,20,22H,1-3,6-7,13-14,17H2,(H2,28,29)
InChIKey=IUZOJUBGCBHASF-UHFFFAOYSA-N

> <PUBCHEM_SUBSTANCE_SYNONYM>
SCHEMBL16108487

> <PUBCHEM_XREF_EXT_ID>
SCHEMBL16108487

> <PUBCHEM_EXT_DATASOURCE_URL>
https://www.surechembl.org/

> <PUBCHEM_EXT_SUBSTANCE_URL>
https://www.surechembl.org/chemical/SCHEMBL16108487

> <PUBCHEM_CID_ASSOCIATIONS>
117600038  1

> <PUBCHEM_COORDINATE_TYPE>
1
3

$$$$
