310941470
  -OEChem-07211613022D

 14 13  0     1  0  0  0  0  0999 V2000
   -0.6829    1.3844    0.0000 P   0  0  3  0  0  0  0  0  0  0  0  0
   -0.2769    0.6707    0.0000 O   0  0  0  0  0  0  0  0  0  0  0  0
    0.1292    1.3844    0.0000 O   0  0  0  0  0  0  0  0  0  0  0  0
    0.5599   -0.7445    0.0000 O   0  0  0  0  0  0  0  0  0  0  0  0
   -0.6583   -1.5199    0.0000 O   0  0  0  0  0  0  0  0  0  0  0  0
   -0.6829    2.1966    0.0000 O   0  0  0  0  0  0  0  0  0  0  0  0
   -0.6707   -0.0431    0.0000 C   0  0  3  0  0  0  0  0  0  0  0  0
   -0.2646   -0.7568    0.0000 C   0  0  0  0  0  0  0  0  0  0  0  0
   -1.7412   -0.0431    0.0000 C   0  0  0  0  0  0  0  0  0  0  0  0
    0.5476    0.6829    0.0000 C   0  0  0  0  0  0  0  0  0  0  0  0
    1.0029   -1.4583    0.0000 C   0  0  0  0  0  0  0  0  0  0  0  0
    1.3844    0.6583    0.0000 C   0  0  0  0  0  0  0  0  0  0  0  0
    0.6338   -2.1966    0.0000 C   0  0  0  0  0  0  0  0  0  0  0  0
    1.7412   -0.0554    0.0000 C   0  0  0  0  0  0  0  0  0  0  0  0
  1  2  1  0  0  0  0
  1  3  1  0  0  0  0
  1  6  2  0  0  0  0
  2  7  1  0  0  0  0
  3 10  1  0  0  0  0
  4  8  1  0  0  0  0
  4 11  1  0  0  0  0
  5  8  2  0  0  0  0
  7  8  1  0  0  0  0
  7  9  1  0  0  0  0
 10 12  1  0  0  0  0
 11 13  1  0  0  0  0
 12 14  2  0  0  0  0
M  END
> <PUBCHEM_COMPOUND_ID_TYPE>
0

> <PUBCHEM_TOTAL_CHARGE>
0

> <PUBCHEM_SUBSTANCE_ID>
310941470

> <PUBCHEM_SUBSTANCE_VERSION>
1

> <PUBCHEM_EXT_DATASOURCE_NAME>
4488

> <PUBCHEM_EXT_DATASOURCE_REGID>
SCHEMBL16119501

> <PUBCHEM_SUBSTANCE_COMMENT>
InChI=1S/C8H15O5P/c1-4-6-12-14(10)13-7(3)8(9)11-5-2/h4,7,14H,1,5-6H2,2-3H3
InChIKey=QNKPJKFDSXGYPM-UHFFFAOYSA-N

> <PUBCHEM_SUBSTANCE_SYNONYM>
SCHEMBL16119501

> <PUBCHEM_XREF_EXT_ID>
SCHEMBL16119501

> <PUBCHEM_EXT_DATASOURCE_URL>
https://www.surechembl.org/

> <PUBCHEM_EXT_SUBSTANCE_URL>
https://www.surechembl.org/chemical/SCHEMBL16119501

> <PUBCHEM_CID_ASSOCIATIONS>
117608292  1

> <PUBCHEM_COORDINATE_TYPE>
1
3

$$$$
