310943861
  -OEChem-07211613022D

 31 34  0     1  0  0  0  0  0999 V2000
    0.9943    1.9887    0.0000 Cl  0  0  0  0  0  0  0  0  0  0  0  0
    3.1980    0.5375    0.0000 N   0  0  3  0  0  0  0  0  0  0  0  0
   -3.2652   -1.5318    0.0000 N   0  0  3  0  0  0  0  0  0  0  0  0
    4.9582    0.0000    0.0000 N   0  0  3  0  0  0  0  0  0  0  0  0
   -5.0388   -0.9809    0.0000 N   0  0  3  0  0  0  0  0  0  0  0  0
    0.2822   -0.2822    0.0000 C   0  0  0  0  0  0  0  0  0  0  0  0
   -0.4300   -0.6987    0.0000 C   0  0  0  0  0  0  0  0  0  0  0  0
    1.7065    0.5643    0.0000 C   0  0  0  0  0  0  0  0  0  0  0  0
    0.9943    0.9540    0.0000 C   0  0  0  0  0  0  0  0  0  0  0  0
    0.3091    0.5509    0.0000 C   0  0  0  0  0  0  0  0  0  0  0  0
    1.0078   -0.6853    0.0000 C   0  0  0  0  0  0  0  0  0  0  0  0
    1.6931   -0.2822    0.0000 C   0  0  0  0  0  0  0  0  0  0  0  0
   -1.8543   -1.5318    0.0000 C   0  0  0  0  0  0  0  0  0  0  0  0
    2.4052    0.9540    0.0000 C   0  0  0  0  0  0  0  0  0  0  0  0
   -1.1556   -0.2956    0.0000 C   0  0  0  0  0  0  0  0  0  0  0  0
   -0.4300   -1.5318    0.0000 C   0  0  0  0  0  0  0  0  0  0  0  0
   -1.8409   -0.6987    0.0000 C   0  0  0  0  0  0  0  0  0  0  0  0
   -1.1287   -1.9349    0.0000 C   0  0  0  0  0  0  0  0  0  0  0  0
   -2.5396   -1.9349    0.0000 C   0  0  0  0  0  0  0  0  0  0  0  0
    3.5070   -0.2284    0.0000 C   0  0  0  0  0  0  0  0  0  0  0  0
    3.6145    1.2496    0.0000 C   0  0  0  0  0  0  0  0  0  0  0  0
   -3.9236   -1.9887    0.0000 C   0  0  0  0  0  0  0  0  0  0  0  0
   -3.2114   -0.6987    0.0000 C   0  0  0  0  0  0  0  0  0  0  0  0
    4.2998   -0.4703    0.0000 C   0  0  0  0  0  0  0  0  0  0  0  0
    4.4073    1.3706    0.0000 C   0  0  0  0  0  0  0  0  0  0  0  0
    5.0120    0.8197    0.0000 C   0  0  0  0  0  0  0  0  0  0  0  0
   -4.7298   -1.7603    0.0000 C   0  0  0  0  0  0  0  0  0  0  0  0
   -3.8161   -0.1478    0.0000 C   0  0  0  0  0  0  0  0  0  0  0  0
   -4.6088   -0.2687    0.0000 C   0  0  0  0  0  0  0  0  0  0  0  0
    5.8450   -0.5241    0.0000 C   0  0  0  0  0  0  0  0  0  0  0  0
   -5.8450   -0.9943    0.0000 C   0  0  0  0  0  0  0  0  0  0  0  0
  1  9  1  0  0  0  0
  2 14  1  0  0  0  0
  2 20  1  0  0  0  0
  2 21  1  0  0  0  0
  3 19  1  0  0  0  0
  3 22  1  0  0  0  0
  3 23  1  0  0  0  0
  4 24  1  0  0  0  0
  4 26  1  0  0  0  0
  4 30  1  0  0  0  0
  5 27  1  0  0  0  0
  5 29  1  0  0  0  0
  5 31  1  0  0  0  0
  6  7  1  0  0  0  0
  6 10  1  0  0  0  0
  6 11  2  0  0  0  0
  7 15  2  0  0  0  0
  7 16  1  0  0  0  0
  8  9  1  0  0  0  0
  8 12  2  0  0  0  0
  8 14  1  0  0  0  0
  9 10  2  0  0  0  0
 11 12  1  0  0  0  0
 13 17  2  0  0  0  0
 13 18  1  0  0  0  0
 13 19  1  0  0  0  0
 15 17  1  0  0  0  0
 16 18  2  0  0  0  0
 20 24  1  0  0  0  0
 21 25  1  0  0  0  0
 22 27  1  0  0  0  0
 23 28  1  0  0  0  0
 25 26  1  0  0  0  0
 28 29  1  0  0  0  0
M  END
> <PUBCHEM_COMPOUND_ID_TYPE>
0

> <PUBCHEM_TOTAL_CHARGE>
0

> <PUBCHEM_SUBSTANCE_ID>
310943861

> <PUBCHEM_SUBSTANCE_VERSION>
1

> <PUBCHEM_EXT_DATASOURCE_NAME>
4488

> <PUBCHEM_EXT_DATASOURCE_REGID>
SCHEMBL16121932

> <PUBCHEM_SUBSTANCE_COMMENT>
InChI=1S/C26H37ClN4/c1-28-11-3-13-30(17-15-28)20-22-5-7-23(8-6-22)24-9-10-25(26(27)19-24)21-31-14-4-12-29(2)16-18-31/h5-10,19H,3-4,11-18,20-21H2,1-2H3
InChIKey=FHQNFMXCPJYSPV-UHFFFAOYSA-N

> <PUBCHEM_SUBSTANCE_SYNONYM>
SCHEMBL16121932

> <PUBCHEM_XREF_EXT_ID>
SCHEMBL16121932

> <PUBCHEM_EXT_DATASOURCE_URL>
https://www.surechembl.org/

> <PUBCHEM_EXT_SUBSTANCE_URL>
https://www.surechembl.org/chemical/SCHEMBL16121932

> <PUBCHEM_CID_ASSOCIATIONS>
117610193  1

> <PUBCHEM_COORDINATE_TYPE>
1
3

$$$$
