310941895
  -OEChem-07211613022D

 18 17  0     1  0  0  0  0  0999 V2000
    0.4724   -1.6298    0.0000 O   0  0  0  0  0  0  0  0  0  0  0  0
   -1.5825   -1.6298    0.0000 O   0  0  0  0  0  0  0  0  0  0  0  0
   -0.5196    0.1889    0.0000 C   0  0  3  0  0  0  0  0  0  0  0  0
   -0.5433   -1.0156    0.0000 C   0  0  0  0  0  0  0  0  0  0  0  0
   -1.5589    0.7322    0.0000 C   0  0  0  0  0  0  0  0  0  0  0  0
    0.2362    0.5196    0.0000 C   0  0  0  0  0  0  0  0  0  0  0  0
   -2.0785    0.4487    0.0000 C   0  0  0  0  0  0  0  0  0  0  0  0
    1.5117   -1.0156    0.0000 C   0  0  0  0  0  0  0  0  0  0  0  0
   -0.8503    1.2755    0.0000 C   0  0  0  0  0  0  0  0  0  0  0  0
   -2.0785    1.1574    0.0000 C   0  0  0  0  0  0  0  0  0  0  0  0
    0.8740    0.8503    0.0000 C   0  0  0  0  0  0  0  0  0  0  0  0
    0.0473   -0.0236    0.0000 C   0  0  0  0  0  0  0  0  0  0  0  0
   -1.8896    0.0236    0.0000 C   0  0  0  0  0  0  0  0  0  0  0  0
   -2.5510    0.1417    0.0000 C   0  0  0  0  0  0  0  0  0  0  0  0
    1.5353    0.1417    0.0000 C   0  0  0  0  0  0  0  0  0  0  0  0
    2.5274   -0.4251    0.0000 C   0  0  0  0  0  0  0  0  0  0  0  0
    2.5510   -1.6062    0.0000 C   0  0  0  0  0  0  0  0  0  0  0  0
   -1.8896    1.6298    0.0000 C   0  0  0  0  0  0  0  0  0  0  0  0
  1  4  1  0  0  0  0
  1  8  1  0  0  0  0
  2  4  2  0  0  0  0
  3  4  1  0  0  0  0
  3  5  1  0  0  0  0
  3  6  1  0  0  0  0
  3  9  1  0  0  0  0
  5  7  1  0  0  0  0
  6 11  1  0  0  0  0
  6 12  1  0  0  0  0
  7 10  1  0  0  0  0
  7 13  1  0  0  0  0
  7 14  1  0  0  0  0
  8 15  1  0  0  0  0
  8 16  1  0  0  0  0
  8 17  1  0  0  0  0
 10 18  1  0  0  0  0
M  END
> <PUBCHEM_COMPOUND_ID_TYPE>
0

> <PUBCHEM_TOTAL_CHARGE>
0

> <PUBCHEM_SUBSTANCE_ID>
310941895

> <PUBCHEM_SUBSTANCE_VERSION>
1

> <PUBCHEM_EXT_DATASOURCE_NAME>
4488

> <PUBCHEM_EXT_DATASOURCE_REGID>
SCHEMBL16119927

> <PUBCHEM_SUBSTANCE_COMMENT>
InChI=1S/C16H32O2/c1-10-15(7,8)11-16(9,12(2)3)13(17)18-14(4,5)6/h12H,10-11H2,1-9H3
InChIKey=PCXDPPDDXJFJIF-UHFFFAOYSA-N

> <PUBCHEM_SUBSTANCE_SYNONYM>
SCHEMBL16119927

> <PUBCHEM_XREF_EXT_ID>
SCHEMBL16119927

> <PUBCHEM_EXT_DATASOURCE_URL>
https://www.surechembl.org/

> <PUBCHEM_EXT_SUBSTANCE_URL>
https://www.surechembl.org/chemical/SCHEMBL16119927

> <PUBCHEM_CID_ASSOCIATIONS>
90824008  1

> <PUBCHEM_COORDINATE_TYPE>
1
3

$$$$
