310943379
  -OEChem-07211613022D

 37 40  0     1  0  0  0  0  0999 V2000
    3.2236   -1.7384    0.0000 F   0  0  0  0  0  0  0  0  0  0  0  0
    4.6414   -1.7384    0.0000 F   0  0  0  0  0  0  0  0  0  0  0  0
    3.7131   -2.1266    0.0000 F   0  0  0  0  0  0  0  0  0  0  0  0
   -4.6414    2.0928    0.0000 O   0  0  0  0  0  0  0  0  0  0  0  0
    2.5148    1.9747    0.0000 O   0  0  0  0  0  0  0  0  0  0  0  0
   -2.5654   -2.4979    0.0000 O   0  0  0  0  0  0  0  0  0  0  0  0
   -3.2236    1.2320    0.0000 N   0  0  0  0  0  0  0  0  0  0  0  0
   -1.8397   -0.4557    0.0000 N   0  0  0  0  0  0  0  0  0  0  0  0
   -3.2574   -0.4219    0.0000 N   0  0  3  0  0  0  0  0  0  0  0  0
    0.3713    2.4135    0.0000 N   0  0  0  0  0  0  0  0  0  0  0  0
    1.8059    0.7427    0.0000 N   0  0  0  0  0  0  0  0  0  0  0  0
   -2.5148    0.8102    0.0000 C   0  0  0  0  0  0  0  0  0  0  0  0
   -1.0971    0.7933    0.0000 C   0  0  0  0  0  0  0  0  0  0  0  0
   -0.3544    1.1646    0.0000 C   0  0  0  0  0  0  0  0  0  0  0  0
   -2.5486   -0.0169    0.0000 C   0  0  0  0  0  0  0  0  0  0  0  0
   -1.8059    1.2152    0.0000 C   0  0  0  0  0  0  0  0  0  0  0  0
   -0.3375    2.0085    0.0000 C   0  0  0  0  0  0  0  0  0  0  0  0
   -1.1308   -0.0506    0.0000 C   0  0  0  0  0  0  0  0  0  0  0  0
    0.3713    0.7595    0.0000 C   0  0  0  0  0  0  0  0  0  0  0  0
    1.0802    1.1646    0.0000 C   0  0  0  0  0  0  0  0  0  0  0  0
    3.2236    0.7595    0.0000 C   0  0  0  0  0  0  0  0  0  0  0  0
    2.4979    1.1477    0.0000 C   0  0  0  0  0  0  0  0  0  0  0  0
    1.0971    1.9916    0.0000 C   0  0  0  0  0  0  0  0  0  0  0  0
    3.9325   -0.4895    0.0000 C   0  0  0  0  0  0  0  0  0  0  0  0
   -3.2068    2.0759    0.0000 C   0  0  0  0  0  0  0  0  0  0  0  0
   -3.9325    0.8439    0.0000 C   0  0  0  0  0  0  0  0  0  0  0  0
    3.9157   -1.3334    0.0000 C   0  0  0  0  0  0  0  0  0  0  0  0
    3.2236   -0.0844    0.0000 C   0  0  0  0  0  0  0  0  0  0  0  0
   -3.2743   -1.2320    0.0000 C   0  0  0  0  0  0  0  0  0  0  0  0
    3.9494    1.1477    0.0000 C   0  0  0  0  0  0  0  0  0  0  0  0
    4.6414   -0.0675    0.0000 C   0  0  0  0  0  0  0  0  0  0  0  0
   -1.0633    2.3966    0.0000 C   0  0  0  0  0  0  0  0  0  0  0  0
   -3.9325    2.4979    0.0000 C   0  0  0  0  0  0  0  0  0  0  0  0
   -4.6414    1.2658    0.0000 C   0  0  0  0  0  0  0  0  0  0  0  0
   -3.9663    0.0169    0.0000 C   0  0  0  0  0  0  0  0  0  0  0  0
    4.6414    0.7427    0.0000 C   0  0  0  0  0  0  0  0  0  0  0  0
   -2.5654   -1.6540    0.0000 C   0  0  0  0  0  0  0  0  0  0  0  0
  1 27  1  0  0  0  0
  2 27  1  0  0  0  0
  3 27  1  0  0  0  0
  4 33  1  0  0  0  0
  4 34  1  0  0  0  0
  5 22  2  0  0  0  0
  6 37  1  0  0  0  0
  7 12  1  0  0  0  0
  7 25  1  0  0  0  0
  7 26  1  0  0  0  0
  8 15  1  0  0  0  0
  8 18  2  0  0  0  0
  9 15  1  0  0  0  0
  9 29  1  0  0  0  0
  9 35  1  0  0  0  0
 10 17  1  0  0  0  0
 10 23  2  0  0  0  0
 11 20  1  0  0  0  0
 11 22  1  0  0  0  0
 12 15  2  0  0  0  0
 12 16  1  0  0  0  0
 13 14  1  0  0  0  0
 13 16  2  0  0  0  0
 13 18  1  0  0  0  0
 14 17  2  0  0  0  0
 14 19  1  0  0  0  0
 17 32  1  0  0  0  0
 19 20  2  0  0  0  0
 20 23  1  0  0  0  0
 21 22  1  0  0  0  0
 21 28  2  0  0  0  0
 21 30  1  0  0  0  0
 24 27  1  0  0  0  0
 24 28  1  0  0  0  0
 24 31  2  0  0  0  0
 25 33  1  0  0  0  0
 26 34  1  0  0  0  0
 29 37  1  0  0  0  0
 30 36  2  0  0  0  0
 31 36  1  0  0  0  0
M  END
> <PUBCHEM_COMPOUND_ID_TYPE>
0

> <PUBCHEM_TOTAL_CHARGE>
0

> <PUBCHEM_SUBSTANCE_ID>
310943379

> <PUBCHEM_SUBSTANCE_VERSION>
1

> <PUBCHEM_EXT_DATASOURCE_NAME>
4488

> <PUBCHEM_EXT_DATASOURCE_REGID>
SCHEMBL16121442

> <PUBCHEM_SUBSTANCE_COMMENT>
InChI=1S/C26H28F3N5O3/c1-17-22(14-21(16-30-17)32-25(36)18-4-3-5-20(12-18)26(27,28)29)19-13-23(34-7-10-37-11-8-34)24(31-15-19)33(2)6-9-35/h3-5,12-16,35H,6-11H2,1-2H3,(H,32,36)
InChIKey=ZGUMGEWKRSSPDW-UHFFFAOYSA-N

> <PUBCHEM_SUBSTANCE_SYNONYM>
SCHEMBL16121442

> <PUBCHEM_XREF_EXT_ID>
SCHEMBL16121442

> <PUBCHEM_EXT_DATASOURCE_URL>
https://www.surechembl.org/

> <PUBCHEM_EXT_SUBSTANCE_URL>
https://www.surechembl.org/chemical/SCHEMBL16121442

> <PUBCHEM_CID_ASSOCIATIONS>
117609803  1

> <PUBCHEM_COORDINATE_TYPE>
1
3

$$$$
