310931682
  -OEChem-07211613022D

 26 29  0     1  0  0  0  0  0999 V2000
    0.5139   -2.7748    0.0000 O   0  0  0  0  0  0  0  0  0  0  0  0
    1.9869    0.0000    0.0000 O   0  0  0  0  0  0  0  0  0  0  0  0
    3.0831   -6.7829    0.0000 O   0  0  0  0  0  0  0  0  0  0  0  0
    1.9869   -2.5350    0.0000 N   0  0  0  0  0  0  0  0  0  0  0  0
    2.3980   -3.8025    0.0000 N   0  0  0  0  0  0  0  0  0  0  0  0
    3.4600   -2.7748    0.0000 N   0  0  0  0  0  0  0  0  0  0  0  0
    1.5759   -3.8025    0.0000 C   0  0  3  0  0  0  0  0  0  0  0  0
    1.3017   -3.0146    0.0000 C   0  0  0  0  0  0  0  0  0  0  0  0
    1.9526   -4.5562    0.0000 C   0  0  0  0  0  0  0  0  0  0  0  0
    1.0620   -4.4877    0.0000 C   0  0  0  0  0  0  0  0  0  0  0  0
    2.6721   -3.0146    0.0000 C   0  0  0  0  0  0  0  0  0  0  0  0
    1.9869   -1.7129    0.0000 C   0  0  0  0  0  0  0  0  0  0  0  0
    1.3360   -5.2756    0.0000 C   0  0  0  0  0  0  0  0  0  0  0  0
    0.2398   -4.4877    0.0000 C   0  0  0  0  0  0  0  0  0  0  0  0
    2.7748   -4.6247    0.0000 C   0  0  0  0  0  0  0  0  0  0  0  0
    1.5073   -5.2756    0.0000 C   0  0  0  0  0  0  0  0  0  0  0  0
    2.7063   -1.2675    0.0000 C   0  0  0  0  0  0  0  0  0  0  0  0
    1.2675   -1.2675    0.0000 C   0  0  0  0  0  0  0  0  0  0  0  0
    0.6509   -5.7552    0.0000 C   0  0  0  0  0  0  0  0  0  0  0  0
    0.0000   -5.2756    0.0000 C   0  0  0  0  0  0  0  0  0  0  0  0
    3.1516   -5.3441    0.0000 C   0  0  0  0  0  0  0  0  0  0  0  0
    1.8841   -5.9950    0.0000 C   0  0  0  0  0  0  0  0  0  0  0  0
    2.7063   -6.0635    0.0000 C   0  0  0  0  0  0  0  0  0  0  0  0
    2.7063   -0.4454    0.0000 C   0  0  0  0  0  0  0  0  0  0  0  0
    1.2675   -0.4454    0.0000 C   0  0  0  0  0  0  0  0  0  0  0  0
    3.9053   -6.8514    0.0000 C   0  0  0  0  0  0  0  0  0  0  0  0
  1  8  2  0  0  0  0
  2 24  1  0  0  0  0
  2 25  1  0  0  0  0
  3 23  1  0  0  0  0
  3 26  1  0  0  0  0
  4  8  1  0  0  0  0
  4 11  1  0  0  0  0
  4 12  1  0  0  0  0
  5  7  1  0  0  0  0
  5 11  1  0  0  0  0
  6 11  2  3  0  0  0
  7  8  1  0  0  0  0
  7  9  1  0  0  0  0
  7 10  1  0  0  0  0
  9 15  2  0  0  0  0
  9 16  1  0  0  0  0
 10 13  1  0  0  0  0
 10 14  1  0  0  0  0
 12 17  1  0  0  0  0
 12 18  1  0  0  0  0
 13 19  1  0  0  0  0
 14 20  1  0  0  0  0
 15 21  1  0  0  0  0
 16 22  2  0  0  0  0
 17 24  1  0  0  0  0
 18 25  1  0  0  0  0
 19 20  1  0  0  0  0
 21 23  2  0  0  0  0
 22 23  1  0  0  0  0
M  END
> <PUBCHEM_COMPOUND_ID_TYPE>
0

> <PUBCHEM_TOTAL_CHARGE>
0

> <PUBCHEM_SUBSTANCE_ID>
310931682

> <PUBCHEM_SUBSTANCE_VERSION>
1

> <PUBCHEM_EXT_DATASOURCE_NAME>
4488

> <PUBCHEM_EXT_DATASOURCE_REGID>
SCHEMBL16109008

> <PUBCHEM_SUBSTANCE_COMMENT>
InChI=1S/C20H27N3O3/c1-25-17-8-6-15(7-9-17)20(14-4-2-3-5-14)18(24)23(19(21)22-20)16-10-12-26-13-11-16/h6-9,14,16H,2-5,10-13H2,1H3,(H2,21,22)
InChIKey=JKOAQYRBPUOGCN-UHFFFAOYSA-N

> <PUBCHEM_SUBSTANCE_SYNONYM>
SCHEMBL16109008

> <PUBCHEM_XREF_EXT_ID>
SCHEMBL16109008

> <PUBCHEM_EXT_DATASOURCE_URL>
https://www.surechembl.org/

> <PUBCHEM_EXT_SUBSTANCE_URL>
https://www.surechembl.org/chemical/SCHEMBL16109008

> <PUBCHEM_CID_ASSOCIATIONS>
86273366  1

> <PUBCHEM_COORDINATE_TYPE>
1
3

$$$$
