310932198
  -OEChem-07211613022D

 20 22  0     1  0  0  0  0  0999 V2000
    4.9757   -1.6420    0.0000 Br  0  0  0  0  0  0  0  0  0  0  0  0
    0.6966    0.0000    0.0000 O   0  0  0  0  0  0  0  0  0  0  0  0
    1.4098   -1.2274    0.0000 N   0  0  0  0  0  0  0  0  0  0  0  0
    2.1395    0.0000    0.0000 N   0  0  0  0  0  0  0  0  0  0  0  0
    2.1395   -1.6420    0.0000 C   0  0  3  0  0  0  0  0  0  0  0  0
    2.8528   -1.2274    0.0000 C   0  0  0  0  0  0  0  0  0  0  0  0
    2.8528   -0.4147    0.0000 C   0  0  0  0  0  0  0  0  0  0  0  0
    1.4264   -2.0567    0.0000 C   0  0  0  0  0  0  0  0  0  0  0  0
    1.4098   -0.4147    0.0000 C   0  0  0  0  0  0  0  0  0  0  0  0
    3.5493   -1.6420    0.0000 C   0  0  0  0  0  0  0  0  0  0  0  0
    2.1395   -2.4713    0.0000 C   0  0  0  0  0  0  0  0  0  0  0  0
    3.5493    0.0000    0.0000 C   0  0  0  0  0  0  0  0  0  0  0  0
    4.2626   -1.2274    0.0000 C   0  0  0  0  0  0  0  0  0  0  0  0
    1.4264   -2.8859    0.0000 C   0  0  0  0  0  0  0  0  0  0  0  0
    0.8790   -1.8078    0.0000 C   0  0  0  0  0  0  0  0  0  0  0  0
    0.6966   -1.6420    0.0000 C   0  0  0  0  0  0  0  0  0  0  0  0
    4.2626   -0.4147    0.0000 C   0  0  0  0  0  0  0  0  0  0  0  0
    0.7132   -3.3006    0.0000 C   0  0  0  0  0  0  0  0  0  0  0  0
    0.0000   -2.0567    0.0000 C   0  0  0  0  0  0  0  0  0  0  0  0
    0.0000   -2.8859    0.0000 C   0  0  0  0  0  0  0  0  0  0  0  0
  1 13  1  0  0  0  0
  2  9  2  0  0  0  0
  3  5  1  0  0  0  0
  3  9  1  0  0  0  0
  3 16  1  0  0  0  0
  4  7  1  0  0  0  0
  4  9  1  0  0  0  0
  5  6  1  0  0  0  0
  5  8  1  0  0  0  0
  5 11  1  0  0  0  0
  6  7  2  0  0  0  0
  6 10  1  0  0  0  0
  7 12  1  0  0  0  0
  8 14  2  0  0  0  0
  8 15  1  0  0  0  0
 10 13  2  0  0  0  0
 12 17  2  0  0  0  0
 13 17  1  0  0  0  0
 14 18  1  0  0  0  0
 15 19  2  0  0  0  0
 18 20  2  0  0  0  0
 19 20  1  0  0  0  0
M  END
> <PUBCHEM_COMPOUND_ID_TYPE>
0

> <PUBCHEM_TOTAL_CHARGE>
0

> <PUBCHEM_SUBSTANCE_ID>
310932198

> <PUBCHEM_SUBSTANCE_VERSION>
1

> <PUBCHEM_EXT_DATASOURCE_NAME>
4488

> <PUBCHEM_EXT_DATASOURCE_REGID>
SCHEMBL16109555

> <PUBCHEM_SUBSTANCE_COMMENT>
InChI=1S/C16H15BrN2O/c1-16(11-6-4-3-5-7-11)13-10-12(17)8-9-14(13)18-15(20)19(16)2/h3-10H,1-2H3,(H,18,20)
InChIKey=BXEJNEOKOREFCG-UHFFFAOYSA-N

> <PUBCHEM_SUBSTANCE_SYNONYM>
SCHEMBL16109555

> <PUBCHEM_XREF_EXT_ID>
SCHEMBL16109555

> <PUBCHEM_EXT_DATASOURCE_URL>
https://www.surechembl.org/

> <PUBCHEM_EXT_SUBSTANCE_URL>
https://www.surechembl.org/chemical/SCHEMBL16109555

> <PUBCHEM_CID_ASSOCIATIONS>
117600790  1

> <PUBCHEM_COORDINATE_TYPE>
1
3

$$$$
