310933641
  -OEChem-07211613022D

 42 46  0     1  0  0  0  0  0999 V2000
    4.1668    2.5967    0.0000 Cl  0  0  0  0  0  0  0  0  0  0  0  0
    3.4957    1.0894    0.0000 F   0  0  0  0  0  0  0  0  0  0  0  0
    4.3260   -1.5731    0.0000 O   0  0  0  0  0  0  0  0  0  0  0  0
    2.8579   -2.4750    0.0000 O   0  0  0  0  0  0  0  0  0  0  0  0
    0.0000    0.8250    0.0000 O   0  0  0  0  0  0  0  0  0  0  0  0
    0.7145   -2.8875    0.0000 O   0  0  0  0  0  0  0  0  0  0  0  0
    2.1434    1.2375    0.0000 O   0  0  0  0  0  0  0  0  0  0  0  0
    2.8579   -6.6000    0.0000 O   0  0  0  0  0  0  0  0  0  0  0  0
    1.4289   -6.6000    0.0000 O   0  0  0  0  0  0  0  0  0  0  0  0
    2.1434   -1.2375    0.0000 N   0  0  0  0  0  0  0  0  0  0  0  0
    4.8781   -0.9600    0.0000 N   0  0  0  0  0  0  0  0  0  0  0  0
    2.1434   -2.8875    0.0000 N   0  0  0  0  0  0  0  0  0  0  0  0
    1.4289   -1.6500    0.0000 C   0  0  3  0  0  0  0  0  0  0  0  0
    0.7145   -1.2375    0.0000 C   0  0  0  0  0  0  0  0  0  0  0  0
    0.7145   -0.4125    0.0000 C   0  0  0  0  0  0  0  0  0  0  0  0
    2.8579   -1.6500    0.0000 C   0  0  0  0  0  0  0  0  0  0  0  0
    3.5724   -1.2375    0.0000 C   0  0  3  0  0  0  0  0  0  0  0  0
    1.4289   -2.4750    0.0000 C   0  0  0  0  0  0  0  0  0  0  0  0
    2.1434   -0.4125    0.0000 C   0  0  0  0  0  0  0  0  0  0  0  0
    0.0000    0.0000    0.0000 C   0  0  0  0  0  0  0  0  0  0  0  0
    1.4289    0.0000    0.0000 C   0  0  0  0  0  0  0  0  0  0  0  0
    0.0000   -1.6500    0.0000 C   0  0  0  0  0  0  0  0  0  0  0  0
    4.4656   -0.2455    0.0000 C   0  0  0  0  0  0  0  0  0  0  0  0
    3.6586   -0.4170    0.0000 C   0  0  0  0  0  0  0  0  0  0  0  0
    4.8011    0.5082    0.0000 C   0  0  0  0  0  0  0  0  0  0  0  0
   -0.7145   -0.4125    0.0000 C   0  0  0  0  0  0  0  0  0  0  0  0
   -0.7145   -1.2375    0.0000 C   0  0  0  0  0  0  0  0  0  0  0  0
    4.3162    1.1756    0.0000 C   0  0  0  0  0  0  0  0  0  0  0  0
    2.1434   -3.7125    0.0000 C   0  0  0  0  0  0  0  0  0  0  0  0
    5.6216    0.5944    0.0000 C   0  0  0  0  0  0  0  0  0  0  0  0
    4.6518    1.9293    0.0000 C   0  0  0  0  0  0  0  0  0  0  0  0
    5.9572    1.3481    0.0000 C   0  0  0  0  0  0  0  0  0  0  0  0
    5.4722    2.0155    0.0000 C   0  0  0  0  0  0  0  0  0  0  0  0
    2.8579   -4.1250    0.0000 C   0  0  0  0  0  0  0  0  0  0  0  0
    1.4289   -4.1250    0.0000 C   0  0  0  0  0  0  0  0  0  0  0  0
    0.7145    1.2375    0.0000 C   0  0  0  0  0  0  0  0  0  0  0  0
    2.1434   -5.3625    0.0000 C   0  0  0  0  0  0  0  0  0  0  0  0
    2.8579   -4.9500    0.0000 C   0  0  0  0  0  0  0  0  0  0  0  0
    1.4289   -4.9500    0.0000 C   0  0  0  0  0  0  0  0  0  0  0  0
    1.4289    0.8250    0.0000 C   0  0  0  0  0  0  0  0  0  0  0  0
    2.1434   -6.1875    0.0000 C   0  0  0  0  0  0  0  0  0  0  0  0
    2.8579    0.8250    0.0000 C   0  0  0  0  0  0  0  0  0  0  0  0
  1 31  1  0  0  0  0
  2 28  1  0  0  0  0
  3 11  1  0  0  0  0
  3 17  1  0  0  0  0
  4 16  2  0  0  0  0
  5 20  1  0  0  0  0
  5 36  1  0  0  0  0
  6 18  2  0  0  0  0
  7 40  1  0  0  0  0
  7 42  1  0  0  0  0
  8 41  2  0  0  0  0
  9 41  1  0  0  0  0
 10 13  1  0  0  0  0
 10 16  1  0  0  0  0
 10 19  1  0  0  0  0
 11 23  2  0  0  0  0
 12 18  1  0  0  0  0
 12 29  1  0  0  0  0
 13 14  1  0  0  0  0
 13 18  1  0  0  0  0
 14 15  2  0  0  0  0
 14 22  1  0  0  0  0
 15 20  1  0  0  0  0
 15 21  1  0  0  0  0
 16 17  1  0  0  0  0
 17 24  1  0  0  0  0
 19 21  1  0  0  0  0
 20 26  2  0  0  0  0
 22 27  2  0  0  0  0
 23 24  1  0  0  0  0
 23 25  1  0  0  0  0
 25 28  2  0  0  0  0
 25 30  1  0  0  0  0
 26 27  1  0  0  0  0
 28 31  1  0  0  0  0
 29 34  2  0  0  0  0
 29 35  1  0  0  0  0
 30 32  2  0  0  0  0
 31 33  2  0  0  0  0
 32 33  1  0  0  0  0
 34 38  1  0  0  0  0
 35 39  2  0  0  0  0
 36 40  1  0  0  0  0
 37 38  2  0  0  0  0
 37 39  1  0  0  0  0
 37 41  1  0  0  0  0
M  END
> <PUBCHEM_COMPOUND_ID_TYPE>
0

> <PUBCHEM_TOTAL_CHARGE>
0

> <PUBCHEM_SUBSTANCE_ID>
310933641

> <PUBCHEM_SUBSTANCE_VERSION>
1

> <PUBCHEM_EXT_DATASOURCE_NAME>
4488

> <PUBCHEM_EXT_DATASOURCE_REGID>
SCHEMBL16111072

> <PUBCHEM_SUBSTANCE_COMMENT>
InChI=1S/C30H27ClFN3O7/c1-40-14-15-41-24-7-3-4-20-19(24)12-13-35(27(20)28(36)33-18-10-8-17(9-11-18)30(38)39)29(37)25-16-23(34-42-25)21-5-2-6-22(31)26(21)32/h2-11,25,27H,12-16H2,1H3,(H,33,36)(H,38,39)
InChIKey=BLJITOPHYUQTNR-UHFFFAOYSA-N

> <PUBCHEM_SUBSTANCE_SYNONYM>
SCHEMBL16111072

> <PUBCHEM_XREF_EXT_ID>
SCHEMBL16111072

> <PUBCHEM_EXT_DATASOURCE_URL>
https://www.surechembl.org/

> <PUBCHEM_EXT_SUBSTANCE_URL>
https://www.surechembl.org/chemical/SCHEMBL16111072

> <PUBCHEM_CID_ASSOCIATIONS>
117602014  1

> <PUBCHEM_COORDINATE_TYPE>
1
3

$$$$
