310933884
  -OEChem-07211613022D

 13 14  0     1  0  0  0  0  0999 V2000
    0.0000   -1.6411    0.0000 I   0  0  0  0  0  0  0  0  0  0  0  0
    4.3186   -1.6411    0.0000 Br  0  0  0  0  0  0  0  0  0  0  0  0
    2.8647    0.0000    0.0000 O   0  0  0  0  0  0  0  0  0  0  0  0
    2.8647   -2.4760    0.0000 O   0  0  0  0  0  0  0  0  0  0  0  0
    2.1594   -1.2236    0.0000 C   0  0  0  0  0  0  0  0  0  0  0  0
    2.1594   -0.4031    0.0000 C   0  0  0  0  0  0  0  0  0  0  0  0
    2.8647   -1.6555    0.0000 C   0  0  0  0  0  0  0  0  0  0  0  0
    3.5845   -1.2236    0.0000 C   0  0  3  0  0  0  0  0  0  0  0  0
    1.4395   -1.6555    0.0000 C   0  0  0  0  0  0  0  0  0  0  0  0
    1.4395    0.0000    0.0000 C   0  0  0  0  0  0  0  0  0  0  0  0
    0.7198   -1.2236    0.0000 C   0  0  0  0  0  0  0  0  0  0  0  0
    3.5845   -0.4031    0.0000 C   0  0  0  0  0  0  0  0  0  0  0  0
    0.7198   -0.4031    0.0000 C   0  0  0  0  0  0  0  0  0  0  0  0
  1 11  1  0  0  0  0
  2  8  1  0  0  0  0
  3  6  1  0  0  0  0
  3 12  1  0  0  0  0
  4  7  2  0  0  0  0
  5  6  2  0  0  0  0
  5  7  1  0  0  0  0
  5  9  1  0  0  0  0
  6 10  1  0  0  0  0
  7  8  1  0  0  0  0
  8 12  1  0  0  0  0
  9 11  2  0  0  0  0
 10 13  2  0  0  0  0
 11 13  1  0  0  0  0
M  END
> <PUBCHEM_COMPOUND_ID_TYPE>
0

> <PUBCHEM_TOTAL_CHARGE>
0

> <PUBCHEM_SUBSTANCE_ID>
310933884

> <PUBCHEM_SUBSTANCE_VERSION>
1

> <PUBCHEM_EXT_DATASOURCE_NAME>
4488

> <PUBCHEM_EXT_DATASOURCE_REGID>
SCHEMBL16111323

> <PUBCHEM_SUBSTANCE_COMMENT>
InChI=1S/C9H6BrIO2/c10-7-4-13-8-2-1-5(11)3-6(8)9(7)12/h1-3,7H,4H2
InChIKey=WMUZXYAXHVKTCW-UHFFFAOYSA-N

> <PUBCHEM_SUBSTANCE_SYNONYM>
SCHEMBL16111323

> <PUBCHEM_XREF_EXT_ID>
SCHEMBL16111323

> <PUBCHEM_EXT_DATASOURCE_URL>
https://www.surechembl.org/

> <PUBCHEM_EXT_SUBSTANCE_URL>
https://www.surechembl.org/chemical/SCHEMBL16111323

> <PUBCHEM_CID_ASSOCIATIONS>
117602216  1

> <PUBCHEM_COORDINATE_TYPE>
1
3

$$$$
