310936633
  -OEChem-07211613022D

 28 32  0     1  0  0  0  0  0999 V2000
   -4.8004   -2.2294    0.0000 O   0  0  0  0  0  0  0  0  0  0  0  0
   -5.5148   -0.9919    0.0000 O   0  0  0  0  0  0  0  0  0  0  0  0
    0.6066    1.2542    0.0000 N   0  0  0  0  0  0  0  0  0  0  0  0
   -0.5136   -0.5794    0.0000 C   0  0  3  0  0  0  0  0  0  0  0  0
   -1.2280   -0.9919    0.0000 C   0  0  3  0  0  0  0  0  0  0  0  0
   -0.5136    0.2456    0.0000 C   0  0  3  0  0  0  0  0  0  0  0  0
   -1.9425   -0.5794    0.0000 C   0  0  3  0  0  0  0  0  0  0  0  0
    0.2711    0.5006    0.0000 C   0  0  3  0  0  0  0  0  0  0  0  0
   -2.6570   -0.9919    0.0000 C   0  0  0  0  0  0  0  0  0  0  0  0
    0.7560   -0.1669    0.0000 C   0  0  3  0  0  0  0  0  0  0  0  0
    0.2711   -0.8343    0.0000 C   0  0  0  0  0  0  0  0  0  0  0  0
   -2.6570   -1.8169    0.0000 C   0  0  0  0  0  0  0  0  0  0  0  0
   -1.2280    0.6581    0.0000 C   0  0  0  0  0  0  0  0  0  0  0  0
   -1.9425    0.2456    0.0000 C   0  0  0  0  0  0  0  0  0  0  0  0
   -1.2280   -1.8169    0.0000 C   0  0  0  0  0  0  0  0  0  0  0  0
   -1.9425   -2.2294    0.0000 C   0  0  0  0  0  0  0  0  0  0  0  0
   -3.3714   -0.5794    0.0000 C   0  0  0  0  0  0  0  0  0  0  0  0
   -3.3714   -2.2294    0.0000 C   0  0  0  0  0  0  0  0  0  0  0  0
   -4.0859   -1.8169    0.0000 C   0  0  0  0  0  0  0  0  0  0  0  0
    1.5765   -0.0806    0.0000 C   0  0  0  0  0  0  0  0  0  0  0  0
   -4.0859   -0.9919    0.0000 C   0  0  0  0  0  0  0  0  0  0  0  0
    1.4271    1.3405    0.0000 C   0  0  0  0  0  0  0  0  0  0  0  0
    1.9121    0.6730    0.0000 C   0  0  0  0  0  0  0  0  0  0  0  0
   -5.5148   -1.8169    0.0000 C   0  0  0  0  0  0  0  0  0  0  0  0
   -6.2293   -2.2294    0.0000 C   0  0  0  0  0  0  0  0  0  0  0  0
   -6.2293   -3.0544    0.0000 C   0  0  0  0  0  0  0  0  0  0  0  0
   -6.9438   -2.6419    0.0000 C   0  0  0  0  0  0  0  0  0  0  0  0
   -6.9438   -1.8169    0.0000 C   0  0  0  0  0  0  0  0  0  0  0  0
  1 19  1  0  0  0  0
  1 24  1  0  0  0  0
  2 24  2  0  0  0  0
  3  8  1  0  0  0  0
  3 22  1  0  0  0  0
  4  5  1  0  0  0  0
  4  6  1  0  0  0  0
  4 11  1  0  0  0  0
  5  7  1  0  0  0  0
  5 15  1  0  0  0  0
  6  8  1  0  0  0  0
  6 13  1  0  0  0  0
  7  9  1  0  0  0  0
  7 14  1  0  0  0  0
  8 10  1  0  0  0  0
  9 12  2  0  0  0  0
  9 17  1  0  0  0  0
 10 11  1  0  0  0  0
 10 20  1  0  0  0  0
 12 16  1  0  0  0  0
 12 18  1  0  0  0  0
 13 14  1  0  0  0  0
 15 16  1  0  0  0  0
 17 21  2  0  0  0  0
 18 19  2  0  0  0  0
 19 21  1  0  0  0  0
 20 23  1  0  0  0  0
 22 23  1  0  0  0  0
 24 25  1  0  0  0  0
 25 26  1  0  0  0  0
 25 27  1  0  0  0  0
 25 28  1  0  0  0  0
M  END
> <PUBCHEM_COMPOUND_ID_TYPE>
0

> <PUBCHEM_TOTAL_CHARGE>
0

> <PUBCHEM_SUBSTANCE_ID>
310936633

> <PUBCHEM_SUBSTANCE_VERSION>
1

> <PUBCHEM_EXT_DATASOURCE_NAME>
4488

> <PUBCHEM_EXT_DATASOURCE_REGID>
SCHEMBL16114293

> <PUBCHEM_SUBSTANCE_COMMENT>
InChI=1S/C25H35NO2/c1-25(2,3)24(27)28-17-7-9-18-15(13-17)6-8-20-19(18)10-11-21-22(20)14-16-5-4-12-26-23(16)21/h7,9,13,16,19-23,26H,4-6,8,10-12,14H2,1-3H3
InChIKey=OYBGXFNIIARZFG-UHFFFAOYSA-N

> <PUBCHEM_SUBSTANCE_SYNONYM>
SCHEMBL16114293

> <PUBCHEM_XREF_EXT_ID>
SCHEMBL16114293

> <PUBCHEM_EXT_DATASOURCE_URL>
https://www.surechembl.org/

> <PUBCHEM_EXT_SUBSTANCE_URL>
https://www.surechembl.org/chemical/SCHEMBL16114293

> <PUBCHEM_CID_ASSOCIATIONS>
117604548  1

> <PUBCHEM_COORDINATE_TYPE>
1
3

$$$$
