310940465
  -OEChem-07211613022D

 32 35  0     1  0  0  0  0  0999 V2000
   -0.4157    2.5513    0.0000 F   0  0  0  0  0  0  0  0  0  0  0  0
   -0.0734    1.4754    0.0000 F   0  0  0  0  0  0  0  0  0  0  0  0
   -1.1656    1.1493    0.0000 F   0  0  0  0  0  0  0  0  0  0  0  0
   -2.9751   -1.8829    0.0000 O   0  0  0  0  0  0  0  0  0  0  0  0
    2.2742   -1.3449    0.0000 O   0  0  0  0  0  0  0  0  0  0  0  0
   -2.2415   -0.6439    0.0000 N   0  0  0  0  0  0  0  0  0  0  0  0
   -1.6710   -2.7143    0.0000 N   0  0  0  0  0  0  0  0  0  0  0  0
   -0.9537   -3.1056    0.0000 N   0  0  0  0  0  0  0  0  0  0  0  0
   -0.6929   -1.8014    0.0000 C   0  0  0  0  0  0  0  0  0  0  0  0
   -1.5568   -1.8829    0.0000 C   0  0  0  0  0  0  0  0  0  0  0  0
   -0.3505   -2.5350    0.0000 C   0  0  0  0  0  0  0  0  0  0  0  0
   -2.2578   -1.4754    0.0000 C   0  0  0  0  0  0  0  0  0  0  0  0
   -2.2415    1.8666    0.0000 C   0  0  0  0  0  0  0  0  0  0  0  0
   -2.2578    1.0189    0.0000 C   0  0  0  0  0  0  0  0  0  0  0  0
   -1.5405    2.2742    0.0000 C   0  0  0  0  0  0  0  0  0  0  0  0
    0.4809   -2.6165    0.0000 C   0  0  0  0  0  0  0  0  0  0  0  0
    1.0189   -1.9644    0.0000 C   0  0  3  0  0  0  0  0  0  0  0  0
   -0.2037   -1.1167    0.0000 C   0  0  0  0  0  0  0  0  0  0  0  0
   -0.8069    1.8503    0.0000 C   0  0  0  0  0  0  0  0  0  0  0  0
    0.6113   -1.1982    0.0000 C   0  0  0  0  0  0  0  0  0  0  0  0
   -1.5242   -0.2201    0.0000 C   0  0  0  0  0  0  0  0  0  0  0  0
   -2.9751   -0.2037    0.0000 C   0  0  0  0  0  0  0  0  0  0  0  0
   -1.5242    0.5951    0.0000 C   0  0  0  0  0  0  0  0  0  0  0  0
   -2.9588    0.6113    0.0000 C   0  0  0  0  0  0  0  0  0  0  0  0
    1.7688   -2.0459    0.0000 C   0  0  0  0  0  0  0  0  0  0  0  0
   -2.9425    2.2742    0.0000 C   0  0  0  0  0  0  0  0  0  0  0  0
   -1.5405    3.0893    0.0000 C   0  0  0  0  0  0  0  0  0  0  0  0
   -2.9588    3.1056    0.0000 C   0  0  0  0  0  0  0  0  0  0  0  0
   -2.2415    3.5131    0.0000 C   0  0  0  0  0  0  0  0  0  0  0  0
    2.1274   -2.7469    0.0000 C   0  0  0  0  0  0  0  0  0  0  0  0
    2.9751   -2.8284    0.0000 C   0  0  0  0  0  0  0  0  0  0  0  0
    1.7198   -3.5131    0.0000 C   0  0  0  0  0  0  0  0  0  0  0  0
  1 19  1  0  0  0  0
  2 19  1  0  0  0  0
  3 19  1  0  0  0  0
  4 12  2  0  0  0  0
  5 25  2  0  0  0  0
  6 12  1  0  0  0  0
  6 21  1  0  0  0  0
  6 22  1  0  0  0  0
  7  8  1  0  0  0  0
  7 10  2  0  0  0  0
  8 11  1  0  0  0  0
  9 10  1  0  0  0  0
  9 11  2  0  0  0  0
  9 18  1  0  0  0  0
 10 12  1  0  0  0  0
 11 16  1  0  0  0  0
 13 14  1  0  0  0  0
 13 15  2  0  0  0  0
 13 26  1  0  0  0  0
 14 23  1  0  0  0  0
 14 24  1  0  0  0  0
 15 19  1  0  0  0  0
 15 27  1  0  0  0  0
 16 17  1  0  0  0  0
 17 20  1  0  0  0  0
 17 25  1  0  0  0  0
 18 20  1  0  0  0  0
 21 23  1  0  0  0  0
 22 24  1  0  0  0  0
 25 30  1  0  0  0  0
 26 28  2  0  0  0  0
 27 29  2  0  0  0  0
 28 29  1  0  0  0  0
 30 31  1  0  0  0  0
 30 32  1  0  0  0  0
M  END
> <PUBCHEM_COMPOUND_ID_TYPE>
0

> <PUBCHEM_TOTAL_CHARGE>
0

> <PUBCHEM_SUBSTANCE_ID>
310940465

> <PUBCHEM_SUBSTANCE_VERSION>
1

> <PUBCHEM_EXT_DATASOURCE_NAME>
4488

> <PUBCHEM_EXT_DATASOURCE_REGID>
SCHEMBL16118418

> <PUBCHEM_SUBSTANCE_COMMENT>
InChI=1S/C24H28F3N3O2/c1-14(2)22(31)16-7-8-18-20(13-16)28-29-21(18)23(32)30-11-9-15(10-12-30)17-5-3-4-6-19(17)24(25,26)27/h3-6,14-16H,7-13H2,1-2H3,(H,28,29)
InChIKey=HOGBIDXJBLGAOA-UHFFFAOYSA-N

> <PUBCHEM_SUBSTANCE_SYNONYM>
SCHEMBL16118418

> <PUBCHEM_XREF_EXT_ID>
SCHEMBL16118418

> <PUBCHEM_EXT_DATASOURCE_URL>
https://www.surechembl.org/

> <PUBCHEM_EXT_SUBSTANCE_URL>
https://www.surechembl.org/chemical/SCHEMBL16118418

> <PUBCHEM_CID_ASSOCIATIONS>
117607484  1

> <PUBCHEM_COORDINATE_TYPE>
1
3

$$$$
