310943111
  -OEChem-07211613022D

 31 32  0     1  0  0  0  0  0999 V2000
    0.9822    0.1879    0.0000 S   0  0  0  0  0  0  0  0  0  0  0  0
   -3.9202   -1.0419    0.0000 F   0  0  0  0  0  0  0  0  0  0  0  0
   -4.0398    0.0513    0.0000 F   0  0  0  0  0  0  0  0  0  0  0  0
   -2.9295    0.1538    0.0000 F   0  0  0  0  0  0  0  0  0  0  0  0
   -1.9900   -1.7252    0.0000 F   0  0  0  0  0  0  0  0  0  0  0  0
   -2.7757   -2.5280    0.0000 F   0  0  0  0  0  0  0  0  0  0  0  0
   -3.5615   -1.7252    0.0000 F   0  0  0  0  0  0  0  0  0  0  0  0
   -3.5273   -1.3665    0.0000 O   0  0  0  0  0  0  0  0  0  0  0  0
   -1.2725   -1.7423    0.0000 O   0  0  0  0  0  0  0  0  0  0  0  0
    0.9822    0.9737    0.0000 O   0  0  0  0  0  0  0  0  0  0  0  0
    0.9822   -0.5979    0.0000 O   0  0  0  0  0  0  0  0  0  0  0  0
    3.9885    1.7423    0.0000 O   0  0  0  0  0  0  0  0  0  0  0  0
    0.2477    0.5808    0.0000 N   0  0  3  0  0  0  0  0  0  0  0  0
   -2.7928   -0.9737    0.0000 C   0  0  0  0  0  0  0  0  0  0  0  0
   -2.0412   -0.5637    0.0000 C   0  0  0  0  0  0  0  0  0  0  0  0
   -2.7928   -1.7252    0.0000 C   0  0  0  0  0  0  0  0  0  0  0  0
   -3.4248   -0.4270    0.0000 C   0  0  0  0  0  0  0  0  0  0  0  0
   -1.2725   -0.9566    0.0000 C   0  0  0  0  0  0  0  0  0  0  0  0
   -2.0071    0.2050    0.0000 C   0  0  0  0  0  0  0  0  0  0  0  0
   -0.5039    0.2220    0.0000 C   0  0  0  0  0  0  0  0  0  0  0  0
   -0.5381   -0.5808    0.0000 C   0  0  0  0  0  0  0  0  0  0  0  0
   -1.2555    0.5979    0.0000 C   0  0  0  0  0  0  0  0  0  0  0  0
    1.7338    0.5808    0.0000 C   0  0  0  0  0  0  0  0  0  0  0  0
    0.2477    1.3836    0.0000 C   0  0  0  0  0  0  0  0  0  0  0  0
    2.5366    0.2050    0.0000 C   0  0  0  0  0  0  0  0  0  0  0  0
    1.7679    1.3665    0.0000 C   0  0  0  0  0  0  0  0  0  0  0  0
   -0.5722   -2.1351    0.0000 C   0  0  0  0  0  0  0  0  0  0  0  0
    3.2540    1.3665    0.0000 C   0  0  0  0  0  0  0  0  0  0  0  0
    3.2369    0.5637    0.0000 C   0  0  0  0  0  0  0  0  0  0  0  0
    2.5195    1.7423    0.0000 C   0  0  0  0  0  0  0  0  0  0  0  0
    4.0398    2.5280    0.0000 C   0  0  0  0  0  0  0  0  0  0  0  0
  1 10  2  0  0  0  0
  1 11  2  0  0  0  0
  1 13  1  0  0  0  0
  1 23  1  0  0  0  0
  2 17  1  0  0  0  0
  3 17  1  0  0  0  0
  4 17  1  0  0  0  0
  5 16  1  0  0  0  0
  6 16  1  0  0  0  0
  7 16  1  0  0  0  0
  8 14  1  0  0  0  0
  9 18  1  0  0  0  0
  9 27  1  0  0  0  0
 12 28  1  0  0  0  0
 12 31  1  0  0  0  0
 13 20  1  0  0  0  0
 13 24  1  0  0  0  0
 14 15  1  0  0  0  0
 14 16  1  0  0  0  0
 14 17  1  0  0  0  0
 15 18  1  0  0  0  0
 15 19  2  0  0  0  0
 18 21  2  0  0  0  0
 19 22  1  0  0  0  0
 20 21  1  0  0  0  0
 20 22  2  0  0  0  0
 23 25  2  0  0  0  0
 23 26  1  0  0  0  0
 25 29  1  0  0  0  0
 26 30  2  0  0  0  0
 28 29  2  0  0  0  0
 28 30  1  0  0  0  0
M  END
> <PUBCHEM_COMPOUND_ID_TYPE>
0

> <PUBCHEM_TOTAL_CHARGE>
0

> <PUBCHEM_SUBSTANCE_ID>
310943111

> <PUBCHEM_SUBSTANCE_VERSION>
1

> <PUBCHEM_EXT_DATASOURCE_NAME>
4488

> <PUBCHEM_EXT_DATASOURCE_REGID>
SCHEMBL16121170

> <PUBCHEM_SUBSTANCE_COMMENT>
InChI=1S/C18H17F6NO5S/c1-25(31(27,28)13-7-5-12(29-2)6-8-13)11-4-9-14(15(10-11)30-3)16(26,17(19,20)21)18(22,23)24/h4-10,26H,1-3H3
InChIKey=VCGOSMBYXPTOHC-UHFFFAOYSA-N

> <PUBCHEM_SUBSTANCE_SYNONYM>
SCHEMBL16121170

> <PUBCHEM_XREF_EXT_ID>
SCHEMBL16121170

> <PUBCHEM_EXT_DATASOURCE_URL>
https://www.surechembl.org/

> <PUBCHEM_EXT_SUBSTANCE_URL>
https://www.surechembl.org/chemical/SCHEMBL16121170

> <PUBCHEM_CID_ASSOCIATIONS>
86297684  1

> <PUBCHEM_COORDINATE_TYPE>
1
3

$$$$
