310946187
  -OEChem-07211613022D

 20 22  0     1  0  0  0  0  0999 V2000
    1.7065   -1.1587    0.0000 S   0  0  0  0  0  0  0  0  0  0  0  0
    0.9920   -1.5712    0.0000 O   0  0  0  0  0  0  0  0  0  0  0  0
   -1.8659   -1.5712    0.0000 O   0  0  0  0  0  0  0  0  0  0  0  0
    1.7065   -1.9837    0.0000 O   0  0  0  0  0  0  0  0  0  0  0  0
    1.7065   -0.3337    0.0000 O   0  0  0  0  0  0  0  0  0  0  0  0
    2.4209   -1.5712    0.0000 O   0  0  0  0  0  0  0  0  0  0  0  0
   -1.1514   -0.3337    0.0000 N   0  0  0  0  0  0  0  0  0  0  0  0
    0.2775   -1.1587    0.0000 N   0  0  0  0  0  0  0  0  0  0  0  0
   -2.6505    0.6488    0.0000 N   0  0  0  0  0  0  0  0  0  0  0  0
   -1.8659    1.7288    0.0000 N   0  0  0  0  0  0  0  0  0  0  0  0
   -3.1354    1.3163    0.0000 N   0  0  0  0  0  0  0  0  0  0  0  0
   -2.6505    1.9837    0.0000 N   0  0  0  0  0  0  0  0  0  0  0  0
   -1.1514   -1.1587    0.0000 C   0  0  0  0  0  0  0  0  0  0  0  0
    0.2775   -0.3337    0.0000 C   0  0  3  0  0  0  0  0  0  0  0  0
   -1.1514    0.4913    0.0000 C   0  0  3  0  0  0  0  0  0  0  0  0
   -0.4369   -0.7462    0.0000 C   0  0  0  0  0  0  0  0  0  0  0  0
   -1.8659    0.9038    0.0000 C   0  0  0  0  0  0  0  0  0  0  0  0
    0.2775    0.4913    0.0000 C   0  0  0  0  0  0  0  0  0  0  0  0
   -0.4369    0.9038    0.0000 C   0  0  0  0  0  0  0  0  0  0  0  0
   -2.6505   -0.1762    0.0000 C   0  0  0  0  0  0  0  0  0  0  0  0
  1  2  1  0  0  0  0
  1  4  2  0  0  0  0
  1  5  2  0  0  0  0
  1  6  1  0  0  0  0
  2  8  1  0  0  0  0
  3 13  2  0  0  0  0
  7 13  1  0  0  0  0
  7 15  1  0  0  0  0
  7 16  1  0  0  0  0
  8 13  1  0  0  0  0
  8 14  1  0  0  0  0
  9 11  1  0  0  0  0
  9 17  1  0  0  0  0
  9 20  1  0  0  0  0
 10 12  1  0  0  0  0
 10 17  2  0  0  0  0
 11 12  2  0  0  0  0
 14 16  1  6  0  0  0
 14 18  1  0  0  0  0
 15 17  1  6  0  0  0
 15 19  1  0  0  0  0
 18 19  1  0  0  0  0
M  END
> <PUBCHEM_COMPOUND_ID_TYPE>
0

> <PUBCHEM_TOTAL_CHARGE>
0

> <PUBCHEM_SUBSTANCE_ID>
310946187

> <PUBCHEM_SUBSTANCE_VERSION>
1

> <PUBCHEM_EXT_DATASOURCE_NAME>
4488

> <PUBCHEM_EXT_DATASOURCE_REGID>
SCHEMBL16124298

> <PUBCHEM_SUBSTANCE_COMMENT>
InChI=1S/C8H12N6O5S/c1-12-7(9-10-11-12)6-3-2-5-4-13(6)8(15)14(5)19-20(16,17)18/h5-6H,2-4H2,1H3,(H,16,17,18)/t5-,6+/m1/s1
InChIKey=QOOUBNMWZGAZOD-RITPCOANSA-N

> <PUBCHEM_SUBSTANCE_SYNONYM>
SCHEMBL16124298

> <PUBCHEM_XREF_EXT_ID>
SCHEMBL16124298

> <PUBCHEM_EXT_DATASOURCE_URL>
https://www.surechembl.org/

> <PUBCHEM_EXT_SUBSTANCE_URL>
https://www.surechembl.org/chemical/SCHEMBL16124298

> <PUBCHEM_CID_ASSOCIATIONS>
117612141  1

> <PUBCHEM_COORDINATE_TYPE>
1
3

> <PUBCHEM_BONDANNOTATIONS>
14  16  6
15  17  6

$$$$
