310949172
  -OEChem-07211613022D

 26 28  0     1  0  0  0  0  0999 V2000
   -3.6475   -0.2461    0.0000 O   0  0  0  0  0  0  0  0  0  0  0  0
    3.6027   -0.6937    0.0000 O   0  0  0  0  0  0  0  0  0  0  0  0
   -4.1957    1.1076    0.0000 O   0  0  0  0  0  0  0  0  0  0  0  0
    4.2516    0.6042    0.0000 O   0  0  0  0  0  0  0  0  0  0  0  0
    0.1118   -0.1231    0.0000 C   0  0  3  0  0  0  0  0  0  0  0  0
    0.4699    0.6042    0.0000 C   0  0  3  0  0  0  0  0  0  0  0  0
   -0.7272    0.1007    0.0000 C   0  0  3  0  0  0  0  0  0  0  0  0
   -0.2909    0.8280    0.0000 C   0  0  3  0  0  0  0  0  0  0  0  0
   -1.4769   -0.1007    0.0000 C   0  0  0  0  0  0  0  0  0  0  0  0
   -0.6825    1.4880    0.0000 C   0  0  0  0  0  0  0  0  0  0  0  0
   -1.0853    0.6154    0.0000 C   0  0  0  0  0  0  0  0  0  0  0  0
    0.6377   -0.7385    0.0000 C   0  0  0  0  0  0  0  0  0  0  0  0
    1.3314    0.4252    0.0000 C   0  0  0  0  0  0  0  0  0  0  0  0
    1.3874   -0.4139    0.0000 C   0  0  0  0  0  0  0  0  0  0  0  0
   -2.2489   -0.3916    0.0000 C   0  0  0  0  0  0  0  0  0  0  0  0
    2.1930   -0.7720    0.0000 C   0  0  0  0  0  0  0  0  0  0  0  0
   -2.9090    0.0560    0.0000 C   0  0  0  0  0  0  0  0  0  0  0  0
    2.8307   -0.3356    0.0000 C   0  0  0  0  0  0  0  0  0  0  0  0
   -4.3188    0.2461    0.0000 C   0  0  0  0  0  0  0  0  0  0  0  0
    4.3076   -0.2686    0.0000 C   0  0  0  0  0  0  0  0  0  0  0  0
   -5.0796   -0.0335    0.0000 C   0  0  0  0  0  0  0  0  0  0  0  0
    5.0684   -0.5930    0.0000 C   0  0  0  0  0  0  0  0  0  0  0  0
   -5.2027   -0.9063    0.0000 C   0  0  0  0  0  0  0  0  0  0  0  0
   -5.7733    0.4587    0.0000 C   0  0  0  0  0  0  0  0  0  0  0  0
    5.1244   -1.4880    0.0000 C   0  0  0  0  0  0  0  0  0  0  0  0
    5.7733   -0.1566    0.0000 C   0  0  0  0  0  0  0  0  0  0  0  0
  1 17  1  0  0  0  0
  1 19  1  0  0  0  0
  2 18  1  0  0  0  0
  2 20  1  0  0  0  0
  3 19  2  0  0  0  0
  4 20  2  0  0  0  0
  5  6  1  0  0  0  0
  5  7  1  0  0  0  0
  5 12  1  0  0  0  0
  6  8  1  0  0  0  0
  6 13  1  0  0  0  0
  7  9  1  0  0  0  0
  7 10  1  0  0  0  0
  8 10  1  0  0  0  0
  8 11  1  0  0  0  0
  9 11  2  0  0  0  0
  9 15  1  0  0  0  0
 12 14  2  0  0  0  0
 13 14  1  0  0  0  0
 14 16  1  0  0  0  0
 15 17  1  0  0  0  0
 16 18  1  0  0  0  0
 19 21  1  0  0  0  0
 20 22  1  0  0  0  0
 21 23  2  0  0  0  0
 21 24  1  0  0  0  0
 22 25  2  0  0  0  0
 22 26  1  0  0  0  0
M  END
> <PUBCHEM_COMPOUND_ID_TYPE>
0

> <PUBCHEM_TOTAL_CHARGE>
0

> <PUBCHEM_SUBSTANCE_ID>
310949172

> <PUBCHEM_SUBSTANCE_VERSION>
1

> <PUBCHEM_EXT_DATASOURCE_NAME>
4488

> <PUBCHEM_EXT_DATASOURCE_REGID>
SCHEMBL16127362

> <PUBCHEM_SUBSTANCE_COMMENT>
InChI=1S/C22H28O4/c1-13(2)21(23)25-7-5-15-9-18-17-11-16(19(12-17)20(18)10-15)6-8-26-22(24)14(3)4/h10-11,17-20H,1,3,5-9,12H2,2,4H3
InChIKey=WXLLVIUZADIRCT-UHFFFAOYSA-N

> <PUBCHEM_SUBSTANCE_SYNONYM>
SCHEMBL16127362

> <PUBCHEM_XREF_EXT_ID>
SCHEMBL16127362

> <PUBCHEM_EXT_DATASOURCE_URL>
https://www.surechembl.org/

> <PUBCHEM_EXT_SUBSTANCE_URL>
https://www.surechembl.org/chemical/SCHEMBL16127362

> <PUBCHEM_CID_ASSOCIATIONS>
117614665  1

> <PUBCHEM_COORDINATE_TYPE>
1
3

$$$$
