310931147
  -OEChem-07211613022D

 34 37  0     1  0  0  0  0  0999 V2000
    4.8183    1.9416    0.0000 Cl  0  0  0  0  0  0  0  0  0  0  0  0
    6.4302    5.1161    0.0000 S   0  0  0  0  0  0  0  0  0  0  0  0
    5.0483    3.3937    0.0000 S   0  0  0  0  0  0  0  0  0  0  0  0
    6.4302    6.7661    0.0000 F   0  0  0  0  0  0  0  0  0  0  0  0
    9.2881    5.1161    0.0000 F   0  0  0  0  0  0  0  0  0  0  0  0
   12.1460    5.1161    0.0000 F   0  0  0  0  0  0  0  0  0  0  0  0
   10.7171    4.2911    0.0000 F   0  0  0  0  0  0  0  0  0  0  0  0
    9.2881    6.7661    0.0000 O   0  0  0  0  0  0  0  0  0  0  0  0
    6.0177    5.8305    0.0000 O   0  0  0  0  0  0  0  0  0  0  0  0
    6.8427    4.4016    0.0000 O   0  0  0  0  0  0  0  0  0  0  0  0
    5.7158    4.7036    0.0000 N   0  0  0  0  0  0  0  0  0  0  0  0
    6.3832    3.3937    0.0000 N   0  0  0  0  0  0  0  0  0  0  0  0
   10.7171    9.2411    0.0000 N   0  0  0  0  0  0  0  0  0  0  0  0
    7.1447    5.5286    0.0000 C   0  0  0  0  0  0  0  0  0  0  0  0
    7.1447    6.3536    0.0000 C   0  0  0  0  0  0  0  0  0  0  0  0
    7.8592    5.1161    0.0000 C   0  0  0  0  0  0  0  0  0  0  0  0
    8.5737    6.3536    0.0000 C   0  0  0  0  0  0  0  0  0  0  0  0
    8.5737    5.5286    0.0000 C   0  0  0  0  0  0  0  0  0  0  0  0
    7.8592    6.7661    0.0000 C   0  0  0  0  0  0  0  0  0  0  0  0
    5.7158    3.8786    0.0000 C   0  0  0  0  0  0  0  0  0  0  0  0
   10.7171    7.5911    0.0000 C   0  0  3  0  0  0  0  0  0  0  0  0
   10.0026    8.0036    0.0000 C   0  0  3  0  0  0  0  0  0  0  0  0
   10.7171    6.7661    0.0000 C   0  0  0  0  0  0  0  0  0  0  0  0
    9.2881    7.5911    0.0000 C   0  0  0  0  0  0  0  0  0  0  0  0
    5.3033    2.6090    0.0000 C   0  0  0  0  0  0  0  0  0  0  0  0
    6.1283    2.6090    0.0000 C   0  0  0  0  0  0  0  0  0  0  0  0
   11.4315    6.3536    0.0000 C   0  0  0  0  0  0  0  0  0  0  0  0
   11.4315    8.0036    0.0000 C   0  0  0  0  0  0  0  0  0  0  0  0
   10.0026    8.8286    0.0000 C   0  0  0  0  0  0  0  0  0  0  0  0
   10.0026    6.3536    0.0000 C   0  0  0  0  0  0  0  0  0  0  0  0
   11.4315    5.5286    0.0000 C   0  0  0  0  0  0  0  0  0  0  0  0
   10.7171    5.1161    0.0000 C   0  0  0  0  0  0  0  0  0  0  0  0
   10.0026    5.5286    0.0000 C   0  0  0  0  0  0  0  0  0  0  0  0
   11.4315    8.8286    0.0000 C   0  0  0  0  0  0  0  0  0  0  0  0
  1 25  1  0  0  0  0
  2  9  2  0  0  0  0
  2 10  2  0  0  0  0
  2 11  1  0  0  0  0
  2 14  1  0  0  0  0
  3 20  1  0  0  0  0
  3 25  1  0  0  0  0
  4 15  1  0  0  0  0
  5 18  1  0  0  0  0
  6 31  1  0  0  0  0
  7 32  1  0  0  0  0
  8 17  1  0  0  0  0
  8 24  1  0  0  0  0
 11 20  1  0  0  0  0
 12 20  2  0  0  0  0
 12 26  1  0  0  0  0
 13 29  1  0  0  0  0
 13 34  1  0  0  0  0
 14 15  2  0  0  0  0
 14 16  1  0  0  0  0
 15 19  1  0  0  0  0
 16 18  2  0  0  0  0
 17 18  1  0  0  0  0
 17 19  2  0  0  0  0
 21 22  1  0  0  0  0
 21 23  1  0  0  0  0
 21 28  1  0  0  0  0
 22 24  1  0  0  0  0
 22 29  1  0  0  0  0
 23 27  2  0  0  0  0
 23 30  1  0  0  0  0
 25 26  2  0  0  0  0
 27 31  1  0  0  0  0
 28 34  1  0  0  0  0
 30 33  2  0  0  0  0
 31 32  2  0  0  0  0
 32 33  1  0  0  0  0
M  END
> <PUBCHEM_COMPOUND_ID_TYPE>
0

> <PUBCHEM_TOTAL_CHARGE>
0

> <PUBCHEM_SUBSTANCE_ID>
310931147

> <PUBCHEM_SUBSTANCE_VERSION>
1

> <PUBCHEM_EXT_DATASOURCE_NAME>
4488

> <PUBCHEM_EXT_DATASOURCE_REGID>
SCHEMBL16108452

> <PUBCHEM_SUBSTANCE_COMMENT>
InChI=1S/C21H18ClF4N3O3S2/c22-20-9-28-21(33-20)29-34(30,31)19-7-16(25)18(6-17(19)26)32-10-12-8-27-4-3-13(12)11-1-2-14(23)15(24)5-11/h1-2,5-7,9,12-13,27H,3-4,8,10H2,(H,28,29)
InChIKey=VHKPEJOGTWZSOP-UHFFFAOYSA-N

> <PUBCHEM_SUBSTANCE_SYNONYM>
SCHEMBL16108452

> <PUBCHEM_XREF_EXT_ID>
SCHEMBL16108452

> <PUBCHEM_EXT_DATASOURCE_URL>
https://www.surechembl.org/

> <PUBCHEM_EXT_SUBSTANCE_URL>
https://www.surechembl.org/chemical/SCHEMBL16108452

> <PUBCHEM_CID_ASSOCIATIONS>
78111364  1

> <PUBCHEM_COORDINATE_TYPE>
1
3

$$$$
