310931140
  -OEChem-07211613022D

 23 26  0     1  0  0  0  0  0999 V2000
    0.2404   -2.7339    0.0000 O   0  0  0  0  0  0  0  0  0  0  0  0
    0.3605   -5.1675    0.0000 O   0  0  0  0  0  0  0  0  0  0  0  0
    1.6824    0.0000    0.0000 O   0  0  0  0  0  0  0  0  0  0  0  0
    1.6824   -2.5236    0.0000 N   0  0  0  0  0  0  0  0  0  0  0  0
    2.1030   -3.7855    0.0000 N   0  0  0  0  0  0  0  0  0  0  0  0
    3.1245   -2.7339    0.0000 N   0  0  0  0  0  0  0  0  0  0  0  0
    1.2618   -3.7855    0.0000 C   0  0  3  0  0  0  0  0  0  0  0  0
    1.0215   -3.0044    0.0000 C   0  0  0  0  0  0  0  0  0  0  0  0
    0.7811   -4.4464    0.0000 C   0  0  0  0  0  0  0  0  0  0  0  0
    1.6224   -4.5366    0.0000 C   0  0  0  0  0  0  0  0  0  0  0  0
    2.3434   -3.0044    0.0000 C   0  0  0  0  0  0  0  0  0  0  0  0
    0.6910   -5.2876    0.0000 C   0  0  0  0  0  0  0  0  0  0  0  0
    0.0000   -4.8070    0.0000 C   0  0  0  0  0  0  0  0  0  0  0  0
    1.6824   -1.6824    0.0000 C   0  0  0  0  0  0  0  0  0  0  0  0
    1.1717   -5.2276    0.0000 C   0  0  0  0  0  0  0  0  0  0  0  0
    2.4636   -4.5666    0.0000 C   0  0  0  0  0  0  0  0  0  0  0  0
    1.5623   -5.9486    0.0000 C   0  0  0  0  0  0  0  0  0  0  0  0
    2.3734   -1.2618    0.0000 C   0  0  0  0  0  0  0  0  0  0  0  0
    0.9614   -1.2618    0.0000 C   0  0  0  0  0  0  0  0  0  0  0  0
    2.8241   -5.3177    0.0000 C   0  0  0  0  0  0  0  0  0  0  0  0
    2.3734   -6.0087    0.0000 C   0  0  0  0  0  0  0  0  0  0  0  0
    2.3734   -0.4507    0.0000 C   0  0  0  0  0  0  0  0  0  0  0  0
    0.9614   -0.4507    0.0000 C   0  0  0  0  0  0  0  0  0  0  0  0
  1  8  2  0  0  0  0
  2 15  1  0  0  0  0
  3 22  1  0  0  0  0
  3 23  1  0  0  0  0
  4  8  1  0  0  0  0
  4 11  1  0  0  0  0
  4 14  1  0  0  0  0
  5  7  1  0  0  0  0
  5 11  1  0  0  0  0
  6 11  2  3  0  0  0
  7  8  1  0  0  0  0
  7  9  1  0  0  0  0
  7 10  1  0  0  0  0
  9 12  1  0  0  0  0
  9 13  1  0  0  0  0
 10 15  1  0  0  0  0
 10 16  2  0  0  0  0
 12 13  1  0  0  0  0
 14 18  1  0  0  0  0
 14 19  1  0  0  0  0
 15 17  2  0  0  0  0
 16 20  1  0  0  0  0
 17 21  1  0  0  0  0
 18 22  1  0  0  0  0
 19 23  1  0  0  0  0
 20 21  2  0  0  0  0
M  END
> <PUBCHEM_COMPOUND_ID_TYPE>
0

> <PUBCHEM_TOTAL_CHARGE>
0

> <PUBCHEM_SUBSTANCE_ID>
310931140

> <PUBCHEM_SUBSTANCE_VERSION>
1

> <PUBCHEM_EXT_DATASOURCE_NAME>
4488

> <PUBCHEM_EXT_DATASOURCE_REGID>
SCHEMBL16108445

> <PUBCHEM_SUBSTANCE_COMMENT>
InChI=1S/C17H21N3O3/c18-16-19-17(11-5-6-11,13-3-1-2-4-14(13)21)15(22)20(16)12-7-9-23-10-8-12/h1-4,11-12,21H,5-10H2,(H2,18,19)
InChIKey=ZWHUKWDLWPPALZ-UHFFFAOYSA-N

> <PUBCHEM_SUBSTANCE_SYNONYM>
SCHEMBL16108445

> <PUBCHEM_XREF_EXT_ID>
SCHEMBL16108445

> <PUBCHEM_EXT_DATASOURCE_URL>
https://www.surechembl.org/

> <PUBCHEM_EXT_SUBSTANCE_URL>
https://www.surechembl.org/chemical/SCHEMBL16108445

> <PUBCHEM_CID_ASSOCIATIONS>
117600020  1

> <PUBCHEM_COORDINATE_TYPE>
1
3

$$$$
