310937462
  -OEChem-07211613022D

 38 42  0     1  0  0  0  0  0999 V2000
    4.3021   -5.3189    0.0000 O   0  0  0  0  0  0  0  0  0  0  0  0
    7.1962   -5.3580    0.0000 O   0  0  0  0  0  0  0  0  0  0  0  0
    6.5313   -2.5812    0.0000 N   0  0  3  0  0  0  0  0  0  0  0  0
    5.7491   -5.3189    0.0000 N   0  0  0  0  0  0  0  0  0  0  0  0
    7.9002   -6.5704    0.0000 N   0  0  0  0  0  0  0  0  0  0  0  0
    2.1902   -2.4639    0.0000 N   0  0  0  0  0  0  0  0  0  0  0  0
    1.4471   -1.2124    0.0000 N   0  0  0  0  0  0  0  0  0  0  0  0
    0.0000   -0.4302    0.0000 N   0  0  0  0  0  0  0  0  0  0  0  0
    5.7491   -3.6763    0.0000 C   0  0  0  0  0  0  0  0  0  0  0  0
    5.7491   -2.8550    0.0000 C   0  0  0  0  0  0  0  0  0  0  0  0
    5.0452   -4.0674    0.0000 C   0  0  0  0  0  0  0  0  0  0  0  0
    4.3412   -2.8550    0.0000 C   0  0  0  0  0  0  0  0  0  0  0  0
    5.0452   -2.4248    0.0000 C   0  0  0  0  0  0  0  0  0  0  0  0
    4.3412   -3.6763    0.0000 C   0  0  0  0  0  0  0  0  0  0  0  0
    6.5313   -3.9109    0.0000 C   0  0  0  0  0  0  0  0  0  0  0  0
    5.0452   -4.8887    0.0000 C   0  0  0  0  0  0  0  0  0  0  0  0
    3.5981   -2.4639    0.0000 C   0  0  0  0  0  0  0  0  0  0  0  0
    7.0006   -3.2461    0.0000 C   0  0  0  0  0  0  0  0  0  0  0  0
    6.8050   -1.7991    0.0000 C   0  0  0  0  0  0  0  0  0  0  0  0
    6.4531   -6.5704    0.0000 C   0  0  0  0  0  0  0  0  0  0  0  0
    2.8941   -2.8550    0.0000 C   0  0  0  0  0  0  0  0  0  0  0  0
    3.5981   -1.6426    0.0000 C   0  0  0  0  0  0  0  0  0  0  0  0
    7.1962   -6.1793    0.0000 C   0  0  0  0  0  0  0  0  0  0  0  0
    5.7491   -6.1402    0.0000 C   0  0  0  0  0  0  0  0  0  0  0  0
    6.4922   -7.3917    0.0000 C   0  0  0  0  0  0  0  0  0  0  0  0
    2.1511   -1.6426    0.0000 C   0  0  0  0  0  0  0  0  0  0  0  0
    7.9002   -7.3917    0.0000 C   0  0  0  0  0  0  0  0  0  0  0  0
    2.8941   -1.2124    0.0000 C   0  0  0  0  0  0  0  0  0  0  0  0
    7.1571   -7.7828    0.0000 C   0  0  0  0  0  0  0  0  0  0  0  0
    6.2184   -1.2124    0.0000 C   0  0  0  0  0  0  0  0  0  0  0  0
    7.5873   -1.6426    0.0000 C   0  0  0  0  0  0  0  0  0  0  0  0
    5.7491   -7.7828    0.0000 C   0  0  0  0  0  0  0  0  0  0  0  0
    8.6041   -6.1402    0.0000 C   0  0  0  0  0  0  0  0  0  0  0  0
    1.4471   -0.3911    0.0000 C   0  0  0  0  0  0  0  0  0  0  0  0
    0.7431   -1.6426    0.0000 C   0  0  0  0  0  0  0  0  0  0  0  0
    8.6041   -7.8219    0.0000 C   0  0  0  0  0  0  0  0  0  0  0  0
    0.0000   -1.2515    0.0000 C   0  0  0  0  0  0  0  0  0  0  0  0
    0.7040    0.0000    0.0000 C   0  0  0  0  0  0  0  0  0  0  0  0
  1 16  2  0  0  0  0
  2 23  2  0  0  0  0
  3 10  1  0  0  0  0
  3 18  1  0  0  0  0
  3 19  1  0  0  0  0
  4 16  1  0  0  0  0
  4 24  1  0  0  0  0
  5 23  1  0  0  0  0
  5 27  1  0  0  0  0
  5 33  1  0  0  0  0
  6 21  1  0  0  0  0
  6 26  2  0  0  0  0
  7 26  1  0  0  0  0
  7 34  1  0  0  0  0
  7 35  1  0  0  0  0
  8 37  1  0  0  0  0
  8 38  1  0  0  0  0
  9 10  2  0  0  0  0
  9 11  1  0  0  0  0
  9 15  1  0  0  0  0
 10 13  1  0  0  0  0
 11 14  2  0  0  0  0
 11 16  1  0  0  0  0
 12 13  2  0  0  0  0
 12 14  1  0  0  0  0
 12 17  1  0  0  0  0
 15 18  1  0  0  0  0
 17 21  2  0  0  0  0
 17 22  1  0  0  0  0
 19 30  1  0  0  0  0
 19 31  1  0  0  0  0
 20 23  1  0  0  0  0
 20 24  1  0  0  0  0
 20 25  2  0  0  0  0
 22 28  2  0  0  0  0
 25 29  1  0  0  0  0
 25 32  1  0  0  0  0
 26 28  1  0  0  0  0
 27 29  2  0  0  0  0
 27 36  1  0  0  0  0
 34 38  1  0  0  0  0
 35 37  1  0  0  0  0
M  END
> <PUBCHEM_COMPOUND_ID_TYPE>
0

> <PUBCHEM_TOTAL_CHARGE>
0

> <PUBCHEM_SUBSTANCE_ID>
310937462

> <PUBCHEM_SUBSTANCE_VERSION>
1

> <PUBCHEM_EXT_DATASOURCE_NAME>
4488

> <PUBCHEM_EXT_DATASOURCE_REGID>
SCHEMBL16115231

> <PUBCHEM_SUBSTANCE_COMMENT>
InChI=1S/C30H38N6O2/c1-19(2)36-11-8-24-25(29(37)33-18-26-20(3)14-21(4)34(5)30(26)38)15-23(16-27(24)36)22-6-7-28(32-17-22)35-12-9-31-10-13-35/h6-7,14-17,19,31H,8-13,18H2,1-5H3,(H,33,37)
InChIKey=UYWDOYPIHGXZQN-UHFFFAOYSA-N

> <PUBCHEM_SUBSTANCE_SYNONYM>
SCHEMBL16115231

> <PUBCHEM_XREF_EXT_ID>
SCHEMBL16115231

> <PUBCHEM_EXT_DATASOURCE_URL>
https://www.surechembl.org/

> <PUBCHEM_EXT_SUBSTANCE_URL>
https://www.surechembl.org/chemical/SCHEMBL16115231

> <PUBCHEM_CID_ASSOCIATIONS>
86274123  1

> <PUBCHEM_COORDINATE_TYPE>
1
3

$$$$
