310943281
  -OEChem-07211613022D

 37 41  0     1  0  0  0  0  0999 V2000
    4.3342   -2.1671    0.0000 F   0  0  0  0  0  0  0  0  0  0  0  0
    3.5297   -2.9551    0.0000 F   0  0  0  0  0  0  0  0  0  0  0  0
    2.7581   -2.1506    0.0000 F   0  0  0  0  0  0  0  0  0  0  0  0
   -4.2028    2.6596    0.0000 O   0  0  0  0  0  0  0  0  0  0  0  0
   -2.9223   -0.0821    0.0000 O   0  0  0  0  0  0  0  0  0  0  0  0
    1.3791   -0.0821    0.0000 O   0  0  0  0  0  0  0  0  0  0  0  0
   -2.9059    1.6089    0.0000 N   0  0  0  0  0  0  0  0  0  0  0  0
   -1.4775   -0.0821    0.0000 N   0  0  0  0  0  0  0  0  0  0  0  0
    0.6731    2.8238    0.0000 N   0  0  0  0  0  0  0  0  0  0  0  0
    2.1014    1.1656    0.0000 N   0  0  0  0  0  0  0  0  0  0  0  0
    4.2521   -0.9030    0.0000 N   0  0  0  0  0  0  0  0  0  0  0  0
    4.2521   -0.0821    0.0000 N   0  0  0  0  0  0  0  0  0  0  0  0
   -2.1835    1.1656    0.0000 C   0  0  0  0  0  0  0  0  0  0  0  0
   -3.6775    1.3462    0.0000 C   0  0  3  0  0  0  0  0  0  0  0  0
   -2.8074    2.4298    0.0000 C   0  0  3  0  0  0  0  0  0  0  0  0
   -2.1999    0.3283    0.0000 C   0  0  0  0  0  0  0  0  0  0  0  0
   -0.7552    1.1656    0.0000 C   0  0  0  0  0  0  0  0  0  0  0  0
   -1.4775    1.5761    0.0000 C   0  0  0  0  0  0  0  0  0  0  0  0
   -0.0492    1.5761    0.0000 C   0  0  0  0  0  0  0  0  0  0  0  0
   -3.8416    1.8880    0.0000 C   0  0  0  0  0  0  0  0  0  0  0  0
   -3.3491    2.5119    0.0000 C   0  0  0  0  0  0  0  0  0  0  0  0
   -4.3177    1.8388    0.0000 C   0  0  0  0  0  0  0  0  0  0  0  0
   -3.4312    2.9551    0.0000 C   0  0  0  0  0  0  0  0  0  0  0  0
   -0.7716    0.3283    0.0000 C   0  0  0  0  0  0  0  0  0  0  0  0
   -0.0329    2.4133    0.0000 C   0  0  0  0  0  0  0  0  0  0  0  0
    0.6731    1.1656    0.0000 C   0  0  0  0  0  0  0  0  0  0  0  0
    1.3954    1.5761    0.0000 C   0  0  0  0  0  0  0  0  0  0  0  0
    2.8238   -0.0821    0.0000 C   0  0  0  0  0  0  0  0  0  0  0  0
    3.5462   -1.3134    0.0000 C   0  0  0  0  0  0  0  0  0  0  0  0
    2.1179    0.3612    0.0000 C   0  0  0  0  0  0  0  0  0  0  0  0
    1.3954    2.3970    0.0000 C   0  0  0  0  0  0  0  0  0  0  0  0
    3.5297   -2.1506    0.0000 C   0  0  0  0  0  0  0  0  0  0  0  0
    2.8238   -0.9030    0.0000 C   0  0  0  0  0  0  0  0  0  0  0  0
    3.5297    0.3283    0.0000 C   0  0  0  0  0  0  0  0  0  0  0  0
   -0.7716    2.8074    0.0000 C   0  0  0  0  0  0  0  0  0  0  0  0
   -3.6282    0.3283    0.0000 C   0  0  0  0  0  0  0  0  0  0  0  0
   -4.3342   -0.0985    0.0000 C   0  0  0  0  0  0  0  0  0  0  0  0
  1 32  1  0  0  0  0
  2 32  1  0  0  0  0
  3 32  1  0  0  0  0
  4 22  1  0  0  0  0
  4 23  1  0  0  0  0
  5 16  1  0  0  0  0
  5 36  1  0  0  0  0
  6 30  2  0  0  0  0
  7 13  1  0  0  0  0
  7 14  1  0  0  0  0
  7 15  1  0  0  0  0
  8 16  1  0  0  0  0
  8 24  2  0  0  0  0
  9 25  2  0  0  0  0
  9 31  1  0  0  0  0
 10 27  1  0  0  0  0
 10 30  1  0  0  0  0
 11 12  1  0  0  0  0
 11 29  2  0  0  0  0
 12 34  2  0  0  0  0
 13 16  2  0  0  0  0
 13 18  1  0  0  0  0
 14 20  1  0  0  0  0
 14 22  1  0  0  0  0
 15 21  1  0  0  0  0
 15 23  1  0  0  0  0
 17 18  2  0  0  0  0
 17 19  1  0  0  0  0
 17 24  1  0  0  0  0
 19 25  1  0  0  0  0
 19 26  2  0  0  0  0
 20 21  1  0  0  0  0
 25 35  1  0  0  0  0
 26 27  1  0  0  0  0
 27 31  2  0  0  0  0
 28 30  1  0  0  0  0
 28 33  2  0  0  0  0
 28 34  1  0  0  0  0
 29 32  1  0  0  0  0
 29 33  1  0  0  0  0
 36 37  1  0  0  0  0
M  END
> <PUBCHEM_COMPOUND_ID_TYPE>
0

> <PUBCHEM_TOTAL_CHARGE>
0

> <PUBCHEM_SUBSTANCE_ID>
310943281

> <PUBCHEM_SUBSTANCE_VERSION>
1

> <PUBCHEM_EXT_DATASOURCE_NAME>
4488

> <PUBCHEM_EXT_DATASOURCE_REGID>
SCHEMBL16121343

> <PUBCHEM_SUBSTANCE_COMMENT>
InChI=1S/C25H25F3N6O3/c1-3-37-24-21(34-18-4-5-19(34)13-36-12-18)6-15(9-30-24)20-8-17(11-29-14(20)2)32-23(35)16-7-22(25(26,27)28)33-31-10-16/h6-11,18-19H,3-5,12-13H2,1-2H3,(H,32,35)
InChIKey=XGWAWSZKPLTUCQ-UHFFFAOYSA-N

> <PUBCHEM_SUBSTANCE_SYNONYM>
SCHEMBL16121343

> <PUBCHEM_XREF_EXT_ID>
SCHEMBL16121343

> <PUBCHEM_EXT_DATASOURCE_URL>
https://www.surechembl.org/

> <PUBCHEM_EXT_SUBSTANCE_URL>
https://www.surechembl.org/chemical/SCHEMBL16121343

> <PUBCHEM_CID_ASSOCIATIONS>
117609706  1

> <PUBCHEM_COORDINATE_TYPE>
1
3

$$$$
