310938848
  -OEChem-07211613022D

 61 73  0     1  0  0  0  0  0999 V2000
    3.0473   -9.0788    0.0000 N   0  0  0  0  0  0  0  0  0  0  0  0
    3.1335   -3.8375    0.0000 N   0  0  0  0  0  0  0  0  0  0  0  0
   -0.3593   -4.9967    0.0000 N   0  0  0  0  0  0  0  0  0  0  0  0
    2.0827   -7.1961    0.0000 C   0  0  3  0  0  0  0  0  0  0  0  0
    2.7502   -7.6810    0.0000 C   0  0  0  0  0  0  0  0  0  0  0  0
    1.4153   -7.6810    0.0000 C   0  0  0  0  0  0  0  0  0  0  0  0
    2.4952   -8.4657    0.0000 C   0  0  0  0  0  0  0  0  0  0  0  0
    1.6702   -8.4657    0.0000 C   0  0  0  0  0  0  0  0  0  0  0  0
    2.6628   -6.2551    0.0000 C   0  0  0  0  0  0  0  0  0  0  0  0
    1.4994   -6.6128    0.0000 C   0  0  0  0  0  0  0  0  0  0  0  0
    3.5572   -7.5095    0.0000 C   0  0  0  0  0  0  0  0  0  0  0  0
    4.1092   -8.1226    0.0000 C   0  0  0  0  0  0  0  0  0  0  0  0
    3.8542   -8.9072    0.0000 C   0  0  0  0  0  0  0  0  0  0  0  0
    2.0799   -5.6717    0.0000 C   0  0  0  0  0  0  0  0  0  0  0  0
    0.7025   -6.8263    0.0000 C   0  0  0  0  0  0  0  0  0  0  0  0
    0.6083   -7.5095    0.0000 C   0  0  0  0  0  0  0  0  0  0  0  0
    2.2935   -4.8749    0.0000 C   0  0  0  0  0  0  0  0  0  0  0  0
    0.1191   -6.2429    0.0000 C   0  0  0  0  0  0  0  0  0  0  0  0
    4.1405   -6.9262    0.0000 C   0  0  0  0  0  0  0  0  0  0  0  0
    3.4602   -6.0416    0.0000 C   0  0  0  0  0  0  0  0  0  0  0  0
    1.7129   -5.8159    0.0000 C   0  0  0  0  0  0  0  0  0  0  0  0
    1.1182   -9.0788    0.0000 C   0  0  0  0  0  0  0  0  0  0  0  0
    3.0904   -4.6613    0.0000 C   0  0  0  0  0  0  0  0  0  0  0  0
    0.3327   -5.4460    0.0000 C   0  0  0  0  0  0  0  0  0  0  0  0
    1.8441   -4.1829    0.0000 C   0  0  0  0  0  0  0  0  0  0  0  0
   -0.7047   -6.2861    0.0000 C   0  0  0  0  0  0  0  0  0  0  0  0
    3.6737   -5.2447    0.0000 C   0  0  0  0  0  0  0  0  0  0  0  0
    1.1295   -5.2325    0.0000 C   0  0  0  0  0  0  0  0  0  0  0  0
    2.3633   -3.5418    0.0000 C   0  0  0  0  0  0  0  0  0  0  0  0
   -1.0004   -5.5159    0.0000 C   0  0  0  0  0  0  0  0  0  0  0  0
    0.0563   -8.1226    0.0000 C   0  0  0  0  0  0  0  0  0  0  0  0
    4.9162   -7.9511    0.0000 C   0  0  0  0  0  0  0  0  0  0  0  0
    0.3112   -8.9072    0.0000 C   0  0  0  0  0  0  0  0  0  0  0  0
    4.4063   -9.5203    0.0000 C   0  0  0  0  0  0  0  0  0  0  0  0
    4.9374   -7.1397    0.0000 C   0  0  0  0  0  0  0  0  0  0  0  0
    3.9270   -6.1293    0.0000 C   0  0  0  0  0  0  0  0  0  0  0  0
    3.8480   -3.4250    0.0000 C   0  0  0  0  0  0  0  0  0  0  0  0
   -0.5728   -4.1998    0.0000 C   0  0  0  0  0  0  0  0  0  0  0  0
    1.0293   -4.0539    0.0000 C   0  0  0  0  0  0  0  0  0  0  0  0
   -1.2239   -6.9272    0.0000 C   0  0  0  0  0  0  0  0  0  0  0  0
    5.4682   -8.5642    0.0000 C   0  0  0  0  0  0  0  0  0  0  0  0
    5.2132   -9.3488    0.0000 C   0  0  0  0  0  0  0  0  0  0  0  0
    2.0677   -2.7716    0.0000 C   0  0  0  0  0  0  0  0  0  0  0  0
   -1.8152   -5.3868    0.0000 C   0  0  0  0  0  0  0  0  0  0  0  0
    5.5208   -6.5563    0.0000 C   0  0  0  0  0  0  0  0  0  0  0  0
    4.5104   -5.5459    0.0000 C   0  0  0  0  0  0  0  0  0  0  0  0
    0.7336   -3.2837    0.0000 C   0  0  0  0  0  0  0  0  0  0  0  0
   -2.0388   -6.7982    0.0000 C   0  0  0  0  0  0  0  0  0  0  0  0
    1.2528   -2.6425    0.0000 C   0  0  0  0  0  0  0  0  0  0  0  0
   -2.3344   -6.0280    0.0000 C   0  0  0  0  0  0  0  0  0  0  0  0
    4.5625   -3.8375    0.0000 C   0  0  0  0  0  0  0  0  0  0  0  0
    3.8480   -2.6000    0.0000 C   0  0  0  0  0  0  0  0  0  0  0  0
    0.0106   -3.6165    0.0000 C   0  0  0  0  0  0  0  0  0  0  0  0
   -1.3697   -3.9863    0.0000 C   0  0  0  0  0  0  0  0  0  0  0  0
    5.3072   -5.7594    0.0000 C   0  0  0  0  0  0  0  0  0  0  0  0
    5.2769   -3.4250    0.0000 C   0  0  0  0  0  0  0  0  0  0  0  0
    4.5625   -2.1875    0.0000 C   0  0  0  0  0  0  0  0  0  0  0  0
   -0.2029   -2.8196    0.0000 C   0  0  0  0  0  0  0  0  0  0  0  0
   -1.5832   -3.1894    0.0000 C   0  0  0  0  0  0  0  0  0  0  0  0
    5.2769   -2.6000    0.0000 C   0  0  0  0  0  0  0  0  0  0  0  0
   -0.9998   -2.6060    0.0000 C   0  0  0  0  0  0  0  0  0  0  0  0
  1  7  1  0  0  0  0
  1 13  2  0  0  0  0
  2 23  1  0  0  0  0
  2 29  1  0  0  0  0
  2 37  1  0  0  0  0
  3 24  1  0  0  0  0
  3 30  1  0  0  0  0
  3 38  1  0  0  0  0
  4  5  1  0  0  0  0
  4  6  1  0  0  0  0
  4  9  1  0  0  0  0
  4 10  1  0  0  0  0
  5  7  2  0  0  0  0
  5 11  1  0  0  0  0
  6  8  2  0  0  0  0
  6 16  1  0  0  0  0
  7  8  1  0  0  0  0
  8 22  1  0  0  0  0
  9 14  2  0  0  0  0
  9 20  1  0  0  0  0
 10 15  1  0  0  0  0
 10 21  2  0  0  0  0
 11 12  2  0  0  0  0
 11 19  1  0  0  0  0
 12 13  1  0  0  0  0
 12 32  1  0  0  0  0
 13 34  1  0  0  0  0
 14 17  1  0  0  0  0
 15 18  2  0  0  0  0
 16 31  2  0  0  0  0
 17 23  2  0  0  0  0
 17 25  1  0  0  0  0
 18 24  1  0  0  0  0
 18 26  1  0  0  0  0
 19 35  2  0  0  0  0
 19 36  1  0  0  0  0
 20 27  2  0  0  0  0
 21 28  1  0  0  0  0
 22 33  2  0  0  0  0
 23 27  1  0  0  0  0
 24 28  2  0  0  0  0
 25 29  2  0  0  0  0
 25 39  1  0  0  0  0
 26 30  2  0  0  0  0
 26 40  1  0  0  0  0
 29 43  1  0  0  0  0
 30 44  1  0  0  0  0
 31 33  1  0  0  0  0
 32 41  2  0  0  0  0
 34 42  2  0  0  0  0
 35 45  1  0  0  0  0
 36 46  2  0  0  0  0
 37 51  2  0  0  0  0
 37 52  1  0  0  0  0
 38 53  2  0  0  0  0
 38 54  1  0  0  0  0
 39 47  2  0  0  0  0
 40 48  2  0  0  0  0
 41 42  1  0  0  0  0
 43 49  2  0  0  0  0
 44 50  2  0  0  0  0
 45 55  2  0  0  0  0
 46 55  1  0  0  0  0
 47 49  1  0  0  0  0
 48 50  1  0  0  0  0
 51 56  1  0  0  0  0
 52 57  2  0  0  0  0
 53 58  1  0  0  0  0
 54 59  2  0  0  0  0
 56 60  2  0  0  0  0
 57 60  1  0  0  0  0
 58 61  2  0  0  0  0
 59 61  1  0  0  0  0
M  END
> <PUBCHEM_COMPOUND_ID_TYPE>
0

> <PUBCHEM_TOTAL_CHARGE>
0

> <PUBCHEM_SUBSTANCE_ID>
310938848

> <PUBCHEM_SUBSTANCE_VERSION>
1

> <PUBCHEM_EXT_DATASOURCE_NAME>
4488

> <PUBCHEM_EXT_DATASOURCE_REGID>
SCHEMBL16116767

> <PUBCHEM_SUBSTANCE_COMMENT>
InChI=1S/C58H37N3/c1-4-18-38(19-5-1)55-46-27-11-15-29-50(46)59-57-45-26-10-14-28-49(45)58(56(55)57,39-32-34-53-47(36-39)43-24-12-16-30-51(43)60(53)41-20-6-2-7-21-41)40-33-35-54-48(37-40)44-25-13-17-31-52(44)61(54)42-22-8-3-9-23-42/h1-37H
InChIKey=RLLRELUJLDKHOL-UHFFFAOYSA-N

> <PUBCHEM_SUBSTANCE_SYNONYM>
SCHEMBL16116767

> <PUBCHEM_XREF_EXT_ID>
SCHEMBL16116767

> <PUBCHEM_EXT_DATASOURCE_URL>
https://www.surechembl.org/

> <PUBCHEM_EXT_SUBSTANCE_URL>
https://www.surechembl.org/chemical/SCHEMBL16116767

> <PUBCHEM_CID_ASSOCIATIONS>
117606247  1

> <PUBCHEM_COORDINATE_TYPE>
1
3

$$$$
