310932844
  -OEChem-07211613022D

 48 54  0     1  0  0  0  0  0999 V2000
    1.4300   -0.8800    0.0000 Cl  0  0  0  0  0  0  0  0  0  0  0  0
    2.4200   -2.2000    0.0000 F   0  0  0  0  0  0  0  0  0  0  0  0
    1.4300   -6.1051    0.0000 O   0  0  0  0  0  0  0  0  0  0  0  0
    4.2350   -4.5101    0.0000 O   0  0  0  0  0  0  0  0  0  0  0  0
    4.8950  -10.5601    0.0000 O   0  0  0  0  0  0  0  0  0  0  0  0
    2.8050   -6.1051    0.0000 N   0  0  0  0  0  0  0  0  0  0  0  0
    1.7050   -3.6851    0.0000 N   0  0  0  0  0  0  0  0  0  0  0  0
    2.9701   -4.6201    0.0000 N   0  0  0  0  0  0  0  0  0  0  0  0
    4.8950   -8.1401    0.0000 N   0  0  0  0  0  0  0  0  0  0  0  0
    2.5301   -3.6851    0.0000 N   0  0  0  0  0  0  0  0  0  0  0  0
    2.8600   -4.5101    0.0000 N   0  0  0  0  0  0  0  0  0  0  0  0
    3.5200   -0.7700    0.0000 N   0  0  0  0  0  0  0  0  0  0  0  0
    2.2000   -0.7700    0.0000 N   0  0  0  0  0  0  0  0  0  0  0  0
    3.5200   -5.7201    0.0000 C   0  0  3  0  0  0  0  0  0  0  0  0
    4.2350   -6.1051    0.0000 C   0  0  0  0  0  0  0  0  0  0  0  0
    4.2350   -6.9301    0.0000 C   0  0  0  0  0  0  0  0  0  0  0  0
    2.1450   -5.7201    0.0000 C   0  0  0  0  0  0  0  0  0  0  0  0
    2.1450   -4.8950    0.0000 C   0  0  0  0  0  0  0  0  0  0  0  0
    4.9501   -7.3701    0.0000 C   0  0  0  0  0  0  0  0  0  0  0  0
    1.4850   -4.4550    0.0000 C   0  0  0  0  0  0  0  0  0  0  0  0
    3.5200   -4.8950    0.0000 C   0  0  0  0  0  0  0  0  0  0  0  0
    2.8050   -6.9301    0.0000 C   0  0  0  0  0  0  0  0  0  0  0  0
    3.5200   -7.3701    0.0000 C   0  0  0  0  0  0  0  0  0  0  0  0
    4.9501   -5.7201    0.0000 C   0  0  0  0  0  0  0  0  0  0  0  0
    1.2650   -3.0250    0.0000 C   0  0  0  0  0  0  0  0  0  0  0  0
    5.6101   -6.9301    0.0000 C   0  0  0  0  0  0  0  0  0  0  0  0
    5.6101   -6.1051    0.0000 C   0  0  0  0  0  0  0  0  0  0  0  0
    1.5950   -2.2550    0.0000 C   0  0  0  0  0  0  0  0  0  0  0  0
    0.4400   -3.0800    0.0000 C   0  0  0  0  0  0  0  0  0  0  0  0
    0.7150   -4.6750    0.0000 C   0  0  0  0  0  0  0  0  0  0  0  0
    1.1000   -1.5950    0.0000 C   0  0  0  0  0  0  0  0  0  0  0  0
    2.8600   -3.6851    0.0000 C   0  0  0  0  0  0  0  0  0  0  0  0
    5.6101   -8.5801    0.0000 C   0  0  0  0  0  0  0  0  0  0  0  0
    4.2350   -8.5251    0.0000 C   0  0  0  0  0  0  0  0  0  0  0  0
    0.0000   -2.4200    0.0000 C   0  0  0  0  0  0  0  0  0  0  0  0
    0.3300   -1.7050    0.0000 C   0  0  0  0  0  0  0  0  0  0  0  0
    5.6101   -9.3501    0.0000 C   0  0  0  0  0  0  0  0  0  0  0  0
    4.2350   -9.3501    0.0000 C   0  0  0  0  0  0  0  0  0  0  0  0
    4.8950   -9.7901    0.0000 C   0  0  0  0  0  0  0  0  0  0  0  0
    2.1450   -3.3000    0.0000 C   0  0  0  0  0  0  0  0  0  0  0  0
    3.5200   -3.3000    0.0000 C   0  0  0  0  0  0  0  0  0  0  0  0
    2.8600   -2.0901    0.0000 C   0  0  0  0  0  0  0  0  0  0  0  0
    2.1450   -2.4750    0.0000 C   0  0  0  0  0  0  0  0  0  0  0  0
    3.5200   -2.4750    0.0000 C   0  0  0  0  0  0  0  0  0  0  0  0
    2.8600   -1.2650    0.0000 C   0  0  0  0  0  0  0  0  0  0  0  0
    3.2451    0.0000    0.0000 C   0  0  0  0  0  0  0  0  0  0  0  0
    2.4200    0.0000    0.0000 C   0  0  0  0  0  0  0  0  0  0  0  0
    5.6101  -11.0001    0.0000 C   0  0  0  0  0  0  0  0  0  0  0  0
  1 31  1  0  0  0  0
  2 28  1  0  0  0  0
  3 17  2  0  0  0  0
  4 21  2  0  0  0  0
  5 39  1  0  0  0  0
  5 48  1  0  0  0  0
  6 14  1  0  0  0  0
  6 17  1  0  0  0  0
  6 22  1  0  0  0  0
  7 10  1  0  0  0  0
  7 20  1  0  0  0  0
  7 25  1  0  0  0  0
  8 10  2  0  0  0  0
  8 18  1  0  0  0  0
  9 19  1  0  0  0  0
  9 33  1  0  0  0  0
  9 34  1  0  0  0  0
 11 21  1  0  0  0  0
 11 32  1  0  0  0  0
 12 45  2  0  0  0  0
 12 46  1  0  0  0  0
 13 45  1  0  0  0  0
 13 47  1  0  0  0  0
 14 15  1  0  0  0  0
 14 21  1  0  0  0  0
 15 16  2  0  0  0  0
 15 24  1  0  0  0  0
 16 19  1  0  0  0  0
 16 23  1  0  0  0  0
 17 18  1  0  0  0  0
 18 20  2  0  0  0  0
 19 26  2  0  0  0  0
 20 30  1  0  0  0  0
 22 23  1  0  0  0  0
 24 27  2  0  0  0  0
 25 28  1  0  0  0  0
 25 29  2  0  0  0  0
 26 27  1  0  0  0  0
 28 31  2  0  0  0  0
 29 35  1  0  0  0  0
 31 36  1  0  0  0  0
 32 40  2  0  0  0  0
 32 41  1  0  0  0  0
 33 37  1  0  0  0  0
 34 38  1  0  0  0  0
 35 36  2  0  0  0  0
 37 39  1  0  0  0  0
 38 39  1  0  0  0  0
 40 43  1  0  0  0  0
 41 44  2  0  0  0  0
 42 43  2  0  0  0  0
 42 44  1  0  0  0  0
 42 45  1  0  0  0  0
 46 47  2  0  0  0  0
M  END
> <PUBCHEM_COMPOUND_ID_TYPE>
0

> <PUBCHEM_TOTAL_CHARGE>
0

> <PUBCHEM_SUBSTANCE_ID>
310932844

> <PUBCHEM_SUBSTANCE_VERSION>
1

> <PUBCHEM_EXT_DATASOURCE_NAME>
4488

> <PUBCHEM_EXT_DATASOURCE_REGID>
SCHEMBL16110233

> <PUBCHEM_SUBSTANCE_COMMENT>
InChI=1S/C35H34ClFN8O3/c1-21-31(41-42-45(21)29-8-4-6-27(36)30(29)37)35(47)44-20-15-25-26(5-3-7-28(25)43-18-13-24(48-2)14-19-43)32(44)34(46)40-23-11-9-22(10-12-23)33-38-16-17-39-33/h3-12,16-17,24,32H,13-15,18-20H2,1-2H3,(H,38,39)(H,40,46)
InChIKey=OMYYTCNSBJDHSM-UHFFFAOYSA-N

> <PUBCHEM_SUBSTANCE_SYNONYM>
SCHEMBL16110233

> <PUBCHEM_XREF_EXT_ID>
SCHEMBL16110233

> <PUBCHEM_EXT_DATASOURCE_URL>
https://www.surechembl.org/

> <PUBCHEM_EXT_SUBSTANCE_URL>
https://www.surechembl.org/chemical/SCHEMBL16110233

> <PUBCHEM_CID_ASSOCIATIONS>
117601331  1

> <PUBCHEM_COORDINATE_TYPE>
1
3

$$$$
