310945941
  -OEChem-07211613022D

 39 43  0     1  0  0  0  0  0999 V2000
    4.2116    0.6845    0.0000 O   0  0  0  0  0  0  0  0  0  0  0  0
    3.0662   -1.2991    0.0000 O   0  0  0  0  0  0  0  0  0  0  0  0
    0.9010    0.7962    0.0000 O   0  0  0  0  0  0  0  0  0  0  0  0
   -1.2781   -1.2991    0.0000 O   0  0  0  0  0  0  0  0  0  0  0  0
    3.0662   -2.9753    0.0000 O   0  0  0  0  0  0  0  0  0  0  0  0
    1.6274   -0.4470    0.0000 N   0  0  0  0  0  0  0  0  0  0  0  0
   -2.7588   -0.3632    0.0000 N   0  0  0  0  0  0  0  0  0  0  0  0
   -2.0743    0.8102    0.0000 N   0  0  0  0  0  0  0  0  0  0  0  0
   -0.5378   -0.0279    0.0000 N   0  0  0  0  0  0  0  0  0  0  0  0
    3.7925   -0.0140    0.0000 C   0  0  3  0  0  0  0  0  0  0  0  0
    3.0802   -0.4191    0.0000 C   0  0  0  0  0  0  0  0  0  0  0  0
    3.4014    0.6985    0.0000 C   0  0  0  0  0  0  0  0  0  0  0  0
    2.3398   -0.0279    0.0000 C   0  0  3  0  0  0  0  0  0  0  0  0
    4.5468   -0.4470    0.0000 C   0  0  0  0  0  0  0  0  0  0  0  0
   -2.0045   -0.0140    0.0000 C   0  0  0  0  0  0  0  0  0  0  0  0
    0.8870   -0.0419    0.0000 C   0  0  0  0  0  0  0  0  0  0  0  0
   -3.3036    0.2514    0.0000 C   0  0  0  0  0  0  0  0  0  0  0  0
   -2.9125    0.9778    0.0000 C   0  0  0  0  0  0  0  0  0  0  0  0
    0.1886   -0.4470    0.0000 C   0  0  3  0  0  0  0  0  0  0  0  0
    2.3538    1.3131    0.0000 C   0  0  0  0  0  0  0  0  0  0  0  0
   -1.2642   -0.4191    0.0000 C   0  0  0  0  0  0  0  0  0  0  0  0
    1.6134    1.7461    0.0000 C   0  0  0  0  0  0  0  0  0  0  0  0
    0.1886   -1.2712    0.0000 C   0  0  0  0  0  0  0  0  0  0  0  0
   -4.1418    0.2654    0.0000 C   0  0  0  0  0  0  0  0  0  0  0  0
   -3.3176    1.7042    0.0000 C   0  0  0  0  0  0  0  0  0  0  0  0
    0.9150   -1.7042    0.0000 C   0  0  0  0  0  0  0  0  0  0  0  0
   -4.5468    0.9778    0.0000 C   0  0  0  0  0  0  0  0  0  0  0  0
   -4.1418    1.7042    0.0000 C   0  0  0  0  0  0  0  0  0  0  0  0
    1.6134    2.5703    0.0000 C   0  0  0  0  0  0  0  0  0  0  0  0
    0.9010    1.3271    0.0000 C   0  0  0  0  0  0  0  0  0  0  0  0
    0.9150   -2.5284    0.0000 C   0  0  0  0  0  0  0  0  0  0  0  0
    1.6134   -1.2991    0.0000 C   0  0  0  0  0  0  0  0  0  0  0  0
    2.3398   -2.5284    0.0000 C   0  0  0  0  0  0  0  0  0  0  0  0
    1.6134   -2.9474    0.0000 C   0  0  0  0  0  0  0  0  0  0  0  0
    2.3398   -1.7042    0.0000 C   0  0  0  0  0  0  0  0  0  0  0  0
    0.9010    2.9753    0.0000 C   0  0  0  0  0  0  0  0  0  0  0  0
    0.1886    1.7321    0.0000 C   0  0  0  0  0  0  0  0  0  0  0  0
    0.1886    2.5703    0.0000 C   0  0  0  0  0  0  0  0  0  0  0  0
    3.7925   -2.5284    0.0000 C   0  0  0  0  0  0  0  0  0  0  0  0
  1 10  1  0  0  0  0
  1 12  1  0  0  0  0
  2 11  2  0  0  0  0
  3 16  2  0  0  0  0
  4 21  2  0  0  0  0
  5 33  1  0  0  0  0
  5 39  1  0  0  0  0
  6 13  1  0  0  0  0
  6 16  1  0  0  0  0
  7 15  2  0  0  0  0
  7 17  1  0  0  0  0
  8 15  1  0  0  0  0
  8 18  1  0  0  0  0
  9 19  1  0  0  0  0
  9 21  1  0  0  0  0
 10 11  1  0  0  0  0
 10 12  1  0  0  0  0
 10 14  1  0  0  0  0
 11 13  1  0  0  0  0
 13 20  1  0  0  0  0
 15 21  1  0  0  0  0
 16 19  1  0  0  0  0
 17 18  1  0  0  0  0
 17 24  2  0  0  0  0
 18 25  2  0  0  0  0
 19 23  1  0  0  0  0
 20 22  1  0  0  0  0
 22 29  2  0  0  0  0
 22 30  1  0  0  0  0
 23 26  1  0  0  0  0
 24 27  1  0  0  0  0
 25 28  1  0  0  0  0
 26 31  2  0  0  0  0
 26 32  1  0  0  0  0
 27 28  2  0  0  0  0
 29 36  1  0  0  0  0
 30 37  2  0  0  0  0
 31 34  1  0  0  0  0
 32 35  2  0  0  0  0
 33 34  2  0  0  0  0
 33 35  1  0  0  0  0
 36 38  2  0  0  0  0
 37 38  1  0  0  0  0
M  END
> <PUBCHEM_COMPOUND_ID_TYPE>
0

> <PUBCHEM_TOTAL_CHARGE>
0

> <PUBCHEM_SUBSTANCE_ID>
310945941

> <PUBCHEM_SUBSTANCE_VERSION>
1

> <PUBCHEM_EXT_DATASOURCE_NAME>
4488

> <PUBCHEM_EXT_DATASOURCE_REGID>
SCHEMBL16124046

> <PUBCHEM_SUBSTANCE_COMMENT>
InChI=1S/C30H30N4O5/c1-30(18-39-30)26(35)24(16-19-8-4-3-5-9-19)33-28(36)25(17-20-12-14-21(38-2)15-13-20)34-29(37)27-31-22-10-6-7-11-23(22)32-27/h3-15,24-25H,16-18H2,1-2H3,(H,31,32)(H,33,36)(H,34,37)
InChIKey=CMDNCDLVRFPEHR-UHFFFAOYSA-N

> <PUBCHEM_SUBSTANCE_SYNONYM>
SCHEMBL16124046

> <PUBCHEM_XREF_EXT_ID>
SCHEMBL16124046

> <PUBCHEM_EXT_DATASOURCE_URL>
https://www.surechembl.org/

> <PUBCHEM_EXT_SUBSTANCE_URL>
https://www.surechembl.org/chemical/SCHEMBL16124046

> <PUBCHEM_CID_ASSOCIATIONS>
117611924  1

> <PUBCHEM_COORDINATE_TYPE>
1
3

$$$$
