310939730
  -OEChem-07211613022D

 18 19  0     1  0  0  0  0  0999 V2000
    1.6570    4.6736    0.0000 N   0  0  3  0  0  0  0  0  0  0  0  0
   -1.2625    5.0861    0.0000 N   0  0  0  0  0  0  0  0  0  0  0  0
    0.3875    5.0861    0.0000 C   0  0  0  0  0  0  0  0  0  0  0  0
    0.8724    4.4187    0.0000 C   0  0  0  0  0  0  0  0  0  0  0  0
    0.8724    5.7535    0.0000 C   0  0  0  0  0  0  0  0  0  0  0  0
   -0.0250    4.3716    0.0000 C   0  0  0  0  0  0  0  0  0  0  0  0
   -0.0250    5.8006    0.0000 C   0  0  0  0  0  0  0  0  0  0  0  0
    2.3715    4.2611    0.0000 C   0  0  0  0  0  0  0  0  0  0  0  0
    1.6570    5.4986    0.0000 C   0  0  0  0  0  0  0  0  0  0  0  0
   -0.8500    4.3716    0.0000 C   0  0  0  0  0  0  0  0  0  0  0  0
   -0.8500    5.8006    0.0000 C   0  0  0  0  0  0  0  0  0  0  0  0
   -2.0875    5.0861    0.0000 C   0  0  0  0  0  0  0  0  0  0  0  0
    1.9590    3.5466    0.0000 C   0  0  0  0  0  0  0  0  0  0  0  0
    2.7840    4.9756    0.0000 C   0  0  0  0  0  0  0  0  0  0  0  0
    3.0860    3.8486    0.0000 C   0  0  0  0  0  0  0  0  0  0  0  0
   -2.0875    4.2611    0.0000 C   0  0  0  0  0  0  0  0  0  0  0  0
   -2.0875    5.9111    0.0000 C   0  0  0  0  0  0  0  0  0  0  0  0
   -2.9125    5.0861    0.0000 C   0  0  0  0  0  0  0  0  0  0  0  0
  1  4  1  0  0  0  0
  1  8  1  0  0  0  0
  1  9  1  0  0  0  0
  2 10  1  0  0  0  0
  2 11  1  0  0  0  0
  2 12  1  0  0  0  0
  3  4  1  0  0  0  0
  3  5  1  0  0  0  0
  3  6  1  0  0  0  0
  3  7  1  0  0  0  0
  5  9  1  0  0  0  0
  6 10  1  0  0  0  0
  7 11  1  0  0  0  0
  8 13  1  0  0  0  0
  8 14  1  0  0  0  0
  8 15  1  0  0  0  0
 12 16  1  0  0  0  0
 12 17  1  0  0  0  0
 12 18  1  0  0  0  0
M  END
> <PUBCHEM_COMPOUND_ID_TYPE>
0

> <PUBCHEM_TOTAL_CHARGE>
0

> <PUBCHEM_SUBSTANCE_ID>
310939730

> <PUBCHEM_SUBSTANCE_VERSION>
1

> <PUBCHEM_EXT_DATASOURCE_NAME>
4488

> <PUBCHEM_EXT_DATASOURCE_REGID>
SCHEMBL16117660

> <PUBCHEM_SUBSTANCE_COMMENT>
InChI=1S/C16H32N2/c1-14(2,3)17-10-7-16(8-11-17)9-12-18(13-16)15(4,5)6/h7-13H2,1-6H3
InChIKey=OQXPGFDIKIFGJC-UHFFFAOYSA-N

> <PUBCHEM_SUBSTANCE_SYNONYM>
SCHEMBL16117660

> <PUBCHEM_XREF_EXT_ID>
SCHEMBL16117660

> <PUBCHEM_EXT_DATASOURCE_URL>
https://www.surechembl.org/

> <PUBCHEM_EXT_SUBSTANCE_URL>
https://www.surechembl.org/chemical/SCHEMBL16117660

> <PUBCHEM_CID_ASSOCIATIONS>
117606955  1

> <PUBCHEM_COORDINATE_TYPE>
1
3

> <PUBCHEM_BONDANNOTATIONS>
12  16  3
12  17  3
8  13  3
8  14  3

$$$$
