310935481
  -OEChem-07211613022D

 27 30  0     1  0  0  0  0  0999 V2000
    2.8999   -3.3832    0.0000 S   0  0  0  0  0  0  0  0  0  0  0  0
    8.3674   -1.9635    0.0000 O   0  0  0  0  0  0  0  0  0  0  0  0
    8.9111   -0.7854    0.0000 O   0  0  0  0  0  0  0  0  0  0  0  0
    0.7250   -4.5613    0.0000 O   0  0  0  0  0  0  0  0  0  0  0  0
    5.2862   -1.6614    0.0000 N   0  0  0  0  0  0  0  0  0  0  0  0
    4.6217   -3.1718    0.0000 N   0  0  0  0  0  0  0  0  0  0  0  0
    2.2353   -4.5310    0.0000 N   0  0  0  0  0  0  0  0  0  0  0  0
    1.4499   -3.3228    0.0000 N   0  0  0  0  0  0  0  0  0  0  0  0
    6.4644   -0.8458    0.0000 C   0  0  0  0  0  0  0  0  0  0  0  0
    7.7330   -1.4197    0.0000 C   0  0  0  0  0  0  0  0  0  0  0  0
    5.6185   -0.9364    0.0000 C   0  0  3  0  0  0  0  0  0  0  0  0
    8.0955   -0.6645    0.0000 C   0  0  0  0  0  0  0  0  0  0  0  0
    6.9174   -1.5103    0.0000 C   0  0  0  0  0  0  0  0  0  0  0  0
    6.7966   -0.0604    0.0000 C   0  0  0  0  0  0  0  0  0  0  0  0
    3.4436   -3.9874    0.0000 C   0  0  0  0  0  0  0  0  0  0  0  0
    7.6122    0.0000    0.0000 C   0  0  0  0  0  0  0  0  0  0  0  0
    4.4706   -1.7520    0.0000 C   0  0  0  0  0  0  0  0  0  0  0  0
    5.7696   -2.3562    0.0000 C   0  0  0  0  0  0  0  0  0  0  0  0
    4.2592   -3.9269    0.0000 C   0  0  0  0  0  0  0  0  0  0  0  0
    2.1447   -3.7457    0.0000 C   0  0  0  0  0  0  0  0  0  0  0  0
    5.4373   -3.1113    0.0000 C   0  0  0  0  0  0  0  0  0  0  0  0
    4.1384   -2.5072    0.0000 C   0  0  0  0  0  0  0  0  0  0  0  0
    9.0621   -1.6010    0.0000 C   0  0  0  0  0  0  0  0  0  0  0  0
    3.0509   -4.7123    0.0000 C   0  0  0  0  0  0  0  0  0  0  0  0
    5.1352   -0.2417    0.0000 C   0  0  0  0  0  0  0  0  0  0  0  0
    0.7250   -3.7457    0.0000 C   0  0  0  0  0  0  0  0  0  0  0  0
    0.0000   -3.3228    0.0000 C   0  0  0  0  0  0  0  0  0  0  0  0
  1 15  1  0  0  0  0
  1 20  1  0  0  0  0
  2 10  1  0  0  0  0
  2 23  1  0  0  0  0
  3 12  1  0  0  0  0
  3 23  1  0  0  0  0
  4 26  2  0  0  0  0
  5 11  1  0  0  0  0
  5 17  1  0  0  0  0
  5 18  1  0  0  0  0
  6 19  1  0  0  0  0
  6 21  1  0  0  0  0
  6 22  1  0  0  0  0
  7 20  2  0  0  0  0
  7 24  1  0  0  0  0
  8 20  1  0  0  0  0
  8 26  1  0  0  0  0
  9 11  1  0  0  0  0
  9 13  2  0  0  0  0
  9 14  1  0  0  0  0
 10 12  2  0  0  0  0
 10 13  1  0  0  0  0
 11 25  1  0  0  0  0
 12 16  1  0  0  0  0
 14 16  2  0  0  0  0
 15 19  1  0  0  0  0
 15 24  2  0  0  0  0
 17 22  1  0  0  0  0
 18 21  1  0  0  0  0
 26 27  1  0  0  0  0
M  END
> <PUBCHEM_COMPOUND_ID_TYPE>
0

> <PUBCHEM_TOTAL_CHARGE>
0

> <PUBCHEM_SUBSTANCE_ID>
310935481

> <PUBCHEM_SUBSTANCE_VERSION>
1

> <PUBCHEM_EXT_DATASOURCE_NAME>
4488

> <PUBCHEM_EXT_DATASOURCE_REGID>
SCHEMBL16113042

> <PUBCHEM_SUBSTANCE_COMMENT>
InChI=1S/C19H24N4O3S/c1-13(15-3-4-17-18(9-15)26-12-25-17)23-7-5-22(6-8-23)11-16-10-20-19(27-16)21-14(2)24/h3-4,9-10,13H,5-8,11-12H2,1-2H3,(H,20,21,24)
InChIKey=OUEOHGMGSIGDRO-UHFFFAOYSA-N

> <PUBCHEM_SUBSTANCE_SYNONYM>
SCHEMBL16113042

> <PUBCHEM_XREF_EXT_ID>
SCHEMBL16113042

> <PUBCHEM_EXT_DATASOURCE_URL>
https://www.surechembl.org/

> <PUBCHEM_EXT_SUBSTANCE_URL>
https://www.surechembl.org/chemical/SCHEMBL16113042

> <PUBCHEM_CID_ASSOCIATIONS>
117603516  1

> <PUBCHEM_COORDINATE_TYPE>
1
3

$$$$
