310934624
  -OEChem-07211613022D

 24 26  0     1  0  0  0  0  0999 V2000
   -0.0680   -6.1292    0.0000 S   0  0  0  0  0  0  0  0  0  0  0  0
   -0.8854   -4.1322    0.0000 O   0  0  0  0  0  0  0  0  0  0  0  0
   -0.0455   -2.7120    0.0000 O   0  0  0  0  0  0  0  0  0  0  0  0
    0.7495   -4.1409    0.0000 N   0  0  0  0  0  0  0  0  0  0  0  0
    0.3595   -3.4308    0.0000 N   0  0  0  0  0  0  0  0  0  0  0  0
    0.3445   -4.8596    0.0000 C   0  0  3  0  0  0  0  0  0  0  0  0
   -0.3229   -5.3445    0.0000 C   0  0  3  0  0  0  0  0  0  0  0  0
   -0.0605   -4.1409    0.0000 C   0  0  0  0  0  0  0  0  0  0  0  0
    1.0119   -5.3445    0.0000 C   0  0  0  0  0  0  0  0  0  0  0  0
    0.7570   -6.1292    0.0000 C   0  0  0  0  0  0  0  0  0  0  0  0
    1.5745   -4.1322    0.0000 C   0  0  0  0  0  0  0  0  0  0  0  0
    1.9795   -3.4135    0.0000 C   0  0  0  0  0  0  0  0  0  0  0  0
   -1.1076   -5.0896    0.0000 C   0  0  0  0  0  0  0  0  0  0  0  0
    2.7894   -1.9760    0.0000 C   0  0  0  0  0  0  0  0  0  0  0  0
    2.8044   -3.4048    0.0000 C   0  0  0  0  0  0  0  0  0  0  0  0
    1.5595   -2.7034    0.0000 C   0  0  0  0  0  0  0  0  0  0  0  0
    3.1944   -1.2572    0.0000 C   0  0  0  0  0  0  0  0  0  0  0  0
    3.2094   -2.6861    0.0000 C   0  0  0  0  0  0  0  0  0  0  0  0
    1.9645   -1.9846    0.0000 C   0  0  0  0  0  0  0  0  0  0  0  0
    2.7745   -0.5471    0.0000 C   0  0  0  0  0  0  0  0  0  0  0  0
    4.0194   -1.2486    0.0000 C   0  0  0  0  0  0  0  0  0  0  0  0
    3.1795    0.1716    0.0000 C   0  0  0  0  0  0  0  0  0  0  0  0
    4.4244   -0.5298    0.0000 C   0  0  0  0  0  0  0  0  0  0  0  0
    4.0044    0.1803    0.0000 C   0  0  0  0  0  0  0  0  0  0  0  0
  1  7  1  0  0  0  0
  1 10  1  0  0  0  0
  2  8  2  0  0  0  0
  3  5  1  0  0  0  0
  4  6  1  0  0  0  0
  4 11  1  0  0  0  0
  5  8  1  0  0  0  0
  6  7  1  0  0  0  0
  6  8  1  0  0  0  0
  6  9  1  0  0  0  0
  7 13  1  0  0  0  0
  9 10  1  0  0  0  0
 11 12  1  0  0  0  0
 12 15  2  0  0  0  0
 12 16  1  0  0  0  0
 14 17  1  0  0  0  0
 14 18  2  0  0  0  0
 14 19  1  0  0  0  0
 15 18  1  0  0  0  0
 16 19  2  0  0  0  0
 17 20  2  0  0  0  0
 17 21  1  0  0  0  0
 20 22  1  0  0  0  0
 21 23  2  0  0  0  0
 22 24  2  0  0  0  0
 23 24  1  0  0  0  0
M  END
> <PUBCHEM_COMPOUND_ID_TYPE>
0

> <PUBCHEM_TOTAL_CHARGE>
0

> <PUBCHEM_SUBSTANCE_ID>
310934624

> <PUBCHEM_SUBSTANCE_VERSION>
1

> <PUBCHEM_EXT_DATASOURCE_NAME>
4488

> <PUBCHEM_EXT_DATASOURCE_REGID>
SCHEMBL16112120

> <PUBCHEM_SUBSTANCE_COMMENT>
InChI=1S/C19H22N2O2S/c1-14-19(11-12-24-14,18(22)21-23)20-13-15-7-9-17(10-8-15)16-5-3-2-4-6-16/h2-10,14,20,23H,11-13H2,1H3,(H,21,22)
InChIKey=KRTNTVBKRVQXBF-UHFFFAOYSA-N

> <PUBCHEM_SUBSTANCE_SYNONYM>
SCHEMBL16112120

> <PUBCHEM_XREF_EXT_ID>
SCHEMBL16112120

> <PUBCHEM_EXT_DATASOURCE_URL>
https://www.surechembl.org/

> <PUBCHEM_EXT_SUBSTANCE_URL>
https://www.surechembl.org/chemical/SCHEMBL16112120

> <PUBCHEM_CID_ASSOCIATIONS>
117602798  1

> <PUBCHEM_COORDINATE_TYPE>
1
3

$$$$
