310930227
  -OEChem-07211613022D

 29 30  0     1  0  0  0  0  0999 V2000
    1.0396    1.4521    0.0000 O   0  0  0  0  0  0  0  0  0  0  0  0
    2.0946   -1.4290    0.0000 O   0  0  0  0  0  0  0  0  0  0  0  0
    4.5696    0.0000    0.0000 O   0  0  0  0  0  0  0  0  0  0  0  0
    1.9276   -4.5375    0.0000 O   0  0  0  0  0  0  0  0  0  0  0  0
    1.2130   -2.4750    0.0000 O   0  0  0  0  0  0  0  0  0  0  0  0
    2.6420   -2.4750    0.0000 O   0  0  0  0  0  0  0  0  0  0  0  0
    0.4986   -4.5375    0.0000 O   0  0  0  0  0  0  0  0  0  0  0  0
    3.3565   -3.7125    0.0000 O   0  0  0  0  0  0  0  0  0  0  0  0
   -0.2159   -3.3000    0.0000 O   0  0  0  0  0  0  0  0  0  0  0  0
    1.2696    0.0000    0.0000 N   0  0  0  0  0  0  0  0  0  0  0  0
    3.3321   -0.7145    0.0000 N   0  0  0  0  0  0  0  0  0  0  0  0
   -0.7145   -1.6500    0.0000 N   0  0  0  0  0  0  0  0  0  0  0  0
    0.0000    0.4125    0.0000 C   0  0  0  0  0  0  0  0  0  0  0  0
    0.0000   -0.4125    0.0000 C   0  0  0  0  0  0  0  0  0  0  0  0
    0.7846    0.6674    0.0000 C   0  0  0  0  0  0  0  0  0  0  0  0
    2.0946    0.0000    0.0000 C   0  0  3  0  0  0  0  0  0  0  0  0
    0.7846   -0.6674    0.0000 C   0  0  0  0  0  0  0  0  0  0  0  0
   -0.7145   -0.8250    0.0000 C   0  0  0  0  0  0  0  0  0  0  0  0
    2.5071   -0.7145    0.0000 C   0  0  0  0  0  0  0  0  0  0  0  0
   -0.7145    0.8250    0.0000 C   0  0  0  0  0  0  0  0  0  0  0  0
    2.5071    0.7145    0.0000 C   0  0  0  0  0  0  0  0  0  0  0  0
   -1.4290   -0.4125    0.0000 C   0  0  0  0  0  0  0  0  0  0  0  0
   -1.4290    0.4125    0.0000 C   0  0  0  0  0  0  0  0  0  0  0  0
    3.7446    0.0000    0.0000 C   0  0  0  0  0  0  0  0  0  0  0  0
    3.3321    0.7145    0.0000 C   0  0  0  0  0  0  0  0  0  0  0  0
    1.9276   -3.7125    0.0000 C   0  0  3  0  0  0  0  0  0  0  0  0
    1.2130   -3.3000    0.0000 C   0  0  3  0  0  0  0  0  0  0  0  0
    2.6420   -3.3000    0.0000 C   0  0  0  0  0  0  0  0  0  0  0  0
    0.4986   -3.7125    0.0000 C   0  0  0  0  0  0  0  0  0  0  0  0
  1 15  2  0  0  0  0
  2 19  2  0  0  0  0
  3 24  2  0  0  0  0
 26  4  1  6  0  0  0
 27  5  1  6  0  0  0
  6 28  2  0  0  0  0
  7 29  2  0  0  0  0
  8 28  1  0  0  0  0
  9 29  1  0  0  0  0
 10 15  1  0  0  0  0
 10 16  1  0  0  0  0
 10 17  1  0  0  0  0
 11 19  1  0  0  0  0
 11 24  1  0  0  0  0
 12 18  1  0  0  0  0
 13 14  2  0  0  0  0
 13 15  1  0  0  0  0
 13 20  1  0  0  0  0
 14 17  1  0  0  0  0
 14 18  1  0  0  0  0
 16 19  1  0  0  0  0
 16 21  1  0  0  0  0
 18 22  2  0  0  0  0
 20 23  2  0  0  0  0
 21 25  1  0  0  0  0
 22 23  1  0  0  0  0
 24 25  1  0  0  0  0
 26 27  1  0  0  0  0
 26 28  1  0  0  0  0
 27 29  1  0  0  0  0
M  END
> <PUBCHEM_COMPOUND_ID_TYPE>
0

> <PUBCHEM_TOTAL_CHARGE>
0

> <PUBCHEM_SUBSTANCE_ID>
310930227

> <PUBCHEM_SUBSTANCE_VERSION>
1

> <PUBCHEM_EXT_DATASOURCE_NAME>
4488

> <PUBCHEM_EXT_DATASOURCE_REGID>
SCHEMBL16107497

> <PUBCHEM_SUBSTANCE_COMMENT>
InChI=1S/C13H13N3O3.C4H6O6/c14-9-3-1-2-7-8(9)6-16(13(7)19)10-4-5-11(17)15-12(10)18;5-1(3(7)8)2(6)4(9)10/h1-3,10H,4-6,14H2,(H,15,17,18);1-2,5-6H,(H,7,8)(H,9,10)/t;1-,2-/m.1/s1
InChIKey=CEPGLVWVJSPFEM-LREBCSMRSA-N

> <PUBCHEM_SUBSTANCE_SYNONYM>
SCHEMBL16107497

> <PUBCHEM_XREF_EXT_ID>
SCHEMBL16107497

> <PUBCHEM_EXT_DATASOURCE_URL>
https://www.surechembl.org/

> <PUBCHEM_EXT_SUBSTANCE_URL>
https://www.surechembl.org/chemical/SCHEMBL16107497

> <PUBCHEM_CID_ASSOCIATIONS>
117599428  1
216326  2
444305  2

> <PUBCHEM_COORDINATE_TYPE>
1
3

> <PUBCHEM_BONDANNOTATIONS>
26  4  6
27  5  6

$$$$
