310946609
  -OEChem-07211613022D

 26 25  0     1  0  0  0  0  0999 V2000
   -6.4914   14.1312    0.0000 O   0  0  0  0  0  0  0  0  0  0  0  0
   -9.3413   12.4812    0.0000 O   0  0  0  0  0  0  0  0  0  0  0  0
   -6.4914   11.6562    0.0000 O   0  0  0  0  0  0  0  0  0  0  0  0
   -5.7769   12.8937    0.0000 O   0  0  0  0  0  0  0  0  0  0  0  0
   -5.7769   15.3687    0.0000 O   0  0  0  0  0  0  0  0  0  0  0  0
   -8.6248   13.7187    0.0000 O   0  0  0  0  0  0  0  0  0  0  0  0
   -7.2059   15.3687    0.0000 O   0  0  0  0  0  0  0  0  0  0  0  0
  -10.7703    9.1812    0.0000 O   0  0  0  0  0  0  0  0  0  0  0  0
  -10.0558    7.9437    0.0000 O   0  5  0  0  0  0  0  0  0  0  0  0
   -9.3413    9.1812    0.0000 O   0  0  0  0  0  0  0  0  0  0  0  0
   -7.9203   12.4812    0.0000 N   0  0  0  0  0  0  0  0  0  0  0  0
  -10.0558    8.7687    0.0000 N   0  3  0  0  0  0  0  0  0  0  0  0
   -7.2059   12.8937    0.0000 C   0  0  3  0  0  0  0  0  0  0  0  0
   -6.4914   12.4812    0.0000 C   0  0  0  0  0  0  0  0  0  0  0  0
   -7.2059   13.7187    0.0000 C   0  0  0  0  0  0  0  0  0  0  0  0
   -8.6268   12.8937    0.0000 C   0  0  0  0  0  0  0  0  0  0  0  0
   -6.4914   14.9562    0.0000 C   0  0  0  0  0  0  0  0  0  0  0  0
   -9.3413   11.6562    0.0000 C   0  0  0  0  0  0  0  0  0  0  0  0
  -10.0558   11.2437    0.0000 C   0  0  0  0  0  0  0  0  0  0  0  0
   -5.0625   14.9562    0.0000 C   0  0  0  0  0  0  0  0  0  0  0  0
  -10.0558   10.4187    0.0000 C   0  0  0  0  0  0  0  0  0  0  0  0
  -10.7703   10.0062    0.0000 C   0  0  0  0  0  0  0  0  0  0  0  0
   -4.3480   15.3687    0.0000 C   0  0  0  0  0  0  0  0  0  0  0  0
   -3.6335   14.9562    0.0000 C   0  0  0  0  0  0  0  0  0  0  0  0
   -2.9191   15.3687    0.0000 C   0  0  0  0  0  0  0  0  0  0  0  0
   -2.2046   14.9562    0.0000 C   0  0  0  0  0  0  0  0  0  0  0  0
  1 15  1  0  0  0  0
  1 17  1  0  0  0  0
  2 16  1  0  0  0  0
  2 18  1  0  0  0  0
  3 14  2  0  0  0  0
  4 14  1  0  0  0  0
  5 17  1  0  0  0  0
  5 20  1  0  0  0  0
  6 16  2  0  0  0  0
  7 17  2  0  0  0  0
  8 12  1  0  0  0  0
  8 22  1  0  0  0  0
  9 12  1  0  0  0  0
 10 12  2  0  0  0  0
 11 13  1  0  0  0  0
 11 16  1  0  0  0  0
 13 14  1  0  0  0  0
 13 15  1  0  0  0  0
 18 19  1  0  0  0  0
 19 21  1  0  0  0  0
 20 23  1  0  0  0  0
 21 22  1  0  0  0  0
 23 24  1  0  0  0  0
 24 25  1  0  0  0  0
 25 26  1  0  0  0  0
M  CHG  2   9  -1  12   1
M  END
> <PUBCHEM_COMPOUND_ID_TYPE>
0

> <PUBCHEM_TOTAL_CHARGE>
0

> <PUBCHEM_SUBSTANCE_ID>
310946609

> <PUBCHEM_SUBSTANCE_VERSION>
1

> <PUBCHEM_EXT_DATASOURCE_NAME>
4488

> <PUBCHEM_EXT_DATASOURCE_REGID>
SCHEMBL16124730

> <PUBCHEM_SUBSTANCE_COMMENT>
InChI=1S/C14H24N2O10/c1-2-3-4-8-24-14(20)25-10-11(12(17)18)15-13(19)23-7-5-6-9-26-16(21)22/h11H,2-10H2,1H3,(H,15,19)(H,17,18)
InChIKey=KBCNCALYUPTSTF-UHFFFAOYSA-N

> <PUBCHEM_SUBSTANCE_SYNONYM>
SCHEMBL16124730

> <PUBCHEM_XREF_EXT_ID>
SCHEMBL16124730

> <PUBCHEM_EXT_DATASOURCE_URL>
https://www.surechembl.org/

> <PUBCHEM_EXT_SUBSTANCE_URL>
https://www.surechembl.org/chemical/SCHEMBL16124730

> <PUBCHEM_CID_ASSOCIATIONS>
117612509  1

> <PUBCHEM_COORDINATE_TYPE>
1
3

$$$$
