310937583
  -OEChem-07211613022D

 20 22  0     1  0  0  0  0  0999 V2000
    1.4474    0.0000    0.0000 O   0  0  0  0  0  0  0  0  0  0  0  0
    0.0000    0.0000    0.0000 O   0  0  0  0  0  0  0  0  0  0  0  0
    0.7237   -1.2171    0.0000 N   0  0  0  0  0  0  0  0  0  0  0  0
    2.5986   -4.5065    0.0000 N   0  0  0  0  0  0  0  0  0  0  0  0
    2.7302   -5.9209    0.0000 N   0  0  0  0  0  0  0  0  0  0  0  0
    3.0591   -5.1644    0.0000 C   0  0  0  0  0  0  0  0  0  0  0  0
    3.8815   -5.0986    0.0000 C   0  0  0  0  0  0  0  0  0  0  0  0
    2.9276   -3.7499    0.0000 C   0  0  0  0  0  0  0  0  0  0  0  0
    1.1184   -2.4999    0.0000 C   0  0  3  0  0  0  0  0  0  0  0  0
    1.3816   -1.7105    0.0000 C   0  0  0  0  0  0  0  0  0  0  0  0
    4.2105   -4.3420    0.0000 C   0  0  0  0  0  0  0  0  0  0  0  0
    3.7499   -3.6513    0.0000 C   0  0  0  0  0  0  0  0  0  0  0  0
    2.4341   -3.0591    0.0000 C   0  0  0  0  0  0  0  0  0  0  0  0
    1.6118   -3.1578    0.0000 C   0  0  0  0  0  0  0  0  0  0  0  0
    0.2961   -2.4999    0.0000 C   0  0  0  0  0  0  0  0  0  0  0  0
    0.0329   -1.7105    0.0000 C   0  0  0  0  0  0  0  0  0  0  0  0
    4.3749   -5.7235    0.0000 C   0  0  0  0  0  0  0  0  0  0  0  0
    0.7237   -0.3947    0.0000 C   0  0  0  0  0  0  0  0  0  0  0  0
    3.2236   -6.5788    0.0000 C   0  0  0  0  0  0  0  0  0  0  0  0
    4.0460   -6.4801    0.0000 C   0  0  0  0  0  0  0  0  0  0  0  0
  1 18  2  0  0  0  0
  2 18  1  0  0  0  0
  3 10  1  0  0  0  0
  3 16  1  0  0  0  0
  3 18  1  0  0  0  0
  4  6  1  0  0  0  0
  4  8  2  0  0  0  0
  5  6  2  0  0  0  0
  5 19  1  0  0  0  0
  6  7  1  0  0  0  0
  7 11  1  0  0  0  0
  7 17  2  0  0  0  0
  8 12  1  0  0  0  0
  8 13  1  0  0  0  0
  9 10  1  0  0  0  0
  9 14  1  0  0  0  0
  9 15  1  0  0  0  0
 11 12  2  0  0  0  0
 13 14  1  0  0  0  0
 15 16  1  0  0  0  0
 17 20  1  0  0  0  0
 19 20  2  0  0  0  0
M  END
> <PUBCHEM_COMPOUND_ID_TYPE>
0

> <PUBCHEM_TOTAL_CHARGE>
0

> <PUBCHEM_SUBSTANCE_ID>
310937583

> <PUBCHEM_SUBSTANCE_VERSION>
1

> <PUBCHEM_EXT_DATASOURCE_NAME>
4488

> <PUBCHEM_EXT_DATASOURCE_REGID>
SCHEMBL16115363

> <PUBCHEM_SUBSTANCE_COMMENT>
InChI=1S/C15H17N3O2/c19-15(20)18-9-7-11(10-18)3-5-13-6-4-12-2-1-8-16-14(12)17-13/h1-2,4,6,8,11H,3,5,7,9-10H2,(H,19,20)
InChIKey=WJYKUSOSKBQHSS-UHFFFAOYSA-N

> <PUBCHEM_SUBSTANCE_SYNONYM>
SCHEMBL16115363

> <PUBCHEM_XREF_EXT_ID>
SCHEMBL16115363

> <PUBCHEM_EXT_DATASOURCE_URL>
https://www.surechembl.org/

> <PUBCHEM_EXT_SUBSTANCE_URL>
https://www.surechembl.org/chemical/SCHEMBL16115363

> <PUBCHEM_CID_ASSOCIATIONS>
117605292  1

> <PUBCHEM_COORDINATE_TYPE>
1
3

$$$$
