310947862
  -OEChem-07211613022D

 28 31  0     1  0  0  0  0  0999 V2000
    1.0497  -11.8294    0.0000 F   0  0  0  0  0  0  0  0  0  0  0  0
    2.0892  -12.3591    0.0000 F   0  0  0  0  0  0  0  0  0  0  0  0
    2.6189  -11.3195    0.0000 F   0  0  0  0  0  0  0  0  0  0  0  0
   -2.7285  -10.3483    0.0000 O   0  0  0  0  0  0  0  0  0  0  0  0
   -0.6006  -14.8312    0.0000 O   0  0  0  0  0  0  0  0  0  0  0  0
    0.1049  -11.1032    0.0000 N   0  0  0  0  0  0  0  0  0  0  0  0
    2.1314  -10.1768    0.0000 N   0  0  0  0  0  0  0  0  0  0  0  0
   -0.6095  -13.1657    0.0000 N   0  0  0  0  0  0  0  0  0  0  0  0
    0.7724  -10.6183    0.0000 C   0  0  0  0  0  0  0  0  0  0  0  0
    0.5174   -9.8337    0.0000 C   0  0  0  0  0  0  0  0  0  0  0  0
   -0.5625  -10.6183    0.0000 C   0  0  0  0  0  0  0  0  0  0  0  0
   -0.3076   -9.8337    0.0000 C   0  0  0  0  0  0  0  0  0  0  0  0
    1.5793  -10.7898    0.0000 C   0  0  0  0  0  0  0  0  0  0  0  0
    1.8343  -11.5745    0.0000 C   0  0  0  0  0  0  0  0  0  0  0  0
    1.0695   -9.2206    0.0000 C   0  0  0  0  0  0  0  0  0  0  0  0
   -1.3695  -10.7898    0.0000 C   0  0  0  0  0  0  0  0  0  0  0  0
   -0.8596   -9.2206    0.0000 C   0  0  0  0  0  0  0  0  0  0  0  0
    0.1049  -11.9282    0.0000 C   0  0  0  0  0  0  0  0  0  0  0  0
    1.8764   -9.3921    0.0000 C   0  0  0  0  0  0  0  0  0  0  0  0
   -1.9215  -10.1768    0.0000 C   0  0  0  0  0  0  0  0  0  0  0  0
   -1.6666   -9.3921    0.0000 C   0  0  0  0  0  0  0  0  0  0  0  0
   -0.6095  -12.3407    0.0000 C   0  0  0  0  0  0  0  0  0  0  0  0
    0.1049  -13.5782    0.0000 C   0  0  0  0  0  0  0  0  0  0  0  0
   -1.3240  -13.5782    0.0000 C   0  0  0  0  0  0  0  0  0  0  0  0
    0.1049  -14.4032    0.0000 C   0  0  3  0  0  0  0  0  0  0  0  0
   -1.3240  -14.4032    0.0000 C   0  0  3  0  0  0  0  0  0  0  0  0
   -2.0407  -14.8119    0.0000 C   0  0  0  0  0  0  0  0  0  0  0  0
    0.8238  -14.8080    0.0000 C   0  0  0  0  0  0  0  0  0  0  0  0
  1 14  1  0  0  0  0
  2 14  1  0  0  0  0
  3 14  1  0  0  0  0
  4 20  1  0  0  0  0
  5 25  1  0  0  0  0
  5 26  1  0  0  0  0
  6  9  1  0  0  0  0
  6 11  1  0  0  0  0
  6 18  1  0  0  0  0
  7 13  2  0  0  0  0
  7 19  1  0  0  0  0
  8 22  1  0  0  0  0
  8 23  1  0  0  0  0
  8 24  1  0  0  0  0
  9 10  2  0  0  0  0
  9 13  1  0  0  0  0
 10 12  1  0  0  0  0
 10 15  1  0  0  0  0
 11 12  1  0  0  0  0
 11 16  2  0  0  0  0
 12 17  2  0  0  0  0
 13 14  1  0  0  0  0
 15 19  2  0  0  0  0
 16 20  1  0  0  0  0
 17 21  1  0  0  0  0
 18 22  1  0  0  0  0
 20 21  2  0  0  0  0
 23 25  1  0  0  0  0
 24 26  1  0  0  0  0
 25 28  1  0  0  0  0
 26 27  1  0  0  0  0
M  END
> <PUBCHEM_COMPOUND_ID_TYPE>
0

> <PUBCHEM_TOTAL_CHARGE>
0

> <PUBCHEM_SUBSTANCE_ID>
310947862

> <PUBCHEM_SUBSTANCE_VERSION>
1

> <PUBCHEM_EXT_DATASOURCE_NAME>
4488

> <PUBCHEM_EXT_DATASOURCE_REGID>
SCHEMBL16126036

> <PUBCHEM_SUBSTANCE_COMMENT>
InChI=1S/C20H22F3N3O2/c1-12-10-25(11-13(2)28-12)7-8-26-17-9-14(27)3-4-15(17)16-5-6-24-19(18(16)26)20(21,22)23/h3-6,9,12-13,27H,7-8,10-11H2,1-2H3
InChIKey=CCUPNRUHKAIHDI-UHFFFAOYSA-N

> <PUBCHEM_SUBSTANCE_SYNONYM>
SCHEMBL16126036

> <PUBCHEM_XREF_EXT_ID>
SCHEMBL16126036

> <PUBCHEM_EXT_DATASOURCE_URL>
https://www.surechembl.org/

> <PUBCHEM_EXT_SUBSTANCE_URL>
https://www.surechembl.org/chemical/SCHEMBL16126036

> <PUBCHEM_CID_ASSOCIATIONS>
117613526  1

> <PUBCHEM_COORDINATE_TYPE>
1
3

$$$$
