310945886
  -OEChem-07211613022D

 16 18  0     1  0  0  0  0  0999 V2000
    0.1360    0.1151    0.0000 N   0  0  0  0  0  0  0  0  0  0  0  0
    1.3699   -0.6379    0.0000 N   0  0  0  0  0  0  0  0  0  0  0  0
   -1.9346   -0.4497    0.0000 N   0  0  0  0  0  0  0  0  0  0  0  0
    2.6876   -0.2196    0.0000 N   0  0  0  0  0  0  0  0  0  0  0  0
   -0.7216    0.1360    0.0000 C   0  0  3  0  0  0  0  0  0  0  0  0
   -1.1189   -0.6170    0.0000 C   0  0  3  0  0  0  0  0  0  0  0  0
    0.5334   -0.6170    0.0000 C   0  0  0  0  0  0  0  0  0  0  0  0
   -2.0183    0.4079    0.0000 C   0  0  0  0  0  0  0  0  0  0  0  0
   -1.2862    0.7425    0.0000 C   0  0  0  0  0  0  0  0  0  0  0  0
   -0.7007   -1.3281    0.0000 C   0  0  0  0  0  0  0  0  0  0  0  0
    0.0941   -1.3490    0.0000 C   0  0  0  0  0  0  0  0  0  0  0  0
    1.8928    0.0523    0.0000 C   0  0  0  0  0  0  0  0  0  0  0  0
    1.8509   -1.3072    0.0000 C   0  0  0  0  0  0  0  0  0  0  0  0
    2.6248   -1.0562    0.0000 C   0  0  0  0  0  0  0  0  0  0  0  0
   -2.6876    0.7216    0.0000 C   0  0  0  0  0  0  0  0  0  0  0  0
   -2.5621    1.3490    0.0000 C   0  0  0  0  0  0  0  0  0  0  0  0
  1  5  1  0  0  0  0
  1  7  2  0  0  0  0
  2  7  1  0  0  0  0
  2 12  1  0  0  0  0
  2 13  1  0  0  0  0
  3  6  1  0  0  0  0
  3  8  1  0  0  0  0
  4 12  2  0  0  0  0
  4 14  1  0  0  0  0
  5  6  1  0  0  0  0
  5  9  1  0  0  0  0
  6 10  1  0  0  0  0
  7 11  1  0  0  0  0
  8  9  2  0  0  0  0
  8 15  1  0  0  0  0
 10 11  2  0  0  0  0
 13 14  2  0  0  0  0
 15 16  1  0  0  0  0
M  END
> <PUBCHEM_COMPOUND_ID_TYPE>
0

> <PUBCHEM_TOTAL_CHARGE>
0

> <PUBCHEM_SUBSTANCE_ID>
310945886

> <PUBCHEM_SUBSTANCE_VERSION>
1

> <PUBCHEM_EXT_DATASOURCE_NAME>
4488

> <PUBCHEM_EXT_DATASOURCE_REGID>
SCHEMBL16123991

> <PUBCHEM_SUBSTANCE_COMMENT>
InChI=1S/C12H14N4/c1-2-9-7-11-10(14-9)3-4-12(15-11)16-6-5-13-8-16/h3-8,10-11,14H,2H2,1H3
InChIKey=YEDCSGIBQGAHFX-UHFFFAOYSA-N

> <PUBCHEM_SUBSTANCE_SYNONYM>
SCHEMBL16123991

> <PUBCHEM_XREF_EXT_ID>
SCHEMBL16123991

> <PUBCHEM_EXT_DATASOURCE_URL>
https://www.surechembl.org/

> <PUBCHEM_EXT_SUBSTANCE_URL>
https://www.surechembl.org/chemical/SCHEMBL16123991

> <PUBCHEM_CID_ASSOCIATIONS>
117611870  1

> <PUBCHEM_COORDINATE_TYPE>
1
3

$$$$
