310939659
  -OEChem-07211613022D

 34 37  0     1  0  0  0  0  0999 V2000
   -1.4248   -2.3655    0.0000 O   0  0  0  0  0  0  0  0  0  0  0  0
   -2.8538   -3.1904    0.0000 O   0  0  0  0  0  0  0  0  0  0  0  0
    1.4332   -3.1904    0.0000 N   0  0  0  0  0  0  0  0  0  0  0  0
    2.1477   -1.9529    0.0000 N   0  0  0  0  0  0  0  0  0  0  0  0
    0.7188   -6.0780    0.0000 N   0  0  0  0  0  0  0  0  0  0  0  0
    3.5766   -1.9529    0.0000 N   0  0  0  0  0  0  0  0  0  0  0  0
   -4.2827   -2.3655    0.0000 N   0  0  0  0  0  0  0  0  0  0  0  0
    2.1477   -4.4280    0.0000 C   0  0  0  0  0  0  0  0  0  0  0  0
    2.1477   -3.6030    0.0000 C   0  0  0  0  0  0  0  0  0  0  0  0
    1.4332   -4.8405    0.0000 C   0  0  0  0  0  0  0  0  0  0  0  0
    1.4332   -2.3655    0.0000 C   0  0  0  0  0  0  0  0  0  0  0  0
    1.4332   -5.6655    0.0000 C   0  0  0  0  0  0  0  0  0  0  0  0
    0.7188   -1.9529    0.0000 C   0  0  0  0  0  0  0  0  0  0  0  0
    2.8622   -3.1904    0.0000 C   0  0  0  0  0  0  0  0  0  0  0  0
    2.8622   -2.3655    0.0000 C   0  0  0  0  0  0  0  0  0  0  0  0
    2.8622   -4.8405    0.0000 C   0  0  0  0  0  0  0  0  0  0  0  0
    0.7188   -4.4280    0.0000 C   0  0  0  0  0  0  0  0  0  0  0  0
    2.1477   -6.0780    0.0000 C   0  0  0  0  0  0  0  0  0  0  0  0
    0.0042   -2.3655    0.0000 C   0  0  0  0  0  0  0  0  0  0  0  0
    2.8622   -5.6655    0.0000 C   0  0  0  0  0  0  0  0  0  0  0  0
    0.7188   -1.1279    0.0000 C   0  0  0  0  0  0  0  0  0  0  0  0
   -0.7102   -1.9529    0.0000 C   0  0  0  0  0  0  0  0  0  0  0  0
    0.0042   -4.8405    0.0000 C   0  0  0  0  0  0  0  0  0  0  0  0
    0.0042   -5.6655    0.0000 C   0  0  0  0  0  0  0  0  0  0  0  0
    0.0042   -0.7154    0.0000 C   0  0  0  0  0  0  0  0  0  0  0  0
   -0.7102   -1.1279    0.0000 C   0  0  0  0  0  0  0  0  0  0  0  0
    3.5766   -1.1279    0.0000 C   0  0  0  0  0  0  0  0  0  0  0  0
   -2.1392   -1.9529    0.0000 C   0  0  0  0  0  0  0  0  0  0  0  0
    4.2912   -0.7154    0.0000 C   0  0  0  0  0  0  0  0  0  0  0  0
   -2.8538   -2.3655    0.0000 C   0  0  3  0  0  0  0  0  0  0  0  0
   -3.5682   -1.9529    0.0000 C   0  0  0  0  0  0  0  0  0  0  0  0
    5.0056   -1.1279    0.0000 C   0  0  0  0  0  0  0  0  0  0  0  0
    5.0056   -1.9529    0.0000 C   0  0  0  0  0  0  0  0  0  0  0  0
   -4.9972   -1.9529    0.0000 C   0  0  0  0  0  0  0  0  0  0  0  0
  1 22  1  0  0  0  0
  1 28  1  0  0  0  0
  2 30  1  0  0  0  0
  3  9  1  0  0  0  0
  3 11  2  0  0  0  0
  4 11  1  0  0  0  0
  4 15  2  0  0  0  0
  5 12  1  0  0  0  0
  5 24  2  0  0  0  0
  6 15  1  0  0  0  0
  6 27  1  0  0  0  0
  7 31  1  0  0  0  0
  7 34  1  0  0  0  0
  8  9  1  0  0  0  0
  8 10  1  0  0  0  0
  8 16  2  0  0  0  0
  9 14  2  0  0  0  0
 10 12  2  0  0  0  0
 10 17  1  0  0  0  0
 11 13  1  0  0  0  0
 12 18  1  0  0  0  0
 13 19  2  0  0  0  0
 13 21  1  0  0  0  0
 14 15  1  0  0  0  0
 16 20  1  0  0  0  0
 17 23  2  0  0  0  0
 18 20  2  0  0  0  0
 19 22  1  0  0  0  0
 21 25  2  0  0  0  0
 22 26  2  0  0  0  0
 23 24  1  0  0  0  0
 25 26  1  0  0  0  0
 27 29  1  0  0  0  0
 28 30  1  0  0  0  0
 29 32  1  0  0  0  0
 30 31  1  0  0  0  0
 32 33  1  0  0  0  0
M  END
> <PUBCHEM_COMPOUND_ID_TYPE>
0

> <PUBCHEM_TOTAL_CHARGE>
0

> <PUBCHEM_SUBSTANCE_ID>
310939659

> <PUBCHEM_SUBSTANCE_VERSION>
1

> <PUBCHEM_EXT_DATASOURCE_NAME>
4488

> <PUBCHEM_EXT_DATASOURCE_REGID>
SCHEMBL16117589

> <PUBCHEM_SUBSTANCE_COMMENT>
InChI=1S/C27H31N5O2/c1-3-4-13-30-26-16-25(23-10-6-12-24-22(23)11-7-14-29-24)31-27(32-26)19-8-5-9-21(15-19)34-18-20(33)17-28-2/h5-12,14-16,20,28,33H,3-4,13,17-18H2,1-2H3,(H,30,31,32)
InChIKey=FEJNOTQDNFBXQE-UHFFFAOYSA-N

> <PUBCHEM_SUBSTANCE_SYNONYM>
SCHEMBL16117589

> <PUBCHEM_XREF_EXT_ID>
SCHEMBL16117589

> <PUBCHEM_EXT_DATASOURCE_URL>
https://www.surechembl.org/

> <PUBCHEM_EXT_SUBSTANCE_URL>
https://www.surechembl.org/chemical/SCHEMBL16117589

> <PUBCHEM_CID_ASSOCIATIONS>
117606894  1

> <PUBCHEM_COORDINATE_TYPE>
1
3

$$$$
