310931303
  -OEChem-07211613022D

 40 43  0     1  0  0  0  0  0999 V2000
   -6.3235   -2.9491    0.0000 Cl  0  0  0  0  0  0  0  0  0  0  0  0
    0.8212   -4.5991    0.0000 S   0  0  0  0  0  0  0  0  0  0  0  0
    0.8682   -6.3215    0.0000 S   0  0  0  0  0  0  0  0  0  0  0  0
   -0.6078   -5.4241    0.0000 F   0  0  0  0  0  0  0  0  0  0  0  0
   -0.6078   -2.1241    0.0000 F   0  0  0  0  0  0  0  0  0  0  0  0
    4.3935   -4.1866    0.0000 F   0  0  0  0  0  0  0  0  0  0  0  0
    4.0916   -5.3136    0.0000 F   0  0  0  0  0  0  0  0  0  0  0  0
    3.2666   -3.8846    0.0000 F   0  0  0  0  0  0  0  0  0  0  0  0
    2.2501   -4.5991    0.0000 O   0  0  0  0  0  0  0  0  0  0  0  0
    0.4087   -5.3136    0.0000 O   0  0  0  0  0  0  0  0  0  0  0  0
    1.2337   -3.8846    0.0000 O   0  0  0  0  0  0  0  0  0  0  0  0
   -2.0367   -2.9491    0.0000 O   0  0  0  0  0  0  0  0  0  0  0  0
    2.9646   -5.8366    0.0000 O   0  0  0  0  0  0  0  0  0  0  0  0
    1.5356   -5.0116    0.0000 N   0  0  0  0  0  0  0  0  0  0  0  0
    2.2031   -6.3215    0.0000 N   0  0  0  0  0  0  0  0  0  0  0  0
    1.1231   -7.1062    0.0000 N   0  0  0  0  0  0  0  0  0  0  0  0
   -2.0367   -5.4241    0.0000 N   0  0  3  0  0  0  0  0  0  0  0  0
    0.1067   -4.1866    0.0000 C   0  0  0  0  0  0  0  0  0  0  0  0
   -0.6078   -4.5991    0.0000 C   0  0  0  0  0  0  0  0  0  0  0  0
    1.5356   -5.8366    0.0000 C   0  0  0  0  0  0  0  0  0  0  0  0
    0.1067   -3.3616    0.0000 C   0  0  0  0  0  0  0  0  0  0  0  0
   -0.6078   -2.9491    0.0000 C   0  0  0  0  0  0  0  0  0  0  0  0
   -1.3222   -3.3616    0.0000 C   0  0  0  0  0  0  0  0  0  0  0  0
   -1.3222   -4.1866    0.0000 C   0  0  0  0  0  0  0  0  0  0  0  0
    2.9646   -5.0116    0.0000 C   0  0  0  0  0  0  0  0  0  0  0  0
    3.6791   -4.5991    0.0000 C   0  0  0  0  0  0  0  0  0  0  0  0
    1.9481   -7.1062    0.0000 C   0  0  0  0  0  0  0  0  0  0  0  0
   -2.7512   -4.1866    0.0000 C   0  0  3  0  0  0  0  0  0  0  0  0
   -2.7512   -3.3616    0.0000 C   0  0  0  0  0  0  0  0  0  0  0  0
   -3.4656   -4.5991    0.0000 C   0  0  3  0  0  0  0  0  0  0  0  0
   -4.1801   -4.1866    0.0000 C   0  0  0  0  0  0  0  0  0  0  0  0
   -2.0367   -4.5991    0.0000 C   0  0  0  0  0  0  0  0  0  0  0  0
   -3.4656   -5.4241    0.0000 C   0  0  0  0  0  0  0  0  0  0  0  0
   -2.7512   -5.8366    0.0000 C   0  0  0  0  0  0  0  0  0  0  0  0
   -4.8946   -4.5991    0.0000 C   0  0  0  0  0  0  0  0  0  0  0  0
   -4.1801   -3.3616    0.0000 C   0  0  0  0  0  0  0  0  0  0  0  0
   -5.6091   -4.1866    0.0000 C   0  0  0  0  0  0  0  0  0  0  0  0
   -4.8946   -2.9491    0.0000 C   0  0  0  0  0  0  0  0  0  0  0  0
   -5.6091   -3.3616    0.0000 C   0  0  0  0  0  0  0  0  0  0  0  0
   -1.3222   -5.8366    0.0000 C   0  0  0  0  0  0  0  0  0  0  0  0
  1 39  1  0  0  0  0
  2 10  2  0  0  0  0
  2 11  2  0  0  0  0
  2 14  1  0  0  0  0
  2 18  1  0  0  0  0
  3 16  1  0  0  0  0
  3 20  1  0  0  0  0
  4 19  1  0  0  0  0
  5 22  1  0  0  0  0
  6 26  1  0  0  0  0
  7 26  1  0  0  0  0
  8 26  1  0  0  0  0
  9 14  1  0  0  0  0
  9 25  1  0  0  0  0
 12 23  1  0  0  0  0
 12 29  1  0  0  0  0
 13 25  2  0  0  0  0
 14 20  1  0  0  0  0
 15 20  2  0  0  0  0
 15 27  1  0  0  0  0
 16 27  2  0  0  0  0
 17 32  1  0  0  0  0
 17 34  1  0  0  0  0
 17 40  1  0  0  0  0
 18 19  2  0  0  0  0
 18 21  1  0  0  0  0
 19 24  1  0  0  0  0
 21 22  2  0  0  0  0
 22 23  1  0  0  0  0
 23 24  2  0  0  0  0
 25 26  1  0  0  0  0
 28 29  1  0  0  0  0
 28 30  1  0  0  0  0
 28 32  1  0  0  0  0
 30 31  1  0  0  0  0
 30 33  1  0  0  0  0
 31 35  2  0  0  0  0
 31 36  1  0  0  0  0
 33 34  1  0  0  0  0
 35 37  1  0  0  0  0
 36 38  2  0  0  0  0
 37 39  2  0  0  0  0
 38 39  1  0  0  0  0
M  END
> <PUBCHEM_COMPOUND_ID_TYPE>
0

> <PUBCHEM_TOTAL_CHARGE>
0

> <PUBCHEM_SUBSTANCE_ID>
310931303

> <PUBCHEM_SUBSTANCE_VERSION>
1

> <PUBCHEM_EXT_DATASOURCE_NAME>
4488

> <PUBCHEM_EXT_DATASOURCE_REGID>
SCHEMBL16108621

> <PUBCHEM_SUBSTANCE_COMMENT>
InChI=1S/C23H20ClF5N4O5S2/c1-32-7-6-16(13-2-4-15(24)5-3-13)14(10-32)11-37-19-8-18(26)20(9-17(19)25)40(35,36)33(22-30-12-31-39-22)38-21(34)23(27,28)29/h2-5,8-9,12,14,16H,6-7,10-11H2,1H3
InChIKey=LDDWWHBDZJUZCM-UHFFFAOYSA-N

> <PUBCHEM_SUBSTANCE_SYNONYM>
SCHEMBL16108621

> <PUBCHEM_XREF_EXT_ID>
SCHEMBL16108621

> <PUBCHEM_EXT_DATASOURCE_URL>
https://www.surechembl.org/

> <PUBCHEM_EXT_SUBSTANCE_URL>
https://www.surechembl.org/chemical/SCHEMBL16108621

> <PUBCHEM_CID_ASSOCIATIONS>
117600119  1

> <PUBCHEM_COORDINATE_TYPE>
1
3

$$$$
