310940828
  -OEChem-07211613022D

 43 46  0     1  0  0  0  0  0999 V2000
    5.0764    0.6750    0.0000 O   0  0  0  0  0  0  0  0  0  0  0  0
    3.9514   -1.2937    0.0000 O   0  0  0  0  0  0  0  0  0  0  0  0
    1.7859    0.7875    0.0000 O   0  0  0  0  0  0  0  0  0  0  0  0
   -0.3656   -1.2937    0.0000 O   0  0  0  0  0  0  0  0  0  0  0  0
    3.9514   -2.9530    0.0000 O   0  0  0  0  0  0  0  0  0  0  0  0
   -2.5311    0.7875    0.0000 O   0  0  0  0  0  0  0  0  0  0  0  0
   -5.3998    0.7875    0.0000 O   0  0  0  0  0  0  0  0  0  0  0  0
    2.5171   -0.4500    0.0000 N   0  0  0  0  0  0  0  0  0  0  0  0
    0.3516   -0.0281    0.0000 N   0  0  0  0  0  0  0  0  0  0  0  0
   -1.7999   -0.4500    0.0000 N   0  0  0  0  0  0  0  0  0  0  0  0
   -3.9655   -0.0281    0.0000 N   0  0  0  0  0  0  0  0  0  0  0  0
    0.3516    2.9530    0.0000 N   0  0  0  0  0  0  0  0  0  0  0  0
    4.6685   -0.0141    0.0000 C   0  0  3  0  0  0  0  0  0  0  0  0
    3.9514   -0.4218    0.0000 C   0  0  0  0  0  0  0  0  0  0  0  0
    4.2748    0.6891    0.0000 C   0  0  0  0  0  0  0  0  0  0  0  0
    3.2202   -0.0281    0.0000 C   0  0  3  0  0  0  0  0  0  0  0  0
    5.3998   -0.4640    0.0000 C   0  0  0  0  0  0  0  0  0  0  0  0
    3.2342    1.2937    0.0000 C   0  0  0  0  0  0  0  0  0  0  0  0
    1.7718   -0.0563    0.0000 C   0  0  0  0  0  0  0  0  0  0  0  0
    1.0827   -0.4500    0.0000 C   0  0  3  0  0  0  0  0  0  0  0  0
    2.5030    1.7296    0.0000 C   0  0  0  0  0  0  0  0  0  0  0  0
    1.0687   -1.2796    0.0000 C   0  0  0  0  0  0  0  0  0  0  0  0
    1.7999    1.3078    0.0000 C   0  0  0  0  0  0  0  0  0  0  0  0
    2.5030    2.5312    0.0000 C   0  0  0  0  0  0  0  0  0  0  0  0
    1.7999   -1.7015    0.0000 C   0  0  0  0  0  0  0  0  0  0  0  0
   -0.3656   -0.4218    0.0000 C   0  0  0  0  0  0  0  0  0  0  0  0
   -1.0827   -0.0281    0.0000 C   0  0  3  0  0  0  0  0  0  0  0  0
    1.0827    1.7155    0.0000 C   0  0  0  0  0  0  0  0  0  0  0  0
    1.7859    2.9389    0.0000 C   0  0  0  0  0  0  0  0  0  0  0  0
    1.0827    2.5452    0.0000 C   0  0  0  0  0  0  0  0  0  0  0  0
    2.5030   -1.2937    0.0000 C   0  0  0  0  0  0  0  0  0  0  0  0
    1.7999   -2.5171    0.0000 C   0  0  0  0  0  0  0  0  0  0  0  0
    3.2202   -2.5171    0.0000 C   0  0  0  0  0  0  0  0  0  0  0  0
    3.2202   -1.7015    0.0000 C   0  0  0  0  0  0  0  0  0  0  0  0
    2.5171   -2.9389    0.0000 C   0  0  0  0  0  0  0  0  0  0  0  0
   -2.5452   -0.0563    0.0000 C   0  0  0  0  0  0  0  0  0  0  0  0
   -1.0968    0.8015    0.0000 C   0  0  0  0  0  0  0  0  0  0  0  0
   -3.2342   -0.4500    0.0000 C   0  0  0  0  0  0  0  0  0  0  0  0
   -3.9655    0.8015    0.0000 C   0  0  0  0  0  0  0  0  0  0  0  0
   -4.6685   -0.4500    0.0000 C   0  0  0  0  0  0  0  0  0  0  0  0
   -4.6826    1.2094    0.0000 C   0  0  0  0  0  0  0  0  0  0  0  0
   -5.3998   -0.0422    0.0000 C   0  0  0  0  0  0  0  0  0  0  0  0
    4.6685   -2.5171    0.0000 C   0  0  0  0  0  0  0  0  0  0  0  0
  1 13  1  0  0  0  0
  1 15  1  0  0  0  0
  2 14  2  0  0  0  0
  3 19  2  0  0  0  0
  4 26  2  0  0  0  0
  5 33  1  0  0  0  0
  5 43  1  0  0  0  0
  6 36  2  0  0  0  0
  7 41  1  0  0  0  0
  7 42  1  0  0  0  0
  8 16  1  0  0  0  0
  8 19  1  0  0  0  0
  9 20  1  0  0  0  0
  9 26  1  0  0  0  0
 10 27  1  0  0  0  0
 10 36  1  0  0  0  0
 11 38  1  0  0  0  0
 11 39  1  0  0  0  0
 11 40  1  0  0  0  0
 12 30  1  0  0  0  0
 13 14  1  0  0  0  0
 13 15  1  0  0  0  0
 13 17  1  0  0  0  0
 14 16  1  0  0  0  0
 16 18  1  0  0  0  0
 18 21  1  0  0  0  0
 19 20  1  0  0  0  0
 20 22  1  0  0  0  0
 21 23  1  0  0  0  0
 21 24  1  0  0  0  0
 22 25  1  0  0  0  0
 23 28  1  0  0  0  0
 24 29  1  0  0  0  0
 25 31  2  0  0  0  0
 25 32  1  0  0  0  0
 26 27  1  0  0  0  0
 27 37  1  0  0  0  0
 28 30  1  0  0  0  0
 29 30  1  0  0  0  0
 31 34  1  0  0  0  0
 32 35  2  0  0  0  0
 33 34  2  0  0  0  0
 33 35  1  0  0  0  0
 36 38  1  0  0  0  0
 39 41  1  0  0  0  0
 40 42  1  0  0  0  0
M  END
> <PUBCHEM_COMPOUND_ID_TYPE>
0

> <PUBCHEM_TOTAL_CHARGE>
0

> <PUBCHEM_SUBSTANCE_ID>
310940828

> <PUBCHEM_SUBSTANCE_VERSION>
1

> <PUBCHEM_EXT_DATASOURCE_NAME>
4488

> <PUBCHEM_EXT_DATASOURCE_REGID>
SCHEMBL16118787

> <PUBCHEM_SUBSTANCE_COMMENT>
InChI=1S/C31H47N5O7/c1-20(33-27(37)18-36-12-14-42-15-13-36)29(39)35-26(17-22-6-10-24(41-3)11-7-22)30(40)34-25(28(38)31(2)19-43-31)16-21-4-8-23(32)9-5-21/h6-7,10-11,20-21,23,25-26H,4-5,8-9,12-19,32H2,1-3H3,(H,33,37)(H,34,40)(H,35,39)
InChIKey=DKTBJBXODHIMQB-UHFFFAOYSA-N

> <PUBCHEM_SUBSTANCE_SYNONYM>
SCHEMBL16118787

> <PUBCHEM_XREF_EXT_ID>
SCHEMBL16118787

> <PUBCHEM_EXT_DATASOURCE_URL>
https://www.surechembl.org/

> <PUBCHEM_EXT_SUBSTANCE_URL>
https://www.surechembl.org/chemical/SCHEMBL16118787

> <PUBCHEM_CID_ASSOCIATIONS>
117607751  1

> <PUBCHEM_COORDINATE_TYPE>
1
3

$$$$
