310949004
  -OEChem-07211613022D

 20 22  0     1  0  0  0  0  0999 V2000
   -1.7838   -1.2786    0.0000 O   0  0  0  0  0  0  0  0  0  0  0  0
    1.7632   -2.4540    0.0000 O   0  0  0  0  0  0  0  0  0  0  0  0
    0.4022   -2.5570    0.0000 O   0  0  0  0  0  0  0  0  0  0  0  0
   -1.0620   -0.0206    0.0000 N   0  0  0  0  0  0  0  0  0  0  0  0
   -0.3609   -1.2786    0.0000 N   0  0  0  0  0  0  0  0  0  0  0  0
   -0.6908    1.3197    0.0000 C   0  0  3  0  0  0  0  0  0  0  0  0
   -1.4744    1.2786    0.0000 C   0  0  3  0  0  0  0  0  0  0  0  0
   -1.0620   -0.8455    0.0000 C   0  0  0  0  0  0  0  0  0  0  0  0
    0.3609   -0.8248    0.0000 C   0  0  0  0  0  0  0  0  0  0  0  0
   -0.4022    0.4949    0.0000 C   0  0  0  0  0  0  0  0  0  0  0  0
   -1.7425    0.4743    0.0000 C   0  0  0  0  0  0  0  0  0  0  0  0
    1.0827   -1.2579    0.0000 C   0  0  0  0  0  0  0  0  0  0  0  0
   -1.7425    2.0621    0.0000 C   0  0  0  0  0  0  0  0  0  0  0  0
   -0.4433    2.1034    0.0000 C   0  0  0  0  0  0  0  0  0  0  0  0
    1.0827   -2.1034    0.0000 C   0  0  0  0  0  0  0  0  0  0  0  0
    0.3815    0.0000    0.0000 C   0  0  0  0  0  0  0  0  0  0  0  0
   -1.0620    2.5570    0.0000 C   0  0  0  0  0  0  0  0  0  0  0  0
    1.7838   -0.8248    0.0000 C   0  0  0  0  0  0  0  0  0  0  0  0
    1.0827    0.4125    0.0000 C   0  0  0  0  0  0  0  0  0  0  0  0
    1.7838    0.0000    0.0000 C   0  0  0  0  0  0  0  0  0  0  0  0
  1  8  2  0  0  0  0
  2 15  2  0  0  0  0
  3 15  1  0  0  0  0
  4  8  1  0  0  0  0
  4 10  1  0  0  0  0
  4 11  1  0  0  0  0
  5  8  1  0  0  0  0
  5  9  1  0  0  0  0
  6  7  1  0  0  0  0
  6 10  1  0  0  0  0
  6 14  1  0  0  0  0
  7 11  1  0  0  0  0
  7 13  1  0  0  0  0
  9 12  2  0  0  0  0
  9 16  1  0  0  0  0
 12 15  1  0  0  0  0
 12 18  1  0  0  0  0
 13 17  1  0  0  0  0
 14 17  1  0  0  0  0
 16 19  2  0  0  0  0
 18 20  2  0  0  0  0
 19 20  1  0  0  0  0
M  END
> <PUBCHEM_COMPOUND_ID_TYPE>
0

> <PUBCHEM_TOTAL_CHARGE>
0

> <PUBCHEM_SUBSTANCE_ID>
310949004

> <PUBCHEM_SUBSTANCE_VERSION>
1

> <PUBCHEM_EXT_DATASOURCE_NAME>
4488

> <PUBCHEM_EXT_DATASOURCE_REGID>
SCHEMBL16127192

> <PUBCHEM_SUBSTANCE_COMMENT>
InChI=1S/C15H18N2O3/c18-14(19)12-6-1-2-7-13(12)16-15(20)17-8-10-4-3-5-11(10)9-17/h1-2,6-7,10-11H,3-5,8-9H2,(H,16,20)(H,18,19)
InChIKey=PBEXFDWOBNAYLN-UHFFFAOYSA-N

> <PUBCHEM_SUBSTANCE_SYNONYM>
SCHEMBL16127192

> <PUBCHEM_XREF_EXT_ID>
SCHEMBL16127192

> <PUBCHEM_EXT_DATASOURCE_URL>
https://www.surechembl.org/

> <PUBCHEM_EXT_SUBSTANCE_URL>
https://www.surechembl.org/chemical/SCHEMBL16127192

> <PUBCHEM_CID_ASSOCIATIONS>
115560893  1

> <PUBCHEM_COORDINATE_TYPE>
1
3

$$$$
