310945759
  -OEChem-07211613022D

 15 14  0     1  0  0  0  0  0999 V2000
    1.5604    0.0639    0.0000 S   0  0  0  0  0  0  0  0  0  0  0  0
    2.8907   -0.8570    0.0000 F   0  0  0  0  0  0  0  0  0  0  0  0
    1.7907   -1.0360    0.0000 F   0  0  0  0  0  0  0  0  0  0  0  0
    2.6605    0.2686    0.0000 F   0  0  0  0  0  0  0  0  0  0  0  0
    0.9210    0.4477    0.0000 O   0  0  0  0  0  0  0  0  0  0  0  0
    1.1000   -0.6012    0.0000 O   0  0  0  0  0  0  0  0  0  0  0  0
    1.9954    0.6779    0.0000 O   0  0  0  0  0  0  0  0  0  0  0  0
   -1.4838    1.0360    0.0000 O   0  0  0  0  0  0  0  0  0  0  0  0
    2.2000   -0.3965    0.0000 C   0  0  0  0  0  0  0  0  0  0  0  0
    0.1535    0.0384    0.0000 C   0  0  0  0  0  0  0  0  0  0  0  0
   -0.6651    0.4477    0.0000 C   0  0  0  0  0  0  0  0  0  0  0  0
   -1.3814    0.0384    0.0000 C   0  0  0  0  0  0  0  0  0  0  0  0
   -1.8418    0.2942    0.0000 C   0  0  3  0  0  0  0  0  0  0  0  0
   -2.8907    0.0384    0.0000 C   0  0  0  0  0  0  0  0  0  0  0  0
   -1.8930    0.5756    0.0000 C   0  0  0  0  0  0  0  0  0  0  0  0
  1  5  1  0  0  0  0
  1  6  2  0  0  0  0
  1  7  2  0  0  0  0
  1  9  1  0  0  0  0
  2  9  1  0  0  0  0
  3  9  1  0  0  0  0
  4  9  1  0  0  0  0
  5 10  1  0  0  0  0
  8 13  1  0  0  0  0
  8 15  1  0  0  0  0
 10 11  1  0  0  0  0
 11 12  1  0  0  0  0
 12 13  1  0  0  0  0
 13 14  1  0  0  0  0
M  END
> <PUBCHEM_COMPOUND_ID_TYPE>
0

> <PUBCHEM_TOTAL_CHARGE>
0

> <PUBCHEM_SUBSTANCE_ID>
310945759

> <PUBCHEM_SUBSTANCE_VERSION>
1

> <PUBCHEM_EXT_DATASOURCE_NAME>
4488

> <PUBCHEM_EXT_DATASOURCE_REGID>
SCHEMBL16123863

> <PUBCHEM_SUBSTANCE_COMMENT>
InChI=1S/C7H13F3O4S/c1-6(13-2)4-3-5-14-15(11,12)7(8,9)10/h6H,3-5H2,1-2H3
InChIKey=WOSNZHGZEOYROB-UHFFFAOYSA-N

> <PUBCHEM_SUBSTANCE_SYNONYM>
SCHEMBL16123863

> <PUBCHEM_XREF_EXT_ID>
SCHEMBL16123863

> <PUBCHEM_EXT_DATASOURCE_URL>
https://www.surechembl.org/

> <PUBCHEM_EXT_SUBSTANCE_URL>
https://www.surechembl.org/chemical/SCHEMBL16123863

> <PUBCHEM_CID_ASSOCIATIONS>
117611750  1

> <PUBCHEM_COORDINATE_TYPE>
1
3

> <PUBCHEM_BONDANNOTATIONS>
8  13  3

$$$$
