310939122
  -OEChem-07211613022D

 24 26  0     1  0  0  0  0  0999 V2000
   -0.0553   -1.3885    0.0000 F   0  0  0  0  0  0  0  0  0  0  0  0
   -1.4842    1.0865    0.0000 F   0  0  0  0  0  0  0  0  0  0  0  0
   -1.4842   -0.5635    0.0000 O   0  0  0  0  0  0  0  0  0  0  0  0
    2.0881   -0.1510    0.0000 N   0  0  0  0  0  0  0  0  0  0  0  0
    0.6592   -0.1510    0.0000 C   0  0  0  0  0  0  0  0  0  0  0  0
   -0.0553   -0.5635    0.0000 C   0  0  0  0  0  0  0  0  0  0  0  0
   -0.7697   -0.1510    0.0000 C   0  0  0  0  0  0  0  0  0  0  0  0
    1.3737   -0.5635    0.0000 C   0  0  3  0  0  0  0  0  0  0  0  0
   -0.7697    0.6740    0.0000 C   0  0  0  0  0  0  0  0  0  0  0  0
    0.6592    0.6740    0.0000 C   0  0  0  0  0  0  0  0  0  0  0  0
   -0.0553    1.0865    0.0000 C   0  0  0  0  0  0  0  0  0  0  0  0
    2.0881    0.6740    0.0000 C   0  0  3  0  0  0  0  0  0  0  0  0
    2.8026    1.0865    0.0000 C   0  0  0  0  0  0  0  0  0  0  0  0
   -2.1987   -0.1510    0.0000 C   0  0  0  0  0  0  0  0  0  0  0  0
    1.3737   -1.3885    0.0000 C   0  0  0  0  0  0  0  0  0  0  0  0
    3.6276    1.0865    0.0000 C   0  0  0  0  0  0  0  0  0  0  0  0
    3.2151    1.8010    0.0000 C   0  0  0  0  0  0  0  0  0  0  0  0
   -2.1987    0.6740    0.0000 C   0  0  0  0  0  0  0  0  0  0  0  0
   -2.9131   -0.5635    0.0000 C   0  0  0  0  0  0  0  0  0  0  0  0
    1.3737    1.0865    0.0000 C   0  0  0  0  0  0  0  0  0  0  0  0
   -2.9131    1.0865    0.0000 C   0  0  0  0  0  0  0  0  0  0  0  0
   -3.6276   -0.1510    0.0000 C   0  0  0  0  0  0  0  0  0  0  0  0
    2.0881   -1.8010    0.0000 C   0  0  0  0  0  0  0  0  0  0  0  0
   -3.6276    0.6740    0.0000 C   0  0  0  0  0  0  0  0  0  0  0  0
  1  6  1  0  0  0  0
  2  9  1  0  0  0  0
  3  7  1  0  0  0  0
  3 14  1  0  0  0  0
  4  8  1  0  0  0  0
  4 12  1  0  0  0  0
  5  6  2  0  0  0  0
  5  8  1  0  0  0  0
  5 10  1  0  0  0  0
  6  7  1  0  0  0  0
  7  9  2  0  0  0  0
  8 15  1  0  0  0  0
  9 11  1  0  0  0  0
 10 11  2  0  0  0  0
 12 13  1  0  0  0  0
 12 20  1  0  0  0  0
 13 16  1  0  0  0  0
 13 17  1  0  0  0  0
 14 18  2  0  0  0  0
 14 19  1  0  0  0  0
 15 23  1  0  0  0  0
 16 17  1  0  0  0  0
 18 21  1  0  0  0  0
 19 22  2  0  0  0  0
 21 24  2  0  0  0  0
 22 24  1  0  0  0  0
M  END
> <PUBCHEM_COMPOUND_ID_TYPE>
0

> <PUBCHEM_TOTAL_CHARGE>
0

> <PUBCHEM_SUBSTANCE_ID>
310939122

> <PUBCHEM_SUBSTANCE_VERSION>
1

> <PUBCHEM_EXT_DATASOURCE_NAME>
4488

> <PUBCHEM_EXT_DATASOURCE_REGID>
SCHEMBL16117043

> <PUBCHEM_SUBSTANCE_COMMENT>
InChI=1S/C20H23F2NO/c1-3-18(23-13(2)14-9-10-14)16-11-12-17(21)20(19(16)22)24-15-7-5-4-6-8-15/h4-8,11-14,18,23H,3,9-10H2,1-2H3
InChIKey=ZANOSAYVSXMOHO-UHFFFAOYSA-N

> <PUBCHEM_SUBSTANCE_SYNONYM>
SCHEMBL16117043

> <PUBCHEM_XREF_EXT_ID>
SCHEMBL16117043

> <PUBCHEM_EXT_DATASOURCE_URL>
https://www.surechembl.org/

> <PUBCHEM_EXT_SUBSTANCE_URL>
https://www.surechembl.org/chemical/SCHEMBL16117043

> <PUBCHEM_CID_ASSOCIATIONS>
117606477  1

> <PUBCHEM_COORDINATE_TYPE>
1
3

$$$$
