310931883
  -OEChem-07211613022D

 34 38  0     1  0  0  0  0  0999 V2000
    2.1665   -1.4675    0.0000 O   0  0  0  0  0  0  0  0  0  0  0  0
    2.7311   -5.9305    0.0000 O   0  0  0  0  0  0  0  0  0  0  0  0
    1.1270   -2.5070    0.0000 N   0  0  0  0  0  0  0  0  0  0  0  0
    0.3020   -2.5070    0.0000 N   0  0  0  0  0  0  0  0  0  0  0  0
    3.8871   -5.0906    0.0000 N   0  0  0  0  0  0  0  0  0  0  0  0
    2.4324   -3.0882    0.0000 N   0  0  0  0  0  0  0  0  0  0  0  0
    4.8807   -7.0627    0.0000 N   0  0  0  0  0  0  0  0  0  0  0  0
    0.7145    2.8875    0.0000 N   0  0  0  0  0  0  0  0  0  0  0  0
    0.7145   -1.2375    0.0000 C   0  0  0  0  0  0  0  0  0  0  0  0
    1.3819   -1.7224    0.0000 C   0  0  0  0  0  0  0  0  0  0  0  0
    1.6119   -3.1745    0.0000 C   0  0  0  0  0  0  0  0  0  0  0  0
    0.7145   -0.4125    0.0000 C   0  0  0  0  0  0  0  0  0  0  0  0
    0.0470   -1.7224    0.0000 C   0  0  0  0  0  0  0  0  0  0  0  0
    2.5817   -4.5094    0.0000 C   0  0  0  0  0  0  0  0  0  0  0  0
    3.0667   -5.1768    0.0000 C   0  0  0  0  0  0  0  0  0  0  0  0
    1.4289    0.0000    0.0000 C   0  0  0  0  0  0  0  0  0  0  0  0
    1.2763   -3.9282    0.0000 C   0  0  0  0  0  0  0  0  0  0  0  0
    4.4392   -5.7037    0.0000 C   0  0  3  0  0  0  0  0  0  0  0  0
    2.9173   -3.7557    0.0000 C   0  0  0  0  0  0  0  0  0  0  0  0
    1.7613   -4.5956    0.0000 C   0  0  0  0  0  0  0  0  0  0  0  0
    0.0000    0.0000    0.0000 C   0  0  0  0  0  0  0  0  0  0  0  0
    1.4289    0.8250    0.0000 C   0  0  0  0  0  0  0  0  0  0  0  0
    4.2996   -4.3761    0.0000 C   0  0  0  0  0  0  0  0  0  0  0  0
    0.7145    1.2375    0.0000 C   0  0  0  0  0  0  0  0  0  0  0  0
    5.1929   -5.3681    0.0000 C   0  0  0  0  0  0  0  0  0  0  0  0
    0.0000    0.8250    0.0000 C   0  0  0  0  0  0  0  0  0  0  0  0
    4.2676   -6.5106    0.0000 C   0  0  0  0  0  0  0  0  0  0  0  0
    5.1066   -4.5476    0.0000 C   0  0  0  0  0  0  0  0  0  0  0  0
    2.1434   -0.4125    0.0000 C   0  0  0  0  0  0  0  0  0  0  0  0
    0.7145    2.0625    0.0000 C   0  0  0  0  0  0  0  0  0  0  0  0
    5.6877   -6.8911    0.0000 C   0  0  0  0  0  0  0  0  0  0  0  0
    4.7945   -7.8831    0.0000 C   0  0  0  0  0  0  0  0  0  0  0  0
    6.1002   -7.6056    0.0000 C   0  0  0  0  0  0  0  0  0  0  0  0
    5.5482   -8.2187    0.0000 C   0  0  0  0  0  0  0  0  0  0  0  0
  1 10  1  0  0  0  0
  2 15  2  0  0  0  0
  3  4  1  0  0  0  0
  3 10  1  0  0  0  0
  3 11  1  0  0  0  0
  4 13  2  0  0  0  0
  5 15  1  0  0  0  0
  5 18  1  0  0  0  0
  5 23  1  0  0  0  0
  6 11  2  0  0  0  0
  6 19  1  0  0  0  0
  7 27  1  0  0  0  0
  7 31  1  0  0  0  0
  7 32  1  0  0  0  0
  8 30  3  0  0  0  0
  9 10  2  0  0  0  0
  9 12  1  0  0  0  0
  9 13  1  0  0  0  0
 11 17  1  0  0  0  0
 12 16  2  0  0  0  0
 12 21  1  0  0  0  0
 14 15  1  0  0  0  0
 14 19  2  0  0  0  0
 14 20  1  0  0  0  0
 16 22  1  0  0  0  0
 16 29  1  0  0  0  0
 17 20  2  0  0  0  0
 18 25  1  0  0  0  0
 18 27  1  0  0  0  0
 21 26  2  0  0  0  0
 22 24  2  0  0  0  0
 23 28  1  0  0  0  0
 24 26  1  0  0  0  0
 24 30  1  0  0  0  0
 25 28  1  0  0  0  0
 31 33  1  0  0  0  0
 32 34  1  0  0  0  0
 33 34  1  0  0  0  0
M  END
> <PUBCHEM_COMPOUND_ID_TYPE>
0

> <PUBCHEM_TOTAL_CHARGE>
0

> <PUBCHEM_SUBSTANCE_ID>
310931883

> <PUBCHEM_SUBSTANCE_VERSION>
1

> <PUBCHEM_EXT_DATASOURCE_NAME>
4488

> <PUBCHEM_EXT_DATASOURCE_REGID>
SCHEMBL16109218

> <PUBCHEM_SUBSTANCE_COMMENT>
InChI=1S/C26H28N6O2/c1-18-13-19(14-27)6-8-22(18)23-16-29-32(26(23)34)24-9-7-20(15-28-24)25(33)31-12-4-5-21(31)17-30-10-2-3-11-30/h6-9,13,15-16,21,34H,2-5,10-12,17H2,1H3
InChIKey=XKZLUUDDJJIRNG-UHFFFAOYSA-N

> <PUBCHEM_SUBSTANCE_SYNONYM>
SCHEMBL16109218

> <PUBCHEM_XREF_EXT_ID>
SCHEMBL16109218

> <PUBCHEM_EXT_DATASOURCE_URL>
https://www.surechembl.org/

> <PUBCHEM_EXT_SUBSTANCE_URL>
https://www.surechembl.org/chemical/SCHEMBL16109218

> <PUBCHEM_CID_ASSOCIATIONS>
117600545  1

> <PUBCHEM_COORDINATE_TYPE>
1
3

$$$$
