310941322
  -OEChem-07211613022D

 43 46  0     1  0  0  0  0  0999 V2000
    0.3506    1.2786    0.0000 F   0  0  0  0  0  0  0  0  0  0  0  0
    5.0390    0.6737    0.0000 O   0  0  0  0  0  0  0  0  0  0  0  0
    3.9116   -1.2786    0.0000 O   0  0  0  0  0  0  0  0  0  0  0  0
    1.7668    0.7837    0.0000 O   0  0  0  0  0  0  0  0  0  0  0  0
   -0.3644   -1.2786    0.0000 O   0  0  0  0  0  0  0  0  0  0  0  0
    3.9116   -2.9285    0.0000 O   0  0  0  0  0  0  0  0  0  0  0  0
   -2.5092    0.7837    0.0000 O   0  0  0  0  0  0  0  0  0  0  0  0
   -5.3552    0.7837    0.0000 O   0  0  0  0  0  0  0  0  0  0  0  0
    2.4954   -0.4537    0.0000 N   0  0  0  0  0  0  0  0  0  0  0  0
    0.3506   -0.0412    0.0000 N   0  0  0  0  0  0  0  0  0  0  0  0
   -1.7943   -0.4537    0.0000 N   0  0  0  0  0  0  0  0  0  0  0  0
   -3.9253   -0.0412    0.0000 N   0  0  0  0  0  0  0  0  0  0  0  0
    4.6128    0.0000    0.0000 C   0  0  3  0  0  0  0  0  0  0  0  0
    3.9253   -0.4125    0.0000 C   0  0  0  0  0  0  0  0  0  0  0  0
    4.2416    0.6875    0.0000 C   0  0  0  0  0  0  0  0  0  0  0  0
    3.1967   -0.0138    0.0000 C   0  0  3  0  0  0  0  0  0  0  0  0
    5.3552   -0.4400    0.0000 C   0  0  0  0  0  0  0  0  0  0  0  0
    3.1967    1.2924    0.0000 C   0  0  0  0  0  0  0  0  0  0  0  0
    1.7668   -0.0275    0.0000 C   0  0  0  0  0  0  0  0  0  0  0  0
    2.4954    1.7186    0.0000 C   0  0  0  0  0  0  0  0  0  0  0  0
    1.0793   -0.4262    0.0000 C   0  0  3  0  0  0  0  0  0  0  0  0
    1.0655   -1.2511    0.0000 C   0  0  0  0  0  0  0  0  0  0  0  0
    1.7805    1.3061    0.0000 C   0  0  0  0  0  0  0  0  0  0  0  0
    2.4954    2.5160    0.0000 C   0  0  0  0  0  0  0  0  0  0  0  0
    1.7943   -1.6636    0.0000 C   0  0  0  0  0  0  0  0  0  0  0  0
   -0.3506   -0.4125    0.0000 C   0  0  0  0  0  0  0  0  0  0  0  0
    1.0518    1.7186    0.0000 C   0  0  0  0  0  0  0  0  0  0  0  0
   -1.0930   -0.0138    0.0000 C   0  0  3  0  0  0  0  0  0  0  0  0
    1.7668    2.9285    0.0000 C   0  0  0  0  0  0  0  0  0  0  0  0
    1.0793    2.5298    0.0000 C   0  0  0  0  0  0  0  0  0  0  0  0
    2.4817   -1.2649    0.0000 C   0  0  0  0  0  0  0  0  0  0  0  0
    1.7943   -2.4885    0.0000 C   0  0  0  0  0  0  0  0  0  0  0  0
    3.1967   -2.4748    0.0000 C   0  0  0  0  0  0  0  0  0  0  0  0
    3.2104   -1.6774    0.0000 C   0  0  0  0  0  0  0  0  0  0  0  0
    2.4954   -2.8873    0.0000 C   0  0  0  0  0  0  0  0  0  0  0  0
   -2.5092   -0.0412    0.0000 C   0  0  0  0  0  0  0  0  0  0  0  0
   -1.0793    0.8112    0.0000 C   0  0  0  0  0  0  0  0  0  0  0  0
   -3.2104   -0.4262    0.0000 C   0  0  0  0  0  0  0  0  0  0  0  0
   -3.9253    0.7974    0.0000 C   0  0  0  0  0  0  0  0  0  0  0  0
   -4.6266   -0.4262    0.0000 C   0  0  0  0  0  0  0  0  0  0  0  0
   -4.6678    1.2099    0.0000 C   0  0  0  0  0  0  0  0  0  0  0  0
   -5.3415   -0.0138    0.0000 C   0  0  0  0  0  0  0  0  0  0  0  0
    4.6541   -2.5023    0.0000 C   0  0  0  0  0  0  0  0  0  0  0  0
  1 27  1  0  0  0  0
  2 13  1  0  0  0  0
  2 15  1  0  0  0  0
  3 14  2  0  0  0  0
  4 19  2  0  0  0  0
  5 26  2  0  0  0  0
  6 33  1  0  0  0  0
  6 43  1  0  0  0  0
  7 36  2  0  0  0  0
  8 41  1  0  0  0  0
  8 42  1  0  0  0  0
  9 16  1  0  0  0  0
  9 19  1  0  0  0  0
 10 21  1  0  0  0  0
 10 26  1  0  0  0  0
 11 28  1  0  0  0  0
 11 36  1  0  0  0  0
 12 38  1  0  0  0  0
 12 39  1  0  0  0  0
 12 40  1  0  0  0  0
 13 14  1  0  0  0  0
 13 15  1  0  0  0  0
 13 17  1  0  0  0  0
 14 16  1  0  0  0  0
 16 18  1  0  0  0  0
 18 20  1  0  0  0  0
 19 21  1  0  0  0  0
 20 23  1  0  0  0  0
 20 24  2  0  0  0  0
 21 22  1  0  0  0  0
 22 25  1  0  0  0  0
 23 27  2  0  0  0  0
 24 29  1  0  0  0  0
 25 31  2  0  0  0  0
 25 32  1  0  0  0  0
 26 28  1  0  0  0  0
 27 30  1  0  0  0  0
 28 37  1  0  0  0  0
 29 30  2  0  0  0  0
 31 34  1  0  0  0  0
 32 35  2  0  0  0  0
 33 34  2  0  0  0  0
 33 35  1  0  0  0  0
 36 38  1  0  0  0  0
 39 41  1  0  0  0  0
 40 42  1  0  0  0  0
M  END
> <PUBCHEM_COMPOUND_ID_TYPE>
0

> <PUBCHEM_TOTAL_CHARGE>
0

> <PUBCHEM_SUBSTANCE_ID>
310941322

> <PUBCHEM_SUBSTANCE_VERSION>
1

> <PUBCHEM_EXT_DATASOURCE_NAME>
4488

> <PUBCHEM_EXT_DATASOURCE_REGID>
SCHEMBL16119282

> <PUBCHEM_SUBSTANCE_COMMENT>
InChI=1S/C31H39FN4O7/c1-20(33-27(37)18-36-11-13-42-14-12-36)29(39)35-26(16-21-7-9-24(41-3)10-8-21)30(40)34-25(28(38)31(2)19-43-31)17-22-5-4-6-23(32)15-22/h4-10,15,20,25-26H,11-14,16-19H2,1-3H3,(H,33,37)(H,34,40)(H,35,39)
InChIKey=FXZMRDOUSNGUIA-UHFFFAOYSA-N

> <PUBCHEM_SUBSTANCE_SYNONYM>
SCHEMBL16119282

> <PUBCHEM_XREF_EXT_ID>
SCHEMBL16119282

> <PUBCHEM_EXT_DATASOURCE_URL>
https://www.surechembl.org/

> <PUBCHEM_EXT_SUBSTANCE_URL>
https://www.surechembl.org/chemical/SCHEMBL16119282

> <PUBCHEM_CID_ASSOCIATIONS>
117608170  1

> <PUBCHEM_COORDINATE_TYPE>
1
3

$$$$
