310949645
  -OEChem-07211613022D

 27 29  0     1  0  0  0  0  0999 V2000
   -0.3619    1.4402    0.0000 S   0  0  0  0  0  0  0  0  0  0  0  0
    2.5034   -2.6919    0.0000 F   0  0  0  0  0  0  0  0  0  0  0  0
    0.0603    0.7164    0.0000 O   0  0  0  0  0  0  0  0  0  0  0  0
   -0.7692    2.1490    0.0000 O   0  0  0  0  0  0  0  0  0  0  0  0
   -1.1009   -1.4402    0.0000 O   0  0  0  0  0  0  0  0  0  0  0  0
    0.3770    1.8474    0.0000 N   0  0  3  0  0  0  0  0  0  0  0  0
   -0.3619   -0.2036    0.0000 N   0  0  0  0  0  0  0  0  0  0  0  0
   -1.0858    1.0330    0.0000 C   0  0  0  0  0  0  0  0  0  0  0  0
   -1.0858    0.2187    0.0000 C   0  0  0  0  0  0  0  0  0  0  0  0
    1.1009    1.4100    0.0000 C   0  0  0  0  0  0  0  0  0  0  0  0
   -1.8248    1.4402    0.0000 C   0  0  0  0  0  0  0  0  0  0  0  0
   -1.8097   -0.1885    0.0000 C   0  0  0  0  0  0  0  0  0  0  0  0
   -0.3770   -1.0179    0.0000 C   0  0  0  0  0  0  0  0  0  0  0  0
   -2.5185    1.0330    0.0000 C   0  0  0  0  0  0  0  0  0  0  0  0
    0.3468   -1.4402    0.0000 C   0  0  0  0  0  0  0  0  0  0  0  0
    0.3770    2.6919    0.0000 C   0  0  0  0  0  0  0  0  0  0  0  0
   -2.5185    0.2187    0.0000 C   0  0  0  0  0  0  0  0  0  0  0  0
    1.7946    1.8173    0.0000 C   0  0  0  0  0  0  0  0  0  0  0  0
    1.0858    0.6108    0.0000 C   0  0  0  0  0  0  0  0  0  0  0  0
    1.0556   -1.0632    0.0000 C   0  0  0  0  0  0  0  0  0  0  0  0
    0.3468   -2.2697    0.0000 C   0  0  0  0  0  0  0  0  0  0  0  0
    2.5185    1.4100    0.0000 C   0  0  0  0  0  0  0  0  0  0  0  0
    1.7946    0.1885    0.0000 C   0  0  0  0  0  0  0  0  0  0  0  0
    1.7796   -2.2697    0.0000 C   0  0  0  0  0  0  0  0  0  0  0  0
    1.7796   -1.4854    0.0000 C   0  0  0  0  0  0  0  0  0  0  0  0
    1.0556   -2.6768    0.0000 C   0  0  0  0  0  0  0  0  0  0  0  0
    2.5185    0.5958    0.0000 C   0  0  0  0  0  0  0  0  0  0  0  0
  1  3  2  0  0  0  0
  1  4  2  0  0  0  0
  1  6  1  0  0  0  0
  1  8  1  0  0  0  0
  2 24  1  0  0  0  0
  5 13  2  0  0  0  0
  6 10  1  0  0  0  0
  6 16  1  0  0  0  0
  7  9  1  0  0  0  0
  7 13  1  0  0  0  0
  8  9  1  0  0  0  0
  8 11  2  0  0  0  0
  9 12  2  0  0  0  0
 10 18  2  0  0  0  0
 10 19  1  0  0  0  0
 11 14  1  0  0  0  0
 12 17  1  0  0  0  0
 13 15  1  0  0  0  0
 14 17  2  0  0  0  0
 15 20  2  0  0  0  0
 15 21  1  0  0  0  0
 18 22  1  0  0  0  0
 19 23  2  0  0  0  0
 20 25  1  0  0  0  0
 21 26  2  0  0  0  0
 22 27  2  0  0  0  0
 23 27  1  0  0  0  0
 24 25  2  0  0  0  0
 24 26  1  0  0  0  0
M  END
> <PUBCHEM_COMPOUND_ID_TYPE>
0

> <PUBCHEM_TOTAL_CHARGE>
0

> <PUBCHEM_SUBSTANCE_ID>
310949645

> <PUBCHEM_SUBSTANCE_VERSION>
1

> <PUBCHEM_EXT_DATASOURCE_NAME>
4488

> <PUBCHEM_EXT_DATASOURCE_REGID>
SCHEMBL16127843

> <PUBCHEM_SUBSTANCE_COMMENT>
InChI=1S/C20H17FN2O3S/c1-23(17-7-3-2-4-8-17)27(25,26)19-10-6-5-9-18(19)22-20(24)15-11-13-16(21)14-12-15/h2-14H,1H3,(H,22,24)
InChIKey=WFMMLLJSYWMULX-UHFFFAOYSA-N

> <PUBCHEM_SUBSTANCE_SYNONYM>
SCHEMBL16127843

> <PUBCHEM_XREF_EXT_ID>
SCHEMBL16127843

> <PUBCHEM_EXT_DATASOURCE_URL>
https://www.surechembl.org/

> <PUBCHEM_EXT_SUBSTANCE_URL>
https://www.surechembl.org/chemical/SCHEMBL16127843

> <PUBCHEM_CID_ASSOCIATIONS>
117615024  1

> <PUBCHEM_COORDINATE_TYPE>
1
3

$$$$
