310937212
  -OEChem-07211613022D

 17 17  0     1  0  0  0  0  0999 V2000
   -0.4125   -1.7605    0.0000 O   0  0  0  0  0  0  0  0  0  0  0  0
    2.0625   -3.1895    0.0000 O   0  0  0  0  0  0  0  0  0  0  0  0
    3.3000   -2.4750    0.0000 O   0  0  0  0  0  0  0  0  0  0  0  0
    2.0625   -1.7605    0.0000 N   0  0  0  0  0  0  0  0  0  0  0  0
    0.0000   -1.0461    0.0000 C   0  0  3  0  0  0  0  0  0  0  0  0
   -0.4125   -0.3316    0.0000 C   0  0  0  0  0  0  0  0  0  0  0  0
    0.8250   -1.0461    0.0000 C   0  0  0  0  0  0  0  0  0  0  0  0
   -1.2375   -0.3316    0.0000 C   0  0  0  0  0  0  0  0  0  0  0  0
    0.0000    0.3829    0.0000 C   0  0  0  0  0  0  0  0  0  0  0  0
    0.0000   -2.4750    0.0000 C   0  0  0  0  0  0  0  0  0  0  0  0
    1.2375   -1.7605    0.0000 C   0  0  0  0  0  0  0  0  0  0  0  0
   -1.6500    0.3829    0.0000 C   0  0  0  0  0  0  0  0  0  0  0  0
   -0.4125    1.0974    0.0000 C   0  0  0  0  0  0  0  0  0  0  0  0
   -1.2375    1.0974    0.0000 C   0  0  0  0  0  0  0  0  0  0  0  0
    2.4750   -2.4750    0.0000 C   0  0  0  0  0  0  0  0  0  0  0  0
    0.8250   -2.4750    0.0000 C   0  0  0  0  0  0  0  0  0  0  0  0
   -0.4125   -3.1895    0.0000 C   0  0  0  0  0  0  0  0  0  0  0  0
  1  5  1  0  0  0  0
  1 10  1  0  0  0  0
  2 15  2  0  0  0  0
  3 15  1  0  0  0  0
  4 11  1  0  0  0  0
  4 15  1  0  0  0  0
  5  6  1  0  0  0  0
  5  7  1  0  0  0  0
  6  8  2  0  0  0  0
  6  9  1  0  0  0  0
  7 11  1  0  0  0  0
  8 12  1  0  0  0  0
  9 13  2  0  0  0  0
 10 16  1  0  0  0  0
 10 17  1  0  0  0  0
 12 14  2  0  0  0  0
 13 14  1  0  0  0  0
M  END
> <PUBCHEM_COMPOUND_ID_TYPE>
0

> <PUBCHEM_TOTAL_CHARGE>
0

> <PUBCHEM_SUBSTANCE_ID>
310937212

> <PUBCHEM_SUBSTANCE_VERSION>
1

> <PUBCHEM_EXT_DATASOURCE_NAME>
4488

> <PUBCHEM_EXT_DATASOURCE_REGID>
SCHEMBL16114943

> <PUBCHEM_SUBSTANCE_COMMENT>
InChI=1S/C13H19NO3/c1-10(2)17-12(8-9-14-13(15)16)11-6-4-3-5-7-11/h3-7,10,12,14H,8-9H2,1-2H3,(H,15,16)
InChIKey=FSKVGJRDRBYPMJ-UHFFFAOYSA-N

> <PUBCHEM_SUBSTANCE_SYNONYM>
SCHEMBL16114943

> <PUBCHEM_XREF_EXT_ID>
SCHEMBL16114943

> <PUBCHEM_EXT_DATASOURCE_URL>
https://www.surechembl.org/

> <PUBCHEM_EXT_SUBSTANCE_URL>
https://www.surechembl.org/chemical/SCHEMBL16114943

> <PUBCHEM_CID_ASSOCIATIONS>
117605021  1

> <PUBCHEM_COORDINATE_TYPE>
1
3

$$$$
