310936813
  -OEChem-07211613022D

 20 22  0     1  0  0  0  0  0999 V2000
    0.7320    0.0000    0.0000 O   0  0  0  0  0  0  0  0  0  0  0  0
    0.0000   -1.2549    0.0000 O   0  0  0  0  0  0  0  0  0  0  0  0
    1.4222   -2.9072    0.0000 N   0  0  0  0  0  0  0  0  0  0  0  0
    2.1543   -0.8366    0.0000 N   0  0  0  0  0  0  0  0  0  0  0  0
    0.9203   -3.5556    0.0000 N   0  0  0  0  0  0  0  0  0  0  0  0
    2.0915   -3.4092    0.0000 N   0  0  0  0  0  0  0  0  0  0  0  0
    1.4222   -2.0706    0.0000 C   0  0  3  0  0  0  0  0  0  0  0  0
    1.4222   -1.2549    0.0000 C   0  0  3  0  0  0  0  0  0  0  0  0
    2.1543   -2.4890    0.0000 C   0  0  0  0  0  0  0  0  0  0  0  0
    2.8863   -2.0706    0.0000 C   0  0  0  0  0  0  0  0  0  0  0  0
    2.8863   -1.2549    0.0000 C   0  0  0  0  0  0  0  0  0  0  0  0
    0.7111   -2.4890    0.0000 C   0  0  0  0  0  0  0  0  0  0  0  0
    0.7111   -0.8366    0.0000 C   0  0  0  0  0  0  0  0  0  0  0  0
    3.5765   -2.4890    0.0000 C   0  0  0  0  0  0  0  0  0  0  0  0
    3.5765   -0.8366    0.0000 C   0  0  0  0  0  0  0  0  0  0  0  0
    1.8405   -4.1831    0.0000 C   0  0  0  0  0  0  0  0  0  0  0  0
    1.0040   -4.1831    0.0000 C   0  0  0  0  0  0  0  0  0  0  0  0
    4.3086   -2.0706    0.0000 C   0  0  0  0  0  0  0  0  0  0  0  0
    0.7320   -3.3255    0.0000 C   0  0  0  0  0  0  0  0  0  0  0  0
    4.3086   -1.2549    0.0000 C   0  0  0  0  0  0  0  0  0  0  0  0
  1 13  2  0  0  0  0
  2 13  1  0  0  0  0
  3  5  1  0  0  0  0
  3  6  1  0  0  0  0
  3  7  1  0  0  0  0
  4  8  1  0  0  0  0
  4 11  2  0  0  0  0
  5 17  2  0  0  0  0
  6 16  2  0  0  0  0
  7  8  1  0  0  0  0
  7  9  1  0  0  0  0
  7 12  1  0  0  0  0
  8 13  1  0  0  0  0
  9 10  2  0  0  0  0
 10 11  1  0  0  0  0
 10 14  1  0  0  0  0
 11 15  1  0  0  0  0
 12 19  1  0  0  0  0
 14 18  2  0  0  0  0
 15 20  2  0  0  0  0
 16 17  1  0  0  0  0
 18 20  1  0  0  0  0
M  END
> <PUBCHEM_COMPOUND_ID_TYPE>
0

> <PUBCHEM_TOTAL_CHARGE>
0

> <PUBCHEM_SUBSTANCE_ID>
310936813

> <PUBCHEM_SUBSTANCE_VERSION>
1

> <PUBCHEM_EXT_DATASOURCE_NAME>
4488

> <PUBCHEM_EXT_DATASOURCE_REGID>
SCHEMBL16114500

> <PUBCHEM_SUBSTANCE_COMMENT>
InChI=1S/C14H14N4O2/c1-2-14(18-15-7-8-16-18)9-10-5-3-4-6-11(10)17-12(14)13(19)20/h3-9,12H,2H2,1H3,(H,19,20)
InChIKey=VHULUMOYSMWWRB-UHFFFAOYSA-N

> <PUBCHEM_SUBSTANCE_SYNONYM>
SCHEMBL16114500

> <PUBCHEM_XREF_EXT_ID>
SCHEMBL16114500

> <PUBCHEM_EXT_DATASOURCE_URL>
https://www.surechembl.org/

> <PUBCHEM_EXT_SUBSTANCE_URL>
https://www.surechembl.org/chemical/SCHEMBL16114500

> <PUBCHEM_CID_ASSOCIATIONS>
117604706  1

> <PUBCHEM_COORDINATE_TYPE>
1
3

$$$$
