310932338
  -OEChem-07211613022D

 22 24  0     1  0  0  0  0  0999 V2000
    2.7613   -1.6207    0.0000 O   0  0  0  0  0  0  0  0  0  0  0  0
    3.8818   -3.5816    0.0000 O   0  0  0  0  0  0  0  0  0  0  0  0
    4.6021   -2.3411    0.0000 O   0  0  0  0  0  0  0  0  0  0  0  0
    2.3411   -2.3411    0.0000 C   0  0  3  0  0  0  0  0  0  0  0  0
    3.1615   -2.3411    0.0000 C   0  0  3  0  0  0  0  0  0  0  0  0
    1.7608   -1.7608    0.0000 C   0  0  0  0  0  0  0  0  0  0  0  0
    1.6207   -2.7613    0.0000 C   0  0  0  0  0  0  0  0  0  0  0  0
    3.8818   -2.7613    0.0000 C   0  0  0  0  0  0  0  0  0  0  0  0
    0.9405   -1.9609    0.0000 C   0  0  0  0  0  0  0  0  0  0  0  0
    1.9609   -0.9604    0.0000 C   0  0  0  0  0  0  0  0  0  0  0  0
    1.6207   -3.5816    0.0000 C   0  0  0  0  0  0  0  0  0  0  0  0
    0.9004   -2.3411    0.0000 C   0  0  0  0  0  0  0  0  0  0  0  0
    0.3602   -1.3806    0.0000 C   0  0  0  0  0  0  0  0  0  0  0  0
    1.3806   -0.3802    0.0000 C   0  0  0  0  0  0  0  0  0  0  0  0
    0.9004   -4.0018    0.0000 C   0  0  0  0  0  0  0  0  0  0  0  0
    0.2001   -2.7613    0.0000 C   0  0  0  0  0  0  0  0  0  0  0  0
    0.5802   -0.5802    0.0000 C   0  0  0  0  0  0  0  0  0  0  0  0
    0.1801   -3.5816    0.0000 C   0  0  0  0  0  0  0  0  0  0  0  0
    4.6021   -4.0018    0.0000 C   0  0  0  0  0  0  0  0  0  0  0  0
    0.0000    0.0000    0.0000 C   0  0  0  0  0  0  0  0  0  0  0  0
    5.3225   -3.5816    0.0000 C   0  0  0  0  0  0  0  0  0  0  0  0
    5.3025   -2.7613    0.0000 C   0  0  0  0  0  0  0  0  0  0  0  0
  1  4  1  0  0  0  0
  1  5  1  0  0  0  0
  2  8  1  0  0  0  0
  2 19  1  0  0  0  0
  3  8  2  0  0  0  0
  4  5  1  0  0  0  0
  4  6  1  0  0  0  0
  4  7  1  0  0  0  0
  5  8  1  0  0  0  0
  6  9  2  0  0  0  0
  6 10  1  0  0  0  0
  7 11  2  0  0  0  0
  7 12  1  0  0  0  0
  9 13  1  0  0  0  0
 10 14  2  0  0  0  0
 11 15  1  0  0  0  0
 12 16  2  0  0  0  0
 13 17  2  0  0  0  0
 14 17  1  0  0  0  0
 15 18  2  0  0  0  0
 16 18  1  0  0  0  0
 17 20  1  0  0  0  0
 19 21  1  0  0  0  0
 21 22  1  0  0  0  0
M  END
> <PUBCHEM_COMPOUND_ID_TYPE>
0

> <PUBCHEM_TOTAL_CHARGE>
0

> <PUBCHEM_SUBSTANCE_ID>
310932338

> <PUBCHEM_SUBSTANCE_VERSION>
1

> <PUBCHEM_EXT_DATASOURCE_NAME>
4488

> <PUBCHEM_EXT_DATASOURCE_REGID>
SCHEMBL16109704

> <PUBCHEM_SUBSTANCE_COMMENT>
InChI=1S/C19H20O3/c1-3-13-21-18(20)17-19(22-17,15-7-5-4-6-8-15)16-11-9-14(2)10-12-16/h4-12,17H,3,13H2,1-2H3
InChIKey=ULTDQTVBOUUGCX-UHFFFAOYSA-N

> <PUBCHEM_SUBSTANCE_SYNONYM>
SCHEMBL16109704

> <PUBCHEM_XREF_EXT_ID>
SCHEMBL16109704

> <PUBCHEM_EXT_DATASOURCE_URL>
https://www.surechembl.org/

> <PUBCHEM_EXT_SUBSTANCE_URL>
https://www.surechembl.org/chemical/SCHEMBL16109704

> <PUBCHEM_CID_ASSOCIATIONS>
117600893  1

> <PUBCHEM_COORDINATE_TYPE>
1
3

$$$$
