310938239
  -OEChem-07211613022D

 37 41  0     1  0  0  0  0  0999 V2000
    4.3143   -5.3030    0.0000 O   0  0  0  0  0  0  0  0  0  0  0  0
    7.1456   -5.3030    0.0000 O   0  0  0  0  0  0  0  0  0  0  0  0
    0.0000   -0.4044    0.0000 O   0  0  0  0  0  0  0  0  0  0  0  0
    6.5164   -2.5616    0.0000 N   0  0  3  0  0  0  0  0  0  0  0  0
    5.7075   -5.3030    0.0000 N   0  0  0  0  0  0  0  0  0  0  0  0
    1.4381   -1.2134    0.0000 N   0  0  0  0  0  0  0  0  0  0  0  0
    7.8647   -6.5164    0.0000 N   0  0  0  0  0  0  0  0  0  0  0  0
    5.7075   -3.6402    0.0000 C   0  0  0  0  0  0  0  0  0  0  0  0
    5.7075   -2.8313    0.0000 C   0  0  0  0  0  0  0  0  0  0  0  0
    4.9885   -4.0447    0.0000 C   0  0  0  0  0  0  0  0  0  0  0  0
    4.3143   -2.8313    0.0000 C   0  0  0  0  0  0  0  0  0  0  0  0
    4.9885   -2.4268    0.0000 C   0  0  0  0  0  0  0  0  0  0  0  0
    4.3143   -3.6402    0.0000 C   0  0  0  0  0  0  0  0  0  0  0  0
    4.9885   -4.8986    0.0000 C   0  0  0  0  0  0  0  0  0  0  0  0
    6.5164   -3.9099    0.0000 C   0  0  0  0  0  0  0  0  0  0  0  0
    3.5953   -2.4268    0.0000 C   0  0  0  0  0  0  0  0  0  0  0  0
    6.9658   -3.2357    0.0000 C   0  0  0  0  0  0  0  0  0  0  0  0
    6.4265   -6.5164    0.0000 C   0  0  0  0  0  0  0  0  0  0  0  0
    2.8763   -2.8763    0.0000 C   0  0  0  0  0  0  0  0  0  0  0  0
    3.5953   -1.6179    0.0000 C   0  0  0  0  0  0  0  0  0  0  0  0
    2.1572   -1.6179    0.0000 C   0  0  0  0  0  0  0  0  0  0  0  0
    6.4265   -7.3703    0.0000 C   0  0  0  0  0  0  0  0  0  0  0  0
    5.7075   -6.1120    0.0000 C   0  0  0  0  0  0  0  0  0  0  0  0
    6.7412   -1.7977    0.0000 C   0  0  0  0  0  0  0  0  0  0  0  0
    7.1456   -6.1120    0.0000 C   0  0  0  0  0  0  0  0  0  0  0  0
    2.1572   -2.4717    0.0000 C   0  0  0  0  0  0  0  0  0  0  0  0
    2.8763   -1.2134    0.0000 C   0  0  0  0  0  0  0  0  0  0  0  0
    7.1456   -7.7748    0.0000 C   0  0  0  0  0  0  0  0  0  0  0  0
    7.8647   -7.3703    0.0000 C   0  0  0  0  0  0  0  0  0  0  0  0
    5.7524   -7.7748    0.0000 C   0  0  0  0  0  0  0  0  0  0  0  0
    0.7191   -1.6179    0.0000 C   0  0  0  0  0  0  0  0  0  0  0  0
    1.4381   -0.4044    0.0000 C   0  0  0  0  0  0  0  0  0  0  0  0
    8.5837   -7.7748    0.0000 C   0  0  0  0  0  0  0  0  0  0  0  0
    0.0449   -1.2134    0.0000 C   0  0  0  0  0  0  0  0  0  0  0  0
    0.7640    0.0000    0.0000 C   0  0  0  0  0  0  0  0  0  0  0  0
    5.7524   -8.5837    0.0000 C   0  0  0  0  0  0  0  0  0  0  0  0
    6.4715   -8.9882    0.0000 C   0  0  0  0  0  0  0  0  0  0  0  0
  1 14  2  0  0  0  0
  2 25  2  0  0  0  0
  3 34  1  0  0  0  0
  3 35  1  0  0  0  0
  4  9  1  0  0  0  0
  4 17  1  0  0  0  0
  4 24  1  0  0  0  0
  5 14  1  0  0  0  0
  5 23  1  0  0  0  0
  6 21  1  0  0  0  0
  6 31  1  0  0  0  0
  6 32  1  0  0  0  0
  7 25  1  0  0  0  0
  7 29  1  0  0  0  0
  8  9  2  0  0  0  0
  8 10  1  0  0  0  0
  8 15  1  0  0  0  0
  9 12  1  0  0  0  0
 10 13  2  0  0  0  0
 10 14  1  0  0  0  0
 11 12  2  0  0  0  0
 11 13  1  0  0  0  0
 11 16  1  0  0  0  0
 15 17  1  0  0  0  0
 16 19  2  0  0  0  0
 16 20  1  0  0  0  0
 18 22  2  0  0  0  0
 18 23  1  0  0  0  0
 18 25  1  0  0  0  0
 19 26  1  0  0  0  0
 20 27  2  0  0  0  0
 21 26  2  0  0  0  0
 21 27  1  0  0  0  0
 22 28  1  0  0  0  0
 22 30  1  0  0  0  0
 28 29  2  0  0  0  0
 29 33  1  0  0  0  0
 30 36  1  0  0  0  0
 31 34  1  0  0  0  0
 32 35  1  0  0  0  0
 36 37  1  0  0  0  0
M  END
> <PUBCHEM_COMPOUND_ID_TYPE>
0

> <PUBCHEM_TOTAL_CHARGE>
0

> <PUBCHEM_SUBSTANCE_ID>
310938239

> <PUBCHEM_SUBSTANCE_VERSION>
1

> <PUBCHEM_EXT_DATASOURCE_NAME>
4488

> <PUBCHEM_EXT_DATASOURCE_REGID>
SCHEMBL16116104

> <PUBCHEM_SUBSTANCE_COMMENT>
InChI=1S/C30H36N4O3/c1-4-5-22-16-20(2)32-30(36)27(22)19-31-29(35)26-17-23(18-28-25(26)10-11-33(28)3)21-6-8-24(9-7-21)34-12-14-37-15-13-34/h6-9,16-18H,4-5,10-15,19H2,1-3H3,(H,31,35)(H,32,36)
InChIKey=KBLCFLQMIRQZJG-UHFFFAOYSA-N

> <PUBCHEM_SUBSTANCE_SYNONYM>
SCHEMBL16116104

> <PUBCHEM_XREF_EXT_ID>
SCHEMBL16116104

> <PUBCHEM_EXT_DATASOURCE_URL>
https://www.surechembl.org/

> <PUBCHEM_EXT_SUBSTANCE_URL>
https://www.surechembl.org/chemical/SCHEMBL16116104

> <PUBCHEM_CID_ASSOCIATIONS>
86273150  1

> <PUBCHEM_COORDINATE_TYPE>
1
3

$$$$
