310940495
  -OEChem-07211613022D

 10 10  0     1  0  0  0  0  0999 V2000
    1.5099    0.1683    0.0000 O   0  0  0  0  0  0  0  0  0  0  0  0
   -0.1315    0.3156    0.0000 N   0  0  0  0  0  0  0  0  0  0  0  0
   -0.3735   -0.9890    0.0000 N   0  0  0  0  0  0  0  0  0  0  0  0
   -1.0995   -0.5787    0.0000 N   0  0  0  0  0  0  0  0  0  0  0  0
    0.2051   -0.4208    0.0000 C   0  0  3  0  0  0  0  0  0  0  0  0
   -0.9522    0.2210    0.0000 C   0  0  0  0  0  0  0  0  0  0  0  0
    0.3419    0.9890    0.0000 C   0  0  0  0  0  0  0  0  0  0  0  0
    1.0258   -0.5050    0.0000 C   0  0  0  0  0  0  0  0  0  0  0  0
    1.1731    0.9049    0.0000 C   0  0  0  0  0  0  0  0  0  0  0  0
   -1.5099    0.5576    0.0000 C   0  0  0  0  0  0  0  0  0  0  0  0
  1  8  1  0  0  0  0
  1  9  1  0  0  0  0
  2  5  1  0  0  0  0
  2  6  1  0  0  0  0
  2  7  1  0  0  0  0
  3  5  1  0  0  0  0
  4  6  2  3  0  0  0
  5  8  1  0  0  0  0
  6 10  1  0  0  0  0
  7  9  1  0  0  0  0
M  END
> <PUBCHEM_COMPOUND_ID_TYPE>
0

> <PUBCHEM_TOTAL_CHARGE>
0

> <PUBCHEM_SUBSTANCE_ID>
310940495

> <PUBCHEM_SUBSTANCE_VERSION>
1

> <PUBCHEM_EXT_DATASOURCE_NAME>
4488

> <PUBCHEM_EXT_DATASOURCE_REGID>
SCHEMBL16118449

> <PUBCHEM_SUBSTANCE_COMMENT>
InChI=1S/C6H13N3O/c1-5(7)9-2-3-10-4-6(9)8/h6-7H,2-4,8H2,1H3
InChIKey=FGNOBJZGCJEUCP-UHFFFAOYSA-N

> <PUBCHEM_SUBSTANCE_SYNONYM>
SCHEMBL16118449

> <PUBCHEM_XREF_EXT_ID>
SCHEMBL16118449

> <PUBCHEM_EXT_DATASOURCE_URL>
https://www.surechembl.org/

> <PUBCHEM_EXT_SUBSTANCE_URL>
https://www.surechembl.org/chemical/SCHEMBL16118449

> <PUBCHEM_CID_ASSOCIATIONS>
117607510  1

> <PUBCHEM_COORDINATE_TYPE>
1
3

$$$$
