310945586
  -OEChem-07211613022D

 12 11  0     1  0  0  0  0  0999 V2000
   -1.8933    0.2341    0.0000 N   0  0  3  0  0  0  0  0  0  0  0  0
    0.2961   -0.0964    0.0000 N   0  0  3  0  0  0  0  0  0  0  0  0
   -2.4440   -0.3718    0.0000 N   0  0  0  0  0  0  0  0  0  0  0  0
    2.4440    0.3167    0.0000 N   0  0  0  0  0  0  0  0  0  0  0  0
   -1.1222   -0.0551    0.0000 C   0  0  0  0  0  0  0  0  0  0  0  0
   -0.4062    0.3442    0.0000 C   0  0  0  0  0  0  0  0  0  0  0  0
    1.0258    0.3442    0.0000 C   0  0  0  0  0  0  0  0  0  0  0  0
   -2.0448    1.0327    0.0000 C   0  0  0  0  0  0  0  0  0  0  0  0
    0.3235   -0.9087    0.0000 C   0  0  0  0  0  0  0  0  0  0  0  0
   -2.0310   -1.0327    0.0000 C   0  0  0  0  0  0  0  0  0  0  0  0
    1.7556   -0.0551    0.0000 C   0  0  0  0  0  0  0  0  0  0  0  0
   -1.2186   -0.8812    0.0000 C   0  0  0  0  0  0  0  0  0  0  0  0
  1  3  1  0  0  0  0
  1  5  1  0  0  0  0
  1  8  1  0  0  0  0
  2  6  1  0  0  0  0
  2  7  1  0  0  0  0
  2  9  1  0  0  0  0
  3 10  2  0  0  0  0
  4 11  1  0  0  0  0
  5  6  1  0  0  0  0
  7 11  1  0  0  0  0
 10 12  1  0  0  0  0
M  END
> <PUBCHEM_COMPOUND_ID_TYPE>
0

> <PUBCHEM_TOTAL_CHARGE>
0

> <PUBCHEM_SUBSTANCE_ID>
310945586

> <PUBCHEM_SUBSTANCE_VERSION>
1

> <PUBCHEM_EXT_DATASOURCE_NAME>
4488

> <PUBCHEM_EXT_DATASOURCE_REGID>
SCHEMBL16123685

> <PUBCHEM_SUBSTANCE_COMMENT>
InChI=1S/C8H20N4/c1-4-10-12(3)8-7-11(2)6-5-9/h4H,5-9H2,1-3H3/b10-4-
InChIKey=JDZRIJLZOWDBAU-WMZJFQQLSA-N

> <PUBCHEM_SUBSTANCE_SYNONYM>
SCHEMBL16123685

> <PUBCHEM_XREF_EXT_ID>
SCHEMBL16123685

> <PUBCHEM_EXT_DATASOURCE_URL>
https://www.surechembl.org/

> <PUBCHEM_EXT_SUBSTANCE_URL>
https://www.surechembl.org/chemical/SCHEMBL16123685

> <PUBCHEM_CID_ASSOCIATIONS>
117611613  1

> <PUBCHEM_COORDINATE_TYPE>
1
3

$$$$
