310937698
  -OEChem-07211613022D

 33 37  0     1  0  0  0  0  0999 V2000
   -1.4087   -1.4124    0.0000 O   0  0  0  0  0  0  0  0  0  0  0  0
   -0.5837    2.8744    0.0000 O   0  0  0  0  0  0  0  0  0  0  0  0
    1.9233   -0.2854    0.0000 N   0  0  0  0  0  0  0  0  0  0  0  0
    1.1387   -0.0305    0.0000 N   0  0  0  0  0  0  0  0  0  0  0  0
    0.6493   -2.2131    0.0000 N   0  0  0  0  0  0  0  0  0  0  0  0
    0.8208   -3.0201    0.0000 N   0  0  0  0  0  0  0  0  0  0  0  0
   -0.5837    0.0165    0.0000 N   0  0  0  0  0  0  0  0  0  0  0  0
   -0.1712   -2.1269    0.0000 C   0  0  0  0  0  0  0  0  0  0  0  0
   -0.1712   -0.6979    0.0000 C   0  0  3  0  0  0  0  0  0  0  0  0
   -0.5837   -1.4124    0.0000 C   0  0  0  0  0  0  0  0  0  0  0  0
    0.6538   -0.6979    0.0000 C   0  0  0  0  0  0  0  0  0  0  0  0
   -0.5068   -2.8806    0.0000 C   0  0  0  0  0  0  0  0  0  0  0  0
    1.9233   -1.1104    0.0000 C   0  0  0  0  0  0  0  0  0  0  0  0
    1.1387   -1.3654    0.0000 C   0  0  0  0  0  0  0  0  0  0  0  0
   -1.3137   -3.0521    0.0000 C   0  0  0  0  0  0  0  0  0  0  0  0
    0.1063   -3.4326    0.0000 C   0  0  0  0  0  0  0  0  0  0  0  0
   -0.1712    0.7310    0.0000 C   0  0  0  0  0  0  0  0  0  0  0  0
    2.6378    0.1271    0.0000 C   0  0  0  0  0  0  0  0  0  0  0  0
    2.6378   -1.5229    0.0000 C   0  0  0  0  0  0  0  0  0  0  0  0
   -1.5687   -3.8367    0.0000 C   0  0  0  0  0  0  0  0  0  0  0  0
   -1.8658   -2.4390    0.0000 C   0  0  0  0  0  0  0  0  0  0  0  0
   -0.5837    1.4455    0.0000 C   0  0  0  0  0  0  0  0  0  0  0  0
    3.3523   -0.2854    0.0000 C   0  0  0  0  0  0  0  0  0  0  0  0
    3.3523   -1.1104    0.0000 C   0  0  0  0  0  0  0  0  0  0  0  0
    0.6538    0.7310    0.0000 C   0  0  0  0  0  0  0  0  0  0  0  0
    1.5745   -3.3556    0.0000 C   0  0  0  0  0  0  0  0  0  0  0  0
   -0.1712    2.1599    0.0000 C   0  0  0  0  0  0  0  0  0  0  0  0
   -2.3756   -4.0082    0.0000 C   0  0  0  0  0  0  0  0  0  0  0  0
   -2.6727   -2.6105    0.0000 C   0  0  0  0  0  0  0  0  0  0  0  0
    1.0663    1.4455    0.0000 C   0  0  0  0  0  0  0  0  0  0  0  0
    0.6538    2.1599    0.0000 C   0  0  0  0  0  0  0  0  0  0  0  0
   -2.9277   -3.3951    0.0000 C   0  0  0  0  0  0  0  0  0  0  0  0
   -0.1712    3.5889    0.0000 C   0  0  0  0  0  0  0  0  0  0  0  0
  1 10  2  0  0  0  0
  2 27  1  0  0  0  0
  2 33  1  0  0  0  0
  3  4  1  0  0  0  0
  3 13  1  0  0  0  0
  3 18  1  0  0  0  0
  4 11  2  0  0  0  0
  5  6  1  0  0  0  0
  5  8  2  0  0  0  0
  6 16  1  0  0  0  0
  6 26  1  0  0  0  0
  7  9  1  0  0  0  0
  7 17  1  0  0  0  0
  8 10  1  0  0  0  0
  8 12  1  0  0  0  0
  9 10  1  0  0  0  0
  9 11  1  0  0  0  0
 11 14  1  0  0  0  0
 12 15  1  0  0  0  0
 12 16  2  0  0  0  0
 13 14  2  0  0  0  0
 13 19  1  0  0  0  0
 15 20  2  0  0  0  0
 15 21  1  0  0  0  0
 17 22  2  0  0  0  0
 17 25  1  0  0  0  0
 18 23  2  0  0  0  0
 19 24  2  0  0  0  0
 20 28  1  0  0  0  0
 21 29  2  0  0  0  0
 22 27  1  0  0  0  0
 23 24  1  0  0  0  0
 25 30  2  0  0  0  0
 27 31  2  0  0  0  0
 28 32  2  0  0  0  0
 29 32  1  0  0  0  0
 30 31  1  0  0  0  0
M  END
> <PUBCHEM_COMPOUND_ID_TYPE>
0

> <PUBCHEM_TOTAL_CHARGE>
0

> <PUBCHEM_SUBSTANCE_ID>
310937698

> <PUBCHEM_SUBSTANCE_VERSION>
1

> <PUBCHEM_EXT_DATASOURCE_NAME>
4488

> <PUBCHEM_EXT_DATASOURCE_REGID>
SCHEMBL16115491

> <PUBCHEM_SUBSTANCE_COMMENT>
InChI=1S/C26H23N5O2/c1-30-17-22(18-9-4-3-5-10-18)24(29-30)26(32)25(27-19-11-8-13-21(15-19)33-2)23-16-20-12-6-7-14-31(20)28-23/h3-17,25,27H,1-2H3
InChIKey=HJJDVQSJNCFQDD-UHFFFAOYSA-N

> <PUBCHEM_SUBSTANCE_SYNONYM>
SCHEMBL16115491

> <PUBCHEM_XREF_EXT_ID>
SCHEMBL16115491

> <PUBCHEM_EXT_DATASOURCE_URL>
https://www.surechembl.org/

> <PUBCHEM_EXT_SUBSTANCE_URL>
https://www.surechembl.org/chemical/SCHEMBL16115491

> <PUBCHEM_CID_ASSOCIATIONS>
86272191  1

> <PUBCHEM_COORDINATE_TYPE>
1
3

$$$$
