310931755
  -OEChem-07211613022D

 23 26  0     1  0  0  0  0  0999 V2000
    3.5343   -1.6022    0.0000 O   0  0  0  0  0  0  0  0  0  0  0  0
    4.6654   -3.5579    0.0000 O   0  0  0  0  0  0  0  0  0  0  0  0
    5.3722   -2.3327    0.0000 O   0  0  0  0  0  0  0  0  0  0  0  0
    0.7776    0.0000    0.0000 O   0  0  0  0  0  0  0  0  0  0  0  0
    3.1338   -2.3327    0.0000 C   0  0  3  0  0  0  0  0  0  0  0  0
    3.9585   -2.3327    0.0000 C   0  0  3  0  0  0  0  0  0  0  0  0
    2.5447   -1.7436    0.0000 C   0  0  0  0  0  0  0  0  0  0  0  0
    2.4033   -2.7332    0.0000 C   0  0  0  0  0  0  0  0  0  0  0  0
    4.6654   -2.7332    0.0000 C   0  0  0  0  0  0  0  0  0  0  0  0
    1.7436   -1.9557    0.0000 C   0  0  0  0  0  0  0  0  0  0  0  0
    2.7568   -0.9425    0.0000 C   0  0  0  0  0  0  0  0  0  0  0  0
    2.4033   -3.5814    0.0000 C   0  0  0  0  0  0  0  0  0  0  0  0
    1.6965   -2.3327    0.0000 C   0  0  0  0  0  0  0  0  0  0  0  0
    5.3722   -3.9820    0.0000 C   0  0  0  0  0  0  0  0  0  0  0  0
    1.1546   -1.3902    0.0000 C   0  0  0  0  0  0  0  0  0  0  0  0
    2.1678   -0.3770    0.0000 C   0  0  0  0  0  0  0  0  0  0  0  0
    1.3666   -0.5890    0.0000 C   0  0  0  0  0  0  0  0  0  0  0  0
    1.6965   -3.9820    0.0000 C   0  0  0  0  0  0  0  0  0  0  0  0
    0.9896   -2.7332    0.0000 C   0  0  0  0  0  0  0  0  0  0  0  0
    6.1969   -3.9820    0.0000 C   0  0  0  0  0  0  0  0  0  0  0  0
    5.8199   -4.7125    0.0000 C   0  0  0  0  0  0  0  0  0  0  0  0
    0.9660   -3.5579    0.0000 C   0  0  0  0  0  0  0  0  0  0  0  0
    0.0000   -0.2121    0.0000 C   0  0  0  0  0  0  0  0  0  0  0  0
  1  5  1  0  0  0  0
  1  6  1  0  0  0  0
  2  9  1  0  0  0  0
  2 14  1  0  0  0  0
  3  9  2  0  0  0  0
  4 17  1  0  0  0  0
  4 23  1  0  0  0  0
  5  6  1  0  0  0  0
  5  7  1  0  0  0  0
  5  8  1  0  0  0  0
  6  9  1  0  0  0  0
  7 10  2  0  0  0  0
  7 11  1  0  0  0  0
  8 12  2  0  0  0  0
  8 13  1  0  0  0  0
 10 15  1  0  0  0  0
 11 16  2  0  0  0  0
 12 18  1  0  0  0  0
 13 19  2  0  0  0  0
 14 20  1  0  0  0  0
 14 21  1  0  0  0  0
 15 17  2  0  0  0  0
 16 17  1  0  0  0  0
 18 22  2  0  0  0  0
 19 22  1  0  0  0  0
 20 21  1  0  0  0  0
M  END
> <PUBCHEM_COMPOUND_ID_TYPE>
0

> <PUBCHEM_TOTAL_CHARGE>
0

> <PUBCHEM_SUBSTANCE_ID>
310931755

> <PUBCHEM_SUBSTANCE_VERSION>
1

> <PUBCHEM_EXT_DATASOURCE_NAME>
4488

> <PUBCHEM_EXT_DATASOURCE_REGID>
SCHEMBL16109084

> <PUBCHEM_SUBSTANCE_COMMENT>
InChI=1S/C19H18O4/c1-21-15-9-7-14(8-10-15)19(13-5-3-2-4-6-13)17(23-19)18(20)22-16-11-12-16/h2-10,16-17H,11-12H2,1H3
InChIKey=LZGQEYYRBGTRIQ-UHFFFAOYSA-N

> <PUBCHEM_SUBSTANCE_SYNONYM>
SCHEMBL16109084

> <PUBCHEM_XREF_EXT_ID>
SCHEMBL16109084

> <PUBCHEM_EXT_DATASOURCE_URL>
https://www.surechembl.org/

> <PUBCHEM_EXT_SUBSTANCE_URL>
https://www.surechembl.org/chemical/SCHEMBL16109084

> <PUBCHEM_CID_ASSOCIATIONS>
117600444  1

> <PUBCHEM_COORDINATE_TYPE>
1
3

$$$$
