310932870
  -OEChem-07211613022D

 20 22  0     1  0  0  0  0  0999 V2000
    2.7547   -1.6131    0.0000 O   0  0  0  0  0  0  0  0  0  0  0  0
    3.8962   -3.5736    0.0000 O   0  0  0  0  0  0  0  0  0  0  0  0
    4.5911   -2.3328    0.0000 O   0  0  0  0  0  0  0  0  0  0  0  0
    2.3576   -2.3328    0.0000 C   0  0  3  0  0  0  0  0  0  0  0  0
    3.1766   -2.3328    0.0000 C   0  0  3  0  0  0  0  0  0  0  0  0
    1.7620   -1.7372    0.0000 C   0  0  0  0  0  0  0  0  0  0  0  0
    3.8962   -2.7547    0.0000 C   0  0  0  0  0  0  0  0  0  0  0  0
    1.6379   -2.7547    0.0000 C   0  0  0  0  0  0  0  0  0  0  0  0
    0.9679   -1.9606    0.0000 C   0  0  0  0  0  0  0  0  0  0  0  0
    1.9854   -0.9430    0.0000 C   0  0  0  0  0  0  0  0  0  0  0  0
    4.5911   -3.9707    0.0000 C   0  0  0  0  0  0  0  0  0  0  0  0
    0.3722   -1.3898    0.0000 C   0  0  0  0  0  0  0  0  0  0  0  0
    1.3898   -0.3722    0.0000 C   0  0  0  0  0  0  0  0  0  0  0  0
    1.6379   -3.5736    0.0000 C   0  0  0  0  0  0  0  0  0  0  0  0
    0.5956   -0.5956    0.0000 C   0  0  0  0  0  0  0  0  0  0  0  0
    5.3604   -3.6481    0.0000 C   0  0  0  0  0  0  0  0  0  0  0  0
    4.6904   -4.7896    0.0000 C   0  0  0  0  0  0  0  0  0  0  0  0
    5.9064   -4.2437    0.0000 C   0  0  0  0  0  0  0  0  0  0  0  0
    5.4845   -4.9634    0.0000 C   0  0  0  0  0  0  0  0  0  0  0  0
    0.0000    0.0000    0.0000 C   0  0  0  0  0  0  0  0  0  0  0  0
  1  4  1  0  0  0  0
  1  5  1  0  0  0  0
  2  7  1  0  0  0  0
  2 11  1  0  0  0  0
  3  7  2  0  0  0  0
  4  5  1  0  0  0  0
  4  6  1  0  0  0  0
  4  8  1  0  0  0  0
  5  7  1  0  0  0  0
  6  9  2  0  0  0  0
  6 10  1  0  0  0  0
  8 14  1  0  0  0  0
  9 12  1  0  0  0  0
 10 13  2  0  0  0  0
 11 16  1  0  0  0  0
 11 17  1  0  0  0  0
 12 15  2  0  0  0  0
 13 15  1  0  0  0  0
 15 20  1  0  0  0  0
 16 18  1  0  0  0  0
 17 19  1  0  0  0  0
 18 19  1  0  0  0  0
M  END
> <PUBCHEM_COMPOUND_ID_TYPE>
0

> <PUBCHEM_TOTAL_CHARGE>
0

> <PUBCHEM_SUBSTANCE_ID>
310932870

> <PUBCHEM_SUBSTANCE_VERSION>
1

> <PUBCHEM_EXT_DATASOURCE_NAME>
4488

> <PUBCHEM_EXT_DATASOURCE_REGID>
SCHEMBL16110262

> <PUBCHEM_SUBSTANCE_COMMENT>
InChI=1S/C17H22O3/c1-3-17(13-10-8-12(2)9-11-13)15(20-17)16(18)19-14-6-4-5-7-14/h8-11,14-15H,3-7H2,1-2H3
InChIKey=XOASUCHOELTADP-UHFFFAOYSA-N

> <PUBCHEM_SUBSTANCE_SYNONYM>
SCHEMBL16110262

> <PUBCHEM_XREF_EXT_ID>
SCHEMBL16110262

> <PUBCHEM_EXT_DATASOURCE_URL>
https://www.surechembl.org/

> <PUBCHEM_EXT_SUBSTANCE_URL>
https://www.surechembl.org/chemical/SCHEMBL16110262

> <PUBCHEM_CID_ASSOCIATIONS>
117601354  1

> <PUBCHEM_COORDINATE_TYPE>
1
3

$$$$
