310933572
  -OEChem-07211613022D

 32 35  0     1  0  0  0  0  0999 V2000
    2.2670   -1.4811    0.0000 O   0  0  0  0  0  0  0  0  0  0  0  0
    3.9295   -2.8716    0.0000 O   0  0  0  0  0  0  0  0  0  0  0  0
    0.0000   -4.9572    0.0000 O   0  0  0  0  0  0  0  0  0  0  0  0
    5.5315   -3.8388    0.0000 O   0  0  0  0  0  0  0  0  0  0  0  0
    6.4081    0.0000    0.0000 O   0  0  0  0  0  0  0  0  0  0  0  0
    4.2015   -3.1738    0.0000 N   0  0  0  0  0  0  0  0  0  0  0  0
    4.2015   -4.5038    0.0000 N   0  0  0  0  0  0  0  0  0  0  0  0
    1.4811   -2.9018    0.0000 N   0  0  0  0  0  0  0  0  0  0  0  0
    0.3930   -5.6826    0.0000 N   0  0  0  0  0  0  0  0  0  0  0  0
    2.6902   -2.1763    0.0000 C   0  0  3  0  0  0  0  0  0  0  0  0
    2.6902   -2.9925    0.0000 C   0  0  0  0  0  0  0  0  0  0  0  0
    3.4156   -3.4156    0.0000 C   0  0  0  0  0  0  0  0  0  0  0  0
    3.4156   -4.2620    0.0000 C   0  0  0  0  0  0  0  0  0  0  0  0
    1.9950   -4.2620    0.0000 C   0  0  0  0  0  0  0  0  0  0  0  0
    1.8741   -2.1763    0.0000 C   0  0  0  0  0  0  0  0  0  0  0  0
    1.9950   -3.4156    0.0000 C   0  0  0  0  0  0  0  0  0  0  0  0
    3.5063   -2.1763    0.0000 C   0  0  0  0  0  0  0  0  0  0  0  0
    2.6902   -4.6549    0.0000 C   0  0  0  0  0  0  0  0  0  0  0  0
    1.2997   -4.6852    0.0000 C   0  0  0  0  0  0  0  0  0  0  0  0
    4.7154   -3.8388    0.0000 C   0  0  0  0  0  0  0  0  0  0  0  0
    0.5441   -4.3527    0.0000 C   0  0  0  0  0  0  0  0  0  0  0  0
    1.2090   -5.5012    0.0000 C   0  0  0  0  0  0  0  0  0  0  0  0
    1.4509   -1.4509    0.0000 C   0  0  0  0  0  0  0  0  0  0  0  0
    3.9295   -1.4509    0.0000 C   0  0  0  0  0  0  0  0  0  0  0  0
    0.6348   -2.9320    0.0000 C   0  0  0  0  0  0  0  0  0  0  0  0
    0.6046   -1.5113    0.0000 C   0  0  0  0  0  0  0  0  0  0  0  0
    0.3627   -3.5365    0.0000 C   0  0  0  0  0  0  0  0  0  0  0  0
    1.8136   -6.0453    0.0000 C   0  0  0  0  0  0  0  0  0  0  0  0
    0.2418   -2.2066    0.0000 C   0  0  0  0  0  0  0  0  0  0  0  0
    4.7456   -1.4509    0.0000 C   0  0  0  0  0  0  0  0  0  0  0  0
    5.1688   -0.7255    0.0000 C   0  0  0  0  0  0  0  0  0  0  0  0
    5.9849   -0.7255    0.0000 C   0  0  0  0  0  0  0  0  0  0  0  0
  1 10  1  0  0  0  0
  2 17  2  0  0  0  0
  3  9  1  0  0  0  0
  3 21  1  0  0  0  0
  4 20  2  0  0  0  0
  5 32  1  0  0  0  0
  6 12  1  0  0  0  0
  6 20  1  0  0  0  0
  7 13  1  0  0  0  0
  7 20  1  0  0  0  0
  8 15  1  0  0  0  0
  8 25  2  0  0  0  0
  9 22  2  0  0  0  0
 10 11  1  0  0  0  0
 10 15  1  0  0  0  0
 10 17  1  0  0  0  0
 11 12  1  0  0  0  0
 11 16  2  0  0  0  0
 12 13  2  0  0  0  0
 13 18  1  0  0  0  0
 14 16  1  0  0  0  0
 14 18  2  0  0  0  0
 14 19  1  0  0  0  0
 15 23  2  0  0  0  0
 17 24  1  0  0  0  0
 19 21  2  0  0  0  0
 19 22  1  0  0  0  0
 21 27  1  0  0  0  0
 22 28  1  0  0  0  0
 23 26  1  0  0  0  0
 24 30  1  0  0  0  0
 25 29  1  0  0  0  0
 26 29  2  0  0  0  0
 30 31  1  0  0  0  0
 31 32  1  0  0  0  0
M  END
> <PUBCHEM_COMPOUND_ID_TYPE>
0

> <PUBCHEM_TOTAL_CHARGE>
0

> <PUBCHEM_SUBSTANCE_ID>
310933572

> <PUBCHEM_SUBSTANCE_VERSION>
1

> <PUBCHEM_EXT_DATASOURCE_NAME>
4488

> <PUBCHEM_EXT_DATASOURCE_REGID>
SCHEMBL16110999

> <PUBCHEM_SUBSTANCE_COMMENT>
InChI=1S/C23H24N4O5/c1-13-20(14(2)32-27-13)15-11-16(21-17(12-15)25-22(30)26-21)23(31,18-7-3-5-9-24-18)19(29)8-4-6-10-28/h3,5,7,9,11-12,28,31H,4,6,8,10H2,1-2H3,(H2,25,26,30)
InChIKey=JPFRDRCOLWUCDF-UHFFFAOYSA-N

> <PUBCHEM_SUBSTANCE_SYNONYM>
SCHEMBL16110999

> <PUBCHEM_XREF_EXT_ID>
SCHEMBL16110999

> <PUBCHEM_EXT_DATASOURCE_URL>
https://www.surechembl.org/

> <PUBCHEM_EXT_SUBSTANCE_URL>
https://www.surechembl.org/chemical/SCHEMBL16110999

> <PUBCHEM_CID_ASSOCIATIONS>
117601955  1

> <PUBCHEM_COORDINATE_TYPE>
1
3

$$$$
