310941914
  -OEChem-07211613022D

 22 23  0     1  0  0  0  0  0999 V2000
    3.1009   -1.4156    0.0000 O   0  0  0  0  0  0  0  0  0  0  0  0
   -2.6964    2.8986    0.0000 O   0  0  0  0  0  0  0  0  0  0  0  0
   -0.6291   -0.6965    0.0000 N   0  0  3  0  0  0  0  0  0  0  0  0
   -1.8874    1.4605    0.0000 N   0  0  0  0  0  0  0  0  0  0  0  0
    3.1009    0.0224    0.0000 N   0  0  0  0  0  0  0  0  0  0  0  0
    2.2470   -1.3706    0.0000 C   0  0  0  0  0  0  0  0  0  0  0  0
    1.8425   -0.6965    0.0000 C   0  0  0  0  0  0  0  0  0  0  0  0
    0.6291   -1.4156    0.0000 C   0  0  0  0  0  0  0  0  0  0  0  0
    1.8874   -2.1346    0.0000 C   0  0  0  0  0  0  0  0  0  0  0  0
    1.0336   -0.7415    0.0000 C   0  0  0  0  0  0  0  0  0  0  0  0
    1.0336   -2.1346    0.0000 C   0  0  0  0  0  0  0  0  0  0  0  0
   -0.2247   -1.3706    0.0000 C   0  0  0  0  0  0  0  0  0  0  0  0
    2.2919    0.0224    0.0000 C   0  0  0  0  0  0  0  0  0  0  0  0
    2.2919   -2.8986    0.0000 C   0  0  0  0  0  0  0  0  0  0  0  0
   -1.4830   -0.6965    0.0000 C   0  0  0  0  0  0  0  0  0  0  0  0
   -1.4381    0.7415    0.0000 C   0  0  0  0  0  0  0  0  0  0  0  0
   -1.8425   -0.0224    0.0000 C   0  0  0  0  0  0  0  0  0  0  0  0
   -2.6964    1.5055    0.0000 C   0  0  0  0  0  0  0  0  0  0  0  0
   -1.4381    2.1796    0.0000 C   0  0  0  0  0  0  0  0  0  0  0  0
   -3.1009    2.1796    0.0000 C   0  0  0  0  0  0  0  0  0  0  0  0
   -1.8425    2.8986    0.0000 C   0  0  0  0  0  0  0  0  0  0  0  0
   -0.1797   -0.0224    0.0000 C   0  0  0  0  0  0  0  0  0  0  0  0
  1  6  1  0  0  0  0
  2 20  1  0  0  0  0
  2 21  1  0  0  0  0
  3 12  1  0  0  0  0
  3 15  1  0  0  0  0
  3 22  1  0  0  0  0
  4 16  1  0  0  0  0
  4 18  1  0  0  0  0
  4 19  1  0  0  0  0
  5 13  2  3  0  0  0
  6  7  1  0  0  0  0
  6  9  2  0  0  0  0
  7 10  2  0  0  0  0
  7 13  1  0  0  0  0
  8 10  1  0  0  0  0
  8 11  2  0  0  0  0
  8 12  1  0  0  0  0
  9 11  1  0  0  0  0
  9 14  1  0  0  0  0
 15 17  1  0  0  0  0
 16 17  1  0  0  0  0
 18 20  1  0  0  0  0
 19 21  1  0  0  0  0
M  END
> <PUBCHEM_COMPOUND_ID_TYPE>
0

> <PUBCHEM_TOTAL_CHARGE>
0

> <PUBCHEM_SUBSTANCE_ID>
310941914

> <PUBCHEM_SUBSTANCE_VERSION>
1

> <PUBCHEM_EXT_DATASOURCE_NAME>
4488

> <PUBCHEM_EXT_DATASOURCE_REGID>
SCHEMBL16119946

> <PUBCHEM_SUBSTANCE_COMMENT>
InChI=1S/C17H27N3O2/c1-14-10-15(11-16(12-18)17(14)21)13-19(2)4-3-5-20-6-8-22-9-7-20/h10-12,18,21H,3-9,13H2,1-2H3
InChIKey=CRVCBKJERHLZEX-UHFFFAOYSA-N

> <PUBCHEM_SUBSTANCE_SYNONYM>
SCHEMBL16119946

> <PUBCHEM_XREF_EXT_ID>
SCHEMBL16119946

> <PUBCHEM_EXT_DATASOURCE_URL>
https://www.surechembl.org/

> <PUBCHEM_EXT_SUBSTANCE_URL>
https://www.surechembl.org/chemical/SCHEMBL16119946

> <PUBCHEM_CID_ASSOCIATIONS>
117608646  1

> <PUBCHEM_COORDINATE_TYPE>
1
3

$$$$
