310936377
  -OEChem-07211613022D

 38 43  0     1  0  0  0  0  0999 V2000
    3.5372   -5.7539    0.0000 O   0  0  0  0  0  0  0  0  0  0  0  0
    5.7067   -3.7259    0.0000 O   0  0  0  0  0  0  0  0  0  0  0  0
    0.7075   -3.3014    0.0000 N   0  0  3  0  0  0  0  0  0  0  0  0
    0.0000   -2.0752    0.0000 N   0  0  0  0  0  0  0  0  0  0  0  0
    0.7075   -0.8018    0.0000 N   0  0  0  0  0  0  0  0  0  0  0  0
    2.8298   -6.9802    0.0000 N   0  0  0  0  0  0  0  0  0  0  0  0
    4.9993   -2.4996    0.0000 N   0  0  0  0  0  0  0  0  0  0  0  0
    2.8298   -9.4326    0.0000 N   0  0  0  0  0  0  0  0  0  0  0  0
    1.4149   -2.0752    0.0000 C   0  0  0  0  0  0  0  0  0  0  0  0
    0.7075   -2.4525    0.0000 C   0  0  0  0  0  0  0  0  0  0  0  0
    1.4620   -1.2263    0.0000 C   0  0  0  0  0  0  0  0  0  0  0  0
    2.8298   -2.0752    0.0000 C   0  0  0  0  0  0  0  0  0  0  0  0
    2.1224   -0.8489    0.0000 C   0  0  0  0  0  0  0  0  0  0  0  0
    2.1224   -2.4525    0.0000 C   0  0  0  0  0  0  0  0  0  0  0  0
    1.4149   -4.5277    0.0000 C   0  0  0  0  0  0  0  0  0  0  0  0
    1.4149   -3.6788    0.0000 C   0  0  0  0  0  0  0  0  0  0  0  0
    0.7075   -4.9521    0.0000 C   0  0  0  0  0  0  0  0  0  0  0  0
    2.8298   -1.2263    0.0000 C   0  0  0  0  0  0  0  0  0  0  0  0
    0.0000   -3.6788    0.0000 C   0  0  0  0  0  0  0  0  0  0  0  0
    3.5372   -2.4525    0.0000 C   0  0  0  0  0  0  0  0  0  0  0  0
    2.1224   -5.7539    0.0000 C   0  0  0  0  0  0  0  0  0  0  0  0
    2.1224   -4.9050    0.0000 C   0  0  0  0  0  0  0  0  0  0  0  0
    0.0000   -4.5277    0.0000 C   0  0  0  0  0  0  0  0  0  0  0  0
    0.0000   -1.2263    0.0000 C   0  0  0  0  0  0  0  0  0  0  0  0
    0.7075   -5.7539    0.0000 C   0  0  0  0  0  0  0  0  0  0  0  0
    2.8298   -6.1312    0.0000 C   0  0  0  0  0  0  0  0  0  0  0  0
    1.4149   -6.1312    0.0000 C   0  0  0  0  0  0  0  0  0  0  0  0
    4.2919   -2.0752    0.0000 C   0  0  0  0  0  0  0  0  0  0  0  0
    3.5844   -3.3014    0.0000 C   0  0  0  0  0  0  0  0  0  0  0  0
    2.1224    0.0000    0.0000 C   0  0  0  0  0  0  0  0  0  0  0  0
    4.9993   -3.3014    0.0000 C   0  0  0  0  0  0  0  0  0  0  0  0
    4.2447   -3.7259    0.0000 C   0  0  0  0  0  0  0  0  0  0  0  0
    3.5372   -7.3574    0.0000 C   0  0  0  0  0  0  0  0  0  0  0  0
    2.1224   -7.3574    0.0000 C   0  0  0  0  0  0  0  0  0  0  0  0
    3.5372   -8.2064    0.0000 C   0  0  0  0  0  0  0  0  0  0  0  0
    2.1224   -8.2064    0.0000 C   0  0  0  0  0  0  0  0  0  0  0  0
    2.8298   -8.6309    0.0000 C   0  0  0  0  0  0  0  0  0  0  0  0
    6.4142   -3.3014    0.0000 C   0  0  0  0  0  0  0  0  0  0  0  0
  1 26  2  0  0  0  0
  2 31  1  0  0  0  0
  2 38  1  0  0  0  0
  3 10  1  0  0  0  0
  3 16  1  0  0  0  0
  3 19  1  0  0  0  0
  4 10  1  0  0  0  0
  4 24  2  0  0  0  0
  5 11  2  0  0  0  0
  5 24  1  0  0  0  0
  6 26  1  0  0  0  0
  6 33  1  0  0  0  0
  6 34  1  0  0  0  0
  7 28  1  0  0  0  0
  7 31  2  0  0  0  0
  8 37  1  0  0  0  0
  9 10  2  0  0  0  0
  9 11  1  0  0  0  0
  9 14  1  0  0  0  0
 11 13  1  0  0  0  0
 12 14  2  0  0  0  0
 12 18  1  0  0  0  0
 12 20  1  0  0  0  0
 13 18  2  0  0  0  0
 13 30  1  0  0  0  0
 15 16  1  0  0  0  0
 15 17  2  0  0  0  0
 15 22  1  0  0  0  0
 17 23  1  0  0  0  0
 17 25  1  0  0  0  0
 19 23  1  0  0  0  0
 20 28  2  0  0  0  0
 20 29  1  0  0  0  0
 21 22  2  0  0  0  0
 21 26  1  0  0  0  0
 21 27  1  0  0  0  0
 25 27  2  0  0  0  0
 29 32  2  0  0  0  0
 31 32  1  0  0  0  0
 33 35  1  0  0  0  0
 34 36  1  0  0  0  0
 35 37  1  0  0  0  0
 36 37  1  0  0  0  0
M  END
> <PUBCHEM_COMPOUND_ID_TYPE>
0

> <PUBCHEM_TOTAL_CHARGE>
0

> <PUBCHEM_SUBSTANCE_ID>
310936377

> <PUBCHEM_SUBSTANCE_VERSION>
1

> <PUBCHEM_EXT_DATASOURCE_NAME>
4488

> <PUBCHEM_EXT_DATASOURCE_REGID>
SCHEMBL16114014

> <PUBCHEM_SUBSTANCE_COMMENT>
InChI=1S/C30H32N6O2/c1-19-13-23(22-5-6-27(38-2)32-16-22)15-26-28(19)33-18-34-29(26)36-10-7-20-3-4-21(14-24(20)17-36)30(37)35-11-8-25(31)9-12-35/h3-6,13-16,18,25H,7-12,17,31H2,1-2H3
InChIKey=BBYGJZAQJJEQHT-UHFFFAOYSA-N

> <PUBCHEM_SUBSTANCE_SYNONYM>
SCHEMBL16114014

> <PUBCHEM_XREF_EXT_ID>
SCHEMBL16114014

> <PUBCHEM_EXT_DATASOURCE_URL>
https://www.surechembl.org/

> <PUBCHEM_EXT_SUBSTANCE_URL>
https://www.surechembl.org/chemical/SCHEMBL16114014

> <PUBCHEM_CID_ASSOCIATIONS>
86301849  1

> <PUBCHEM_COORDINATE_TYPE>
1
3

$$$$
