310929896
  -OEChem-07211613022D

 15 14  0     1  0  0  0  0  0999 V2000
   -1.2671   -2.8579    0.0000 O   0  0  0  0  0  0  0  0  0  0  0  0
   -2.6961   -2.8579    0.0000 O   0  0  0  0  0  0  0  0  0  0  0  0
    0.8763   -2.4454    0.0000 O   0  0  0  0  0  0  0  0  0  0  0  0
    0.1618   -3.6829    0.0000 O   0  0  0  0  0  0  0  0  0  0  0  0
   -0.5526   -2.4454    0.0000 C   0  0  0  0  0  0  0  0  0  0  0  0
    0.1618   -2.8579    0.0000 C   0  0  0  0  0  0  0  0  0  0  0  0
   -1.9816   -2.4454    0.0000 C   0  0  3  0  0  0  0  0  0  0  0  0
   -3.4105   -2.4454    0.0000 C   0  0  3  0  0  0  0  0  0  0  0  0
   -0.5526   -1.6204    0.0000 C   0  0  0  0  0  0  0  0  0  0  0  0
   -1.9816   -1.6204    0.0000 C   0  0  0  0  0  0  0  0  0  0  0  0
   -4.1250   -2.8579    0.0000 C   0  0  0  0  0  0  0  0  0  0  0  0
    1.5908   -2.8579    0.0000 C   0  0  0  0  0  0  0  0  0  0  0  0
   -3.4105   -1.6204    0.0000 C   0  0  0  0  0  0  0  0  0  0  0  0
   -4.8395   -2.4454    0.0000 C   0  0  0  0  0  0  0  0  0  0  0  0
    2.3052   -2.4454    0.0000 C   0  0  0  0  0  0  0  0  0  0  0  0
  1  5  1  0  0  0  0
  1  7  1  0  0  0  0
  2  7  1  0  0  0  0
  2  8  1  0  0  0  0
  3  6  1  0  0  0  0
  3 12  1  0  0  0  0
  4  6  2  0  0  0  0
  5  6  1  0  0  0  0
  5  9  2  0  0  0  0
  7 10  1  0  0  0  0
  8 11  1  0  0  0  0
  8 13  1  0  0  0  0
 11 14  2  0  0  0  0
 12 15  1  0  0  0  0
M  END
> <PUBCHEM_COMPOUND_ID_TYPE>
0

> <PUBCHEM_TOTAL_CHARGE>
0

> <PUBCHEM_SUBSTANCE_ID>
310929896

> <PUBCHEM_SUBSTANCE_VERSION>
1

> <PUBCHEM_EXT_DATASOURCE_NAME>
4488

> <PUBCHEM_EXT_DATASOURCE_REGID>
SCHEMBL16107113

> <PUBCHEM_SUBSTANCE_COMMENT>
InChI=1S/C11H18O4/c1-6-8(3)14-10(5)15-9(4)11(12)13-7-2/h6,8,10H,1,4,7H2,2-3,5H3
InChIKey=VBCNLCLLFWMSFF-UHFFFAOYSA-N

> <PUBCHEM_SUBSTANCE_SYNONYM>
SCHEMBL16107113

> <PUBCHEM_XREF_EXT_ID>
SCHEMBL16107113

> <PUBCHEM_EXT_DATASOURCE_URL>
https://www.surechembl.org/

> <PUBCHEM_EXT_SUBSTANCE_URL>
https://www.surechembl.org/chemical/SCHEMBL16107113

> <PUBCHEM_CID_ASSOCIATIONS>
117599158  1

> <PUBCHEM_COORDINATE_TYPE>
1
3

$$$$
