310935863
  -OEChem-07211613022D

 26 28  0     1  0  0  0  0  0999 V2000
    0.6947   -8.6407    0.0000 Cl  0  0  0  0  0  0  0  0  0  0  0  0
    3.6039   -6.2092    0.0000 O   0  0  0  0  0  0  0  0  0  0  0  0
    0.0000    0.0000    0.0000 O   0  0  0  0  0  0  0  0  0  0  0  0
    2.9092   -4.9499    0.0000 N   0  0  0  0  0  0  0  0  0  0  0  0
    1.4329   -2.4750    0.0000 N   0  0  0  0  0  0  0  0  0  0  0  0
    2.1710   -6.2092    0.0000 C   0  0  0  0  0  0  0  0  0  0  0  0
    2.1710   -7.0342    0.0000 C   0  0  0  0  0  0  0  0  0  0  0  0
    2.9092   -5.8184    0.0000 C   0  0  0  0  0  0  0  0  0  0  0  0
    1.4763   -4.9499    0.0000 C   0  0  0  0  0  0  0  0  0  0  0  0
    1.4763   -5.7749    0.0000 C   0  0  0  0  0  0  0  0  0  0  0  0
    2.2145   -4.5592    0.0000 C   0  0  0  0  0  0  0  0  0  0  0  0
    0.7382   -4.5592    0.0000 C   0  0  0  0  0  0  0  0  0  0  0  0
    0.7382   -3.7342    0.0000 C   0  0  0  0  0  0  0  0  0  0  0  0
    1.4329   -7.4249    0.0000 C   0  0  0  0  0  0  0  0  0  0  0  0
    2.8658   -7.4683    0.0000 C   0  0  0  0  0  0  0  0  0  0  0  0
    1.4329   -8.2499    0.0000 C   0  0  0  0  0  0  0  0  0  0  0  0
    0.7382   -2.0842    0.0000 C   0  0  0  0  0  0  0  0  0  0  0  0
    1.4763   -3.2999    0.0000 C   0  0  0  0  0  0  0  0  0  0  0  0
    0.0434   -3.2999    0.0000 C   0  0  0  0  0  0  0  0  0  0  0  0
    2.8658   -8.2933    0.0000 C   0  0  0  0  0  0  0  0  0  0  0  0
    0.0000   -2.4750    0.0000 C   0  0  0  0  0  0  0  0  0  0  0  0
    2.1710   -8.6841    0.0000 C   0  0  0  0  0  0  0  0  0  0  0  0
    0.7382   -1.2592    0.0000 C   0  0  3  0  0  0  0  0  0  0  0  0
    4.3421   -5.8184    0.0000 C   0  0  0  0  0  0  0  0  0  0  0  0
    0.0000   -0.8250    0.0000 C   0  0  0  0  0  0  0  0  0  0  0  0
    1.4329   -0.8250    0.0000 C   0  0  0  0  0  0  0  0  0  0  0  0
  1 16  1  0  0  0  0
  2  8  1  0  0  0  0
  2 24  1  0  0  0  0
  3 25  1  0  0  0  0
  4  8  2  0  0  0  0
  4 11  1  0  0  0  0
  5 17  1  0  0  0  0
  5 18  2  0  0  0  0
  6  7  1  0  0  0  0
  6  8  1  0  0  0  0
  6 10  2  0  0  0  0
  7 14  1  0  0  0  0
  7 15  2  0  0  0  0
  9 10  1  0  0  0  0
  9 11  2  0  0  0  0
  9 12  1  0  0  0  0
 12 13  1  0  0  0  0
 13 18  1  0  0  0  0
 13 19  2  0  0  0  0
 14 16  2  0  0  0  0
 15 20  1  0  0  0  0
 16 22  1  0  0  0  0
 17 21  2  0  0  0  0
 17 23  1  0  0  0  0
 19 21  1  0  0  0  0
 20 22  2  0  0  0  0
 23 25  1  0  0  0  0
 23 26  1  0  0  0  0
M  END
> <PUBCHEM_COMPOUND_ID_TYPE>
0

> <PUBCHEM_TOTAL_CHARGE>
0

> <PUBCHEM_SUBSTANCE_ID>
310935863

> <PUBCHEM_SUBSTANCE_VERSION>
1

> <PUBCHEM_EXT_DATASOURCE_NAME>
4488

> <PUBCHEM_EXT_DATASOURCE_REGID>
SCHEMBL16113456

> <PUBCHEM_SUBSTANCE_COMMENT>
InChI=1S/C21H21ClN2O2/c1-14(13-25)20-7-6-15(11-23-20)8-16-9-19(21(26-2)24-12-16)17-4-3-5-18(22)10-17/h3-7,9-12,14,25H,8,13H2,1-2H3
InChIKey=XEAYKCPTUKHXSQ-UHFFFAOYSA-N

> <PUBCHEM_SUBSTANCE_SYNONYM>
SCHEMBL16113456

> <PUBCHEM_XREF_EXT_ID>
SCHEMBL16113456

> <PUBCHEM_EXT_DATASOURCE_URL>
https://www.surechembl.org/

> <PUBCHEM_EXT_SUBSTANCE_URL>
https://www.surechembl.org/chemical/SCHEMBL16113456

> <PUBCHEM_CID_ASSOCIATIONS>
117603852  1

> <PUBCHEM_COORDINATE_TYPE>
1
3

$$$$
