310930097
  -OEChem-07211613022D

 28 28  0     1  0  0  0  0  0999 V2000
    2.8286    4.0670    0.0000 S   0  0  0  0  0  0  0  0  0  0  0  0
    5.6865   -1.7080    0.0000 O   0  5  0  0  0  0  0  0  0  0  0  0
    6.4009   -0.4705    0.0000 O   0  0  0  0  0  0  0  0  0  0  0  0
    2.8286    3.2420    0.0000 O   0  0  0  0  0  0  0  0  0  0  0  0
    2.8286    4.8920    0.0000 O   0  5  0  0  0  0  0  0  0  0  0  0
    2.0036    4.0670    0.0000 O   0  0  0  0  0  0  0  0  0  0  0  0
    3.6536    4.0670    0.0000 O   0  0  0  0  0  0  0  0  0  0  0  0
    4.2575    1.5920    0.0000 N   0  0  3  0  0  0  0  0  0  0  0  0
    5.6865   -0.8830    0.0000 N   0  3  0  0  0  0  0  0  0  0  0  0
    4.2575   -1.7080    0.0000 N   0  0  0  0  0  0  0  0  0  0  0  0
    4.9720   -2.1205    0.0000 N   0  0  0  0  0  0  0  0  0  0  0  0
    5.6394   -3.4304    0.0000 N   0  0  0  0  0  0  0  0  0  0  0  0
    5.3845   -4.2151    0.0000 N   0  0  0  0  0  0  0  0  0  0  0  0
    4.3045   -3.4304    0.0000 N   0  0  0  0  0  0  0  0  0  0  0  0
    4.9720   -0.4705    0.0000 C   0  0  0  0  0  0  0  0  0  0  0  0
    4.2575   -0.8830    0.0000 C   0  0  0  0  0  0  0  0  0  0  0  0
    4.2575    0.7670    0.0000 C   0  0  0  0  0  0  0  0  0  0  0  0
    4.9720    0.3545    0.0000 C   0  0  0  0  0  0  0  0  0  0  0  0
    3.5430   -0.4705    0.0000 C   0  0  0  0  0  0  0  0  0  0  0  0
    3.5430    0.3545    0.0000 C   0  0  0  0  0  0  0  0  0  0  0  0
    4.9720   -2.9455    0.0000 C   0  0  0  0  0  0  0  0  0  0  0  0
    3.5430    2.0045    0.0000 C   0  0  0  0  0  0  0  0  0  0  0  0
    4.9720    2.0045    0.0000 C   0  0  0  0  0  0  0  0  0  0  0  0
    4.5595   -4.2151    0.0000 C   0  0  0  0  0  0  0  0  0  0  0  0
    3.5430    2.8295    0.0000 C   0  0  0  0  0  0  0  0  0  0  0  0
    5.6865    1.5920    0.0000 C   0  0  0  0  0  0  0  0  0  0  0  0
    5.8694   -4.8825    0.0000 C   0  0  0  0  0  0  0  0  0  0  0  0
    0.0000    0.0000    0.0000 H   0  3  0  0  0  0  0  0  0  0  0  0
  1  4  1  0  0  0  0
  1  5  1  0  0  0  0
  1  6  2  0  0  0  0
  1  7  2  0  0  0  0
  2  9  1  0  0  0  0
  3  9  2  0  0  0  0
  4 25  1  0  0  0  0
  8 17  1  0  0  0  0
  8 22  1  0  0  0  0
  8 23  1  0  0  0  0
  9 15  1  0  0  0  0
 10 11  2  0  0  0  0
 10 16  1  0  0  0  0
 11 21  1  0  0  0  0
 12 13  1  0  0  0  0
 12 21  2  0  0  0  0
 13 24  1  0  0  0  0
 13 27  1  0  0  0  0
 14 21  1  0  0  0  0
 14 24  2  0  0  0  0
 15 16  2  0  0  0  0
 15 18  1  0  0  0  0
 16 19  1  0  0  0  0
 17 18  2  0  0  0  0
 17 20  1  0  0  0  0
 19 20  2  0  0  0  0
 22 25  1  0  0  0  0
 23 26  1  0  0  0  0
M  CHG  4   2  -1   5  -1   9   1  28   1
M  END
> <PUBCHEM_COMPOUND_ID_TYPE>
0

> <PUBCHEM_TOTAL_CHARGE>
0

> <PUBCHEM_SUBSTANCE_ID>
310930097

> <PUBCHEM_SUBSTANCE_VERSION>
1

> <PUBCHEM_EXT_DATASOURCE_NAME>
4488

> <PUBCHEM_EXT_DATASOURCE_REGID>
SCHEMBL16107343

> <PUBCHEM_SUBSTANCE_COMMENT>
InChI=1S/C13H17N7O6S/c1-3-19(6-7-26-27(23,24)25)10-4-5-11(12(8-10)20(21)22)15-16-13-14-9-18(2)17-13/h4-5,8-9H,3,6-7H2,1-2H3,(H,23,24,25)/b16-15+
InChIKey=XJQKAYQAFBXODE-FOCLMDBBSA-N

> <PUBCHEM_SUBSTANCE_SYNONYM>
SCHEMBL16107343

> <PUBCHEM_XREF_EXT_ID>
SCHEMBL16107343

> <PUBCHEM_EXT_DATASOURCE_URL>
https://www.surechembl.org/

> <PUBCHEM_EXT_SUBSTANCE_URL>
https://www.surechembl.org/chemical/SCHEMBL16107343

> <PUBCHEM_CID_ASSOCIATIONS>
117599328  1
783  2
89570338  2

> <PUBCHEM_COORDINATE_TYPE>
1
3

> <PUBCHEM_BONDANNOTATIONS>
10  16  3

$$$$
