310946604
  -OEChem-07211613022D

 36 36  0     1  0  0  0  0  0999 V2000
    6.9871   -3.1470    0.0000 O   0  0  0  0  0  0  0  0  0  0  0  0
    7.7717   -4.2270    0.0000 O   0  0  0  0  0  0  0  0  0  0  0  0
    5.0732   -3.8145    0.0000 O   0  0  0  0  0  0  0  0  0  0  0  0
    8.4862   -2.9895    0.0000 O   0  0  0  0  0  0  0  0  0  0  0  0
    4.3588   -5.0520    0.0000 O   0  0  0  0  0  0  0  0  0  0  0  0
    4.3588   -2.5770    0.0000 O   0  0  0  0  0  0  0  0  0  0  0  0
    1.5088   -4.2270    0.0000 O   0  0  0  0  0  0  0  0  0  0  0  0
    2.2253   -2.9895    0.0000 O   0  0  0  0  0  0  0  0  0  0  0  0
    5.0732   -1.3395    0.0000 O   0  0  0  0  0  0  0  0  0  0  0  0
    3.6443   -1.3395    0.0000 O   0  0  0  0  0  0  0  0  0  0  0  0
    0.7944   -6.2895    0.0000 O   0  0  0  0  0  0  0  0  0  0  0  0
    7.2166   -1.7520    0.0000 O   0  0  0  0  0  0  0  0  0  0  0  0
    0.7944   -7.9395    0.0000 O   0  0  0  0  0  0  0  0  0  0  0  0
    2.2233   -7.9395    0.0000 O   0  5  0  0  0  0  0  0  0  0  0  0
    1.5088   -6.7020    0.0000 O   0  0  0  0  0  0  0  0  0  0  0  0
    2.9298   -4.2270    0.0000 N   0  0  0  0  0  0  0  0  0  0  0  0
    1.5088   -7.5270    0.0000 N   0  3  0  0  0  0  0  0  0  0  0  0
    6.5022   -3.8145    0.0000 C   0  0  0  0  0  0  0  0  0  0  0  0
    6.9871   -4.4819    0.0000 C   0  0  0  0  0  0  0  0  0  0  0  0
    7.7717   -3.4020    0.0000 C   0  0  0  0  0  0  0  0  0  0  0  0
    5.7877   -4.2270    0.0000 C   0  0  0  0  0  0  0  0  0  0  0  0
    4.3588   -4.2270    0.0000 C   0  0  0  0  0  0  0  0  0  0  0  0
    3.6443   -3.8145    0.0000 C   0  0  3  0  0  0  0  0  0  0  0  0
    3.6443   -2.9895    0.0000 C   0  0  0  0  0  0  0  0  0  0  0  0
    6.9871   -5.3069    0.0000 C   0  0  0  0  0  0  0  0  0  0  0  0
    2.2233   -3.8145    0.0000 C   0  0  0  0  0  0  0  0  0  0  0  0
    4.3588   -1.7520    0.0000 C   0  0  0  0  0  0  0  0  0  0  0  0
    1.5088   -5.0520    0.0000 C   0  0  0  0  0  0  0  0  0  0  0  0
    5.7877   -1.7520    0.0000 C   0  0  0  0  0  0  0  0  0  0  0  0
    0.7944   -5.4645    0.0000 C   0  0  0  0  0  0  0  0  0  0  0  0
    6.5022   -1.3395    0.0000 C   0  0  0  0  0  0  0  0  0  0  0  0
    0.0799   -6.7020    0.0000 C   0  0  0  0  0  0  0  0  0  0  0  0
    0.0799   -7.5270    0.0000 C   0  0  0  0  0  0  0  0  0  0  0  0
    7.9311   -1.3395    0.0000 C   0  0  0  0  0  0  0  0  0  0  0  0
    8.6456   -1.7520    0.0000 C   0  0  0  0  0  0  0  0  0  0  0  0
    9.3600   -1.3395    0.0000 C   0  0  0  0  0  0  0  0  0  0  0  0
  1 18  1  0  0  0  0
  1 20  1  0  0  0  0
  2 19  1  0  0  0  0
  2 20  1  0  0  0  0
  3 21  1  0  0  0  0
  3 22  1  0  0  0  0
  4 20  2  0  0  0  0
  5 22  2  0  0  0  0
  6 24  1  0  0  0  0
  6 27  1  0  0  0  0
  7 26  1  0  0  0  0
  7 28  1  0  0  0  0
  8 26  2  0  0  0  0
  9 27  1  0  0  0  0
  9 29  1  0  0  0  0
 10 27  2  0  0  0  0
 11 30  1  0  0  0  0
 11 32  1  0  0  0  0
 12 31  1  0  0  0  0
 12 34  1  0  0  0  0
 13 17  1  0  0  0  0
 13 33  1  0  0  0  0
 14 17  1  0  0  0  0
 15 17  2  0  0  0  0
 16 23  1  0  0  0  0
 16 26  1  0  0  0  0
 18 19  2  0  0  0  0
 18 21  1  0  0  0  0
 19 25  1  0  0  0  0
 22 23  1  0  0  0  0
 23 24  1  0  0  0  0
 28 30  1  0  0  0  0
 29 31  1  0  0  0  0
 32 33  1  0  0  0  0
 34 35  1  0  0  0  0
 35 36  1  0  0  0  0
M  CHG  2  14  -1  17   1
M  END
> <PUBCHEM_COMPOUND_ID_TYPE>
0

> <PUBCHEM_TOTAL_CHARGE>
0

> <PUBCHEM_SUBSTANCE_ID>
310946604

> <PUBCHEM_SUBSTANCE_VERSION>
1

> <PUBCHEM_EXT_DATASOURCE_NAME>
4488

> <PUBCHEM_EXT_DATASOURCE_REGID>
SCHEMBL16124725

> <PUBCHEM_SUBSTANCE_COMMENT>
InChI=1S/C19H28N2O15/c1-3-4-28-6-9-31-18(24)33-11-14(16(22)32-12-15-13(2)35-19(25)36-15)20-17(23)30-8-5-29-7-10-34-21(26)27/h14H,3-12H2,1-2H3,(H,20,23)
InChIKey=FKFKIBIAMOPIAN-UHFFFAOYSA-N

> <PUBCHEM_SUBSTANCE_SYNONYM>
SCHEMBL16124725

> <PUBCHEM_XREF_EXT_ID>
SCHEMBL16124725

> <PUBCHEM_EXT_DATASOURCE_URL>
https://www.surechembl.org/

> <PUBCHEM_EXT_SUBSTANCE_URL>
https://www.surechembl.org/chemical/SCHEMBL16124725

> <PUBCHEM_CID_ASSOCIATIONS>
117612504  1

> <PUBCHEM_COORDINATE_TYPE>
1
3

$$$$
