310937787
  -OEChem-07211613022D

 26 29  0     1  0  0  0  0  0999 V2000
    0.3020    7.5847    0.0000 O   0  0  0  0  0  0  0  0  0  0  0  0
   -0.7145    3.8401    0.0000 O   0  0  0  0  0  0  0  0  0  0  0  0
    1.3819    6.8001    0.0000 N   0  0  0  0  0  0  0  0  0  0  0  0
    1.4289    5.0776    0.0000 N   0  0  0  0  0  0  0  0  0  0  0  0
    0.0470    6.8001    0.0000 N   0  0  0  0  0  0  0  0  0  0  0  0
   -2.9441    5.0731    0.0000 N   0  0  0  0  0  0  0  0  0  0  0  0
    0.7145    3.8401    0.0000 C   0  0  0  0  0  0  0  0  0  0  0  0
    0.7145    5.4901    0.0000 C   0  0  0  0  0  0  0  0  0  0  0  0
    0.7145    6.3151    0.0000 C   0  0  0  0  0  0  0  0  0  0  0  0
    0.0000    4.2526    0.0000 C   0  0  0  0  0  0  0  0  0  0  0  0
    0.7145    3.0151    0.0000 C   0  0  0  0  0  0  0  0  0  0  0  0
    1.1270    7.5847    0.0000 C   0  0  0  0  0  0  0  0  0  0  0  0
    0.0000    5.0776    0.0000 C   0  0  0  0  0  0  0  0  0  0  0  0
    1.6119    8.2521    0.0000 C   0  0  0  0  0  0  0  0  0  0  0  0
    1.4289    4.2526    0.0000 C   0  0  0  0  0  0  0  0  0  0  0  0
    1.1270    2.3007    0.0000 C   0  0  0  0  0  0  0  0  0  0  0  0
    0.3020    2.3007    0.0000 C   0  0  0  0  0  0  0  0  0  0  0  0
    2.0968    8.9196    0.0000 C   0  0  0  0  0  0  0  0  0  0  0  0
    0.9445    8.7370    0.0000 C   0  0  0  0  0  0  0  0  0  0  0  0
    2.2793    7.7672    0.0000 C   0  0  0  0  0  0  0  0  0  0  0  0
   -1.4289    4.2526    0.0000 C   0  0  0  0  0  0  0  0  0  0  0  0
   -2.1434    3.8401    0.0000 C   0  0  0  0  0  0  0  0  0  0  0  0
   -2.8579    4.2526    0.0000 C   0  0  3  0  0  0  0  0  0  0  0  0
   -3.6116    3.9171    0.0000 C   0  0  0  0  0  0  0  0  0  0  0  0
   -3.7511    5.2446    0.0000 C   0  0  0  0  0  0  0  0  0  0  0  0
   -4.1636    4.5302    0.0000 C   0  0  0  0  0  0  0  0  0  0  0  0
  1  5  1  0  0  0  0
  1 12  1  0  0  0  0
  2 10  1  0  0  0  0
  2 21  1  0  0  0  0
  3  9  1  0  0  0  0
  3 12  2  0  0  0  0
  4  8  2  0  0  0  0
  4 15  1  0  0  0  0
  5  9  2  0  0  0  0
  6 23  1  0  0  0  0
  6 25  1  0  0  0  0
  7 10  1  0  0  0  0
  7 11  1  0  0  0  0
  7 15  2  0  0  0  0
  8  9  1  0  0  0  0
  8 13  1  0  0  0  0
 10 13  2  0  0  0  0
 11 16  1  0  0  0  0
 11 17  1  0  0  0  0
 12 14  1  0  0  0  0
 14 18  1  0  0  0  0
 14 19  1  0  0  0  0
 14 20  1  0  0  0  0
 16 17  1  0  0  0  0
 21 22  1  0  0  0  0
 22 23  1  0  0  0  0
 23 24  1  0  0  0  0
 24 26  1  0  0  0  0
 25 26  1  0  0  0  0
M  END
> <PUBCHEM_COMPOUND_ID_TYPE>
0

> <PUBCHEM_TOTAL_CHARGE>
0

> <PUBCHEM_SUBSTANCE_ID>
310937787

> <PUBCHEM_SUBSTANCE_VERSION>
1

> <PUBCHEM_EXT_DATASOURCE_NAME>
4488

> <PUBCHEM_EXT_DATASOURCE_REGID>
SCHEMBL16115600

> <PUBCHEM_SUBSTANCE_COMMENT>
InChI=1S/C20H28N4O2/c1-20(2,3)19-23-18(24-26-19)16-11-17(15(12-22-16)13-6-7-13)25-10-8-14-5-4-9-21-14/h11-14,21H,4-10H2,1-3H3
InChIKey=XWRCQBRVFIXRRF-UHFFFAOYSA-N

> <PUBCHEM_SUBSTANCE_SYNONYM>
SCHEMBL16115600

> <PUBCHEM_XREF_EXT_ID>
SCHEMBL16115600

> <PUBCHEM_EXT_DATASOURCE_URL>
https://www.surechembl.org/

> <PUBCHEM_EXT_SUBSTANCE_URL>
https://www.surechembl.org/chemical/SCHEMBL16115600

> <PUBCHEM_CID_ASSOCIATIONS>
117605438  1

> <PUBCHEM_COORDINATE_TYPE>
1
3

$$$$
