310938660
  -OEChem-07211613022D

 23 25  0     1  0  0  0  0  0999 V2000
   -1.4333   -4.6656    0.0000 O   0  0  0  0  0  0  0  0  0  0  0  0
   -1.4333   -1.3656    0.0000 O   0  0  0  0  0  0  0  0  0  0  0  0
   -0.0044   -4.6656    0.0000 O   0  0  0  0  0  0  0  0  0  0  0  0
   -0.0044   -1.3656    0.0000 O   0  0  0  0  0  0  0  0  0  0  0  0
    1.4246   -3.8406    0.0000 N   0  0  0  0  0  0  0  0  0  0  0  0
    2.8535   -3.8406    0.0000 N   0  0  0  0  0  0  0  0  0  0  0  0
   -0.7188   -3.4281    0.0000 C   0  0  3  0  0  0  0  0  0  0  0  0
   -0.7188   -2.6031    0.0000 C   0  0  3  0  0  0  0  0  0  0  0  0
   -1.4333   -3.8406    0.0000 C   0  0  0  0  0  0  0  0  0  0  0  0
   -1.4333   -2.1906    0.0000 C   0  0  0  0  0  0  0  0  0  0  0  0
   -2.1478   -3.4281    0.0000 C   0  0  0  0  0  0  0  0  0  0  0  0
   -2.1478   -2.6031    0.0000 C   0  0  0  0  0  0  0  0  0  0  0  0
   -0.0044   -3.8406    0.0000 C   0  0  3  0  0  0  0  0  0  0  0  0
   -0.0044   -2.1906    0.0000 C   0  0  3  0  0  0  0  0  0  0  0  0
    0.7101   -3.4281    0.0000 C   0  0  3  0  0  0  0  0  0  0  0  0
    0.7101   -2.6031    0.0000 C   0  0  0  0  0  0  0  0  0  0  0  0
   -2.8622   -3.8406    0.0000 C   0  0  0  0  0  0  0  0  0  0  0  0
   -2.8622   -2.1906    0.0000 C   0  0  0  0  0  0  0  0  0  0  0  0
   -3.5767   -3.4281    0.0000 C   0  0  0  0  0  0  0  0  0  0  0  0
   -3.5767   -2.6031    0.0000 C   0  0  0  0  0  0  0  0  0  0  0  0
    2.1391   -3.4281    0.0000 C   0  0  0  0  0  0  0  0  0  0  0  0
    3.5680   -3.4281    0.0000 C   0  0  0  0  0  0  0  0  0  0  0  0
    2.8535   -4.6656    0.0000 C   0  0  0  0  0  0  0  0  0  0  0  0
  1  9  2  0  0  0  0
  2 10  2  0  0  0  0
  3 13  1  0  0  0  0
  4 14  1  0  0  0  0
  5 15  1  0  0  0  0
  5 21  1  0  0  0  0
  6 21  1  0  0  0  0
  6 22  1  0  0  0  0
  6 23  1  0  0  0  0
  7  8  1  0  0  0  0
  7  9  1  0  0  0  0
  7 13  1  0  0  0  0
  8 10  1  0  0  0  0
  8 14  1  0  0  0  0
  9 11  1  0  0  0  0
 10 12  1  0  0  0  0
 11 12  2  0  0  0  0
 11 17  1  0  0  0  0
 12 18  1  0  0  0  0
 13 15  1  0  0  0  0
 14 16  1  0  0  0  0
 15 16  1  0  0  0  0
 17 19  2  0  0  0  0
 18 20  2  0  0  0  0
 19 20  1  0  0  0  0
M  END
> <PUBCHEM_COMPOUND_ID_TYPE>
0

> <PUBCHEM_TOTAL_CHARGE>
0

> <PUBCHEM_SUBSTANCE_ID>
310938660

> <PUBCHEM_SUBSTANCE_VERSION>
1

> <PUBCHEM_EXT_DATASOURCE_NAME>
4488

> <PUBCHEM_EXT_DATASOURCE_REGID>
SCHEMBL16116574

> <PUBCHEM_SUBSTANCE_COMMENT>
InChI=1S/C17H22N2O4/c1-19(2)8-18-11-7-12(20)13-14(17(11)23)16(22)10-6-4-3-5-9(10)15(13)21/h3-6,11-14,17-18,20,23H,7-8H2,1-2H3
InChIKey=NQBDIZUUQUXXOM-UHFFFAOYSA-N

> <PUBCHEM_SUBSTANCE_SYNONYM>
SCHEMBL16116574

> <PUBCHEM_XREF_EXT_ID>
SCHEMBL16116574

> <PUBCHEM_EXT_DATASOURCE_URL>
https://www.surechembl.org/

> <PUBCHEM_EXT_SUBSTANCE_URL>
https://www.surechembl.org/chemical/SCHEMBL16116574

> <PUBCHEM_CID_ASSOCIATIONS>
117606092  1

> <PUBCHEM_COORDINATE_TYPE>
1
3

$$$$
