310946690
  -OEChem-07211613022D

 29 33  0     1  0  0  0  0  0999 V2000
    2.6359    1.8216    0.0000 Cl  0  0  0  0  0  0  0  0  0  0  0  0
   -1.4205    2.4536    0.0000 O   0  0  0  0  0  0  0  0  0  0  0  0
    1.1270   -1.7862    0.0000 O   0  0  0  0  0  0  0  0  0  0  0  0
    1.1270    1.0717    0.0000 N   0  0  0  0  0  0  0  0  0  0  0  0
   -0.1105    0.3572    0.0000 N   0  0  0  0  0  0  0  0  0  0  0  0
   -0.1105    1.7862    0.0000 N   0  0  0  0  0  0  0  0  0  0  0  0
    2.8494   -0.3102    0.0000 N   0  0  0  0  0  0  0  0  0  0  0  0
   -1.4205    1.1187    0.0000 N   0  0  0  0  0  0  0  0  0  0  0  0
    2.3645   -1.0717    0.0000 N   0  0  0  0  0  0  0  0  0  0  0  0
    3.6340   -0.0553    0.0000 N   0  0  0  0  0  0  0  0  0  0  0  0
    1.5395    0.3572    0.0000 C   0  0  3  0  0  0  0  0  0  0  0  0
    1.1270   -0.3572    0.0000 C   0  0  0  0  0  0  0  0  0  0  0  0
    2.3645    0.3572    0.0000 C   0  0  0  0  0  0  0  0  0  0  0  0
    0.3020   -0.3572    0.0000 C   0  0  0  0  0  0  0  0  0  0  0  0
    0.3020    1.0717    0.0000 C   0  0  0  0  0  0  0  0  0  0  0  0
    1.5395   -1.0717    0.0000 C   0  0  0  0  0  0  0  0  0  0  0  0
    2.8494    1.0247    0.0000 C   0  0  0  0  0  0  0  0  0  0  0  0
   -0.9355    1.7862    0.0000 C   0  0  0  0  0  0  0  0  0  0  0  0
   -2.2051    2.1987    0.0000 C   0  0  0  0  0  0  0  0  0  0  0  0
   -2.2051    1.3737    0.0000 C   0  0  0  0  0  0  0  0  0  0  0  0
    3.6340    0.7697    0.0000 C   0  0  0  0  0  0  0  0  0  0  0  0
    2.7770   -1.7862    0.0000 C   0  0  0  0  0  0  0  0  0  0  0  0
   -0.1105   -1.0717    0.0000 C   0  0  0  0  0  0  0  0  0  0  0  0
   -2.9195    2.6112    0.0000 C   0  0  0  0  0  0  0  0  0  0  0  0
   -2.9195    0.9612    0.0000 C   0  0  0  0  0  0  0  0  0  0  0  0
    2.7770   -2.6112    0.0000 C   0  0  0  0  0  0  0  0  0  0  0  0
    3.4914   -2.1987    0.0000 C   0  0  0  0  0  0  0  0  0  0  0  0
   -3.6340    2.1987    0.0000 C   0  0  0  0  0  0  0  0  0  0  0  0
   -3.6340    1.3737    0.0000 C   0  0  0  0  0  0  0  0  0  0  0  0
  1 17  1  0  0  0  0
  2 18  1  0  0  0  0
  2 19  1  0  0  0  0
  3 16  2  0  0  0  0
  4 11  1  0  0  0  0
  4 15  2  0  0  0  0
  5 14  1  0  0  0  0
  5 15  1  0  0  0  0
  6 15  1  0  0  0  0
  6 18  1  0  0  0  0
  7 10  1  0  0  0  0
  7 13  2  0  0  0  0
  8 18  2  0  0  0  0
  8 20  1  0  0  0  0
  9 16  1  0  0  0  0
  9 22  1  0  0  0  0
 10 21  1  0  0  0  0
 11 12  1  0  0  0  0
 11 13  1  0  0  0  0
 12 14  2  0  0  0  0
 12 16  1  0  0  0  0
 13 17  1  0  0  0  0
 14 23  1  0  0  0  0
 17 21  2  0  0  0  0
 19 20  1  0  0  0  0
 19 24  2  0  0  0  0
 20 25  2  0  0  0  0
 22 26  1  0  0  0  0
 22 27  1  0  0  0  0
 24 28  1  0  0  0  0
 25 29  1  0  0  0  0
 26 27  1  0  0  0  0
 28 29  2  0  0  0  0
M  END
> <PUBCHEM_COMPOUND_ID_TYPE>
0

> <PUBCHEM_TOTAL_CHARGE>
0

> <PUBCHEM_SUBSTANCE_ID>
310946690

> <PUBCHEM_SUBSTANCE_VERSION>
1

> <PUBCHEM_EXT_DATASOURCE_NAME>
4488

> <PUBCHEM_EXT_DATASOURCE_REGID>
SCHEMBL16124813

> <PUBCHEM_SUBSTANCE_COMMENT>
InChI=1S/C19H18ClN7O2/c1-9-14(17(28)23-10-6-7-10)16(15-11(20)8-21-27-15)25-18(22-9)26-19-24-12-4-2-3-5-13(12)29-19/h2-5,8,10,16H,6-7H2,1H3,(H,21,27)(H,23,28)(H2,22,24,25,26)
InChIKey=BOTGMAUFBZFHHR-UHFFFAOYSA-N

> <PUBCHEM_SUBSTANCE_SYNONYM>
SCHEMBL16124813

> <PUBCHEM_XREF_EXT_ID>
SCHEMBL16124813

> <PUBCHEM_EXT_DATASOURCE_URL>
https://www.surechembl.org/

> <PUBCHEM_EXT_SUBSTANCE_URL>
https://www.surechembl.org/chemical/SCHEMBL16124813

> <PUBCHEM_CID_ASSOCIATIONS>
46926067  1

> <PUBCHEM_COORDINATE_TYPE>
1
3

$$$$
