310942364
  -OEChem-07211613022D

 21 23  0     1  0  0  0  0  0999 V2000
   -1.7691   -2.0639    0.0000 O   0  0  0  0  0  0  0  0  0  0  0  0
   -2.4959   -0.8297    0.0000 O   0  0  0  0  0  0  0  0  0  0  0  0
    2.4959    1.4331    0.0000 O   0  0  0  0  0  0  0  0  0  0  0  0
    0.2194   -0.4183    0.0000 N   0  0  0  0  0  0  0  0  0  0  0  0
    1.0286   -0.5417    0.0000 N   0  0  0  0  0  0  0  0  0  0  0  0
   -0.2469    0.2674    0.0000 C   0  0  0  0  0  0  0  0  0  0  0  0
   -0.3017   -1.0766    0.0000 C   0  0  0  0  0  0  0  0  0  0  0  0
   -1.0834   -0.7747    0.0000 C   0  0  0  0  0  0  0  0  0  0  0  0
   -1.0286    0.0343    0.0000 C   0  0  0  0  0  0  0  0  0  0  0  0
    0.0686    1.0354    0.0000 C   0  0  3  0  0  0  0  0  0  0  0  0
   -1.7691   -1.2000    0.0000 C   0  0  0  0  0  0  0  0  0  0  0  0
    0.0000   -1.8444    0.0000 C   0  0  0  0  0  0  0  0  0  0  0  0
    0.8503    1.1725    0.0000 C   0  0  0  0  0  0  0  0  0  0  0  0
   -1.7142    0.5691    0.0000 C   0  0  0  0  0  0  0  0  0  0  0  0
    1.3302   -1.3234    0.0000 C   0  0  0  0  0  0  0  0  0  0  0  0
    0.8091   -1.9679    0.0000 C   0  0  0  0  0  0  0  0  0  0  0  0
   -0.4936    1.6799    0.0000 C   0  0  0  0  0  0  0  0  0  0  0  0
    1.1657    1.9405    0.0000 C   0  0  0  0  0  0  0  0  0  0  0  0
    1.4262    0.5279    0.0000 C   0  0  0  0  0  0  0  0  0  0  0  0
    1.9747    2.0639    0.0000 C   0  0  0  0  0  0  0  0  0  0  0  0
    2.2078    0.6651    0.0000 C   0  0  0  0  0  0  0  0  0  0  0  0
  1 11  2  0  0  0  0
  2 11  1  0  0  0  0
  3 20  1  0  0  0  0
  3 21  1  0  0  0  0
  4  5  1  0  0  0  0
  4  6  1  0  0  0  0
  4  7  1  0  0  0  0
  5 15  2  0  0  0  0
  6  9  2  0  0  0  0
  6 10  1  0  0  0  0
  7  8  2  0  0  0  0
  7 12  1  0  0  0  0
  8  9  1  0  0  0  0
  8 11  1  0  0  0  0
  9 14  1  0  0  0  0
 10 13  1  0  0  0  0
 10 17  1  0  0  0  0
 12 16  2  0  0  0  0
 13 18  1  0  0  0  0
 13 19  1  0  0  0  0
 15 16  1  0  0  0  0
 18 20  1  0  0  0  0
 19 21  1  0  0  0  0
M  END
> <PUBCHEM_COMPOUND_ID_TYPE>
0

> <PUBCHEM_TOTAL_CHARGE>
0

> <PUBCHEM_SUBSTANCE_ID>
310942364

> <PUBCHEM_SUBSTANCE_VERSION>
1

> <PUBCHEM_EXT_DATASOURCE_NAME>
4488

> <PUBCHEM_EXT_DATASOURCE_REGID>
SCHEMBL16120400

> <PUBCHEM_SUBSTANCE_COMMENT>
InChI=1S/C16H20N2O3/c1-10(12-5-8-21-9-6-12)15-11(2)14(16(19)20)13-4-3-7-17-18(13)15/h3-4,7,10,12H,5-6,8-9H2,1-2H3,(H,19,20)
InChIKey=OJVRCSACRXBONX-UHFFFAOYSA-N

> <PUBCHEM_SUBSTANCE_SYNONYM>
SCHEMBL16120400

> <PUBCHEM_XREF_EXT_ID>
SCHEMBL16120400

> <PUBCHEM_EXT_DATASOURCE_URL>
https://www.surechembl.org/

> <PUBCHEM_EXT_SUBSTANCE_URL>
https://www.surechembl.org/chemical/SCHEMBL16120400

> <PUBCHEM_CID_ASSOCIATIONS>
117608982  1

> <PUBCHEM_COORDINATE_TYPE>
1
3

$$$$
