310933461
  -OEChem-07211613022D

 30 34  0     1  0  0  0  0  0999 V2000
    2.2916    0.0000    0.0000 O   0  0  0  0  0  0  0  0  0  0  0  0
    0.0000   -3.4832    0.0000 O   0  0  0  0  0  0  0  0  0  0  0  0
    5.5457   -2.3604    0.0000 O   0  0  0  0  0  0  0  0  0  0  0  0
    4.2395   -1.6958    0.0000 N   0  0  0  0  0  0  0  0  0  0  0  0
    4.2395   -3.0249    0.0000 N   0  0  0  0  0  0  0  0  0  0  0  0
    1.4895   -1.4208    0.0000 N   0  0  0  0  0  0  0  0  0  0  0  0
    0.4125   -4.2165    0.0000 N   0  0  0  0  0  0  0  0  0  0  0  0
    2.7041   -0.7104    0.0000 C   0  0  3  0  0  0  0  0  0  0  0  0
    2.7270   -1.5354    0.0000 C   0  0  0  0  0  0  0  0  0  0  0  0
    3.4374   -1.9250    0.0000 C   0  0  0  0  0  0  0  0  0  0  0  0
    3.4374   -2.7957    0.0000 C   0  0  0  0  0  0  0  0  0  0  0  0
    3.5291   -0.7104    0.0000 C   0  0  0  0  0  0  0  0  0  0  0  0
    2.0166   -2.7957    0.0000 C   0  0  0  0  0  0  0  0  0  0  0  0
    1.8791   -0.7104    0.0000 C   0  0  0  0  0  0  0  0  0  0  0  0
    2.0166   -1.9250    0.0000 C   0  0  0  0  0  0  0  0  0  0  0  0
    1.3062   -3.2083    0.0000 C   0  0  0  0  0  0  0  0  0  0  0  0
    2.7270   -3.1853    0.0000 C   0  0  0  0  0  0  0  0  0  0  0  0
    4.7207   -2.3604    0.0000 C   0  0  0  0  0  0  0  0  0  0  0  0
    0.5500   -2.8874    0.0000 C   0  0  0  0  0  0  0  0  0  0  0  0
    1.2146   -4.0332    0.0000 C   0  0  0  0  0  0  0  0  0  0  0  0
    4.0103   -0.0229    0.0000 C   0  0  0  0  0  0  0  0  0  0  0  0
    4.0332   -1.3750    0.0000 C   0  0  0  0  0  0  0  0  0  0  0  0
    1.4667    0.0000    0.0000 C   0  0  0  0  0  0  0  0  0  0  0  0
    4.8124   -0.2750    0.0000 C   0  0  0  0  0  0  0  0  0  0  0  0
    4.8124   -1.1000    0.0000 C   0  0  0  0  0  0  0  0  0  0  0  0
    0.6417   -1.4667    0.0000 C   0  0  0  0  0  0  0  0  0  0  0  0
    0.6417   -0.0229    0.0000 C   0  0  0  0  0  0  0  0  0  0  0  0
    0.2521   -0.7333    0.0000 C   0  0  0  0  0  0  0  0  0  0  0  0
    0.3666   -2.0854    0.0000 C   0  0  0  0  0  0  0  0  0  0  0  0
    1.8333   -4.5832    0.0000 C   0  0  0  0  0  0  0  0  0  0  0  0
  1  8  1  0  0  0  0
  2  7  1  0  0  0  0
  2 19  1  0  0  0  0
  3 18  2  0  0  0  0
  4 10  1  0  0  0  0
  4 18  1  0  0  0  0
  5 11  1  0  0  0  0
  5 18  1  0  0  0  0
  6 14  1  0  0  0  0
  6 26  2  0  0  0  0
  7 20  2  0  0  0  0
  8  9  1  0  0  0  0
  8 12  1  0  0  0  0
  8 14  1  0  0  0  0
  9 10  1  0  0  0  0
  9 15  2  0  0  0  0
 10 11  2  0  0  0  0
 11 17  1  0  0  0  0
 12 21  1  0  0  0  0
 12 22  1  0  0  0  0
 13 15  1  0  0  0  0
 13 16  1  0  0  0  0
 13 17  2  0  0  0  0
 14 23  2  0  0  0  0
 16 19  2  0  0  0  0
 16 20  1  0  0  0  0
 19 29  1  0  0  0  0
 20 30  1  0  0  0  0
 21 24  1  0  0  0  0
 22 25  1  0  0  0  0
 23 27  1  0  0  0  0
 24 25  1  0  0  0  0
 26 28  1  0  0  0  0
 27 28  2  0  0  0  0
M  END
> <PUBCHEM_COMPOUND_ID_TYPE>
0

> <PUBCHEM_TOTAL_CHARGE>
0

> <PUBCHEM_SUBSTANCE_ID>
310933461

> <PUBCHEM_SUBSTANCE_VERSION>
1

> <PUBCHEM_EXT_DATASOURCE_NAME>
4488

> <PUBCHEM_EXT_DATASOURCE_REGID>
SCHEMBL16110879

> <PUBCHEM_SUBSTANCE_COMMENT>
InChI=1S/C23H24N4O3/c1-13-20(14(2)30-27-13)15-11-17(21-18(12-15)25-22(28)26-21)23(29,16-7-3-4-8-16)19-9-5-6-10-24-19/h5-6,9-12,16,29H,3-4,7-8H2,1-2H3,(H2,25,26,28)
InChIKey=QCLBIWMGROGLIG-UHFFFAOYSA-N

> <PUBCHEM_SUBSTANCE_SYNONYM>
SCHEMBL16110879

> <PUBCHEM_XREF_EXT_ID>
SCHEMBL16110879

> <PUBCHEM_EXT_DATASOURCE_URL>
https://www.surechembl.org/

> <PUBCHEM_EXT_SUBSTANCE_URL>
https://www.surechembl.org/chemical/SCHEMBL16110879

> <PUBCHEM_CID_ASSOCIATIONS>
117601861  1

> <PUBCHEM_COORDINATE_TYPE>
1
3

$$$$
