310944042
  -OEChem-07211613022D

 14 16  0     1  0  0  0  0  0999 V2000
    1.7813   -1.0599    0.0000 O   0  0  0  0  0  0  0  0  0  0  0  0
   -1.2374   -0.2830    0.0000 N   0  0  0  0  0  0  0  0  0  0  0  0
   -2.0365   -0.0833    0.0000 N   0  0  0  0  0  0  0  0  0  0  0  0
    0.3274    1.4150    0.0000 N   0  0  0  0  0  0  0  0  0  0  0  0
   -2.4804   -0.7824    0.0000 N   0  0  0  0  0  0  0  0  0  0  0  0
   -1.9477   -1.4150    0.0000 N   0  0  0  0  0  0  0  0  0  0  0  0
    1.0488    0.1831    0.0000 C   0  0  0  0  0  0  0  0  0  0  0  0
    1.7813   -0.2386    0.0000 C   0  0  3  0  0  0  0  0  0  0  0  0
   -0.3940    0.1720    0.0000 C   0  0  0  0  0  0  0  0  0  0  0  0
    0.3496   -0.2386    0.0000 C   0  0  0  0  0  0  0  0  0  0  0  0
    2.4804   -0.6270    0.0000 C   0  0  0  0  0  0  0  0  0  0  0  0
    1.0599    1.0043    0.0000 C   0  0  0  0  0  0  0  0  0  0  0  0
   -0.3718    1.0043    0.0000 C   0  0  0  0  0  0  0  0  0  0  0  0
   -1.1820   -1.1043    0.0000 C   0  0  0  0  0  0  0  0  0  0  0  0
  8  1  1  1  0  0  0
  1 11  1  0  0  0  0
  2  3  1  0  0  0  0
  2  9  1  0  0  0  0
  2 14  1  0  0  0  0
  3  5  2  0  0  0  0
  4 12  1  0  0  0  0
  4 13  2  0  0  0  0
  5  6  1  0  0  0  0
  6 14  2  0  0  0  0
  7  8  1  0  0  0  0
  7 10  1  0  0  0  0
  7 12  2  0  0  0  0
  8 11  1  0  0  0  0
  9 10  2  0  0  0  0
  9 13  1  0  0  0  0
M  END
> <PUBCHEM_COMPOUND_ID_TYPE>
0

> <PUBCHEM_TOTAL_CHARGE>
0

> <PUBCHEM_SUBSTANCE_ID>
310944042

> <PUBCHEM_SUBSTANCE_VERSION>
1

> <PUBCHEM_EXT_DATASOURCE_NAME>
4488

> <PUBCHEM_EXT_DATASOURCE_REGID>
SCHEMBL16122115

> <PUBCHEM_SUBSTANCE_COMMENT>
InChI=1S/C8H7N5O/c1-6(8-4-14-8)2-9-3-7(1)13-5-10-11-12-13/h1-3,5,8H,4H2/t8-/m1/s1
InChIKey=ZVNKRNVDQYMMFT-MRVPVSSYSA-N

> <PUBCHEM_SUBSTANCE_SYNONYM>
SCHEMBL16122115

> <PUBCHEM_XREF_EXT_ID>
SCHEMBL16122115

> <PUBCHEM_EXT_DATASOURCE_URL>
https://www.surechembl.org/

> <PUBCHEM_EXT_SUBSTANCE_URL>
https://www.surechembl.org/chemical/SCHEMBL16122115

> <PUBCHEM_CID_ASSOCIATIONS>
117610338  1

> <PUBCHEM_COORDINATE_TYPE>
1
3

> <PUBCHEM_BONDANNOTATIONS>
8  1  5

$$$$
