310946259
  -OEChem-07211613022D

 25 26  0     1  0  0  0  0  0999 V2000
    3.4709  -10.1830    0.0000 S   0  0  0  0  0  0  0  0  0  0  0  0
    2.6459  -10.1830    0.0000 O   0  0  0  0  0  0  0  0  0  0  0  0
   -0.2120  -10.1830    0.0000 O   0  0  0  0  0  0  0  0  0  0  0  0
   -0.2120   -6.8830    0.0000 O   0  0  0  0  0  0  0  0  0  0  0  0
    3.8834  -10.8974    0.0000 O   0  0  0  0  0  0  0  0  0  0  0  0
    3.8834   -9.4685    0.0000 O   0  0  0  0  0  0  0  0  0  0  0  0
    4.2959  -10.1830    0.0000 O   0  0  0  0  0  0  0  0  0  0  0  0
   -1.6409   -7.7080    0.0000 O   0  0  0  0  0  0  0  0  0  0  0  0
    0.5025   -8.9455    0.0000 N   0  0  0  0  0  0  0  0  0  0  0  0
    1.9314   -9.7705    0.0000 N   0  0  0  0  0  0  0  0  0  0  0  0
   -0.9265   -8.1205    0.0000 N   0  0  0  0  0  0  0  0  0  0  0  0
   -3.7844   -8.1205    0.0000 N   0  0  0  0  0  0  0  0  0  0  0  0
    0.5025   -9.7705    0.0000 C   0  0  0  0  0  0  0  0  0  0  0  0
    1.9314   -8.9455    0.0000 C   0  0  3  0  0  0  0  0  0  0  0  0
    0.5025   -8.1205    0.0000 C   0  0  3  0  0  0  0  0  0  0  0  0
    1.2169   -9.3580    0.0000 C   0  0  0  0  0  0  0  0  0  0  0  0
    1.9314   -8.1205    0.0000 C   0  0  0  0  0  0  0  0  0  0  0  0
    1.2169   -7.7080    0.0000 C   0  0  0  0  0  0  0  0  0  0  0  0
   -0.2120   -7.7080    0.0000 C   0  0  0  0  0  0  0  0  0  0  0  0
   -3.0699   -7.7080    0.0000 C   0  0  3  0  0  0  0  0  0  0  0  0
   -3.0699   -6.8830    0.0000 C   0  0  0  0  0  0  0  0  0  0  0  0
   -2.3554   -8.1205    0.0000 C   0  0  0  0  0  0  0  0  0  0  0  0
   -3.7844   -6.4705    0.0000 C   0  0  0  0  0  0  0  0  0  0  0  0
   -2.3554   -6.4705    0.0000 C   0  0  0  0  0  0  0  0  0  0  0  0
   -3.0699   -6.0580    0.0000 C   0  0  0  0  0  0  0  0  0  0  0  0
  1  2  1  0  0  0  0
  1  5  2  0  0  0  0
  1  6  2  0  0  0  0
  1  7  1  0  0  0  0
  2 10  1  0  0  0  0
  3 13  2  0  0  0  0
  4 19  2  0  0  0  0
  8 11  1  0  0  0  0
  8 22  1  0  0  0  0
  9 13  1  0  0  0  0
  9 15  1  0  0  0  0
  9 16  1  0  0  0  0
 10 13  1  0  0  0  0
 10 14  1  0  0  0  0
 11 19  1  0  0  0  0
 12 20  1  0  0  0  0
 14 16  1  6  0  0  0
 14 17  1  0  0  0  0
 15 18  1  0  0  0  0
 15 19  1  6  0  0  0
 17 18  1  0  0  0  0
 20 21  1  0  0  0  0
 20 22  1  0  0  0  0
 21 23  1  0  0  0  0
 21 24  1  0  0  0  0
 21 25  1  0  0  0  0
M  END
> <PUBCHEM_COMPOUND_ID_TYPE>
0

> <PUBCHEM_TOTAL_CHARGE>
0

> <PUBCHEM_SUBSTANCE_ID>
310946259

> <PUBCHEM_SUBSTANCE_VERSION>
1

> <PUBCHEM_EXT_DATASOURCE_NAME>
4488

> <PUBCHEM_EXT_DATASOURCE_REGID>
SCHEMBL16124377

> <PUBCHEM_SUBSTANCE_COMMENT>
InChI=1S/C13H24N4O7S/c1-13(2,3)10(14)7-23-15-11(18)9-5-4-8-6-16(9)12(19)17(8)24-25(20,21)22/h8-10H,4-7,14H2,1-3H3,(H,15,18)(H,20,21,22)/t8-,9+,10?/m1/s1
InChIKey=QPOHGDOVOQUDRB-ZDGBYWQASA-N

> <PUBCHEM_SUBSTANCE_SYNONYM>
SCHEMBL16124377

> <PUBCHEM_XREF_EXT_ID>
SCHEMBL16124377

> <PUBCHEM_EXT_DATASOURCE_URL>
https://www.surechembl.org/

> <PUBCHEM_EXT_SUBSTANCE_URL>
https://www.surechembl.org/chemical/SCHEMBL16124377

> <PUBCHEM_CID_ASSOCIATIONS>
117612207  1

> <PUBCHEM_COORDINATE_TYPE>
1
3

> <PUBCHEM_BONDANNOTATIONS>
14  16  6
15  19  6

$$$$
