310932736
  -OEChem-07211613022D

 11 11  0     1  0  0  0  0  0999 V2000
    0.0000   -0.7346    0.0000 O   0  0  0  0  0  0  0  0  0  0  0  0
    1.9764   -3.4980    0.0000 O   0  0  0  0  0  0  0  0  0  0  0  0
    2.6935   -2.2562    0.0000 O   0  0  0  0  0  0  0  0  0  0  0  0
    2.0813   -1.4342    0.0000 N   0  0  0  0  0  0  0  0  0  0  0  0
    1.2593   -1.4342    0.0000 C   0  0  3  0  0  0  0  0  0  0  0  0
    1.2593   -2.2562    0.0000 C   0  0  0  0  0  0  0  0  0  0  0  0
    0.4373   -1.4342    0.0000 C   0  0  0  0  0  0  0  0  0  0  0  0
    1.6790   -0.6996    0.0000 C   0  0  0  0  0  0  0  0  0  0  0  0
    1.9764   -2.6760    0.0000 C   0  0  0  0  0  0  0  0  0  0  0  0
    1.2418    0.0000    0.0000 C   0  0  0  0  0  0  0  0  0  0  0  0
    0.4198    0.0000    0.0000 C   0  0  0  0  0  0  0  0  0  0  0  0
  1  7  1  0  0  0  0
  1 11  1  0  0  0  0
  2  9  2  0  0  0  0
  3  9  1  0  0  0  0
  4  5  1  0  0  0  0
  5  6  1  0  0  0  0
  5  7  1  0  0  0  0
  5  8  1  0  0  0  0
  6  9  1  0  0  0  0
  8 10  1  0  0  0  0
 10 11  1  0  0  0  0
M  END
> <PUBCHEM_COMPOUND_ID_TYPE>
0

> <PUBCHEM_TOTAL_CHARGE>
0

> <PUBCHEM_SUBSTANCE_ID>
310932736

> <PUBCHEM_SUBSTANCE_VERSION>
1

> <PUBCHEM_EXT_DATASOURCE_NAME>
4488

> <PUBCHEM_EXT_DATASOURCE_REGID>
SCHEMBL16110120

> <PUBCHEM_SUBSTANCE_COMMENT>
InChI=1S/C7H13NO3/c8-7(4-6(9)10)2-1-3-11-5-7/h1-5,8H2,(H,9,10)
InChIKey=KKOAGCQXFCPYMD-UHFFFAOYSA-N

> <PUBCHEM_SUBSTANCE_SYNONYM>
SCHEMBL16110120

> <PUBCHEM_XREF_EXT_ID>
SCHEMBL16110120

> <PUBCHEM_EXT_DATASOURCE_URL>
https://www.surechembl.org/

> <PUBCHEM_EXT_SUBSTANCE_URL>
https://www.surechembl.org/chemical/SCHEMBL16110120

> <PUBCHEM_CID_ASSOCIATIONS>
64666864  1

> <PUBCHEM_COORDINATE_TYPE>
1
3

$$$$
