310930919
  -OEChem-07211613022D

 26 29  0     1  0  0  0  0  0999 V2000
    0.0000   -6.4569    0.0000 Cl  0  0  0  0  0  0  0  0  0  0  0  0
    0.9362   -2.7442    0.0000 O   0  0  0  0  0  0  0  0  0  0  0  0
    2.3568    0.0000    0.0000 O   0  0  0  0  0  0  0  0  0  0  0  0
    2.3568   -2.5182    0.0000 N   0  0  0  0  0  0  0  0  0  0  0  0
    2.7765   -3.7773    0.0000 N   0  0  0  0  0  0  0  0  0  0  0  0
    3.8096   -2.7442    0.0000 N   0  0  0  0  0  0  0  0  0  0  0  0
    1.9694   -3.7773    0.0000 C   0  0  3  0  0  0  0  0  0  0  0  0
    1.7111   -3.0025    0.0000 C   0  0  0  0  0  0  0  0  0  0  0  0
    1.4528   -4.4553    0.0000 C   0  0  0  0  0  0  0  0  0  0  0  0
    2.3245   -4.5198    0.0000 C   0  0  0  0  0  0  0  0  0  0  0  0
    3.0348   -3.0025    0.0000 C   0  0  0  0  0  0  0  0  0  0  0  0
    2.3568   -1.6788    0.0000 C   0  0  0  0  0  0  0  0  0  0  0  0
    1.8079   -5.1978    0.0000 C   0  0  0  0  0  0  0  0  0  0  0  0
    0.6457   -4.3584    0.0000 C   0  0  0  0  0  0  0  0  0  0  0  0
    3.1639   -4.5844    0.0000 C   0  0  0  0  0  0  0  0  0  0  0  0
    2.0662   -5.3916    0.0000 C   0  0  0  0  0  0  0  0  0  0  0  0
    3.0670   -1.2591    0.0000 C   0  0  0  0  0  0  0  0  0  0  0  0
    1.6465   -1.2591    0.0000 C   0  0  0  0  0  0  0  0  0  0  0  0
    1.3237   -5.8758    0.0000 C   0  0  0  0  0  0  0  0  0  0  0  0
    0.1614   -5.0364    0.0000 C   0  0  0  0  0  0  0  0  0  0  0  0
    0.4843   -5.7789    0.0000 C   0  0  0  0  0  0  0  0  0  0  0  0
    3.5190   -5.2946    0.0000 C   0  0  0  0  0  0  0  0  0  0  0  0
    2.2599   -5.9403    0.0000 C   0  0  0  0  0  0  0  0  0  0  0  0
    3.0993   -6.0049    0.0000 C   0  0  0  0  0  0  0  0  0  0  0  0
    3.0670   -0.4520    0.0000 C   0  0  0  0  0  0  0  0  0  0  0  0
    1.6465   -0.4520    0.0000 C   0  0  0  0  0  0  0  0  0  0  0  0
  1 21  1  0  0  0  0
  2  8  2  0  0  0  0
  3 25  1  0  0  0  0
  3 26  1  0  0  0  0
  4  8  1  0  0  0  0
  4 11  1  0  0  0  0
  4 12  1  0  0  0  0
  5  7  1  0  0  0  0
  5 11  1  0  0  0  0
  6 11  2  3  0  0  0
  7  8  1  0  0  0  0
  7  9  1  0  0  0  0
  7 10  1  0  0  0  0
  9 13  2  0  0  0  0
  9 14  1  0  0  0  0
 10 15  1  0  0  0  0
 10 16  1  0  0  0  0
 12 17  1  0  0  0  0
 12 18  1  0  0  0  0
 13 19  1  0  0  0  0
 14 20  2  0  0  0  0
 15 22  1  0  0  0  0
 16 23  1  0  0  0  0
 17 25  1  0  0  0  0
 18 26  1  0  0  0  0
 19 21  2  0  0  0  0
 20 21  1  0  0  0  0
 22 24  1  0  0  0  0
 23 24  1  0  0  0  0
M  END
> <PUBCHEM_COMPOUND_ID_TYPE>
0

> <PUBCHEM_TOTAL_CHARGE>
0

> <PUBCHEM_SUBSTANCE_ID>
310930919

> <PUBCHEM_SUBSTANCE_VERSION>
1

> <PUBCHEM_EXT_DATASOURCE_NAME>
4488

> <PUBCHEM_EXT_DATASOURCE_REGID>
SCHEMBL16108217

> <PUBCHEM_SUBSTANCE_COMMENT>
InChI=1S/C20H26ClN3O2/c21-16-8-6-15(7-9-16)20(14-4-2-1-3-5-14)18(25)24(19(22)23-20)17-10-12-26-13-11-17/h6-9,14,17H,1-5,10-13H2,(H2,22,23)
InChIKey=DXPLBTVLUATXKU-UHFFFAOYSA-N

> <PUBCHEM_SUBSTANCE_SYNONYM>
SCHEMBL16108217

> <PUBCHEM_XREF_EXT_ID>
SCHEMBL16108217

> <PUBCHEM_EXT_DATASOURCE_URL>
https://www.surechembl.org/

> <PUBCHEM_EXT_SUBSTANCE_URL>
https://www.surechembl.org/chemical/SCHEMBL16108217

> <PUBCHEM_CID_ASSOCIATIONS>
86274554  1

> <PUBCHEM_COORDINATE_TYPE>
1
3

$$$$
