310936371
  -OEChem-07211613022D

 27 30  0     1  0  0  0  0  0999 V2000
    1.2306   -4.5543    0.0000 F   0  0  0  0  0  0  0  0  0  0  0  0
   -1.7331   -3.7980    0.0000 O   0  0  0  0  0  0  0  0  0  0  0  0
   -2.3143   -2.4926    0.0000 O   0  0  0  0  0  0  0  0  0  0  0  0
    2.8579   -1.6500    0.0000 N   0  0  0  0  0  0  0  0  0  0  0  0
    2.8579    0.0000    0.0000 N   0  0  0  0  0  0  0  0  0  0  0  0
   -0.8932   -2.6420    0.0000 C   0  0  3  0  0  0  0  0  0  0  0  0
   -0.6383   -3.4266    0.0000 C   0  0  0  0  0  0  0  0  0  0  0  0
   -0.0862   -2.4705    0.0000 C   0  0  0  0  0  0  0  0  0  0  0  0
    0.0000   -1.6500    0.0000 C   0  0  0  0  0  0  0  0  0  0  0  0
   -1.3057   -1.9275    0.0000 C   0  0  0  0  0  0  0  0  0  0  0  0
   -1.6469   -2.9776    0.0000 C   0  0  0  0  0  0  0  0  0  0  0  0
    0.1687   -3.5982    0.0000 C   0  0  0  0  0  0  0  0  0  0  0  0
    0.7145   -1.2375    0.0000 C   0  0  0  0  0  0  0  0  0  0  0  0
   -0.7537   -1.3144    0.0000 C   0  0  0  0  0  0  0  0  0  0  0  0
   -1.1903   -4.0397    0.0000 C   0  0  0  0  0  0  0  0  0  0  0  0
    0.4236   -4.3828    0.0000 C   0  0  0  0  0  0  0  0  0  0  0  0
   -0.9354   -4.8243    0.0000 C   0  0  0  0  0  0  0  0  0  0  0  0
    1.4289   -1.6500    0.0000 C   0  0  0  0  0  0  0  0  0  0  0  0
    2.1434   -1.2375    0.0000 C   0  0  0  0  0  0  0  0  0  0  0  0
    0.7145   -0.4125    0.0000 C   0  0  0  0  0  0  0  0  0  0  0  0
   -0.1284   -4.9959    0.0000 C   0  0  0  0  0  0  0  0  0  0  0  0
    2.1434   -0.4125    0.0000 C   0  0  0  0  0  0  0  0  0  0  0  0
    1.4289    0.0000    0.0000 C   0  0  0  0  0  0  0  0  0  0  0  0
    0.7207   -2.9851    0.0000 C   0  0  0  0  0  0  0  0  0  0  0  0
   -1.4874   -5.4374    0.0000 C   0  0  0  0  0  0  0  0  0  0  0  0
    3.5724   -1.2375    0.0000 C   0  0  0  0  0  0  0  0  0  0  0  0
    3.5724   -0.4125    0.0000 C   0  0  0  0  0  0  0  0  0  0  0  0
  1 16  1  0  0  0  0
  2 11  2  0  0  0  0
  3 11  1  0  0  0  0
  4 19  1  0  0  0  0
  4 26  2  0  0  0  0
  5 22  1  0  0  0  0
  5 27  2  0  0  0  0
  6  7  1  0  0  0  0
  6  8  1  0  0  0  0
  6 10  1  0  0  0  0
  6 11  1  0  0  0  0
  7 12  2  0  0  0  0
  7 15  1  0  0  0  0
  8  9  2  0  0  0  0
  9 13  1  0  0  0  0
  9 14  1  0  0  0  0
 10 14  1  0  0  0  0
 12 16  1  0  0  0  0
 12 24  1  0  0  0  0
 13 18  1  0  0  0  0
 13 20  2  0  0  0  0
 15 17  2  0  0  0  0
 16 21  2  0  0  0  0
 17 21  1  0  0  0  0
 17 25  1  0  0  0  0
 18 19  2  0  0  0  0
 19 22  1  0  0  0  0
 20 23  1  0  0  0  0
 22 23  2  0  0  0  0
 26 27  1  0  0  0  0
M  END
> <PUBCHEM_COMPOUND_ID_TYPE>
0

> <PUBCHEM_TOTAL_CHARGE>
0

> <PUBCHEM_SUBSTANCE_ID>
310936371

> <PUBCHEM_SUBSTANCE_VERSION>
1

> <PUBCHEM_EXT_DATASOURCE_NAME>
4488

> <PUBCHEM_EXT_DATASOURCE_REGID>
SCHEMBL16114008

> <PUBCHEM_SUBSTANCE_COMMENT>
InChI=1S/C22H19FN2O2/c1-13-9-17(14(2)18(23)10-13)22(21(26)27)6-5-16(12-22)15-3-4-19-20(11-15)25-8-7-24-19/h3-4,7-12H,5-6H2,1-2H3,(H,26,27)
InChIKey=VDYGZAUMEXTXKT-UHFFFAOYSA-N

> <PUBCHEM_SUBSTANCE_SYNONYM>
SCHEMBL16114008

> <PUBCHEM_XREF_EXT_ID>
SCHEMBL16114008

> <PUBCHEM_EXT_DATASOURCE_URL>
https://www.surechembl.org/

> <PUBCHEM_EXT_SUBSTANCE_URL>
https://www.surechembl.org/chemical/SCHEMBL16114008

> <PUBCHEM_CID_ASSOCIATIONS>
117604313  1

> <PUBCHEM_COORDINATE_TYPE>
1
3

$$$$
