310936449
  -OEChem-07211613022D

 29 32  0     1  0  0  0  0  0999 V2000
    0.3340    1.8326    0.0000 O   0  0  0  0  0  0  0  0  0  0  0  0
    1.7629    1.8326    0.0000 O   0  0  0  0  0  0  0  0  0  0  0  0
   -2.2935    7.2006    0.0000 N   0  0  3  0  0  0  0  0  0  0  0  0
    1.0484    3.0701    0.0000 N   0  0  0  0  0  0  0  0  0  0  0  0
    2.4774    3.0701    0.0000 N   0  0  0  0  0  0  0  0  0  0  0  0
   -1.5287    4.8467    0.0000 C   0  0  3  0  0  0  0  0  0  0  0  0
   -1.2737    4.0621    0.0000 C   0  0  3  0  0  0  0  0  0  0  0  0
   -0.9766    5.4598    0.0000 C   0  0  3  0  0  0  0  0  0  0  0  0
   -0.4667    3.8905    0.0000 C   0  0  3  0  0  0  0  0  0  0  0  0
   -1.2316    6.2444    0.0000 C   0  0  3  0  0  0  0  0  0  0  0  0
   -2.0385    6.4159    0.0000 C   0  0  3  0  0  0  0  0  0  0  0  0
   -0.3805    3.0701    0.0000 C   0  0  3  0  0  0  0  0  0  0  0  0
   -0.1696    5.2883    0.0000 C   0  0  0  0  0  0  0  0  0  0  0  0
   -2.3356    5.0182    0.0000 C   0  0  0  0  0  0  0  0  0  0  0  0
    0.0853    4.5036    0.0000 C   0  0  0  0  0  0  0  0  0  0  0  0
   -1.6862    3.3476    0.0000 C   0  0  0  0  0  0  0  0  0  0  0  0
   -2.5906    5.8028    0.0000 C   0  0  0  0  0  0  0  0  0  0  0  0
   -1.1342    2.7345    0.0000 C   0  0  0  0  0  0  0  0  0  0  0  0
    0.3340    2.6576    0.0000 C   0  0  0  0  0  0  0  0  0  0  0  0
   -0.6795    6.8575    0.0000 C   0  0  0  0  0  0  0  0  0  0  0  0
   -1.7414    7.8137    0.0000 C   0  0  0  0  0  0  0  0  0  0  0  0
   -3.1004    7.3721    0.0000 C   0  0  0  0  0  0  0  0  0  0  0  0
   -0.9345    7.6421    0.0000 C   0  0  0  0  0  0  0  0  0  0  0  0
    1.7629    2.6576    0.0000 C   0  0  0  0  0  0  0  0  0  0  0  0
   -3.3554    8.1567    0.0000 C   0  0  0  0  0  0  0  0  0  0  0  0
   -3.6525    6.7590    0.0000 C   0  0  0  0  0  0  0  0  0  0  0  0
    3.1918    2.6576    0.0000 C   0  0  0  0  0  0  0  0  0  0  0  0
    3.9063    3.0701    0.0000 C   0  0  0  0  0  0  0  0  0  0  0  0
    3.1918    1.8326    0.0000 C   0  0  0  0  0  0  0  0  0  0  0  0
  1 19  2  0  0  0  0
  2 24  2  0  0  0  0
  3 11  1  0  0  0  0
  3 21  1  0  0  0  0
  3 22  1  0  0  0  0
  4 19  1  0  0  0  0
  4 24  1  0  0  0  0
  5 24  1  0  0  0  0
  5 27  1  0  0  0  0
  6  7  1  0  0  0  0
  6  8  1  0  0  0  0
  6 14  1  0  0  0  0
  7  9  1  0  0  0  0
  7 16  1  0  0  0  0
  8 10  1  0  0  0  0
  8 13  1  0  0  0  0
  9 12  1  0  0  0  0
  9 15  1  0  0  0  0
 10 11  1  0  0  0  0
 10 20  1  0  0  0  0
 11 17  1  0  0  0  0
 12 18  1  0  0  0  0
 12 19  1  0  0  0  0
 13 15  1  0  0  0  0
 14 17  1  0  0  0  0
 16 18  1  0  0  0  0
 20 23  1  0  0  0  0
 21 23  1  0  0  0  0
 22 25  1  0  0  0  0
 22 26  1  0  0  0  0
 27 28  1  0  0  0  0
 27 29  1  0  0  0  0
M  END
> <PUBCHEM_COMPOUND_ID_TYPE>
0

> <PUBCHEM_TOTAL_CHARGE>
0

> <PUBCHEM_SUBSTANCE_ID>
310936449

> <PUBCHEM_SUBSTANCE_VERSION>
1

> <PUBCHEM_EXT_DATASOURCE_NAME>
4488

> <PUBCHEM_EXT_DATASOURCE_REGID>
SCHEMBL16114091

> <PUBCHEM_SUBSTANCE_COMMENT>
InChI=1S/C24H41N3O2/c1-14(2)25-24(29)26-23(28)21-10-9-16-17-11-12-22-20(18(17)7-8-19(16)21)6-5-13-27(22)15(3)4/h14-22H,5-13H2,1-4H3,(H2,25,26,28,29)
InChIKey=PNOTYOFWODIDNS-UHFFFAOYSA-N

> <PUBCHEM_SUBSTANCE_SYNONYM>
SCHEMBL16114091

> <PUBCHEM_XREF_EXT_ID>
SCHEMBL16114091

> <PUBCHEM_EXT_DATASOURCE_URL>
https://www.surechembl.org/

> <PUBCHEM_EXT_SUBSTANCE_URL>
https://www.surechembl.org/chemical/SCHEMBL16114091

> <PUBCHEM_CID_ASSOCIATIONS>
117604382  1

> <PUBCHEM_COORDINATE_TYPE>
1
3

$$$$
