310935440
  -OEChem-07211613022D

 38 43  0     1  0  0  0  0  0999 V2000
    3.6216   -0.4280    0.0000 O   0  0  0  0  0  0  0  0  0  0  0  0
    9.3173   -6.1566    0.0000 O   0  0  0  0  0  0  0  0  0  0  0  0
    2.1400   -5.3335    0.0000 N   0  0  3  0  0  0  0  0  0  0  0  0
    0.7243   -5.3665    0.0000 N   0  0  0  0  0  0  0  0  0  0  0  0
    0.0000   -4.1154    0.0000 N   0  0  0  0  0  0  0  0  0  0  0  0
    3.5557   -2.8972    0.0000 N   0  0  0  0  0  0  0  0  0  0  0  0
    4.2800   -1.6791    0.0000 N   0  0  0  0  0  0  0  0  0  0  0  0
    5.7286   -4.9385    0.0000 N   0  0  0  0  0  0  0  0  0  0  0  0
    7.8686   -5.3335    0.0000 N   0  0  0  0  0  0  0  0  0  0  0  0
    1.4486   -4.1154    0.0000 C   0  0  0  0  0  0  0  0  0  0  0  0
    1.4486   -4.9385    0.0000 C   0  0  0  0  0  0  0  0  0  0  0  0
    0.7243   -3.6874    0.0000 C   0  0  0  0  0  0  0  0  0  0  0  0
    2.1400   -2.8972    0.0000 C   0  0  0  0  0  0  0  0  0  0  0  0
    0.7243   -2.8972    0.0000 C   0  0  0  0  0  0  0  0  0  0  0  0
    2.1400   -3.7203    0.0000 C   0  0  0  0  0  0  0  0  0  0  0  0
    1.4486   -2.4692    0.0000 C   0  0  0  0  0  0  0  0  0  0  0  0
    3.5887   -5.3335    0.0000 C   0  0  0  0  0  0  0  0  0  0  0  0
    2.8643   -2.4692    0.0000 C   0  0  0  0  0  0  0  0  0  0  0  0
    2.8643   -4.9385    0.0000 C   0  0  0  0  0  0  0  0  0  0  0  0
    3.5887   -6.1566    0.0000 C   0  0  0  0  0  0  0  0  0  0  0  0
    2.1400   -6.1566    0.0000 C   0  0  0  0  0  0  0  0  0  0  0  0
    0.0000   -4.9385    0.0000 C   0  0  0  0  0  0  0  0  0  0  0  0
    2.8643   -6.5846    0.0000 C   0  0  0  0  0  0  0  0  0  0  0  0
    4.2800   -4.9385    0.0000 C   0  0  0  0  0  0  0  0  0  0  0  0
    2.8643   -1.6462    0.0000 C   0  0  0  0  0  0  0  0  0  0  0  0
    5.0043   -5.3335    0.0000 C   0  0  0  0  0  0  0  0  0  0  0  0
    4.2800   -6.5846    0.0000 C   0  0  0  0  0  0  0  0  0  0  0  0
    0.0000   -2.4692    0.0000 C   0  0  0  0  0  0  0  0  0  0  0  0
    3.5887   -1.2511    0.0000 C   0  0  0  0  0  0  0  0  0  0  0  0
    5.0043   -6.1566    0.0000 C   0  0  0  0  0  0  0  0  0  0  0  0
    4.3129   -2.5022    0.0000 C   0  0  0  0  0  0  0  0  0  0  0  0
    6.4530   -5.3335    0.0000 C   0  0  0  0  0  0  0  0  0  0  0  0
    7.1443   -4.9385    0.0000 C   0  0  0  0  0  0  0  0  0  0  0  0
    2.8972    0.0000    0.0000 C   0  0  0  0  0  0  0  0  0  0  0  0
    8.5930   -4.9385    0.0000 C   0  0  0  0  0  0  0  0  0  0  0  0
    7.8686   -6.1566    0.0000 C   0  0  0  0  0  0  0  0  0  0  0  0
    8.5930   -6.5846    0.0000 C   0  0  0  0  0  0  0  0  0  0  0  0
    9.3173   -5.3335    0.0000 C   0  0  0  0  0  0  0  0  0  0  0  0
  1 29  1  0  0  0  0
  1 34  1  0  0  0  0
  2 37  1  0  0  0  0
  2 38  1  0  0  0  0
  3 11  1  0  0  0  0
  3 19  1  0  0  0  0
  3 21  1  0  0  0  0
  4 11  1  0  0  0  0
  4 22  2  0  0  0  0
  5 12  2  0  0  0  0
  5 22  1  0  0  0  0
  6 18  2  0  0  0  0
  6 31  1  0  0  0  0
  7 29  1  0  0  0  0
  7 31  2  0  0  0  0
  8 26  1  0  0  0  0
  8 32  1  0  0  0  0
  9 33  1  0  0  0  0
  9 35  1  0  0  0  0
  9 36  1  0  0  0  0
 10 11  2  0  0  0  0
 10 12  1  0  0  0  0
 10 15  1  0  0  0  0
 12 14  1  0  0  0  0
 13 15  2  0  0  0  0
 13 16  1  0  0  0  0
 13 18  1  0  0  0  0
 14 16  2  0  0  0  0
 14 28  1  0  0  0  0
 17 19  1  0  0  0  0
 17 20  2  0  0  0  0
 17 24  1  0  0  0  0
 18 25  1  0  0  0  0
 20 23  1  0  0  0  0
 20 27  1  0  0  0  0
 21 23  1  0  0  0  0
 24 26  2  0  0  0  0
 25 29  2  0  0  0  0
 26 30  1  0  0  0  0
 27 30  2  0  0  0  0
 32 33  1  0  0  0  0
 35 38  1  0  0  0  0
 36 37  1  0  0  0  0
M  END
> <PUBCHEM_COMPOUND_ID_TYPE>
0

> <PUBCHEM_TOTAL_CHARGE>
0

> <PUBCHEM_SUBSTANCE_ID>
310935440

> <PUBCHEM_SUBSTANCE_VERSION>
1

> <PUBCHEM_EXT_DATASOURCE_NAME>
4488

> <PUBCHEM_EXT_DATASOURCE_REGID>
SCHEMBL16112984

> <PUBCHEM_SUBSTANCE_COMMENT>
InChI=1S/C29H33N7O2/c1-20-13-22(26-16-27(37-2)32-18-31-26)15-25-28(20)33-19-34-29(25)36-7-5-21-3-4-24(14-23(21)17-36)30-6-8-35-9-11-38-12-10-35/h3-4,13-16,18-19,30H,5-12,17H2,1-2H3
InChIKey=NTLRXMBROPMMRF-UHFFFAOYSA-N

> <PUBCHEM_SUBSTANCE_SYNONYM>
SCHEMBL16112984

> <PUBCHEM_XREF_EXT_ID>
SCHEMBL16112984

> <PUBCHEM_EXT_DATASOURCE_URL>
https://www.surechembl.org/

> <PUBCHEM_EXT_SUBSTANCE_URL>
https://www.surechembl.org/chemical/SCHEMBL16112984

> <PUBCHEM_CID_ASSOCIATIONS>
117603481  1

> <PUBCHEM_COORDINATE_TYPE>
1
3

$$$$
