310931853
  -OEChem-07211613022D

 16 15  0     1  0  0  0  0  0999 V2000
    5.2882    2.7928    0.0000 N   0  0  0  0  0  0  0  0  0  0  0  0
    5.0181    3.5724    0.0000 C   0  0  0  0  0  0  0  0  0  0  0  0
    4.7481    4.3519    0.0000 C   0  0  3  0  0  0  0  0  0  0  0  0
    3.9379    4.5078    0.0000 C   0  0  0  0  0  0  0  0  0  0  0  0
    5.2882    4.9755    0.0000 C   0  0  0  0  0  0  0  0  0  0  0  0
    4.2386    3.3023    0.0000 C   0  0  0  0  0  0  0  0  0  0  0  0
    5.7977    3.8424    0.0000 C   0  0  0  0  0  0  0  0  0  0  0  0
    3.3979    3.8842    0.0000 C   0  0  0  0  0  0  0  0  0  0  0  0
    6.0983    4.8196    0.0000 C   0  0  0  0  0  0  0  0  0  0  0  0
    2.5877    4.0401    0.0000 C   0  0  0  0  0  0  0  0  0  0  0  0
    6.6384    5.4433    0.0000 C   0  0  0  0  0  0  0  0  0  0  0  0
    2.0476    3.4164    0.0000 C   0  0  0  0  0  0  0  0  0  0  0  0
    7.4485    5.2874    0.0000 C   0  0  0  0  0  0  0  0  0  0  0  0
    1.2375    3.5724    0.0000 C   0  0  0  0  0  0  0  0  0  0  0  0
    7.9886    5.9110    0.0000 C   0  0  0  0  0  0  0  0  0  0  0  0
    0.6974    2.9487    0.0000 C   0  0  0  0  0  0  0  0  0  0  0  0
  1  2  1  0  0  0  0
  2  3  1  0  0  0  0
  2  6  1  0  0  0  0
  2  7  1  0  0  0  0
  3  4  1  0  0  0  0
  3  5  1  0  0  0  0
  4  8  1  0  0  0  0
  5  9  1  0  0  0  0
  8 10  1  0  0  0  0
  9 11  1  0  0  0  0
 10 12  1  0  0  0  0
 11 13  1  0  0  0  0
 12 14  1  0  0  0  0
 13 15  1  0  0  0  0
 14 16  1  0  0  0  0
M  END
> <PUBCHEM_COMPOUND_ID_TYPE>
0

> <PUBCHEM_TOTAL_CHARGE>
0

> <PUBCHEM_SUBSTANCE_ID>
310931853

> <PUBCHEM_SUBSTANCE_VERSION>
1

> <PUBCHEM_EXT_DATASOURCE_NAME>
4488

> <PUBCHEM_EXT_DATASOURCE_REGID>
SCHEMBL16109187

> <PUBCHEM_SUBSTANCE_COMMENT>
InChI=1S/C15H33N/c1-5-7-9-11-13-14(15(3,4)16)12-10-8-6-2/h14H,5-13,16H2,1-4H3
InChIKey=LLIOKWNGXAQDOZ-UHFFFAOYSA-N

> <PUBCHEM_SUBSTANCE_SYNONYM>
SCHEMBL16109187

> <PUBCHEM_XREF_EXT_ID>
SCHEMBL16109187

> <PUBCHEM_EXT_DATASOURCE_URL>
https://www.surechembl.org/

> <PUBCHEM_EXT_SUBSTANCE_URL>
https://www.surechembl.org/chemical/SCHEMBL16109187

> <PUBCHEM_CID_ASSOCIATIONS>
117600521  1

> <PUBCHEM_COORDINATE_TYPE>
1
3

$$$$
