310937887
  -OEChem-07211613022D

 29 32  0     1  0  0  0  0  0999 V2000
    0.7660   -0.8579    0.0000 F   0  0  0  0  0  0  0  0  0  0  0  0
    1.4708   -2.0836    0.0000 F   0  0  0  0  0  0  0  0  0  0  0  0
    1.4708   -0.4290    0.0000 F   0  0  0  0  0  0  0  0  0  0  0  0
    3.5544    0.0000    0.0000 O   0  0  0  0  0  0  0  0  0  0  0  0
    2.8803   -1.2256    0.0000 N   0  0  0  0  0  0  0  0  0  0  0  0
    5.0865   -2.3288    0.0000 N   0  0  0  0  0  0  0  0  0  0  0  0
    2.8803   -3.6770    0.0000 N   0  0  0  0  0  0  0  0  0  0  0  0
    5.5461   -1.6546    0.0000 N   0  0  0  0  0  0  0  0  0  0  0  0
    2.1449   -4.9027    0.0000 N   0  0  3  0  0  0  0  0  0  0  0  0
    0.7354   -4.9027    0.0000 N   0  0  0  0  0  0  0  0  0  0  0  0
    2.8803   -2.0836    0.0000 C   0  0  0  0  0  0  0  0  0  0  0  0
    3.5544   -2.4820    0.0000 C   0  0  0  0  0  0  0  0  0  0  0  0
    4.2898   -2.0836    0.0000 C   0  0  0  0  0  0  0  0  0  0  0  0
    4.2898   -1.2256    0.0000 C   0  0  0  0  0  0  0  0  0  0  0  0
    3.5544   -0.8273    0.0000 C   0  0  0  0  0  0  0  0  0  0  0  0
    2.1755   -2.4820    0.0000 C   0  0  0  0  0  0  0  0  0  0  0  0
    2.1755   -3.2480    0.0000 C   0  0  0  0  0  0  0  0  0  0  0  0
    3.5544   -3.2480    0.0000 C   0  0  0  0  0  0  0  0  0  0  0  0
    2.1755   -0.8273    0.0000 C   0  0  0  0  0  0  0  0  0  0  0  0
    5.0865   -0.9805    0.0000 C   0  0  0  0  0  0  0  0  0  0  0  0
    1.4402   -3.6770    0.0000 C   0  0  0  0  0  0  0  0  0  0  0  0
    1.4708   -1.2563    0.0000 C   0  0  0  0  0  0  0  0  0  0  0  0
    1.4402   -4.5043    0.0000 C   0  0  0  0  0  0  0  0  0  0  0  0
    0.7354   -3.2786    0.0000 C   0  0  0  0  0  0  0  0  0  0  0  0
    0.0307   -3.6770    0.0000 C   0  0  0  0  0  0  0  0  0  0  0  0
    0.0000   -4.5043    0.0000 C   0  0  0  0  0  0  0  0  0  0  0  0
    2.1143   -5.7299    0.0000 C   0  0  0  0  0  0  0  0  0  0  0  0
    2.8190   -4.5043    0.0000 C   0  0  0  0  0  0  0  0  0  0  0  0
    2.8190   -6.1283    0.0000 C   0  0  0  0  0  0  0  0  0  0  0  0
  1 22  1  0  0  0  0
  2 22  1  0  0  0  0
  3 22  1  0  0  0  0
  4 15  2  0  0  0  0
  5 11  1  0  0  0  0
  5 15  1  0  0  0  0
  5 19  1  0  0  0  0
  6  8  1  0  0  0  0
  6 13  1  0  0  0  0
  7 17  2  0  0  0  0
  7 18  1  0  0  0  0
  8 20  2  0  0  0  0
  9 23  1  0  0  0  0
  9 27  1  0  0  0  0
  9 28  1  0  0  0  0
 10 23  1  0  0  0  0
 10 26  2  0  0  0  0
 11 12  1  0  0  0  0
 11 16  2  0  0  0  0
 12 13  1  0  0  0  0
 12 18  2  0  0  0  0
 13 14  2  0  0  0  0
 14 15  1  0  0  0  0
 14 20  1  0  0  0  0
 16 17  1  0  0  0  0
 17 21  1  0  0  0  0
 19 22  1  0  0  0  0
 21 23  2  0  0  0  0
 21 24  1  0  0  0  0
 24 25  2  0  0  0  0
 25 26  1  0  0  0  0
 27 29  1  0  0  0  0
M  END
> <PUBCHEM_COMPOUND_ID_TYPE>
0

> <PUBCHEM_TOTAL_CHARGE>
0

> <PUBCHEM_SUBSTANCE_ID>
310937887

> <PUBCHEM_SUBSTANCE_VERSION>
1

> <PUBCHEM_EXT_DATASOURCE_NAME>
4488

> <PUBCHEM_EXT_DATASOURCE_REGID>
SCHEMBL16115714

> <PUBCHEM_SUBSTANCE_COMMENT>
InChI=1S/C19H17F3N6O/c1-3-27(2)17-11(5-4-6-23-17)14-7-15-12(8-24-14)16-13(9-25-26-16)18(29)28(15)10-19(20,21)22/h4-9H,3,10H2,1-2H3,(H,25,26)
InChIKey=RRNQLUMOONSKAS-UHFFFAOYSA-N

> <PUBCHEM_SUBSTANCE_SYNONYM>
SCHEMBL16115714

> <PUBCHEM_XREF_EXT_ID>
SCHEMBL16115714

> <PUBCHEM_EXT_DATASOURCE_URL>
https://www.surechembl.org/

> <PUBCHEM_EXT_SUBSTANCE_URL>
https://www.surechembl.org/chemical/SCHEMBL16115714

> <PUBCHEM_CID_ASSOCIATIONS>
86298830  1

> <PUBCHEM_COORDINATE_TYPE>
1
3

$$$$
