310936299
  -OEChem-07211613022D

 37 39  0     1  0  0  0  0  0999 V2000
    4.3420   -6.5998    0.0000 O   0  0  0  0  0  0  0  0  0  0  0  0
    1.5631   -6.6432    0.0000 O   0  0  0  0  0  0  0  0  0  0  0  0
    5.7748   -7.3813    0.0000 O   0  0  0  0  0  0  0  0  0  0  0  0
    6.4696   -6.1656    0.0000 O   0  0  0  0  0  0  0  0  0  0  0  0
    4.3854   -4.1249    0.0000 N   0  0  0  0  0  0  0  0  0  0  0  0
    3.6907   -5.3840    0.0000 N   0  0  0  0  0  0  0  0  0  0  0  0
    5.8182   -4.1249    0.0000 N   0  0  0  0  0  0  0  0  0  0  0  0
    3.7775   -3.5604    0.0000 N   0  0  0  0  0  0  0  0  0  0  0  0
    3.6907   -2.1276    0.0000 N   0  0  0  0  0  0  0  0  0  0  0  0
    4.3854   -4.9498    0.0000 C   0  0  0  0  0  0  0  0  0  0  0  0
    5.0801   -5.3406    0.0000 C   0  0  0  0  0  0  0  0  0  0  0  0
    5.0801   -3.6907    0.0000 C   0  0  0  0  0  0  0  0  0  0  0  0
    5.8182   -4.9064    0.0000 C   0  0  0  0  0  0  0  0  0  0  0  0
    5.0801   -6.1656    0.0000 C   0  0  3  0  0  0  0  0  0  0  0  0
    4.0815   -2.8223    0.0000 C   0  0  0  0  0  0  0  0  0  0  0  0
    4.9064   -2.9091    0.0000 C   0  0  0  0  0  0  0  0  0  0  0  0
    3.6907   -6.2090    0.0000 C   0  0  0  0  0  0  0  0  0  0  0  0
    2.9959   -4.9498    0.0000 C   0  0  0  0  0  0  0  0  0  0  0  0
    5.7748   -6.5998    0.0000 C   0  0  0  0  0  0  0  0  0  0  0  0
    2.3013   -6.2090    0.0000 C   0  0  0  0  0  0  0  0  0  0  0  0
    2.9959   -6.5998    0.0000 C   0  0  0  0  0  0  0  0  0  0  0  0
    2.2578   -5.3840    0.0000 C   0  0  0  0  0  0  0  0  0  0  0  0
    6.5130   -5.3406    0.0000 C   0  0  0  0  0  0  0  0  0  0  0  0
    4.3420   -7.3813    0.0000 C   0  0  0  0  0  0  0  0  0  0  0  0
    1.5631   -5.8182    0.0000 C   0  0  0  0  0  0  0  0  0  0  0  0
    2.8657   -2.1276    0.0000 C   0  0  0  0  0  0  0  0  0  0  0  0
    4.3420   -8.2063    0.0000 C   0  0  0  0  0  0  0  0  0  0  0  0
    3.5170   -7.3813    0.0000 C   0  0  0  0  0  0  0  0  0  0  0  0
    5.1669   -7.4248    0.0000 C   0  0  0  0  0  0  0  0  0  0  0  0
    1.6065   -7.4248    0.0000 C   0  0  0  0  0  0  0  0  0  0  0  0
    2.4749   -1.3894    0.0000 C   0  0  0  0  0  0  0  0  0  0  0  0
    0.9118   -7.8590    0.0000 C   0  0  0  0  0  0  0  0  0  0  0  0
    1.6499   -1.4328    0.0000 C   0  0  0  0  0  0  0  0  0  0  0  0
    0.9118   -8.6839    0.0000 C   0  0  0  0  0  0  0  0  0  0  0  0
    1.2157   -0.6947    0.0000 C   0  0  0  0  0  0  0  0  0  0  0  0
    0.3908   -0.6947    0.0000 C   0  0  0  0  0  0  0  0  0  0  0  0
    0.0000    0.0000    0.0000 C   0  0  0  0  0  0  0  0  0  0  0  0
  1 14  1  0  0  0  0
  1 24  1  0  0  0  0
  2 20  1  0  0  0  0
  2 30  1  0  0  0  0
  3 19  2  0  0  0  0
  4 19  1  0  0  0  0
  5  8  1  0  0  0  0
  5 10  1  0  0  0  0
  5 12  1  0  0  0  0
  6 10  1  0  0  0  0
  6 17  1  0  0  0  0
  6 18  1  0  0  0  0
  7 12  1  0  0  0  0
  7 13  2  0  0  0  0
  8 15  2  0  0  0  0
  9 15  1  0  0  0  0
  9 26  1  0  0  0  0
 10 11  2  0  0  0  0
 11 13  1  0  0  0  0
 11 14  1  0  0  0  0
 12 16  2  0  0  0  0
 13 23  1  0  0  0  0
 14 19  1  0  0  0  0
 15 16  1  0  0  0  0
 17 21  1  0  0  0  0
 18 22  1  0  0  0  0
 20 21  1  0  0  0  0
 20 22  1  0  0  0  0
 20 25  1  0  0  0  0
 24 27  1  0  0  0  0
 24 28  1  0  0  0  0
 24 29  1  0  0  0  0
 26 31  1  0  0  0  0
 30 32  1  0  0  0  0
 31 33  1  0  0  0  0
 32 34  2  0  0  0  0
 33 35  1  0  0  0  0
 35 36  1  0  0  0  0
 36 37  2  0  0  0  0
M  END
> <PUBCHEM_COMPOUND_ID_TYPE>
0

> <PUBCHEM_TOTAL_CHARGE>
0

> <PUBCHEM_SUBSTANCE_ID>
310936299

> <PUBCHEM_SUBSTANCE_VERSION>
1

> <PUBCHEM_EXT_DATASOURCE_NAME>
4488

> <PUBCHEM_EXT_DATASOURCE_REGID>
SCHEMBL16113923

> <PUBCHEM_SUBSTANCE_COMMENT>
InChI=1S/C28H43N5O4/c1-8-10-11-12-15-29-21-19-22-30-20(3)23(24(26(34)35)37-27(4,5)6)25(33(22)31-21)32-16-13-28(7,14-17-32)36-18-9-2/h8-9,19,24H,1-2,10-18H2,3-7H3,(H,29,31)(H,34,35)
InChIKey=PTNPHDQXUCXAHO-UHFFFAOYSA-N

> <PUBCHEM_SUBSTANCE_SYNONYM>
SCHEMBL16113923

> <PUBCHEM_XREF_EXT_ID>
SCHEMBL16113923

> <PUBCHEM_EXT_DATASOURCE_URL>
https://www.surechembl.org/

> <PUBCHEM_EXT_SUBSTANCE_URL>
https://www.surechembl.org/chemical/SCHEMBL16113923

> <PUBCHEM_CID_ASSOCIATIONS>
117604242  1

> <PUBCHEM_COORDINATE_TYPE>
1
3

$$$$
