310933925
  -OEChem-07211613022D

 47 52  0     1  0  0  0  0  0999 V2000
    7.4735   -0.5823    0.0000 Cl  0  0  0  0  0  0  0  0  0  0  0  0
    6.7941   -2.0867    0.0000 F   0  0  0  0  0  0  0  0  0  0  0  0
    2.8632   -3.2029    0.0000 O   0  0  0  0  0  0  0  0  0  0  0  0
    4.9986   -3.6397    0.0000 O   0  0  0  0  0  0  0  0  0  0  0  0
    2.1353   -6.8427    0.0000 O   0  0  0  0  0  0  0  0  0  0  0  0
    8.5412   -2.3780    0.0000 O   0  0  0  0  0  0  0  0  0  0  0  0
    9.2691   -3.6397    0.0000 O   0  0  0  0  0  0  0  0  0  0  0  0
    3.5912   -4.4162    0.0000 N   0  0  0  0  0  0  0  0  0  0  0  0
    5.1927   -2.2324    0.0000 N   0  0  0  0  0  0  0  0  0  0  0  0
    5.1927   -3.7368    0.0000 N   0  0  0  0  0  0  0  0  0  0  0  0
    5.6780   -4.8530    0.0000 N   0  0  0  0  0  0  0  0  0  0  0  0
    5.5809   -2.9603    0.0000 N   0  0  0  0  0  0  0  0  0  0  0  0
    2.8147   -8.1044    0.0000 N   0  0  0  0  0  0  0  0  0  0  0  0
    0.6794   -9.2691    0.0000 N   0  0  0  0  0  0  0  0  0  0  0  0
    4.2706   -4.8530    0.0000 C   0  0  3  0  0  0  0  0  0  0  0  0
    4.2706   -5.6780    0.0000 C   0  0  0  0  0  0  0  0  0  0  0  0
    3.5912   -6.0662    0.0000 C   0  0  0  0  0  0  0  0  0  0  0  0
    3.5912   -3.6397    0.0000 C   0  0  0  0  0  0  0  0  0  0  0  0
    3.5426   -6.8912    0.0000 C   0  0  0  0  0  0  0  0  0  0  0  0
    4.9986   -4.4647    0.0000 C   0  0  0  0  0  0  0  0  0  0  0  0
    4.3191   -3.2029    0.0000 C   0  0  0  0  0  0  0  0  0  0  0  0
    2.8632   -4.8530    0.0000 C   0  0  0  0  0  0  0  0  0  0  0  0
    2.8632   -5.6780    0.0000 C   0  0  0  0  0  0  0  0  0  0  0  0
    4.9986   -6.0662    0.0000 C   0  0  0  0  0  0  0  0  0  0  0  0
    2.8632   -7.2794    0.0000 C   0  0  0  0  0  0  0  0  0  0  0  0
    4.3676   -2.3780    0.0000 C   0  0  0  0  0  0  0  0  0  0  0  0
    4.2706   -7.2794    0.0000 C   0  0  0  0  0  0  0  0  0  0  0  0
    5.5324   -1.5044    0.0000 C   0  0  0  0  0  0  0  0  0  0  0  0
    4.9986   -6.8912    0.0000 C   0  0  0  0  0  0  0  0  0  0  0  0
    6.3088   -1.4073    0.0000 C   0  0  0  0  0  0  0  0  0  0  0  0
    6.4059   -4.4647    0.0000 C   0  0  0  0  0  0  0  0  0  0  0  0
    5.0470   -0.8250    0.0000 C   0  0  0  0  0  0  0  0  0  0  0  0
    6.6485   -0.6794    0.0000 C   0  0  0  0  0  0  0  0  0  0  0  0
    2.1353   -8.4926    0.0000 C   0  0  0  0  0  0  0  0  0  0  0  0
    5.3868   -0.0971    0.0000 C   0  0  0  0  0  0  0  0  0  0  0  0
    6.2118    0.0000    0.0000 C   0  0  0  0  0  0  0  0  0  0  0  0
    6.4059   -3.6397    0.0000 C   0  0  0  0  0  0  0  0  0  0  0  0
    7.1338   -4.8530    0.0000 C   0  0  0  0  0  0  0  0  0  0  0  0
    7.8132   -3.6397    0.0000 C   0  0  0  0  0  0  0  0  0  0  0  0
    7.1338   -3.2029    0.0000 C   0  0  0  0  0  0  0  0  0  0  0  0
    7.8132   -4.4647    0.0000 C   0  0  0  0  0  0  0  0  0  0  0  0
    1.4073   -8.0559    0.0000 C   0  0  0  0  0  0  0  0  0  0  0  0
    2.0867   -9.3177    0.0000 C   0  0  0  0  0  0  0  0  0  0  0  0
    8.5412   -3.2029    0.0000 C   0  0  0  0  0  0  0  0  0  0  0  0
    0.6794   -8.4441    0.0000 C   0  0  0  0  0  0  0  0  0  0  0  0
    1.4073   -9.7059    0.0000 C   0  0  0  0  0  0  0  0  0  0  0  0
    0.0000   -9.7059    0.0000 C   0  0  0  0  0  0  0  0  0  0  0  0
  1 33  1  0  0  0  0
  2 30  1  0  0  0  0
  3 18  2  0  0  0  0
  4 20  2  0  0  0  0
  5 25  2  0  0  0  0
  6 44  2  0  0  0  0
  7 44  1  0  0  0  0
  8 15  1  0  0  0  0
  8 18  1  0  0  0  0
  8 22  1  0  0  0  0
  9 12  1  0  0  0  0
  9 26  1  0  0  0  0
  9 28  1  0  0  0  0
 10 12  2  0  0  0  0
 10 21  1  0  0  0  0
 11 20  1  0  0  0  0
 11 31  1  0  0  0  0
 13 25  1  0  0  0  0
 13 34  1  0  0  0  0
 14 45  1  0  0  0  0
 14 46  1  0  0  0  0
 14 47  1  0  0  0  0
 15 16  1  0  0  0  0
 15 20  1  0  0  0  0
 16 17  2  0  0  0  0
 16 24  1  0  0  0  0
 17 19  1  0  0  0  0
 17 23  1  0  0  0  0
 18 21  1  0  0  0  0
 19 25  1  0  0  0  0
 19 27  2  0  0  0  0
 21 26  2  0  0  0  0
 22 23  1  0  0  0  0
 24 29  2  0  0  0  0
 27 29  1  0  0  0  0
 28 30  1  0  0  0  0
 28 32  2  0  0  0  0
 30 33  2  0  0  0  0
 31 37  2  0  0  0  0
 31 38  1  0  0  0  0
 32 35  1  0  0  0  0
 33 36  1  0  0  0  0
 34 42  1  0  0  0  0
 34 43  1  0  0  0  0
 35 36  2  0  0  0  0
 37 40  1  0  0  0  0
 38 41  2  0  0  0  0
 39 40  2  0  0  0  0
 39 41  1  0  0  0  0
 39 44  1  0  0  0  0
 42 45  1  0  0  0  0
 43 46  1  0  0  0  0
M  END
> <PUBCHEM_COMPOUND_ID_TYPE>
0

> <PUBCHEM_TOTAL_CHARGE>
0

> <PUBCHEM_SUBSTANCE_ID>
310933925

> <PUBCHEM_SUBSTANCE_VERSION>
1

> <PUBCHEM_EXT_DATASOURCE_NAME>
4488

> <PUBCHEM_EXT_DATASOURCE_REGID>
SCHEMBL16111364

> <PUBCHEM_SUBSTANCE_COMMENT>
InChI=1S/C33H31ClFN7O5/c1-40-15-12-21(13-16-40)36-30(43)24-5-2-4-23-22(24)14-17-41(29(23)31(44)37-20-10-8-19(9-11-20)33(46)47)32(45)26-18-42(39-38-26)27-7-3-6-25(34)28(27)35/h2-11,18,21,29H,12-17H2,1H3,(H,36,43)(H,37,44)(H,46,47)
InChIKey=LGQQAPCYXLKLHW-UHFFFAOYSA-N

> <PUBCHEM_SUBSTANCE_SYNONYM>
SCHEMBL16111364

> <PUBCHEM_XREF_EXT_ID>
SCHEMBL16111364

> <PUBCHEM_EXT_DATASOURCE_URL>
https://www.surechembl.org/

> <PUBCHEM_EXT_SUBSTANCE_URL>
https://www.surechembl.org/chemical/SCHEMBL16111364

> <PUBCHEM_CID_ASSOCIATIONS>
117602250  1

> <PUBCHEM_COORDINATE_TYPE>
1
3

$$$$
