310932791
  -OEChem-07211613022D

 32 36  0     1  0  0  0  0  0999 V2000
   -5.9266    0.3175    0.0000 O   0  0  0  0  0  0  0  0  0  0  0  0
   -2.1434    1.6500    0.0000 O   0  0  0  0  0  0  0  0  0  0  0  0
   -5.0013   -0.8250    0.0000 N   0  0  0  0  0  0  0  0  0  0  0  0
   -5.0876   -1.6455    0.0000 N   0  0  0  0  0  0  0  0  0  0  0  0
   -1.4290    0.4125    0.0000 N   0  0  0  0  0  0  0  0  0  0  0  0
   -3.5724   -0.8250    0.0000 N   0  0  0  0  0  0  0  0  0  0  0  0
    0.0000   -0.4125    0.0000 N   0  0  3  0  0  0  0  0  0  0  0  0
  -10.4095   -0.6714    0.0000 N   0  0  0  0  0  0  0  0  0  0  0  0
   -6.3071   -1.1026    0.0000 C   0  0  0  0  0  0  0  0  0  0  0  0
   -5.7550   -0.4895    0.0000 C   0  0  0  0  0  0  0  0  0  0  0  0
   -4.2869   -0.4125    0.0000 C   0  0  0  0  0  0  0  0  0  0  0  0
   -7.1276   -1.0163    0.0000 C   0  0  0  0  0  0  0  0  0  0  0  0
   -5.8946   -1.8170    0.0000 C   0  0  0  0  0  0  0  0  0  0  0  0
   -2.8579    0.4125    0.0000 C   0  0  0  0  0  0  0  0  0  0  0  0
   -2.1434    0.8250    0.0000 C   0  0  0  0  0  0  0  0  0  0  0  0
   -7.6125   -1.6838    0.0000 C   0  0  0  0  0  0  0  0  0  0  0  0
   -4.2869    0.4125    0.0000 C   0  0  0  0  0  0  0  0  0  0  0  0
    0.0000    0.4125    0.0000 C   0  0  3  0  0  0  0  0  0  0  0  0
   -2.8579   -0.4125    0.0000 C   0  0  0  0  0  0  0  0  0  0  0  0
   -3.5724    0.8250    0.0000 C   0  0  0  0  0  0  0  0  0  0  0  0
   -7.4632   -0.2626    0.0000 C   0  0  0  0  0  0  0  0  0  0  0  0
   -0.7145    0.8250    0.0000 C   0  0  0  0  0  0  0  0  0  0  0  0
   -1.4290   -0.4125    0.0000 C   0  0  0  0  0  0  0  0  0  0  0  0
   -8.4330   -1.5975    0.0000 C   0  0  0  0  0  0  0  0  0  0  0  0
   -0.7145   -0.8250    0.0000 C   0  0  0  0  0  0  0  0  0  0  0  0
   -8.7686   -0.8439    0.0000 C   0  0  0  0  0  0  0  0  0  0  0  0
   -8.2836   -0.1764    0.0000 C   0  0  0  0  0  0  0  0  0  0  0  0
    0.7846    0.6674    0.0000 C   0  0  0  0  0  0  0  0  0  0  0  0
    0.7846   -0.6674    0.0000 C   0  0  0  0  0  0  0  0  0  0  0  0
    1.2696    0.0000    0.0000 C   0  0  0  0  0  0  0  0  0  0  0  0
   -7.2770   -2.4374    0.0000 C   0  0  0  0  0  0  0  0  0  0  0  0
   -9.5890   -0.7576    0.0000 C   0  0  0  0  0  0  0  0  0  0  0  0
  1 10  1  0  0  0  0
  2 15  2  0  0  0  0
  3  4  1  0  0  0  0
  3 10  1  0  0  0  0
  3 11  1  0  0  0  0
  4 13  2  0  0  0  0
  5 15  1  0  0  0  0
  5 22  1  0  0  0  0
  5 23  1  0  0  0  0
  6 11  2  0  0  0  0
  6 19  1  0  0  0  0
  7 18  1  0  0  0  0
  7 25  1  0  0  0  0
  7 29  1  0  0  0  0
  8 32  3  0  0  0  0
  9 10  2  0  0  0  0
  9 12  1  0  0  0  0
  9 13  1  0  0  0  0
 11 17  1  0  0  0  0
 12 16  1  0  0  0  0
 12 21  2  0  0  0  0
 14 15  1  0  0  0  0
 14 19  2  0  0  0  0
 14 20  1  0  0  0  0
 16 24  2  0  0  0  0
 16 31  1  0  0  0  0
 17 20  2  0  0  0  0
 18 22  1  0  0  0  0
 18 28  1  0  0  0  0
 21 27  1  0  0  0  0
 23 25  1  0  0  0  0
 24 26  1  0  0  0  0
 26 27  2  0  0  0  0
 26 32  1  0  0  0  0
 28 30  1  0  0  0  0
 29 30  1  0  0  0  0
M  END
> <PUBCHEM_COMPOUND_ID_TYPE>
0

> <PUBCHEM_TOTAL_CHARGE>
0

> <PUBCHEM_SUBSTANCE_ID>
310932791

> <PUBCHEM_SUBSTANCE_VERSION>
1

> <PUBCHEM_EXT_DATASOURCE_NAME>
4488

> <PUBCHEM_EXT_DATASOURCE_REGID>
SCHEMBL16110178

> <PUBCHEM_SUBSTANCE_COMMENT>
InChI=1S/C24H24N6O2/c1-16-11-17(12-25)4-6-20(16)21-14-27-30(24(21)32)22-7-5-18(13-26-22)23(31)29-10-9-28-8-2-3-19(28)15-29/h4-7,11,13-14,19,32H,2-3,8-10,15H2,1H3
InChIKey=KTSOCPAMNDTSCP-UHFFFAOYSA-N

> <PUBCHEM_SUBSTANCE_SYNONYM>
SCHEMBL16110178

> <PUBCHEM_XREF_EXT_ID>
SCHEMBL16110178

> <PUBCHEM_EXT_DATASOURCE_URL>
https://www.surechembl.org/

> <PUBCHEM_EXT_SUBSTANCE_URL>
https://www.surechembl.org/chemical/SCHEMBL16110178

> <PUBCHEM_CID_ASSOCIATIONS>
117601283  1

> <PUBCHEM_COORDINATE_TYPE>
1
3

$$$$
