310939635
  -OEChem-07211613022D

 31 34  0     1  0  0  0  0  0999 V2000
    0.3572   -7.8018    0.0000 Cl  0  0  0  0  0  0  0  0  0  0  0  0
   -1.0717  -10.2768    0.0000 O   0  0  0  0  0  0  0  0  0  0  0  0
   -2.5006  -11.1018    0.0000 O   0  0  0  0  0  0  0  0  0  0  0  0
    2.5006   -9.8643    0.0000 N   0  0  0  0  0  0  0  0  0  0  0  0
    1.7862  -11.1018    0.0000 N   0  0  0  0  0  0  0  0  0  0  0  0
    2.5006  -12.3393    0.0000 N   0  0  0  0  0  0  0  0  0  0  0  0
   -3.9296  -10.2768    0.0000 N   0  0  0  0  0  0  0  0  0  0  0  0
    3.2151  -10.2768    0.0000 C   0  0  0  0  0  0  0  0  0  0  0  0
    1.7862  -10.2768    0.0000 C   0  0  0  0  0  0  0  0  0  0  0  0
    2.5006  -11.5143    0.0000 C   0  0  0  0  0  0  0  0  0  0  0  0
    3.9296   -9.8643    0.0000 C   0  0  0  0  0  0  0  0  0  0  0  0
    1.0717   -9.8643    0.0000 C   0  0  0  0  0  0  0  0  0  0  0  0
    3.2151  -11.1018    0.0000 C   0  0  0  0  0  0  0  0  0  0  0  0
    4.7546   -9.8643    0.0000 C   0  0  0  0  0  0  0  0  0  0  0  0
    4.3421   -9.1498    0.0000 C   0  0  0  0  0  0  0  0  0  0  0  0
    0.3572  -10.2768    0.0000 C   0  0  0  0  0  0  0  0  0  0  0  0
    1.0717   -9.0393    0.0000 C   0  0  0  0  0  0  0  0  0  0  0  0
   -0.3572   -9.8643    0.0000 C   0  0  0  0  0  0  0  0  0  0  0  0
    3.2151  -12.7518    0.0000 C   0  0  0  0  0  0  0  0  0  0  0  0
    0.3572   -8.6268    0.0000 C   0  0  0  0  0  0  0  0  0  0  0  0
   -0.3572   -9.0393    0.0000 C   0  0  0  0  0  0  0  0  0  0  0  0
    1.7862  -12.7518    0.0000 C   0  0  0  0  0  0  0  0  0  0  0  0
    3.2151  -13.5768    0.0000 C   0  0  0  0  0  0  0  0  0  0  0  0
    3.9296  -12.3393    0.0000 C   0  0  0  0  0  0  0  0  0  0  0  0
   -1.7862   -9.8643    0.0000 C   0  0  0  0  0  0  0  0  0  0  0  0
    3.9296  -13.9893    0.0000 C   0  0  0  0  0  0  0  0  0  0  0  0
    4.6441  -12.7518    0.0000 C   0  0  0  0  0  0  0  0  0  0  0  0
    4.6441  -13.5768    0.0000 C   0  0  0  0  0  0  0  0  0  0  0  0
   -2.5006  -10.2768    0.0000 C   0  0  3  0  0  0  0  0  0  0  0  0
   -3.2151   -9.8643    0.0000 C   0  0  0  0  0  0  0  0  0  0  0  0
   -4.6441   -9.8643    0.0000 C   0  0  0  0  0  0  0  0  0  0  0  0
  1 20  1  0  0  0  0
  2 18  1  0  0  0  0
  2 25  1  0  0  0  0
  3 29  1  0  0  0  0
  4  8  1  0  0  0  0
  4  9  2  0  0  0  0
  5  9  1  0  0  0  0
  5 10  2  0  0  0  0
  6 10  1  0  0  0  0
  6 19  1  0  0  0  0
  6 22  1  0  0  0  0
  7 30  1  0  0  0  0
  7 31  1  0  0  0  0
  8 11  1  0  0  0  0
  8 13  2  0  0  0  0
  9 12  1  0  0  0  0
 10 13  1  0  0  0  0
 11 14  1  0  0  0  0
 11 15  1  0  0  0  0
 12 16  2  0  0  0  0
 12 17  1  0  0  0  0
 14 15  1  0  0  0  0
 16 18  1  0  0  0  0
 17 20  2  0  0  0  0
 18 21  2  0  0  0  0
 19 23  1  0  0  0  0
 19 24  1  0  0  0  0
 20 21  1  0  0  0  0
 23 26  1  0  0  0  0
 24 27  1  0  0  0  0
 25 29  1  0  0  0  0
 26 28  1  0  0  0  0
 27 28  1  0  0  0  0
 29 30  1  0  0  0  0
M  END
> <PUBCHEM_COMPOUND_ID_TYPE>
0

> <PUBCHEM_TOTAL_CHARGE>
0

> <PUBCHEM_SUBSTANCE_ID>
310939635

> <PUBCHEM_SUBSTANCE_VERSION>
1

> <PUBCHEM_EXT_DATASOURCE_NAME>
4488

> <PUBCHEM_EXT_DATASOURCE_REGID>
SCHEMBL16117565

> <PUBCHEM_SUBSTANCE_COMMENT>
InChI=1S/C24H33ClN4O2/c1-26-14-20(30)15-31-21-11-17(10-18(25)12-21)24-27-22(16-8-9-16)13-23(28-24)29(2)19-6-4-3-5-7-19/h10-13,16,19-20,26,30H,3-9,14-15H2,1-2H3
InChIKey=SVQIXBOKXOYFID-UHFFFAOYSA-N

> <PUBCHEM_SUBSTANCE_SYNONYM>
SCHEMBL16117565

> <PUBCHEM_XREF_EXT_ID>
SCHEMBL16117565

> <PUBCHEM_EXT_DATASOURCE_URL>
https://www.surechembl.org/

> <PUBCHEM_EXT_SUBSTANCE_URL>
https://www.surechembl.org/chemical/SCHEMBL16117565

> <PUBCHEM_CID_ASSOCIATIONS>
117606875  1

> <PUBCHEM_COORDINATE_TYPE>
1
3

$$$$
