310934368
  -OEChem-07211613022D

 36 40  0     1  0  0  0  0  0999 V2000
    5.3397    0.0000    0.0000 Cl  0  0  0  0  0  0  0  0  0  0  0  0
    2.8662   -5.6931    0.0000 O   0  0  0  0  0  0  0  0  0  0  0  0
    5.7716   -4.9864    0.0000 O   0  0  0  0  0  0  0  0  0  0  0  0
    7.8526   -2.8269    0.0000 O   0  5  0  0  0  0  0  0  0  0  0  0
    6.6354   -3.5337    0.0000 O   0  0  0  0  0  0  0  0  0  0  0  0
    4.5545   -4.2796    0.0000 N   0  0  0  0  0  0  0  0  0  0  0  0
    2.8269   -4.3189    0.0000 N   0  0  0  0  0  0  0  0  0  0  0  0
    7.0280   -2.8269    0.0000 N   0  3  0  0  0  0  0  0  0  0  0  0
    4.1619   -4.9864    0.0000 C   0  0  3  0  0  0  0  0  0  0  0  0
    3.3373   -4.9864    0.0000 C   0  0  0  0  0  0  0  0  0  0  0  0
    5.3790   -2.8662    0.0000 C   0  0  0  0  0  0  0  0  0  0  0  0
    5.7716   -2.1594    0.0000 C   0  0  0  0  0  0  0  0  0  0  0  0
    5.3790   -4.2796    0.0000 C   0  0  0  0  0  0  0  0  0  0  0  0
    5.8109   -3.5729    0.0000 C   0  0  0  0  0  0  0  0  0  0  0  0
    6.5961   -2.1202    0.0000 C   0  0  0  0  0  0  0  0  0  0  0  0
    4.1226   -3.5729    0.0000 C   0  0  0  0  0  0  0  0  0  0  0  0
    2.0809   -5.4183    0.0000 C   0  0  0  0  0  0  0  0  0  0  0  0
    4.5545   -2.8662    0.0000 C   0  0  0  0  0  0  0  0  0  0  0  0
    4.5937   -5.6931    0.0000 C   0  0  0  0  0  0  0  0  0  0  0  0
    5.3397   -1.4135    0.0000 C   0  0  0  0  0  0  0  0  0  0  0  0
    2.0809   -4.5937    0.0000 C   0  0  0  0  0  0  0  0  0  0  0  0
    1.4135   -5.8894    0.0000 C   0  0  0  0  0  0  0  0  0  0  0  0
    6.9888   -1.4135    0.0000 C   0  0  0  0  0  0  0  0  0  0  0  0
    5.7716   -0.7067    0.0000 C   0  0  0  0  0  0  0  0  0  0  0  0
    4.1619   -6.3999    0.0000 C   0  0  0  0  0  0  0  0  0  0  0  0
    6.5961   -0.7067    0.0000 C   0  0  0  0  0  0  0  0  0  0  0  0
    1.4920   -6.7139    0.0000 C   0  0  0  0  0  0  0  0  0  0  0  0
    0.6675   -5.5753    0.0000 C   0  0  0  0  0  0  0  0  0  0  0  0
    4.5937   -7.1458    0.0000 C   0  0  0  0  0  0  0  0  0  0  0  0
    3.3373   -6.4391    0.0000 C   0  0  0  0  0  0  0  0  0  0  0  0
    0.8638   -7.2243    0.0000 C   0  0  0  0  0  0  0  0  0  0  0  0
    0.0000   -6.0465    0.0000 C   0  0  0  0  0  0  0  0  0  0  0  0
    4.2011   -7.8526    0.0000 C   0  0  0  0  0  0  0  0  0  0  0  0
    2.9447   -7.1458    0.0000 C   0  0  0  0  0  0  0  0  0  0  0  0
    0.0786   -6.8710    0.0000 C   0  0  0  0  0  0  0  0  0  0  0  0
    3.3766   -7.8526    0.0000 C   0  0  0  0  0  0  0  0  0  0  0  0
  1 24  1  0  0  0  0
  2 10  1  0  0  0  0
  2 17  1  0  0  0  0
  3 13  2  0  0  0  0
  4  8  1  0  0  0  0
  5  8  2  0  0  0  0
  6  9  1  0  0  0  0
  6 13  1  0  0  0  0
  6 16  1  0  0  0  0
  7 10  2  0  0  0  0
  7 21  1  0  0  0  0
  8 15  1  0  0  0  0
  9 10  1  0  0  0  0
  9 19  1  0  0  0  0
 11 12  1  0  0  0  0
 11 14  2  0  0  0  0
 11 18  1  0  0  0  0
 12 15  1  0  0  0  0
 12 20  2  0  0  0  0
 13 14  1  0  0  0  0
 15 23  2  0  0  0  0
 16 18  2  0  0  0  0
 17 21  2  0  0  0  0
 17 22  1  0  0  0  0
 19 25  1  0  0  0  0
 20 24  1  0  0  0  0
 22 27  2  0  0  0  0
 22 28  1  0  0  0  0
 23 26  1  0  0  0  0
 24 26  2  0  0  0  0
 25 29  2  0  0  0  0
 25 30  1  0  0  0  0
 27 31  1  0  0  0  0
 28 32  2  0  0  0  0
 29 33  1  0  0  0  0
 30 34  2  0  0  0  0
 31 35  2  0  0  0  0
 32 35  1  0  0  0  0
 33 36  2  0  0  0  0
 34 36  1  0  0  0  0
M  CHG  2   4  -1   8   1
M  END
> <PUBCHEM_COMPOUND_ID_TYPE>
0

> <PUBCHEM_TOTAL_CHARGE>
0

> <PUBCHEM_SUBSTANCE_ID>
310934368

> <PUBCHEM_SUBSTANCE_VERSION>
1

> <PUBCHEM_EXT_DATASOURCE_NAME>
4488

> <PUBCHEM_EXT_DATASOURCE_REGID>
SCHEMBL16111836

> <PUBCHEM_SUBSTANCE_COMMENT>
InChI=1S/C28H20ClN3O4/c29-22-11-12-24(32(34)35)23(17-22)21-13-14-31(27(33)16-21)25(15-19-7-3-1-4-8-19)28-30-18-26(36-28)20-9-5-2-6-10-20/h1-14,16-18,25H,15H2
InChIKey=XKNGBSHNKPSIGE-UHFFFAOYSA-N

> <PUBCHEM_SUBSTANCE_SYNONYM>
SCHEMBL16111836

> <PUBCHEM_XREF_EXT_ID>
SCHEMBL16111836

> <PUBCHEM_EXT_DATASOURCE_URL>
https://www.surechembl.org/

> <PUBCHEM_EXT_SUBSTANCE_URL>
https://www.surechembl.org/chemical/SCHEMBL16111836

> <PUBCHEM_CID_ASSOCIATIONS>
117602597  1

> <PUBCHEM_COORDINATE_TYPE>
1
3

$$$$
