310932563
  -OEChem-07211613022D

 20 22  0     1  0  0  0  0  0999 V2000
    3.5603   -1.6183    0.0000 O   0  0  0  0  0  0  0  0  0  0  0  0
    4.6807   -3.5852    0.0000 O   0  0  0  0  0  0  0  0  0  0  0  0
    5.4027   -2.3404    0.0000 O   0  0  0  0  0  0  0  0  0  0  0  0
    0.7967    0.0000    0.0000 O   0  0  0  0  0  0  0  0  0  0  0  0
    3.1371   -2.3404    0.0000 C   0  0  3  0  0  0  0  0  0  0  0  0
    3.9836   -2.3404    0.0000 C   0  0  3  0  0  0  0  0  0  0  0  0
    2.5645   -1.7428    0.0000 C   0  0  0  0  0  0  0  0  0  0  0  0
    4.6807   -2.7636    0.0000 C   0  0  0  0  0  0  0  0  0  0  0  0
    2.4399   -2.7636    0.0000 C   0  0  0  0  0  0  0  0  0  0  0  0
    1.7428   -1.9669    0.0000 C   0  0  0  0  0  0  0  0  0  0  0  0
    2.7636   -0.9461    0.0000 C   0  0  0  0  0  0  0  0  0  0  0  0
    1.1702   -1.3943    0.0000 C   0  0  0  0  0  0  0  0  0  0  0  0
    2.1910   -0.3735    0.0000 C   0  0  0  0  0  0  0  0  0  0  0  0
    5.4027   -3.9836    0.0000 C   0  0  0  0  0  0  0  0  0  0  0  0
    1.3943   -0.5975    0.0000 C   0  0  0  0  0  0  0  0  0  0  0  0
    6.1496   -3.6350    0.0000 C   0  0  0  0  0  0  0  0  0  0  0  0
    5.4774   -4.8052    0.0000 C   0  0  0  0  0  0  0  0  0  0  0  0
    6.6974   -4.2574    0.0000 C   0  0  0  0  0  0  0  0  0  0  0  0
    6.2990   -4.9795    0.0000 C   0  0  0  0  0  0  0  0  0  0  0  0
    0.0000   -0.1992    0.0000 C   0  0  0  0  0  0  0  0  0  0  0  0
  1  5  1  0  0  0  0
  1  6  1  0  0  0  0
  2  8  1  0  0  0  0
  2 14  1  0  0  0  0
  3  8  2  0  0  0  0
  4 15  1  0  0  0  0
  4 20  1  0  0  0  0
  5  6  1  0  0  0  0
  5  7  1  0  0  0  0
  5  9  1  0  0  0  0
  6  8  1  0  0  0  0
  7 10  2  0  0  0  0
  7 11  1  0  0  0  0
 10 12  1  0  0  0  0
 11 13  2  0  0  0  0
 12 15  2  0  0  0  0
 13 15  1  0  0  0  0
 14 16  1  0  0  0  0
 14 17  1  0  0  0  0
 16 18  1  0  0  0  0
 17 19  1  0  0  0  0
 18 19  1  0  0  0  0
M  END
> <PUBCHEM_COMPOUND_ID_TYPE>
0

> <PUBCHEM_TOTAL_CHARGE>
0

> <PUBCHEM_SUBSTANCE_ID>
310932563

> <PUBCHEM_SUBSTANCE_VERSION>
1

> <PUBCHEM_EXT_DATASOURCE_NAME>
4488

> <PUBCHEM_EXT_DATASOURCE_REGID>
SCHEMBL16109940

> <PUBCHEM_SUBSTANCE_COMMENT>
InChI=1S/C16H20O4/c1-16(11-7-9-12(18-2)10-8-11)14(20-16)15(17)19-13-5-3-4-6-13/h7-10,13-14H,3-6H2,1-2H3
InChIKey=NQTXJBYOHFIYLB-UHFFFAOYSA-N

> <PUBCHEM_SUBSTANCE_SYNONYM>
SCHEMBL16109940

> <PUBCHEM_XREF_EXT_ID>
SCHEMBL16109940

> <PUBCHEM_EXT_DATASOURCE_URL>
https://www.surechembl.org/

> <PUBCHEM_EXT_SUBSTANCE_URL>
https://www.surechembl.org/chemical/SCHEMBL16109940

> <PUBCHEM_CID_ASSOCIATIONS>
117601086  1

> <PUBCHEM_COORDINATE_TYPE>
1
3

$$$$
