310943728
  -OEChem-07211613022D

 27 30  0     1  0  0  0  0  0999 V2000
    3.9123   -0.2830    0.0000 N   0  0  0  0  0  0  0  0  0  0  0  0
    1.5918    1.0329    0.0000 N   0  0  0  0  0  0  0  0  0  0  0  0
   -2.8652    0.2406    0.0000 N   0  0  3  0  0  0  0  0  0  0  0  0
   -4.6622    0.7782    0.0000 N   0  0  3  0  0  0  0  0  0  0  0  0
    3.0350    0.2264    0.0000 C   0  0  0  0  0  0  0  0  0  0  0  0
    0.0071    1.0895    0.0000 C   0  0  0  0  0  0  0  0  0  0  0  0
   -1.4361    0.2547    0.0000 C   0  0  0  0  0  0  0  0  0  0  0  0
    0.7145    1.4998    0.0000 C   0  0  0  0  0  0  0  0  0  0  0  0
    2.3276   -0.1981    0.0000 C   0  0  0  0  0  0  0  0  0  0  0  0
    3.0350    1.0329    0.0000 C   0  0  0  0  0  0  0  0  0  0  0  0
    1.5918    0.2123    0.0000 C   0  0  0  0  0  0  0  0  0  0  0  0
    2.3276    1.4432    0.0000 C   0  0  0  0  0  0  0  0  0  0  0  0
   -0.7003    1.4857    0.0000 C   0  0  0  0  0  0  0  0  0  0  0  0
    0.0071    0.2689    0.0000 C   0  0  0  0  0  0  0  0  0  0  0  0
    3.9406   -1.3159    0.0000 C   0  0  0  0  0  0  0  0  0  0  0  0
    4.8886    0.0283    0.0000 C   0  0  0  0  0  0  0  0  0  0  0  0
   -2.1153   -0.1556    0.0000 C   0  0  0  0  0  0  0  0  0  0  0  0
   -1.4220    1.0754    0.0000 C   0  0  0  0  0  0  0  0  0  0  0  0
   -0.7003   -0.1556    0.0000 C   0  0  0  0  0  0  0  0  0  0  0  0
    4.9027   -1.6271    0.0000 C   0  0  0  0  0  0  0  0  0  0  0  0
    5.4969   -0.7782    0.0000 C   0  0  0  0  0  0  0  0  0  0  0  0
   -3.5302   -0.2264    0.0000 C   0  0  0  0  0  0  0  0  0  0  0  0
   -2.7945    1.0612    0.0000 C   0  0  0  0  0  0  0  0  0  0  0  0
   -4.3367    0.0141    0.0000 C   0  0  0  0  0  0  0  0  0  0  0  0
   -3.3888    1.6271    0.0000 C   0  0  0  0  0  0  0  0  0  0  0  0
   -4.2377    1.4998    0.0000 C   0  0  0  0  0  0  0  0  0  0  0  0
   -5.4969    0.7641    0.0000 C   0  0  0  0  0  0  0  0  0  0  0  0
  1  5  1  0  0  0  0
  1 15  1  0  0  0  0
  1 16  1  0  0  0  0
  2  8  1  0  0  0  0
  2 11  1  0  0  0  0
  2 12  1  0  0  0  0
  3 17  1  0  0  0  0
  3 22  1  0  0  0  0
  3 23  1  0  0  0  0
  4 24  1  0  0  0  0
  4 26  1  0  0  0  0
  4 27  1  0  0  0  0
  5  9  1  0  0  0  0
  5 10  1  0  0  0  0
  6  8  1  0  0  0  0
  6 13  2  0  0  0  0
  6 14  1  0  0  0  0
  7 17  1  0  0  0  0
  7 18  2  0  0  0  0
  7 19  1  0  0  0  0
  9 11  1  0  0  0  0
 10 12  1  0  0  0  0
 13 18  1  0  0  0  0
 14 19  2  0  0  0  0
 15 20  1  0  0  0  0
 16 21  1  0  0  0  0
 20 21  1  0  0  0  0
 22 24  1  0  0  0  0
 23 25  1  0  0  0  0
 25 26  1  0  0  0  0
M  END
> <PUBCHEM_COMPOUND_ID_TYPE>
0

> <PUBCHEM_TOTAL_CHARGE>
0

> <PUBCHEM_SUBSTANCE_ID>
310943728

> <PUBCHEM_SUBSTANCE_VERSION>
1

> <PUBCHEM_EXT_DATASOURCE_NAME>
4488

> <PUBCHEM_EXT_DATASOURCE_REGID>
SCHEMBL16121796

> <PUBCHEM_SUBSTANCE_COMMENT>
InChI=1S/C23H38N4/c1-24-11-4-12-25(18-17-24)19-21-5-7-22(8-6-21)20-26-15-9-23(10-16-26)27-13-2-3-14-27/h5-8,23H,2-4,9-20H2,1H3
InChIKey=HFZZPFXJKLZDCN-UHFFFAOYSA-N

> <PUBCHEM_SUBSTANCE_SYNONYM>
SCHEMBL16121796

> <PUBCHEM_XREF_EXT_ID>
SCHEMBL16121796

> <PUBCHEM_EXT_DATASOURCE_URL>
https://www.surechembl.org/

> <PUBCHEM_EXT_SUBSTANCE_URL>
https://www.surechembl.org/chemical/SCHEMBL16121796

> <PUBCHEM_CID_ASSOCIATIONS>
86300325  1

> <PUBCHEM_COORDINATE_TYPE>
1
3

$$$$
