310932156
  -OEChem-07211613022D

 19 21  0     1  0  0  0  0  0999 V2000
    3.2712    0.0000    0.0000 O   0  0  0  0  0  0  0  0  0  0  0  0
    4.4044   -1.9456    0.0000 O   0  0  0  0  0  0  0  0  0  0  0  0
    5.1099   -0.7056    0.0000 O   0  0  0  0  0  0  0  0  0  0  0  0
    3.6988   -0.7056    0.0000 C   0  0  3  0  0  0  0  0  0  0  0  0
    2.8650   -0.7056    0.0000 C   0  0  3  0  0  0  0  0  0  0  0  0
    4.4044   -1.1332    0.0000 C   0  0  0  0  0  0  0  0  0  0  0  0
    2.1594   -1.1332    0.0000 C   0  0  0  0  0  0  0  0  0  0  0  0
    3.4850   -1.5180    0.0000 C   0  0  0  0  0  0  0  0  0  0  0  0
    2.1381   -1.9456    0.0000 C   0  0  0  0  0  0  0  0  0  0  0  0
    1.4325   -0.7269    0.0000 C   0  0  0  0  0  0  0  0  0  0  0  0
    5.1099   -2.3518    0.0000 C   0  0  0  0  0  0  0  0  0  0  0  0
    1.4325   -2.3732    0.0000 C   0  0  0  0  0  0  0  0  0  0  0  0
    0.7269   -1.1332    0.0000 C   0  0  0  0  0  0  0  0  0  0  0  0
    0.7269   -1.9456    0.0000 C   0  0  0  0  0  0  0  0  0  0  0  0
    5.8582   -2.0098    0.0000 C   0  0  0  0  0  0  0  0  0  0  0  0
    5.1954   -3.1643    0.0000 C   0  0  0  0  0  0  0  0  0  0  0  0
    6.4141   -2.6298    0.0000 C   0  0  0  0  0  0  0  0  0  0  0  0
    6.0079   -3.3354    0.0000 C   0  0  0  0  0  0  0  0  0  0  0  0
    0.0000   -2.3518    0.0000 C   0  0  0  0  0  0  0  0  0  0  0  0
  1  4  1  0  0  0  0
  1  5  1  0  0  0  0
  2  6  1  0  0  0  0
  2 11  1  0  0  0  0
  3  6  2  0  0  0  0
  4  5  1  0  0  0  0
  4  6  1  0  0  0  0
  4  8  1  0  0  0  0
  5  7  1  0  0  0  0
  7  9  2  0  0  0  0
  7 10  1  0  0  0  0
  9 12  1  0  0  0  0
 10 13  2  0  0  0  0
 11 15  1  0  0  0  0
 11 16  1  0  0  0  0
 12 14  2  0  0  0  0
 13 14  1  0  0  0  0
 14 19  1  0  0  0  0
 15 17  1  0  0  0  0
 16 18  1  0  0  0  0
 17 18  1  0  0  0  0
M  END
> <PUBCHEM_COMPOUND_ID_TYPE>
0

> <PUBCHEM_TOTAL_CHARGE>
0

> <PUBCHEM_SUBSTANCE_ID>
310932156

> <PUBCHEM_SUBSTANCE_VERSION>
1

> <PUBCHEM_EXT_DATASOURCE_NAME>
4488

> <PUBCHEM_EXT_DATASOURCE_REGID>
SCHEMBL16109509

> <PUBCHEM_SUBSTANCE_COMMENT>
InChI=1S/C16H20O3/c1-11-7-9-12(10-8-11)14-16(2,19-14)15(17)18-13-5-3-4-6-13/h7-10,13-14H,3-6H2,1-2H3
InChIKey=JSNWZZYRQRDATR-UHFFFAOYSA-N

> <PUBCHEM_SUBSTANCE_SYNONYM>
SCHEMBL16109509

> <PUBCHEM_XREF_EXT_ID>
SCHEMBL16109509

> <PUBCHEM_EXT_DATASOURCE_URL>
https://www.surechembl.org/

> <PUBCHEM_EXT_SUBSTANCE_URL>
https://www.surechembl.org/chemical/SCHEMBL16109509

> <PUBCHEM_CID_ASSOCIATIONS>
117600760  1

> <PUBCHEM_COORDINATE_TYPE>
1
3

$$$$
