310945789
  -OEChem-07211613022D

 46 50  0     1  0  0  0  0  0999 V2000
    5.4042    0.6782    0.0000 O   0  0  0  0  0  0  0  0  0  0  0  0
    4.2716   -1.2934    0.0000 O   0  0  0  0  0  0  0  0  0  0  0  0
    2.1323    0.7900    0.0000 O   0  0  0  0  0  0  0  0  0  0  0  0
   -0.7481    1.9505    0.0000 O   0  0  0  0  0  0  0  0  0  0  0  0
   -0.0210   -1.2934    0.0000 O   0  0  0  0  0  0  0  0  0  0  0  0
   -2.9014   -0.4544    0.0000 O   0  0  0  0  0  0  0  0  0  0  0  0
   -2.1743    0.7900    0.0000 O   0  0  0  0  0  0  0  0  0  0  0  0
    4.2716   -2.9433    0.0000 O   0  0  0  0  0  0  0  0  0  0  0  0
    2.8454   -0.4544    0.0000 N   0  0  0  0  0  0  0  0  0  0  0  0
    0.6921   -0.0489    0.0000 N   0  0  0  0  0  0  0  0  0  0  0  0
   -1.4611   -0.4544    0.0000 N   0  0  0  0  0  0  0  0  0  0  0  0
    5.0127   -0.0070    0.0000 C   0  0  3  0  0  0  0  0  0  0  0  0
    4.2996   -0.4125    0.0000 C   0  0  0  0  0  0  0  0  0  0  0  0
    4.6072    0.6782    0.0000 C   0  0  0  0  0  0  0  0  0  0  0  0
    3.5725   -0.0210    0.0000 C   0  0  3  0  0  0  0  0  0  0  0  0
    5.7398   -0.4264    0.0000 C   0  0  0  0  0  0  0  0  0  0  0  0
    3.5725    1.2934    0.0000 C   0  0  0  0  0  0  0  0  0  0  0  0
    2.1323   -0.0350    0.0000 C   0  0  0  0  0  0  0  0  0  0  0  0
    1.4332   -0.4404    0.0000 C   0  0  3  0  0  0  0  0  0  0  0  0
   -0.7341   -0.0210    0.0000 C   0  0  3  0  0  0  0  0  0  0  0  0
   -0.0070   -0.4125    0.0000 C   0  0  0  0  0  0  0  0  0  0  0  0
    2.8594    1.7268    0.0000 C   0  0  0  0  0  0  0  0  0  0  0  0
   -0.7341    0.8180    0.0000 C   0  0  0  0  0  0  0  0  0  0  0  0
    1.4192   -1.2654    0.0000 C   0  0  0  0  0  0  0  0  0  0  0  0
    2.1463   -1.6709    0.0000 C   0  0  0  0  0  0  0  0  0  0  0  0
   -1.3074    1.3912    0.0000 C   0  0  0  0  0  0  0  0  0  0  0  0
   -0.1608    1.3912    0.0000 C   0  0  0  0  0  0  0  0  0  0  0  0
    2.8594    2.5378    0.0000 C   0  0  0  0  0  0  0  0  0  0  0  0
    2.1463    1.3074    0.0000 C   0  0  0  0  0  0  0  0  0  0  0  0
   -2.1743   -0.0350    0.0000 C   0  0  0  0  0  0  0  0  0  0  0  0
    2.1463   -2.5099    0.0000 C   0  0  0  0  0  0  0  0  0  0  0  0
    2.8454   -1.2794    0.0000 C   0  0  0  0  0  0  0  0  0  0  0  0
    2.1183    2.9433    0.0000 C   0  0  0  0  0  0  0  0  0  0  0  0
    1.4332    1.7129    0.0000 C   0  0  0  0  0  0  0  0  0  0  0  0
    3.5725   -2.4959    0.0000 C   0  0  0  0  0  0  0  0  0  0  0  0
    2.8594   -2.9153    0.0000 C   0  0  0  0  0  0  0  0  0  0  0  0
    3.5725   -1.6849    0.0000 C   0  0  0  0  0  0  0  0  0  0  0  0
    1.4332    2.5378    0.0000 C   0  0  0  0  0  0  0  0  0  0  0  0
   -3.6145   -0.0210    0.0000 C   0  0  0  0  0  0  0  0  0  0  0  0
   -4.3275   -0.4264    0.0000 C   0  0  0  0  0  0  0  0  0  0  0  0
   -4.3275   -1.2654    0.0000 C   0  0  0  0  0  0  0  0  0  0  0  0
   -5.0546   -0.0350    0.0000 C   0  0  0  0  0  0  0  0  0  0  0  0
    5.0267   -2.5238    0.0000 C   0  0  0  0  0  0  0  0  0  0  0  0
   -5.0267   -1.6709    0.0000 C   0  0  0  0  0  0  0  0  0  0  0  0
   -5.7398   -0.4404    0.0000 C   0  0  0  0  0  0  0  0  0  0  0  0
   -5.7398   -1.2654    0.0000 C   0  0  0  0  0  0  0  0  0  0  0  0
  1 12  1  0  0  0  0
  1 14  1  0  0  0  0
  2 13  2  0  0  0  0
  3 18  2  0  0  0  0
  4 26  1  0  0  0  0
  4 27  1  0  0  0  0
  5 21  2  0  0  0  0
  6 30  1  0  0  0  0
  6 39  1  0  0  0  0
  7 30  2  0  0  0  0
  8 35  1  0  0  0  0
  8 43  1  0  0  0  0
  9 15  1  0  0  0  0
  9 18  1  0  0  0  0
 10 19  1  0  0  0  0
 10 21  1  0  0  0  0
 11 20  1  0  0  0  0
 11 30  1  0  0  0  0
 12 13  1  0  0  0  0
 12 14  1  0  0  0  0
 12 16  1  0  0  0  0
 13 15  1  0  0  0  0
 15 17  1  0  0  0  0
 17 22  1  0  0  0  0
 18 19  1  0  0  0  0
 19 24  1  0  0  0  0
 20 21  1  0  0  0  0
 20 23  1  0  0  0  0
 22 28  2  0  0  0  0
 22 29  1  0  0  0  0
 23 26  1  0  0  0  0
 23 27  1  0  0  0  0
 24 25  1  0  0  0  0
 25 31  2  0  0  0  0
 25 32  1  0  0  0  0
 28 33  1  0  0  0  0
 29 34  2  0  0  0  0
 31 36  1  0  0  0  0
 32 37  2  0  0  0  0
 33 38  2  0  0  0  0
 34 38  1  0  0  0  0
 35 36  2  0  0  0  0
 35 37  1  0  0  0  0
 39 40  1  0  0  0  0
 40 41  2  0  0  0  0
 40 42  1  0  0  0  0
 41 44  1  0  0  0  0
 42 45  2  0  0  0  0
 44 46  2  0  0  0  0
 45 46  1  0  0  0  0
M  END
> <PUBCHEM_COMPOUND_ID_TYPE>
0

> <PUBCHEM_TOTAL_CHARGE>
0

> <PUBCHEM_SUBSTANCE_ID>
310945789

> <PUBCHEM_SUBSTANCE_VERSION>
1

> <PUBCHEM_EXT_DATASOURCE_NAME>
4488

> <PUBCHEM_EXT_DATASOURCE_REGID>
SCHEMBL16123893

> <PUBCHEM_SUBSTANCE_COMMENT>
InChI=1S/C35H39N3O8/c1-35(22-46-35)31(39)28(17-23-9-5-3-6-10-23)36-32(40)29(18-24-13-15-27(43-2)16-14-24)37-33(41)30(26-20-44-21-26)38-34(42)45-19-25-11-7-4-8-12-25/h3-16,26,28-30H,17-22H2,1-2H3,(H,36,40)(H,37,41)(H,38,42)
InChIKey=NLPGHZFPWIXZFJ-UHFFFAOYSA-N

> <PUBCHEM_SUBSTANCE_SYNONYM>
SCHEMBL16123893

> <PUBCHEM_XREF_EXT_ID>
SCHEMBL16123893

> <PUBCHEM_EXT_DATASOURCE_URL>
https://www.surechembl.org/

> <PUBCHEM_EXT_SUBSTANCE_URL>
https://www.surechembl.org/chemical/SCHEMBL16123893

> <PUBCHEM_CID_ASSOCIATIONS>
117611776  1

> <PUBCHEM_COORDINATE_TYPE>
1
3

$$$$
