310949533
  -OEChem-07211613022D

 31 31  0     1  0  0  0  0  0999 V2000
   -2.1892   -0.6394    0.0000 O   0  0  0  0  0  0  0  0  0  0  0  0
   -3.6208   -1.4595    0.0000 O   0  0  0  0  0  0  0  0  0  0  0  0
   -5.0525   -0.6394    0.0000 O   0  0  0  0  0  0  0  0  0  0  0  0
   -5.0525    0.9869    0.0000 O   0  0  0  0  0  0  0  0  0  0  0  0
   -2.8425   -1.8903    0.0000 O   0  0  0  0  0  0  0  0  0  0  0  0
   -2.8981   -0.1668    0.0000 C   0  0  3  0  0  0  0  0  0  0  0  0
   -2.8842    0.6533    0.0000 C   0  0  3  0  0  0  0  0  0  0  0  0
   -3.5930   -0.5699    0.0000 C   0  0  0  0  0  0  0  0  0  0  0  0
   -4.3297   -0.1807    0.0000 C   0  0  0  0  0  0  0  0  0  0  0  0
   -3.6069    1.0564    0.0000 C   0  0  3  0  0  0  0  0  0  0  0  0
   -4.3158    0.6394    0.0000 C   0  0  0  0  0  0  0  0  0  0  0  0
   -2.1892    1.0564    0.0000 C   0  0  0  0  0  0  0  0  0  0  0  0
   -3.6069    1.8903    0.0000 C   0  0  0  0  0  0  0  0  0  0  0  0
   -2.1892   -1.5011    0.0000 C   0  0  0  0  0  0  0  0  0  0  0  0
   -1.4386    0.6533    0.0000 C   0  0  0  0  0  0  0  0  0  0  0  0
   -2.8703   -1.8208    0.0000 C   0  0  0  0  0  0  0  0  0  0  0  0
   -0.7297    1.0564    0.0000 C   0  0  0  0  0  0  0  0  0  0  0  0
   -5.7753   -0.1946    0.0000 C   0  0  0  0  0  0  0  0  0  0  0  0
   -1.4803   -1.8764    0.0000 C   0  0  0  0  0  0  0  0  0  0  0  0
    0.0069    0.6533    0.0000 C   0  0  0  0  0  0  0  0  0  0  0  0
   -0.7297    1.8903    0.0000 C   0  0  0  0  0  0  0  0  0  0  0  0
    0.7019    1.0564    0.0000 C   0  0  0  0  0  0  0  0  0  0  0  0
    1.4386    0.6533    0.0000 C   0  0  0  0  0  0  0  0  0  0  0  0
    2.1475    1.0564    0.0000 C   0  0  0  0  0  0  0  0  0  0  0  0
    2.8703    0.6533    0.0000 C   0  0  0  0  0  0  0  0  0  0  0  0
    3.5792    1.0564    0.0000 C   0  0  0  0  0  0  0  0  0  0  0  0
    2.1475    1.8903    0.0000 C   0  0  0  0  0  0  0  0  0  0  0  0
    4.3158    0.6533    0.0000 C   0  0  0  0  0  0  0  0  0  0  0  0
    5.0247    1.0703    0.0000 C   0  0  0  0  0  0  0  0  0  0  0  0
    5.0386    1.8903    0.0000 C   0  0  0  0  0  0  0  0  0  0  0  0
    5.7753    0.6533    0.0000 C   0  0  0  0  0  0  0  0  0  0  0  0
  1  6  1  0  0  0  0
  1 14  1  0  0  0  0
  2  8  1  0  0  0  0
  2 16  1  0  0  0  0
  3  9  1  0  0  0  0
  3 18  1  0  0  0  0
  4 11  2  0  0  0  0
  5 14  2  0  0  0  0
  6  7  1  0  0  0  0
  6  8  1  0  0  0  0
  7 10  1  0  0  0  0
  7 12  1  0  0  0  0
  8  9  2  0  0  0  0
  9 11  1  0  0  0  0
 10 11  1  0  0  0  0
 10 13  1  0  0  0  0
 12 15  1  0  0  0  0
 14 19  1  0  0  0  0
 15 17  2  0  0  0  0
 17 20  1  0  0  0  0
 17 21  1  0  0  0  0
 20 22  1  0  0  0  0
 22 23  1  0  0  0  0
 23 24  2  0  0  0  0
 24 25  1  0  0  0  0
 24 27  1  0  0  0  0
 25 26  1  0  0  0  0
 26 28  1  0  0  0  0
 28 29  2  0  0  0  0
 29 30  1  0  0  0  0
 29 31  1  0  0  0  0
M  END
> <PUBCHEM_COMPOUND_ID_TYPE>
0

> <PUBCHEM_TOTAL_CHARGE>
0

> <PUBCHEM_SUBSTANCE_ID>
310949533

> <PUBCHEM_SUBSTANCE_VERSION>
1

> <PUBCHEM_EXT_DATASOURCE_NAME>
4488

> <PUBCHEM_EXT_DATASOURCE_REGID>
SCHEMBL16127728

> <PUBCHEM_SUBSTANCE_COMMENT>
InChI=1S/C26H40O5/c1-17(2)11-9-12-18(3)13-10-14-19(4)15-16-22-20(5)23(28)25(29-7)26(30-8)24(22)31-21(6)27/h11,13,15,20,22,24H,9-10,12,14,16H2,1-8H3/b18-13+,19-15+
InChIKey=ZQYMSRFYGCSONW-HQSZAHFGSA-N

> <PUBCHEM_SUBSTANCE_SYNONYM>
SCHEMBL16127728

> <PUBCHEM_XREF_EXT_ID>
SCHEMBL16127728

> <PUBCHEM_EXT_DATASOURCE_URL>
https://www.surechembl.org/

> <PUBCHEM_EXT_SUBSTANCE_URL>
https://www.surechembl.org/chemical/SCHEMBL16127728

> <PUBCHEM_CID_ASSOCIATIONS>
117614959  1

> <PUBCHEM_COORDINATE_TYPE>
1
3

$$$$
