310938894
  -OEChem-07211613022D

 12 13  0     1  0  0  0  0  0999 V2000
    1.0628   -1.4108    0.0000 O   0  0  0  0  0  0  0  0  0  0  0  0
   -0.3543   -0.5904    0.0000 N   0  0  3  0  0  0  0  0  0  0  0  0
   -0.3543    1.0876    0.0000 C   0  0  0  0  0  0  0  0  0  0  0  0
    0.3543    0.6525    0.0000 C   0  0  0  0  0  0  0  0  0  0  0  0
    0.3543   -0.1678    0.0000 C   0  0  3  0  0  0  0  0  0  0  0  0
   -1.0628    0.6650    0.0000 C   0  0  0  0  0  0  0  0  0  0  0  0
   -0.9385    1.6595    0.0000 C   0  0  0  0  0  0  0  0  0  0  0  0
    0.2175    1.6595    0.0000 C   0  0  0  0  0  0  0  0  0  0  0  0
   -1.0752   -0.1678    0.0000 C   0  0  0  0  0  0  0  0  0  0  0  0
   -0.3543    2.2436    0.0000 C   0  0  0  0  0  0  0  0  0  0  0  0
    1.0752   -0.5780    0.0000 C   0  0  0  0  0  0  0  0  0  0  0  0
   -0.3418   -2.2436    0.0000 C   0  0  0  0  0  0  0  0  0  0  0  0
  1 11  1  0  0  0  0
  2  5  1  0  0  0  0
  2  9  1  0  0  0  0
  2 12  1  0  0  0  0
  3  4  1  0  0  0  0
  3  6  1  0  0  0  0
  3  7  1  0  0  0  0
  3  8  1  0  0  0  0
  4  5  1  0  0  0  0
  5 11  1  0  0  0  0
  6  9  1  0  0  0  0
  7 10  1  0  0  0  0
  8 10  1  0  0  0  0
M  END
> <PUBCHEM_COMPOUND_ID_TYPE>
0

> <PUBCHEM_TOTAL_CHARGE>
0

> <PUBCHEM_SUBSTANCE_ID>
310938894

> <PUBCHEM_SUBSTANCE_VERSION>
1

> <PUBCHEM_EXT_DATASOURCE_NAME>
4488

> <PUBCHEM_EXT_DATASOURCE_REGID>
SCHEMBL16116813

> <PUBCHEM_SUBSTANCE_COMMENT>
InChI=1S/C10H19NO/c1-11-6-5-10(3-2-4-10)7-9(11)8-12/h9,12H,2-8H2,1H3
InChIKey=QUJZUOJMDSMNLD-UHFFFAOYSA-N

> <PUBCHEM_SUBSTANCE_SYNONYM>
SCHEMBL16116813

> <PUBCHEM_XREF_EXT_ID>
SCHEMBL16116813

> <PUBCHEM_EXT_DATASOURCE_URL>
https://www.surechembl.org/

> <PUBCHEM_EXT_SUBSTANCE_URL>
https://www.surechembl.org/chemical/SCHEMBL16116813

> <PUBCHEM_CID_ASSOCIATIONS>
117606291  1

> <PUBCHEM_COORDINATE_TYPE>
1
3

$$$$
