310932190
  -OEChem-07211613022D

 27 29  0     1  0  0  0  0  0999 V2000
    3.9832   -2.1142    0.0000 O   0  0  0  0  0  0  0  0  0  0  0  0
    8.4261   -2.2061    0.0000 O   0  0  0  0  0  0  0  0  0  0  0  0
    4.8718   -0.9805    0.0000 N   0  0  0  0  0  0  0  0  0  0  0  0
    4.8106   -0.1532    0.0000 N   0  0  0  0  0  0  0  0  0  0  0  0
    6.3120   -0.9805    0.0000 N   0  0  0  0  0  0  0  0  0  0  0  0
    7.7214   -3.4317    0.0000 N   0  0  0  0  0  0  0  0  0  0  0  0
    0.0000   -1.8078    0.0000 N   0  0  0  0  0  0  0  0  0  0  0  0
    4.1364   -1.3175    0.0000 C   0  0  0  0  0  0  0  0  0  0  0  0
    3.5849   -0.7047    0.0000 C   0  0  0  0  0  0  0  0  0  0  0  0
    5.6072   -1.3788    0.0000 C   0  0  0  0  0  0  0  0  0  0  0  0
    2.7576   -0.7967    0.0000 C   0  0  0  0  0  0  0  0  0  0  0  0
    3.9832    0.0000    0.0000 C   0  0  0  0  0  0  0  0  0  0  0  0
    5.6072   -2.2061    0.0000 C   0  0  0  0  0  0  0  0  0  0  0  0
    7.0167   -2.2061    0.0000 C   0  0  0  0  0  0  0  0  0  0  0  0
    2.4512   -1.5627    0.0000 C   0  0  0  0  0  0  0  0  0  0  0  0
    2.2674   -0.1532    0.0000 C   0  0  0  0  0  0  0  0  0  0  0  0
    7.0167   -1.3788    0.0000 C   0  0  0  0  0  0  0  0  0  0  0  0
    6.3120   -2.6044    0.0000 C   0  0  0  0  0  0  0  0  0  0  0  0
    7.7214   -2.6044    0.0000 C   0  0  0  0  0  0  0  0  0  0  0  0
    1.1337   -0.9805    0.0000 C   0  0  0  0  0  0  0  0  0  0  0  0
    1.6239   -1.6546    0.0000 C   0  0  0  0  0  0  0  0  0  0  0  0
    1.4707   -0.2451    0.0000 C   0  0  0  0  0  0  0  0  0  0  0  0
    0.3064   -1.0724    0.0000 C   0  0  0  0  0  0  0  0  0  0  0  0
    8.4567   -3.8300    0.0000 C   0  0  3  0  0  0  0  0  0  0  0  0
    8.4567   -4.6574    0.0000 C   0  0  0  0  0  0  0  0  0  0  0  0
    9.1921   -3.4317    0.0000 C   0  0  0  0  0  0  0  0  0  0  0  0
    9.1615   -5.0863    0.0000 C   0  0  0  0  0  0  0  0  0  0  0  0
  1  8  1  0  0  0  0
  2 19  2  0  0  0  0
  3  4  1  0  0  0  0
  3  8  1  0  0  0  0
  3 10  1  0  0  0  0
  4 12  2  0  0  0  0
  5 10  2  0  0  0  0
  5 17  1  0  0  0  0
  6 19  1  0  0  0  0
  6 24  1  0  0  0  0
  7 23  3  0  0  0  0
  8  9  2  0  0  0  0
  9 11  1  0  0  0  0
  9 12  1  0  0  0  0
 10 13  1  0  0  0  0
 11 15  2  0  0  0  0
 11 16  1  0  0  0  0
 13 18  2  0  0  0  0
 14 17  2  0  0  0  0
 14 18  1  0  0  0  0
 14 19  1  0  0  0  0
 15 21  1  0  0  0  0
 16 22  2  0  0  0  0
 20 21  2  0  0  0  0
 20 22  1  0  0  0  0
 20 23  1  0  0  0  0
 24 25  1  0  0  0  0
 24 26  1  0  0  0  0
 25 27  1  0  0  0  0
M  END
> <PUBCHEM_COMPOUND_ID_TYPE>
0

> <PUBCHEM_TOTAL_CHARGE>
0

> <PUBCHEM_SUBSTANCE_ID>
310932190

> <PUBCHEM_SUBSTANCE_VERSION>
1

> <PUBCHEM_EXT_DATASOURCE_NAME>
4488

> <PUBCHEM_EXT_DATASOURCE_REGID>
SCHEMBL16109546

> <PUBCHEM_SUBSTANCE_COMMENT>
InChI=1S/C20H19N5O2/c1-3-13(2)24-19(26)16-8-9-18(22-11-16)25-20(27)17(12-23-25)15-6-4-14(10-21)5-7-15/h4-9,11-13,27H,3H2,1-2H3,(H,24,26)
InChIKey=MRTUEKWTHGBPPI-UHFFFAOYSA-N

> <PUBCHEM_SUBSTANCE_SYNONYM>
SCHEMBL16109546

> <PUBCHEM_XREF_EXT_ID>
SCHEMBL16109546

> <PUBCHEM_EXT_DATASOURCE_URL>
https://www.surechembl.org/

> <PUBCHEM_EXT_SUBSTANCE_URL>
https://www.surechembl.org/chemical/SCHEMBL16109546

> <PUBCHEM_CID_ASSOCIATIONS>
117600783  1

> <PUBCHEM_COORDINATE_TYPE>
1
3

$$$$
