310935299
  -OEChem-07211613022D

 27 30  0     1  0  0  0  0  0999 V2000
    6.9990   -0.6766    0.0000 F   0  0  0  0  0  0  0  0  0  0  0  0
    5.8325   -2.9396    0.0000 O   0  0  0  0  0  0  0  0  0  0  0  0
    6.6491   -1.5165    0.0000 O   0  0  0  0  0  0  0  0  0  0  0  0
    0.4433   -3.0796    0.0000 N   0  0  0  0  0  0  0  0  0  0  0  0
    5.8325   -1.5165    0.0000 N   0  0  0  0  0  0  0  0  0  0  0  0
    0.0000   -3.8028    0.0000 N   0  0  0  0  0  0  0  0  0  0  0  0
    4.5727   -2.2163    0.0000 C   0  0  3  0  0  0  0  0  0  0  0  0
    4.9693   -1.4698    0.0000 C   0  0  0  0  0  0  0  0  0  0  0  0
    3.3129   -2.6363    0.0000 C   0  0  0  0  0  0  0  0  0  0  0  0
    4.1061   -2.8929    0.0000 C   0  0  0  0  0  0  0  0  0  0  0  0
    5.4126   -2.2163    0.0000 C   0  0  0  0  0  0  0  0  0  0  0  0
    4.1061   -1.5398    0.0000 C   0  0  0  0  0  0  0  0  0  0  0  0
    2.6596   -3.1029    0.0000 C   0  0  0  0  0  0  0  0  0  0  0  0
    5.9491   -1.6098    0.0000 C   0  0  0  0  0  0  0  0  0  0  0  0
    3.3129   -1.8197    0.0000 C   0  0  0  0  0  0  0  0  0  0  0  0
    1.2365   -3.2429    0.0000 C   0  0  0  0  0  0  0  0  0  0  0  0
    4.5261   -0.7699    0.0000 C   0  0  0  0  0  0  0  0  0  0  0  0
    1.9131   -2.7763    0.0000 C   0  0  0  0  0  0  0  0  0  0  0  0
    1.3298   -4.1061    0.0000 C   0  0  0  0  0  0  0  0  0  0  0  0
    6.1591   -0.6999    0.0000 C   0  0  0  0  0  0  0  0  0  0  0  0
    2.7296   -3.9661    0.0000 C   0  0  0  0  0  0  0  0  0  0  0  0
    2.0764   -4.4327    0.0000 C   0  0  0  0  0  0  0  0  0  0  0  0
    4.8993   -0.0467    0.0000 C   0  0  0  0  0  0  0  0  0  0  0  0
    5.7159    0.0000    0.0000 C   0  0  0  0  0  0  0  0  0  0  0  0
    0.5599   -4.4094    0.0000 C   0  0  0  0  0  0  0  0  0  0  0  0
    6.2291   -2.1230    0.0000 C   0  0  0  0  0  0  0  0  0  0  0  0
    0.0933   -2.3330    0.0000 C   0  0  0  0  0  0  0  0  0  0  0  0
  1 20  1  0  0  0  0
  2 11  2  0  0  0  0
  3  5  1  0  0  0  0
  4  6  1  0  0  0  0
  4 16  1  0  0  0  0
  4 27  1  0  0  0  0
  5 11  1  0  0  0  0
  6 25  2  0  0  0  0
  7  8  1  0  0  0  0
  7 10  1  0  0  0  0
  7 11  1  0  0  0  0
  7 12  1  0  0  0  0
  8 14  1  0  0  0  0
  8 17  2  0  0  0  0
  9 10  2  0  0  0  0
  9 13  1  0  0  0  0
  9 15  1  0  0  0  0
 12 15  1  0  0  0  0
 13 18  2  0  0  0  0
 13 21  1  0  0  0  0
 14 20  2  0  0  0  0
 14 26  1  0  0  0  0
 16 18  1  0  0  0  0
 16 19  2  0  0  0  0
 17 23  1  0  0  0  0
 19 22  1  0  0  0  0
 19 25  1  0  0  0  0
 20 24  1  0  0  0  0
 21 22  2  0  0  0  0
 23 24  2  0  0  0  0
M  END
> <PUBCHEM_COMPOUND_ID_TYPE>
0

> <PUBCHEM_TOTAL_CHARGE>
0

> <PUBCHEM_SUBSTANCE_ID>
310935299

> <PUBCHEM_SUBSTANCE_VERSION>
1

> <PUBCHEM_EXT_DATASOURCE_NAME>
4488

> <PUBCHEM_EXT_DATASOURCE_REGID>
SCHEMBL16112832

> <PUBCHEM_SUBSTANCE_COMMENT>
InChI=1S/C21H20FN3O2/c1-13-17(4-3-5-18(13)22)21(20(26)24-27)9-8-15(11-21)14-6-7-16-12-23-25(2)19(16)10-14/h3-7,10-12,27H,8-9H2,1-2H3,(H,24,26)
InChIKey=ZDSIXTBAUGAZCR-UHFFFAOYSA-N

> <PUBCHEM_SUBSTANCE_SYNONYM>
SCHEMBL16112832

> <PUBCHEM_XREF_EXT_ID>
SCHEMBL16112832

> <PUBCHEM_EXT_DATASOURCE_URL>
https://www.surechembl.org/

> <PUBCHEM_EXT_SUBSTANCE_URL>
https://www.surechembl.org/chemical/SCHEMBL16112832

> <PUBCHEM_CID_ASSOCIATIONS>
117603364  1

> <PUBCHEM_COORDINATE_TYPE>
1
3

$$$$
