310932339
  -OEChem-07211613022D

 32 35  0     1  0  0  0  0  0999 V2000
    5.9084   -1.9694    0.0000 O   0  0  0  0  0  0  0  0  0  0  0  0
    1.7757   -3.6806    0.0000 O   0  0  0  0  0  0  0  0  0  0  0  0
    5.5210   -3.3577    0.0000 N   0  0  0  0  0  0  0  0  0  0  0  0
    5.9406   -4.0681    0.0000 N   0  0  0  0  0  0  0  0  0  0  0  0
    1.9372   -2.2600    0.0000 N   0  0  0  0  0  0  0  0  0  0  0  0
    4.2618   -3.9389    0.0000 N   0  0  0  0  0  0  0  0  0  0  0  0
    1.2915   -0.7426    0.0000 N   0  0  3  0  0  0  0  0  0  0  0  0
    9.6859   -0.6135    0.0000 N   0  0  0  0  0  0  0  0  0  0  0  0
    6.8447   -3.0995    0.0000 C   0  0  0  0  0  0  0  0  0  0  0  0
    6.0698   -2.7443    0.0000 C   0  0  0  0  0  0  0  0  0  0  0  0
    4.7138   -3.2609    0.0000 C   0  0  0  0  0  0  0  0  0  0  0  0
    7.5550   -2.6798    0.0000 C   0  0  0  0  0  0  0  0  0  0  0  0
    6.7478   -3.9066    0.0000 C   0  0  0  0  0  0  0  0  0  0  0  0
    3.0995   -3.0995    0.0000 C   0  0  0  0  0  0  0  0  0  0  0  0
    2.2600   -3.0026    0.0000 C   0  0  0  0  0  0  0  0  0  0  0  0
    0.8072   -1.3883    0.0000 C   0  0  0  0  0  0  0  0  0  0  0  0
    7.5550   -1.8403    0.0000 C   0  0  0  0  0  0  0  0  0  0  0  0
    4.3909   -2.5183    0.0000 C   0  0  0  0  0  0  0  0  0  0  0  0
    1.1300   -2.1632    0.0000 C   0  0  0  0  0  0  0  0  0  0  0  0
    3.4223   -3.8744    0.0000 C   0  0  0  0  0  0  0  0  0  0  0  0
    3.5515   -2.4537    0.0000 C   0  0  0  0  0  0  0  0  0  0  0  0
    8.2652   -3.0995    0.0000 C   0  0  0  0  0  0  0  0  0  0  0  0
    2.4537   -1.6143    0.0000 C   0  0  0  0  0  0  0  0  0  0  0  0
    8.2652   -1.4529    0.0000 C   0  0  0  0  0  0  0  0  0  0  0  0
    2.1309   -0.8394    0.0000 C   0  0  0  0  0  0  0  0  0  0  0  0
    8.9755   -1.8403    0.0000 C   0  0  0  0  0  0  0  0  0  0  0  0
    8.9755   -2.6798    0.0000 C   0  0  0  0  0  0  0  0  0  0  0  0
    0.0000   -1.3237    0.0000 C   0  0  0  0  0  0  0  0  0  0  0  0
    0.3229   -2.0663    0.0000 C   0  0  0  0  0  0  0  0  0  0  0  0
    6.8447   -1.4529    0.0000 C   0  0  0  0  0  0  0  0  0  0  0  0
    0.9686    0.0000    0.0000 C   0  0  0  0  0  0  0  0  0  0  0  0
    9.6859   -1.4529    0.0000 C   0  0  0  0  0  0  0  0  0  0  0  0
  1 10  1  0  0  0  0
  2 15  2  0  0  0  0
  3  4  1  0  0  0  0
  3 10  1  0  0  0  0
  3 11  1  0  0  0  0
  4 13  2  0  0  0  0
  5 15  1  0  0  0  0
  5 19  1  0  0  0  0
  5 23  1  0  0  0  0
  6 11  1  0  0  0  0
  6 20  2  0  0  0  0
  7 16  1  0  0  0  0
  7 25  1  0  0  0  0
  7 31  1  0  0  0  0
  8 32  3  0  0  0  0
  9 10  2  0  0  0  0
  9 12  1  0  0  0  0
  9 13  1  0  0  0  0
 11 18  2  0  0  0  0
 12 17  2  0  0  0  0
 12 22  1  0  0  0  0
 14 15  1  0  0  0  0
 14 20  1  0  0  0  0
 14 21  2  0  0  0  0
 16 19  1  0  0  0  0
 16 28  1  0  0  0  0
 16 29  1  0  0  0  0
 17 24  1  0  0  0  0
 17 30  1  0  0  0  0
 18 21  1  0  0  0  0
 22 27  2  0  0  0  0
 23 25  1  0  0  0  0
 24 26  2  0  0  0  0
 26 27  1  0  0  0  0
 26 32  1  0  0  0  0
M  END
> <PUBCHEM_COMPOUND_ID_TYPE>
0

> <PUBCHEM_TOTAL_CHARGE>
0

> <PUBCHEM_SUBSTANCE_ID>
310932339

> <PUBCHEM_SUBSTANCE_VERSION>
1

> <PUBCHEM_EXT_DATASOURCE_NAME>
4488

> <PUBCHEM_EXT_DATASOURCE_REGID>
SCHEMBL16109705

> <PUBCHEM_SUBSTANCE_COMMENT>
InChI=1S/C24H26N6O2/c1-16-11-17(12-25)5-7-19(16)20-14-27-30(23(20)32)21-8-6-18(13-26-21)22(31)29-10-9-28(4)24(2,3)15-29/h5-8,11,13-14,32H,9-10,15H2,1-4H3
InChIKey=PTMCUEQTYXHFNN-UHFFFAOYSA-N

> <PUBCHEM_SUBSTANCE_SYNONYM>
SCHEMBL16109705

> <PUBCHEM_XREF_EXT_ID>
SCHEMBL16109705

> <PUBCHEM_EXT_DATASOURCE_URL>
https://www.surechembl.org/

> <PUBCHEM_EXT_SUBSTANCE_URL>
https://www.surechembl.org/chemical/SCHEMBL16109705

> <PUBCHEM_CID_ASSOCIATIONS>
117600894  1

> <PUBCHEM_COORDINATE_TYPE>
1
3

$$$$
