310931908
  -OEChem-07211613022D

 32 35  0     1  0  0  0  0  0999 V2000
    2.6815    1.5880    0.0000 O   0  0  0  0  0  0  0  0  0  0  0  0
    0.6819    1.1567    0.0000 O   0  0  0  0  0  0  0  0  0  0  0  0
   -0.7145    1.2375    0.0000 O   0  0  0  0  0  0  0  0  0  0  0  0
   -2.1228    2.6459    0.0000 O   0  0  0  0  0  0  0  0  0  0  0  0
   -0.7145    5.7042    0.0000 O   0  0  0  0  0  0  0  0  0  0  0  0
   -1.4289    6.9417    0.0000 O   0  0  0  0  0  0  0  0  0  0  0  0
    0.6939    2.6459    0.0000 N   0  0  0  0  0  0  0  0  0  0  0  0
   -0.7145    4.0542    0.0000 N   0  0  0  0  0  0  0  0  0  0  0  0
   -2.8579    6.9417    0.0000 N   0  0  0  0  0  0  0  0  0  0  0  0
   -0.1311    2.6459    0.0000 C   0  0  0  0  0  0  0  0  0  0  0  0
   -0.7145    3.2292    0.0000 C   0  0  0  0  0  0  0  0  0  0  0  0
    1.9314    1.9314    0.0000 C   0  0  3  0  0  0  0  0  0  0  0  0
   -0.7145    2.0625    0.0000 C   0  0  0  0  0  0  0  0  0  0  0  0
   -1.2978    2.6459    0.0000 C   0  0  0  0  0  0  0  0  0  0  0  0
    1.5040    1.2257    0.0000 C   0  0  0  0  0  0  0  0  0  0  0  0
    1.1064    1.9314    0.0000 C   0  0  0  0  0  0  0  0  0  0  0  0
   -1.4289    4.4667    0.0000 C   0  0  0  0  0  0  0  0  0  0  0  0
    2.0262    2.7509    0.0000 C   0  0  0  0  0  0  0  0  0  0  0  0
   -1.4289    5.2917    0.0000 C   0  0  0  0  0  0  0  0  0  0  0  0
    1.8237    0.4652    0.0000 C   0  0  0  0  0  0  0  0  0  0  0  0
   -2.1434    5.7042    0.0000 C   0  0  0  0  0  0  0  0  0  0  0  0
    3.2399    2.1952    0.0000 C   0  0  0  0  0  0  0  0  0  0  0  0
    2.8349    2.9140    0.0000 C   0  0  0  0  0  0  0  0  0  0  0  0
    0.4935    0.3535    0.0000 C   0  0  0  0  0  0  0  0  0  0  0  0
   -2.1434    4.0542    0.0000 C   0  0  0  0  0  0  0  0  0  0  0  0
    1.1992   -0.0739    0.0000 C   0  0  0  0  0  0  0  0  0  0  0  0
   -2.1434    6.5292    0.0000 C   0  0  0  0  0  0  0  0  0  0  0  0
   -2.8579    5.2917    0.0000 C   0  0  0  0  0  0  0  0  0  0  0  0
   -2.8579    4.4667    0.0000 C   0  0  0  0  0  0  0  0  0  0  0  0
   -0.2670    0.0338    0.0000 C   0  0  0  0  0  0  0  0  0  0  0  0
   -2.8579    7.7667    0.0000 C   0  0  0  0  0  0  0  0  0  0  0  0
   -3.5724    6.5292    0.0000 C   0  0  0  0  0  0  0  0  0  0  0  0
  1 12  1  0  0  0  0
  1 22  1  0  0  0  0
  2 15  1  0  0  0  0
  2 24  1  0  0  0  0
  3 13  2  0  0  0  0
  4 14  2  0  0  0  0
  5 19  1  0  0  0  0
  6 27  2  0  0  0  0
  7 10  1  0  0  0  0
  7 16  1  0  0  0  0
  8 11  1  0  0  0  0
  8 17  1  0  0  0  0
  9 27  1  0  0  0  0
  9 31  1  0  0  0  0
  9 32  1  0  0  0  0
 10 11  2  0  0  0  0
 10 13  1  0  0  0  0
 11 14  1  0  0  0  0
 12 15  1  0  0  0  0
 12 16  1  0  0  0  0
 12 18  1  0  0  0  0
 13 14  1  0  0  0  0
 15 20  2  0  0  0  0
 17 19  1  0  0  0  0
 17 25  2  0  0  0  0
 18 23  1  0  0  0  0
 19 21  2  0  0  0  0
 20 26  1  0  0  0  0
 21 27  1  0  0  0  0
 21 28  1  0  0  0  0
 22 23  1  0  0  0  0
 24 26  2  0  0  0  0
 24 30  1  0  0  0  0
 25 29  1  0  0  0  0
 28 29  2  0  0  0  0
M  END
> <PUBCHEM_COMPOUND_ID_TYPE>
0

> <PUBCHEM_TOTAL_CHARGE>
0

> <PUBCHEM_SUBSTANCE_ID>
310931908

> <PUBCHEM_SUBSTANCE_VERSION>
1

> <PUBCHEM_EXT_DATASOURCE_NAME>
4488

> <PUBCHEM_EXT_DATASOURCE_REGID>
SCHEMBL16109243

> <PUBCHEM_SUBSTANCE_COMMENT>
InChI=1S/C23H25N3O6/c1-13-8-9-16(32-13)23(10-5-11-31-23)12-24-17-18(21(29)20(17)28)25-15-7-4-6-14(19(15)27)22(30)26(2)3/h4,6-9,24-25,27H,5,10-12H2,1-3H3
InChIKey=SNGWPFAGMPICTE-UHFFFAOYSA-N

> <PUBCHEM_SUBSTANCE_SYNONYM>
SCHEMBL16109243

> <PUBCHEM_XREF_EXT_ID>
SCHEMBL16109243

> <PUBCHEM_EXT_DATASOURCE_URL>
https://www.surechembl.org/

> <PUBCHEM_EXT_SUBSTANCE_URL>
https://www.surechembl.org/chemical/SCHEMBL16109243

> <PUBCHEM_CID_ASSOCIATIONS>
117600562  1

> <PUBCHEM_COORDINATE_TYPE>
1
3

$$$$
