310928789
  -OEChem-07211613022D

 13 12  0     1  0  0  0  0  0999 V2000
    0.9612   -1.2375    0.0000 Cl  0  0  0  0  0  0  0  0  0  0  0  0
    2.6112   -0.0000    0.0000 Cl  0  0  0  0  0  0  0  0  0  0  0  0
   -1.8967    1.2375    0.0000 N   0  0  0  0  0  0  0  0  0  0  0  0
   -1.1822   -0.0000    0.0000 C   0  0  0  0  0  0  0  0  0  0  0  0
    0.2467    0.0000    0.0000 C   0  0  0  0  0  0  0  0  0  0  0  0
    0.2467   -0.8250    0.0000 C   0  0  0  0  0  0  0  0  0  0  0  0
   -0.4678    0.4125    0.0000 C   0  0  0  0  0  0  0  0  0  0  0  0
   -1.1822   -0.8250    0.0000 C   0  0  0  0  0  0  0  0  0  0  0  0
   -0.4678   -1.2375    0.0000 C   0  0  0  0  0  0  0  0  0  0  0  0
   -1.8967    0.4125    0.0000 C   0  0  3  0  0  0  0  0  0  0  0  0
    0.9612    0.4125    0.0000 C   0  0  0  0  0  0  0  0  0  0  0  0
   -2.6112   -0.0000    0.0000 C   0  0  0  0  0  0  0  0  0  0  0  0
    1.7862   -0.0000    0.0000 H   0  0  0  0  0  0  0  0  0  0  0  0
  1  6  1  0  0  0  0
  2 13  1  0  0  0  0
 10  3  1  1  0  0  0
  4  7  1  0  0  0  0
  4  8  2  0  0  0  0
  4 10  1  0  0  0  0
  5  6  1  0  0  0  0
  5  7  2  0  0  0  0
  5 11  1  0  0  0  0
  6  9  2  0  0  0  0
  8  9  1  0  0  0  0
 10 12  1  0  0  0  0
M  END
> <PUBCHEM_COMPOUND_ID_TYPE>
0

> <PUBCHEM_TOTAL_CHARGE>
0

> <PUBCHEM_SUBSTANCE_ID>
310928789

> <PUBCHEM_SUBSTANCE_VERSION>
2

> <PUBCHEM_EXT_DATASOURCE_NAME>
11752

> <PUBCHEM_EXT_DATASOURCE_REGID>
BD209827

> <PUBCHEM_SUBSTANCE_SYNONYM>
(R)-1-(4-Chloro-3-methylphenyl)ethanamine hydrochloride
1255306-36-5

> <PUBCHEM_GENERIC_REGISTRY_NAME>
1255306-36-5

> <PUBCHEM_XREF_EXT_ID>
BD209827

> <PUBCHEM_EXT_DATASOURCE_URL>
http://www.bidepharmatech.com/en/index.html

> <PUBCHEM_EXT_SUBSTANCE_URL>
http://www.bidepharmatech.com/en/goodsview_goodscode_BD209827.html

> <PUBCHEM_CID_ASSOCIATIONS>
53484805  1
313  2
45072393  2

> <PUBCHEM_COORDINATE_TYPE>
1
3

> <PUBCHEM_BONDANNOTATIONS>
10  3  5

$$$$
