310945871
  -OEChem-07211613022D

 11 12  0     1  0  0  0  0  0999 V2000
   -0.8787   -0.3959    0.0000 N   0  0  0  0  0  0  0  0  0  0  0  0
    1.2263   -1.3807    0.0000 N   0  0  0  0  0  0  0  0  0  0  0  0
   -0.0483   -0.5890    0.0000 C   0  0  3  0  0  0  0  0  0  0  0  0
    0.3959    0.1062    0.0000 C   0  0  3  0  0  0  0  0  0  0  0  0
   -0.9559    0.4538    0.0000 C   0  0  0  0  0  0  0  0  0  0  0  0
   -0.1834    0.7435    0.0000 C   0  0  0  0  0  0  0  0  0  0  0  0
    0.3572   -1.3614    0.0000 C   0  0  0  0  0  0  0  0  0  0  0  0
    1.2069    0.1062    0.0000 C   0  0  0  0  0  0  0  0  0  0  0  0
    1.6318   -0.6083    0.0000 C   0  0  0  0  0  0  0  0  0  0  0  0
   -1.6318    0.7435    0.0000 C   0  0  0  0  0  0  0  0  0  0  0  0
   -1.4966    1.3807    0.0000 C   0  0  0  0  0  0  0  0  0  0  0  0
  1  3  1  0  0  0  0
  1  5  1  0  0  0  0
  2  7  2  0  0  0  0
  2  9  1  0  0  0  0
  3  4  1  0  0  0  0
  3  7  1  0  0  0  0
  4  6  1  0  0  0  0
  4  8  1  0  0  0  0
  5  6  2  0  0  0  0
  5 10  1  0  0  0  0
  8  9  2  0  0  0  0
 10 11  1  0  0  0  0
M  END
> <PUBCHEM_COMPOUND_ID_TYPE>
0

> <PUBCHEM_TOTAL_CHARGE>
0

> <PUBCHEM_SUBSTANCE_ID>
310945871

> <PUBCHEM_SUBSTANCE_VERSION>
1

> <PUBCHEM_EXT_DATASOURCE_NAME>
4488

> <PUBCHEM_EXT_DATASOURCE_REGID>
SCHEMBL16123976

> <PUBCHEM_SUBSTANCE_COMMENT>
InChI=1S/C9H12N2/c1-2-8-5-7-3-4-10-6-9(7)11-8/h3-7,9,11H,2H2,1H3
InChIKey=YVDPUXKCHACDEJ-UHFFFAOYSA-N

> <PUBCHEM_SUBSTANCE_SYNONYM>
SCHEMBL16123976

> <PUBCHEM_XREF_EXT_ID>
SCHEMBL16123976

> <PUBCHEM_EXT_DATASOURCE_URL>
https://www.surechembl.org/

> <PUBCHEM_EXT_SUBSTANCE_URL>
https://www.surechembl.org/chemical/SCHEMBL16123976

> <PUBCHEM_CID_ASSOCIATIONS>
117611855  1

> <PUBCHEM_COORDINATE_TYPE>
1
3

$$$$
