310945824
  -OEChem-07211613022D

 41 43  0     1  0  0  0  0  0999 V2000
    5.7899    0.6829    0.0000 O   0  0  0  0  0  0  0  0  0  0  0  0
    4.6616   -1.2768    0.0000 O   0  0  0  0  0  0  0  0  0  0  0  0
    2.5090    0.7868    0.0000 O   0  0  0  0  0  0  0  0  0  0  0  0
    0.3415   -1.2768    0.0000 O   0  0  0  0  0  0  0  0  0  0  0  0
    4.6616   -2.9395    0.0000 O   0  0  0  0  0  0  0  0  0  0  0  0
   -1.8112    0.7868    0.0000 O   0  0  0  0  0  0  0  0  0  0  0  0
   -3.9638   -0.4603    0.0000 O   0  0  0  0  0  0  0  0  0  0  0  0
   -5.4039   -0.4603    0.0000 O   0  0  0  0  0  0  0  0  0  0  0  0
    3.2215   -0.4603    0.0000 N   0  0  0  0  0  0  0  0  0  0  0  0
    1.0689   -0.0446    0.0000 N   0  0  0  0  0  0  0  0  0  0  0  0
   -1.0838   -0.4603    0.0000 N   0  0  0  0  0  0  0  0  0  0  0  0
    5.3890    0.0000    0.0000 C   0  0  3  0  0  0  0  0  0  0  0  0
    4.6764   -0.4008    0.0000 C   0  0  0  0  0  0  0  0  0  0  0  0
    5.0030    0.6977    0.0000 C   0  0  0  0  0  0  0  0  0  0  0  0
    3.9490   -0.0149    0.0000 C   0  0  3  0  0  0  0  0  0  0  0  0
    6.1313   -0.4305    0.0000 C   0  0  0  0  0  0  0  0  0  0  0  0
    3.9490    1.3064    0.0000 C   0  0  0  0  0  0  0  0  0  0  0  0
    2.4941   -0.0297    0.0000 C   0  0  0  0  0  0  0  0  0  0  0  0
    1.7964   -0.4157    0.0000 C   0  0  3  0  0  0  0  0  0  0  0  0
    3.2364    1.7369    0.0000 C   0  0  0  0  0  0  0  0  0  0  0  0
    1.7815   -1.2470    0.0000 C   0  0  0  0  0  0  0  0  0  0  0  0
    2.5238   -1.6627    0.0000 C   0  0  0  0  0  0  0  0  0  0  0  0
    0.3711   -0.4008    0.0000 C   0  0  0  0  0  0  0  0  0  0  0  0
    2.5238    1.3212    0.0000 C   0  0  0  0  0  0  0  0  0  0  0  0
    3.2364    2.5387    0.0000 C   0  0  0  0  0  0  0  0  0  0  0  0
   -0.3563   -0.0149    0.0000 C   0  0  3  0  0  0  0  0  0  0  0  0
    2.5238   -2.4941    0.0000 C   0  0  0  0  0  0  0  0  0  0  0  0
    3.2215   -1.2619    0.0000 C   0  0  0  0  0  0  0  0  0  0  0  0
    1.8112    1.7221    0.0000 C   0  0  0  0  0  0  0  0  0  0  0  0
    2.5090    2.9395    0.0000 C   0  0  0  0  0  0  0  0  0  0  0  0
    3.9490   -2.4792    0.0000 C   0  0  0  0  0  0  0  0  0  0  0  0
    3.2364   -2.8949    0.0000 C   0  0  0  0  0  0  0  0  0  0  0  0
    3.9490   -1.6776    0.0000 C   0  0  0  0  0  0  0  0  0  0  0  0
    1.8112    2.5387    0.0000 C   0  0  0  0  0  0  0  0  0  0  0  0
   -1.8112   -0.0297    0.0000 C   0  0  0  0  0  0  0  0  0  0  0  0
   -0.3415    0.8314    0.0000 C   0  0  0  0  0  0  0  0  0  0  0  0
   -2.4941   -0.4157    0.0000 C   0  0  0  0  0  0  0  0  0  0  0  0
    5.4187   -2.5090    0.0000 C   0  0  0  0  0  0  0  0  0  0  0  0
   -3.2513   -0.0149    0.0000 C   0  0  0  0  0  0  0  0  0  0  0  0
   -4.6913   -0.0149    0.0000 C   0  0  0  0  0  0  0  0  0  0  0  0
   -6.1313   -0.0297    0.0000 C   0  0  0  0  0  0  0  0  0  0  0  0
  1 12  1  0  0  0  0
  1 14  1  0  0  0  0
  2 13  2  0  0  0  0
  3 18  2  0  0  0  0
  4 23  2  0  0  0  0
  5 31  1  0  0  0  0
  5 38  1  0  0  0  0
  6 35  2  0  0  0  0
  7 39  1  0  0  0  0
  7 40  1  0  0  0  0
  8 40  1  0  0  0  0
  8 41  1  0  0  0  0
  9 15  1  0  0  0  0
  9 18  1  0  0  0  0
 10 19  1  0  0  0  0
 10 23  1  0  0  0  0
 11 26  1  0  0  0  0
 11 35  1  0  0  0  0
 12 13  1  0  0  0  0
 12 14  1  0  0  0  0
 12 16  1  0  0  0  0
 13 15  1  0  0  0  0
 15 17  1  0  0  0  0
 17 20  1  0  0  0  0
 18 19  1  0  0  0  0
 19 21  1  0  0  0  0
 20 24  2  0  0  0  0
 20 25  1  0  0  0  0
 21 22  1  0  0  0  0
 22 27  2  0  0  0  0
 22 28  1  0  0  0  0
 23 26  1  0  0  0  0
 24 29  1  0  0  0  0
 25 30  2  0  0  0  0
 26 36  1  0  0  0  0
 27 32  1  0  0  0  0
 28 33  2  0  0  0  0
 29 34  2  0  0  0  0
 30 34  1  0  0  0  0
 31 32  2  0  0  0  0
 31 33  1  0  0  0  0
 35 37  1  0  0  0  0
 37 39  1  0  0  0  0
M  END
> <PUBCHEM_COMPOUND_ID_TYPE>
0

> <PUBCHEM_TOTAL_CHARGE>
0

> <PUBCHEM_SUBSTANCE_ID>
310945824

> <PUBCHEM_SUBSTANCE_VERSION>
1

> <PUBCHEM_EXT_DATASOURCE_NAME>
4488

> <PUBCHEM_EXT_DATASOURCE_REGID>
SCHEMBL16123929

> <PUBCHEM_SUBSTANCE_COMMENT>
InChI=1S/C30H39N3O8/c1-20(31-26(34)14-15-40-19-38-3)28(36)33-25(17-22-10-12-23(39-4)13-11-22)29(37)32-24(27(35)30(2)18-41-30)16-21-8-6-5-7-9-21/h5-13,20,24-25H,14-19H2,1-4H3,(H,31,34)(H,32,37)(H,33,36)
InChIKey=LQJOKWXCNMIAMS-UHFFFAOYSA-N

> <PUBCHEM_SUBSTANCE_SYNONYM>
SCHEMBL16123929

> <PUBCHEM_XREF_EXT_ID>
SCHEMBL16123929

> <PUBCHEM_EXT_DATASOURCE_URL>
https://www.surechembl.org/

> <PUBCHEM_EXT_SUBSTANCE_URL>
https://www.surechembl.org/chemical/SCHEMBL16123929

> <PUBCHEM_CID_ASSOCIATIONS>
117611810  1

> <PUBCHEM_COORDINATE_TYPE>
1
3

$$$$
