310933938
  -OEChem-07211613022D

 18 18  0     1  0  0  0  0  0999 V2000
    3.8688   -0.3095    0.0000 O   0  0  0  0  0  0  0  0  0  0  0  0
    0.7583   -1.5939    0.0000 O   0  0  0  0  0  0  0  0  0  0  0  0
    4.3950   -1.6249    0.0000 O   0  0  0  0  0  0  0  0  0  0  0  0
    1.2999   -0.2940    0.0000 O   0  0  0  0  0  0  0  0  0  0  0  0
    3.3272   -2.8010    0.0000 O   0  0  0  0  0  0  0  0  0  0  0  0
    0.7892   -1.7797    0.0000 O   0  0  0  0  0  0  0  0  0  0  0  0
    4.3486   -1.7951    0.0000 O   0  0  0  0  0  0  0  0  0  0  0  0
    1.7951   -2.7856    0.0000 O   0  0  0  0  0  0  0  0  0  0  0  0
    2.9712   -1.4237    0.0000 C   0  0  3  0  0  0  0  0  0  0  0  0
    2.1665   -1.4237    0.0000 C   0  0  3  0  0  0  0  0  0  0  0  0
    2.1665   -0.5726    0.0000 C   0  0  0  0  0  0  0  0  0  0  0  0
    3.0022   -0.5726    0.0000 C   0  0  0  0  0  0  0  0  0  0  0  0
    3.7450   -1.1142    0.0000 C   0  0  0  0  0  0  0  0  0  0  0  0
    1.4082   -1.0987    0.0000 C   0  0  0  0  0  0  0  0  0  0  0  0
    3.5593   -1.9963    0.0000 C   0  0  0  0  0  0  0  0  0  0  0  0
    1.5785   -1.9963    0.0000 C   0  0  0  0  0  0  0  0  0  0  0  0
    4.6426    0.0000    0.0000 C   0  0  0  0  0  0  0  0  0  0  0  0
    0.0000   -1.2844    0.0000 C   0  0  0  0  0  0  0  0  0  0  0  0
  1 13  1  0  0  0  0
  1 17  1  0  0  0  0
  2 14  1  0  0  0  0
  2 18  1  0  0  0  0
  3 13  2  0  0  0  0
  4 14  2  0  0  0  0
  5 15  2  0  0  0  0
  6 16  2  0  0  0  0
  7 15  1  0  0  0  0
  8 16  1  0  0  0  0
  9 10  1  0  0  0  0
  9 12  1  0  0  0  0
  9 13  1  0  0  0  0
  9 15  1  0  0  0  0
 10 11  1  0  0  0  0
 10 14  1  0  0  0  0
 10 16  1  0  0  0  0
 11 12  1  0  0  0  0
M  END
> <PUBCHEM_COMPOUND_ID_TYPE>
0

> <PUBCHEM_TOTAL_CHARGE>
0

> <PUBCHEM_SUBSTANCE_ID>
310933938

> <PUBCHEM_SUBSTANCE_VERSION>
1

> <PUBCHEM_EXT_DATASOURCE_NAME>
4488

> <PUBCHEM_EXT_DATASOURCE_REGID>
SCHEMBL16111377

> <PUBCHEM_SUBSTANCE_COMMENT>
InChI=1S/C10H12O8/c1-17-7(15)9(5(11)12)3-4-10(9,6(13)14)8(16)18-2/h3-4H2,1-2H3,(H,11,12)(H,13,14)
InChIKey=MKWDABBYLXPVSU-UHFFFAOYSA-N

> <PUBCHEM_SUBSTANCE_SYNONYM>
SCHEMBL16111377

> <PUBCHEM_XREF_EXT_ID>
SCHEMBL16111377

> <PUBCHEM_EXT_DATASOURCE_URL>
https://www.surechembl.org/

> <PUBCHEM_EXT_SUBSTANCE_URL>
https://www.surechembl.org/chemical/SCHEMBL16111377

> <PUBCHEM_CID_ASSOCIATIONS>
117602260  1

> <PUBCHEM_COORDINATE_TYPE>
1
3

$$$$
