310943054
  -OEChem-07211613022D

 28 29  0     1  0  0  0  0  0999 V2000
    2.9740   -0.1896    0.0000 Br  0  0  0  0  0  0  0  0  0  0  0  0
    1.4741    0.6034    0.0000 S   0  0  0  0  0  0  0  0  0  0  0  0
   -1.4569   -1.3620    0.0000 F   0  0  0  0  0  0  0  0  0  0  0  0
   -2.2499   -2.1723    0.0000 F   0  0  0  0  0  0  0  0  0  0  0  0
   -3.0430   -1.3620    0.0000 F   0  0  0  0  0  0  0  0  0  0  0  0
   -3.3534   -0.9137    0.0000 F   0  0  0  0  0  0  0  0  0  0  0  0
   -3.7326    0.1380    0.0000 F   0  0  0  0  0  0  0  0  0  0  0  0
   -2.6637    0.5000    0.0000 F   0  0  0  0  0  0  0  0  0  0  0  0
   -3.0085   -0.9655    0.0000 O   0  0  0  0  0  0  0  0  0  0  0  0
    0.7328    0.2069    0.0000 O   0  0  0  0  0  0  0  0  0  0  0  0
    2.2327    0.2241    0.0000 O   0  0  0  0  0  0  0  0  0  0  0  0
    0.7328    1.0000    0.0000 N   0  0  3  0  0  0  0  0  0  0  0  0
   -2.2672   -0.5690    0.0000 C   0  0  0  0  0  0  0  0  0  0  0  0
   -3.0085   -0.1896    0.0000 C   0  0  0  0  0  0  0  0  0  0  0  0
   -2.2672   -1.3620    0.0000 C   0  0  0  0  0  0  0  0  0  0  0  0
   -1.5258   -0.1724    0.0000 C   0  0  0  0  0  0  0  0  0  0  0  0
   -0.0086    0.6207    0.0000 C   0  0  0  0  0  0  0  0  0  0  0  0
   -1.4913    0.6034    0.0000 C   0  0  0  0  0  0  0  0  0  0  0  0
   -0.7845   -0.5690    0.0000 C   0  0  0  0  0  0  0  0  0  0  0  0
    2.2327    1.0172    0.0000 C   0  0  0  0  0  0  0  0  0  0  0  0
   -0.7499    0.9828    0.0000 C   0  0  0  0  0  0  0  0  0  0  0  0
   -0.0258   -0.1896    0.0000 C   0  0  0  0  0  0  0  0  0  0  0  0
    2.9913    0.6207    0.0000 C   0  0  0  0  0  0  0  0  0  0  0  0
    2.2672    1.7931    0.0000 C   0  0  0  0  0  0  0  0  0  0  0  0
    0.7328    1.7758    0.0000 C   0  0  0  0  0  0  0  0  0  0  0  0
    3.7154    1.0000    0.0000 C   0  0  0  0  0  0  0  0  0  0  0  0
    2.9740    2.1723    0.0000 C   0  0  0  0  0  0  0  0  0  0  0  0
    3.7326    1.7585    0.0000 C   0  0  0  0  0  0  0  0  0  0  0  0
  1 23  1  0  0  0  0
  2 10  2  0  0  0  0
  2 11  2  0  0  0  0
  2 12  1  0  0  0  0
  2 20  1  0  0  0  0
  3 15  1  0  0  0  0
  4 15  1  0  0  0  0
  5 15  1  0  0  0  0
  6 14  1  0  0  0  0
  7 14  1  0  0  0  0
  8 14  1  0  0  0  0
  9 13  1  0  0  0  0
 12 17  1  0  0  0  0
 12 25  1  0  0  0  0
 13 14  1  0  0  0  0
 13 15  1  0  0  0  0
 13 16  1  0  0  0  0
 16 18  2  0  0  0  0
 16 19  1  0  0  0  0
 17 21  2  0  0  0  0
 17 22  1  0  0  0  0
 18 21  1  0  0  0  0
 19 22  2  0  0  0  0
 20 23  2  0  0  0  0
 20 24  1  0  0  0  0
 23 26  1  0  0  0  0
 24 27  2  0  0  0  0
 26 28  2  0  0  0  0
 27 28  1  0  0  0  0
M  END
> <PUBCHEM_COMPOUND_ID_TYPE>
0

> <PUBCHEM_TOTAL_CHARGE>
0

> <PUBCHEM_SUBSTANCE_ID>
310943054

> <PUBCHEM_SUBSTANCE_VERSION>
1

> <PUBCHEM_EXT_DATASOURCE_NAME>
4488

> <PUBCHEM_EXT_DATASOURCE_REGID>
SCHEMBL16121113

> <PUBCHEM_SUBSTANCE_COMMENT>
InChI=1S/C16H12BrF6NO3S/c1-24(28(26,27)13-5-3-2-4-12(13)17)11-8-6-10(7-9-11)14(25,15(18,19)20)16(21,22)23/h2-9,25H,1H3
InChIKey=MVDLOWDPKHHEJH-UHFFFAOYSA-N

> <PUBCHEM_SUBSTANCE_SYNONYM>
SCHEMBL16121113

> <PUBCHEM_XREF_EXT_ID>
SCHEMBL16121113

> <PUBCHEM_EXT_DATASOURCE_URL>
https://www.surechembl.org/

> <PUBCHEM_EXT_SUBSTANCE_URL>
https://www.surechembl.org/chemical/SCHEMBL16121113

> <PUBCHEM_CID_ASSOCIATIONS>
117609493  1

> <PUBCHEM_COORDINATE_TYPE>
1
3

$$$$
