310946495
  -OEChem-07211613022D

 22 22  0     1  0  0  0  0  0999 V2000
   -6.9940   14.0911    0.0000 O   0  0  0  0  0  0  0  0  0  0  0  0
   -8.4229   14.0911    0.0000 O   0  0  0  0  0  0  0  0  0  0  0  0
   -7.2960   10.7102    0.0000 O   0  0  0  0  0  0  0  0  0  0  0  0
   -8.4229   11.8372    0.0000 O   0  0  0  0  0  0  0  0  0  0  0  0
   -7.7085   12.8536    0.0000 N   0  0  0  0  0  0  0  0  0  0  0  0
   -6.7805   14.8880    0.0000 C   0  0  0  0  0  0  0  0  0  0  0  0
   -7.2960   12.1392    0.0000 C   0  0  3  0  0  0  0  0  0  0  0  0
   -7.7085   13.6786    0.0000 C   0  0  0  0  0  0  0  0  0  0  0  0
   -5.7701   15.8984    0.0000 C   0  0  0  0  0  0  0  0  0  0  0  0
   -5.9836   15.1015    0.0000 C   0  0  0  0  0  0  0  0  0  0  0  0
   -7.3638   15.4714    0.0000 C   0  0  0  0  0  0  0  0  0  0  0  0
   -7.7085   11.4247    0.0000 C   0  0  0  0  0  0  0  0  0  0  0  0
   -6.4710   12.1392    0.0000 C   0  0  0  0  0  0  0  0  0  0  0  0
   -6.3534   16.4818    0.0000 C   0  0  0  0  0  0  0  0  0  0  0  0
   -7.1503   16.2683    0.0000 C   0  0  0  0  0  0  0  0  0  0  0  0
   -4.9732   16.1120    0.0000 C   0  0  0  0  0  0  0  0  0  0  0  0
   -6.0585   11.4247    0.0000 C   0  0  0  0  0  0  0  0  0  0  0  0
   -4.5607   16.8264    0.0000 C   0  0  0  0  0  0  0  0  0  0  0  0
   -6.0585   10.5997    0.0000 C   0  0  0  0  0  0  0  0  0  0  0  0
   -5.3440   11.8372    0.0000 C   0  0  0  0  0  0  0  0  0  0  0  0
   -3.7357   16.8264    0.0000 C   0  0  0  0  0  0  0  0  0  0  0  0
   -3.3232   17.5409    0.0000 C   0  0  0  0  0  0  0  0  0  0  0  0
  1  6  1  0  0  0  0
  1  8  1  0  0  0  0
  2  8  2  0  0  0  0
  3 12  2  0  0  0  0
  4 12  1  0  0  0  0
  5  7  1  0  0  0  0
  5  8  1  0  0  0  0
  6 10  2  0  0  0  0
  6 11  1  0  0  0  0
  7 12  1  0  0  0  0
  7 13  1  0  0  0  0
  9 10  1  0  0  0  0
  9 14  2  0  0  0  0
  9 16  1  0  0  0  0
 11 15  2  0  0  0  0
 13 17  1  0  0  0  0
 14 15  1  0  0  0  0
 16 18  1  0  0  0  0
 17 19  1  0  0  0  0
 17 20  1  0  0  0  0
 18 21  1  0  0  0  0
 21 22  1  0  0  0  0
M  END
> <PUBCHEM_COMPOUND_ID_TYPE>
0

> <PUBCHEM_TOTAL_CHARGE>
0

> <PUBCHEM_SUBSTANCE_ID>
310946495

> <PUBCHEM_SUBSTANCE_VERSION>
1

> <PUBCHEM_EXT_DATASOURCE_NAME>
4488

> <PUBCHEM_EXT_DATASOURCE_REGID>
SCHEMBL16124616

> <PUBCHEM_SUBSTANCE_COMMENT>
InChI=1S/C17H25NO4/c1-4-5-7-13-8-6-9-14(11-13)22-17(21)18-15(16(19)20)10-12(2)3/h6,8-9,11-12,15H,4-5,7,10H2,1-3H3,(H,18,21)(H,19,20)
InChIKey=UXEVTFNHXQEQCM-UHFFFAOYSA-N

> <PUBCHEM_SUBSTANCE_SYNONYM>
SCHEMBL16124616

> <PUBCHEM_XREF_EXT_ID>
SCHEMBL16124616

> <PUBCHEM_EXT_DATASOURCE_URL>
https://www.surechembl.org/

> <PUBCHEM_EXT_SUBSTANCE_URL>
https://www.surechembl.org/chemical/SCHEMBL16124616

> <PUBCHEM_CID_ASSOCIATIONS>
117612401  1

> <PUBCHEM_COORDINATE_TYPE>
1
3

$$$$
