310947680
  -OEChem-07211613022D

 25 26  0     1  0  0  0  0  0999 V2000
   -3.3738   -2.9222    0.0000 F   0  0  0  0  0  0  0  0  0  0  0  0
   -3.0040   -1.5420    0.0000 F   0  0  0  0  0  0  0  0  0  0  0  0
   -3.5873   -2.1253    0.0000 F   0  0  0  0  0  0  0  0  0  0  0  0
   -0.0300   -1.5992    0.0000 O   0  0  0  0  0  0  0  0  0  0  0  0
   -1.2546   -5.0271    0.0000 N   0  0  0  0  0  0  0  0  0  0  0  0
   -0.7696   -5.6946    0.0000 N   0  0  0  0  0  0  0  0  0  0  0  0
    1.4439   -4.6146    0.0000 N   0  0  3  0  0  0  0  0  0  0  0  0
   -0.9832   -3.5628    0.0000 C   0  0  0  0  0  0  0  0  0  0  0  0
   -0.7696   -4.3597    0.0000 C   0  0  0  0  0  0  0  0  0  0  0  0
   -1.9936   -2.5524    0.0000 C   0  0  0  0  0  0  0  0  0  0  0  0
   -1.7800   -3.3493    0.0000 C   0  0  0  0  0  0  0  0  0  0  0  0
    0.0150   -4.6146    0.0000 C   0  0  0  0  0  0  0  0  0  0  0  0
   -2.7905   -2.3389    0.0000 C   0  0  0  0  0  0  0  0  0  0  0  0
   -0.6133   -2.1826    0.0000 C   0  0  0  0  0  0  0  0  0  0  0  0
   -0.3998   -2.9794    0.0000 C   0  0  0  0  0  0  0  0  0  0  0  0
   -1.4102   -1.9690    0.0000 C   0  0  0  0  0  0  0  0  0  0  0  0
    0.0150   -5.4396    0.0000 C   0  0  0  0  0  0  0  0  0  0  0  0
    0.7295   -4.2021    0.0000 C   0  0  0  0  0  0  0  0  0  0  0  0
   -0.2435   -0.8023    0.0000 C   0  0  0  0  0  0  0  0  0  0  0  0
    2.1584   -4.2021    0.0000 C   0  0  0  0  0  0  0  0  0  0  0  0
    1.4439   -5.4396    0.0000 C   0  0  0  0  0  0  0  0  0  0  0  0
    0.3399   -0.2189    0.0000 C   0  0  0  0  0  0  0  0  0  0  0  0
   -1.0404   -0.5888    0.0000 C   0  0  0  0  0  0  0  0  0  0  0  0
    2.8729   -4.6146    0.0000 C   0  0  0  0  0  0  0  0  0  0  0  0
    3.5873   -4.2021    0.0000 C   0  0  0  0  0  0  0  0  0  0  0  0
  1 13  1  0  0  0  0
  2 13  1  0  0  0  0
  3 13  1  0  0  0  0
  4 14  1  0  0  0  0
  4 19  1  0  0  0  0
  5  6  1  0  0  0  0
  5  9  2  0  0  0  0
  6 17  1  0  0  0  0
  7 18  1  0  0  0  0
  7 20  1  0  0  0  0
  7 21  1  0  0  0  0
  8  9  1  0  0  0  0
  8 11  2  0  0  0  0
  8 15  1  0  0  0  0
  9 12  1  0  0  0  0
 10 11  1  0  0  0  0
 10 13  1  0  0  0  0
 10 16  2  0  0  0  0
 12 17  2  0  0  0  0
 12 18  1  0  0  0  0
 14 15  2  0  0  0  0
 14 16  1  0  0  0  0
 19 22  1  0  0  0  0
 19 23  1  0  0  0  0
 20 24  1  0  0  0  0
 24 25  1  0  0  0  0
M  END
> <PUBCHEM_COMPOUND_ID_TYPE>
0

> <PUBCHEM_TOTAL_CHARGE>
0

> <PUBCHEM_SUBSTANCE_ID>
310947680

> <PUBCHEM_SUBSTANCE_VERSION>
1

> <PUBCHEM_EXT_DATASOURCE_NAME>
4488

> <PUBCHEM_EXT_DATASOURCE_REGID>
SCHEMBL16125848

> <PUBCHEM_SUBSTANCE_COMMENT>
InChI=1S/C18H24F3N3O/c1-5-6-24(4)11-14-10-22-23-17(14)13-7-15(18(19,20)21)9-16(8-13)25-12(2)3/h7-10,12H,5-6,11H2,1-4H3,(H,22,23)
InChIKey=NPUYNRCORXPSNF-UHFFFAOYSA-N

> <PUBCHEM_SUBSTANCE_SYNONYM>
SCHEMBL16125848

> <PUBCHEM_XREF_EXT_ID>
SCHEMBL16125848

> <PUBCHEM_EXT_DATASOURCE_URL>
https://www.surechembl.org/

> <PUBCHEM_EXT_SUBSTANCE_URL>
https://www.surechembl.org/chemical/SCHEMBL16125848

> <PUBCHEM_CID_ASSOCIATIONS>
117613395  1

> <PUBCHEM_COORDINATE_TYPE>
1
3

$$$$
