310935339
  -OEChem-07211613022D

 25 27  0     1  0  0  0  0  0999 V2000
    7.4997   -2.0999    0.0000 F   0  0  0  0  0  0  0  0  0  0  0  0
    3.6748   -1.4250    0.0000 O   0  0  0  0  0  0  0  0  0  0  0  0
    3.3749   -4.1748    0.0000 O   0  0  0  0  0  0  0  0  0  0  0  0
    0.7499   -2.9499    0.0000 O   0  0  0  0  0  0  0  0  0  0  0  0
    4.7498   -3.7249    0.0000 N   0  0  0  0  0  0  0  0  0  0  0  0
    2.8999   -2.5249    0.0000 C   0  0  0  0  0  0  0  0  0  0  0  0
    3.6748   -2.7499    0.0000 C   0  0  0  0  0  0  0  0  0  0  0  0
    4.1748   -2.0999    0.0000 C   0  0  0  0  0  0  0  0  0  0  0  0
    2.8999   -1.6499    0.0000 C   0  0  0  0  0  0  0  0  0  0  0  0
    4.9998   -2.0999    0.0000 C   0  0  0  0  0  0  0  0  0  0  0  0
    2.1499   -2.9249    0.0000 C   0  0  0  0  0  0  0  0  0  0  0  0
    1.4750   -1.6499    0.0000 C   0  0  0  0  0  0  0  0  0  0  0  0
    2.1499   -1.2499    0.0000 C   0  0  0  0  0  0  0  0  0  0  0  0
    3.9498   -3.5499    0.0000 C   0  0  0  0  0  0  0  0  0  0  0  0
    1.4750   -2.5249    0.0000 C   0  0  0  0  0  0  0  0  0  0  0  0
    0.7499   -1.2499    0.0000 C   0  0  3  0  0  0  0  0  0  0  0  0
    5.4248   -1.3749    0.0000 C   0  0  0  0  0  0  0  0  0  0  0  0
    5.4248   -2.7999    0.0000 C   0  0  0  0  0  0  0  0  0  0  0  0
    6.2498   -1.3749    0.0000 C   0  0  0  0  0  0  0  0  0  0  0  0
    6.2498   -2.7999    0.0000 C   0  0  0  0  0  0  0  0  0  0  0  0
    6.6747   -2.0999    0.0000 C   0  0  0  0  0  0  0  0  0  0  0  0
    0.7499   -0.4250    0.0000 C   0  0  0  0  0  0  0  0  0  0  0  0
    0.0000   -1.6499    0.0000 C   0  0  0  0  0  0  0  0  0  0  0  0
    4.9998   -4.4998    0.0000 C   0  0  0  0  0  0  0  0  0  0  0  0
    0.0250    0.0000    0.0000 C   0  0  0  0  0  0  0  0  0  0  0  0
  1 21  1  0  0  0  0
  2  8  1  0  0  0  0
  2  9  1  0  0  0  0
  3 14  2  0  0  0  0
  4 15  1  0  0  0  0
  5 14  1  0  0  0  0
  5 24  1  0  0  0  0
  6  7  1  0  0  0  0
  6  9  2  0  0  0  0
  6 11  1  0  0  0  0
  7  8  2  0  0  0  0
  7 14  1  0  0  0  0
  8 10  1  0  0  0  0
  9 13  1  0  0  0  0
 10 17  2  0  0  0  0
 10 18  1  0  0  0  0
 11 15  2  0  0  0  0
 12 13  2  0  0  0  0
 12 15  1  0  0  0  0
 12 16  1  0  0  0  0
 16 22  1  0  0  0  0
 16 23  1  0  0  0  0
 17 19  1  0  0  0  0
 18 20  2  0  0  0  0
 19 21  2  0  0  0  0
 20 21  1  0  0  0  0
 22 25  1  0  0  0  0
M  END
> <PUBCHEM_COMPOUND_ID_TYPE>
0

> <PUBCHEM_TOTAL_CHARGE>
0

> <PUBCHEM_SUBSTANCE_ID>
310935339

> <PUBCHEM_SUBSTANCE_VERSION>
1

> <PUBCHEM_EXT_DATASOURCE_NAME>
4488

> <PUBCHEM_EXT_DATASOURCE_REGID>
SCHEMBL16112877

> <PUBCHEM_SUBSTANCE_COMMENT>
InChI=1S/C20H20FNO3/c1-4-11(2)14-10-17-15(9-16(14)23)18(20(24)22-3)19(25-17)12-5-7-13(21)8-6-12/h5-11,23H,4H2,1-3H3,(H,22,24)
InChIKey=ZQJVDWSXYLIIGN-UHFFFAOYSA-N

> <PUBCHEM_SUBSTANCE_SYNONYM>
SCHEMBL16112877

> <PUBCHEM_XREF_EXT_ID>
SCHEMBL16112877

> <PUBCHEM_EXT_DATASOURCE_URL>
https://www.surechembl.org/

> <PUBCHEM_EXT_SUBSTANCE_URL>
https://www.surechembl.org/chemical/SCHEMBL16112877

> <PUBCHEM_CID_ASSOCIATIONS>
117603394  1

> <PUBCHEM_COORDINATE_TYPE>
1
3

$$$$
