310934488
  -OEChem-07211613022D

 28 31  0     1  0  0  0  0  0999 V2000
    1.0396   -1.4521    0.0000 F   0  0  0  0  0  0  0  0  0  0  0  0
   -4.3125   -1.8485    0.0000 F   0  0  0  0  0  0  0  0  0  0  0  0
   -4.1636    2.3401    0.0000 O   0  0  0  0  0  0  0  0  0  0  0  0
   -5.5926    1.5151    0.0000 O   0  0  0  0  0  0  0  0  0  0  0  0
    0.7846    0.6674    0.0000 N   0  0  0  0  0  0  0  0  0  0  0  0
    1.2696    0.0000    0.0000 N   0  0  0  0  0  0  0  0  0  0  0  0
   -4.8780    1.1026    0.0000 N   0  0  0  0  0  0  0  0  0  0  0  0
   -3.4491    1.1026    0.0000 C   0  0  3  0  0  0  0  0  0  0  0  0
   -4.1941    0.3311    0.0000 C   0  0  0  0  0  0  0  0  0  0  0  0
   -2.1434    0.8250    0.0000 C   0  0  3  0  0  0  0  0  0  0  0  0
   -2.8971    0.4895    0.0000 C   0  0  0  0  0  0  0  0  0  0  0  0
   -4.1636    1.5151    0.0000 C   0  0  0  0  0  0  0  0  0  0  0  0
   -3.0366    1.8170    0.0000 C   0  0  0  0  0  0  0  0  0  0  0  0
   -1.4290    0.4125    0.0000 C   0  0  0  0  0  0  0  0  0  0  0  0
    0.0000    0.4125    0.0000 C   0  0  0  0  0  0  0  0  0  0  0  0
   -2.2296    1.6455    0.0000 C   0  0  0  0  0  0  0  0  0  0  0  0
   -3.9667   -0.4620    0.0000 C   0  0  0  0  0  0  0  0  0  0  0  0
    0.0000   -0.4125    0.0000 C   0  0  0  0  0  0  0  0  0  0  0  0
   -0.7144    0.8250    0.0000 C   0  0  0  0  0  0  0  0  0  0  0  0
   -4.9946    0.5307    0.0000 C   0  0  0  0  0  0  0  0  0  0  0  0
    0.7846   -0.6674    0.0000 C   0  0  0  0  0  0  0  0  0  0  0  0
   -1.4290   -0.4125    0.0000 C   0  0  0  0  0  0  0  0  0  0  0  0
   -0.7144   -0.8250    0.0000 C   0  0  0  0  0  0  0  0  0  0  0  0
   -4.5399   -1.0555    0.0000 C   0  0  0  0  0  0  0  0  0  0  0  0
   -5.5677   -0.0628    0.0000 C   0  0  0  0  0  0  0  0  0  0  0  0
   -5.3403   -0.8559    0.0000 C   0  0  0  0  0  0  0  0  0  0  0  0
   -3.1662   -0.6616    0.0000 C   0  0  0  0  0  0  0  0  0  0  0  0
    1.0396    1.4521    0.0000 C   0  0  0  0  0  0  0  0  0  0  0  0
  1 21  1  0  0  0  0
  2 24  1  0  0  0  0
  3 12  2  0  0  0  0
  4  7  1  0  0  0  0
  5  6  1  0  0  0  0
  5 15  1  0  0  0  0
  5 28  1  0  0  0  0
  6 21  2  0  0  0  0
  7 12  1  0  0  0  0
  8  9  1  0  0  0  0
  8 11  1  0  0  0  0
  8 12  1  0  0  0  0
  8 13  1  0  0  0  0
  9 17  1  0  0  0  0
  9 20  2  0  0  0  0
 10 11  1  0  0  0  0
 10 14  1  0  0  0  0
 10 16  1  0  0  0  0
 13 16  1  0  0  0  0
 14 19  2  0  0  0  0
 14 22  1  0  0  0  0
 15 18  2  0  0  0  0
 15 19  1  0  0  0  0
 17 24  2  0  0  0  0
 17 27  1  0  0  0  0
 18 21  1  0  0  0  0
 18 23  1  0  0  0  0
 20 25  1  0  0  0  0
 22 23  2  0  0  0  0
 24 26  1  0  0  0  0
 25 26  2  0  0  0  0
M  END
> <PUBCHEM_COMPOUND_ID_TYPE>
0

> <PUBCHEM_TOTAL_CHARGE>
0

> <PUBCHEM_SUBSTANCE_ID>
310934488

> <PUBCHEM_SUBSTANCE_VERSION>
1

> <PUBCHEM_EXT_DATASOURCE_NAME>
4488

> <PUBCHEM_EXT_DATASOURCE_REGID>
SCHEMBL16111970

> <PUBCHEM_SUBSTANCE_COMMENT>
InChI=1S/C21H21F2N3O2/c1-12-16(4-3-5-17(12)22)21(20(27)25-28)9-8-14(11-21)13-6-7-15-18(10-13)26(2)24-19(15)23/h3-7,10,14,28H,8-9,11H2,1-2H3,(H,25,27)
InChIKey=IZYKRBVWHHZVKE-UHFFFAOYSA-N

> <PUBCHEM_SUBSTANCE_SYNONYM>
SCHEMBL16111970

> <PUBCHEM_XREF_EXT_ID>
SCHEMBL16111970

> <PUBCHEM_EXT_DATASOURCE_URL>
https://www.surechembl.org/

> <PUBCHEM_EXT_SUBSTANCE_URL>
https://www.surechembl.org/chemical/SCHEMBL16111970

> <PUBCHEM_CID_ASSOCIATIONS>
117602690  1

> <PUBCHEM_COORDINATE_TYPE>
1
3

$$$$
