310931491
  -OEChem-07211613022D

 40 43  0     1  0  0  0  0  0999 V2000
    0.3665    0.5465    0.0000 Cl  0  0  0  0  0  0  0  0  0  0  0  0
    5.6873   -0.4311    0.0000 S   0  0  0  0  0  0  0  0  0  0  0  0
    7.3400   -0.9187    0.0000 S   0  0  0  0  0  0  0  0  0  0  0  0
    4.1181    0.0788    0.0000 F   0  0  0  0  0  0  0  0  0  0  0  0
    4.8042   -3.1491    0.0000 F   0  0  0  0  0  0  0  0  0  0  0  0
    3.2349   -2.6393    0.0000 O   0  0  0  0  0  0  0  0  0  0  0  0
    5.1353    0.1820    0.0000 O   0  0  0  0  0  0  0  0  0  0  0  0
    6.2394   -1.0442    0.0000 O   0  0  0  0  0  0  0  0  0  0  0  0
    2.3518   -5.3573    0.0000 O   0  0  0  0  0  0  0  0  0  0  0  0
    0.9541   -5.6544    0.0000 O   0  0  0  0  0  0  0  0  0  0  0  0
    6.3004    0.1209    0.0000 N   0  0  0  0  0  0  0  0  0  0  0  0
    7.7525    0.3509    0.0000 N   0  0  0  0  0  0  0  0  0  0  0  0
    1.3957   -4.2954    0.0000 N   0  0  0  0  0  0  0  0  0  0  0  0
    8.1650   -0.9187    0.0000 N   0  0  0  0  0  0  0  0  0  0  0  0
    5.0742   -0.9832    0.0000 C   0  0  0  0  0  0  0  0  0  0  0  0
    4.2896   -0.7282    0.0000 C   0  0  0  0  0  0  0  0  0  0  0  0
    3.8480   -2.0872    0.0000 C   0  0  0  0  0  0  0  0  0  0  0  0
    5.2458   -1.7901    0.0000 C   0  0  0  0  0  0  0  0  0  0  0  0
    4.6327   -2.3422    0.0000 C   0  0  0  0  0  0  0  0  0  0  0  0
    3.6765   -1.2802    0.0000 C   0  0  0  0  0  0  0  0  0  0  0  0
    7.0850   -0.1340    0.0000 C   0  0  0  0  0  0  0  0  0  0  0  0
    1.8372   -2.9363    0.0000 C   0  0  3  0  0  0  0  0  0  0  0  0
    1.0526   -2.6814    0.0000 C   0  0  3  0  0  0  0  0  0  0  0  0
    2.4503   -2.3843    0.0000 C   0  0  0  0  0  0  0  0  0  0  0  0
    0.8811   -1.8744    0.0000 C   0  0  0  0  0  0  0  0  0  0  0  0
    2.0088   -3.7433    0.0000 C   0  0  0  0  0  0  0  0  0  0  0  0
    0.4395   -3.2334    0.0000 C   0  0  0  0  0  0  0  0  0  0  0  0
    0.6110   -4.0404    0.0000 C   0  0  0  0  0  0  0  0  0  0  0  0
    1.5672   -5.1023    0.0000 C   0  0  0  0  0  0  0  0  0  0  0  0
    8.4199   -0.1340    0.0000 C   0  0  0  0  0  0  0  0  0  0  0  0
    0.0965   -1.6195    0.0000 C   0  0  0  0  0  0  0  0  0  0  0  0
    1.4942   -1.3224    0.0000 C   0  0  0  0  0  0  0  0  0  0  0  0
    7.7525    1.1759    0.0000 C   0  0  0  0  0  0  0  0  0  0  0  0
    2.5233   -6.1642    0.0000 C   0  0  0  0  0  0  0  0  0  0  0  0
   -0.0751   -0.8125    0.0000 C   0  0  0  0  0  0  0  0  0  0  0  0
    1.3226   -0.5154    0.0000 C   0  0  0  0  0  0  0  0  0  0  0  0
    0.5380   -0.2605    0.0000 C   0  0  0  0  0  0  0  0  0  0  0  0
    1.7164   -6.3358    0.0000 C   0  0  0  0  0  0  0  0  0  0  0  0
    3.3303   -5.9927    0.0000 C   0  0  0  0  0  0  0  0  0  0  0  0
    2.6949   -6.9712    0.0000 C   0  0  0  0  0  0  0  0  0  0  0  0
  1 37  1  0  0  0  0
  2  7  2  0  0  0  0
  2  8  2  0  0  0  0
  2 11  1  0  0  0  0
  2 15  1  0  0  0  0
  3 14  1  0  0  0  0
  3 21  1  0  0  0  0
  4 16  1  0  0  0  0
  5 19  1  0  0  0  0
  6 17  1  0  0  0  0
  6 24  1  0  0  0  0
  9 29  1  0  0  0  0
  9 34  1  0  0  0  0
 10 29  2  0  0  0  0
 11 21  2  0  0  0  0
 12 21  1  0  0  0  0
 12 30  1  0  0  0  0
 12 33  1  0  0  0  0
 13 26  1  0  0  0  0
 13 28  1  0  0  0  0
 13 29  1  0  0  0  0
 14 30  2  0  0  0  0
 15 16  1  0  0  0  0
 15 18  2  0  0  0  0
 16 20  2  0  0  0  0
 17 19  2  0  0  0  0
 17 20  1  0  0  0  0
 18 19  1  0  0  0  0
 22 23  1  0  0  0  0
 22 24  1  0  0  0  0
 22 26  1  0  0  0  0
 23 25  1  0  0  0  0
 23 27  1  0  0  0  0
 25 31  2  0  0  0  0
 25 32  1  0  0  0  0
 27 28  1  0  0  0  0
 31 35  1  0  0  0  0
 32 36  2  0  0  0  0
 34 38  1  0  0  0  0
 34 39  1  0  0  0  0
 34 40  1  0  0  0  0
 35 37  2  0  0  0  0
 36 37  1  0  0  0  0
M  END
> <PUBCHEM_COMPOUND_ID_TYPE>
0

> <PUBCHEM_TOTAL_CHARGE>
0

> <PUBCHEM_SUBSTANCE_ID>
310931491

> <PUBCHEM_SUBSTANCE_VERSION>
1

> <PUBCHEM_EXT_DATASOURCE_NAME>
4488

> <PUBCHEM_EXT_DATASOURCE_REGID>
SCHEMBL16108816

> <PUBCHEM_SUBSTANCE_COMMENT>
InChI=1S/C26H29ClF2N4O5S2/c1-26(2,3)38-25(34)33-10-9-19(16-5-7-18(27)8-6-16)17(13-33)14-37-22-11-21(29)23(12-20(22)28)40(35,36)31-24-32(4)15-30-39-24/h5-8,11-12,15,17,19H,9-10,13-14H2,1-4H3/b31-24-
InChIKey=OQONJWZKBIXROV-QLTSDVKISA-N

> <PUBCHEM_SUBSTANCE_SYNONYM>
SCHEMBL16108816

> <PUBCHEM_XREF_EXT_ID>
SCHEMBL16108816

> <PUBCHEM_EXT_DATASOURCE_URL>
https://www.surechembl.org/

> <PUBCHEM_EXT_SUBSTANCE_URL>
https://www.surechembl.org/chemical/SCHEMBL16108816

> <PUBCHEM_CID_ASSOCIATIONS>
117600256  1

> <PUBCHEM_COORDINATE_TYPE>
1
3

$$$$
