310940892
  -OEChem-07211613022D

 15 15  0     1  0  0  0  0  0999 V2000
   -1.2031    2.2240    0.0000 F   0  0  0  0  0  0  0  0  0  0  0  0
   -0.3463    2.2240    0.0000 F   0  0  0  0  0  0  0  0  0  0  0  0
    0.6927   -2.2240    0.0000 O   0  0  0  0  0  0  0  0  0  0  0  0
   -0.7657   -2.2240    0.0000 O   0  0  0  0  0  0  0  0  0  0  0  0
    0.6927    0.3099    0.0000 O   0  0  0  0  0  0  0  0  0  0  0  0
   -0.7839    1.5312    0.0000 C   0  0  0  0  0  0  0  0  0  0  0  0
   -0.7657    0.3463    0.0000 C   0  0  0  0  0  0  0  0  0  0  0  0
   -1.3489    0.9114    0.0000 C   0  0  0  0  0  0  0  0  0  0  0  0
   -0.2005    0.9478    0.0000 C   0  0  0  0  0  0  0  0  0  0  0  0
   -0.0365   -0.9296    0.0000 C   0  0  3  0  0  0  0  0  0  0  0  0
   -0.7657   -0.5105    0.0000 C   0  0  0  0  0  0  0  0  0  0  0  0
   -0.0365   -1.7500    0.0000 C   0  0  0  0  0  0  0  0  0  0  0  0
    0.6745   -0.5287    0.0000 C   0  0  0  0  0  0  0  0  0  0  0  0
    1.1848   -0.7657    0.0000 C   0  0  0  0  0  0  0  0  0  0  0  0
    1.3489   -1.7864    0.0000 C   0  0  0  0  0  0  0  0  0  0  0  0
  1  6  1  0  0  0  0
  2  6  1  0  0  0  0
  3 12  1  0  0  0  0
  3 15  1  0  0  0  0
  4 12  2  0  0  0  0
  5 13  2  0  0  0  0
  6  8  1  0  0  0  0
  6  9  1  0  0  0  0
  7  8  1  0  0  0  0
  7  9  1  0  0  0  0
  7 11  1  0  0  0  0
 10 11  1  0  0  0  0
 10 12  1  0  0  0  0
 10 13  1  0  0  0  0
 13 14  1  0  0  0  0
M  END
> <PUBCHEM_COMPOUND_ID_TYPE>
0

> <PUBCHEM_TOTAL_CHARGE>
0

> <PUBCHEM_SUBSTANCE_ID>
310940892

> <PUBCHEM_SUBSTANCE_VERSION>
1

> <PUBCHEM_EXT_DATASOURCE_NAME>
4488

> <PUBCHEM_EXT_DATASOURCE_REGID>
SCHEMBL16118851

> <PUBCHEM_SUBSTANCE_COMMENT>
InChI=1S/C10H14F2O3/c1-6(13)8(9(14)15-2)3-7-4-10(11,12)5-7/h7-8H,3-5H2,1-2H3
InChIKey=IHNFLQGLHBICGX-UHFFFAOYSA-N

> <PUBCHEM_SUBSTANCE_SYNONYM>
SCHEMBL16118851

> <PUBCHEM_XREF_EXT_ID>
SCHEMBL16118851

> <PUBCHEM_EXT_DATASOURCE_URL>
https://www.surechembl.org/

> <PUBCHEM_EXT_SUBSTANCE_URL>
https://www.surechembl.org/chemical/SCHEMBL16118851

> <PUBCHEM_CID_ASSOCIATIONS>
117607809  1

> <PUBCHEM_COORDINATE_TYPE>
1
3

$$$$
