310941100
  -OEChem-07211613022D

 45 48  0     1  0  0  0  0  0999 V2000
    5.0850    0.2771    0.0000 O   0  0  0  0  0  0  0  0  0  0  0  0
    3.9488   -1.6903    0.0000 O   0  0  0  0  0  0  0  0  0  0  0  0
    1.7874    0.3880    0.0000 O   0  0  0  0  0  0  0  0  0  0  0  0
   -0.3602   -1.7042    0.0000 O   0  0  0  0  0  0  0  0  0  0  0  0
    3.9488   -3.3530    0.0000 O   0  0  0  0  0  0  0  0  0  0  0  0
    0.3464    3.3530    0.0000 O   0  0  0  0  0  0  0  0  0  0  0  0
   -2.5216    0.3741    0.0000 O   0  0  0  0  0  0  0  0  0  0  0  0
   -5.3898    0.3602    0.0000 O   0  0  0  0  0  0  0  0  0  0  0  0
    2.5077   -0.8590    0.0000 N   0  0  0  0  0  0  0  0  0  0  0  0
    0.3464   -0.4573    0.0000 N   0  0  0  0  0  0  0  0  0  0  0  0
   -1.8151   -0.8728    0.0000 N   0  0  0  0  0  0  0  0  0  0  0  0
   -3.9627   -0.4711    0.0000 N   0  0  0  0  0  0  0  0  0  0  0  0
   -0.3880    2.1199    0.0000 N   0  0  0  0  0  0  0  0  0  0  0  0
    4.6416   -0.4157    0.0000 C   0  0  3  0  0  0  0  0  0  0  0  0
    3.9488   -0.8313    0.0000 C   0  0  0  0  0  0  0  0  0  0  0  0
    4.2674    0.2632    0.0000 C   0  0  0  0  0  0  0  0  0  0  0  0
    3.2145   -0.4434    0.0000 C   0  0  3  0  0  0  0  0  0  0  0  0
    5.4037   -0.8590    0.0000 C   0  0  0  0  0  0  0  0  0  0  0  0
    3.2283    0.8867    0.0000 C   0  0  0  0  0  0  0  0  0  0  0  0
    1.7735   -0.4573    0.0000 C   0  0  0  0  0  0  0  0  0  0  0  0
    2.4800    1.3162    0.0000 C   0  0  0  0  0  0  0  0  0  0  0  0
    1.0669   -0.8590    0.0000 C   0  0  3  0  0  0  0  0  0  0  0  0
    1.0669   -1.6765    0.0000 C   0  0  0  0  0  0  0  0  0  0  0  0
    1.7735    0.9006    0.0000 C   0  0  0  0  0  0  0  0  0  0  0  0
    2.4800    2.1337    0.0000 C   0  0  0  0  0  0  0  0  0  0  0  0
    1.7874   -2.1060    0.0000 C   0  0  0  0  0  0  0  0  0  0  0  0
   -0.3602   -0.8451    0.0000 C   0  0  0  0  0  0  0  0  0  0  0  0
    1.0530    2.1337    0.0000 C   0  0  0  0  0  0  0  0  0  0  0  0
    1.0530    1.3024    0.0000 C   0  0  0  0  0  0  0  0  0  0  0  0
    1.7874    2.5355    0.0000 C   0  0  0  0  0  0  0  0  0  0  0  0
   -1.0946   -0.4573    0.0000 C   0  0  3  0  0  0  0  0  0  0  0  0
    2.4800   -1.7042    0.0000 C   0  0  0  0  0  0  0  0  0  0  0  0
    1.7874   -2.9234    0.0000 C   0  0  0  0  0  0  0  0  0  0  0  0
    0.3187    2.5077    0.0000 C   0  0  0  0  0  0  0  0  0  0  0  0
    3.2145   -2.9096    0.0000 C   0  0  0  0  0  0  0  0  0  0  0  0
    3.2145   -2.1060    0.0000 C   0  0  0  0  0  0  0  0  0  0  0  0
    2.5216   -3.3391    0.0000 C   0  0  0  0  0  0  0  0  0  0  0  0
   -2.5355   -0.4711    0.0000 C   0  0  0  0  0  0  0  0  0  0  0  0
   -1.0946    0.3880    0.0000 C   0  0  0  0  0  0  0  0  0  0  0  0
   -3.2561   -0.8728    0.0000 C   0  0  0  0  0  0  0  0  0  0  0  0
   -3.9765    0.3602    0.0000 C   0  0  0  0  0  0  0  0  0  0  0  0
   -4.6969   -0.8728    0.0000 C   0  0  0  0  0  0  0  0  0  0  0  0
   -4.6969    0.7759    0.0000 C   0  0  0  0  0  0  0  0  0  0  0  0
   -5.4037   -0.4711    0.0000 C   0  0  0  0  0  0  0  0  0  0  0  0
    4.6554   -2.9234    0.0000 C   0  0  0  0  0  0  0  0  0  0  0  0
  1 14  1  0  0  0  0
  1 16  1  0  0  0  0
  2 15  2  0  0  0  0
  3 20  2  0  0  0  0
  4 27  2  0  0  0  0
  5 35  1  0  0  0  0
  5 45  1  0  0  0  0
  6 34  2  0  0  0  0
  7 38  2  0  0  0  0
  8 43  1  0  0  0  0
  8 44  1  0  0  0  0
  9 17  1  0  0  0  0
  9 20  1  0  0  0  0
 10 22  1  0  0  0  0
 10 27  1  0  0  0  0
 11 31  1  0  0  0  0
 11 38  1  0  0  0  0
 12 40  1  0  0  0  0
 12 41  1  0  0  0  0
 12 42  1  0  0  0  0
 13 34  1  0  0  0  0
 14 15  1  0  0  0  0
 14 16  1  0  0  0  0
 14 18  1  0  0  0  0
 15 17  1  0  0  0  0
 17 19  1  0  0  0  0
 19 21  1  0  0  0  0
 20 22  1  0  0  0  0
 21 24  2  0  0  0  0
 21 25  1  0  0  0  0
 22 23  1  0  0  0  0
 23 26  1  0  0  0  0
 24 29  1  0  0  0  0
 25 30  2  0  0  0  0
 26 32  2  0  0  0  0
 26 33  1  0  0  0  0
 27 31  1  0  0  0  0
 28 29  2  0  0  0  0
 28 30  1  0  0  0  0
 28 34  1  0  0  0  0
 31 39  1  0  0  0  0
 32 36  1  0  0  0  0
 33 37  2  0  0  0  0
 35 36  2  0  0  0  0
 35 37  1  0  0  0  0
 38 40  1  0  0  0  0
 41 43  1  0  0  0  0
 42 44  1  0  0  0  0
M  END
> <PUBCHEM_COMPOUND_ID_TYPE>
0

> <PUBCHEM_TOTAL_CHARGE>
0

> <PUBCHEM_SUBSTANCE_ID>
310941100

> <PUBCHEM_SUBSTANCE_VERSION>
1

> <PUBCHEM_EXT_DATASOURCE_NAME>
4488

> <PUBCHEM_EXT_DATASOURCE_REGID>
SCHEMBL16119060

> <PUBCHEM_SUBSTANCE_COMMENT>
InChI=1S/C32H41N5O8/c1-20(34-27(38)18-37-12-14-44-15-13-37)30(41)36-26(17-22-6-10-24(43-3)11-7-22)31(42)35-25(28(39)32(2)19-45-32)16-21-4-8-23(9-5-21)29(33)40/h4-11,20,25-26H,12-19H2,1-3H3,(H2,33,40)(H,34,38)(H,35,42)(H,36,41)
InChIKey=FVJLVNBDCKGNQA-UHFFFAOYSA-N

> <PUBCHEM_SUBSTANCE_SYNONYM>
SCHEMBL16119060

> <PUBCHEM_XREF_EXT_ID>
SCHEMBL16119060

> <PUBCHEM_EXT_DATASOURCE_URL>
https://www.surechembl.org/

> <PUBCHEM_EXT_SUBSTANCE_URL>
https://www.surechembl.org/chemical/SCHEMBL16119060

> <PUBCHEM_CID_ASSOCIATIONS>
117607984  1

> <PUBCHEM_COORDINATE_TYPE>
1
3

$$$$
