310931387
  -OEChem-07211613022D

 43 47  0     1  0  0  0  0  0999 V2000
    0.8212   -4.5991    0.0000 S   0  0  0  0  0  0  0  0  0  0  0  0
    0.8682   -6.3215    0.0000 S   0  0  0  0  0  0  0  0  0  0  0  0
   -0.6078   -5.4241    0.0000 F   0  0  0  0  0  0  0  0  0  0  0  0
   -0.6078   -2.1241    0.0000 F   0  0  0  0  0  0  0  0  0  0  0  0
   -6.3235   -2.9491    0.0000 F   0  0  0  0  0  0  0  0  0  0  0  0
    1.2337   -3.8846    0.0000 O   0  0  0  0  0  0  0  0  0  0  0  0
    0.4087   -5.3136    0.0000 O   0  0  0  0  0  0  0  0  0  0  0  0
   -2.0367   -2.9491    0.0000 O   0  0  0  0  0  0  0  0  0  0  0  0
    3.6791   -3.7741    0.0000 O   0  0  0  0  0  0  0  0  0  0  0  0
    5.1080   -6.2491    0.0000 O   0  0  0  0  0  0  0  0  0  0  0  0
   -2.0367   -5.4241    0.0000 O   0  0  0  0  0  0  0  0  0  0  0  0
    1.5356   -5.0116    0.0000 N   0  0  0  0  0  0  0  0  0  0  0  0
    2.2031   -6.3215    0.0000 N   0  0  0  0  0  0  0  0  0  0  0  0
    1.1231   -7.1062    0.0000 N   0  0  0  0  0  0  0  0  0  0  0  0
    0.1067   -4.1866    0.0000 C   0  0  0  0  0  0  0  0  0  0  0  0
   -0.6078   -4.5991    0.0000 C   0  0  0  0  0  0  0  0  0  0  0  0
    1.5356   -5.8366    0.0000 C   0  0  0  0  0  0  0  0  0  0  0  0
    0.1067   -3.3616    0.0000 C   0  0  0  0  0  0  0  0  0  0  0  0
    2.2501   -4.5991    0.0000 C   0  0  0  0  0  0  0  0  0  0  0  0
   -0.6078   -2.9491    0.0000 C   0  0  0  0  0  0  0  0  0  0  0  0
   -1.3222   -3.3616    0.0000 C   0  0  0  0  0  0  0  0  0  0  0  0
   -1.3222   -4.1866    0.0000 C   0  0  0  0  0  0  0  0  0  0  0  0
    2.9646   -5.0116    0.0000 C   0  0  0  0  0  0  0  0  0  0  0  0
    3.6791   -4.5991    0.0000 C   0  0  0  0  0  0  0  0  0  0  0  0
    2.9646   -5.8366    0.0000 C   0  0  0  0  0  0  0  0  0  0  0  0
    1.9481   -7.1062    0.0000 C   0  0  0  0  0  0  0  0  0  0  0  0
    4.3935   -5.0116    0.0000 C   0  0  0  0  0  0  0  0  0  0  0  0
   -2.7512   -4.1866    0.0000 C   0  0  3  0  0  0  0  0  0  0  0  0
   -2.7512   -3.3616    0.0000 C   0  0  0  0  0  0  0  0  0  0  0  0
    4.3935   -5.8366    0.0000 C   0  0  0  0  0  0  0  0  0  0  0  0
   -3.4656   -4.5991    0.0000 C   0  0  3  0  0  0  0  0  0  0  0  0
    3.6791   -6.2491    0.0000 C   0  0  0  0  0  0  0  0  0  0  0  0
   -4.1801   -4.1866    0.0000 C   0  0  0  0  0  0  0  0  0  0  0  0
   -2.0367   -4.5991    0.0000 C   0  0  0  0  0  0  0  0  0  0  0  0
   -3.4656   -5.4241    0.0000 C   0  0  0  0  0  0  0  0  0  0  0  0
   -4.8946   -4.5991    0.0000 C   0  0  0  0  0  0  0  0  0  0  0  0
   -4.1801   -3.3616    0.0000 C   0  0  0  0  0  0  0  0  0  0  0  0
   -2.7512   -5.8366    0.0000 C   0  0  0  0  0  0  0  0  0  0  0  0
    2.9646   -3.3616    0.0000 C   0  0  0  0  0  0  0  0  0  0  0  0
   -5.6091   -4.1866    0.0000 C   0  0  0  0  0  0  0  0  0  0  0  0
   -4.8946   -2.9491    0.0000 C   0  0  0  0  0  0  0  0  0  0  0  0
   -5.6091   -3.3616    0.0000 C   0  0  0  0  0  0  0  0  0  0  0  0
    5.1080   -7.0741    0.0000 C   0  0  0  0  0  0  0  0  0  0  0  0
  1  6  2  0  0  0  0
  1  7  2  0  0  0  0
  1 12  1  0  0  0  0
  1 15  1  0  0  0  0
  2 14  1  0  0  0  0
  2 17  1  0  0  0  0
  3 16  1  0  0  0  0
  4 20  1  0  0  0  0
  5 42  1  0  0  0  0
  8 21  1  0  0  0  0
  8 29  1  0  0  0  0
  9 24  1  0  0  0  0
  9 39  1  0  0  0  0
 10 30  1  0  0  0  0
 10 43  1  0  0  0  0
 11 34  1  0  0  0  0
 11 38  1  0  0  0  0
 12 17  1  0  0  0  0
 12 19  1  0  0  0  0
 13 17  2  0  0  0  0
 13 26  1  0  0  0  0
 14 26  2  0  0  0  0
 15 16  2  0  0  0  0
 15 18  1  0  0  0  0
 16 22  1  0  0  0  0
 18 20  2  0  0  0  0
 19 23  1  0  0  0  0
 20 21  1  0  0  0  0
 21 22  2  0  0  0  0
 23 24  2  0  0  0  0
 23 25  1  0  0  0  0
 24 27  1  0  0  0  0
 25 32  2  0  0  0  0
 27 30  2  0  0  0  0
 28 29  1  0  0  0  0
 28 31  1  0  0  0  0
 28 34  1  0  0  0  0
 30 32  1  0  0  0  0
 31 33  1  0  0  0  0
 31 35  1  0  0  0  0
 33 36  2  0  0  0  0
 33 37  1  0  0  0  0
 35 38  1  0  0  0  0
 36 40  1  0  0  0  0
 37 41  2  0  0  0  0
 40 42  2  0  0  0  0
 41 42  1  0  0  0  0
M  END
> <PUBCHEM_COMPOUND_ID_TYPE>
0

> <PUBCHEM_TOTAL_CHARGE>
0

> <PUBCHEM_SUBSTANCE_ID>
310931387

> <PUBCHEM_SUBSTANCE_VERSION>
1

> <PUBCHEM_EXT_DATASOURCE_NAME>
4488

> <PUBCHEM_EXT_DATASOURCE_REGID>
SCHEMBL16108711

> <PUBCHEM_SUBSTANCE_COMMENT>
InChI=1S/C29H28F3N3O6S2/c1-38-22-8-5-19(26(11-22)39-2)14-35(29-33-17-34-42-29)43(36,37)28-13-24(31)27(12-25(28)32)41-16-20-15-40-10-9-23(20)18-3-6-21(30)7-4-18/h3-8,11-13,17,20,23H,9-10,14-16H2,1-2H3
InChIKey=MQSZONNXVOZOEV-UHFFFAOYSA-N

> <PUBCHEM_SUBSTANCE_SYNONYM>
SCHEMBL16108711

> <PUBCHEM_XREF_EXT_ID>
SCHEMBL16108711

> <PUBCHEM_EXT_DATASOURCE_URL>
https://www.surechembl.org/

> <PUBCHEM_EXT_SUBSTANCE_URL>
https://www.surechembl.org/chemical/SCHEMBL16108711

> <PUBCHEM_CID_ASSOCIATIONS>
117600179  1

> <PUBCHEM_COORDINATE_TYPE>
1
3

$$$$
