310942385
  -OEChem-07211613022D

 32 34  0     1  0  0  0  0  0999 V2000
    2.9156    1.3837    0.0000 S   0  0  0  0  0  0  0  0  0  0  0  0
    0.2298    1.6186    0.0000 O   0  0  0  0  0  0  0  0  0  0  0  0
    3.6203    1.8126    0.0000 O   0  0  0  0  0  0  0  0  0  0  0  0
    2.2109    0.9548    0.0000 O   0  0  0  0  0  0  0  0  0  0  0  0
   -2.6705    1.7208    0.0000 O   0  0  0  0  0  0  0  0  0  0  0  0
   -1.3225   -0.8016    0.0000 O   0  0  0  0  0  0  0  0  0  0  0  0
    1.6493   -0.7301    0.0000 N   0  0  0  0  0  0  0  0  0  0  0  0
    3.3445    0.6791    0.0000 N   0  0  3  0  0  0  0  0  0  0  0  0
    1.8331   -1.5369    0.0000 N   0  0  0  0  0  0  0  0  0  0  0  0
   -0.5668    0.4137    0.0000 N   0  0  0  0  0  0  0  0  0  0  0  0
   -2.7522   -0.7506    0.0000 N   0  0  0  0  0  0  0  0  0  0  0  0
    2.1089   -0.0562    0.0000 C   0  0  0  0  0  0  0  0  0  0  0  0
    0.8425    0.3319    0.0000 C   0  0  0  0  0  0  0  0  0  0  0  0
    0.8527   -0.4952    0.0000 C   0  0  0  0  0  0  0  0  0  0  0  0
    1.6186    0.5974    0.0000 C   0  0  0  0  0  0  0  0  0  0  0  0
    2.9463   -0.0459    0.0000 C   0  0  3  0  0  0  0  0  0  0  0  0
    0.1583    0.7812    0.0000 C   0  0  0  0  0  0  0  0  0  0  0  0
    0.2605   -1.0570    0.0000 C   0  0  0  0  0  0  0  0  0  0  0  0
    1.8841    1.3939    0.0000 C   0  0  0  0  0  0  0  0  0  0  0  0
    1.2306   -2.1089    0.0000 C   0  0  0  0  0  0  0  0  0  0  0  0
    0.4441   -1.8637    0.0000 C   0  0  0  0  0  0  0  0  0  0  0  0
    3.3752   -0.7506    0.0000 C   0  0  0  0  0  0  0  0  0  0  0  0
   -1.9863    0.4646    0.0000 C   0  0  0  0  0  0  0  0  0  0  0  0
   -1.2715    0.8425    0.0000 C   0  0  0  0  0  0  0  0  0  0  0  0
   -2.7011    0.8936    0.0000 C   0  0  0  0  0  0  0  0  0  0  0  0
   -2.0476   -0.3524    0.0000 C   0  0  0  0  0  0  0  0  0  0  0  0
    4.1921    0.7097    0.0000 C   0  0  0  0  0  0  0  0  0  0  0  0
    2.4867    2.1089    0.0000 C   0  0  0  0  0  0  0  0  0  0  0  0
   -3.4160    0.5055    0.0000 C   0  0  0  0  0  0  0  0  0  0  0  0
   -3.4568   -0.3217    0.0000 C   0  0  0  0  0  0  0  0  0  0  0  0
   -4.1921   -0.7200    0.0000 C   0  0  0  0  0  0  0  0  0  0  0  0
   -1.9148    2.1089    0.0000 C   0  0  0  0  0  0  0  0  0  0  0  0
  1  3  2  0  0  0  0
  1  4  2  0  0  0  0
  1  8  1  0  0  0  0
  1 28  1  0  0  0  0
  2 17  2  0  0  0  0
  5 25  1  0  0  0  0
  5 32  1  0  0  0  0
  6 26  2  0  0  0  0
  7  9  1  0  0  0  0
  7 12  1  0  0  0  0
  7 14  1  0  0  0  0
  8 16  1  0  0  0  0
  8 27  1  0  0  0  0
  9 20  2  0  0  0  0
 10 17  1  0  0  0  0
 10 24  1  0  0  0  0
 11 26  1  0  0  0  0
 11 30  1  0  0  0  0
 12 15  2  0  0  0  0
 12 16  1  0  0  0  0
 13 14  2  0  0  0  0
 13 15  1  0  0  0  0
 13 17  1  0  0  0  0
 14 18  1  0  0  0  0
 15 19  1  0  0  0  0
 16 22  1  0  0  0  0
 18 21  2  0  0  0  0
 20 21  1  0  0  0  0
 23 24  1  0  0  0  0
 23 25  2  0  0  0  0
 23 26  1  0  0  0  0
 25 29  1  0  0  0  0
 29 30  2  0  0  0  0
 30 31  1  0  0  0  0
M  END
> <PUBCHEM_COMPOUND_ID_TYPE>
0

> <PUBCHEM_TOTAL_CHARGE>
0

> <PUBCHEM_SUBSTANCE_ID>
310942385

> <PUBCHEM_SUBSTANCE_VERSION>
1

> <PUBCHEM_EXT_DATASOURCE_NAME>
4488

> <PUBCHEM_EXT_DATASOURCE_REGID>
SCHEMBL16120421

> <PUBCHEM_SUBSTANCE_COMMENT>
InChI=1S/C21H27N5O5S/c1-12-10-17(31-5)15(20(27)24-12)11-22-21(28)18-13(2)19(14(3)25(4)32(6,29)30)26-16(18)8-7-9-23-26/h7-10,14H,11H2,1-6H3,(H,22,28)(H,24,27)
InChIKey=ZPOHUZTWLZHCNO-UHFFFAOYSA-N

> <PUBCHEM_SUBSTANCE_SYNONYM>
SCHEMBL16120421

> <PUBCHEM_XREF_EXT_ID>
SCHEMBL16120421

> <PUBCHEM_EXT_DATASOURCE_URL>
https://www.surechembl.org/

> <PUBCHEM_EXT_SUBSTANCE_URL>
https://www.surechembl.org/chemical/SCHEMBL16120421

> <PUBCHEM_CID_ASSOCIATIONS>
86299627  1

> <PUBCHEM_COORDINATE_TYPE>
1
3

$$$$
