310947057
  -OEChem-07211613022D

 37 40  0     1  0  0  0  0  0999 V2000
   -1.3492   -2.0625    0.0000 F   0  0  0  0  0  0  0  0  0  0  0  0
   -2.7782    0.4125    0.0000 F   0  0  0  0  0  0  0  0  0  0  0  0
   -2.7782   -2.8875    0.0000 O   0  0  0  0  0  0  0  0  0  0  0  0
   -4.2071   -0.4125    0.0000 O   0  0  0  0  0  0  0  0  0  0  0  0
    1.5086    0.4125    0.0000 O   0  0  0  0  0  0  0  0  0  0  0  0
    1.5086    2.0625    0.0000 O   0  0  0  0  0  0  0  0  0  0  0  0
    0.0797   -0.4125    0.0000 N   0  0  0  0  0  0  0  0  0  0  0  0
   -1.3492   -0.4125    0.0000 N   0  0  0  0  0  0  0  0  0  0  0  0
    1.5086   -0.4125    0.0000 N   0  0  0  0  0  0  0  0  0  0  0  0
    1.5086   -2.0625    0.0000 N   0  0  0  0  0  0  0  0  0  0  0  0
    3.7222    0.6674    0.0000 N   0  0  0  0  0  0  0  0  0  0  0  0
    4.2071    0.0000    0.0000 N   0  0  0  0  0  0  0  0  0  0  0  0
    0.7942   -0.8250    0.0000 C   0  0  0  0  0  0  0  0  0  0  0  0
   -0.6348   -0.8250    0.0000 C   0  0  0  0  0  0  0  0  0  0  0  0
    0.7942   -1.6500    0.0000 C   0  0  0  0  0  0  0  0  0  0  0  0
   -2.0637   -0.8250    0.0000 C   0  0  0  0  0  0  0  0  0  0  0  0
   -2.0637   -1.6500    0.0000 C   0  0  0  0  0  0  0  0  0  0  0  0
   -2.7782   -0.4125    0.0000 C   0  0  0  0  0  0  0  0  0  0  0  0
    2.2231   -0.8250    0.0000 C   0  0  0  0  0  0  0  0  0  0  0  0
   -0.6348   -1.6500    0.0000 C   0  0  0  0  0  0  0  0  0  0  0  0
   -2.7782   -2.0625    0.0000 C   0  0  0  0  0  0  0  0  0  0  0  0
   -3.4927   -0.8250    0.0000 C   0  0  0  0  0  0  0  0  0  0  0  0
    0.0797   -2.0625    0.0000 C   0  0  0  0  0  0  0  0  0  0  0  0
    0.0797    0.4125    0.0000 C   0  0  0  0  0  0  0  0  0  0  0  0
    2.9376   -0.4125    0.0000 C   0  0  0  0  0  0  0  0  0  0  0  0
    2.2231   -1.6500    0.0000 C   0  0  0  0  0  0  0  0  0  0  0  0
   -3.4927   -1.6500    0.0000 C   0  0  0  0  0  0  0  0  0  0  0  0
    0.7942    0.8250    0.0000 C   0  0  3  0  0  0  0  0  0  0  0  0
    2.9376    0.4125    0.0000 C   0  0  0  0  0  0  0  0  0  0  0  0
    3.7222   -0.6674    0.0000 C   0  0  0  0  0  0  0  0  0  0  0  0
    0.7942    1.6500    0.0000 C   0  0  0  0  0  0  0  0  0  0  0  0
   -3.4927   -3.3000    0.0000 C   0  0  0  0  0  0  0  0  0  0  0  0
   -4.2071    0.4125    0.0000 C   0  0  0  0  0  0  0  0  0  0  0  0
    4.1347    1.3819    0.0000 C   0  0  0  0  0  0  0  0  0  0  0  0
    1.5086    2.8875    0.0000 C   0  0  0  0  0  0  0  0  0  0  0  0
    2.2231    3.3000    0.0000 C   0  0  0  0  0  0  0  0  0  0  0  0
    0.7942    3.3000    0.0000 C   0  0  0  0  0  0  0  0  0  0  0  0
  1 17  1  0  0  0  0
  2 18  1  0  0  0  0
  3 21  1  0  0  0  0
  3 32  1  0  0  0  0
  4 22  1  0  0  0  0
  4 33  1  0  0  0  0
  5 28  1  0  0  0  0
  6 31  1  0  0  0  0
  6 35  1  0  0  0  0
  7 13  1  0  0  0  0
  7 14  1  0  0  0  0
  7 24  1  0  0  0  0
  8 14  2  0  0  0  0
  8 16  1  0  0  0  0
  9 13  1  0  0  0  0
  9 19  2  0  0  0  0
 10 15  1  0  0  0  0
 10 26  2  0  0  0  0
 11 12  1  0  0  0  0
 11 29  1  0  0  0  0
 11 34  1  0  0  0  0
 12 30  2  0  0  0  0
 13 15  2  0  0  0  0
 14 20  1  0  0  0  0
 15 23  1  0  0  0  0
 16 17  1  0  0  0  0
 16 18  2  0  0  0  0
 17 21  2  0  0  0  0
 18 22  1  0  0  0  0
 19 25  1  0  0  0  0
 19 26  1  0  0  0  0
 20 23  2  0  0  0  0
 21 27  1  0  0  0  0
 22 27  2  0  0  0  0
 24 28  1  0  0  0  0
 25 29  2  0  0  0  0
 25 30  1  0  0  0  0
 28 31  1  0  0  0  0
 35 36  1  0  0  0  0
 35 37  1  0  0  0  0
M  END
> <PUBCHEM_COMPOUND_ID_TYPE>
0

> <PUBCHEM_TOTAL_CHARGE>
0

> <PUBCHEM_SUBSTANCE_ID>
310947057

> <PUBCHEM_SUBSTANCE_VERSION>
1

> <PUBCHEM_EXT_DATASOURCE_NAME>
4488

> <PUBCHEM_EXT_DATASOURCE_REGID>
SCHEMBL16125211

> <PUBCHEM_SUBSTANCE_COMMENT>
InChI=1S/C25H28F2N6O4/c1-14(2)37-13-16(34)12-33-21(31-24-22(26)19(35-4)8-20(36-5)23(24)27)7-6-17-25(33)30-18(10-28-17)15-9-29-32(3)11-15/h6-11,14,16,34H,12-13H2,1-5H3/b31-21+
InChIKey=HJMQHGXAZZBVAN-NJZRLIGZSA-N

> <PUBCHEM_SUBSTANCE_SYNONYM>
SCHEMBL16125211

> <PUBCHEM_XREF_EXT_ID>
SCHEMBL16125211

> <PUBCHEM_EXT_DATASOURCE_URL>
https://www.surechembl.org/

> <PUBCHEM_EXT_SUBSTANCE_URL>
https://www.surechembl.org/chemical/SCHEMBL16125211

> <PUBCHEM_CID_ASSOCIATIONS>
117612908  1

> <PUBCHEM_COORDINATE_TYPE>
1
3

$$$$
