310942859
  -OEChem-07211613022D

 28 29  0     1  0  0  0  0  0999 V2000
    0.9119    2.1982    0.0000 O   0  0  0  0  0  0  0  0  0  0  0  0
   -2.8586    1.3786    0.0000 O   0  0  0  0  0  0  0  0  0  0  0  0
    0.4642   -2.4667    0.0000 O   0  0  0  0  0  0  0  0  0  0  0  0
   -0.0717    3.3049    0.0000 O   0  0  0  0  0  0  0  0  0  0  0  0
   -3.1455   -0.1582    0.0000 O   0  0  0  0  0  0  0  0  0  0  0  0
   -0.0456   -3.3049    0.0000 O   0  0  0  0  0  0  0  0  0  0  0  0
   -0.4201    1.7885    0.0000 N   0  0  0  0  0  0  0  0  0  0  0  0
   -1.6086   -0.6091    0.0000 N   0  0  0  0  0  0  0  0  0  0  0  0
   -1.2397    0.9073    0.0000 C   0  0  0  0  0  0  0  0  0  0  0  0
   -1.8135    0.2721    0.0000 C   0  0  3  0  0  0  0  0  0  0  0  0
   -1.2192    1.7680    0.0000 C   0  0  0  0  0  0  0  0  0  0  0  0
   -0.4406    0.8663    0.0000 C   0  0  0  0  0  0  0  0  0  0  0  0
    0.1332    2.4237    0.0000 C   0  0  0  0  0  0  0  0  0  0  0  0
   -2.5717    0.5589    0.0000 C   0  0  0  0  0  0  0  0  0  0  0  0
   -0.0456   -2.7612    0.0000 C   0  0  0  0  0  0  0  0  0  0  0  0
    0.4755   -1.9003    0.0000 C   0  0  0  0  0  0  0  0  0  0  0  0
    1.4857    2.8336    0.0000 C   0  0  0  0  0  0  0  0  0  0  0  0
    2.2643    2.6081    0.0000 C   0  0  0  0  0  0  0  0  0  0  0  0
   -3.6577    1.5425    0.0000 C   0  0  0  0  0  0  0  0  0  0  0  0
    2.4487    1.8090    0.0000 C   0  0  0  0  0  0  0  0  0  0  0  0
    2.8586    3.1819    0.0000 C   0  0  0  0  0  0  0  0  0  0  0  0
    0.9852   -1.8777    0.0000 C   0  0  0  0  0  0  0  0  0  0  0  0
   -0.0456   -1.9003    0.0000 C   0  0  0  0  0  0  0  0  0  0  0  0
    0.4642   -1.3454    0.0000 C   0  0  0  0  0  0  0  0  0  0  0  0
    3.2889    1.5630    0.0000 C   0  0  0  0  0  0  0  0  0  0  0  0
    3.6988    2.9359    0.0000 C   0  0  0  0  0  0  0  0  0  0  0  0
    3.9037    2.1368    0.0000 C   0  0  0  0  0  0  0  0  0  0  0  0
   -3.9037    2.4032    0.0000 C   0  0  0  0  0  0  0  0  0  0  0  0
  1 13  1  0  0  0  0
  1 17  1  0  0  0  0
  2 14  1  0  0  0  0
  2 19  1  0  0  0  0
  3 15  1  0  0  0  0
  3 16  1  0  0  0  0
  4 13  2  0  0  0  0
  5 14  2  0  0  0  0
  6 15  2  0  0  0  0
  7 11  1  0  0  0  0
  7 12  1  0  0  0  0
  7 13  1  0  0  0  0
  8 10  1  0  0  0  0
  8 15  1  0  0  0  0
  9 10  1  0  0  0  0
  9 11  1  0  0  0  0
  9 12  1  0  0  0  0
 10 14  1  0  0  0  0
 16 22  1  0  0  0  0
 16 23  1  0  0  0  0
 16 24  1  0  0  0  0
 17 18  1  0  0  0  0
 18 20  2  0  0  0  0
 18 21  1  0  0  0  0
 19 28  1  0  0  0  0
 20 25  1  0  0  0  0
 21 26  2  0  0  0  0
 25 27  2  0  0  0  0
 26 27  1  0  0  0  0
M  END
> <PUBCHEM_COMPOUND_ID_TYPE>
0

> <PUBCHEM_TOTAL_CHARGE>
0

> <PUBCHEM_SUBSTANCE_ID>
310942859

> <PUBCHEM_SUBSTANCE_VERSION>
1

> <PUBCHEM_EXT_DATASOURCE_NAME>
4488

> <PUBCHEM_EXT_DATASOURCE_REGID>
SCHEMBL16120917

> <PUBCHEM_SUBSTANCE_COMMENT>
InChI=1S/C20H28N2O6/c1-5-26-17(23)16(21-18(24)28-20(2,3)4)15-11-22(12-15)19(25)27-13-14-9-7-6-8-10-14/h6-10,15-16H,5,11-13H2,1-4H3,(H,21,24)
InChIKey=CIYOCJPLFWZPBN-UHFFFAOYSA-N

> <PUBCHEM_SUBSTANCE_SYNONYM>
SCHEMBL16120917

> <PUBCHEM_XREF_EXT_ID>
SCHEMBL16120917

> <PUBCHEM_EXT_DATASOURCE_URL>
https://www.surechembl.org/

> <PUBCHEM_EXT_SUBSTANCE_URL>
https://www.surechembl.org/chemical/SCHEMBL16120917

> <PUBCHEM_CID_ASSOCIATIONS>
117609349  1

> <PUBCHEM_COORDINATE_TYPE>
1
3

$$$$
