310930933
  -OEChem-07211613022D

 50 54  0     1  0  0  0  0  0999 V2000
    1.5304   -7.8484    0.0000 Cl  0  0  0  0  0  0  0  0  0  0  0  0
    6.5534   -5.8078    0.0000 S   0  0  0  0  0  0  0  0  0  0  0  0
    5.7294   -4.2774    0.0000 S   0  0  0  0  0  0  0  0  0  0  0  0
    6.1218   -6.5142    0.0000 O   0  0  0  0  0  0  0  0  0  0  0  0
    7.2598   -6.2395    0.0000 O   0  0  0  0  0  0  0  0  0  0  0  0
    3.6887   -4.1205    0.0000 O   0  0  0  0  0  0  0  0  0  0  0  0
    9.4573   -5.1407    0.0000 O   0  0  0  0  0  0  0  0  0  0  0  0
    0.8241   -1.6482    0.0000 O   0  0  0  0  0  0  0  0  0  0  0  0
    9.4966   -2.2760    0.0000 O   0  0  0  0  0  0  0  0  0  0  0  0
    2.2760   -1.6482    0.0000 O   0  0  0  0  0  0  0  0  0  0  0  0
    6.9851   -5.1015    0.0000 N   0  0  0  0  0  0  0  0  0  0  0  0
    6.9066   -3.6103    0.0000 N   0  0  0  0  0  0  0  0  0  0  0  0
    5.5724   -3.4533    0.0000 N   0  0  0  0  0  0  0  0  0  0  0  0
    1.5304   -2.8647    0.0000 N   0  0  0  0  0  0  0  0  0  0  0  0
    3.6887   -6.6320    0.0000 N   0  0  0  0  0  0  0  0  0  0  0  0
    5.8471   -5.3762    0.0000 C   0  0  0  0  0  0  0  0  0  0  0  0
    6.5534   -4.3559    0.0000 C   0  0  0  0  0  0  0  0  0  0  0  0
    7.8092   -5.1015    0.0000 C   0  0  0  0  0  0  0  0  0  0  0  0
    5.1407   -5.7686    0.0000 C   0  0  0  0  0  0  0  0  0  0  0  0
    4.3951   -5.3762    0.0000 C   0  0  0  0  0  0  0  0  0  0  0  0
    5.8471   -4.5521    0.0000 C   0  0  0  0  0  0  0  0  0  0  0  0
    4.4343   -4.5521    0.0000 C   0  0  0  0  0  0  0  0  0  0  0  0
    8.2409   -4.3951    0.0000 C   0  0  0  0  0  0  0  0  0  0  0  0
    5.1407   -4.1205    0.0000 C   0  0  0  0  0  0  0  0  0  0  0  0
    9.0649   -4.3951    0.0000 C   0  0  0  0  0  0  0  0  0  0  0  0
    2.2760   -4.1205    0.0000 C   0  0  3  0  0  0  0  0  0  0  0  0
    1.5304   -4.5129    0.0000 C   0  0  3  0  0  0  0  0  0  0  0  0
    7.8484   -3.6495    0.0000 C   0  0  0  0  0  0  0  0  0  0  0  0
    2.9824   -4.5129    0.0000 C   0  0  0  0  0  0  0  0  0  0  0  0
    3.6887   -5.7686    0.0000 C   0  0  0  0  0  0  0  0  0  0  0  0
    1.5304   -5.3369    0.0000 C   0  0  0  0  0  0  0  0  0  0  0  0
    6.3180   -3.0609    0.0000 C   0  0  0  0  0  0  0  0  0  0  0  0
    2.2760   -3.2963    0.0000 C   0  0  0  0  0  0  0  0  0  0  0  0
    9.4966   -3.6887    0.0000 C   0  0  0  0  0  0  0  0  0  0  0  0
    9.0649   -2.9824    0.0000 C   0  0  0  0  0  0  0  0  0  0  0  0
    0.8241   -4.1205    0.0000 C   0  0  0  0  0  0  0  0  0  0  0  0
    8.2409   -2.9824    0.0000 C   0  0  0  0  0  0  0  0  0  0  0  0
    0.8241   -3.2963    0.0000 C   0  0  0  0  0  0  0  0  0  0  0  0
    1.5304   -2.0406    0.0000 C   0  0  0  0  0  0  0  0  0  0  0  0
    2.2760   -5.7686    0.0000 C   0  0  0  0  0  0  0  0  0  0  0  0
    0.8241   -5.7686    0.0000 C   0  0  0  0  0  0  0  0  0  0  0  0
    2.2760   -6.5927    0.0000 C   0  0  0  0  0  0  0  0  0  0  0  0
    0.8241   -6.5927    0.0000 C   0  0  0  0  0  0  0  0  0  0  0  0
    1.5304   -7.0244    0.0000 C   0  0  0  0  0  0  0  0  0  0  0  0
    0.8241   -0.8241    0.0000 C   0  0  0  0  0  0  0  0  0  0  0  0
   10.2815   -5.1407    0.0000 C   0  0  0  0  0  0  0  0  0  0  0  0
    9.1042   -1.5304    0.0000 C   0  0  0  0  0  0  0  0  0  0  0  0
    1.6874   -0.8241    0.0000 C   0  0  0  0  0  0  0  0  0  0  0  0
    0.8241    0.0000    0.0000 C   0  0  0  0  0  0  0  0  0  0  0  0
    0.0000   -0.8241    0.0000 C   0  0  0  0  0  0  0  0  0  0  0  0
  1 44  1  0  0  0  0
  2  4  2  0  0  0  0
  2  5  2  0  0  0  0
  2 11  1  0  0  0  0
  2 16  1  0  0  0  0
  3 13  1  0  0  0  0
  3 17  1  0  0  0  0
  6 22  1  0  0  0  0
  6 29  1  0  0  0  0
  7 25  1  0  0  0  0
  7 46  1  0  0  0  0
  8 39  1  0  0  0  0
  8 45  1  0  0  0  0
  9 35  1  0  0  0  0
  9 47  1  0  0  0  0
 10 39  2  0  0  0  0
 11 17  1  0  0  0  0
 11 18  1  0  0  0  0
 12 17  2  0  0  0  0
 12 32  1  0  0  0  0
 13 32  2  0  0  0  0
 14 33  1  0  0  0  0
 14 38  1  0  0  0  0
 14 39  1  0  0  0  0
 15 30  3  0  0  0  0
 16 19  2  0  0  0  0
 16 21  1  0  0  0  0
 18 23  1  0  0  0  0
 19 20  1  0  0  0  0
 20 22  2  0  0  0  0
 20 30  1  0  0  0  0
 21 24  2  0  0  0  0
 22 24  1  0  0  0  0
 23 25  2  0  0  0  0
 23 28  1  0  0  0  0
 25 34  1  0  0  0  0
 26 27  1  0  0  0  0
 26 29  1  0  0  0  0
 26 33  1  0  0  0  0
 27 31  1  0  0  0  0
 27 36  1  0  0  0  0
 28 37  2  0  0  0  0
 31 40  2  0  0  0  0
 31 41  1  0  0  0  0
 34 35  2  0  0  0  0
 35 37  1  0  0  0  0
 36 38  1  0  0  0  0
 40 42  1  0  0  0  0
 41 43  2  0  0  0  0
 42 44  2  0  0  0  0
 43 44  1  0  0  0  0
 45 48  1  0  0  0  0
 45 49  1  0  0  0  0
 45 50  1  0  0  0  0
M  END
> <PUBCHEM_COMPOUND_ID_TYPE>
0

> <PUBCHEM_TOTAL_CHARGE>
0

> <PUBCHEM_SUBSTANCE_ID>
310930933

> <PUBCHEM_SUBSTANCE_VERSION>
1

> <PUBCHEM_EXT_DATASOURCE_NAME>
4488

> <PUBCHEM_EXT_DATASOURCE_REGID>
SCHEMBL16108232

> <PUBCHEM_SUBSTANCE_COMMENT>
InChI=1S/C35H38ClN5O7S2/c1-35(2,3)48-34(42)40-15-14-30(23-6-9-27(36)10-7-23)26(19-40)21-47-31-13-12-29(16-25(31)18-37)50(43,44)41(33-38-22-39-49-33)20-24-8-11-28(45-4)17-32(24)46-5/h6-13,16-17,22,26,30H,14-15,19-21H2,1-5H3
InChIKey=LHEKDQHGQYMVNQ-UHFFFAOYSA-N

> <PUBCHEM_SUBSTANCE_SYNONYM>
SCHEMBL16108232

> <PUBCHEM_XREF_EXT_ID>
SCHEMBL16108232

> <PUBCHEM_EXT_DATASOURCE_URL>
https://www.surechembl.org/

> <PUBCHEM_EXT_SUBSTANCE_URL>
https://www.surechembl.org/chemical/SCHEMBL16108232

> <PUBCHEM_CID_ASSOCIATIONS>
117599891  1

> <PUBCHEM_COORDINATE_TYPE>
1
3

$$$$
