310948707
  -OEChem-07211613022D

 19 20  0     1  0  0  0  0  0999 V2000
   -0.7841    3.8581    0.0000 Br  0  0  0  0  0  0  0  0  0  0  0  0
    0.2290   -2.4009    0.0000 O   0  0  0  0  0  0  0  0  0  0  0  0
    1.4780   -1.6932    0.0000 O   0  0  0  0  0  0  0  0  0  0  0  0
    0.2290    0.4719    0.0000 N   0  0  3  0  0  0  0  0  0  0  0  0
   -0.0763    1.7903    0.0000 C   0  0  0  0  0  0  0  0  0  0  0  0
   -0.7841    1.3740    0.0000 C   0  0  0  0  0  0  0  0  0  0  0  0
    0.5621    1.2351    0.0000 C   0  0  0  0  0  0  0  0  0  0  0  0
   -0.6038    0.5690    0.0000 C   0  0  0  0  0  0  0  0  0  0  0  0
   -0.0625    2.6091    0.0000 C   0  0  0  0  0  0  0  0  0  0  0  0
   -1.4919    1.7903    0.0000 C   0  0  0  0  0  0  0  0  0  0  0  0
   -0.7702    3.0255    0.0000 C   0  0  0  0  0  0  0  0  0  0  0  0
    0.6454   -0.2359    0.0000 C   0  0  0  0  0  0  0  0  0  0  0  0
   -1.4919    2.6091    0.0000 C   0  0  0  0  0  0  0  0  0  0  0  0
    0.2290   -0.9715    0.0000 C   0  0  0  0  0  0  0  0  0  0  0  0
    0.6176   -1.6654    0.0000 C   0  0  0  0  0  0  0  0  0  0  0  0
    0.6454   -3.1088    0.0000 C   0  0  0  0  0  0  0  0  0  0  0  0
    0.2429   -3.8581    0.0000 C   0  0  0  0  0  0  0  0  0  0  0  0
    1.0756   -3.8581    0.0000 C   0  0  0  0  0  0  0  0  0  0  0  0
    1.4919   -3.1226    0.0000 C   0  0  0  0  0  0  0  0  0  0  0  0
  1 11  1  0  0  0  0
  2 15  1  0  0  0  0
  2 16  1  0  0  0  0
  3 15  2  0  0  0  0
  4  7  1  0  0  0  0
  4  8  1  0  0  0  0
  4 12  1  0  0  0  0
  5  6  1  0  0  0  0
  5  7  1  0  0  0  0
  5  9  2  0  0  0  0
  6  8  1  0  0  0  0
  6 10  2  0  0  0  0
  9 11  1  0  0  0  0
 10 13  1  0  0  0  0
 11 13  2  0  0  0  0
 12 14  1  0  0  0  0
 14 15  1  0  0  0  0
 16 17  1  0  0  0  0
 16 18  1  0  0  0  0
 16 19  1  0  0  0  0
M  END
> <PUBCHEM_COMPOUND_ID_TYPE>
0

> <PUBCHEM_TOTAL_CHARGE>
0

> <PUBCHEM_SUBSTANCE_ID>
310948707

> <PUBCHEM_SUBSTANCE_VERSION>
1

> <PUBCHEM_EXT_DATASOURCE_NAME>
4488

> <PUBCHEM_EXT_DATASOURCE_REGID>
SCHEMBL16126891

> <PUBCHEM_SUBSTANCE_COMMENT>
InChI=1S/C15H20BrNO2/c1-15(2,3)19-14(18)6-7-17-9-11-4-5-13(16)8-12(11)10-17/h4-5,8H,6-7,9-10H2,1-3H3
InChIKey=LAHDWTQEFSHNON-UHFFFAOYSA-N

> <PUBCHEM_SUBSTANCE_SYNONYM>
SCHEMBL16126891

> <PUBCHEM_XREF_EXT_ID>
SCHEMBL16126891

> <PUBCHEM_EXT_DATASOURCE_URL>
https://www.surechembl.org/

> <PUBCHEM_EXT_SUBSTANCE_URL>
https://www.surechembl.org/chemical/SCHEMBL16126891

> <PUBCHEM_CID_ASSOCIATIONS>
117614248  1

> <PUBCHEM_COORDINATE_TYPE>
1
3

$$$$
