310945264
  -OEChem-07211613022D

 60 65  0     1  0  0  0  0  0999 V2000
   -4.9761   -3.9589    0.0000 F   0  0  0  0  0  0  0  0  0  0  0  0
   -5.7642   -3.1708    0.0000 F   0  0  0  0  0  0  0  0  0  0  0  0
   -4.9761   -2.3827    0.0000 F   0  0  0  0  0  0  0  0  0  0  0  0
    1.5670    3.5740    0.0000 O   0  0  0  0  0  0  0  0  0  0  0  0
    4.3182   -1.9917    0.0000 O   0  0  0  0  0  0  0  0  0  0  0  0
    3.8219   -2.8077    0.0000 O   0  0  0  0  0  0  0  0  0  0  0  0
    3.0150    1.0814    0.0000 O   0  0  0  0  0  0  0  0  0  0  0  0
    4.4629    3.5740    0.0000 O   0  0  0  0  0  0  0  0  0  0  0  0
    5.8925    1.0814    0.0000 O   0  0  0  0  0  0  0  0  0  0  0  0
   -1.6771   -0.2749    0.0000 O   0  0  0  0  0  0  0  0  0  0  0  0
   -4.1514   -3.1525    0.0000 O   0  0  0  0  0  0  0  0  0  0  0  0
   -4.9944   -0.2749    0.0000 O   0  0  0  0  0  0  0  0  0  0  0  0
    2.3002    2.3277    0.0000 N   0  0  0  0  0  0  0  0  0  0  0  0
    0.0641    1.2280    0.0000 N   0  0  0  0  0  0  0  0  0  0  0  0
    2.3002   -0.1833    0.0000 N   0  0  0  0  0  0  0  0  0  0  0  0
   -2.9233    1.8878    0.0000 N   0  0  0  0  0  0  0  0  0  0  0  0
   -2.9233    0.4399    0.0000 N   0  0  0  0  0  0  0  0  0  0  0  0
   -4.9944   -1.7229    0.0000 N   0  0  0  0  0  0  0  0  0  0  0  0
    1.5854    1.0814    0.0000 C   0  0  3  0  0  0  0  0  0  0  0  0
    0.8523    1.5029    0.0000 C   0  0  0  0  0  0  0  0  0  0  0  0
    0.8706    2.3277    0.0000 C   0  0  0  0  0  0  0  0  0  0  0  0
    1.5670    2.7309    0.0000 C   0  0  0  0  0  0  0  0  0  0  0  0
    2.3002    1.4846    0.0000 C   0  0  0  0  0  0  0  0  0  0  0  0
   -0.4124    1.8878    0.0000 C   0  0  0  0  0  0  0  0  0  0  0  0
    2.3185    0.6415    0.0000 C   0  0  0  0  0  0  0  0  0  0  0  0
    0.0641    2.5659    0.0000 C   0  0  0  0  0  0  0  0  0  0  0  0
    0.8889    0.6598    0.0000 C   0  0  0  0  0  0  0  0  0  0  0  0
   -1.2555    1.9244    0.0000 C   0  0  0  0  0  0  0  0  0  0  0  0
    2.9966    2.7309    0.0000 C   0  0  0  0  0  0  0  0  0  0  0  0
    0.8706   -0.1650    0.0000 C   0  0  0  0  0  0  0  0  0  0  0  0
    3.7481    2.3277    0.0000 C   0  0  0  0  0  0  0  0  0  0  0  0
    1.6037   -0.5865    0.0000 C   0  0  0  0  0  0  0  0  0  0  0  0
    3.8219   -2.2784    0.0000 C   0  0  0  0  0  0  0  0  0  0  0  0
   -1.6587    1.1730    0.0000 C   0  0  0  0  0  0  0  0  0  0  0  0
   -1.6771    2.6209    0.0000 C   0  0  0  0  0  0  0  0  0  0  0  0
    3.7481    1.5029    0.0000 C   0  0  0  0  0  0  0  0  0  0  0  0
    4.4629    2.7492    0.0000 C   0  0  0  0  0  0  0  0  0  0  0  0
   -2.5018    1.1730    0.0000 C   0  0  0  0  0  0  0  0  0  0  0  0
    4.4446    1.0997    0.0000 C   0  0  0  0  0  0  0  0  0  0  0  0
    5.1777    2.3277    0.0000 C   0  0  0  0  0  0  0  0  0  0  0  0
   -2.5018    2.6209    0.0000 C   0  0  0  0  0  0  0  0  0  0  0  0
    5.1777    1.5029    0.0000 C   0  0  0  0  0  0  0  0  0  0  0  0
    4.3292   -1.4404    0.0000 C   0  0  0  0  0  0  0  0  0  0  0  0
   -2.5201   -0.2566    0.0000 C   0  0  0  0  0  0  0  0  0  0  0  0
   -2.9233   -0.9897    0.0000 C   0  0  0  0  0  0  0  0  0  0  0  0
   -4.1514   -1.7045    0.0000 C   0  0  0  0  0  0  0  0  0  0  0  0
   -3.7481   -1.0080    0.0000 C   0  0  0  0  0  0  0  0  0  0  0  0
   -3.7481   -2.4193    0.0000 C   0  0  0  0  0  0  0  0  0  0  0  0
    4.8254   -1.4183    0.0000 C   0  0  0  0  0  0  0  0  0  0  0  0
    3.8219   -1.4404    0.0000 C   0  0  0  0  0  0  0  0  0  0  0  0
    4.3182   -0.9000    0.0000 C   0  0  0  0  0  0  0  0  0  0  0  0
    3.0150    0.2749    0.0000 C   0  0  0  0  0  0  0  0  0  0  0  0
    5.1594    3.9588    0.0000 C   0  0  0  0  0  0  0  0  0  0  0  0
   -2.5018   -1.7045    0.0000 C   0  0  0  0  0  0  0  0  0  0  0  0
   -2.9233   -2.4193    0.0000 C   0  0  0  0  0  0  0  0  0  0  0  0
    6.5890    1.4663    0.0000 C   0  0  0  0  0  0  0  0  0  0  0  0
   -4.9761   -3.1525    0.0000 C   0  0  0  0  0  0  0  0  0  0  0  0
   -5.4160   -1.0080    0.0000 C   0  0  0  0  0  0  0  0  0  0  0  0
   -6.2407   -0.9714    0.0000 C   0  0  0  0  0  0  0  0  0  0  0  0
   -6.5890   -0.2199    0.0000 C   0  0  0  0  0  0  0  0  0  0  0  0
  1 57  1  0  0  0  0
  2 57  1  0  0  0  0
  3 57  1  0  0  0  0
  4 22  2  0  0  0  0
  5 33  1  0  0  0  0
  5 43  1  0  0  0  0
  6 33  2  0  0  0  0
  7 36  1  0  0  0  0
  7 52  1  0  0  0  0
  8 37  1  0  0  0  0
  8 53  1  0  0  0  0
  9 42  1  0  0  0  0
  9 56  1  0  0  0  0
 10 44  2  0  0  0  0
 11 48  1  0  0  0  0
 11 57  1  0  0  0  0
 12 58  2  0  0  0  0
 13 22  1  0  0  0  0
 13 23  1  0  0  0  0
 13 29  1  0  0  0  0
 14 20  1  0  0  0  0
 14 24  1  0  0  0  0
 15 25  1  0  0  0  0
 15 32  1  0  0  0  0
 15 33  1  0  0  0  0
 16 38  1  0  0  0  0
 16 41  2  0  0  0  0
 17 38  1  0  0  0  0
 17 44  1  0  0  0  0
 18 46  1  0  0  0  0
 18 58  1  0  0  0  0
 19 20  1  0  0  0  0
 19 23  1  0  0  0  0
 19 25  1  0  0  0  0
 19 27  1  0  0  0  0
 20 21  2  0  0  0  0
 21 22  1  0  0  0  0
 21 26  1  0  0  0  0
 24 26  2  0  0  0  0
 24 28  1  0  0  0  0
 27 30  1  0  0  0  0
 28 34  1  0  0  0  0
 28 35  2  0  0  0  0
 29 31  1  0  0  0  0
 30 32  1  0  0  0  0
 31 36  2  0  0  0  0
 31 37  1  0  0  0  0
 34 38  2  0  0  0  0
 35 41  1  0  0  0  0
 36 39  1  0  0  0  0
 37 40  2  0  0  0  0
 39 42  2  0  0  0  0
 40 42  1  0  0  0  0
 43 49  1  0  0  0  0
 43 50  1  0  0  0  0
 43 51  1  0  0  0  0
 44 45  1  0  0  0  0
 45 47  2  0  0  0  0
 45 54  1  0  0  0  0
 46 47  1  0  0  0  0
 46 48  2  0  0  0  0
 48 55  1  0  0  0  0
 54 55  2  0  0  0  0
 58 59  1  0  0  0  0
 59 60  2  0  0  0  0
M  END
> <PUBCHEM_COMPOUND_ID_TYPE>
0

> <PUBCHEM_TOTAL_CHARGE>
0

> <PUBCHEM_SUBSTANCE_ID>
310945264

> <PUBCHEM_SUBSTANCE_VERSION>
1

> <PUBCHEM_EXT_DATASOURCE_NAME>
4488

> <PUBCHEM_EXT_DATASOURCE_REGID>
SCHEMBL16123358

> <PUBCHEM_SUBSTANCE_COMMENT>
InChI=1S/C42H45F3N6O9/c1-8-35(52)47-30-16-25(10-11-31(30)59-42(43,44)45)37(53)49-34-17-24(12-14-46-34)29-20-27-36(48-29)41(13-9-15-50(22-41)39(55)60-40(2,3)4)23-51(38(27)54)21-28-32(57-6)18-26(56-5)19-33(28)58-7/h8,10-12,14,16-20,48H,1,9,13,15,21-23H2,2-7H3,(H,47,52)(H,46,49,53)
InChIKey=HFUXCGUNXGUEAC-UHFFFAOYSA-N

> <PUBCHEM_SUBSTANCE_SYNONYM>
SCHEMBL16123358

> <PUBCHEM_XREF_EXT_ID>
SCHEMBL16123358

> <PUBCHEM_EXT_DATASOURCE_URL>
https://www.surechembl.org/

> <PUBCHEM_EXT_SUBSTANCE_URL>
https://www.surechembl.org/chemical/SCHEMBL16123358

> <PUBCHEM_CID_ASSOCIATIONS>
117611330  1

> <PUBCHEM_COORDINATE_TYPE>
1
3

$$$$
