310937126
  -OEChem-07211613022D

 22 23  0     1  0  0  0  0  0999 V2000
    0.0000    0.0000    0.0000 Cl  0  0  0  0  0  0  0  0  0  0  0  0
    3.6118   -0.0550    0.0000 S   0  0  0  0  0  0  0  0  0  0  0  0
    6.5089    1.5181    0.0000 O   0  0  0  0  0  0  0  0  0  0  0  0
    5.0799   -0.9569    0.0000 N   0  0  0  0  0  0  0  0  0  0  0  0
    5.7944    0.2806    0.0000 C   0  0  3  0  0  0  0  0  0  0  0  0
    6.5089   -0.1319    0.0000 C   0  0  0  0  0  0  0  0  0  0  0  0
    5.0799   -0.1319    0.0000 C   0  0  3  0  0  0  0  0  0  0  0  0
    4.3655    0.2806    0.0000 C   0  0  0  0  0  0  0  0  0  0  0  0
    7.9378   -0.1319    0.0000 C   0  0  0  0  0  0  0  0  0  0  0  0
    7.2234    0.2806    0.0000 C   0  0  0  0  0  0  0  0  0  0  0  0
    7.9378   -0.9569    0.0000 C   0  0  0  0  0  0  0  0  0  0  0  0
    6.5089   -0.9569    0.0000 C   0  0  0  0  0  0  0  0  0  0  0  0
    4.2792    1.1010    0.0000 C   0  0  0  0  0  0  0  0  0  0  0  0
    7.2234   -1.3694    0.0000 C   0  0  0  0  0  0  0  0  0  0  0  0
    3.0598    0.5581    0.0000 C   0  0  0  0  0  0  0  0  0  0  0  0
    5.7944    1.1056    0.0000 C   0  0  0  0  0  0  0  0  0  0  0  0
    3.4723    1.2726    0.0000 C   0  0  0  0  0  0  0  0  0  0  0  0
    8.6523    0.2806    0.0000 C   0  0  0  0  0  0  0  0  0  0  0  0
    8.6523   -1.3694    0.0000 C   0  0  0  0  0  0  0  0  0  0  0  0
    9.3668   -0.1319    0.0000 C   0  0  0  0  0  0  0  0  0  0  0  0
    9.3668   -0.9569    0.0000 C   0  0  0  0  0  0  0  0  0  0  0  0
    2.2393    0.4719    0.0000 C   0  0  0  0  0  0  0  0  0  0  0  0
  2  8  1  0  0  0  0
  2 15  1  0  0  0  0
  3 16  1  0  0  0  0
  4  7  1  0  0  0  0
  5  6  1  0  0  0  0
  5  7  1  0  0  0  0
  5 16  1  0  0  0  0
  6 10  2  0  0  0  0
  6 12  1  0  0  0  0
  7  8  1  0  0  0  0
  8 13  2  0  0  0  0
  9 10  1  0  0  0  0
  9 11  1  0  0  0  0
  9 18  2  0  0  0  0
 11 14  1  0  0  0  0
 11 19  2  0  0  0  0
 12 14  2  0  0  0  0
 13 17  1  0  0  0  0
 15 17  2  0  0  0  0
 15 22  1  0  0  0  0
 18 20  1  0  0  0  0
 19 21  1  0  0  0  0
 20 21  2  0  0  0  0
M  END
> <PUBCHEM_COMPOUND_ID_TYPE>
0

> <PUBCHEM_TOTAL_CHARGE>
0

> <PUBCHEM_SUBSTANCE_ID>
310937126

> <PUBCHEM_SUBSTANCE_VERSION>
1

> <PUBCHEM_EXT_DATASOURCE_NAME>
4488

> <PUBCHEM_EXT_DATASOURCE_REGID>
SCHEMBL16114845

> <PUBCHEM_SUBSTANCE_COMMENT>
InChI=1S/C18H19NOS.ClH/c1-12-6-9-17(21-12)18(19)16(11-20)15-8-7-13-4-2-3-5-14(13)10-15;/h2-10,16,18,20H,11,19H2,1H3;1H
InChIKey=OWCFKOLQSBCQCM-UHFFFAOYSA-N

> <PUBCHEM_SUBSTANCE_SYNONYM>
SCHEMBL16114845

> <PUBCHEM_XREF_EXT_ID>
SCHEMBL16114845

> <PUBCHEM_EXT_DATASOURCE_URL>
https://www.surechembl.org/

> <PUBCHEM_EXT_SUBSTANCE_URL>
https://www.surechembl.org/chemical/SCHEMBL16114845

> <PUBCHEM_CID_ASSOCIATIONS>
117604954  1
313  2
117604239  2

> <PUBCHEM_COORDINATE_TYPE>
1
3

$$$$
