310932655
  -OEChem-07211613022D

 20 22  0     1  0  0  0  0  0999 V2000
    3.2745    0.0000    0.0000 O   0  0  0  0  0  0  0  0  0  0  0  0
    4.4002   -1.9443    0.0000 O   0  0  0  0  0  0  0  0  0  0  0  0
    5.1164   -0.7163    0.0000 O   0  0  0  0  0  0  0  0  0  0  0  0
    3.6838   -0.7163    0.0000 C   0  0  3  0  0  0  0  0  0  0  0  0
    2.8652   -0.7163    0.0000 C   0  0  3  0  0  0  0  0  0  0  0  0
    3.4622   -1.5179    0.0000 C   0  0  0  0  0  0  0  0  0  0  0  0
    4.4002   -1.1256    0.0000 C   0  0  0  0  0  0  0  0  0  0  0  0
    2.1489   -1.1256    0.0000 C   0  0  0  0  0  0  0  0  0  0  0  0
    4.0591   -2.0978    0.0000 C   0  0  0  0  0  0  0  0  0  0  0  0
    2.6776   -1.7396    0.0000 C   0  0  0  0  0  0  0  0  0  0  0  0
    2.1319   -1.9613    0.0000 C   0  0  0  0  0  0  0  0  0  0  0  0
    1.4326   -0.7163    0.0000 C   0  0  0  0  0  0  0  0  0  0  0  0
    3.8373   -2.8993    0.0000 C   0  0  0  0  0  0  0  0  0  0  0  0
    2.4729   -2.5241    0.0000 C   0  0  0  0  0  0  0  0  0  0  0  0
    1.4326   -2.3706    0.0000 C   0  0  0  0  0  0  0  0  0  0  0  0
    0.7163   -1.1256    0.0000 C   0  0  0  0  0  0  0  0  0  0  0  0
    0.7163   -1.9443    0.0000 C   0  0  0  0  0  0  0  0  0  0  0  0
    3.0358   -3.1040    0.0000 C   0  0  0  0  0  0  0  0  0  0  0  0
    5.1164   -2.3535    0.0000 C   0  0  0  0  0  0  0  0  0  0  0  0
    0.0000   -2.3535    0.0000 C   0  0  0  0  0  0  0  0  0  0  0  0
  1  4  1  0  0  0  0
  1  5  1  0  0  0  0
  2  7  1  0  0  0  0
  2 19  1  0  0  0  0
  3  7  2  0  0  0  0
  4  5  1  0  0  0  0
  4  6  1  0  0  0  0
  4  7  1  0  0  0  0
  5  8  1  0  0  0  0
  6  9  2  0  0  0  0
  6 10  1  0  0  0  0
  8 11  2  0  0  0  0
  8 12  1  0  0  0  0
  9 13  1  0  0  0  0
 10 14  2  0  0  0  0
 11 15  1  0  0  0  0
 12 16  2  0  0  0  0
 13 18  2  0  0  0  0
 14 18  1  0  0  0  0
 15 17  2  0  0  0  0
 16 17  1  0  0  0  0
 17 20  1  0  0  0  0
M  END
> <PUBCHEM_COMPOUND_ID_TYPE>
0

> <PUBCHEM_TOTAL_CHARGE>
0

> <PUBCHEM_SUBSTANCE_ID>
310932655

> <PUBCHEM_SUBSTANCE_VERSION>
1

> <PUBCHEM_EXT_DATASOURCE_NAME>
4488

> <PUBCHEM_EXT_DATASOURCE_REGID>
SCHEMBL16110034

> <PUBCHEM_SUBSTANCE_COMMENT>
InChI=1S/C17H16O3/c1-12-8-10-13(11-9-12)15-17(20-15,16(18)19-2)14-6-4-3-5-7-14/h3-11,15H,1-2H3
InChIKey=KLRIYMRMGBJUOB-UHFFFAOYSA-N

> <PUBCHEM_SUBSTANCE_SYNONYM>
SCHEMBL16110034

> <PUBCHEM_XREF_EXT_ID>
SCHEMBL16110034

> <PUBCHEM_EXT_DATASOURCE_URL>
https://www.surechembl.org/

> <PUBCHEM_EXT_SUBSTANCE_URL>
https://www.surechembl.org/chemical/SCHEMBL16110034

> <PUBCHEM_CID_ASSOCIATIONS>
117601171  1

> <PUBCHEM_COORDINATE_TYPE>
1
3

$$$$
