310939113
  -OEChem-07211613022D

 23 25  0     1  0  0  0  0  0999 V2000
   -0.0553   -1.3885    0.0000 F   0  0  0  0  0  0  0  0  0  0  0  0
   -1.4842    1.0865    0.0000 F   0  0  0  0  0  0  0  0  0  0  0  0
   -1.4842   -0.5635    0.0000 O   0  0  0  0  0  0  0  0  0  0  0  0
    2.0881   -0.1510    0.0000 N   0  0  0  0  0  0  0  0  0  0  0  0
   -0.7697   -0.1510    0.0000 C   0  0  0  0  0  0  0  0  0  0  0  0
    0.6592   -0.1510    0.0000 C   0  0  0  0  0  0  0  0  0  0  0  0
   -0.0553   -0.5635    0.0000 C   0  0  0  0  0  0  0  0  0  0  0  0
   -0.7697    0.6740    0.0000 C   0  0  0  0  0  0  0  0  0  0  0  0
    1.3737   -0.5635    0.0000 C   0  0  3  0  0  0  0  0  0  0  0  0
    0.6592    0.6740    0.0000 C   0  0  0  0  0  0  0  0  0  0  0  0
   -0.0553    1.0865    0.0000 C   0  0  0  0  0  0  0  0  0  0  0  0
   -2.1987   -0.1510    0.0000 C   0  0  0  0  0  0  0  0  0  0  0  0
    1.3737   -1.3885    0.0000 C   0  0  0  0  0  0  0  0  0  0  0  0
    2.8026    1.0865    0.0000 C   0  0  0  0  0  0  0  0  0  0  0  0
    2.0881    0.6740    0.0000 C   0  0  0  0  0  0  0  0  0  0  0  0
   -2.1987    0.6740    0.0000 C   0  0  0  0  0  0  0  0  0  0  0  0
   -2.9131   -0.5635    0.0000 C   0  0  0  0  0  0  0  0  0  0  0  0
    3.6276    1.0865    0.0000 C   0  0  0  0  0  0  0  0  0  0  0  0
    3.2151    1.8010    0.0000 C   0  0  0  0  0  0  0  0  0  0  0  0
   -2.9131    1.0865    0.0000 C   0  0  0  0  0  0  0  0  0  0  0  0
   -3.6276   -0.1510    0.0000 C   0  0  0  0  0  0  0  0  0  0  0  0
    2.0881   -1.8010    0.0000 C   0  0  0  0  0  0  0  0  0  0  0  0
   -3.6276    0.6740    0.0000 C   0  0  0  0  0  0  0  0  0  0  0  0
  1  7  1  0  0  0  0
  2  8  1  0  0  0  0
  3  5  1  0  0  0  0
  3 12  1  0  0  0  0
  4  9  1  0  0  0  0
  4 15  1  0  0  0  0
  5  7  1  0  0  0  0
  5  8  2  0  0  0  0
  6  7  2  0  0  0  0
  6  9  1  0  0  0  0
  6 10  1  0  0  0  0
  8 11  1  0  0  0  0
  9 13  1  0  0  0  0
 10 11  2  0  0  0  0
 12 16  2  0  0  0  0
 12 17  1  0  0  0  0
 13 22  1  0  0  0  0
 14 15  1  0  0  0  0
 14 18  1  0  0  0  0
 14 19  1  0  0  0  0
 16 20  1  0  0  0  0
 17 21  2  0  0  0  0
 18 19  1  0  0  0  0
 20 23  2  0  0  0  0
 21 23  1  0  0  0  0
M  END
> <PUBCHEM_COMPOUND_ID_TYPE>
0

> <PUBCHEM_TOTAL_CHARGE>
0

> <PUBCHEM_SUBSTANCE_ID>
310939113

> <PUBCHEM_SUBSTANCE_VERSION>
1

> <PUBCHEM_EXT_DATASOURCE_NAME>
4488

> <PUBCHEM_EXT_DATASOURCE_REGID>
SCHEMBL16117034

> <PUBCHEM_SUBSTANCE_COMMENT>
InChI=1S/C19H21F2NO/c1-2-17(22-12-13-8-9-13)15-10-11-16(20)19(18(15)21)23-14-6-4-3-5-7-14/h3-7,10-11,13,17,22H,2,8-9,12H2,1H3
InChIKey=PZHIIMRWYZOEMS-UHFFFAOYSA-N

> <PUBCHEM_SUBSTANCE_SYNONYM>
SCHEMBL16117034

> <PUBCHEM_XREF_EXT_ID>
SCHEMBL16117034

> <PUBCHEM_EXT_DATASOURCE_URL>
https://www.surechembl.org/

> <PUBCHEM_EXT_SUBSTANCE_URL>
https://www.surechembl.org/chemical/SCHEMBL16117034

> <PUBCHEM_CID_ASSOCIATIONS>
117606469  1

> <PUBCHEM_COORDINATE_TYPE>
1
3

$$$$
