310942939
  -OEChem-07211613022D

 26 28  0     1  0  0  0  0  0999 V2000
   -0.2178   -1.2383    0.0000 O   0  0  0  0  0  0  0  0  0  0  0  0
    1.2259   -2.0722    0.0000 O   0  0  0  0  0  0  0  0  0  0  0  0
    2.6696   -1.2383    0.0000 O   0  0  0  0  0  0  0  0  0  0  0  0
   -2.6820    1.4499    0.0000 O   0  0  0  0  0  0  0  0  0  0  0  0
   -2.9185   -0.0809    0.0000 O   0  0  0  0  0  0  0  0  0  0  0  0
   -0.4418    2.4954    0.0000 N   0  0  0  0  0  0  0  0  0  0  0  0
    0.5165    0.0062    0.0000 C   0  0  0  0  0  0  0  0  0  0  0  0
   -0.2552    0.3174    0.0000 C   0  0  0  0  0  0  0  0  0  0  0  0
    0.5165   -0.8152    0.0000 C   0  0  0  0  0  0  0  0  0  0  0  0
    1.2259    0.4294    0.0000 C   0  0  0  0  0  0  0  0  0  0  0  0
   -0.4916    1.1014    0.0000 C   0  0  0  0  0  0  0  0  0  0  0  0
    1.2383   -1.2259    0.0000 C   0  0  0  0  0  0  0  0  0  0  0  0
    1.9478   -0.8152    0.0000 C   0  0  0  0  0  0  0  0  0  0  0  0
    1.9602    0.0062    0.0000 C   0  0  0  0  0  0  0  0  0  0  0  0
   -0.0311    1.7859    0.0000 C   0  0  3  0  0  0  0  0  0  0  0  0
    1.3628    1.2383    0.0000 C   0  0  0  0  0  0  0  0  0  0  0  0
   -0.7280   -0.3796    0.0000 C   0  0  0  0  0  0  0  0  0  0  0  0
   -1.2508    1.4001    0.0000 C   0  0  0  0  0  0  0  0  0  0  0  0
    0.8028    1.8358    0.0000 C   0  0  0  0  0  0  0  0  0  0  0  0
   -1.9726    0.9894    0.0000 C   0  0  0  0  0  0  0  0  0  0  0  0
   -2.1095    0.1804    0.0000 C   0  0  0  0  0  0  0  0  0  0  0  0
   -1.5370   -0.4418    0.0000 C   0  0  0  0  0  0  0  0  0  0  0  0
   -0.2178   -2.0473    0.0000 C   0  0  0  0  0  0  0  0  0  0  0  0
    1.9353   -2.4954    0.0000 C   0  0  0  0  0  0  0  0  0  0  0  0
    3.3790   -0.8400    0.0000 C   0  0  0  0  0  0  0  0  0  0  0  0
   -3.3790    1.0641    0.0000 C   0  0  0  0  0  0  0  0  0  0  0  0
  1  9  1  0  0  0  0
  1 23  1  0  0  0  0
  2 12  1  0  0  0  0
  2 24  1  0  0  0  0
  3 13  1  0  0  0  0
  3 25  1  0  0  0  0
  4 20  1  0  0  0  0
  4 26  1  0  0  0  0
  5 21  2  0  0  0  0
  6 15  1  0  0  0  0
  7  8  1  0  0  0  0
  7  9  2  0  0  0  0
  7 10  1  0  0  0  0
  8 11  2  0  0  0  0
  8 17  1  0  0  0  0
  9 12  1  0  0  0  0
 10 14  2  0  0  0  0
 10 16  1  0  0  0  0
 11 15  1  0  0  0  0
 11 18  1  0  0  0  0
 12 13  2  0  0  0  0
 13 14  1  0  0  0  0
 15 19  1  0  0  0  0
 16 19  1  0  0  0  0
 17 22  2  0  0  0  0
 18 20  2  0  0  0  0
 20 21  1  0  0  0  0
 21 22  1  0  0  0  0
M  END
> <PUBCHEM_COMPOUND_ID_TYPE>
0

> <PUBCHEM_TOTAL_CHARGE>
0

> <PUBCHEM_SUBSTANCE_ID>
310942939

> <PUBCHEM_SUBSTANCE_VERSION>
1

> <PUBCHEM_EXT_DATASOURCE_NAME>
4488

> <PUBCHEM_EXT_DATASOURCE_REGID>
SCHEMBL16120997

> <PUBCHEM_SUBSTANCE_COMMENT>
InChI=1S/C20H23NO5/c1-23-16-10-13-12(6-8-15(16)22)18-11(5-7-14(13)21)9-17(24-2)19(25-3)20(18)26-4/h6,8-10,14H,5,7,21H2,1-4H3
InChIKey=NLJVJPAFJAGEPD-UHFFFAOYSA-N

> <PUBCHEM_SUBSTANCE_SYNONYM>
SCHEMBL16120997

> <PUBCHEM_XREF_EXT_ID>
SCHEMBL16120997

> <PUBCHEM_EXT_DATASOURCE_URL>
https://www.surechembl.org/

> <PUBCHEM_EXT_SUBSTANCE_URL>
https://www.surechembl.org/chemical/SCHEMBL16120997

> <PUBCHEM_CID_ASSOCIATIONS>
632101  1

> <PUBCHEM_COORDINATE_TYPE>
1
3

$$$$
