310937121
  -OEChem-07211613022D

 19 20  0     1  0  0  0  0  0999 V2000
    0.7219   -2.8876    0.0000 O   0  0  0  0  0  0  0  0  0  0  0  0
    0.0000   -0.8456    0.0000 N   0  0  0  0  0  0  0  0  0  0  0  0
    1.4437   -2.4751    0.0000 C   0  0  3  0  0  0  0  0  0  0  0  0
    2.1450   -2.8876    0.0000 C   0  0  0  0  0  0  0  0  0  0  0  0
    1.4437   -1.6501    0.0000 C   0  0  3  0  0  0  0  0  0  0  0  0
    2.1450   -1.2375    0.0000 C   0  0  0  0  0  0  0  0  0  0  0  0
    2.8876   -2.4751    0.0000 C   0  0  0  0  0  0  0  0  0  0  0  0
    2.1657   -3.7126    0.0000 C   0  0  0  0  0  0  0  0  0  0  0  0
    3.5888   -1.2375    0.0000 C   0  0  0  0  0  0  0  0  0  0  0  0
    2.8669   -1.6501    0.0000 C   0  0  0  0  0  0  0  0  0  0  0  0
    0.7219   -1.2375    0.0000 C   0  0  0  0  0  0  0  0  0  0  0  0
    3.5888   -2.8876    0.0000 C   0  0  0  0  0  0  0  0  0  0  0  0
    2.8669   -4.1251    0.0000 C   0  0  0  0  0  0  0  0  0  0  0  0
    3.5888   -3.7126    0.0000 C   0  0  0  0  0  0  0  0  0  0  0  0
    3.5888   -0.4125    0.0000 C   0  0  0  0  0  0  0  0  0  0  0  0
    4.2901   -1.6501    0.0000 C   0  0  0  0  0  0  0  0  0  0  0  0
    4.2901    0.0000    0.0000 C   0  0  0  0  0  0  0  0  0  0  0  0
    4.9913   -1.2375    0.0000 C   0  0  0  0  0  0  0  0  0  0  0  0
    5.0120   -0.4125    0.0000 C   0  0  0  0  0  0  0  0  0  0  0  0
  1  3  1  0  0  0  0
  2 11  3  0  0  0  0
  3  4  1  0  0  0  0
  3  5  1  0  0  0  0
  4  7  2  0  0  0  0
  4  8  1  0  0  0  0
  5  6  1  0  0  0  0
  5 11  1  0  0  0  0
  6 10  1  0  0  0  0
  7 12  1  0  0  0  0
  8 13  2  0  0  0  0
  9 10  1  0  0  0  0
  9 15  2  0  0  0  0
  9 16  1  0  0  0  0
 12 14  2  0  0  0  0
 13 14  1  0  0  0  0
 15 17  1  0  0  0  0
 16 18  2  0  0  0  0
 17 19  2  0  0  0  0
 18 19  1  0  0  0  0
M  END
> <PUBCHEM_COMPOUND_ID_TYPE>
0

> <PUBCHEM_TOTAL_CHARGE>
0

> <PUBCHEM_SUBSTANCE_ID>
310937121

> <PUBCHEM_SUBSTANCE_VERSION>
1

> <PUBCHEM_EXT_DATASOURCE_NAME>
4488

> <PUBCHEM_EXT_DATASOURCE_REGID>
SCHEMBL16114839

> <PUBCHEM_SUBSTANCE_COMMENT>
InChI=1S/C17H17NO/c18-13-16(12-11-14-7-3-1-4-8-14)17(19)15-9-5-2-6-10-15/h1-10,16-17,19H,11-12H2
InChIKey=MJLJQWWIWJOTOI-UHFFFAOYSA-N

> <PUBCHEM_SUBSTANCE_SYNONYM>
SCHEMBL16114839

> <PUBCHEM_XREF_EXT_ID>
SCHEMBL16114839

> <PUBCHEM_EXT_DATASOURCE_URL>
https://www.surechembl.org/

> <PUBCHEM_EXT_SUBSTANCE_URL>
https://www.surechembl.org/chemical/SCHEMBL16114839

> <PUBCHEM_CID_ASSOCIATIONS>
117604950  1

> <PUBCHEM_COORDINATE_TYPE>
1
3

$$$$
