310935596
  -OEChem-07211613022D

 36 41  0     1  0  0  0  0  0999 V2000
    2.9004   -7.0743    0.0000 O   0  0  0  0  0  0  0  0  0  0  0  0
    5.8009   -3.7494    0.0000 O   0  0  0  0  0  0  0  0  0  0  0  0
    0.7428   -3.3249    0.0000 N   0  0  3  0  0  0  0  0  0  0  0  0
    0.0000   -2.0869    0.0000 N   0  0  0  0  0  0  0  0  0  0  0  0
    0.7428   -0.8489    0.0000 N   0  0  0  0  0  0  0  0  0  0  0  0
    3.6079   -5.8009    0.0000 N   0  0  0  0  0  0  0  0  0  0  0  0
    5.0581   -2.5114    0.0000 N   0  0  0  0  0  0  0  0  0  0  0  0
    1.4503   -2.0869    0.0000 C   0  0  0  0  0  0  0  0  0  0  0  0
    0.7428   -2.5114    0.0000 C   0  0  0  0  0  0  0  0  0  0  0  0
    1.4503   -1.2380    0.0000 C   0  0  0  0  0  0  0  0  0  0  0  0
    2.8651   -2.0869    0.0000 C   0  0  0  0  0  0  0  0  0  0  0  0
    2.1577   -0.8489    0.0000 C   0  0  0  0  0  0  0  0  0  0  0  0
    2.1577   -2.5114    0.0000 C   0  0  0  0  0  0  0  0  0  0  0  0
    1.4503   -4.5983    0.0000 C   0  0  0  0  0  0  0  0  0  0  0  0
    1.4503   -3.7494    0.0000 C   0  0  0  0  0  0  0  0  0  0  0  0
    0.7428   -5.0227    0.0000 C   0  0  0  0  0  0  0  0  0  0  0  0
    2.8651   -1.2380    0.0000 C   0  0  0  0  0  0  0  0  0  0  0  0
    0.0354   -3.7494    0.0000 C   0  0  0  0  0  0  0  0  0  0  0  0
    3.6079   -2.5114    0.0000 C   0  0  0  0  0  0  0  0  0  0  0  0
    2.1930   -5.8009    0.0000 C   0  0  0  0  0  0  0  0  0  0  0  0
    2.1577   -4.9874    0.0000 C   0  0  0  0  0  0  0  0  0  0  0  0
    0.0354   -4.5983    0.0000 C   0  0  0  0  0  0  0  0  0  0  0  0
    0.0000   -1.2380    0.0000 C   0  0  0  0  0  0  0  0  0  0  0  0
    0.7428   -5.8009    0.0000 C   0  0  0  0  0  0  0  0  0  0  0  0
    2.9004   -6.2254    0.0000 C   0  0  0  0  0  0  0  0  0  0  0  0
    1.4503   -6.2254    0.0000 C   0  0  0  0  0  0  0  0  0  0  0  0
    4.3507   -2.0869    0.0000 C   0  0  0  0  0  0  0  0  0  0  0  0
    3.6433   -3.3249    0.0000 C   0  0  0  0  0  0  0  0  0  0  0  0
    2.1577    0.0000    0.0000 C   0  0  0  0  0  0  0  0  0  0  0  0
    5.0935   -3.3603    0.0000 C   0  0  0  0  0  0  0  0  0  0  0  0
    4.3507   -3.7494    0.0000 C   0  0  0  0  0  0  0  0  0  0  0  0
    3.7140   -4.9874    0.0000 C   0  0  0  0  0  0  0  0  0  0  0  0
    4.3861   -6.1546    0.0000 C   0  0  0  0  0  0  0  0  0  0  0  0
    4.5276   -4.8105    0.0000 C   0  0  0  0  0  0  0  0  0  0  0  0
    4.9520   -5.5534    0.0000 C   0  0  0  0  0  0  0  0  0  0  0  0
    6.5438   -3.3249    0.0000 C   0  0  0  0  0  0  0  0  0  0  0  0
  1 25  2  0  0  0  0
  2 30  1  0  0  0  0
  2 36  1  0  0  0  0
  3  9  1  0  0  0  0
  3 15  1  0  0  0  0
  3 18  1  0  0  0  0
  4  9  1  0  0  0  0
  4 23  2  0  0  0  0
  5 10  2  0  0  0  0
  5 23  1  0  0  0  0
  6 25  1  0  0  0  0
  6 32  1  0  0  0  0
  6 33  1  0  0  0  0
  7 27  1  0  0  0  0
  7 30  2  0  0  0  0
  8  9  2  0  0  0  0
  8 10  1  0  0  0  0
  8 13  1  0  0  0  0
 10 12  1  0  0  0  0
 11 13  2  0  0  0  0
 11 17  1  0  0  0  0
 11 19  1  0  0  0  0
 12 17  2  0  0  0  0
 12 29  1  0  0  0  0
 14 15  1  0  0  0  0
 14 16  2  0  0  0  0
 14 21  1  0  0  0  0
 16 22  1  0  0  0  0
 16 24  1  0  0  0  0
 18 22  1  0  0  0  0
 19 27  2  0  0  0  0
 19 28  1  0  0  0  0
 20 21  2  0  0  0  0
 20 25  1  0  0  0  0
 20 26  1  0  0  0  0
 24 26  2  0  0  0  0
 28 31  2  0  0  0  0
 30 31  1  0  0  0  0
 32 34  1  0  0  0  0
 33 35  1  0  0  0  0
 34 35  1  0  0  0  0
M  END
> <PUBCHEM_COMPOUND_ID_TYPE>
0

> <PUBCHEM_TOTAL_CHARGE>
0

> <PUBCHEM_SUBSTANCE_ID>
310935596

> <PUBCHEM_SUBSTANCE_VERSION>
1

> <PUBCHEM_EXT_DATASOURCE_NAME>
4488

> <PUBCHEM_EXT_DATASOURCE_REGID>
SCHEMBL16113169

> <PUBCHEM_SUBSTANCE_COMMENT>
InChI=1S/C29H29N5O2/c1-19-13-23(22-7-8-26(36-2)30-16-22)15-25-27(19)31-18-32-28(25)34-12-9-20-5-6-21(14-24(20)17-34)29(35)33-10-3-4-11-33/h5-8,13-16,18H,3-4,9-12,17H2,1-2H3
InChIKey=CAAIUGUXFPYKHC-UHFFFAOYSA-N

> <PUBCHEM_SUBSTANCE_SYNONYM>
SCHEMBL16113169

> <PUBCHEM_XREF_EXT_ID>
SCHEMBL16113169

> <PUBCHEM_EXT_DATASOURCE_URL>
https://www.surechembl.org/

> <PUBCHEM_EXT_SUBSTANCE_URL>
https://www.surechembl.org/chemical/SCHEMBL16113169

> <PUBCHEM_CID_ASSOCIATIONS>
117603617  1

> <PUBCHEM_COORDINATE_TYPE>
1
3

$$$$
