310939674
  -OEChem-07211613022D

 35 37  0     1  0  0  0  0  0999 V2000
    2.8461   10.4828    0.0000 O   0  0  0  0  0  0  0  0  0  0  0  0
    1.4173    9.6579    0.0000 O   0  0  0  0  0  0  0  0  0  0  0  0
   -2.1549   14.1952    0.0000 O   0  0  0  0  0  0  0  0  0  0  0  0
   -3.5839   13.3702    0.0000 O   0  0  0  0  0  0  0  0  0  0  0  0
    0.7028   13.3702    0.0000 N   0  0  0  0  0  0  0  0  0  0  0  0
    1.4173   14.6077    0.0000 N   0  0  0  0  0  0  0  0  0  0  0  0
    2.8461   14.6077    0.0000 N   0  0  0  0  0  0  0  0  0  0  0  0
   -5.0128   14.1952    0.0000 N   0  0  0  0  0  0  0  0  0  0  0  0
    1.4173   12.9578    0.0000 C   0  0  0  0  0  0  0  0  0  0  0  0
    0.7028   14.1952    0.0000 C   0  0  0  0  0  0  0  0  0  0  0  0
    1.4173   12.1328    0.0000 C   0  0  0  0  0  0  0  0  0  0  0  0
    2.1316   14.1952    0.0000 C   0  0  0  0  0  0  0  0  0  0  0  0
   -0.0116   14.6077    0.0000 C   0  0  0  0  0  0  0  0  0  0  0  0
    2.1316   13.3702    0.0000 C   0  0  0  0  0  0  0  0  0  0  0  0
    2.1316   11.7203    0.0000 C   0  0  0  0  0  0  0  0  0  0  0  0
    2.1316   10.8953    0.0000 C   0  0  0  0  0  0  0  0  0  0  0  0
    0.7028   11.7203    0.0000 C   0  0  0  0  0  0  0  0  0  0  0  0
    1.4173   10.4828    0.0000 C   0  0  0  0  0  0  0  0  0  0  0  0
   -0.7261   14.1952    0.0000 C   0  0  0  0  0  0  0  0  0  0  0  0
   -0.0116   15.4327    0.0000 C   0  0  0  0  0  0  0  0  0  0  0  0
    0.7028   10.8953    0.0000 C   0  0  0  0  0  0  0  0  0  0  0  0
   -1.4406   14.6077    0.0000 C   0  0  0  0  0  0  0  0  0  0  0  0
   -0.7261   15.8452    0.0000 C   0  0  0  0  0  0  0  0  0  0  0  0
   -1.4406   15.4327    0.0000 C   0  0  0  0  0  0  0  0  0  0  0  0
    3.5606   14.1952    0.0000 C   0  0  0  0  0  0  0  0  0  0  0  0
    2.8461   15.4327    0.0000 C   0  0  0  0  0  0  0  0  0  0  0  0
    4.2751   14.6077    0.0000 C   0  0  0  0  0  0  0  0  0  0  0  0
   -2.8694   14.6077    0.0000 C   0  0  0  0  0  0  0  0  0  0  0  0
    3.5606   10.8953    0.0000 C   0  0  0  0  0  0  0  0  0  0  0  0
    0.7028    9.2453    0.0000 C   0  0  0  0  0  0  0  0  0  0  0  0
   -3.5839   14.1952    0.0000 C   0  0  3  0  0  0  0  0  0  0  0  0
    4.9894   14.1952    0.0000 C   0  0  0  0  0  0  0  0  0  0  0  0
   -4.2984   14.6077    0.0000 C   0  0  0  0  0  0  0  0  0  0  0  0
    5.7039   13.7827    0.0000 C   0  0  0  0  0  0  0  0  0  0  0  0
   -5.7272   14.6077    0.0000 C   0  0  0  0  0  0  0  0  0  0  0  0
  1 16  1  0  0  0  0
  1 29  1  0  0  0  0
  2 18  1  0  0  0  0
  2 30  1  0  0  0  0
  3 22  1  0  0  0  0
  3 28  1  0  0  0  0
  4 31  1  0  0  0  0
  5  9  1  0  0  0  0
  5 10  2  0  0  0  0
  6 10  1  0  0  0  0
  6 12  2  0  0  0  0
  7 12  1  0  0  0  0
  7 25  1  0  0  0  0
  7 26  1  0  0  0  0
  8 33  1  0  0  0  0
  8 35  1  0  0  0  0
  9 11  1  0  0  0  0
  9 14  2  0  0  0  0
 10 13  1  0  0  0  0
 11 15  1  0  0  0  0
 11 17  2  0  0  0  0
 12 14  1  0  0  0  0
 13 19  2  0  0  0  0
 13 20  1  0  0  0  0
 15 16  2  0  0  0  0
 16 18  1  0  0  0  0
 17 21  1  0  0  0  0
 18 21  2  0  0  0  0
 19 22  1  0  0  0  0
 20 23  2  0  0  0  0
 22 24  2  0  0  0  0
 23 24  1  0  0  0  0
 25 27  1  0  0  0  0
 27 32  1  0  0  0  0
 28 31  1  0  0  0  0
 31 33  1  0  0  0  0
 32 34  3  0  0  0  0
M  END
> <PUBCHEM_COMPOUND_ID_TYPE>
0

> <PUBCHEM_TOTAL_CHARGE>
0

> <PUBCHEM_SUBSTANCE_ID>
310939674

> <PUBCHEM_SUBSTANCE_VERSION>
1

> <PUBCHEM_EXT_DATASOURCE_NAME>
4488

> <PUBCHEM_EXT_DATASOURCE_REGID>
SCHEMBL16117604

> <PUBCHEM_SUBSTANCE_COMMENT>
InChI=1S/C27H32N4O4/c1-6-7-13-31(3)26-16-23(19-11-12-24(33-4)25(15-19)34-5)29-27(30-26)20-9-8-10-22(14-20)35-18-21(32)17-28-2/h1,8-12,14-16,21,28,32H,7,13,17-18H2,2-5H3
InChIKey=MWIHBENDUADOGI-UHFFFAOYSA-N

> <PUBCHEM_SUBSTANCE_SYNONYM>
SCHEMBL16117604

> <PUBCHEM_XREF_EXT_ID>
SCHEMBL16117604

> <PUBCHEM_EXT_DATASOURCE_URL>
https://www.surechembl.org/

> <PUBCHEM_EXT_SUBSTANCE_URL>
https://www.surechembl.org/chemical/SCHEMBL16117604

> <PUBCHEM_CID_ASSOCIATIONS>
117606907  1

> <PUBCHEM_COORDINATE_TYPE>
1
3

$$$$
