310932695
  -OEChem-07211613022D

 23 26  0     1  0  0  0  0  0999 V2000
   -1.8073    0.0000    0.0000 N   0  0  3  0  0  0  0  0  0  0  0  0
    0.7846    0.6674    0.0000 N   0  0  0  0  0  0  0  0  0  0  0  0
    0.7846   -0.6674    0.0000 N   0  0  0  0  0  0  0  0  0  0  0  0
   -1.4494    0.7433    0.0000 C   0  0  3  0  0  0  0  0  0  0  0  0
    0.0000    0.4125    0.0000 C   0  0  0  0  0  0  0  0  0  0  0  0
    0.0000   -0.4125    0.0000 C   0  0  0  0  0  0  0  0  0  0  0  0
   -0.6450    0.9269    0.0000 C   0  0  0  0  0  0  0  0  0  0  0  0
   -1.9637    1.3883    0.0000 C   0  0  0  0  0  0  0  0  0  0  0  0
   -1.4494   -0.7433    0.0000 C   0  0  0  0  0  0  0  0  0  0  0  0
   -0.6450   -0.9269    0.0000 C   0  0  0  0  0  0  0  0  0  0  0  0
   -2.6323    0.0000    0.0000 C   0  0  0  0  0  0  0  0  0  0  0  0
    1.2696    0.0000    0.0000 C   0  0  0  0  0  0  0  0  0  0  0  0
   -3.0448   -0.7145    0.0000 C   0  0  0  0  0  0  0  0  0  0  0  0
   -1.6623    2.1563    0.0000 C   0  0  0  0  0  0  0  0  0  0  0  0
   -2.7795    1.2654    0.0000 C   0  0  0  0  0  0  0  0  0  0  0  0
   -2.1767    2.8013    0.0000 C   0  0  0  0  0  0  0  0  0  0  0  0
   -3.2939    1.9104    0.0000 C   0  0  0  0  0  0  0  0  0  0  0  0
   -3.8698   -0.7145    0.0000 C   0  0  0  0  0  0  0  0  0  0  0  0
   -2.6323   -1.4290    0.0000 C   0  0  0  0  0  0  0  0  0  0  0  0
   -2.9925    2.6783    0.0000 C   0  0  0  0  0  0  0  0  0  0  0  0
   -4.2823   -1.4290    0.0000 C   0  0  0  0  0  0  0  0  0  0  0  0
   -3.0448   -2.1434    0.0000 C   0  0  0  0  0  0  0  0  0  0  0  0
   -3.8698   -2.1434    0.0000 C   0  0  0  0  0  0  0  0  0  0  0  0
  1  4  1  0  0  0  0
  1  9  1  0  0  0  0
  1 11  1  0  0  0  0
  2  5  1  0  0  0  0
  2 12  1  0  0  0  0
  3  6  1  0  0  0  0
  3 12  2  0  0  0  0
  4  7  1  0  0  0  0
  4  8  1  0  0  0  0
  5  6  2  0  0  0  0
  5  7  1  0  0  0  0
  6 10  1  0  0  0  0
  8 14  2  0  0  0  0
  8 15  1  0  0  0  0
  9 10  1  0  0  0  0
 11 13  1  0  0  0  0
 13 18  2  0  0  0  0
 13 19  1  0  0  0  0
 14 16  1  0  0  0  0
 15 17  2  0  0  0  0
 16 20  2  0  0  0  0
 17 20  1  0  0  0  0
 18 21  1  0  0  0  0
 19 22  2  0  0  0  0
 21 23  2  0  0  0  0
 22 23  1  0  0  0  0
M  END
> <PUBCHEM_COMPOUND_ID_TYPE>
0

> <PUBCHEM_TOTAL_CHARGE>
0

> <PUBCHEM_SUBSTANCE_ID>
310932695

> <PUBCHEM_SUBSTANCE_VERSION>
1

> <PUBCHEM_EXT_DATASOURCE_NAME>
4488

> <PUBCHEM_EXT_DATASOURCE_REGID>
SCHEMBL16110077

> <PUBCHEM_SUBSTANCE_COMMENT>
InChI=1S/C20H21N3/c1-3-7-16(8-4-1)14-23-12-11-18-19(22-15-21-18)13-20(23)17-9-5-2-6-10-17/h1-10,15,20H,11-14H2,(H,21,22)
InChIKey=PWQASZNYLZWASW-UHFFFAOYSA-N

> <PUBCHEM_SUBSTANCE_SYNONYM>
SCHEMBL16110077

> <PUBCHEM_XREF_EXT_ID>
SCHEMBL16110077

> <PUBCHEM_EXT_DATASOURCE_URL>
https://www.surechembl.org/

> <PUBCHEM_EXT_SUBSTANCE_URL>
https://www.surechembl.org/chemical/SCHEMBL16110077

> <PUBCHEM_CID_ASSOCIATIONS>
117601205  1

> <PUBCHEM_COORDINATE_TYPE>
1
3

$$$$
