310938434
  -OEChem-07211613022D

 34 39  0     1  0  0  0  0  0999 V2000
    0.6302    4.7772    0.0000 F   0  0  0  0  0  0  0  0  0  0  0  0
    3.6633   -1.1567    0.0000 O   0  0  0  0  0  0  0  0  0  0  0  0
    5.0223   -0.7152    0.0000 O   0  0  0  0  0  0  0  0  0  0  0  0
    2.3464    0.5840    0.0000 N   0  0  0  0  0  0  0  0  0  0  0  0
   -0.8123    5.2411    0.0000 N   0  0  0  0  0  0  0  0  0  0  0  0
   -0.6867    3.0364    0.0000 N   0  0  0  0  0  0  0  0  0  0  0  0
   -0.3896    1.6387    0.0000 N   0  0  0  0  0  0  0  0  0  0  0  0
    3.9604    0.2410    0.0000 N   0  0  0  0  0  0  0  0  0  0  0  0
   -2.1398    5.1016    0.0000 N   0  0  0  0  0  0  0  0  0  0  0  0
    0.6723    2.5948    0.0000 N   0  0  0  0  0  0  0  0  0  0  0  0
    1.5214    0.5840    0.0000 C   0  0  0  0  0  0  0  0  0  0  0  0
    2.6014   -0.2006    0.0000 C   0  0  0  0  0  0  0  0  0  0  0  0
    1.2665   -0.2006    0.0000 C   0  0  0  0  0  0  0  0  0  0  0  0
    1.9339   -0.6855    0.0000 C   0  0  0  0  0  0  0  0  0  0  0  0
   -0.9838    4.4341    0.0000 C   0  0  0  0  0  0  0  0  0  0  0  0
    3.4084   -0.3721    0.0000 C   0  0  3  0  0  0  0  0  0  0  0  0
   -0.4317    3.8210    0.0000 C   0  0  0  0  0  0  0  0  0  0  0  0
    0.9694    1.1971    0.0000 C   0  0  0  0  0  0  0  0  0  0  0  0
    0.1624    1.0256    0.0000 C   0  0  0  0  0  0  0  0  0  0  0  0
   -1.5267    5.6536    0.0000 C   0  0  0  0  0  0  0  0  0  0  0  0
    2.8985    1.1971    0.0000 C   0  0  0  0  0  0  0  0  0  0  0  0
    0.4595   -0.3721    0.0000 C   0  0  0  0  0  0  0  0  0  0  0  0
   -0.1347    2.4233    0.0000 C   0  0  0  0  0  0  0  0  0  0  0  0
    0.3752    3.9926    0.0000 C   0  0  0  0  0  0  0  0  0  0  0  0
   -0.0925    0.2410    0.0000 C   0  0  0  0  0  0  0  0  0  0  0  0
   -1.8043    4.3479    0.0000 C   0  0  0  0  0  0  0  0  0  0  0  0
    3.7054    1.0256    0.0000 C   0  0  0  0  0  0  0  0  0  0  0  0
   -0.0978    5.6536    0.0000 C   0  0  0  0  0  0  0  0  0  0  0  0
    0.9273    3.3795    0.0000 C   0  0  0  0  0  0  0  0  0  0  0  0
   -1.5267    6.4786    0.0000 C   0  0  0  0  0  0  0  0  0  0  0  0
   -0.0978    6.4786    0.0000 C   0  0  0  0  0  0  0  0  0  0  0  0
   -0.8123    6.8911    0.0000 C   0  0  0  0  0  0  0  0  0  0  0  0
    4.4703   -1.3283    0.0000 C   0  0  0  0  0  0  0  0  0  0  0  0
    4.7252   -2.1129    0.0000 C   0  0  0  0  0  0  0  0  0  0  0  0
  1 24  1  0  0  0  0
  2 16  1  0  0  0  0
  2 33  1  0  0  0  0
  3 33  2  0  0  0  0
  4 11  1  0  0  0  0
  4 12  1  0  0  0  0
  4 21  1  0  0  0  0
  5 15  1  0  0  0  0
  5 20  1  0  0  0  0
  5 28  1  0  0  0  0
  6 17  1  0  0  0  0
  6 23  2  0  0  0  0
  7 19  1  0  0  0  0
  7 23  1  0  0  0  0
  8 16  1  0  0  0  0
  8 27  1  0  0  0  0
  9 20  2  0  0  0  0
  9 26  1  0  0  0  0
 10 23  1  0  0  0  0
 10 29  2  0  0  0  0
 11 13  1  0  0  0  0
 11 18  2  0  0  0  0
 12 14  2  0  0  0  0
 12 16  1  0  0  0  0
 13 14  1  0  0  0  0
 13 22  2  0  0  0  0
 15 17  1  0  0  0  0
 15 26  2  0  0  0  0
 17 24  2  0  0  0  0
 18 19  1  0  0  0  0
 19 25  2  0  0  0  0
 20 30  1  0  0  0  0
 21 27  1  0  0  0  0
 22 25  1  0  0  0  0
 24 29  1  0  0  0  0
 28 31  2  0  0  0  0
 30 32  2  0  0  0  0
 31 32  1  0  0  0  0
 33 34  1  0  0  0  0
M  END
> <PUBCHEM_COMPOUND_ID_TYPE>
0

> <PUBCHEM_TOTAL_CHARGE>
0

> <PUBCHEM_SUBSTANCE_ID>
310938434

> <PUBCHEM_SUBSTANCE_VERSION>
1

> <PUBCHEM_EXT_DATASOURCE_NAME>
4488

> <PUBCHEM_EXT_DATASOURCE_REGID>
SCHEMBL16116329

> <PUBCHEM_SUBSTANCE_COMMENT>
InChI=1S/C24H20FN7O2/c1-14(33)34-23-19-10-15-5-6-16(11-18(15)31(19)9-7-26-23)29-24-28-12-17(25)22(30-24)20-13-27-21-4-2-3-8-32(20)21/h2-6,8,10-13,23,26H,7,9H2,1H3,(H,28,29,30)
InChIKey=VDRRFDOPMXHOTH-UHFFFAOYSA-N

> <PUBCHEM_SUBSTANCE_SYNONYM>
SCHEMBL16116329

> <PUBCHEM_XREF_EXT_ID>
SCHEMBL16116329

> <PUBCHEM_EXT_DATASOURCE_URL>
https://www.surechembl.org/

> <PUBCHEM_EXT_SUBSTANCE_URL>
https://www.surechembl.org/chemical/SCHEMBL16116329

> <PUBCHEM_CID_ASSOCIATIONS>
117605898  1

> <PUBCHEM_COORDINATE_TYPE>
1
3

$$$$
