310930907
  -OEChem-07211613022D

 18 20  0     1  0  0  0  0  0999 V2000
    0.0000   -2.1923    0.0000 Br  0  0  0  0  0  0  0  0  0  0  0  0
    3.4227   -3.0200    0.0000 O   0  0  0  0  0  0  0  0  0  0  0  0
    3.1766   -4.4741    0.0000 O   0  0  0  0  0  0  0  0  0  0  0  0
    2.1252   -2.5950    0.0000 C   0  0  0  0  0  0  0  0  0  0  0  0
    2.1252   -3.4675    0.0000 C   0  0  0  0  0  0  0  0  0  0  0  0
    2.9082   -2.3713    0.0000 C   0  0  3  0  0  0  0  0  0  0  0  0
    1.4093   -2.2147    0.0000 C   0  0  0  0  0  0  0  0  0  0  0  0
    2.9082   -3.6911    0.0000 C   0  0  0  0  0  0  0  0  0  0  0  0
    3.1766   -1.5883    0.0000 C   0  0  0  0  0  0  0  0  0  0  0  0
    0.7159   -2.5950    0.0000 C   0  0  0  0  0  0  0  0  0  0  0  0
    1.4093   -3.8477    0.0000 C   0  0  0  0  0  0  0  0  0  0  0  0
    0.7159   -3.4675    0.0000 C   0  0  0  0  0  0  0  0  0  0  0  0
    2.6174   -0.9620    0.0000 C   0  0  0  0  0  0  0  0  0  0  0  0
    3.9820   -1.4093    0.0000 C   0  0  0  0  0  0  0  0  0  0  0  0
    1.3870   -1.3870    0.0000 C   0  0  0  0  0  0  0  0  0  0  0  0
    2.8858   -0.1790    0.0000 C   0  0  0  0  0  0  0  0  0  0  0  0
    4.2280   -0.6264    0.0000 C   0  0  0  0  0  0  0  0  0  0  0  0
    3.6911    0.0000    0.0000 C   0  0  0  0  0  0  0  0  0  0  0  0
  1 10  1  0  0  0  0
  2  6  1  0  0  0  0
  2  8  1  0  0  0  0
  3  8  2  0  0  0  0
  4  5  2  0  0  0  0
  4  6  1  0  0  0  0
  4  7  1  0  0  0  0
  5  8  1  0  0  0  0
  5 11  1  0  0  0  0
  6  9  1  0  0  0  0
  7 10  2  0  0  0  0
  7 15  1  0  0  0  0
  9 13  2  0  0  0  0
  9 14  1  0  0  0  0
 10 12  1  0  0  0  0
 11 12  2  0  0  0  0
 13 16  1  0  0  0  0
 14 17  2  0  0  0  0
 16 18  2  0  0  0  0
 17 18  1  0  0  0  0
M  END
> <PUBCHEM_COMPOUND_ID_TYPE>
0

> <PUBCHEM_TOTAL_CHARGE>
0

> <PUBCHEM_SUBSTANCE_ID>
310930907

> <PUBCHEM_SUBSTANCE_VERSION>
1

> <PUBCHEM_EXT_DATASOURCE_NAME>
4488

> <PUBCHEM_EXT_DATASOURCE_REGID>
SCHEMBL16108205

> <PUBCHEM_SUBSTANCE_COMMENT>
InChI=1S/C15H11BrO2/c1-9-12(16)8-7-11-13(9)14(18-15(11)17)10-5-3-2-4-6-10/h2-8,14H,1H3
InChIKey=HVNIDPIYBLEJFU-UHFFFAOYSA-N

> <PUBCHEM_SUBSTANCE_SYNONYM>
SCHEMBL16108205

> <PUBCHEM_XREF_EXT_ID>
SCHEMBL16108205

> <PUBCHEM_EXT_DATASOURCE_URL>
https://www.surechembl.org/

> <PUBCHEM_EXT_SUBSTANCE_URL>
https://www.surechembl.org/chemical/SCHEMBL16108205

> <PUBCHEM_CID_ASSOCIATIONS>
117599874  1

> <PUBCHEM_COORDINATE_TYPE>
1
3

$$$$
