310931678
  -OEChem-07211613022D

 18 19  0     1  0  0  0  0  0999 V2000
    0.0000   -2.7710    0.0000 Br  0  0  0  0  0  0  0  0  0  0  0  0
    3.5469   -1.4409    0.0000 O   0  0  0  0  0  0  0  0  0  0  0  0
    4.3006   -1.9508    0.0000 O   0  0  0  0  0  0  0  0  0  0  0  0
    5.0100   -3.1922    0.0000 O   0  0  0  0  0  0  0  0  0  0  0  0
    2.2168   -1.4409    0.0000 N   0  0  0  0  0  0  0  0  0  0  0  0
    2.4607   -0.6651    0.0000 N   0  0  0  0  0  0  0  0  0  0  0  0
    2.8819   -2.7710    0.0000 C   0  0  3  0  0  0  0  0  0  0  0  0
    2.8819   -1.9508    0.0000 C   0  0  0  0  0  0  0  0  0  0  0  0
    2.1503   -3.1922    0.0000 C   0  0  0  0  0  0  0  0  0  0  0  0
    3.3031   -0.6651    0.0000 C   0  0  0  0  0  0  0  0  0  0  0  0
    3.5912   -3.1922    0.0000 C   0  0  0  0  0  0  0  0  0  0  0  0
    1.4409   -2.7710    0.0000 C   0  0  0  0  0  0  0  0  0  0  0  0
    2.1503   -4.0124    0.0000 C   0  0  0  0  0  0  0  0  0  0  0  0
    0.7315   -3.1922    0.0000 C   0  0  0  0  0  0  0  0  0  0  0  0
    4.3006   -2.7710    0.0000 C   0  0  0  0  0  0  0  0  0  0  0  0
    1.4409   -4.4336    0.0000 C   0  0  0  0  0  0  0  0  0  0  0  0
    0.7315   -4.0124    0.0000 C   0  0  0  0  0  0  0  0  0  0  0  0
    3.7907    0.0000    0.0000 C   0  0  0  0  0  0  0  0  0  0  0  0
  1 14  1  0  0  0  0
  2  8  1  0  0  0  0
  2 10  1  0  0  0  0
  3 15  2  0  0  0  0
  4 15  1  0  0  0  0
  5  6  1  0  0  0  0
  5  8  2  0  0  0  0
  6 10  2  0  0  0  0
  7  8  1  0  0  0  0
  7  9  1  0  0  0  0
  7 11  1  0  0  0  0
  9 12  1  0  0  0  0
  9 13  2  0  0  0  0
 10 18  1  0  0  0  0
 11 15  1  0  0  0  0
 12 14  2  0  0  0  0
 13 16  1  0  0  0  0
 14 17  1  0  0  0  0
 16 17  2  0  0  0  0
M  END
> <PUBCHEM_COMPOUND_ID_TYPE>
0

> <PUBCHEM_TOTAL_CHARGE>
0

> <PUBCHEM_SUBSTANCE_ID>
310931678

> <PUBCHEM_SUBSTANCE_VERSION>
1

> <PUBCHEM_EXT_DATASOURCE_NAME>
4488

> <PUBCHEM_EXT_DATASOURCE_REGID>
SCHEMBL16109004

> <PUBCHEM_SUBSTANCE_COMMENT>
InChI=1S/C12H11BrN2O3/c1-7-14-15-12(18-7)10(6-11(16)17)8-3-2-4-9(13)5-8/h2-5,10H,6H2,1H3,(H,16,17)
InChIKey=XOLPURQRBCKAEV-UHFFFAOYSA-N

> <PUBCHEM_SUBSTANCE_SYNONYM>
SCHEMBL16109004

> <PUBCHEM_XREF_EXT_ID>
SCHEMBL16109004

> <PUBCHEM_EXT_DATASOURCE_URL>
https://www.surechembl.org/

> <PUBCHEM_EXT_SUBSTANCE_URL>
https://www.surechembl.org/chemical/SCHEMBL16109004

> <PUBCHEM_CID_ASSOCIATIONS>
71683640  1

> <PUBCHEM_COORDINATE_TYPE>
1
3

$$$$
