310943619
  -OEChem-07211613022D

 38 42  0     1  0  0  0  0  0999 V2000
    5.3842    1.0385    0.0000 F   0  0  0  0  0  0  0  0  0  0  0  0
   -3.2335   -1.4510    0.0000 O   0  0  0  0  0  0  0  0  0  0  0  0
   -1.8046   -2.2907    0.0000 O   0  0  0  0  0  0  0  0  0  0  0  0
    1.7898    2.2612    0.0000 O   0  0  0  0  0  0  0  0  0  0  0  0
   -5.3989    2.2612    0.0000 O   0  0  0  0  0  0  0  0  0  0  0  0
   -3.2482    0.1989    0.0000 N   0  0  0  0  0  0  0  0  0  0  0  0
   -3.9553    1.4510    0.0000 N   0  0  0  0  0  0  0  0  0  0  0  0
    1.0680    1.0385    0.0000 N   0  0  0  0  0  0  0  0  0  0  0  0
    3.9405    0.1989    0.0000 N   0  0  0  0  0  0  0  0  0  0  0  0
   -1.7898    1.0385    0.0000 C   0  0  0  0  0  0  0  0  0  0  0  0
   -1.0828    1.4510    0.0000 C   0  0  0  0  0  0  0  0  0  0  0  0
   -2.5117   -0.2136    0.0000 C   0  0  0  0  0  0  0  0  0  0  0  0
   -3.2335    1.0385    0.0000 C   0  0  0  0  0  0  0  0  0  0  0  0
   -1.8046    0.1989    0.0000 C   0  0  0  0  0  0  0  0  0  0  0  0
   -2.5117    1.4510    0.0000 C   0  0  0  0  0  0  0  0  0  0  0  0
   -1.0828    2.2760    0.0000 C   0  0  0  0  0  0  0  0  0  0  0  0
   -2.5264   -1.0238    0.0000 C   0  0  3  0  0  0  0  0  0  0  0  0
   -0.3462    1.0385    0.0000 C   0  0  0  0  0  0  0  0  0  0  0  0
    0.3462    1.4657    0.0000 C   0  0  0  0  0  0  0  0  0  0  0  0
   -0.3756    2.6736    0.0000 C   0  0  0  0  0  0  0  0  0  0  0  0
    2.5117    1.0385    0.0000 C   0  0  0  0  0  0  0  0  0  0  0  0
    0.3462    2.2760    0.0000 C   0  0  0  0  0  0  0  0  0  0  0  0
    1.7898    1.4216    0.0000 C   0  0  0  0  0  0  0  0  0  0  0  0
    3.9553    1.0385    0.0000 C   0  0  0  0  0  0  0  0  0  0  0  0
    4.6771    1.4657    0.0000 C   0  0  0  0  0  0  0  0  0  0  0  0
    3.2335    1.4510    0.0000 C   0  0  0  0  0  0  0  0  0  0  0  0
   -1.8046   -1.4510    0.0000 C   0  0  0  0  0  0  0  0  0  0  0  0
   -3.9700    2.2760    0.0000 C   0  0  0  0  0  0  0  0  0  0  0  0
   -4.6624    1.0385    0.0000 C   0  0  0  0  0  0  0  0  0  0  0  0
   -1.8192    2.6736    0.0000 C   0  0  0  0  0  0  0  0  0  0  0  0
    2.5117    0.2136    0.0000 C   0  0  0  0  0  0  0  0  0  0  0  0
    3.2482   -0.1989    0.0000 C   0  0  0  0  0  0  0  0  0  0  0  0
   -3.2335   -2.2907    0.0000 C   0  0  0  0  0  0  0  0  0  0  0  0
   -4.6771    2.6884    0.0000 C   0  0  0  0  0  0  0  0  0  0  0  0
   -5.3989    1.4510    0.0000 C   0  0  0  0  0  0  0  0  0  0  0  0
   -2.5117   -2.6884    0.0000 C   0  0  0  0  0  0  0  0  0  0  0  0
    4.6771    2.2907    0.0000 C   0  0  0  0  0  0  0  0  0  0  0  0
    5.3989    1.8635    0.0000 C   0  0  0  0  0  0  0  0  0  0  0  0
  1 25  1  0  0  0  0
  2 17  1  0  0  0  0
  2 33  1  0  0  0  0
  3 27  1  0  0  0  0
  3 36  1  0  0  0  0
  4 23  2  0  0  0  0
  5 34  1  0  0  0  0
  5 35  1  0  0  0  0
  6 12  2  0  0  0  0
  6 13  1  0  0  0  0
  7 13  1  0  0  0  0
  7 28  1  0  0  0  0
  7 29  1  0  0  0  0
  8 19  1  0  0  0  0
  8 23  1  0  0  0  0
  9 24  1  0  0  0  0
  9 32  2  0  0  0  0
 10 11  1  0  0  0  0
 10 14  2  0  0  0  0
 10 15  1  0  0  0  0
 11 16  1  0  0  0  0
 11 18  2  0  0  0  0
 12 14  1  0  0  0  0
 12 17  1  0  0  0  0
 13 15  2  0  0  0  0
 16 20  2  0  0  0  0
 16 30  1  0  0  0  0
 17 27  1  0  0  0  0
 18 19  1  0  0  0  0
 19 22  2  0  0  0  0
 20 22  1  0  0  0  0
 21 23  1  0  0  0  0
 21 26  1  0  0  0  0
 21 31  2  0  0  0  0
 24 25  1  0  0  0  0
 24 26  2  0  0  0  0
 25 37  1  0  0  0  0
 25 38  1  0  0  0  0
 28 34  1  0  0  0  0
 29 35  1  0  0  0  0
 31 32  1  0  0  0  0
 33 36  1  0  0  0  0
M  END
> <PUBCHEM_COMPOUND_ID_TYPE>
0

> <PUBCHEM_TOTAL_CHARGE>
0

> <PUBCHEM_SUBSTANCE_ID>
310943619

> <PUBCHEM_SUBSTANCE_VERSION>
1

> <PUBCHEM_EXT_DATASOURCE_NAME>
4488

> <PUBCHEM_EXT_DATASOURCE_REGID>
SCHEMBL16121687

> <PUBCHEM_SUBSTANCE_COMMENT>
InChI=1S/C29H33FN4O4/c1-19-4-5-22(32-28(35)20-6-7-31-26(15-20)29(2,3)30)17-23(19)21-14-24(25-18-37-12-13-38-25)33-27(16-21)34-8-10-36-11-9-34/h4-7,14-17,25H,8-13,18H2,1-3H3,(H,32,35)
InChIKey=IGWCLHKLZSDPMB-UHFFFAOYSA-N

> <PUBCHEM_SUBSTANCE_SYNONYM>
SCHEMBL16121687

> <PUBCHEM_XREF_EXT_ID>
SCHEMBL16121687

> <PUBCHEM_EXT_DATASOURCE_URL>
https://www.surechembl.org/

> <PUBCHEM_EXT_SUBSTANCE_URL>
https://www.surechembl.org/chemical/SCHEMBL16121687

> <PUBCHEM_CID_ASSOCIATIONS>
117610010  1

> <PUBCHEM_COORDINATE_TYPE>
1
3

$$$$
