310930043
  -OEChem-07211613022D

 23 24  0     1  0  0  0  0  0999 V2000
    0.8250   -8.3418    0.0000 S   0  0  0  0  0  0  0  0  0  0  0  0
    0.8250   -7.5167    0.0000 O   0  0  0  0  0  0  0  0  0  0  0  0
    1.6500   -8.3418    0.0000 O   0  0  0  0  0  0  0  0  0  0  0  0
    0.0000   -8.3418    0.0000 O   0  0  0  0  0  0  0  0  0  0  0  0
    0.8250   -9.1668    0.0000 O   0  0  0  0  0  0  0  0  0  0  0  0
    2.2917   -5.8209    0.0000 N   0  0  3  0  0  0  0  0  0  0  0  0
    2.2459   -2.5209    0.0000 N   0  0  0  0  0  0  0  0  0  0  0  0
    1.5583   -2.1083    0.0000 N   0  0  0  0  0  0  0  0  0  0  0  0
    2.2000   -0.7792    0.0000 N   0  0  0  0  0  0  0  0  0  0  0  0
    0.8708   -0.7792    0.0000 N   0  0  0  0  0  0  0  0  0  0  0  0
    2.2917   -4.9959    0.0000 C   0  0  0  0  0  0  0  0  0  0  0  0
    2.2917   -3.3459    0.0000 C   0  0  0  0  0  0  0  0  0  0  0  0
    1.5583   -4.5834    0.0000 C   0  0  0  0  0  0  0  0  0  0  0  0
    2.9792   -4.5834    0.0000 C   0  0  0  0  0  0  0  0  0  0  0  0
    1.5583   -3.7584    0.0000 C   0  0  0  0  0  0  0  0  0  0  0  0
    2.9792   -3.7584    0.0000 C   0  0  0  0  0  0  0  0  0  0  0  0
    1.5583   -6.2792    0.0000 C   0  0  0  0  0  0  0  0  0  0  0  0
    1.5583   -1.2833    0.0000 C   0  0  0  0  0  0  0  0  0  0  0  0
    1.5583   -7.1042    0.0000 C   0  0  0  0  0  0  0  0  0  0  0  0
    2.9792   -6.2334    0.0000 C   0  0  0  0  0  0  0  0  0  0  0  0
    1.9250    0.0000    0.0000 C   0  0  0  0  0  0  0  0  0  0  0  0
    1.1000    0.0000    0.0000 C   0  0  0  0  0  0  0  0  0  0  0  0
    3.7126   -5.8209    0.0000 C   0  0  0  0  0  0  0  0  0  0  0  0
  1  2  1  0  0  0  0
  1  3  2  0  0  0  0
  1  4  2  0  0  0  0
  1  5  1  0  0  0  0
  2 19  1  0  0  0  0
  6 11  1  0  0  0  0
  6 17  1  0  0  0  0
  6 20  1  0  0  0  0
  7  8  2  0  0  0  0
  7 12  1  0  0  0  0
  8 18  1  0  0  0  0
  9 18  2  0  0  0  0
  9 21  1  0  0  0  0
 10 18  1  0  0  0  0
 10 22  1  0  0  0  0
 11 13  2  0  0  0  0
 11 14  1  0  0  0  0
 12 15  2  0  0  0  0
 12 16  1  0  0  0  0
 13 15  1  0  0  0  0
 14 16  2  0  0  0  0
 17 19  1  0  0  0  0
 20 23  1  0  0  0  0
 21 22  2  0  0  0  0
M  END
> <PUBCHEM_COMPOUND_ID_TYPE>
0

> <PUBCHEM_TOTAL_CHARGE>
0

> <PUBCHEM_SUBSTANCE_ID>
310930043

> <PUBCHEM_SUBSTANCE_VERSION>
1

> <PUBCHEM_EXT_DATASOURCE_NAME>
4488

> <PUBCHEM_EXT_DATASOURCE_REGID>
SCHEMBL16107283

> <PUBCHEM_SUBSTANCE_COMMENT>
InChI=1S/C13H17N5O4S/c1-2-18(9-10-22-23(19,20)21)12-5-3-11(4-6-12)16-17-13-14-7-8-15-13/h3-8H,2,9-10H2,1H3,(H,14,15)(H,19,20,21)/b17-16+
InChIKey=AMTANDZABUWWRV-WUKNDPDISA-N

> <PUBCHEM_SUBSTANCE_SYNONYM>
SCHEMBL16107283

> <PUBCHEM_XREF_EXT_ID>
SCHEMBL16107283

> <PUBCHEM_EXT_DATASOURCE_URL>
https://www.surechembl.org/

> <PUBCHEM_EXT_SUBSTANCE_URL>
https://www.surechembl.org/chemical/SCHEMBL16107283

> <PUBCHEM_CID_ASSOCIATIONS>
89561180  1

> <PUBCHEM_COORDINATE_TYPE>
1
3

$$$$
