310940496
  -OEChem-07211613022D

 27 30  0     1  0  0  0  0  0999 V2000
    0.3582    0.9619    0.0000 F   0  0  0  0  0  0  0  0  0  0  0  0
   -0.7265    1.2689    0.0000 F   0  0  0  0  0  0  0  0  0  0  0  0
   -0.4195    2.3537    0.0000 F   0  0  0  0  0  0  0  0  0  0  0  0
    2.0160   -2.1081    0.0000 O   0  0  0  0  0  0  0  0  0  0  0  0
   -0.8289   -2.0671    0.0000 N   0  0  0  0  0  0  0  0  0  0  0  0
    1.3201   -0.8392    0.0000 N   0  0  0  0  0  0  0  0  0  0  0  0
   -0.1125   -1.6578    0.0000 N   0  0  0  0  0  0  0  0  0  0  0  0
   -1.6271   -3.1723    0.0000 N   0  0  0  0  0  0  0  0  0  0  0  0
    1.4020    1.6988    0.0000 C   0  0  0  0  0  0  0  0  0  0  0  0
    0.6447    2.1081    0.0000 C   0  0  0  0  0  0  0  0  0  0  0  0
    1.3610    0.8596    0.0000 C   0  0  0  0  0  0  0  0  0  0  0  0
    0.6038   -2.0876    0.0000 C   0  0  0  0  0  0  0  0  0  0  0  0
    1.2792   -1.6782    0.0000 C   0  0  0  0  0  0  0  0  0  0  0  0
   -0.0512    1.6782    0.0000 C   0  0  0  0  0  0  0  0  0  0  0  0
   -0.8289   -2.8858    0.0000 C   0  0  3  0  0  0  0  0  0  0  0  0
    2.0569    0.4093    0.0000 C   0  0  0  0  0  0  0  0  0  0  0  0
    0.6242    0.4298    0.0000 C   0  0  0  0  0  0  0  0  0  0  0  0
    0.5833   -2.9472    0.0000 C   0  0  0  0  0  0  0  0  0  0  0  0
    2.0774   -0.3888    0.0000 C   0  0  0  0  0  0  0  0  0  0  0  0
    0.6242   -0.3888    0.0000 C   0  0  0  0  0  0  0  0  0  0  0  0
   -0.1125   -3.3361    0.0000 C   0  0  0  0  0  0  0  0  0  0  0  0
    2.0978    2.1081    0.0000 C   0  0  0  0  0  0  0  0  0  0  0  0
    0.6652    2.8858    0.0000 C   0  0  0  0  0  0  0  0  0  0  0  0
   -1.5861   -1.8011    0.0000 C   0  0  0  0  0  0  0  0  0  0  0  0
   -2.0978   -2.4765    0.0000 C   0  0  0  0  0  0  0  0  0  0  0  0
    2.0978    2.9268    0.0000 C   0  0  0  0  0  0  0  0  0  0  0  0
    1.4225    3.3361    0.0000 C   0  0  0  0  0  0  0  0  0  0  0  0
  1 14  1  0  0  0  0
  2 14  1  0  0  0  0
  3 14  1  0  0  0  0
  4 13  2  0  0  0  0
  5  7  1  0  0  0  0
  5 15  1  0  0  0  0
  5 24  1  0  0  0  0
  6 13  1  0  0  0  0
  6 19  1  0  0  0  0
  6 20  1  0  0  0  0
  7 12  2  0  0  0  0
  8 15  1  0  0  0  0
  8 25  1  0  0  0  0
  9 10  2  0  0  0  0
  9 11  1  0  0  0  0
  9 22  1  0  0  0  0
 10 14  1  0  0  0  0
 10 23  1  0  0  0  0
 11 16  1  0  0  0  0
 11 17  1  0  0  0  0
 12 13  1  0  0  0  0
 12 18  1  0  0  0  0
 15 21  1  0  0  0  0
 16 19  1  0  0  0  0
 17 20  1  0  0  0  0
 18 21  2  0  0  0  0
 22 26  2  0  0  0  0
 23 27  2  0  0  0  0
 24 25  2  0  0  0  0
 26 27  1  0  0  0  0
M  END
> <PUBCHEM_COMPOUND_ID_TYPE>
0

> <PUBCHEM_TOTAL_CHARGE>
0

> <PUBCHEM_SUBSTANCE_ID>
310940496

> <PUBCHEM_SUBSTANCE_VERSION>
1

> <PUBCHEM_EXT_DATASOURCE_NAME>
4488

> <PUBCHEM_EXT_DATASOURCE_REGID>
SCHEMBL16118450

> <PUBCHEM_SUBSTANCE_COMMENT>
InChI=1S/C19H19F3N4O/c20-19(21,22)15-4-2-1-3-14(15)13-7-10-25(11-8-13)18(27)16-5-6-17-23-9-12-26(17)24-16/h1-6,9,12-13,17,23H,7-8,10-11H2
InChIKey=UFDNADRSQATLKC-UHFFFAOYSA-N

> <PUBCHEM_SUBSTANCE_SYNONYM>
SCHEMBL16118450

> <PUBCHEM_XREF_EXT_ID>
SCHEMBL16118450

> <PUBCHEM_EXT_DATASOURCE_URL>
https://www.surechembl.org/

> <PUBCHEM_EXT_SUBSTANCE_URL>
https://www.surechembl.org/chemical/SCHEMBL16118450

> <PUBCHEM_CID_ASSOCIATIONS>
117607511  1

> <PUBCHEM_COORDINATE_TYPE>
1
3

$$$$
