310932146
  -OEChem-07211613022D

 25 27  0     1  0  0  0  0  0999 V2000
    3.2999    0.0000    0.0000 O   0  0  0  0  0  0  0  0  0  0  0  0
    4.4161   -1.9654    0.0000 O   0  0  0  0  0  0  0  0  0  0  0  0
    5.1440   -0.7279    0.0000 O   0  0  0  0  0  0  0  0  0  0  0  0
    0.0000   -2.3779    0.0000 O   0  0  0  0  0  0  0  0  0  0  0  0
    3.7124   -0.7279    0.0000 C   0  0  3  0  0  0  0  0  0  0  0  0
    2.8875   -0.7279    0.0000 C   0  0  3  0  0  0  0  0  0  0  0  0
    3.4941   -1.5287    0.0000 C   0  0  0  0  0  0  0  0  0  0  0  0
    4.4161   -1.1404    0.0000 C   0  0  0  0  0  0  0  0  0  0  0  0
    2.1595   -1.1404    0.0000 C   0  0  0  0  0  0  0  0  0  0  0  0
    4.0764   -2.1110    0.0000 C   0  0  0  0  0  0  0  0  0  0  0  0
    2.6933   -1.7470    0.0000 C   0  0  0  0  0  0  0  0  0  0  0  0
    2.1595   -1.9654    0.0000 C   0  0  0  0  0  0  0  0  0  0  0  0
    1.4316   -0.7279    0.0000 C   0  0  0  0  0  0  0  0  0  0  0  0
    3.8580   -2.9117    0.0000 C   0  0  0  0  0  0  0  0  0  0  0  0
    2.4749   -2.5477    0.0000 C   0  0  0  0  0  0  0  0  0  0  0  0
    1.4316   -2.3779    0.0000 C   0  0  0  0  0  0  0  0  0  0  0  0
    0.7279   -1.1404    0.0000 C   0  0  0  0  0  0  0  0  0  0  0  0
    0.7279   -1.9654    0.0000 C   0  0  0  0  0  0  0  0  0  0  0  0
    5.1440   -2.3779    0.0000 C   0  0  0  0  0  0  0  0  0  0  0  0
    3.0573   -3.1301    0.0000 C   0  0  0  0  0  0  0  0  0  0  0  0
    5.1440   -3.2029    0.0000 C   0  0  0  0  0  0  0  0  0  0  0  0
    5.8477   -3.6154    0.0000 C   0  0  0  0  0  0  0  0  0  0  0  0
    0.0000   -3.2029    0.0000 C   0  0  0  0  0  0  0  0  0  0  0  0
    5.8719   -4.4403    0.0000 C   0  0  0  0  0  0  0  0  0  0  0  0
    6.5756   -4.8529    0.0000 C   0  0  0  0  0  0  0  0  0  0  0  0
  1  5  1  0  0  0  0
  1  6  1  0  0  0  0
  2  8  1  0  0  0  0
  2 19  1  0  0  0  0
  3  8  2  0  0  0  0
  4 18  1  0  0  0  0
  4 23  1  0  0  0  0
  5  6  1  0  0  0  0
  5  7  1  0  0  0  0
  5  8  1  0  0  0  0
  6  9  1  0  0  0  0
  7 10  2  0  0  0  0
  7 11  1  0  0  0  0
  9 12  2  0  0  0  0
  9 13  1  0  0  0  0
 10 14  1  0  0  0  0
 11 15  2  0  0  0  0
 12 16  1  0  0  0  0
 13 17  2  0  0  0  0
 14 20  2  0  0  0  0
 15 20  1  0  0  0  0
 16 18  2  0  0  0  0
 17 18  1  0  0  0  0
 19 21  1  0  0  0  0
 21 22  1  0  0  0  0
 22 24  1  0  0  0  0
 24 25  1  0  0  0  0
M  END
> <PUBCHEM_COMPOUND_ID_TYPE>
0

> <PUBCHEM_TOTAL_CHARGE>
0

> <PUBCHEM_SUBSTANCE_ID>
310932146

> <PUBCHEM_SUBSTANCE_VERSION>
1

> <PUBCHEM_EXT_DATASOURCE_NAME>
4488

> <PUBCHEM_EXT_DATASOURCE_REGID>
SCHEMBL16109499

> <PUBCHEM_SUBSTANCE_COMMENT>
InChI=1S/C21H24O4/c1-3-4-8-15-24-20(22)21(17-9-6-5-7-10-17)19(25-21)16-11-13-18(23-2)14-12-16/h5-7,9-14,19H,3-4,8,15H2,1-2H3
InChIKey=XFFPWFGQUINIIZ-UHFFFAOYSA-N

> <PUBCHEM_SUBSTANCE_SYNONYM>
SCHEMBL16109499

> <PUBCHEM_XREF_EXT_ID>
SCHEMBL16109499

> <PUBCHEM_EXT_DATASOURCE_URL>
https://www.surechembl.org/

> <PUBCHEM_EXT_SUBSTANCE_URL>
https://www.surechembl.org/chemical/SCHEMBL16109499

> <PUBCHEM_CID_ASSOCIATIONS>
117600753  1

> <PUBCHEM_COORDINATE_TYPE>
1
3

$$$$
