310935130
  -OEChem-07211613022D

 39 44  0     1  0  0  0  0  0999 V2000
    1.3751  -11.0006    0.0000 F   0  0  0  0  0  0  0  0  0  0  0  0
    3.5202   -5.7203    0.0000 O   0  0  0  0  0  0  0  0  0  0  0  0
    0.7150   -3.2452    0.0000 N   0  0  3  0  0  0  0  0  0  0  0  0
    0.0000   -2.0351    0.0000 N   0  0  0  0  0  0  0  0  0  0  0  0
    0.7150   -0.8251    0.0000 N   0  0  0  0  0  0  0  0  0  0  0  0
    2.8052   -6.9304    0.0000 N   0  0  0  0  0  0  0  0  0  0  0  0
    4.2352   -3.6852    0.0000 N   0  0  0  0  0  0  0  0  0  0  0  0
    4.8952   -3.2452    0.0000 N   0  0  0  0  0  0  0  0  0  0  0  0
    2.8052   -9.3505    0.0000 N   0  0  0  0  0  0  0  0  0  0  0  0
    1.4301   -2.0351    0.0000 C   0  0  0  0  0  0  0  0  0  0  0  0
    0.7150   -2.4751    0.0000 C   0  0  0  0  0  0  0  0  0  0  0  0
    1.4301   -1.2101    0.0000 C   0  0  0  0  0  0  0  0  0  0  0  0
    2.0901   -0.8251    0.0000 C   0  0  0  0  0  0  0  0  0  0  0  0
    1.4301   -4.5102    0.0000 C   0  0  0  0  0  0  0  0  0  0  0  0
    2.0901   -2.4751    0.0000 C   0  0  0  0  0  0  0  0  0  0  0  0
    2.8052   -2.0351    0.0000 C   0  0  0  0  0  0  0  0  0  0  0  0
    0.7150   -4.8952    0.0000 C   0  0  0  0  0  0  0  0  0  0  0  0
    1.4301   -3.6852    0.0000 C   0  0  0  0  0  0  0  0  0  0  0  0
    2.8052   -1.2101    0.0000 C   0  0  0  0  0  0  0  0  0  0  0  0
    0.0000   -3.6852    0.0000 C   0  0  0  0  0  0  0  0  0  0  0  0
    2.0901   -5.7203    0.0000 C   0  0  0  0  0  0  0  0  0  0  0  0
    2.0901   -4.8952    0.0000 C   0  0  0  0  0  0  0  0  0  0  0  0
    3.5202   -2.4751    0.0000 C   0  0  0  0  0  0  0  0  0  0  0  0
    0.0000   -4.5102    0.0000 C   0  0  0  0  0  0  0  0  0  0  0  0
    0.0000   -1.2101    0.0000 C   0  0  0  0  0  0  0  0  0  0  0  0
    0.7150   -5.7203    0.0000 C   0  0  0  0  0  0  0  0  0  0  0  0
    2.8052   -6.1053    0.0000 C   0  0  0  0  0  0  0  0  0  0  0  0
    1.3751   -6.1053    0.0000 C   0  0  0  0  0  0  0  0  0  0  0  0
    2.0901    0.0000    0.0000 C   0  0  0  0  0  0  0  0  0  0  0  0
    3.5202   -3.3002    0.0000 C   0  0  0  0  0  0  0  0  0  0  0  0
    4.1802   -2.0351    0.0000 C   0  0  0  0  0  0  0  0  0  0  0  0
    3.5202   -7.3154    0.0000 C   0  0  0  0  0  0  0  0  0  0  0  0
    2.0901   -7.3154    0.0000 C   0  0  0  0  0  0  0  0  0  0  0  0
    4.9502   -2.4201    0.0000 C   0  0  0  0  0  0  0  0  0  0  0  0
    2.8052   -8.5255    0.0000 C   0  0  0  0  0  0  0  0  0  0  0  0
    3.5202   -8.1404    0.0000 C   0  0  0  0  0  0  0  0  0  0  0  0
    2.0901   -8.1404    0.0000 C   0  0  0  0  0  0  0  0  0  0  0  0
    2.0901   -9.7905    0.0000 C   0  0  0  0  0  0  0  0  0  0  0  0
    2.0901  -10.6155    0.0000 C   0  0  0  0  0  0  0  0  0  0  0  0
  1 39  1  0  0  0  0
  2 27  2  0  0  0  0
  3 11  1  0  0  0  0
  3 18  1  0  0  0  0
  3 20  1  0  0  0  0
  4 11  1  0  0  0  0
  4 25  2  0  0  0  0
  5 12  2  0  0  0  0
  5 25  1  0  0  0  0
  6 27  1  0  0  0  0
  6 32  1  0  0  0  0
  6 33  1  0  0  0  0
  7  8  2  0  0  0  0
  7 30  1  0  0  0  0
  8 34  1  0  0  0  0
  9 35  1  0  0  0  0
  9 38  1  0  0  0  0
 10 11  2  0  0  0  0
 10 12  1  0  0  0  0
 10 15  1  0  0  0  0
 12 13  1  0  0  0  0
 13 19  2  0  0  0  0
 13 29  1  0  0  0  0
 14 17  2  0  0  0  0
 14 18  1  0  0  0  0
 14 22  1  0  0  0  0
 15 16  2  0  0  0  0
 16 19  1  0  0  0  0
 16 23  1  0  0  0  0
 17 24  1  0  0  0  0
 17 26  1  0  0  0  0
 20 24  1  0  0  0  0
 21 22  2  0  0  0  0
 21 27  1  0  0  0  0
 21 28  1  0  0  0  0
 23 30  2  0  0  0  0
 23 31  1  0  0  0  0
 26 28  2  0  0  0  0
 31 34  2  0  0  0  0
 32 36  1  0  0  0  0
 33 37  1  0  0  0  0
 35 36  1  0  0  0  0
 35 37  1  0  0  0  0
 38 39  1  0  0  0  0
M  END
> <PUBCHEM_COMPOUND_ID_TYPE>
0

> <PUBCHEM_TOTAL_CHARGE>
0

> <PUBCHEM_SUBSTANCE_ID>
310935130

> <PUBCHEM_SUBSTANCE_VERSION>
1

> <PUBCHEM_EXT_DATASOURCE_NAME>
4488

> <PUBCHEM_EXT_DATASOURCE_REGID>
SCHEMBL16112657

> <PUBCHEM_SUBSTANCE_COMMENT>
InChI=1S/C30H32FN7O/c1-20-14-24(23-4-9-35-36-17-23)16-27-28(20)33-19-34-29(27)38-11-5-21-2-3-22(15-25(21)18-38)30(39)37-12-6-26(7-13-37)32-10-8-31/h2-4,9,14-17,19,26,32H,5-8,10-13,18H2,1H3
InChIKey=SVOUWQQADAWYBV-UHFFFAOYSA-N

> <PUBCHEM_SUBSTANCE_SYNONYM>
SCHEMBL16112657

> <PUBCHEM_XREF_EXT_ID>
SCHEMBL16112657

> <PUBCHEM_EXT_DATASOURCE_URL>
https://www.surechembl.org/

> <PUBCHEM_EXT_SUBSTANCE_URL>
https://www.surechembl.org/chemical/SCHEMBL16112657

> <PUBCHEM_CID_ASSOCIATIONS>
117603218  1

> <PUBCHEM_COORDINATE_TYPE>
1
3

$$$$
