310942003
  -OEChem-07211613022D

 29 30  0     1  0  0  0  0  0999 V2000
   -1.6725   -0.8327    0.0000 O   0  0  0  0  0  0  0  0  0  0  0  0
    3.6740    1.7985    0.0000 O   0  0  0  0  0  0  0  0  0  0  0  0
    3.8699    0.3849    0.0000 O   0  0  0  0  0  0  0  0  0  0  0  0
    1.3086   -2.3023    0.0000 N   0  0  0  0  0  0  0  0  0  0  0  0
    1.7985   -1.6445    0.0000 N   0  0  0  0  0  0  0  0  0  0  0  0
    0.9307    0.3989    0.0000 N   0  0  3  0  0  0  0  0  0  0  0  0
    2.5543    0.8188    0.0000 N   0  0  0  0  0  0  0  0  0  0  0  0
    0.4969   -1.2247    0.0000 C   0  0  0  0  0  0  0  0  0  0  0  0
    0.4828   -2.0224    0.0000 C   0  0  0  0  0  0  0  0  0  0  0  0
    1.2946   -0.9727    0.0000 C   0  0  0  0  0  0  0  0  0  0  0  0
   -0.2449   -0.8327    0.0000 C   0  0  0  0  0  0  0  0  0  0  0  0
   -0.2169   -2.4423    0.0000 C   0  0  0  0  0  0  0  0  0  0  0  0
   -0.9587   -1.2247    0.0000 C   0  0  0  0  0  0  0  0  0  0  0  0
    1.5046   -0.1749    0.0000 C   0  0  0  0  0  0  0  0  0  0  0  0
   -0.9587   -2.0224    0.0000 C   0  0  0  0  0  0  0  0  0  0  0  0
    1.5745   -3.1001    0.0000 C   0  0  0  0  0  0  0  0  0  0  0  0
    1.1267    1.1967    0.0000 C   0  0  0  0  0  0  0  0  0  0  0  0
    3.3520    1.0147    0.0000 C   0  0  0  0  0  0  0  0  0  0  0  0
    1.9385    1.4066    0.0000 C   0  0  0  0  0  0  0  0  0  0  0  0
   -2.3863   -1.2107    0.0000 C   0  0  0  0  0  0  0  0  0  0  0  0
    3.1561    2.4703    0.0000 C   0  0  0  0  0  0  0  0  0  0  0  0
    0.0910    0.1610    0.0000 C   0  0  0  0  0  0  0  0  0  0  0  0
   -3.1281   -0.8188    0.0000 C   0  0  0  0  0  0  0  0  0  0  0  0
    2.3303    0.0210    0.0000 C   0  0  0  0  0  0  0  0  0  0  0  0
    3.7159    2.9741    0.0000 C   0  0  0  0  0  0  0  0  0  0  0  0
    2.5543    1.9665    0.0000 C   0  0  0  0  0  0  0  0  0  0  0  0
    2.6243    3.1001    0.0000 C   0  0  0  0  0  0  0  0  0  0  0  0
   -3.1281    0.0350    0.0000 C   0  0  0  0  0  0  0  0  0  0  0  0
   -3.8699   -1.2247    0.0000 C   0  0  0  0  0  0  0  0  0  0  0  0
  1 13  1  0  0  0  0
  1 20  1  0  0  0  0
  2 18  1  0  0  0  0
  2 21  1  0  0  0  0
  3 18  2  0  0  0  0
  4  5  1  0  0  0  0
  4  9  1  0  0  0  0
  4 16  1  0  0  0  0
  5 10  2  0  0  0  0
  6 14  1  0  0  0  0
  6 17  1  0  0  0  0
  6 22  1  0  0  0  0
  7 18  1  0  0  0  0
  7 19  1  0  0  0  0
  7 24  1  0  0  0  0
  8  9  1  0  0  0  0
  8 10  1  0  0  0  0
  8 11  2  0  0  0  0
  9 12  2  0  0  0  0
 10 14  1  0  0  0  0
 11 13  1  0  0  0  0
 12 15  1  0  0  0  0
 13 15  2  0  0  0  0
 17 19  1  0  0  0  0
 20 23  1  0  0  0  0
 21 25  1  0  0  0  0
 21 26  1  0  0  0  0
 21 27  1  0  0  0  0
 23 28  1  0  0  0  0
 23 29  1  0  0  0  0
M  END
> <PUBCHEM_COMPOUND_ID_TYPE>
0

> <PUBCHEM_TOTAL_CHARGE>
0

> <PUBCHEM_SUBSTANCE_ID>
310942003

> <PUBCHEM_SUBSTANCE_VERSION>
1

> <PUBCHEM_EXT_DATASOURCE_NAME>
4488

> <PUBCHEM_EXT_DATASOURCE_REGID>
SCHEMBL16120037

> <PUBCHEM_SUBSTANCE_COMMENT>
InChI=1S/C22H36N4O3/c1-16(2)15-28-17-9-10-20-18(13-17)19(23-26(20)8)14-24(6)11-12-25(7)21(27)29-22(3,4)5/h9-10,13,16H,11-12,14-15H2,1-8H3
InChIKey=HFTLZNNXISAPHD-UHFFFAOYSA-N

> <PUBCHEM_SUBSTANCE_SYNONYM>
SCHEMBL16120037

> <PUBCHEM_XREF_EXT_ID>
SCHEMBL16120037

> <PUBCHEM_EXT_DATASOURCE_URL>
https://www.surechembl.org/

> <PUBCHEM_EXT_SUBSTANCE_URL>
https://www.surechembl.org/chemical/SCHEMBL16120037

> <PUBCHEM_CID_ASSOCIATIONS>
117608695  1

> <PUBCHEM_COORDINATE_TYPE>
1
3

$$$$
