310939504
  -OEChem-07211613022D

 24 29  0     1  0  0  0  0  0999 V2000
    1.3810    2.0932    0.0000 O   0  0  0  0  0  0  0  0  0  0  0  0
    0.7963   -0.3452    0.0000 O   0  0  0  0  0  0  0  0  0  0  0  0
    0.3000    1.6689    0.0000 O   0  0  0  0  0  0  0  0  0  0  0  0
   -2.4448    0.0988    0.0000 O   0  0  0  0  0  0  0  0  0  0  0  0
   -0.3014    2.9863    0.0000 O   0  0  0  0  0  0  0  0  0  0  0  0
    2.3752   -1.0597    0.0000 O   0  0  0  0  0  0  0  0  0  0  0  0
   -0.6033   -0.6157    0.0000 O   0  0  0  0  0  0  0  0  0  0  0  0
    1.3795    0.6658    0.0000 C   0  0  3  0  0  0  0  0  0  0  0  0
   -1.0158    0.9238    0.0000 C   0  0  3  0  0  0  0  0  0  0  0  0
   -1.0158    1.7488    0.0000 C   0  0  3  0  0  0  0  0  0  0  0  0
    0.5828    0.4517    0.0000 C   0  0  3  0  0  0  0  0  0  0  0  0
   -1.7303    0.5113    0.0000 C   0  0  3  0  0  0  0  0  0  0  0  0
    0.9965    1.1654    0.0000 C   0  0  3  0  0  0  0  0  0  0  0  0
   -1.7303    2.1613    0.0000 C   0  0  3  0  0  0  0  0  0  0  0  0
    2.1763    0.4517    0.0000 C   0  0  3  0  0  0  0  0  0  0  0  0
    1.7932    1.3795    0.0000 C   0  0  3  0  0  0  0  0  0  0  0  0
   -2.4448    0.9238    0.0000 C   0  0  3  0  0  0  0  0  0  0  0  0
   -2.4448    1.7488    0.0000 C   0  0  3  0  0  0  0  0  0  0  0  0
   -1.5077    1.3422    0.0000 C   0  0  0  0  0  0  0  0  0  0  0  0
   -0.3014    2.1613    0.0000 C   0  0  0  0  0  0  0  0  0  0  0  0
   -1.0158    0.0988    0.0000 C   0  0  0  0  0  0  0  0  0  0  0  0
    2.5899    1.1654    0.0000 C   0  0  0  0  0  0  0  0  0  0  0  0
    1.9627   -0.3452    0.0000 C   0  0  0  0  0  0  0  0  0  0  0  0
   -2.6583    2.5457    0.0000 C   0  0  0  0  0  0  0  0  0  0  0  0
  1  8  1  0  0  0  0
  1 16  1  0  0  0  0
  2 11  1  0  0  0  0
  2 23  1  0  0  0  0
  3 13  1  0  0  0  0
  3 20  1  0  0  0  0
  4 17  1  0  0  0  0
  4 21  1  0  0  0  0
  5 20  2  0  0  0  0
  6 23  2  0  0  0  0
  7 21  2  0  0  0  0
  8 11  1  0  0  0  0
  8 15  1  0  0  0  0
  9 10  1  0  0  0  0
  9 12  1  0  0  0  0
  9 21  1  0  0  0  0
 10 14  1  0  0  0  0
 10 20  1  0  0  0  0
 11 13  1  0  0  0  0
 12 17  1  0  0  0  0
 12 19  1  0  0  0  0
 13 16  1  0  0  0  0
 14 18  1  0  0  0  0
 14 19  1  0  0  0  0
 15 22  1  0  0  0  0
 15 23  1  0  0  0  0
 16 22  1  0  0  0  0
 17 18  1  0  0  0  0
 18 24  1  0  0  0  0
M  END
> <PUBCHEM_COMPOUND_ID_TYPE>
0

> <PUBCHEM_TOTAL_CHARGE>
0

> <PUBCHEM_SUBSTANCE_ID>
310939504

> <PUBCHEM_SUBSTANCE_VERSION>
1

> <PUBCHEM_EXT_DATASOURCE_NAME>
4488

> <PUBCHEM_EXT_DATASOURCE_REGID>
SCHEMBL16117433

> <PUBCHEM_SUBSTANCE_COMMENT>
InChI=1S/C17H18O7/c1-4-5-2-6-10(17(20)22-11(4)6)9(5)16(19)23-13-8-3-7-12(21-8)14(13)24-15(7)18/h4-14H,2-3H2,1H3
InChIKey=FPZYGFBNXLBCKY-UHFFFAOYSA-N

> <PUBCHEM_SUBSTANCE_SYNONYM>
SCHEMBL16117433

> <PUBCHEM_XREF_EXT_ID>
SCHEMBL16117433

> <PUBCHEM_EXT_DATASOURCE_URL>
https://www.surechembl.org/

> <PUBCHEM_EXT_SUBSTANCE_URL>
https://www.surechembl.org/chemical/SCHEMBL16117433

> <PUBCHEM_CID_ASSOCIATIONS>
117606805  1

> <PUBCHEM_COORDINATE_TYPE>
1
3

$$$$
