310945863
  -OEChem-07211613022D

 41 43  0     1  0  0  0  0  0999 V2000
    5.7631    0.6825    0.0000 O   0  0  0  0  0  0  0  0  0  0  0  0
    4.6408   -1.2891    0.0000 O   0  0  0  0  0  0  0  0  0  0  0  0
    2.4872    0.7886    0.0000 O   0  0  0  0  0  0  0  0  0  0  0  0
    0.3488   -1.2891    0.0000 O   0  0  0  0  0  0  0  0  0  0  0  0
    4.6408   -2.9422    0.0000 O   0  0  0  0  0  0  0  0  0  0  0  0
   -1.8048    0.7886    0.0000 O   0  0  0  0  0  0  0  0  0  0  0  0
   -3.2304   -0.0455    0.0000 O   0  0  0  0  0  0  0  0  0  0  0  0
   -5.3688   -0.4550    0.0000 O   0  0  0  0  0  0  0  0  0  0  0  0
    3.2152   -0.4550    0.0000 N   0  0  0  0  0  0  0  0  0  0  0  0
    1.0616   -0.0303    0.0000 N   0  0  0  0  0  0  0  0  0  0  0  0
   -1.0768   -0.4550    0.0000 N   0  0  0  0  0  0  0  0  0  0  0  0
    5.3536   -0.0152    0.0000 C   0  0  3  0  0  0  0  0  0  0  0  0
    4.6408   -0.4247    0.0000 C   0  0  0  0  0  0  0  0  0  0  0  0
    4.9592    0.6825    0.0000 C   0  0  0  0  0  0  0  0  0  0  0  0
    3.9129   -0.0303    0.0000 C   0  0  3  0  0  0  0  0  0  0  0  0
    6.0815   -0.4550    0.0000 C   0  0  0  0  0  0  0  0  0  0  0  0
    3.9280    1.3043    0.0000 C   0  0  0  0  0  0  0  0  0  0  0  0
    2.4872   -0.0455    0.0000 C   0  0  0  0  0  0  0  0  0  0  0  0
    1.7896   -0.4398    0.0000 C   0  0  3  0  0  0  0  0  0  0  0  0
    3.2000    1.7289    0.0000 C   0  0  0  0  0  0  0  0  0  0  0  0
    1.7896   -1.2740    0.0000 C   0  0  0  0  0  0  0  0  0  0  0  0
    2.5024   -1.6834    0.0000 C   0  0  0  0  0  0  0  0  0  0  0  0
    0.3488   -0.4247    0.0000 C   0  0  0  0  0  0  0  0  0  0  0  0
    2.5175    1.3043    0.0000 C   0  0  0  0  0  0  0  0  0  0  0  0
    3.2000    2.5479    0.0000 C   0  0  0  0  0  0  0  0  0  0  0  0
   -0.3791   -0.0303    0.0000 C   0  0  3  0  0  0  0  0  0  0  0  0
    3.2000   -1.2891    0.0000 C   0  0  0  0  0  0  0  0  0  0  0  0
    2.5024   -2.5175    0.0000 C   0  0  0  0  0  0  0  0  0  0  0  0
    1.7896    1.7138    0.0000 C   0  0  0  0  0  0  0  0  0  0  0  0
    2.5024    2.9422    0.0000 C   0  0  0  0  0  0  0  0  0  0  0  0
    3.9129   -2.5024    0.0000 C   0  0  0  0  0  0  0  0  0  0  0  0
    3.9280   -1.6834    0.0000 C   0  0  0  0  0  0  0  0  0  0  0  0
    3.2304   -2.9118    0.0000 C   0  0  0  0  0  0  0  0  0  0  0  0
    1.7896    2.5327    0.0000 C   0  0  0  0  0  0  0  0  0  0  0  0
   -1.8048   -0.0455    0.0000 C   0  0  0  0  0  0  0  0  0  0  0  0
   -0.3640    0.8190    0.0000 C   0  0  0  0  0  0  0  0  0  0  0  0
   -2.4872   -0.4398    0.0000 C   0  0  0  0  0  0  0  0  0  0  0  0
    5.3839   -2.5327    0.0000 C   0  0  0  0  0  0  0  0  0  0  0  0
   -3.9280   -0.4398    0.0000 C   0  0  0  0  0  0  0  0  0  0  0  0
   -4.6559   -0.0303    0.0000 C   0  0  0  0  0  0  0  0  0  0  0  0
   -6.0815   -0.0455    0.0000 C   0  0  0  0  0  0  0  0  0  0  0  0
  1 12  1  0  0  0  0
  1 14  1  0  0  0  0
  2 13  2  0  0  0  0
  3 18  2  0  0  0  0
  4 23  2  0  0  0  0
  5 31  1  0  0  0  0
  5 38  1  0  0  0  0
  6 35  2  0  0  0  0
  7 37  1  0  0  0  0
  7 39  1  0  0  0  0
  8 40  1  0  0  0  0
  8 41  1  0  0  0  0
  9 15  1  0  0  0  0
  9 18  1  0  0  0  0
 10 19  1  0  0  0  0
 10 23  1  0  0  0  0
 11 26  1  0  0  0  0
 11 35  1  0  0  0  0
 12 13  1  0  0  0  0
 12 14  1  0  0  0  0
 12 16  1  0  0  0  0
 13 15  1  0  0  0  0
 15 17  1  0  0  0  0
 17 20  1  0  0  0  0
 18 19  1  0  0  0  0
 19 21  1  0  0  0  0
 20 24  2  0  0  0  0
 20 25  1  0  0  0  0
 21 22  1  0  0  0  0
 22 27  2  0  0  0  0
 22 28  1  0  0  0  0
 23 26  1  0  0  0  0
 24 29  1  0  0  0  0
 25 30  2  0  0  0  0
 26 36  1  0  0  0  0
 27 32  1  0  0  0  0
 28 33  2  0  0  0  0
 29 34  2  0  0  0  0
 30 34  1  0  0  0  0
 31 32  2  0  0  0  0
 31 33  1  0  0  0  0
 35 37  1  0  0  0  0
 39 40  1  0  0  0  0
M  END
> <PUBCHEM_COMPOUND_ID_TYPE>
0

> <PUBCHEM_TOTAL_CHARGE>
0

> <PUBCHEM_SUBSTANCE_ID>
310945863

> <PUBCHEM_SUBSTANCE_VERSION>
1

> <PUBCHEM_EXT_DATASOURCE_NAME>
4488

> <PUBCHEM_EXT_DATASOURCE_REGID>
SCHEMBL16123968

> <PUBCHEM_SUBSTANCE_COMMENT>
InChI=1S/C30H39N3O8/c1-20(31-26(34)18-40-15-14-38-3)28(36)33-25(17-22-10-12-23(39-4)13-11-22)29(37)32-24(27(35)30(2)19-41-30)16-21-8-6-5-7-9-21/h5-13,20,24-25H,14-19H2,1-4H3,(H,31,34)(H,32,37)(H,33,36)
InChIKey=QFVJUDNCMDETGE-UHFFFAOYSA-N

> <PUBCHEM_SUBSTANCE_SYNONYM>
SCHEMBL16123968

> <PUBCHEM_XREF_EXT_ID>
SCHEMBL16123968

> <PUBCHEM_EXT_DATASOURCE_URL>
https://www.surechembl.org/

> <PUBCHEM_EXT_SUBSTANCE_URL>
https://www.surechembl.org/chemical/SCHEMBL16123968

> <PUBCHEM_CID_ASSOCIATIONS>
117611847  1

> <PUBCHEM_COORDINATE_TYPE>
1
3

$$$$
