310945158
  -OEChem-07211613022D

 17 18  0     1  0  0  0  0  0999 V2000
   -0.0832   -1.4895    0.0000 O   0  0  0  0  0  0  0  0  0  0  0  0
    1.0253    0.5611    0.0000 O   0  0  0  0  0  0  0  0  0  0  0  0
    0.5958   -0.3256    0.0000 N   0  0  0  0  0  0  0  0  0  0  0  0
   -0.2217    1.2816    0.0000 N   0  0  0  0  0  0  0  0  0  0  0  0
   -0.2355   -0.1593    0.0000 C   0  0  0  0  0  0  0  0  0  0  0  0
   -0.6373   -0.8798    0.0000 C   0  0  0  0  0  0  0  0  0  0  0  0
   -0.6512    0.5611    0.0000 C   0  0  3  0  0  0  0  0  0  0  0  0
    0.6650   -1.1430    0.0000 C   0  0  0  0  0  0  0  0  0  0  0  0
   -1.4825   -0.8660    0.0000 C   0  0  0  0  0  0  0  0  0  0  0  0
   -1.4687    0.5611    0.0000 C   0  0  0  0  0  0  0  0  0  0  0  0
    1.3855   -1.5587    0.0000 C   0  0  0  0  0  0  0  0  0  0  0  0
   -1.8844   -0.1732    0.0000 C   0  0  0  0  0  0  0  0  0  0  0  0
    0.5958    1.2954    0.0000 C   0  0  0  0  0  0  0  0  0  0  0  0
    1.1777   -1.9883    0.0000 C   0  0  0  0  0  0  0  0  0  0  0  0
    1.6765   -1.1153    0.0000 C   0  0  0  0  0  0  0  0  0  0  0  0
    1.0253    1.9883    0.0000 C   0  0  0  0  0  0  0  0  0  0  0  0
    1.8844    1.9328    0.0000 C   0  0  0  0  0  0  0  0  0  0  0  0
  1  6  1  0  0  0  0
  1  8  1  0  0  0  0
  2 13  2  0  0  0  0
  3  5  1  0  0  0  0
  3  8  2  0  0  0  0
  4  7  1  0  0  0  0
  4 13  1  0  0  0  0
  5  6  2  0  0  0  0
  5  7  1  0  0  0  0
  6  9  1  0  0  0  0
  7 10  1  0  0  0  0
  8 11  1  0  0  0  0
  9 12  1  0  0  0  0
 10 12  1  0  0  0  0
 11 14  1  0  0  0  0
 11 15  1  0  0  0  0
 13 16  1  0  0  0  0
 16 17  2  0  0  0  0
M  END
> <PUBCHEM_COMPOUND_ID_TYPE>
0

> <PUBCHEM_TOTAL_CHARGE>
0

> <PUBCHEM_SUBSTANCE_ID>
310945158

> <PUBCHEM_SUBSTANCE_VERSION>
1

> <PUBCHEM_EXT_DATASOURCE_NAME>
4488

> <PUBCHEM_EXT_DATASOURCE_REGID>
SCHEMBL16123248

> <PUBCHEM_SUBSTANCE_COMMENT>
InChI=1S/C13H18N2O2/c1-4-11(16)14-9-6-5-7-10-12(9)15-13(17-10)8(2)3/h4,8-9H,1,5-7H2,2-3H3,(H,14,16)
InChIKey=BSQDPQLXZMRKPL-UHFFFAOYSA-N

> <PUBCHEM_SUBSTANCE_SYNONYM>
SCHEMBL16123248

> <PUBCHEM_XREF_EXT_ID>
SCHEMBL16123248

> <PUBCHEM_EXT_DATASOURCE_URL>
https://www.surechembl.org/

> <PUBCHEM_EXT_SUBSTANCE_URL>
https://www.surechembl.org/chemical/SCHEMBL16123248

> <PUBCHEM_CID_ASSOCIATIONS>
117611244  1

> <PUBCHEM_COORDINATE_TYPE>
1
3

$$$$
