310938500
  -OEChem-07211613022D

 32 35  0     1  0  0  0  0  0999 V2000
    6.5753   -0.7279    0.0000 F   0  0  0  0  0  0  0  0  0  0  0  0
    5.3379    0.0000    0.0000 F   0  0  0  0  0  0  0  0  0  0  0  0
    6.1386   -1.4558    0.0000 F   0  0  0  0  0  0  0  0  0  0  0  0
    2.1594   -1.1404    0.0000 O   0  0  0  0  0  0  0  0  0  0  0  0
    1.4315   -2.3778    0.0000 N   0  0  0  0  0  0  0  0  0  0  0  0
    2.8631   -3.2028    0.0000 N   0  0  0  0  0  0  0  0  0  0  0  0
    2.8631   -2.3778    0.0000 C   0  0  3  0  0  0  0  0  0  0  0  0
    2.1594   -1.9653    0.0000 C   0  0  0  0  0  0  0  0  0  0  0  0
    3.5910   -1.9653    0.0000 C   0  0  0  0  0  0  0  0  0  0  0  0
    1.4315   -3.2028    0.0000 C   0  0  3  0  0  0  0  0  0  0  0  0
    2.1594   -3.6152    0.0000 C   0  0  0  0  0  0  0  0  0  0  0  0
    5.0225   -1.1404    0.0000 C   0  0  0  0  0  0  0  0  0  0  0  0
    3.5910   -1.1404    0.0000 C   0  0  0  0  0  0  0  0  0  0  0  0
    4.2946   -2.3778    0.0000 C   0  0  0  0  0  0  0  0  0  0  0  0
    0.7279   -1.9653    0.0000 C   0  0  0  0  0  0  0  0  0  0  0  0
    5.7504   -0.7279    0.0000 C   0  0  0  0  0  0  0  0  0  0  0  0
    0.7279   -3.6152    0.0000 C   0  0  0  0  0  0  0  0  0  0  0  0
    4.2946   -0.7037    0.0000 C   0  0  0  0  0  0  0  0  0  0  0  0
    5.0225   -1.9653    0.0000 C   0  0  0  0  0  0  0  0  0  0  0  0
    3.5910   -3.6152    0.0000 C   0  0  0  0  0  0  0  0  0  0  0  0
    0.0000   -2.3778    0.0000 C   0  0  0  0  0  0  0  0  0  0  0  0
    0.0000   -3.2028    0.0000 C   0  0  0  0  0  0  0  0  0  0  0  0
    3.0572   -3.3726    0.0000 C   0  0  0  0  0  0  0  0  0  0  0  0
    2.1837   -4.4402    0.0000 C   0  0  0  0  0  0  0  0  0  0  0  0
    3.5910   -4.4402    0.0000 C   0  0  0  0  0  0  0  0  0  0  0  0
    4.2946   -3.2028    0.0000 C   0  0  0  0  0  0  0  0  0  0  0  0
    3.7850   -3.7608    0.0000 C   0  0  0  0  0  0  0  0  0  0  0  0
    2.8873   -4.8527    0.0000 C   0  0  0  0  0  0  0  0  0  0  0  0
    3.7850   -4.5857    0.0000 C   0  0  0  0  0  0  0  0  0  0  0  0
    4.2946   -4.8527    0.0000 C   0  0  0  0  0  0  0  0  0  0  0  0
    5.0225   -3.6152    0.0000 C   0  0  0  0  0  0  0  0  0  0  0  0
    4.9982   -4.4402    0.0000 C   0  0  0  0  0  0  0  0  0  0  0  0
  1 16  1  0  0  0  0
  2 16  1  0  0  0  0
  3 16  1  0  0  0  0
  4  8  2  0  0  0  0
  5  8  1  0  0  0  0
  5 10  1  0  0  0  0
  5 15  1  0  0  0  0
  6  7  1  0  0  0  0
  6 20  1  0  0  0  0
  7  8  1  0  0  0  0
  7  9  1  0  0  0  0
  9 13  2  0  0  0  0
  9 14  1  0  0  0  0
 10 11  1  0  0  0  0
 10 17  1  0  0  0  0
 11 23  2  0  0  0  0
 11 24  1  0  0  0  0
 12 16  1  0  0  0  0
 12 18  2  0  0  0  0
 12 19  1  0  0  0  0
 13 18  1  0  0  0  0
 14 19  2  0  0  0  0
 15 21  1  0  0  0  0
 17 22  1  0  0  0  0
 20 25  2  0  0  0  0
 20 26  1  0  0  0  0
 21 22  1  0  0  0  0
 23 27  1  0  0  0  0
 24 28  2  0  0  0  0
 25 30  1  0  0  0  0
 26 31  2  0  0  0  0
 27 29  2  0  0  0  0
 28 29  1  0  0  0  0
 30 32  2  0  0  0  0
 31 32  1  0  0  0  0
M  END
> <PUBCHEM_COMPOUND_ID_TYPE>
0

> <PUBCHEM_TOTAL_CHARGE>
0

> <PUBCHEM_SUBSTANCE_ID>
310938500

> <PUBCHEM_SUBSTANCE_VERSION>
1

> <PUBCHEM_EXT_DATASOURCE_NAME>
4488

> <PUBCHEM_EXT_DATASOURCE_REGID>
SCHEMBL16116406

> <PUBCHEM_SUBSTANCE_COMMENT>
InChI=1S/C26H25F3N2O/c27-26(28,29)21-16-14-20(15-17-21)24(30-22-11-5-2-6-12-22)25(32)31-18-8-7-13-23(31)19-9-3-1-4-10-19/h1-6,9-12,14-17,23-24,30H,7-8,13,18H2
InChIKey=BPUYNABLDRBCTQ-UHFFFAOYSA-N

> <PUBCHEM_SUBSTANCE_SYNONYM>
SCHEMBL16116406

> <PUBCHEM_XREF_EXT_ID>
SCHEMBL16116406

> <PUBCHEM_EXT_DATASOURCE_URL>
https://www.surechembl.org/

> <PUBCHEM_EXT_SUBSTANCE_URL>
https://www.surechembl.org/chemical/SCHEMBL16116406

> <PUBCHEM_CID_ASSOCIATIONS>
46178338  1

> <PUBCHEM_COORDINATE_TYPE>
1
3

$$$$
