310947696
  -OEChem-07211613022D

 20 20  0     1  0  0  0  0  0999 V2000
    1.2156    1.3862    0.0000 S   0  0  0  0  0  0  0  0  0  0  0  0
    0.8031    2.1007    0.0000 O   0  0  0  0  0  0  0  0  0  0  0  0
    1.6281    2.1007    0.0000 O   0  0  0  0  0  0  0  0  0  0  0  0
    0.5012    0.9737    0.0000 N   0  0  3  0  0  0  0  0  0  0  0  0
   -4.5001    1.3862    0.0000 N   0  0  0  0  0  0  0  0  0  0  0  0
   -5.2146    0.9737    0.0000 N   0  3  0  0  0  0  0  0  0  0  0  0
   -5.9291    0.5612    0.0000 N   0  5  0  0  0  0  0  0  0  0  0  0
    0.5012    0.1487    0.0000 C   0  0  0  0  0  0  0  0  0  0  0  0
   -0.2133    1.3862    0.0000 C   0  0  0  0  0  0  0  0  0  0  0  0
    1.2156   -0.2638    0.0000 C   0  0  0  0  0  0  0  0  0  0  0  0
   -0.2133   -0.2638    0.0000 C   0  0  0  0  0  0  0  0  0  0  0  0
    1.9301    0.9737    0.0000 C   0  0  0  0  0  0  0  0  0  0  0  0
    1.2156   -1.0888    0.0000 C   0  0  0  0  0  0  0  0  0  0  0  0
   -0.2133   -1.0888    0.0000 C   0  0  0  0  0  0  0  0  0  0  0  0
   -0.9278    0.9737    0.0000 C   0  0  0  0  0  0  0  0  0  0  0  0
    0.5012   -1.5013    0.0000 C   0  0  0  0  0  0  0  0  0  0  0  0
   -1.6422    1.3862    0.0000 C   0  0  0  0  0  0  0  0  0  0  0  0
   -2.3567    0.9737    0.0000 C   0  0  0  0  0  0  0  0  0  0  0  0
   -3.0712    1.3862    0.0000 C   0  0  0  0  0  0  0  0  0  0  0  0
   -3.7857    0.9737    0.0000 C   0  0  0  0  0  0  0  0  0  0  0  0
  1  2  2  0  0  0  0
  1  3  2  0  0  0  0
  1  4  1  0  0  0  0
  1 12  1  0  0  0  0
  4  8  1  0  0  0  0
  4  9  1  0  0  0  0
  5  6  2  0  0  0  0
  5 20  1  0  0  0  0
  6  7  2  0  0  0  0
  8 10  2  0  0  0  0
  8 11  1  0  0  0  0
  9 15  1  0  0  0  0
 10 13  1  0  0  0  0
 11 14  2  0  0  0  0
 13 16  2  0  0  0  0
 14 16  1  0  0  0  0
 15 17  1  0  0  0  0
 17 18  1  0  0  0  0
 18 19  1  0  0  0  0
 19 20  1  0  0  0  0
M  CHG  2   6   1   7  -1
M  END
> <PUBCHEM_COMPOUND_ID_TYPE>
0

> <PUBCHEM_TOTAL_CHARGE>
0

> <PUBCHEM_SUBSTANCE_ID>
310947696

> <PUBCHEM_SUBSTANCE_VERSION>
1

> <PUBCHEM_EXT_DATASOURCE_NAME>
4488

> <PUBCHEM_EXT_DATASOURCE_REGID>
SCHEMBL16125867

> <PUBCHEM_SUBSTANCE_COMMENT>
InChI=1S/C13H20N4O2S/c1-20(18,19)17(13-9-5-4-6-10-13)12-8-3-2-7-11-15-16-14/h4-6,9-10H,2-3,7-8,11-12H2,1H3
InChIKey=IYYVQFXNTJNQHA-UHFFFAOYSA-N

> <PUBCHEM_SUBSTANCE_SYNONYM>
SCHEMBL16125867

> <PUBCHEM_XREF_EXT_ID>
SCHEMBL16125867

> <PUBCHEM_EXT_DATASOURCE_URL>
https://www.surechembl.org/

> <PUBCHEM_EXT_SUBSTANCE_URL>
https://www.surechembl.org/chemical/SCHEMBL16125867

> <PUBCHEM_CID_ASSOCIATIONS>
117613408  1

> <PUBCHEM_COORDINATE_TYPE>
1
3

$$$$
