310947216
  -OEChem-07211613022D

 29 31  0     1  0  0  0  0  0999 V2000
   -0.0300    2.0191    0.0000 F   0  0  0  0  0  0  0  0  0  0  0  0
    0.9805    1.0087    0.0000 F   0  0  0  0  0  0  0  0  0  0  0  0
    0.7669    1.8056    0.0000 F   0  0  0  0  0  0  0  0  0  0  0  0
   -1.4102    1.6492    0.0000 O   0  0  0  0  0  0  0  0  0  0  0  0
    0.2285   -2.6182    0.0000 N   0  0  0  0  0  0  0  0  0  0  0  0
   -0.5561   -2.8732    0.0000 N   0  0  0  0  0  0  0  0  0  0  0  0
    1.6575   -1.7932    0.0000 N   0  0  3  0  0  0  0  0  0  0  0  0
    3.8009   -1.3807    0.0000 N   0  0  0  0  0  0  0  0  0  0  0  0
   -0.7696   -0.7414    0.0000 C   0  0  0  0  0  0  0  0  0  0  0  0
   -0.3998    0.6388    0.0000 C   0  0  0  0  0  0  0  0  0  0  0  0
   -0.5561   -1.5383    0.0000 C   0  0  0  0  0  0  0  0  0  0  0  0
   -1.1967    0.8524    0.0000 C   0  0  0  0  0  0  0  0  0  0  0  0
   -1.5665   -0.5279    0.0000 C   0  0  0  0  0  0  0  0  0  0  0  0
   -0.1863   -0.1581    0.0000 C   0  0  0  0  0  0  0  0  0  0  0  0
    0.1836    1.2222    0.0000 C   0  0  0  0  0  0  0  0  0  0  0  0
   -1.7800    0.2690    0.0000 C   0  0  0  0  0  0  0  0  0  0  0  0
    0.2285   -1.7932    0.0000 C   0  0  0  0  0  0  0  0  0  0  0  0
   -1.0410   -2.2057    0.0000 C   0  0  0  0  0  0  0  0  0  0  0  0
    0.9430   -1.3807    0.0000 C   0  0  0  0  0  0  0  0  0  0  0  0
   -2.2071    1.8628    0.0000 C   0  0  0  0  0  0  0  0  0  0  0  0
   -2.1499   -1.1113    0.0000 C   0  0  0  0  0  0  0  0  0  0  0  0
   -2.7905    1.2794    0.0000 C   0  0  0  0  0  0  0  0  0  0  0  0
   -2.4206    2.6597    0.0000 C   0  0  0  0  0  0  0  0  0  0  0  0
    2.3719   -1.3807    0.0000 C   0  0  0  0  0  0  0  0  0  0  0  0
   -3.5873    1.4929    0.0000 C   0  0  0  0  0  0  0  0  0  0  0  0
   -3.2175    2.8732    0.0000 C   0  0  0  0  0  0  0  0  0  0  0  0
    1.6575   -2.6182    0.0000 C   0  0  0  0  0  0  0  0  0  0  0  0
   -3.8009    2.2898    0.0000 C   0  0  0  0  0  0  0  0  0  0  0  0
    3.0864   -1.7932    0.0000 C   0  0  0  0  0  0  0  0  0  0  0  0
  1 15  1  0  0  0  0
  2 15  1  0  0  0  0
  3 15  1  0  0  0  0
  4 12  1  0  0  0  0
  4 20  1  0  0  0  0
  5  6  1  0  0  0  0
  5 17  2  0  0  0  0
  6 18  1  0  0  0  0
  7 19  1  0  0  0  0
  7 24  1  0  0  0  0
  7 27  1  0  0  0  0
  8 29  1  0  0  0  0
  9 11  1  0  0  0  0
  9 13  2  0  0  0  0
  9 14  1  0  0  0  0
 10 12  1  0  0  0  0
 10 14  2  0  0  0  0
 10 15  1  0  0  0  0
 11 17  1  0  0  0  0
 11 18  2  0  0  0  0
 12 16  2  0  0  0  0
 13 16  1  0  0  0  0
 13 21  1  0  0  0  0
 17 19  1  0  0  0  0
 20 22  2  0  0  0  0
 20 23  1  0  0  0  0
 22 25  1  0  0  0  0
 23 26  2  0  0  0  0
 24 29  1  0  0  0  0
 25 28  2  0  0  0  0
 26 28  1  0  0  0  0
M  END
> <PUBCHEM_COMPOUND_ID_TYPE>
0

> <PUBCHEM_TOTAL_CHARGE>
0

> <PUBCHEM_SUBSTANCE_ID>
310947216

> <PUBCHEM_SUBSTANCE_VERSION>
1

> <PUBCHEM_EXT_DATASOURCE_NAME>
4488

> <PUBCHEM_EXT_DATASOURCE_REGID>
SCHEMBL16125371

> <PUBCHEM_SUBSTANCE_COMMENT>
InChI=1S/C21H23F3N4O/c1-14-10-20(29-15-6-4-3-5-7-15)18(21(22,23)24)11-16(14)17-12-26-27-19(17)13-28(2)9-8-25/h3-7,10-12H,8-9,13,25H2,1-2H3,(H,26,27)
InChIKey=FSOXKNLSBSUDID-UHFFFAOYSA-N

> <PUBCHEM_SUBSTANCE_SYNONYM>
SCHEMBL16125371

> <PUBCHEM_XREF_EXT_ID>
SCHEMBL16125371

> <PUBCHEM_EXT_DATASOURCE_URL>
https://www.surechembl.org/

> <PUBCHEM_EXT_SUBSTANCE_URL>
https://www.surechembl.org/chemical/SCHEMBL16125371

> <PUBCHEM_CID_ASSOCIATIONS>
85473143  1

> <PUBCHEM_COORDINATE_TYPE>
1
3

$$$$
