310937873
  -OEChem-07211613022D

 35 37  0     1  0  0  0  0  0999 V2000
   -0.5970    1.5301    0.0000 O   0  0  0  0  0  0  0  0  0  0  0  0
    0.0000   -0.8250    0.0000 O   0  0  0  0  0  0  0  0  0  0  0  0
    0.3591    2.5920    0.0000 O   0  0  0  0  0  0  0  0  0  0  0  0
   -2.1434    1.2375    0.0000 O   0  0  0  0  0  0  0  0  0  0  0  0
   -6.4302    1.2375    0.0000 O   0  0  0  0  0  0  0  0  0  0  0  0
    0.7144    0.4125    0.0000 N   0  0  0  0  0  0  0  0  0  0  0  0
   -1.4290    0.0000    0.0000 N   0  0  0  0  0  0  0  0  0  0  0  0
   -5.7158    0.0000    0.0000 N   0  0  0  0  0  0  0  0  0  0  0  0
    1.4681    0.0770    0.0000 C   0  0  0  0  0  0  0  0  0  0  0  0
    0.8007    1.2330    0.0000 C   0  0  3  0  0  0  0  0  0  0  0  0
    2.0202    0.6901    0.0000 C   0  0  0  0  0  0  0  0  0  0  0  0
    1.6077    1.4045    0.0000 C   0  0  0  0  0  0  0  0  0  0  0  0
    0.0000    0.0000    0.0000 C   0  0  0  0  0  0  0  0  0  0  0  0
    0.1876    1.7850    0.0000 C   0  0  0  0  0  0  0  0  0  0  0  0
    1.7231   -0.7077    0.0000 C   0  0  0  0  0  0  0  0  0  0  0  0
    2.8272    0.5185    0.0000 C   0  0  0  0  0  0  0  0  0  0  0  0
    2.5300   -0.8792    0.0000 C   0  0  0  0  0  0  0  0  0  0  0  0
   -0.7144    0.4125    0.0000 C   0  0  0  0  0  0  0  0  0  0  0  0
    3.0821   -0.2661    0.0000 C   0  0  0  0  0  0  0  0  0  0  0  0
   -1.2101    2.0821    0.0000 C   0  0  0  0  0  0  0  0  0  0  0  0
   -2.1434    0.4125    0.0000 C   0  0  0  0  0  0  0  0  0  0  0  0
   -2.8579    0.0000    0.0000 C   0  0  0  0  0  0  0  0  0  0  0  0
   -7.8592    0.4125    0.0000 C   0  0  0  0  0  0  0  0  0  0  0  0
   -1.9947    1.8271    0.0000 C   0  0  0  0  0  0  0  0  0  0  0  0
   -8.5736    0.0000    0.0000 C   0  0  0  0  0  0  0  0  0  0  0  0
   -9.2881    0.4125    0.0000 C   0  0  0  0  0  0  0  0  0  0  0  0
   -7.1447    0.0000    0.0000 C   0  0  0  0  0  0  0  0  0  0  0  0
   -7.8592    1.2375    0.0000 C   0  0  0  0  0  0  0  0  0  0  0  0
   -6.4302    0.4125    0.0000 C   0  0  0  0  0  0  0  0  0  0  0  0
   -3.5724    0.4125    0.0000 C   0  0  0  0  0  0  0  0  0  0  0  0
   -9.2881    1.2375    0.0000 C   0  0  0  0  0  0  0  0  0  0  0  0
   -8.5736    1.6500    0.0000 C   0  0  0  0  0  0  0  0  0  0  0  0
   -4.2868    0.0000    0.0000 C   0  0  0  0  0  0  0  0  0  0  0  0
   -5.0013    0.4125    0.0000 C   0  0  0  0  0  0  0  0  0  0  0  0
  -10.0026    0.0000    0.0000 C   0  0  0  0  0  0  0  0  0  0  0  0
  1 14  1  0  0  0  0
  1 20  1  0  0  0  0
  2 13  2  0  0  0  0
  3 14  2  0  0  0  0
  4 21  2  0  0  0  0
  5 29  2  0  0  0  0
  6  9  1  0  0  0  0
  6 10  1  0  0  0  0
  6 13  1  0  0  0  0
  7 18  1  0  0  0  0
  7 21  1  0  0  0  0
  8 29  1  0  0  0  0
  8 34  1  0  0  0  0
  9 11  2  0  0  0  0
  9 15  1  0  0  0  0
 10 12  1  0  0  0  0
 10 14  1  0  0  0  0
 11 12  1  0  0  0  0
 11 16  1  0  0  0  0
 13 18  1  0  0  0  0
 15 17  2  0  0  0  0
 16 19  2  0  0  0  0
 17 19  1  0  0  0  0
 20 24  1  0  0  0  0
 21 22  1  0  0  0  0
 22 30  1  0  0  0  0
 23 25  1  0  0  0  0
 23 27  1  0  0  0  0
 23 28  2  0  0  0  0
 25 26  2  0  0  0  0
 26 31  1  0  0  0  0
 26 35  1  0  0  0  0
 27 29  1  0  0  0  0
 28 32  1  0  0  0  0
 30 33  1  0  0  0  0
 31 32  2  0  0  0  0
 33 34  1  0  0  0  0
M  END
> <PUBCHEM_COMPOUND_ID_TYPE>
0

> <PUBCHEM_TOTAL_CHARGE>
0

> <PUBCHEM_SUBSTANCE_ID>
310937873

> <PUBCHEM_SUBSTANCE_VERSION>
1

> <PUBCHEM_EXT_DATASOURCE_NAME>
4488

> <PUBCHEM_EXT_DATASOURCE_REGID>
SCHEMBL16115698

> <PUBCHEM_SUBSTANCE_COMMENT>
InChI=1S/C27H33N3O5/c1-3-35-27(34)23-17-21-11-4-5-12-22(21)30(23)26(33)18-29-24(31)13-6-7-14-28-25(32)16-20-10-8-9-19(2)15-20/h4-5,8-12,15,23H,3,6-7,13-14,16-18H2,1-2H3,(H,28,32)(H,29,31)
InChIKey=AUIDZEYCBLGYPL-UHFFFAOYSA-N

> <PUBCHEM_SUBSTANCE_SYNONYM>
SCHEMBL16115698

> <PUBCHEM_XREF_EXT_ID>
SCHEMBL16115698

> <PUBCHEM_EXT_DATASOURCE_URL>
https://www.surechembl.org/

> <PUBCHEM_EXT_SUBSTANCE_URL>
https://www.surechembl.org/chemical/SCHEMBL16115698

> <PUBCHEM_CID_ASSOCIATIONS>
117605495  1

> <PUBCHEM_COORDINATE_TYPE>
1
3

$$$$
