310936498
  -OEChem-07211613022D

 11 10  0     1  0  0  0  0  0999 V2000
    0.8250   -2.0625    0.0000 S   0  0  0  0  0  0  0  0  0  0  0  0
    0.8250   -2.8875    0.0000 O   0  0  0  0  0  0  0  0  0  0  0  0
    0.0000   -2.0625    0.0000 O   0  0  0  0  0  0  0  0  0  0  0  0
    1.6706   -2.0831    0.0000 O   0  0  0  0  0  0  0  0  0  0  0  0
    1.5469    0.0000    0.0000 O   0  0  0  0  0  0  0  0  0  0  0  0
    2.2687   -1.2375    0.0000 O   0  0  0  0  0  0  0  0  0  0  0  0
    0.8250   -1.2375    0.0000 C   0  0  3  0  0  0  0  0  0  0  0  0
    1.5469   -0.8250    0.0000 C   0  0  0  0  0  0  0  0  0  0  0  0
    0.1237   -0.8250    0.0000 C   0  0  0  0  0  0  0  0  0  0  0  0
    0.1031   -3.2999    0.0000 C   0  0  0  0  0  0  0  0  0  0  0  0
    0.1031   -4.1249    0.0000 C   0  0  0  0  0  0  0  0  0  0  0  0
  1  2  1  0  0  0  0
  1  3  2  0  0  0  0
  1  4  2  0  0  0  0
  1  7  1  0  0  0  0
  2 10  1  0  0  0  0
  5  8  2  0  0  0  0
  6  8  1  0  0  0  0
  7  8  1  0  0  0  0
  7  9  1  0  0  0  0
 10 11  1  0  0  0  0
M  END
> <PUBCHEM_COMPOUND_ID_TYPE>
0

> <PUBCHEM_TOTAL_CHARGE>
0

> <PUBCHEM_SUBSTANCE_ID>
310936498

> <PUBCHEM_SUBSTANCE_VERSION>
1

> <PUBCHEM_EXT_DATASOURCE_NAME>
4488

> <PUBCHEM_EXT_DATASOURCE_REGID>
SCHEMBL16114148

> <PUBCHEM_SUBSTANCE_COMMENT>
InChI=1S/C5H10O5S/c1-3-10-11(8,9)4(2)5(6)7/h4H,3H2,1-2H3,(H,6,7)
InChIKey=JHNKSABDQCFGHD-UHFFFAOYSA-N

> <PUBCHEM_SUBSTANCE_SYNONYM>
SCHEMBL16114148

> <PUBCHEM_XREF_EXT_ID>
SCHEMBL16114148

> <PUBCHEM_EXT_DATASOURCE_URL>
https://www.surechembl.org/

> <PUBCHEM_EXT_SUBSTANCE_URL>
https://www.surechembl.org/chemical/SCHEMBL16114148

> <PUBCHEM_CID_ASSOCIATIONS>
117604425  1

> <PUBCHEM_COORDINATE_TYPE>
1
3

$$$$
