310946493
  -OEChem-07211613022D

 21 21  0     1  0  0  0  0  0999 V2000
    5.0556   13.3032    0.0000 O   0  0  0  0  0  0  0  0  0  0  0  0
    3.9713    9.8605    0.0000 O   0  0  0  0  0  0  0  0  0  0  0  0
    3.2569   11.0980    0.0000 O   0  0  0  0  0  0  0  0  0  0  0  0
    3.7578   13.1324    0.0000 O   0  0  0  0  0  0  0  0  0  0  0  0
    6.2796   15.1105    0.0000 O   0  0  0  0  0  0  0  0  0  0  0  0
    4.4723   11.8949    0.0000 N   0  0  0  0  0  0  0  0  0  0  0  0
    4.6858   11.0980    0.0000 C   0  0  3  0  0  0  0  0  0  0  0  0
    5.4003   10.6855    0.0000 C   0  0  0  0  0  0  0  0  0  0  0  0
    6.2253   10.6855    0.0000 C   0  0  0  0  0  0  0  0  0  0  0  0
    3.9713   10.6855    0.0000 C   0  0  0  0  0  0  0  0  0  0  0  0
    4.4723   12.7199    0.0000 C   0  0  0  0  0  0  0  0  0  0  0  0
    6.6378    9.9710    0.0000 C   0  0  0  0  0  0  0  0  0  0  0  0
    6.6378   11.4000    0.0000 C   0  0  0  0  0  0  0  0  0  0  0  0
    7.4628    9.9710    0.0000 C   0  0  0  0  0  0  0  0  0  0  0  0
    7.4628   11.4000    0.0000 C   0  0  0  0  0  0  0  0  0  0  0  0
    5.2692   14.1001    0.0000 C   0  0  0  0  0  0  0  0  0  0  0  0
    7.8753   10.6855    0.0000 C   0  0  0  0  0  0  0  0  0  0  0  0
    6.0661   14.3137    0.0000 C   0  0  0  0  0  0  0  0  0  0  0  0
    7.0765   15.3241    0.0000 C   0  0  0  0  0  0  0  0  0  0  0  0
    7.2900   16.1210    0.0000 C   0  0  0  0  0  0  0  0  0  0  0  0
    8.0869   16.3345    0.0000 C   0  0  0  0  0  0  0  0  0  0  0  0
  1 11  1  0  0  0  0
  1 16  1  0  0  0  0
  2 10  2  0  0  0  0
  3 10  1  0  0  0  0
  4 11  2  0  0  0  0
  5 18  1  0  0  0  0
  5 19  1  0  0  0  0
  6  7  1  0  0  0  0
  6 11  1  0  0  0  0
  7  8  1  0  0  0  0
  7 10  1  0  0  0  0
  8  9  1  0  0  0  0
  9 12  2  0  0  0  0
  9 13  1  0  0  0  0
 12 14  1  0  0  0  0
 13 15  2  0  0  0  0
 14 17  2  0  0  0  0
 15 17  1  0  0  0  0
 16 18  1  0  0  0  0
 19 20  1  0  0  0  0
 20 21  1  0  0  0  0
M  END
> <PUBCHEM_COMPOUND_ID_TYPE>
0

> <PUBCHEM_TOTAL_CHARGE>
0

> <PUBCHEM_SUBSTANCE_ID>
310946493

> <PUBCHEM_SUBSTANCE_VERSION>
1

> <PUBCHEM_EXT_DATASOURCE_NAME>
4488

> <PUBCHEM_EXT_DATASOURCE_REGID>
SCHEMBL16124614

> <PUBCHEM_SUBSTANCE_COMMENT>
InChI=1S/C15H21NO5/c1-2-8-20-9-10-21-15(19)16-13(14(17)18)11-12-6-4-3-5-7-12/h3-7,13H,2,8-11H2,1H3,(H,16,19)(H,17,18)
InChIKey=QAFFYVCCRIQPJD-UHFFFAOYSA-N

> <PUBCHEM_SUBSTANCE_SYNONYM>
SCHEMBL16124614

> <PUBCHEM_XREF_EXT_ID>
SCHEMBL16124614

> <PUBCHEM_EXT_DATASOURCE_URL>
https://www.surechembl.org/

> <PUBCHEM_EXT_SUBSTANCE_URL>
https://www.surechembl.org/chemical/SCHEMBL16124614

> <PUBCHEM_CID_ASSOCIATIONS>
117612399  1

> <PUBCHEM_COORDINATE_TYPE>
1
3

$$$$
