310946639
  -OEChem-07211613022D

 27 26  0     1  0  0  0  0  0999 V2000
   -9.0501  -12.7176    0.0000 S   0  0  0  0  0  0  0  0  0  0  0  0
   -8.3356  -13.9551    0.0000 O   0  0  0  0  0  0  0  0  0  0  0  0
   -8.3356  -11.4801    0.0000 O   0  0  0  0  0  0  0  0  0  0  0  0
   -6.9067  -13.9551    0.0000 O   0  0  0  0  0  0  0  0  0  0  0  0
   -9.7646  -11.4801    0.0000 O   0  0  0  0  0  0  0  0  0  0  0  0
   -7.6212  -15.1926    0.0000 O   0  0  0  0  0  0  0  0  0  0  0  0
   -6.1922  -11.8926    0.0000 O   0  0  0  0  0  0  0  0  0  0  0  0
   -4.0488  -11.4801    0.0000 O   0  0  0  0  0  0  0  0  0  0  0  0
   -4.7633  -14.3676    0.0000 O   0  0  0  0  0  0  0  0  0  0  0  0
   -3.3343  -10.2426    0.0000 O   0  5  0  0  0  0  0  0  0  0  0  0
   -4.7633  -10.2426    0.0000 O   0  0  0  0  0  0  0  0  0  0  0  0
  -10.4790  -14.3676    0.0000 N   0  0  0  0  0  0  0  0  0  0  0  0
   -4.0488  -10.6551    0.0000 N   0  3  0  0  0  0  0  0  0  0  0  0
   -9.7646  -13.9551    0.0000 C   0  0  3  0  0  0  0  0  0  0  0  0
   -9.0501  -11.8926    0.0000 C   0  0  0  0  0  0  0  0  0  0  0  0
   -9.7646  -13.1301    0.0000 C   0  0  0  0  0  0  0  0  0  0  0  0
   -9.0501  -14.3676    0.0000 C   0  0  0  0  0  0  0  0  0  0  0  0
   -7.6212  -14.3676    0.0000 C   0  0  0  0  0  0  0  0  0  0  0  0
   -7.6212  -11.8926    0.0000 C   0  0  0  0  0  0  0  0  0  0  0  0
   -6.1922  -14.3676    0.0000 C   0  0  0  0  0  0  0  0  0  0  0  0
   -6.9067  -11.4801    0.0000 C   0  0  0  0  0  0  0  0  0  0  0  0
   -5.4778  -13.9551    0.0000 C   0  0  0  0  0  0  0  0  0  0  0  0
   -5.4778  -11.4801    0.0000 C   0  0  0  0  0  0  0  0  0  0  0  0
   -4.7633  -11.8926    0.0000 C   0  0  0  0  0  0  0  0  0  0  0  0
   -4.0488  -13.9551    0.0000 C   0  0  0  0  0  0  0  0  0  0  0  0
   -3.3343  -14.3676    0.0000 C   0  0  0  0  0  0  0  0  0  0  0  0
   -2.6199  -13.9551    0.0000 C   0  0  0  0  0  0  0  0  0  0  0  0
  1 15  1  0  0  0  0
  1 16  1  0  0  0  0
  2 17  1  0  0  0  0
  2 18  1  0  0  0  0
  3 15  1  0  0  0  0
  3 19  1  0  0  0  0
  4 18  1  0  0  0  0
  4 20  1  0  0  0  0
  5 15  2  0  0  0  0
  6 18  2  0  0  0  0
  7 21  1  0  0  0  0
  7 23  1  0  0  0  0
  8 13  1  0  0  0  0
  8 24  1  0  0  0  0
  9 22  1  0  0  0  0
  9 25  1  0  0  0  0
 10 13  1  0  0  0  0
 11 13  2  0  0  0  0
 12 14  1  0  0  0  0
 14 16  1  0  0  0  0
 14 17  1  0  0  0  0
 19 21  1  0  0  0  0
 20 22  1  0  0  0  0
 23 24  1  0  0  0  0
 25 26  1  0  0  0  0
 26 27  1  0  0  0  0
M  CHG  2  10  -1  13   1
M  END
> <PUBCHEM_COMPOUND_ID_TYPE>
0

> <PUBCHEM_TOTAL_CHARGE>
0

> <PUBCHEM_SUBSTANCE_ID>
310946639

> <PUBCHEM_SUBSTANCE_VERSION>
1

> <PUBCHEM_EXT_DATASOURCE_NAME>
4488

> <PUBCHEM_EXT_DATASOURCE_REGID>
SCHEMBL16124760

> <PUBCHEM_SUBSTANCE_COMMENT>
InChI=1S/C14H26N2O10S/c1-2-3-21-4-7-23-13(17)25-10-12(15)11-27-14(18)24-8-5-22-6-9-26-16(19)20/h12H,2-11,15H2,1H3
InChIKey=HFTLSALLVPXNIY-UHFFFAOYSA-N

> <PUBCHEM_SUBSTANCE_SYNONYM>
SCHEMBL16124760

> <PUBCHEM_XREF_EXT_ID>
SCHEMBL16124760

> <PUBCHEM_EXT_DATASOURCE_URL>
https://www.surechembl.org/

> <PUBCHEM_EXT_SUBSTANCE_URL>
https://www.surechembl.org/chemical/SCHEMBL16124760

> <PUBCHEM_CID_ASSOCIATIONS>
117612539  1

> <PUBCHEM_COORDINATE_TYPE>
1
3

$$$$
