310937091
  -OEChem-07211613022D

 47 50  0     1  0  0  0  0  0999 V2000
    5.6793   -8.0841    0.0000 O   0  0  0  0  0  0  0  0  0  0  0  0
    2.8653   -8.1353    0.0000 O   0  0  0  0  0  0  0  0  0  0  0  0
    7.1120   -8.9540    0.0000 O   0  0  0  0  0  0  0  0  0  0  0  0
    7.8283   -7.6748    0.0000 O   0  0  0  0  0  0  0  0  0  0  0  0
    5.4235   -2.8653    0.0000 O   0  0  0  0  0  0  0  0  0  0  0  0
    2.5071   -2.1490    0.0000 O   0  0  0  0  0  0  0  0  0  0  0  0
    1.6885   -2.1490    0.0000 O   0  0  0  0  0  0  0  0  0  0  0  0
    5.6793   -5.6282    0.0000 N   0  0  0  0  0  0  0  0  0  0  0  0
    5.0142   -6.9073    0.0000 N   0  0  0  0  0  0  0  0  0  0  0  0
    5.1165   -5.0654    0.0000 N   0  0  0  0  0  0  0  0  0  0  0  0
    7.1632   -5.6282    0.0000 N   0  0  0  0  0  0  0  0  0  0  0  0
    4.1956   -3.5816    0.0000 N   0  0  0  0  0  0  0  0  0  0  0  0
    5.7306   -6.4469    0.0000 C   0  0  0  0  0  0  0  0  0  0  0  0
    6.3957   -6.8562    0.0000 C   0  0  0  0  0  0  0  0  0  0  0  0
    6.4469   -5.1677    0.0000 C   0  0  0  0  0  0  0  0  0  0  0  0
    7.1632   -6.4469    0.0000 C   0  0  0  0  0  0  0  0  0  0  0  0
    6.3957   -7.6748    0.0000 C   0  0  3  0  0  0  0  0  0  0  0  0
    5.4235   -4.2979    0.0000 C   0  0  0  0  0  0  0  0  0  0  0  0
    6.2422   -4.4002    0.0000 C   0  0  0  0  0  0  0  0  0  0  0  0
    5.0142   -7.7260    0.0000 C   0  0  0  0  0  0  0  0  0  0  0  0
    4.2979   -6.4469    0.0000 C   0  0  0  0  0  0  0  0  0  0  0  0
    7.1120   -8.0841    0.0000 C   0  0  0  0  0  0  0  0  0  0  0  0
    5.0142   -3.5816    0.0000 C   0  0  0  0  0  0  0  0  0  0  0  0
    3.5816   -7.7260    0.0000 C   0  0  0  0  0  0  0  0  0  0  0  0
    4.2979   -8.1353    0.0000 C   0  0  0  0  0  0  0  0  0  0  0  0
    3.5816   -6.9073    0.0000 C   0  0  0  0  0  0  0  0  0  0  0  0
    7.8795   -6.8562    0.0000 C   0  0  0  0  0  0  0  0  0  0  0  0
    5.6793   -8.9540    0.0000 C   0  0  0  0  0  0  0  0  0  0  0  0
    2.8653   -7.3167    0.0000 C   0  0  0  0  0  0  0  0  0  0  0  0
    5.6282   -9.7726    0.0000 C   0  0  0  0  0  0  0  0  0  0  0  0
    4.8607   -8.9028    0.0000 C   0  0  0  0  0  0  0  0  0  0  0  0
    6.4980   -8.9540    0.0000 C   0  0  0  0  0  0  0  0  0  0  0  0
    3.7863   -2.8653    0.0000 C   0  0  0  0  0  0  0  0  0  0  0  0
    2.8653   -8.9540    0.0000 C   0  0  0  0  0  0  0  0  0  0  0  0
    2.9164   -2.8653    0.0000 C   0  0  3  0  0  0  0  0  0  0  0  0
    2.5071   -3.5816    0.0000 C   0  0  0  0  0  0  0  0  0  0  0  0
    1.6885   -3.5816    0.0000 C   0  0  0  0  0  0  0  0  0  0  0  0
    2.2001   -9.4145    0.0000 C   0  0  0  0  0  0  0  0  0  0  0  0
    1.2791   -2.8653    0.0000 C   0  0  0  0  0  0  0  0  0  0  0  0
    1.2791   -4.2979    0.0000 C   0  0  0  0  0  0  0  0  0  0  0  0
    0.4605   -2.8653    0.0000 C   0  0  0  0  0  0  0  0  0  0  0  0
    0.4605   -4.2979    0.0000 C   0  0  0  0  0  0  0  0  0  0  0  0
    0.0000   -3.5816    0.0000 C   0  0  0  0  0  0  0  0  0  0  0  0
    2.2001  -10.2331    0.0000 C   0  0  0  0  0  0  0  0  0  0  0  0
    1.2280   -1.4326    0.0000 C   0  0  0  0  0  0  0  0  0  0  0  0
    1.6373   -0.7163    0.0000 C   0  0  0  0  0  0  0  0  0  0  0  0
    1.2280    0.0000    0.0000 C   0  0  0  0  0  0  0  0  0  0  0  0
  1 17  1  0  0  0  0
  1 28  1  0  0  0  0
  2 24  1  0  0  0  0
  2 34  1  0  0  0  0
  3 22  2  0  0  0  0
  4 22  1  0  0  0  0
  5 23  2  0  0  0  0
  6 35  1  0  0  0  0
  7 39  1  0  0  0  0
  7 45  1  0  0  0  0
  8 10  1  0  0  0  0
  8 13  1  0  0  0  0
  8 15  1  0  0  0  0
  9 13  1  0  0  0  0
  9 20  1  0  0  0  0
  9 21  1  0  0  0  0
 10 18  2  0  0  0  0
 11 15  1  0  0  0  0
 11 16  2  0  0  0  0
 12 23  1  0  0  0  0
 12 33  1  0  0  0  0
 13 14  2  0  0  0  0
 14 16  1  0  0  0  0
 14 17  1  0  0  0  0
 15 19  2  0  0  0  0
 16 27  1  0  0  0  0
 17 22  1  0  0  0  0
 18 19  1  0  0  0  0
 18 23  1  0  0  0  0
 20 25  1  0  0  0  0
 21 26  1  0  0  0  0
 24 25  1  0  0  0  0
 24 26  1  0  0  0  0
 24 29  1  0  0  0  0
 28 30  1  0  0  0  0
 28 31  1  0  0  0  0
 28 32  1  0  0  0  0
 33 35  1  0  0  0  0
 34 38  1  0  0  0  0
 35 36  1  0  0  0  0
 36 37  1  0  0  0  0
 37 39  1  0  0  0  0
 37 40  2  0  0  0  0
 38 44  2  0  0  0  0
 39 41  2  0  0  0  0
 40 42  1  0  0  0  0
 41 43  1  0  0  0  0
 42 43  2  0  0  0  0
 45 46  1  0  0  0  0
 46 47  2  0  0  0  0
M  END
> <PUBCHEM_COMPOUND_ID_TYPE>
0

> <PUBCHEM_TOTAL_CHARGE>
0

> <PUBCHEM_SUBSTANCE_ID>
310937091

> <PUBCHEM_SUBSTANCE_VERSION>
1

> <PUBCHEM_EXT_DATASOURCE_NAME>
4488

> <PUBCHEM_EXT_DATASOURCE_REGID>
SCHEMBL16114805

> <PUBCHEM_SUBSTANCE_COMMENT>
InChI=1S/C35H47N5O7/c1-8-18-45-27-13-11-10-12-24(27)20-25(41)22-36-31(42)26-21-28-37-23(3)29(30(33(43)44)47-34(4,5)6)32(40(28)38-26)39-16-14-35(7,15-17-39)46-19-9-2/h8-13,21,25,30,41H,1-2,14-20,22H2,3-7H3,(H,36,42)(H,43,44)
InChIKey=IODIQUQDABFHIY-UHFFFAOYSA-N

> <PUBCHEM_SUBSTANCE_SYNONYM>
SCHEMBL16114805

> <PUBCHEM_XREF_EXT_ID>
SCHEMBL16114805

> <PUBCHEM_EXT_DATASOURCE_URL>
https://www.surechembl.org/

> <PUBCHEM_EXT_SUBSTANCE_URL>
https://www.surechembl.org/chemical/SCHEMBL16114805

> <PUBCHEM_CID_ASSOCIATIONS>
117604928  1

> <PUBCHEM_COORDINATE_TYPE>
1
3

$$$$
