310929518
  -OEChem-07211613022D

 66 73  0     1  0  0  0  0  0999 V2000
    3.6211   -9.8906    0.0000 S   0  0  0  0  0  0  0  0  0  0  0  0
    4.0535   -8.3233    0.0000 O   0  0  0  0  0  0  0  0  0  0  0  0
    3.4050   -9.0799    0.0000 O   0  0  0  0  0  0  0  0  0  0  0  0
    3.8374  -10.7013    0.0000 O   0  0  0  0  0  0  0  0  0  0  0  0
    4.1616   -7.6747    0.0000 O   0  0  0  0  0  0  0  0  0  0  0  0
    3.0807   -5.2966    0.0000 O   0  0  0  0  0  0  0  0  0  0  0  0
    6.9180   -6.9180    0.0000 O   0  0  0  0  0  0  0  0  0  0  0  0
    2.1619   -2.4321    0.0000 O   0  0  0  0  0  0  0  0  0  0  0  0
    7.6207   -3.4050    0.0000 O   0  0  0  0  0  0  0  0  0  0  0  0
    8.4854   -4.2697    0.0000 O   0  0  0  0  0  0  0  0  0  0  0  0
   11.5120   -5.9992    0.0000 O   0  5  0  0  0  0  0  0  0  0  0  0
   10.8094   -4.8102    0.0000 O   0  0  0  0  0  0  0  0  0  0  0  0
    5.5668   -7.8909    0.0000 N   0  0  0  0  0  0  0  0  0  0  0  0
    4.3778   -9.6744    0.0000 N   0  0  0  0  0  0  0  0  0  0  0  0
    5.7830   -6.5938    0.0000 N   0  0  0  0  0  0  0  0  0  0  0  0
    2.1079   -4.9183    0.0000 N   0  0  0  0  0  0  0  0  0  0  0  0
    7.5666   -5.0804    0.0000 N   0  0  0  0  0  0  0  0  0  0  0  0
    0.7026   -0.8107    0.0000 N   0  3  3  0  0  0  0  0  0  0  0  0
    5.4047   -8.7016    0.0000 C   0  0  3  0  0  0  0  0  0  0  0  0
    6.1073   -9.1339    0.0000 C   0  0  3  0  0  0  0  0  0  0  0  0
    5.4047   -9.5123    0.0000 C   0  0  0  0  0  0  0  0  0  0  0  0
    4.6480   -8.9178    0.0000 C   0  0  0  0  0  0  0  0  0  0  0  0
    2.8104  -10.1068    0.0000 C   0  0  0  0  0  0  0  0  0  0  0  0
    4.9183   -7.4044    0.0000 C   0  0  0  0  0  0  0  0  0  0  0  0
    6.9180   -9.1339    0.0000 C   0  0  0  0  0  0  0  0  0  0  0  0
    2.2159  -10.6473    0.0000 C   0  0  0  0  0  0  0  0  0  0  0  0
    2.0538   -9.8906    0.0000 C   0  0  0  0  0  0  0  0  0  0  0  0
    5.0264   -6.5938    0.0000 C   0  0  3  0  0  0  0  0  0  0  0  0
    3.2428  -10.8094    0.0000 C   0  0  0  0  0  0  0  0  0  0  0  0
    4.1616   -6.3775    0.0000 C   0  0  0  0  0  0  0  0  0  0  0  0
    3.5671   -5.9992    0.0000 C   0  0  3  0  0  0  0  0  0  0  0  0
    4.4859   -6.9180    0.0000 C   0  0  0  0  0  0  0  0  0  0  0  0
    6.4857   -6.2694    0.0000 C   0  0  0  0  0  0  0  0  0  0  0  0
    7.3504   -8.4313    0.0000 C   0  0  0  0  0  0  0  0  0  0  0  0
    2.8645   -4.4859    0.0000 C   0  0  0  0  0  0  0  0  0  0  0  0
    7.1342   -5.7290    0.0000 C   0  0  3  0  0  0  0  0  0  0  0  0
    2.8645   -3.7293    0.0000 C   0  0  0  0  0  0  0  0  0  0  0  0
    2.1619   -3.2428    0.0000 C   0  0  0  0  0  0  0  0  0  0  0  0
    1.4593   -3.7293    0.0000 C   0  0  0  0  0  0  0  0  0  0  0  0
    1.4593   -4.4319    0.0000 C   0  0  0  0  0  0  0  0  0  0  0  0
    7.7828   -6.2694    0.0000 C   0  0  0  0  0  0  0  0  0  0  0  0
    3.1888   -2.9185    0.0000 C   0  0  0  0  0  0  0  0  0  0  0  0
    0.7566   -3.2428    0.0000 C   0  0  0  0  0  0  0  0  0  0  0  0
    0.7026   -4.8643    0.0000 C   0  0  0  0  0  0  0  0  0  0  0  0
    7.6747   -4.2697    0.0000 C   0  0  0  0  0  0  0  0  0  0  0  0
    8.5394   -5.9992    0.0000 C   0  0  0  0  0  0  0  0  0  0  0  0
    7.6207   -7.0802    0.0000 C   0  0  0  0  0  0  0  0  0  0  0  0
    1.4593   -2.0538    0.0000 C   0  0  3  0  0  0  0  0  0  0  0  0
    7.2423   -2.7564    0.0000 C   0  0  3  0  0  0  0  0  0  0  0  0
    6.5938   -2.1619    0.0000 C   0  0  3  0  0  0  0  0  0  0  0  0
    0.0000   -3.6752    0.0000 C   0  0  0  0  0  0  0  0  0  0  0  0
    0.0000   -4.4319    0.0000 C   0  0  0  0  0  0  0  0  0  0  0  0
    7.4585   -1.9457    0.0000 C   0  0  0  0  0  0  0  0  0  0  0  0
    3.6752   -2.2700    0.0000 C   0  0  0  0  0  0  0  0  0  0  0  0
    9.1880   -6.5397    0.0000 C   0  0  0  0  0  0  0  0  0  0  0  0
    8.2152   -7.6207    0.0000 C   0  0  0  0  0  0  0  0  0  0  0  0
    1.4593   -1.1890    0.0000 C   0  0  0  0  0  0  0  0  0  0  0  0
    0.7026   -2.4321    0.0000 C   0  0  0  0  0  0  0  0  0  0  0  0
    5.8911   -1.7835    0.0000 C   0  0  0  0  0  0  0  0  0  0  0  0
    4.3238   -1.9457    0.0000 C   0  0  0  0  0  0  0  0  0  0  0  0
    9.0258   -7.3504    0.0000 C   0  0  0  0  0  0  0  0  0  0  0  0
    5.1344   -1.7835    0.0000 C   0  0  0  0  0  0  0  0  0  0  0  0
    0.0000   -2.0538    0.0000 C   0  0  0  0  0  0  0  0  0  0  0  0
    0.0000   -1.1890    0.0000 C   0  0  0  0  0  0  0  0  0  0  0  0
    0.7026    0.0000    0.0000 C   0  0  0  0  0  0  0  0  0  0  0  0
   10.8094   -5.6209    0.0000 C   0  0  0  0  0  0  0  0  0  0  0  0
  1  3  2  0  0  0  0
  1  4  2  0  0  0  0
  1 14  1  0  0  0  0
  1 23  1  0  0  0  0
  2 22  2  0  0  0  0
  5 24  2  0  0  0  0
  6 31  1  0  0  0  0
  6 35  1  0  0  0  0
  7 33  2  0  0  0  0
  8 38  1  0  0  0  0
  8 48  1  0  0  0  0
  9 45  1  0  0  0  0
  9 49  1  0  0  0  0
 10 45  2  0  0  0  0
 11 66  1  0  0  0  0
 12 66  2  0  0  0  0
 19 13  1  1  0  0  0
 13 24  1  0  0  0  0
 14 22  1  0  0  0  0
 15 28  1  0  0  0  0
 15 32  1  0  0  0  0
 15 33  1  0  0  0  0
 16 35  1  0  0  0  0
 16 40  2  0  0  0  0
 17 36  1  0  0  0  0
 17 45  1  0  0  0  0
 18 57  1  0  0  0  0
 18 64  1  0  0  0  0
 18 65  1  0  0  0  0
 19 20  1  0  0  0  0
 19 21  1  0  0  0  0
 19 22  1  6  0  0  0
 20 21  1  0  0  0  0
 20 25  1  6  0  0  0
 23 26  1  0  0  0  0
 23 27  1  0  0  0  0
 23 29  1  0  0  0  0
 28 24  1  6  0  0  0
 25 34  2  0  0  0  0
 26 27  1  0  0  0  0
 28 30  1  0  0  0  0
 31 30  1  1  0  0  0
 31 32  1  0  0  0  0
 36 33  1  1  0  0  0
 35 37  2  0  0  0  0
 36 41  1  0  0  0  0
 37 38  1  0  0  0  0
 37 42  1  0  0  0  0
 38 39  2  0  0  0  0
 39 40  1  0  0  0  0
 39 43  1  0  0  0  0
 40 44  1  0  0  0  0
 41 46  1  0  0  0  0
 41 47  1  0  0  0  0
 42 54  1  0  0  0  0
 43 51  2  0  0  0  0
 44 52  2  0  0  0  0
 46 55  1  0  0  0  0
 47 56  1  0  0  0  0
 48 57  1  0  0  0  0
 48 58  1  0  0  0  0
 49 50  1  0  0  0  0
 49 53  1  1  0  0  0
 50 53  1  6  0  0  0
 50 59  1  0  0  0  0
 51 52  1  0  0  0  0
 54 60  1  0  0  0  0
 55 61  1  0  0  0  0
 56 61  1  0  0  0  0
 58 63  1  0  0  0  0
 59 62  1  0  0  0  0
 60 62  1  0  0  0  0
 63 64  1  0  0  0  0
M  CHG  2  11  -1  18   1
M  END
> <PUBCHEM_COMPOUND_ID_TYPE>
0

> <PUBCHEM_TOTAL_CHARGE>
0

> <PUBCHEM_SUBSTANCE_ID>
310929518

> <PUBCHEM_SUBSTANCE_VERSION>
1

> <PUBCHEM_EXT_DATASOURCE_NAME>
4488

> <PUBCHEM_EXT_DATASOURCE_REGID>
SCHEMBL16106697

> <PUBCHEM_SUBSTANCE_COMMENT>
InChI=1S/C47H64N6O9S.CH2O2/c1-4-31-26-47(31,44(56)51-63(58,59)46(2)21-22-46)50-41(54)37-25-33-28-53(37)43(55)39(29-14-7-5-8-15-29)49-45(57)62-38-24-30(38)16-9-6-10-19-35-40(60-32-17-13-23-52(3)27-32)34-18-11-12-20-36(34)48-42(35)61-33;2-1-3/h4,11-12,18,20,29-33,37-39H,1,5-10,13-17,19,21-28H2,2-3H3,(H,49,57)(H,50,54)(H,51,56);1H,(H,2,3)/t30-,31-,32?,33-,37+,38-,39+,47-;/m1./s1
InChIKey=IKWCTTSTUOVHMS-IUBGLPEKSA-N

> <PUBCHEM_SUBSTANCE_SYNONYM>
SCHEMBL16106697

> <PUBCHEM_XREF_EXT_ID>
SCHEMBL16106697

> <PUBCHEM_EXT_DATASOURCE_URL>
https://www.surechembl.org/

> <PUBCHEM_EXT_SUBSTANCE_URL>
https://www.surechembl.org/chemical/SCHEMBL16106697

> <PUBCHEM_CID_ASSOCIATIONS>
117598841  1
284  2
117598842  2

> <PUBCHEM_COORDINATE_TYPE>
1
3

> <PUBCHEM_BONDANNOTATIONS>
19  13  5
19  22  6
20  25  6
28  24  6
31  30  5
36  33  5
49  53  5
50  53  6

$$$$
