310946200
  -OEChem-07211613022D

 15 18  0     1  0  0  0  0  0999 V2000
   -0.7254   -0.8314    0.0000 O   0  0  0  0  0  0  0  0  0  0  0  0
   -1.6547    0.7988    0.0000 O   0  0  0  0  0  0  0  0  0  0  0  0
    1.3939   -0.4565    0.0000 C   0  0  3  0  0  0  0  0  0  0  0  0
    1.0841   -0.7988    0.0000 C   0  0  3  0  0  0  0  0  0  0  0  0
    1.7036   -0.7988    0.0000 C   0  0  3  0  0  0  0  0  0  0  0  0
    0.2364   -0.2771    0.0000 C   0  0  3  0  0  0  0  0  0  0  0  0
    0.4809    0.5380    0.0000 C   0  0  3  0  0  0  0  0  0  0  0  0
    0.8885   -0.1793    0.0000 C   0  0  0  0  0  0  0  0  0  0  0  0
    1.4590   -1.4509    0.0000 C   0  0  0  0  0  0  0  0  0  0  0  0
    1.9319   -0.1630    0.0000 C   0  0  0  0  0  0  0  0  0  0  0  0
    2.3068    0.5380    0.0000 C   0  0  3  0  0  0  0  0  0  0  0  0
    2.5513   -0.2771    0.0000 C   0  0  0  0  0  0  0  0  0  0  0  0
    1.3939    1.4509    0.0000 C   0  0  0  0  0  0  0  0  0  0  0  0
   -1.6547   -0.2934    0.0000 C   0  0  0  0  0  0  0  0  0  0  0  0
   -2.5513   -0.8477    0.0000 C   0  0  0  0  0  0  0  0  0  0  0  0
  1  6  1  0  0  0  0
  1 14  1  0  0  0  0
  2 14  2  0  0  0  0
  3  4  1  0  0  0  0
  3  5  1  0  0  0  0
  3  8  1  0  0  0  0
  3 10  1  0  0  0  0
  4  6  1  0  0  0  0
  4  9  1  0  0  0  0
  5  9  1  0  0  0  0
  5 12  1  0  0  0  0
  6  7  1  0  0  0  0
  7  8  1  0  0  0  0
  7 13  1  0  0  0  0
 10 11  1  0  0  0  0
 11 12  1  0  0  0  0
 11 13  1  0  0  0  0
 14 15  1  0  0  0  0
M  END
> <PUBCHEM_COMPOUND_ID_TYPE>
0

> <PUBCHEM_TOTAL_CHARGE>
0

> <PUBCHEM_SUBSTANCE_ID>
310946200

> <PUBCHEM_SUBSTANCE_VERSION>
1

> <PUBCHEM_EXT_DATASOURCE_NAME>
4488

> <PUBCHEM_EXT_DATASOURCE_REGID>
SCHEMBL16124312

> <PUBCHEM_SUBSTANCE_COMMENT>
InChI=1S/C13H18O2/c1-7(14)15-12-9-2-8-3-10-4-11(12)13(10,5-8)6-9/h8-12H,2-6H2,1H3
InChIKey=MYGIMSHZPKEHOK-UHFFFAOYSA-N

> <PUBCHEM_SUBSTANCE_SYNONYM>
SCHEMBL16124312

> <PUBCHEM_XREF_EXT_ID>
SCHEMBL16124312

> <PUBCHEM_EXT_DATASOURCE_URL>
https://www.surechembl.org/

> <PUBCHEM_EXT_SUBSTANCE_URL>
https://www.surechembl.org/chemical/SCHEMBL16124312

> <PUBCHEM_CID_ASSOCIATIONS>
117612150  1

> <PUBCHEM_COORDINATE_TYPE>
1
3

$$$$
