310938663
  -OEChem-07211613022D

 27 30  0     1  0  0  0  0  0999 V2000
    0.3390   -2.2247    0.0000 Cl  0  0  0  0  0  0  0  0  0  0  0  0
    3.1969   -4.6996    0.0000 O   0  0  0  0  0  0  0  0  0  0  0  0
    3.9113   -5.9370    0.0000 O   0  0  0  0  0  0  0  0  0  0  0  0
    5.3402   -5.9370    0.0000 O   0  0  0  0  0  0  0  0  0  0  0  0
   -1.9367   -3.5385    0.0000 O   0  0  0  0  0  0  0  0  0  0  0  0
    4.6257   -2.2247    0.0000 N   0  0  0  0  0  0  0  0  0  0  0  0
    3.9113   -3.4621    0.0000 N   0  0  0  0  0  0  0  0  0  0  0  0
    5.3402   -3.4621    0.0000 N   0  0  0  0  0  0  0  0  0  0  0  0
    5.0382   -0.9551    0.0000 C   0  0  3  0  0  0  0  0  0  0  0  0
    4.2132   -0.9551    0.0000 C   0  0  3  0  0  0  0  0  0  0  0  0
    4.6257   -0.2407    0.0000 C   0  0  0  0  0  0  0  0  0  0  0  0
    4.6257   -3.0496    0.0000 C   0  0  0  0  0  0  0  0  0  0  0  0
    3.9583   -1.7397    0.0000 C   0  0  0  0  0  0  0  0  0  0  0  0
    5.2932   -1.7397    0.0000 C   0  0  0  0  0  0  0  0  0  0  0  0
    3.9113   -4.2871    0.0000 C   0  0  0  0  0  0  0  0  0  0  0  0
    4.6257   -4.6996    0.0000 C   0  0  0  0  0  0  0  0  0  0  0  0
    5.3402   -4.2871    0.0000 C   0  0  0  0  0  0  0  0  0  0  0  0
    4.6257   -5.5246    0.0000 C   0  0  0  0  0  0  0  0  0  0  0  0
    2.4823   -4.2871    0.0000 C   0  0  0  0  0  0  0  0  0  0  0  0
    1.0535   -4.2871    0.0000 C   0  0  0  0  0  0  0  0  0  0  0  0
    0.3390   -3.0496    0.0000 C   0  0  0  0  0  0  0  0  0  0  0  0
    1.7678   -4.6996    0.0000 C   0  0  0  0  0  0  0  0  0  0  0  0
   -0.3755   -3.4621    0.0000 C   0  0  0  0  0  0  0  0  0  0  0  0
    1.0535   -3.4621    0.0000 C   0  0  0  0  0  0  0  0  0  0  0  0
    0.3390   -4.6996    0.0000 C   0  0  0  0  0  0  0  0  0  0  0  0
   -0.3755   -4.2871    0.0000 C   0  0  0  0  0  0  0  0  0  0  0  0
   -1.0899   -3.0496    0.0000 C   0  0  0  0  0  0  0  0  0  0  0  0
  1 21  1  0  0  0  0
  2 15  1  0  0  0  0
  2 19  1  0  0  0  0
  3 18  2  0  0  0  0
  4 18  1  0  0  0  0
  5 27  1  0  0  0  0
  6 12  1  0  0  0  0
  6 13  1  0  0  0  0
  6 14  1  0  0  0  0
  7 12  1  0  0  0  0
  7 15  2  0  0  0  0
  8 12  2  0  0  0  0
  8 17  1  0  0  0  0
  9 10  1  0  0  0  0
  9 11  1  0  0  0  0
  9 14  1  0  0  0  0
 10 11  1  0  0  0  0
 10 13  1  0  0  0  0
 15 16  1  0  0  0  0
 16 17  2  0  0  0  0
 16 18  1  0  0  0  0
 19 22  1  0  0  0  0
 20 22  1  0  0  0  0
 20 24  2  0  0  0  0
 20 25  1  0  0  0  0
 21 23  2  0  0  0  0
 21 24  1  0  0  0  0
 23 26  1  0  0  0  0
 23 27  1  0  0  0  0
 25 26  2  0  0  0  0
M  END
> <PUBCHEM_COMPOUND_ID_TYPE>
0

> <PUBCHEM_TOTAL_CHARGE>
0

> <PUBCHEM_SUBSTANCE_ID>
310938663

> <PUBCHEM_SUBSTANCE_VERSION>
1

> <PUBCHEM_EXT_DATASOURCE_NAME>
4488

> <PUBCHEM_EXT_DATASOURCE_REGID>
SCHEMBL16116577

> <PUBCHEM_SUBSTANCE_COMMENT>
InChI=1S/C19H20ClN3O4/c20-16-5-11(1-2-12(16)10-24)3-4-27-17-15(18(25)26)7-21-19(22-17)23-8-13-6-14(13)9-23/h1-2,5,7,13-14,24H,3-4,6,8-10H2,(H,25,26)
InChIKey=PFCMSPHXZAWPKP-UHFFFAOYSA-N

> <PUBCHEM_SUBSTANCE_SYNONYM>
SCHEMBL16116577

> <PUBCHEM_XREF_EXT_ID>
SCHEMBL16116577

> <PUBCHEM_EXT_DATASOURCE_URL>
https://www.surechembl.org/

> <PUBCHEM_EXT_SUBSTANCE_URL>
https://www.surechembl.org/chemical/SCHEMBL16116577

> <PUBCHEM_CID_ASSOCIATIONS>
117606095  1

> <PUBCHEM_COORDINATE_TYPE>
1
3

$$$$
