310940206
  -OEChem-07211613022D

 39 44  0     1  0  0  0  0  0999 V2000
    1.9987   -2.5371    0.0000 S   0  0  0  0  0  0  0  0  0  0  0  0
    2.7653   -2.8656    0.0000 O   0  0  0  0  0  0  0  0  0  0  0  0
    2.0899   -3.3584    0.0000 O   0  0  0  0  0  0  0  0  0  0  0  0
   -3.0390   -2.2268    0.0000 O   0  0  0  0  0  0  0  0  0  0  0  0
    1.3598    2.3181    0.0000 O   0  0  0  0  0  0  0  0  0  0  0  0
    0.3924    3.3584    0.0000 O   0  0  0  0  0  0  0  0  0  0  0  0
   -1.5241    0.0913    0.0000 N   0  0  0  0  0  0  0  0  0  0  0  0
   -1.0312   -0.5658    0.0000 N   0  0  0  0  0  0  0  0  0  0  0  0
    2.2542   -1.7523    0.0000 N   0  0  3  0  0  0  0  0  0  0  0  0
   -1.2685   -2.0261    0.0000 N   0  0  0  0  0  0  0  0  0  0  0  0
   -3.7509   -0.9856    0.0000 N   0  0  0  0  0  0  0  0  0  0  0  0
   -0.0456    2.0078    0.0000 N   0  0  0  0  0  0  0  0  0  0  0  0
   -3.2033    1.8435    0.0000 N   0  0  0  0  0  0  0  0  0  0  0  0
   -1.2685    0.8761    0.0000 C   0  0  0  0  0  0  0  0  0  0  0  0
   -2.2907   -0.1460    0.0000 C   0  0  0  0  0  0  0  0  0  0  0  0
   -2.3090   -0.9673    0.0000 C   0  0  0  0  0  0  0  0  0  0  0  0
   -1.5241   -1.2411    0.0000 C   0  0  0  0  0  0  0  0  0  0  0  0
    1.1590   -2.5371    0.0000 C   0  0  0  0  0  0  0  0  0  0  0  0
    0.9035   -1.7705    0.0000 C   0  0  0  0  0  0  0  0  0  0  0  0
   -3.0208   -1.3689    0.0000 C   0  0  0  0  0  0  0  0  0  0  0  0
   -0.4472   -2.1903    0.0000 C   0  0  0  0  0  0  0  0  0  0  0  0
    1.5788   -1.2594    0.0000 C   0  0  0  0  0  0  0  0  0  0  0  0
   -3.0390    0.2555    0.0000 C   0  0  0  0  0  0  0  0  0  0  0  0
   -1.4146    1.7158    0.0000 C   0  0  0  0  0  0  0  0  0  0  0  0
   -0.4654    0.6388    0.0000 C   0  0  0  0  0  0  0  0  0  0  0  0
    0.1004   -1.5880    0.0000 C   0  0  0  0  0  0  0  0  0  0  0  0
    0.6297   -3.1394    0.0000 C   0  0  0  0  0  0  0  0  0  0  0  0
   -2.0717    0.7118    0.0000 C   0  0  0  0  0  0  0  0  0  0  0  0
   -0.1916   -2.9752    0.0000 C   0  0  0  0  0  0  0  0  0  0  0  0
    3.0390   -1.4967    0.0000 C   0  0  0  0  0  0  0  0  0  0  0  0
   -3.7509   -0.1460    0.0000 C   0  0  0  0  0  0  0  0  0  0  0  0
   -0.8122    2.2451    0.0000 C   0  0  0  0  0  0  0  0  0  0  0  0
    0.1551    1.1864    0.0000 C   0  0  0  0  0  0  0  0  0  0  0  0
    3.2216   -0.6571    0.0000 C   0  0  0  0  0  0  0  0  0  0  0  0
   -2.6557    1.2959    0.0000 C   0  0  0  0  0  0  0  0  0  0  0  0
    2.9843    0.0913    0.0000 C   0  0  0  0  0  0  0  0  0  0  0  0
    3.7509   -0.0730    0.0000 C   0  0  0  0  0  0  0  0  0  0  0  0
    0.5749    2.5554    0.0000 C   0  0  0  0  0  0  0  0  0  0  0  0
    1.9804    2.8839    0.0000 C   0  0  0  0  0  0  0  0  0  0  0  0
  1  2  2  0  0  0  0
  1  3  2  0  0  0  0
  1  9  1  0  0  0  0
  1 18  1  0  0  0  0
  4 20  2  0  0  0  0
  5 38  1  0  0  0  0
  5 39  1  0  0  0  0
  6 38  2  0  0  0  0
  7  8  1  0  0  0  0
  7 14  1  0  0  0  0
  7 15  1  0  0  0  0
  8 17  2  0  0  0  0
  9 22  1  0  0  0  0
  9 30  1  0  0  0  0
 10 17  1  0  0  0  0
 10 21  1  0  0  0  0
 11 20  1  0  0  0  0
 11 31  1  0  0  0  0
 12 32  1  0  0  0  0
 12 33  1  0  0  0  0
 12 38  1  0  0  0  0
 13 35  3  0  0  0  0
 14 24  1  0  0  0  0
 14 25  1  0  0  0  0
 14 28  1  0  0  0  0
 15 16  2  0  0  0  0
 15 23  1  0  0  0  0
 16 17  1  0  0  0  0
 16 20  1  0  0  0  0
 18 19  2  0  0  0  0
 18 27  1  0  0  0  0
 19 22  1  0  0  0  0
 19 26  1  0  0  0  0
 21 26  2  0  0  0  0
 21 29  1  0  0  0  0
 23 31  2  0  0  0  0
 24 32  1  0  0  0  0
 25 33  1  0  0  0  0
 27 29  2  0  0  0  0
 28 35  1  0  0  0  0
 30 34  1  0  0  0  0
 34 36  1  0  0  0  0
 34 37  1  0  0  0  0
 36 37  1  0  0  0  0
M  END
> <PUBCHEM_COMPOUND_ID_TYPE>
0

> <PUBCHEM_TOTAL_CHARGE>
0

> <PUBCHEM_SUBSTANCE_ID>
310940206

> <PUBCHEM_SUBSTANCE_VERSION>
1

> <PUBCHEM_EXT_DATASOURCE_NAME>
4488

> <PUBCHEM_EXT_DATASOURCE_REGID>
SCHEMBL16118140

> <PUBCHEM_SUBSTANCE_COMMENT>
InChI=1S/C26H29N7O5S/c1-38-25(35)31-12-8-26(7-10-27,9-13-31)33-20-6-11-28-24(34)22(20)23(30-33)29-19-4-5-21-18(14-19)16-32(39(21,36)37)15-17-2-3-17/h4-6,11,14,17H,2-3,7-9,12-13,15-16H2,1H3,(H,28,34)(H,29,30)
InChIKey=NPGRFVWWRRRWNJ-UHFFFAOYSA-N

> <PUBCHEM_SUBSTANCE_SYNONYM>
SCHEMBL16118140

> <PUBCHEM_XREF_EXT_ID>
SCHEMBL16118140

> <PUBCHEM_EXT_DATASOURCE_URL>
https://www.surechembl.org/

> <PUBCHEM_EXT_SUBSTANCE_URL>
https://www.surechembl.org/chemical/SCHEMBL16118140

> <PUBCHEM_CID_ASSOCIATIONS>
86273120  1

> <PUBCHEM_COORDINATE_TYPE>
1
3

$$$$
