310949449
  -OEChem-07211613022D

  9  8  0     1  0  0  0  0  0999 V2000
    0.1521   -0.0543    0.0000 N   0  0  3  0  0  0  0  0  0  0  0  0
   -0.7932   -1.1083    0.0000 N   0  0  0  0  0  0  0  0  0  0  0  0
   -0.4455    0.5107    0.0000 C   0  0  0  0  0  0  0  0  0  0  0  0
   -0.2390    1.3147    0.0000 C   0  0  0  0  0  0  0  0  0  0  0  0
   -0.0217   -0.8258    0.0000 C   0  0  0  0  0  0  0  0  0  0  0  0
    0.9562    0.2064    0.0000 C   0  0  0  0  0  0  0  0  0  0  0  0
   -0.8258    1.8798    0.0000 C   0  0  0  0  0  0  0  0  0  0  0  0
    0.5650    1.4995    0.0000 C   0  0  0  0  0  0  0  0  0  0  0  0
   -0.9562   -1.8798    0.0000 C   0  0  0  0  0  0  0  0  0  0  0  0
  1  3  1  0  0  0  0
  1  5  1  0  0  0  0
  1  6  1  0  0  0  0
  2  5  1  0  0  0  0
  2  9  1  0  0  0  0
  3  4  1  0  0  0  0
  4  7  1  0  0  0  0
  4  8  1  0  0  0  0
M  END
> <PUBCHEM_COMPOUND_ID_TYPE>
0

> <PUBCHEM_TOTAL_CHARGE>
0

> <PUBCHEM_SUBSTANCE_ID>
310949449

> <PUBCHEM_SUBSTANCE_VERSION>
1

> <PUBCHEM_EXT_DATASOURCE_NAME>
4488

> <PUBCHEM_EXT_DATASOURCE_REGID>
SCHEMBL16127643

> <PUBCHEM_SUBSTANCE_COMMENT>
InChI=1S/C7H18N2/c1-7(2)5-9(4)6-8-3/h7-8H,5-6H2,1-4H3
InChIKey=OWSGPMXYVIFASO-UHFFFAOYSA-N

> <PUBCHEM_SUBSTANCE_SYNONYM>
SCHEMBL16127643

> <PUBCHEM_XREF_EXT_ID>
SCHEMBL16127643

> <PUBCHEM_EXT_DATASOURCE_URL>
https://www.surechembl.org/

> <PUBCHEM_EXT_SUBSTANCE_URL>
https://www.surechembl.org/chemical/SCHEMBL16127643

> <PUBCHEM_CID_ASSOCIATIONS>
115226613  1

> <PUBCHEM_COORDINATE_TYPE>
1
3

$$$$
