310946092
  -OEChem-07211613022D

 13 12  0     1  0  0  0  0  0999 V2000
   -0.5066    3.6975    0.0000 O   0  0  0  0  0  0  0  0  0  0  0  0
   -1.2211    4.9350    0.0000 O   0  0  0  0  0  0  0  0  0  0  0  0
    0.2079    4.1100    0.0000 C   0  0  0  0  0  0  0  0  0  0  0  0
    0.9223    3.6975    0.0000 C   0  0  3  0  0  0  0  0  0  0  0  0
   -1.2211    4.1100    0.0000 C   0  0  0  0  0  0  0  0  0  0  0  0
   -1.9356    3.6975    0.0000 C   0  0  0  0  0  0  0  0  0  0  0  0
   -0.2046    4.8245    0.0000 C   0  0  0  0  0  0  0  0  0  0  0  0
    0.6204    4.8245    0.0000 C   0  0  0  0  0  0  0  0  0  0  0  0
    1.6368    4.1100    0.0000 C   0  0  0  0  0  0  0  0  0  0  0  0
    0.9223    2.8725    0.0000 C   0  0  0  0  0  0  0  0  0  0  0  0
   -2.3481    4.4120    0.0000 C   0  0  0  0  0  0  0  0  0  0  0  0
   -1.5231    2.9830    0.0000 C   0  0  0  0  0  0  0  0  0  0  0  0
    2.3513    3.6975    0.0000 C   0  0  0  0  0  0  0  0  0  0  0  0
  1  3  1  0  0  0  0
  1  5  1  0  0  0  0
  2  5  2  0  0  0  0
  3  4  1  0  0  0  0
  3  7  1  0  0  0  0
  3  8  1  0  0  0  0
  4  9  1  0  0  0  0
  4 10  1  0  0  0  0
  5  6  1  0  0  0  0
  6 11  1  0  0  0  0
  6 12  1  0  0  0  0
  9 13  1  0  0  0  0
M  END
> <PUBCHEM_COMPOUND_ID_TYPE>
0

> <PUBCHEM_TOTAL_CHARGE>
0

> <PUBCHEM_SUBSTANCE_ID>
310946092

> <PUBCHEM_SUBSTANCE_VERSION>
1

> <PUBCHEM_EXT_DATASOURCE_NAME>
4488

> <PUBCHEM_EXT_DATASOURCE_REGID>
SCHEMBL16124199

> <PUBCHEM_SUBSTANCE_COMMENT>
InChI=1S/C11H22O2/c1-7-9(4)11(5,6)13-10(12)8(2)3/h8-9H,7H2,1-6H3
InChIKey=MPCQKOASEFVQFO-UHFFFAOYSA-N

> <PUBCHEM_SUBSTANCE_SYNONYM>
SCHEMBL16124199

> <PUBCHEM_XREF_EXT_ID>
SCHEMBL16124199

> <PUBCHEM_EXT_DATASOURCE_URL>
https://www.surechembl.org/

> <PUBCHEM_EXT_SUBSTANCE_URL>
https://www.surechembl.org/chemical/SCHEMBL16124199

> <PUBCHEM_CID_ASSOCIATIONS>
117612057  1

> <PUBCHEM_COORDINATE_TYPE>
1
3

> <PUBCHEM_BONDANNOTATIONS>
6  11  3
6  12  3

$$$$
