310931711
  -OEChem-07211613022D

 26 28  0     1  0  0  0  0  0999 V2000
    3.2998    0.0000    0.0000 O   0  0  0  0  0  0  0  0  0  0  0  0
    4.4160   -1.9654    0.0000 O   0  0  0  0  0  0  0  0  0  0  0  0
    5.1439   -0.7279    0.0000 O   0  0  0  0  0  0  0  0  0  0  0  0
    0.0000   -2.3778    0.0000 O   0  0  0  0  0  0  0  0  0  0  0  0
    3.7123   -0.7279    0.0000 C   0  0  3  0  0  0  0  0  0  0  0  0
    2.8874   -0.7279    0.0000 C   0  0  3  0  0  0  0  0  0  0  0  0
    3.4940   -1.5286    0.0000 C   0  0  0  0  0  0  0  0  0  0  0  0
    4.4160   -1.1404    0.0000 C   0  0  0  0  0  0  0  0  0  0  0  0
    2.1594   -1.1404    0.0000 C   0  0  0  0  0  0  0  0  0  0  0  0
    4.0763   -2.1109    0.0000 C   0  0  0  0  0  0  0  0  0  0  0  0
    2.6932   -1.7469    0.0000 C   0  0  0  0  0  0  0  0  0  0  0  0
    2.1594   -1.9654    0.0000 C   0  0  0  0  0  0  0  0  0  0  0  0
    1.4315   -0.7279    0.0000 C   0  0  0  0  0  0  0  0  0  0  0  0
    3.8579   -2.9116    0.0000 C   0  0  0  0  0  0  0  0  0  0  0  0
    2.4749   -2.5477    0.0000 C   0  0  0  0  0  0  0  0  0  0  0  0
    3.0572   -3.1300    0.0000 C   0  0  0  0  0  0  0  0  0  0  0  0
    1.4315   -2.3778    0.0000 C   0  0  0  0  0  0  0  0  0  0  0  0
    0.7279   -1.1404    0.0000 C   0  0  0  0  0  0  0  0  0  0  0  0
    0.7279   -1.9654    0.0000 C   0  0  0  0  0  0  0  0  0  0  0  0
    5.1439   -2.3778    0.0000 C   0  0  0  0  0  0  0  0  0  0  0  0
    2.8388   -3.9307    0.0000 C   0  0  0  0  0  0  0  0  0  0  0  0
    5.1439   -3.2028    0.0000 C   0  0  0  0  0  0  0  0  0  0  0  0
    5.8475   -3.6152    0.0000 C   0  0  0  0  0  0  0  0  0  0  0  0
    0.0000   -3.2028    0.0000 C   0  0  0  0  0  0  0  0  0  0  0  0
    5.8718   -4.4402    0.0000 C   0  0  0  0  0  0  0  0  0  0  0  0
    6.5754   -4.8527    0.0000 C   0  0  0  0  0  0  0  0  0  0  0  0
  1  5  1  0  0  0  0
  1  6  1  0  0  0  0
  2  8  1  0  0  0  0
  2 20  1  0  0  0  0
  3  8  2  0  0  0  0
  4 19  1  0  0  0  0
  4 24  1  0  0  0  0
  5  6  1  0  0  0  0
  5  7  1  0  0  0  0
  5  8  1  0  0  0  0
  6  9  1  0  0  0  0
  7 10  2  0  0  0  0
  7 11  1  0  0  0  0
  9 12  2  0  0  0  0
  9 13  1  0  0  0  0
 10 14  1  0  0  0  0
 11 15  2  0  0  0  0
 12 17  1  0  0  0  0
 13 18  2  0  0  0  0
 14 16  2  0  0  0  0
 15 16  1  0  0  0  0
 16 21  1  0  0  0  0
 17 19  2  0  0  0  0
 18 19  1  0  0  0  0
 20 22  1  0  0  0  0
 22 23  1  0  0  0  0
 23 25  1  0  0  0  0
 25 26  1  0  0  0  0
M  END
> <PUBCHEM_COMPOUND_ID_TYPE>
0

> <PUBCHEM_TOTAL_CHARGE>
0

> <PUBCHEM_SUBSTANCE_ID>
310931711

> <PUBCHEM_SUBSTANCE_VERSION>
1

> <PUBCHEM_EXT_DATASOURCE_NAME>
4488

> <PUBCHEM_EXT_DATASOURCE_REGID>
SCHEMBL16109040

> <PUBCHEM_SUBSTANCE_COMMENT>
InChI=1S/C22H26O4/c1-4-5-6-15-25-21(23)22(18-11-7-16(2)8-12-18)20(26-22)17-9-13-19(24-3)14-10-17/h7-14,20H,4-6,15H2,1-3H3
InChIKey=YDIMPXZYYJDXDS-UHFFFAOYSA-N

> <PUBCHEM_SUBSTANCE_SYNONYM>
SCHEMBL16109040

> <PUBCHEM_XREF_EXT_ID>
SCHEMBL16109040

> <PUBCHEM_EXT_DATASOURCE_URL>
https://www.surechembl.org/

> <PUBCHEM_EXT_SUBSTANCE_URL>
https://www.surechembl.org/chemical/SCHEMBL16109040

> <PUBCHEM_CID_ASSOCIATIONS>
117600410  1

> <PUBCHEM_COORDINATE_TYPE>
1
3

$$$$
