310940311
  -OEChem-07211613022D

 20 22  0     1  0  0  0  0  0999 V2000
   -0.7606   -0.6107    0.0000 F   0  0  0  0  0  0  0  0  0  0  0  0
    2.1320    0.1071    0.0000 O   0  0  0  0  0  0  0  0  0  0  0  0
    2.1427   -1.3500    0.0000 O   0  0  0  0  0  0  0  0  0  0  0  0
    1.7249    0.8571    0.0000 C   0  0  0  0  0  0  0  0  0  0  0  0
    2.4106    1.2856    0.0000 C   0  0  0  0  0  0  0  0  0  0  0  0
    1.7249    1.6713    0.0000 C   0  0  0  0  0  0  0  0  0  0  0  0
    0.9106    0.8571    0.0000 C   0  0  0  0  0  0  0  0  0  0  0  0
    1.7142   -0.6107    0.0000 C   0  0  3  0  0  0  0  0  0  0  0  0
    0.0643    0.8356    0.0000 C   0  0  0  0  0  0  0  0  0  0  0  0
   -0.7714    0.8571    0.0000 C   0  0  0  0  0  0  0  0  0  0  0  0
   -1.1785    0.1286    0.0000 C   0  0  0  0  0  0  0  0  0  0  0  0
   -1.1677    1.5749    0.0000 C   0  0  0  0  0  0  0  0  0  0  0  0
    0.8892   -0.6107    0.0000 C   0  0  0  0  0  0  0  0  0  0  0  0
   -1.9927    1.5856    0.0000 C   0  0  0  0  0  0  0  0  0  0  0  0
   -2.0142    0.1393    0.0000 C   0  0  0  0  0  0  0  0  0  0  0  0
   -2.4106    0.8463    0.0000 C   0  0  0  0  0  0  0  0  0  0  0  0
    1.7249   -2.0570    0.0000 C   0  0  0  0  0  0  0  0  0  0  0  0
    0.4928   -1.3392    0.0000 C   0  0  0  0  0  0  0  0  0  0  0  0
    0.8892   -2.0463    0.0000 C   0  0  0  0  0  0  0  0  0  0  0  0
   -2.2606    2.0570    0.0000 C   0  0  0  0  0  0  0  0  0  0  0  0
  1 11  1  0  0  0  0
  2  4  1  0  0  0  0
  2  8  1  0  0  0  0
  3  8  1  0  0  0  0
  3 17  1  0  0  0  0
  4  5  1  0  0  0  0
  4  6  1  0  0  0  0
  4  7  1  0  0  0  0
  5  6  1  0  0  0  0
  7  9  3  0  0  0  0
  8 13  1  0  0  0  0
  9 10  1  0  0  0  0
 10 11  1  0  0  0  0
 10 12  2  0  0  0  0
 11 15  2  0  0  0  0
 12 14  1  0  0  0  0
 13 18  1  0  0  0  0
 14 16  2  0  0  0  0
 14 20  1  0  0  0  0
 15 16  1  0  0  0  0
 17 19  1  0  0  0  0
 18 19  1  0  0  0  0
M  END
> <PUBCHEM_COMPOUND_ID_TYPE>
0

> <PUBCHEM_TOTAL_CHARGE>
0

> <PUBCHEM_SUBSTANCE_ID>
310940311

> <PUBCHEM_SUBSTANCE_VERSION>
1

> <PUBCHEM_EXT_DATASOURCE_NAME>
4488

> <PUBCHEM_EXT_DATASOURCE_REGID>
SCHEMBL16118255

> <PUBCHEM_SUBSTANCE_COMMENT>
InChI=1S/C17H19FO2/c1-13-5-6-15(18)14(12-13)7-8-17(9-10-17)20-16-4-2-3-11-19-16/h5-6,12,16H,2-4,9-11H2,1H3
InChIKey=AQIPXSXPNKHOPG-UHFFFAOYSA-N

> <PUBCHEM_SUBSTANCE_SYNONYM>
SCHEMBL16118255

> <PUBCHEM_XREF_EXT_ID>
SCHEMBL16118255

> <PUBCHEM_EXT_DATASOURCE_URL>
https://www.surechembl.org/

> <PUBCHEM_EXT_SUBSTANCE_URL>
https://www.surechembl.org/chemical/SCHEMBL16118255

> <PUBCHEM_CID_ASSOCIATIONS>
117607381  1

> <PUBCHEM_COORDINATE_TYPE>
1
3

$$$$
