310940151
  -OEChem-07211613022D

 40 43  0     1  0  0  0  0  0999 V2000
    2.3768   -3.1380    0.0000 S   0  0  0  0  0  0  0  0  0  0  0  0
   -2.5160   -4.2061    0.0000 O   0  0  0  0  0  0  0  0  0  0  0  0
   -1.0860    2.1855    0.0000 O   0  0  0  0  0  0  0  0  0  0  0  0
   -2.5160    2.1855    0.0000 O   0  0  0  0  0  0  0  0  0  0  0  0
    2.3768   -3.1380    0.0000 O   0  0  0  0  0  0  0  0  0  0  0  0
    2.3768   -3.1380    0.0000 O   0  0  0  0  0  0  0  0  0  0  0  0
   -0.3624    4.2528    0.0000 O   0  0  0  0  0  0  0  0  0  0  0  0
   -1.7924   -1.5359    0.0000 N   0  0  0  0  0  0  0  0  0  0  0  0
   -1.1205   -2.0182    0.0000 N   0  0  0  0  0  0  0  0  0  0  0  0
   -0.8965   -3.4654    0.0000 N   0  0  0  0  0  0  0  0  0  0  0  0
   -3.5669   -3.2414    0.0000 N   0  0  0  0  0  0  0  0  0  0  0  0
   -1.7924    0.9450    0.0000 N   0  0  0  0  0  0  0  0  0  0  0  0
    2.3768   -3.1380    0.0000 N   0  0  0  0  0  0  0  0  0  0  0  0
    0.3784   -0.3471    0.0000 N   0  0  0  0  0  0  0  0  0  0  0  0
   -1.7752   -0.7089    0.0000 C   0  0  0  0  0  0  0  0  0  0  0  0
   -2.4815   -2.0354    0.0000 C   0  0  0  0  0  0  0  0  0  0  0  0
   -2.2231   -2.7762    0.0000 C   0  0  0  0  0  0  0  0  0  0  0  0
   -1.3962   -2.7935    0.0000 C   0  0  0  0  0  0  0  0  0  0  0  0
   -2.7744   -3.4137    0.0000 C   0  0  0  0  0  0  0  0  0  0  0  0
   -2.5160   -0.2781    0.0000 C   0  0  0  0  0  0  0  0  0  0  0  0
   -1.0860   -0.2954    0.0000 C   0  0  0  0  0  0  0  0  0  0  0  0
   -3.2740   -1.8459    0.0000 C   0  0  0  0  0  0  0  0  0  0  0  0
   -1.0860   -1.1051    0.0000 C   0  0  0  0  0  0  0  0  0  0  0  0
   -2.4987    0.5488    0.0000 C   0  0  0  0  0  0  0  0  0  0  0  0
   -1.0860    0.5316    0.0000 C   0  0  0  0  0  0  0  0  0  0  0  0
   -3.8253   -2.4489    0.0000 C   0  0  0  0  0  0  0  0  0  0  0  0
   -0.0696   -3.3792    0.0000 C   0  0  0  0  0  0  0  0  0  0  0  0
   -0.3624   -0.7089    0.0000 C   0  0  0  0  0  0  0  0  0  0  0  0
   -1.7924    1.7719    0.0000 C   0  0  0  0  0  0  0  0  0  0  0  0
    1.5671   -3.1897    0.0000 C   0  0  0  0  0  0  0  0  0  0  0  0
    0.4128   -4.0338    0.0000 C   0  0  0  0  0  0  0  0  0  0  0  0
    0.2750   -2.6212    0.0000 C   0  0  0  0  0  0  0  0  0  0  0  0
    1.2225   -3.9477    0.0000 C   0  0  0  0  0  0  0  0  0  0  0  0
    1.0674   -2.5523    0.0000 C   0  0  0  0  0  0  0  0  0  0  0  0
   -1.0860    3.0296    0.0000 C   0  0  3  0  0  0  0  0  0  0  0  0
    3.8253   -4.6318    0.0000 C   0  0  0  0  0  0  0  0  0  0  0  0
    3.8253   -4.6318    0.0000 C   0  0  0  0  0  0  0  0  0  0  0  0
   -0.3797    3.4258    0.0000 C   0  0  0  0  0  0  0  0  0  0  0  0
   -2.1886    3.4258    0.0000 C   0  0  0  0  0  0  0  0  0  0  0  0
    0.3611    4.6318    0.0000 C   0  0  0  0  0  0  0  0  0  0  0  0
  1  5  2  0  0  0  0
  1  6  2  0  0  0  0
  1 13  1  0  0  0  0
  1 30  1  0  0  0  0
  2 19  2  0  0  0  0
  3 29  1  0  0  0  0
  3 35  1  0  0  0  0
  4 29  2  0  0  0  0
  7 38  1  0  0  0  0
  7 40  1  0  0  0  0
  8  9  1  0  0  0  0
  8 15  1  0  0  0  0
  8 16  1  0  0  0  0
  9 18  2  0  0  0  0
 10 18  1  0  0  0  0
 10 27  1  0  0  0  0
 11 19  1  0  0  0  0
 11 26  1  0  0  0  0
 12 24  1  0  0  0  0
 12 25  1  0  0  0  0
 12 29  1  0  0  0  0
 13 36  1  0  0  0  0
 13 37  1  0  0  0  0
 14 28  3  0  0  0  0
 15 20  1  0  0  0  0
 15 21  1  0  0  0  0
 15 23  1  0  0  0  0
 16 17  2  0  0  0  0
 16 22  1  0  0  0  0
 17 18  1  0  0  0  0
 17 19  1  0  0  0  0
 20 24  1  0  0  0  0
 21 25  1  0  0  0  0
 22 26  2  0  0  0  0
 23 28  1  0  0  0  0
 27 31  2  0  0  0  0
 27 32  1  0  0  0  0
 30 33  2  0  0  0  0
 30 34  1  0  0  0  0
 31 33  1  0  0  0  0
 32 34  2  0  0  0  0
 35 38  1  0  0  0  0
 35 39  1  0  0  0  0
M  END
> <PUBCHEM_COMPOUND_ID_TYPE>
0

> <PUBCHEM_TOTAL_CHARGE>
0

> <PUBCHEM_SUBSTANCE_ID>
310940151

> <PUBCHEM_SUBSTANCE_VERSION>
1

> <PUBCHEM_EXT_DATASOURCE_NAME>
4488

> <PUBCHEM_EXT_DATASOURCE_REGID>
SCHEMBL16118084

> <PUBCHEM_SUBSTANCE_COMMENT>
InChI=1S/C26H33N7O6S/c1-18(17-38-4)39-25(35)32-15-11-26(10-13-27,12-16-32)33-21-9-14-28-24(34)22(21)23(30-33)29-19-5-7-20(8-6-19)40(36,37)31(2)3/h5-9,14,18H,10-12,15-17H2,1-4H3,(H,28,34)(H,29,30)
InChIKey=GTKKUMAHMYCNEX-UHFFFAOYSA-N

> <PUBCHEM_SUBSTANCE_SYNONYM>
SCHEMBL16118084

> <PUBCHEM_XREF_EXT_ID>
SCHEMBL16118084

> <PUBCHEM_EXT_DATASOURCE_URL>
https://www.surechembl.org/

> <PUBCHEM_EXT_SUBSTANCE_URL>
https://www.surechembl.org/chemical/SCHEMBL16118084

> <PUBCHEM_CID_ASSOCIATIONS>
117607275  1

> <PUBCHEM_COORDINATE_TYPE>
1
3

$$$$
