310943896
  -OEChem-07211613022D

 35 40  0     1  0  0  0  0  0999 V2000
    4.9711   -1.7401    0.0000 O   0  0  0  0  0  0  0  0  0  0  0  0
    2.4662   -0.0998    0.0000 O   0  0  0  0  0  0  0  0  0  0  0  0
    5.5252   -0.3769    0.0000 O   0  0  0  0  0  0  0  0  0  0  0  0
   -1.3356   -1.2414    0.0000 O   0  0  0  0  0  0  0  0  0  0  0  0
    2.8541   -1.5185    0.0000 N   0  0  0  0  0  0  0  0  0  0  0  0
    0.0942   -0.4212    0.0000 N   0  0  0  0  0  0  0  0  0  0  0  0
   -3.4859   -0.0111    0.0000 N   0  0  0  0  0  0  0  0  0  0  0  0
   -4.2063    1.2303    0.0000 N   0  0  0  0  0  0  0  0  0  0  0  0
   -4.2949    2.0505    0.0000 N   0  0  0  0  0  0  0  0  0  0  0  0
   -5.1041    2.2278    0.0000 N   0  0  0  0  0  0  0  0  0  0  0  0
   -5.5252    1.5074    0.0000 N   0  0  0  0  0  0  0  0  0  0  0  0
    1.5351   -1.2303    0.0000 C   0  0  0  0  0  0  0  0  0  0  0  0
    2.2777   -0.9200    0.0000 C   0  0  0  0  0  0  0  0  0  0  0  0
    3.6521   -1.4298    0.0000 C   0  0  0  0  0  0  0  0  0  0  0  0
    4.0954   -0.7205    0.0000 C   0  0  0  0  0  0  0  0  0  0  0  0
    1.6238   -2.0505    0.0000 C   0  0  0  0  0  0  0  0  0  0  0  0
    3.7629    0.0554    0.0000 C   0  0  0  0  0  0  0  0  0  0  0  0
    2.4329   -2.2278    0.0000 C   0  0  0  0  0  0  0  0  0  0  0  0
    4.8824   -0.9310    0.0000 C   0  0  0  0  0  0  0  0  0  0  0  0
    0.8257   -1.6515    0.0000 C   0  0  0  0  0  0  0  0  0  0  0  0
    1.5351   -0.4212    0.0000 C   0  0  0  0  0  0  0  0  0  0  0  0
    4.2063   -2.0505    0.0000 C   0  0  0  0  0  0  0  0  0  0  0  0
    3.1311    0.5210    0.0000 C   0  0  0  0  0  0  0  0  0  0  0  0
    3.8627    0.8424    0.0000 C   0  0  0  0  0  0  0  0  0  0  0  0
    0.1053   -1.2414    0.0000 C   0  0  0  0  0  0  0  0  0  0  0  0
    0.8036    0.0000    0.0000 C   0  0  0  0  0  0  0  0  0  0  0  0
   -0.6262    0.0000    0.0000 C   0  0  0  0  0  0  0  0  0  0  0  0
   -2.0560    0.0000    0.0000 C   0  0  0  0  0  0  0  0  0  0  0  0
   -1.3245   -0.4101    0.0000 C   0  0  3  0  0  0  0  0  0  0  0  0
   -2.7654   -0.4101    0.0000 C   0  0  0  0  0  0  0  0  0  0  0  0
   -3.4859    0.8313    0.0000 C   0  0  0  0  0  0  0  0  0  0  0  0
   -2.0560    0.8202    0.0000 C   0  0  0  0  0  0  0  0  0  0  0  0
   -2.7875    1.2303    0.0000 C   0  0  0  0  0  0  0  0  0  0  0  0
   -4.9600    0.9089    0.0000 C   0  0  0  0  0  0  0  0  0  0  0  0
   -2.7543   -1.2525    0.0000 C   0  0  0  0  0  0  0  0  0  0  0  0
  1 19  1  0  0  0  0
  1 22  1  0  0  0  0
  2 13  2  0  0  0  0
  3 19  2  0  0  0  0
  4 29  1  0  0  0  0
  5 13  1  0  0  0  0
  5 14  1  0  0  0  0
  5 18  1  0  0  0  0
  6 25  1  0  0  0  0
  6 26  1  0  0  0  0
  6 27  1  0  0  0  0
  7 30  2  0  0  0  0
  7 31  1  0  0  0  0
  8  9  1  0  0  0  0
  8 31  1  0  0  0  0
  8 34  1  0  0  0  0
  9 10  2  0  0  0  0
 10 11  1  0  0  0  0
 11 34  2  0  0  0  0
 12 13  1  0  0  0  0
 12 16  1  0  0  0  0
 12 20  1  0  0  0  0
 12 21  1  0  0  0  0
 14 15  2  0  0  0  0
 14 22  1  0  0  0  0
 15 17  1  0  0  0  0
 15 19  1  0  0  0  0
 16 18  1  0  0  0  0
 17 23  1  0  0  0  0
 17 24  1  0  0  0  0
 20 25  1  0  0  0  0
 21 26  1  0  0  0  0
 23 24  1  0  0  0  0
 27 29  1  0  0  0  0
 28 29  1  0  0  0  0
 28 30  1  0  0  0  0
 28 32  2  0  0  0  0
 30 35  1  0  0  0  0
 31 33  2  0  0  0  0
 32 33  1  0  0  0  0
M  END
> <PUBCHEM_COMPOUND_ID_TYPE>
0

> <PUBCHEM_TOTAL_CHARGE>
0

> <PUBCHEM_SUBSTANCE_ID>
310943896

> <PUBCHEM_SUBSTANCE_VERSION>
1

> <PUBCHEM_EXT_DATASOURCE_NAME>
4488

> <PUBCHEM_EXT_DATASOURCE_REGID>
SCHEMBL16121967

> <PUBCHEM_SUBSTANCE_COMMENT>
InChI=1S/C24H29N7O4/c1-15-17(4-5-20(26-15)31-14-25-27-28-31)19(32)12-29-9-6-24(7-10-29)8-11-30(23(24)34)18-13-35-22(33)21(18)16-2-3-16/h4-5,14,16,19,32H,2-3,6-13H2,1H3
InChIKey=MRSOYQHADNWXBC-UHFFFAOYSA-N

> <PUBCHEM_SUBSTANCE_SYNONYM>
SCHEMBL16121967

> <PUBCHEM_XREF_EXT_ID>
SCHEMBL16121967

> <PUBCHEM_EXT_DATASOURCE_URL>
https://www.surechembl.org/

> <PUBCHEM_EXT_SUBSTANCE_URL>
https://www.surechembl.org/chemical/SCHEMBL16121967

> <PUBCHEM_CID_ASSOCIATIONS>
117610216  1

> <PUBCHEM_COORDINATE_TYPE>
1
3

$$$$
