310932644
  -OEChem-07211613022D

 22 25  0     1  0  0  0  0  0999 V2000
    2.7578   -1.6028    0.0000 O   0  0  0  0  0  0  0  0  0  0  0  0
    3.8892   -3.5592    0.0000 O   0  0  0  0  0  0  0  0  0  0  0  0
    4.5963   -2.3335    0.0000 O   0  0  0  0  0  0  0  0  0  0  0  0
    2.3571   -2.3335    0.0000 C   0  0  3  0  0  0  0  0  0  0  0  0
    3.1821   -2.3335    0.0000 C   0  0  3  0  0  0  0  0  0  0  0  0
    1.7678   -1.7442    0.0000 C   0  0  0  0  0  0  0  0  0  0  0  0
    1.6264   -2.7342    0.0000 C   0  0  0  0  0  0  0  0  0  0  0  0
    3.8892   -2.7342    0.0000 C   0  0  0  0  0  0  0  0  0  0  0  0
    0.9429   -1.9564    0.0000 C   0  0  0  0  0  0  0  0  0  0  0  0
    1.9564   -0.9429    0.0000 C   0  0  0  0  0  0  0  0  0  0  0  0
    1.6264   -3.5827    0.0000 C   0  0  0  0  0  0  0  0  0  0  0  0
    0.9192   -2.3335    0.0000 C   0  0  0  0  0  0  0  0  0  0  0  0
    4.5963   -3.9835    0.0000 C   0  0  0  0  0  0  0  0  0  0  0  0
    0.3771   -1.3907    0.0000 C   0  0  0  0  0  0  0  0  0  0  0  0
    1.3907   -0.3771    0.0000 C   0  0  0  0  0  0  0  0  0  0  0  0
    0.9192   -3.9835    0.0000 C   0  0  0  0  0  0  0  0  0  0  0  0
    0.1886   -2.7342    0.0000 C   0  0  0  0  0  0  0  0  0  0  0  0
    0.5893   -0.5893    0.0000 C   0  0  0  0  0  0  0  0  0  0  0  0
    5.3977   -3.9835    0.0000 C   0  0  0  0  0  0  0  0  0  0  0  0
    5.0206   -4.7142    0.0000 C   0  0  0  0  0  0  0  0  0  0  0  0
    0.1886   -3.5592    0.0000 C   0  0  0  0  0  0  0  0  0  0  0  0
    0.0000    0.0000    0.0000 C   0  0  0  0  0  0  0  0  0  0  0  0
  1  4  1  0  0  0  0
  1  5  1  0  0  0  0
  2  8  1  0  0  0  0
  2 13  1  0  0  0  0
  3  8  2  0  0  0  0
  4  5  1  0  0  0  0
  4  6  1  0  0  0  0
  4  7  1  0  0  0  0
  5  8  1  0  0  0  0
  6  9  2  0  0  0  0
  6 10  1  0  0  0  0
  7 11  2  0  0  0  0
  7 12  1  0  0  0  0
  9 14  1  0  0  0  0
 10 15  2  0  0  0  0
 11 16  1  0  0  0  0
 12 17  2  0  0  0  0
 13 19  1  0  0  0  0
 13 20  1  0  0  0  0
 14 18  2  0  0  0  0
 15 18  1  0  0  0  0
 16 21  2  0  0  0  0
 17 21  1  0  0  0  0
 18 22  1  0  0  0  0
 19 20  1  0  0  0  0
M  END
> <PUBCHEM_COMPOUND_ID_TYPE>
0

> <PUBCHEM_TOTAL_CHARGE>
0

> <PUBCHEM_SUBSTANCE_ID>
310932644

> <PUBCHEM_SUBSTANCE_VERSION>
1

> <PUBCHEM_EXT_DATASOURCE_NAME>
4488

> <PUBCHEM_EXT_DATASOURCE_REGID>
SCHEMBL16110023

> <PUBCHEM_SUBSTANCE_COMMENT>
InChI=1S/C19H18O3/c1-13-7-9-15(10-8-13)19(14-5-3-2-4-6-14)17(22-19)18(20)21-16-11-12-16/h2-10,16-17H,11-12H2,1H3
InChIKey=VXRHKPBMDLXWDV-UHFFFAOYSA-N

> <PUBCHEM_SUBSTANCE_SYNONYM>
SCHEMBL16110023

> <PUBCHEM_XREF_EXT_ID>
SCHEMBL16110023

> <PUBCHEM_EXT_DATASOURCE_URL>
https://www.surechembl.org/

> <PUBCHEM_EXT_SUBSTANCE_URL>
https://www.surechembl.org/chemical/SCHEMBL16110023

> <PUBCHEM_CID_ASSOCIATIONS>
117601161  1

> <PUBCHEM_COORDINATE_TYPE>
1
3

$$$$
