310942455
  -OEChem-07211613022D

 29 31  0     1  0  0  0  0  0999 V2000
    1.0938    1.8421    0.0000 S   0  0  0  0  0  0  0  0  0  0  0  0
   -3.2458    0.1948    0.0000 S   0  0  3  0  0  0  0  0  0  0  0  0
    2.5285    2.6657    0.0000 F   0  0  0  0  0  0  0  0  0  0  0  0
    3.9720    0.1948    0.0000 F   0  0  0  0  0  0  0  0  0  0  0  0
    1.5012    2.5594    0.0000 O   0  0  0  0  0  0  0  0  0  0  0  0
    0.6687    2.5594    0.0000 O   0  0  0  0  0  0  0  0  0  0  0  0
   -3.2458   -0.6199    0.0000 O   0  0  0  0  0  0  0  0  0  0  0  0
   -1.8022    0.1948    0.0000 N   0  0  0  0  0  0  0  0  0  0  0  0
   -0.3587    0.1948    0.0000 N   0  0  0  0  0  0  0  0  0  0  0  0
   -2.5196    1.4347    0.0000 N   0  0  0  0  0  0  0  0  0  0  0  0
    0.3232   -1.2133    0.0000 N   0  0  0  0  0  0  0  0  0  0  0  0
    0.0842   -1.9838    0.0000 N   0  0  0  0  0  0  0  0  0  0  0  0
    1.8200    1.4347    0.0000 C   0  0  0  0  0  0  0  0  0  0  0  0
   -1.0761    1.4347    0.0000 C   0  0  0  0  0  0  0  0  0  0  0  0
   -1.0849    0.6111    0.0000 C   0  0  0  0  0  0  0  0  0  0  0  0
    2.5374    1.8421    0.0000 C   0  0  0  0  0  0  0  0  0  0  0  0
    0.3764    1.4347    0.0000 C   0  0  0  0  0  0  0  0  0  0  0  0
   -0.3587    1.8421    0.0000 C   0  0  0  0  0  0  0  0  0  0  0  0
   -2.5285    0.6111    0.0000 C   0  0  0  0  0  0  0  0  0  0  0  0
    1.8200    0.6111    0.0000 C   0  0  0  0  0  0  0  0  0  0  0  0
   -1.8022    1.8421    0.0000 C   0  0  0  0  0  0  0  0  0  0  0  0
    3.2547    1.4259    0.0000 C   0  0  0  0  0  0  0  0  0  0  0  0
   -0.3675   -0.7085    0.0000 C   0  0  0  0  0  0  0  0  0  0  0  0
    3.2547    0.6111    0.0000 C   0  0  0  0  0  0  0  0  0  0  0  0
    2.5461    0.2037    0.0000 C   0  0  0  0  0  0  0  0  0  0  0  0
   -1.0140   -1.2133    0.0000 C   0  0  0  0  0  0  0  0  0  0  0  0
   -0.7395   -1.9838    0.0000 C   0  0  0  0  0  0  0  0  0  0  0  0
   -3.9720    0.6111    0.0000 C   0  0  0  0  0  0  0  0  0  0  0  0
    0.5978   -2.6657    0.0000 C   0  0  0  0  0  0  0  0  0  0  0  0
  1  5  2  0  0  0  0
  1  6  2  0  0  0  0
  1 13  1  0  0  0  0
  1 17  1  0  0  0  0
  2  7  2  0  0  0  0
  2 19  1  0  0  0  0
  2 28  1  0  0  0  0
  3 16  1  0  0  0  0
  4 24  1  0  0  0  0
  8 15  2  0  0  0  0
  8 19  1  0  0  0  0
  9 15  1  0  0  0  0
  9 23  1  0  0  0  0
 10 19  2  0  0  0  0
 10 21  1  0  0  0  0
 11 12  1  0  0  0  0
 11 23  2  0  0  0  0
 12 27  1  0  0  0  0
 12 29  1  0  0  0  0
 13 16  1  0  0  0  0
 13 20  2  0  0  0  0
 14 15  1  0  0  0  0
 14 18  1  0  0  0  0
 14 21  2  0  0  0  0
 16 22  2  0  0  0  0
 17 18  2  0  0  0  0
 20 25  1  0  0  0  0
 22 24  1  0  0  0  0
 23 26  1  0  0  0  0
 24 25  2  0  0  0  0
 26 27  2  0  0  0  0
M  END
> <PUBCHEM_COMPOUND_ID_TYPE>
0

> <PUBCHEM_TOTAL_CHARGE>
0

> <PUBCHEM_SUBSTANCE_ID>
310942455

> <PUBCHEM_SUBSTANCE_VERSION>
1

> <PUBCHEM_EXT_DATASOURCE_NAME>
4488

> <PUBCHEM_EXT_DATASOURCE_REGID>
SCHEMBL16120491

> <PUBCHEM_SUBSTANCE_COMMENT>
InChI=1S/C17H15F2N5O3S2/c1-24-7-5-15(23-24)21-16-11(10-20-17(22-16)28(2)25)6-8-29(26,27)14-4-3-12(18)9-13(14)19/h3-10H,1-2H3,(H,20,21,22,23)/b8-6+
InChIKey=HQHBJIBNQIHMJC-SOFGYWHQSA-N

> <PUBCHEM_SUBSTANCE_SYNONYM>
SCHEMBL16120491

> <PUBCHEM_XREF_EXT_ID>
SCHEMBL16120491

> <PUBCHEM_EXT_DATASOURCE_URL>
https://www.surechembl.org/

> <PUBCHEM_EXT_SUBSTANCE_URL>
https://www.surechembl.org/chemical/SCHEMBL16120491

> <PUBCHEM_CID_ASSOCIATIONS>
117609041  1

> <PUBCHEM_COORDINATE_TYPE>
1
3

$$$$
