310931333
  -OEChem-07211613022D

 49 53  0     1  0  0  0  0  0999 V2000
    2.9727   -7.8911    0.0000 S   0  0  0  0  0  0  0  0  0  0  0  0
    3.8915   -6.4318    0.0000 S   0  0  0  0  0  0  0  0  0  0  0  0
    4.4320   -7.0804    0.0000 F   0  0  0  0  0  0  0  0  0  0  0  0
    1.5134   -5.4049    0.0000 F   0  0  0  0  0  0  0  0  0  0  0  0
    1.5134   -7.8911    0.0000 F   0  0  0  0  0  0  0  0  0  0  0  0
    2.1079   -7.8911    0.0000 O   0  0  0  0  0  0  0  0  0  0  0  0
    2.9727   -8.7559    0.0000 O   0  0  0  0  0  0  0  0  0  0  0  0
    2.9727   -4.5401    0.0000 O   0  0  0  0  0  0  0  0  0  0  0  0
    5.0265  -10.1072    0.0000 O   0  0  0  0  0  0  0  0  0  0  0  0
    0.8108   -1.6755    0.0000 O   0  0  0  0  0  0  0  0  0  0  0  0
    7.5669   -8.6478    0.0000 O   0  0  0  0  0  0  0  0  0  0  0  0
    2.2701   -1.6755    0.0000 O   0  0  0  0  0  0  0  0  0  0  0  0
    3.7834   -7.8911    0.0000 N   0  0  0  0  0  0  0  0  0  0  0  0
    5.0806   -7.0804    0.0000 N   0  0  0  0  0  0  0  0  0  0  0  0
    1.5134   -2.9187    0.0000 N   0  0  0  0  0  0  0  0  0  0  0  0
    4.4861   -5.8373    0.0000 N   0  0  0  0  0  0  0  0  0  0  0  0
    2.9727   -7.0804    0.0000 C   0  0  0  0  0  0  0  0  0  0  0  0
    3.6753   -6.6480    0.0000 C   0  0  0  0  0  0  0  0  0  0  0  0
    4.2158   -7.1885    0.0000 C   0  0  0  0  0  0  0  0  0  0  0  0
    2.2701   -6.6480    0.0000 C   0  0  0  0  0  0  0  0  0  0  0  0
    2.9727   -5.4049    0.0000 C   0  0  0  0  0  0  0  0  0  0  0  0
    2.2701   -5.8373    0.0000 C   0  0  0  0  0  0  0  0  0  0  0  0
    4.2158   -8.6478    0.0000 C   0  0  0  0  0  0  0  0  0  0  0  0
    3.6753   -5.8373    0.0000 C   0  0  0  0  0  0  0  0  0  0  0  0
    2.2701   -4.1618    0.0000 C   0  0  3  0  0  0  0  0  0  0  0  0
    5.0265   -8.6478    0.0000 C   0  0  0  0  0  0  0  0  0  0  0  0
    1.5134   -4.5401    0.0000 C   0  0  3  0  0  0  0  0  0  0  0  0
    5.4590   -9.3505    0.0000 C   0  0  0  0  0  0  0  0  0  0  0  0
    2.2701   -3.2970    0.0000 C   0  0  0  0  0  0  0  0  0  0  0  0
    1.6755   -5.5670    0.0000 C   0  0  0  0  0  0  0  0  0  0  0  0
    5.4590   -7.9452    0.0000 C   0  0  0  0  0  0  0  0  0  0  0  0
    0.8108   -4.1618    0.0000 C   0  0  0  0  0  0  0  0  0  0  0  0
    5.2427   -6.2697    0.0000 C   0  0  0  0  0  0  0  0  0  0  0  0
    0.8108   -3.2970    0.0000 C   0  0  0  0  0  0  0  0  0  0  0  0
    6.2697   -9.4045    0.0000 C   0  0  0  0  0  0  0  0  0  0  0  0
    1.5134   -2.0538    0.0000 C   0  0  0  0  0  0  0  0  0  0  0  0
    6.7020   -8.6478    0.0000 C   0  0  0  0  0  0  0  0  0  0  0  0
    6.2697   -7.9452    0.0000 C   0  0  0  0  0  0  0  0  0  0  0  0
    2.4322   -5.9994    0.0000 C   0  0  0  0  0  0  0  0  0  0  0  0
    0.8108   -5.8373    0.0000 C   0  0  0  0  0  0  0  0  0  0  0  0
    2.4322   -6.8102    0.0000 C   0  0  0  0  0  0  0  0  0  0  0  0
    0.8108   -6.6480    0.0000 C   0  0  0  0  0  0  0  0  0  0  0  0
    1.5134   -7.0804    0.0000 C   0  0  0  0  0  0  0  0  0  0  0  0
    0.8108   -0.8108    0.0000 C   0  0  0  0  0  0  0  0  0  0  0  0
    5.4049  -10.8098    0.0000 C   0  0  0  0  0  0  0  0  0  0  0  0
    1.6755   -0.8108    0.0000 C   0  0  0  0  0  0  0  0  0  0  0  0
    0.8108    0.0000    0.0000 C   0  0  0  0  0  0  0  0  0  0  0  0
    0.0000   -0.8108    0.0000 C   0  0  0  0  0  0  0  0  0  0  0  0
    7.9452   -7.9452    0.0000 C   0  0  0  0  0  0  0  0  0  0  0  0
  1  6  2  0  0  0  0
  1  7  2  0  0  0  0
  1 13  1  0  0  0  0
  1 17  1  0  0  0  0
  2 16  1  0  0  0  0
  2 19  1  0  0  0  0
  3 18  1  0  0  0  0
  4 22  1  0  0  0  0
  5 43  1  0  0  0  0
  8 21  1  0  0  0  0
  8 25  1  0  0  0  0
  9 28  1  0  0  0  0
  9 45  1  0  0  0  0
 10 36  1  0  0  0  0
 10 44  1  0  0  0  0
 11 37  1  0  0  0  0
 11 49  1  0  0  0  0
 12 36  2  0  0  0  0
 13 19  1  0  0  0  0
 13 23  1  0  0  0  0
 14 19  2  0  0  0  0
 14 33  1  0  0  0  0
 15 29  1  0  0  0  0
 15 34  1  0  0  0  0
 15 36  1  0  0  0  0
 16 33  2  0  0  0  0
 17 18  1  0  0  0  0
 17 20  2  0  0  0  0
 18 24  2  0  0  0  0
 20 22  1  0  0  0  0
 21 22  2  0  0  0  0
 21 24  1  0  0  0  0
 23 26  1  0  0  0  0
 25 27  1  0  0  0  0
 25 29  1  0  0  0  0
 26 28  2  0  0  0  0
 26 31  1  0  0  0  0
 27 30  1  0  0  0  0
 27 32  1  0  0  0  0
 28 35  1  0  0  0  0
 30 39  2  0  0  0  0
 30 40  1  0  0  0  0
 31 38  2  0  0  0  0
 32 34  1  0  0  0  0
 35 37  2  0  0  0  0
 37 38  1  0  0  0  0
 39 41  1  0  0  0  0
 40 42  2  0  0  0  0
 41 43  2  0  0  0  0
 42 43  1  0  0  0  0
 44 46  1  0  0  0  0
 44 47  1  0  0  0  0
 44 48  1  0  0  0  0
M  END
> <PUBCHEM_COMPOUND_ID_TYPE>
0

> <PUBCHEM_TOTAL_CHARGE>
0

> <PUBCHEM_SUBSTANCE_ID>
310931333

> <PUBCHEM_SUBSTANCE_VERSION>
1

> <PUBCHEM_EXT_DATASOURCE_NAME>
4488

> <PUBCHEM_EXT_DATASOURCE_REGID>
SCHEMBL16108653

> <PUBCHEM_SUBSTANCE_COMMENT>
InChI=1S/C33H35F3N4O7S2/c1-33(2,3)47-32(41)39-13-12-24(20-6-9-22(34)10-7-20)29(18-39)46-28-15-26(36)30(16-25(28)35)49(42,43)40(31-37-19-38-48-31)17-21-8-11-23(44-4)14-27(21)45-5/h6-11,14-16,19,24,29H,12-13,17-18H2,1-5H3
InChIKey=ZTZXGTIMLOLWIU-UHFFFAOYSA-N

> <PUBCHEM_SUBSTANCE_SYNONYM>
SCHEMBL16108653

> <PUBCHEM_XREF_EXT_ID>
SCHEMBL16108653

> <PUBCHEM_EXT_DATASOURCE_URL>
https://www.surechembl.org/

> <PUBCHEM_EXT_SUBSTANCE_URL>
https://www.surechembl.org/chemical/SCHEMBL16108653

> <PUBCHEM_CID_ASSOCIATIONS>
117600143  1

> <PUBCHEM_COORDINATE_TYPE>
1
3

$$$$
