310943552
  -OEChem-07211613022D

 19 21  0     1  0  0  0  0  0999 V2000
    0.0190   -1.4348    0.0000 Cl  0  0  0  0  0  0  0  0  0  0  0  0
    3.1357    0.1995    0.0000 Cl  0  0  0  0  0  0  0  0  0  0  0  0
   -1.1402    1.0358    0.0000 O   0  0  0  0  0  0  0  0  0  0  0  0
    0.2850    0.2186    0.0000 N   0  0  3  0  0  0  0  0  0  0  0  0
    1.7104   -1.4348    0.0000 N   0  0  0  0  0  0  0  0  0  0  0  0
    2.4326   -1.0167    0.0000 N   0  0  0  0  0  0  0  0  0  0  0  0
   -1.9384   -1.0167    0.0000 N   0  0  0  0  0  0  0  0  0  0  0  0
   -2.6036    0.1425    0.0000 N   0  0  0  0  0  0  0  0  0  0  0  0
    1.0072   -0.1805    0.0000 C   0  0  0  0  0  0  0  0  0  0  0  0
   -1.1402    0.2186    0.0000 C   0  0  3  0  0  0  0  0  0  0  0  0
    0.9882   -1.0167    0.0000 C   0  0  0  0  0  0  0  0  0  0  0  0
   -0.4180   -0.1995    0.0000 C   0  0  0  0  0  0  0  0  0  0  0  0
   -1.8434   -0.1995    0.0000 C   0  0  0  0  0  0  0  0  0  0  0  0
    1.6914    0.1995    0.0000 C   0  0  0  0  0  0  0  0  0  0  0  0
    0.2850    1.0358    0.0000 C   0  0  0  0  0  0  0  0  0  0  0  0
    2.4326   -0.1805    0.0000 C   0  0  0  0  0  0  0  0  0  0  0  0
   -0.4370    1.4348    0.0000 C   0  0  0  0  0  0  0  0  0  0  0  0
   -2.7176   -1.1688    0.0000 C   0  0  0  0  0  0  0  0  0  0  0  0
   -3.1357   -0.4846    0.0000 C   0  0  0  0  0  0  0  0  0  0  0  0
  1 11  1  0  0  0  0
  2 16  1  0  0  0  0
  3 10  1  0  0  0  0
  3 17  1  0  0  0  0
  4  9  1  0  0  0  0
  4 12  1  0  0  0  0
  4 15  1  0  0  0  0
  5  6  2  0  0  0  0
  5 11  1  0  0  0  0
  6 16  1  0  0  0  0
  7 13  2  0  0  0  0
  7 18  1  0  0  0  0
  8 13  1  0  0  0  0
  8 19  1  0  0  0  0
  9 11  2  0  0  0  0
  9 14  1  0  0  0  0
 10 12  1  0  0  0  0
 10 13  1  0  0  0  0
 14 16  2  0  0  0  0
 15 17  1  0  0  0  0
 18 19  2  0  0  0  0
M  END
> <PUBCHEM_COMPOUND_ID_TYPE>
0

> <PUBCHEM_TOTAL_CHARGE>
0

> <PUBCHEM_SUBSTANCE_ID>
310943552

> <PUBCHEM_SUBSTANCE_VERSION>
1

> <PUBCHEM_EXT_DATASOURCE_NAME>
4488

> <PUBCHEM_EXT_DATASOURCE_REGID>
SCHEMBL16121619

> <PUBCHEM_SUBSTANCE_COMMENT>
InChI=1S/C11H11Cl2N5O/c12-9-5-7(10(13)17-16-9)18-3-4-19-8(6-18)11-14-1-2-15-11/h1-2,5,8H,3-4,6H2,(H,14,15)
InChIKey=MKKUBDMIJFXEPO-UHFFFAOYSA-N

> <PUBCHEM_SUBSTANCE_SYNONYM>
SCHEMBL16121619

> <PUBCHEM_XREF_EXT_ID>
SCHEMBL16121619

> <PUBCHEM_EXT_DATASOURCE_URL>
https://www.surechembl.org/

> <PUBCHEM_EXT_SUBSTANCE_URL>
https://www.surechembl.org/chemical/SCHEMBL16121619

> <PUBCHEM_CID_ASSOCIATIONS>
117609963  1

> <PUBCHEM_COORDINATE_TYPE>
1
3

$$$$
