310934964
  -OEChem-07211613022D

 24 26  0     1  0  0  0  0  0999 V2000
   -0.7144    2.0625    0.0000 F   0  0  0  0  0  0  0  0  0  0  0  0
   -0.6283   -0.9013    0.0000 O   0  0  0  0  0  0  0  0  0  0  0  0
    0.4664   -1.8197    0.0000 O   0  0  0  0  0  0  0  0  0  0  0  0
    3.8398    1.2015    0.0000 N   0  0  0  0  0  0  0  0  0  0  0  0
    2.8119    2.1941    0.0000 N   0  0  0  0  0  0  0  0  0  0  0  0
    0.7144   -0.4125    0.0000 C   0  0  3  0  0  0  0  0  0  0  0  0
    0.0000    0.0000    0.0000 C   0  0  0  0  0  0  0  0  0  0  0  0
    1.3079   -0.9856    0.0000 C   0  0  3  0  0  0  0  0  0  0  0  0
    1.0762    0.3290    0.0000 C   0  0  0  0  0  0  0  0  0  0  0  0
    1.8931    0.2142    0.0000 C   0  0  0  0  0  0  0  0  0  0  0  0
    0.1842   -1.0445    0.0000 C   0  0  0  0  0  0  0  0  0  0  0  0
    2.0363   -0.5983    0.0000 C   0  0  0  0  0  0  0  0  0  0  0  0
    0.0000    0.8250    0.0000 C   0  0  0  0  0  0  0  0  0  0  0  0
    2.4662    0.8076    0.0000 C   0  0  0  0  0  0  0  0  0  0  0  0
   -0.7144   -0.4125    0.0000 C   0  0  0  0  0  0  0  0  0  0  0  0
   -0.7144    1.2375    0.0000 C   0  0  0  0  0  0  0  0  0  0  0  0
    1.1931   -1.8026    0.0000 C   0  0  0  0  0  0  0  0  0  0  0  0
   -1.4290    0.0000    0.0000 C   0  0  0  0  0  0  0  0  0  0  0  0
   -1.4290    0.8250    0.0000 C   0  0  0  0  0  0  0  0  0  0  0  0
    3.2667    0.6081    0.0000 C   0  0  0  0  0  0  0  0  0  0  0  0
    2.2388    1.6007    0.0000 C   0  0  0  0  0  0  0  0  0  0  0  0
    0.7144    1.2375    0.0000 C   0  0  0  0  0  0  0  0  0  0  0  0
    3.6124    1.9946    0.0000 C   0  0  0  0  0  0  0  0  0  0  0  0
    4.1855    2.5880    0.0000 C   0  0  0  0  0  0  0  0  0  0  0  0
  1 16  1  0  0  0  0
  2 11  2  0  0  0  0
  3 11  1  0  0  0  0
  4 20  2  0  0  0  0
  4 23  1  0  0  0  0
  5 21  1  0  0  0  0
  5 23  2  0  0  0  0
  6  7  1  0  0  0  0
  6  8  1  0  0  0  0
  6  9  1  0  0  0  0
  6 11  1  0  0  0  0
  7 13  1  0  0  0  0
  7 15  2  0  0  0  0
  8 12  1  0  0  0  0
  8 17  1  0  0  0  0
  9 10  2  0  0  0  0
 10 12  1  0  0  0  0
 10 14  1  0  0  0  0
 13 16  2  0  0  0  0
 13 22  1  0  0  0  0
 14 20  1  0  0  0  0
 14 21  2  0  0  0  0
 15 18  1  0  0  0  0
 16 19  1  0  0  0  0
 18 19  2  0  0  0  0
 23 24  1  0  0  0  0
M  END
> <PUBCHEM_COMPOUND_ID_TYPE>
0

> <PUBCHEM_TOTAL_CHARGE>
0

> <PUBCHEM_SUBSTANCE_ID>
310934964

> <PUBCHEM_SUBSTANCE_VERSION>
1

> <PUBCHEM_EXT_DATASOURCE_NAME>
4488

> <PUBCHEM_EXT_DATASOURCE_REGID>
SCHEMBL16112480

> <PUBCHEM_SUBSTANCE_COMMENT>
InChI=1S/C19H19FN2O2/c1-11-7-14(15-9-21-13(3)22-10-15)8-19(11,18(23)24)16-5-4-6-17(20)12(16)2/h4-6,8-11H,7H2,1-3H3,(H,23,24)
InChIKey=FEHFPYVWIHQKID-UHFFFAOYSA-N

> <PUBCHEM_SUBSTANCE_SYNONYM>
SCHEMBL16112480

> <PUBCHEM_XREF_EXT_ID>
SCHEMBL16112480

> <PUBCHEM_EXT_DATASOURCE_URL>
https://www.surechembl.org/

> <PUBCHEM_EXT_SUBSTANCE_URL>
https://www.surechembl.org/chemical/SCHEMBL16112480

> <PUBCHEM_CID_ASSOCIATIONS>
117603084  1

> <PUBCHEM_COORDINATE_TYPE>
1
3

$$$$
