310938048
  -OEChem-07211613022D

 26 29  0     1  0  0  0  0  0999 V2000
   -1.9897   -3.0215    0.0000 O   0  0  0  0  0  0  0  0  0  0  0  0
    4.3230   -3.6579    0.0000 O   0  0  0  0  0  0  0  0  0  0  0  0
   -1.7347   -3.8062    0.0000 N   0  0  0  0  0  0  0  0  0  0  0  0
   -0.6548   -3.0215    0.0000 C   0  0  0  0  0  0  0  0  0  0  0  0
    0.1298   -2.7666    0.0000 C   0  0  0  0  0  0  0  0  0  0  0  0
    1.0860   -1.7047    0.0000 C   0  0  3  0  0  0  0  0  0  0  0  0
    1.6991   -2.2567    0.0000 C   0  0  3  0  0  0  0  0  0  0  0  0
    0.3014   -1.9596    0.0000 C   0  0  0  0  0  0  0  0  0  0  0  0
   -1.3222   -2.5366    0.0000 C   0  0  0  0  0  0  0  0  0  0  0  0
   -0.9097   -3.8062    0.0000 C   0  0  0  0  0  0  0  0  0  0  0  0
    1.2575   -0.8977    0.0000 C   0  0  0  0  0  0  0  0  0  0  0  0
    0.7429   -3.3186    0.0000 C   0  0  0  0  0  0  0  0  0  0  0  0
    1.5275   -3.0637    0.0000 C   0  0  0  0  0  0  0  0  0  0  0  0
    2.4837   -2.0018    0.0000 C   0  0  0  0  0  0  0  0  0  0  0  0
    3.0968   -2.5538    0.0000 C   0  0  0  0  0  0  0  0  0  0  0  0
    0.6444   -0.3457    0.0000 C   0  0  0  0  0  0  0  0  0  0  0  0
    2.0421   -0.6428    0.0000 C   0  0  0  0  0  0  0  0  0  0  0  0
   -1.3222   -1.7116    0.0000 C   0  0  0  0  0  0  0  0  0  0  0  0
   -0.4248   -4.4736    0.0000 C   0  0  0  0  0  0  0  0  0  0  0  0
    0.8159    0.4613    0.0000 C   0  0  0  0  0  0  0  0  0  0  0  0
    2.2136    0.1642    0.0000 C   0  0  0  0  0  0  0  0  0  0  0  0
    3.8814   -2.2989    0.0000 C   0  0  0  0  0  0  0  0  0  0  0  0
    2.9253   -3.3608    0.0000 C   0  0  0  0  0  0  0  0  0  0  0  0
    1.6006    0.7162    0.0000 C   0  0  0  0  0  0  0  0  0  0  0  0
    4.4945   -2.8509    0.0000 C   0  0  0  0  0  0  0  0  0  0  0  0
    3.5384   -3.9128    0.0000 C   0  0  0  0  0  0  0  0  0  0  0  0
  1  3  1  0  0  0  0
  1  9  1  0  0  0  0
  2 25  1  0  0  0  0
  2 26  1  0  0  0  0
  3 10  2  0  0  0  0
  4  5  1  0  0  0  0
  4  9  2  0  0  0  0
  4 10  1  0  0  0  0
  5  8  2  0  0  0  0
  5 12  1  0  0  0  0
  6  7  1  0  0  0  0
  6  8  1  0  0  0  0
  6 11  1  0  0  0  0
  7 13  1  0  0  0  0
  7 14  1  0  0  0  0
  9 18  1  0  0  0  0
 10 19  1  0  0  0  0
 11 16  2  0  0  0  0
 11 17  1  0  0  0  0
 12 13  2  0  0  0  0
 14 15  1  0  0  0  0
 15 22  1  0  0  0  0
 15 23  1  0  0  0  0
 16 20  1  0  0  0  0
 17 21  2  0  0  0  0
 20 24  2  0  0  0  0
 21 24  1  0  0  0  0
 22 25  1  0  0  0  0
 23 26  1  0  0  0  0
M  END
> <PUBCHEM_COMPOUND_ID_TYPE>
0

> <PUBCHEM_TOTAL_CHARGE>
0

> <PUBCHEM_SUBSTANCE_ID>
310938048

> <PUBCHEM_SUBSTANCE_VERSION>
1

> <PUBCHEM_EXT_DATASOURCE_NAME>
4488

> <PUBCHEM_EXT_DATASOURCE_REGID>
SCHEMBL16115889

> <PUBCHEM_SUBSTANCE_COMMENT>
InChI=1S/C23H27NO2/c1-16-23(17(2)26-24-16)21-9-8-20(14-18-10-12-25-13-11-18)22(15-21)19-6-4-3-5-7-19/h3-9,15,18,20,22H,10-14H2,1-2H3
InChIKey=DQDYEVFDXGGTSV-UHFFFAOYSA-N

> <PUBCHEM_SUBSTANCE_SYNONYM>
SCHEMBL16115889

> <PUBCHEM_XREF_EXT_ID>
SCHEMBL16115889

> <PUBCHEM_EXT_DATASOURCE_URL>
https://www.surechembl.org/

> <PUBCHEM_EXT_SUBSTANCE_URL>
https://www.surechembl.org/chemical/SCHEMBL16115889

> <PUBCHEM_CID_ASSOCIATIONS>
117605626  1

> <PUBCHEM_COORDINATE_TYPE>
1
3

$$$$
