310935630
  -OEChem-07211613022D

 25 28  0     1  0  0  0  0  0999 V2000
    6.2126   -0.6455    0.0000 F   0  0  0  0  0  0  0  0  0  0  0  0
    5.0562   -2.9046    0.0000 O   0  0  0  0  0  0  0  0  0  0  0  0
    5.0562   -1.4792    0.0000 O   0  0  0  0  0  0  0  0  0  0  0  0
    0.5648   -4.0342    0.0000 N   0  0  0  0  0  0  0  0  0  0  0  0
    1.2103   -5.2175    0.0000 N   0  0  0  0  0  0  0  0  0  0  0  0
    3.8190   -2.2054    0.0000 C   0  0  3  0  0  0  0  0  0  0  0  0
    4.1955   -1.4523    0.0000 C   0  0  0  0  0  0  0  0  0  0  0  0
    2.5550   -2.6087    0.0000 C   0  0  0  0  0  0  0  0  0  0  0  0
    3.3349   -2.8777    0.0000 C   0  0  0  0  0  0  0  0  0  0  0  0
    3.3349   -1.5330    0.0000 C   0  0  0  0  0  0  0  0  0  0  0  0
    4.6527   -2.2054    0.0000 C   0  0  0  0  0  0  0  0  0  0  0  0
    1.8826   -3.0928    0.0000 C   0  0  0  0  0  0  0  0  0  0  0  0
    5.1906   -1.5868    0.0000 C   0  0  0  0  0  0  0  0  0  0  0  0
    2.5550   -1.8019    0.0000 C   0  0  0  0  0  0  0  0  0  0  0  0
    3.7652   -0.7530    0.0000 C   0  0  0  0  0  0  0  0  0  0  0  0
    1.3178   -4.3838    0.0000 C   0  0  0  0  0  0  0  0  0  0  0  0
    1.9633   -3.8997    0.0000 C   0  0  0  0  0  0  0  0  0  0  0  0
    5.3789   -0.6993    0.0000 C   0  0  0  0  0  0  0  0  0  0  0  0
    1.1565   -2.7432    0.0000 C   0  0  0  0  0  0  0  0  0  0  0  0
    0.4841   -3.2273    0.0000 C   0  0  0  0  0  0  0  0  0  0  0  0
    4.1148   -0.0269    0.0000 C   0  0  0  0  0  0  0  0  0  0  0  0
    4.9485    0.0000    0.0000 C   0  0  0  0  0  0  0  0  0  0  0  0
    5.4595   -2.0977    0.0000 C   0  0  0  0  0  0  0  0  0  0  0  0
    0.0000   -4.6796    0.0000 C   0  0  0  0  0  0  0  0  0  0  0  0
    0.4303   -5.3789    0.0000 C   0  0  0  0  0  0  0  0  0  0  0  0
  1 18  1  0  0  0  0
  2 11  2  0  0  0  0
  3 11  1  0  0  0  0
  4 16  1  0  0  0  0
  4 20  1  0  0  0  0
  4 24  1  0  0  0  0
  5 16  2  0  0  0  0
  5 25  1  0  0  0  0
  6  7  1  0  0  0  0
  6  9  1  0  0  0  0
  6 10  1  0  0  0  0
  6 11  1  0  0  0  0
  7 13  1  0  0  0  0
  7 15  2  0  0  0  0
  8  9  2  0  0  0  0
  8 12  1  0  0  0  0
  8 14  1  0  0  0  0
 10 14  1  0  0  0  0
 12 17  2  0  0  0  0
 12 19  1  0  0  0  0
 13 18  2  0  0  0  0
 13 23  1  0  0  0  0
 15 21  1  0  0  0  0
 16 17  1  0  0  0  0
 18 22  1  0  0  0  0
 19 20  2  0  0  0  0
 21 22  2  0  0  0  0
 24 25  2  0  0  0  0
M  END
> <PUBCHEM_COMPOUND_ID_TYPE>
0

> <PUBCHEM_TOTAL_CHARGE>
0

> <PUBCHEM_SUBSTANCE_ID>
310935630

> <PUBCHEM_SUBSTANCE_VERSION>
1

> <PUBCHEM_EXT_DATASOURCE_NAME>
4488

> <PUBCHEM_EXT_DATASOURCE_REGID>
SCHEMBL16113208

> <PUBCHEM_SUBSTANCE_COMMENT>
InChI=1S/C20H17FN2O2/c1-13-16(3-2-4-17(13)21)20(19(24)25)7-5-15(12-20)14-6-9-23-10-8-22-18(23)11-14/h2-4,6,8-12H,5,7H2,1H3,(H,24,25)
InChIKey=TWYIRTHFRJZDMD-UHFFFAOYSA-N

> <PUBCHEM_SUBSTANCE_SYNONYM>
SCHEMBL16113208

> <PUBCHEM_XREF_EXT_ID>
SCHEMBL16113208

> <PUBCHEM_EXT_DATASOURCE_URL>
https://www.surechembl.org/

> <PUBCHEM_EXT_SUBSTANCE_URL>
https://www.surechembl.org/chemical/SCHEMBL16113208

> <PUBCHEM_CID_ASSOCIATIONS>
117603646  1

> <PUBCHEM_COORDINATE_TYPE>
1
3

$$$$
