310945781
  -OEChem-07211613022D

 44 48  0     1  0  0  0  0  0999 V2000
    5.4168    0.9900    0.0000 O   0  0  0  0  0  0  0  0  0  0  0  0
    4.2735   -0.9900    0.0000 O   0  0  0  0  0  0  0  0  0  0  0  0
   -2.4749    0.9760    0.0000 O   0  0  0  0  0  0  0  0  0  0  0  0
    1.8753    0.9760    0.0000 O   0  0  0  0  0  0  0  0  0  0  0  0
   -0.2997   -1.1154    0.0000 O   0  0  0  0  0  0  0  0  0  0  0  0
    4.0643   -2.7746    0.0000 O   0  0  0  0  0  0  0  0  0  0  0  0
   -3.2836   -1.1015    0.0000 N   0  0  0  0  0  0  0  0  0  0  0  0
   -3.9528    0.0697    0.0000 N   0  0  0  0  0  0  0  0  0  0  0  0
    2.6143   -0.2649    0.0000 N   0  0  0  0  0  0  0  0  0  0  0  0
   -1.7359   -0.2649    0.0000 N   0  0  0  0  0  0  0  0  0  0  0  0
    0.4392    0.1394    0.0000 N   0  0  0  0  0  0  0  0  0  0  0  0
    5.0125    0.3067    0.0000 C   0  0  3  0  0  0  0  0  0  0  0  0
    4.2874   -0.0976    0.0000 C   0  0  0  0  0  0  0  0  0  0  0  0
    4.6081    1.0039    0.0000 C   0  0  0  0  0  0  0  0  0  0  0  0
    3.5624    0.2928    0.0000 C   0  0  3  0  0  0  0  0  0  0  0  0
   -4.1062   -1.2549    0.0000 C   0  0  0  0  0  0  0  0  0  0  0  0
   -3.1860   -0.2509    0.0000 C   0  0  0  0  0  0  0  0  0  0  0  0
   -4.5245   -0.5438    0.0000 C   0  0  0  0  0  0  0  0  0  0  0  0
    5.7515   -0.1115    0.0000 C   0  0  0  0  0  0  0  0  0  0  0  0
   -2.4749    0.1534    0.0000 C   0  0  0  0  0  0  0  0  0  0  0  0
    3.5624    1.3664    0.0000 C   0  0  0  0  0  0  0  0  0  0  0  0
    1.8893    0.1534    0.0000 C   0  0  0  0  0  0  0  0  0  0  0  0
   -4.5105   -1.9659    0.0000 C   0  0  0  0  0  0  0  0  0  0  0  0
   -5.3472   -0.5438    0.0000 C   0  0  0  0  0  0  0  0  0  0  0  0
    1.1782   -0.2509    0.0000 C   0  0  3  0  0  0  0  0  0  0  0  0
    2.8234    1.8126    0.0000 C   0  0  0  0  0  0  0  0  0  0  0  0
   -1.0108    0.1673    0.0000 C   0  0  3  0  0  0  0  0  0  0  0  0
   -2.6422   -1.6592    0.0000 C   0  0  0  0  0  0  0  0  0  0  0  0
   -0.2859   -0.2231    0.0000 C   0  0  0  0  0  0  0  0  0  0  0  0
   -5.3472   -1.9659    0.0000 C   0  0  0  0  0  0  0  0  0  0  0  0
   -5.7515   -1.2688    0.0000 C   0  0  0  0  0  0  0  0  0  0  0  0
    1.1642   -1.0876    0.0000 C   0  0  0  0  0  0  0  0  0  0  0  0
    1.8893   -1.4919    0.0000 C   0  0  0  0  0  0  0  0  0  0  0  0
    2.0566    1.4779    0.0000 C   0  0  0  0  0  0  0  0  0  0  0  0
    2.7398    2.6073    0.0000 C   0  0  0  0  0  0  0  0  0  0  0  0
   -1.0108    1.0039    0.0000 C   0  0  0  0  0  0  0  0  0  0  0  0
    1.5268    2.0636    0.0000 C   0  0  0  0  0  0  0  0  0  0  0  0
    1.9311    2.7746    0.0000 C   0  0  0  0  0  0  0  0  0  0  0  0
    1.9032   -2.3424    0.0000 C   0  0  0  0  0  0  0  0  0  0  0  0
    2.6004   -1.1015    0.0000 C   0  0  0  0  0  0  0  0  0  0  0  0
    3.3254   -2.3285    0.0000 C   0  0  0  0  0  0  0  0  0  0  0  0
    2.6143   -2.7468    0.0000 C   0  0  0  0  0  0  0  0  0  0  0  0
    3.3393   -1.5058    0.0000 C   0  0  0  0  0  0  0  0  0  0  0  0
    4.8173   -2.3285    0.0000 C   0  0  0  0  0  0  0  0  0  0  0  0
  1 12  1  0  0  0  0
  1 14  1  0  0  0  0
  2 13  2  0  0  0  0
  3 20  2  0  0  0  0
  4 22  2  0  0  0  0
  5 29  2  0  0  0  0
  6 41  1  0  0  0  0
  6 44  1  0  0  0  0
  7 16  1  0  0  0  0
  7 17  1  0  0  0  0
  7 28  1  0  0  0  0
  8 17  2  0  0  0  0
  8 18  1  0  0  0  0
  9 15  1  0  0  0  0
  9 22  1  0  0  0  0
 10 20  1  0  0  0  0
 10 27  1  0  0  0  0
 11 25  1  0  0  0  0
 11 29  1  0  0  0  0
 12 13  1  0  0  0  0
 12 14  1  0  0  0  0
 12 19  1  0  0  0  0
 13 15  1  0  0  0  0
 15 21  1  0  0  0  0
 16 18  1  0  0  0  0
 16 23  2  0  0  0  0
 17 20  1  0  0  0  0
 18 24  2  0  0  0  0
 21 26  1  0  0  0  0
 22 25  1  0  0  0  0
 23 30  1  0  0  0  0
 24 31  1  0  0  0  0
 25 32  1  0  0  0  0
 26 34  1  0  0  0  0
 26 35  1  0  0  0  0
 27 29  1  0  0  0  0
 27 36  1  0  0  0  0
 30 31  2  0  0  0  0
 32 33  1  0  0  0  0
 33 39  2  0  0  0  0
 33 40  1  0  0  0  0
 34 37  1  0  0  0  0
 35 38  1  0  0  0  0
 37 38  1  0  0  0  0
 39 42  1  0  0  0  0
 40 43  2  0  0  0  0
 41 42  2  0  0  0  0
 41 43  1  0  0  0  0
M  END
> <PUBCHEM_COMPOUND_ID_TYPE>
0

> <PUBCHEM_TOTAL_CHARGE>
0

> <PUBCHEM_SUBSTANCE_ID>
310945781

> <PUBCHEM_SUBSTANCE_VERSION>
1

> <PUBCHEM_EXT_DATASOURCE_NAME>
4488

> <PUBCHEM_EXT_DATASOURCE_REGID>
SCHEMBL16123885

> <PUBCHEM_SUBSTANCE_COMMENT>
InChI=1S/C33H41N5O6/c1-20(34-32(42)29-35-24-11-7-8-12-27(24)38(29)3)30(40)37-26(18-22-13-15-23(43-4)16-14-22)31(41)36-25(17-21-9-5-6-10-21)28(39)33(2)19-44-33/h7-8,11-16,20-21,25-26H,5-6,9-10,17-19H2,1-4H3,(H,34,42)(H,36,41)(H,37,40)
InChIKey=UWZGVNODXIFGON-UHFFFAOYSA-N

> <PUBCHEM_SUBSTANCE_SYNONYM>
SCHEMBL16123885

> <PUBCHEM_XREF_EXT_ID>
SCHEMBL16123885

> <PUBCHEM_EXT_DATASOURCE_URL>
https://www.surechembl.org/

> <PUBCHEM_EXT_SUBSTANCE_URL>
https://www.surechembl.org/chemical/SCHEMBL16123885

> <PUBCHEM_CID_ASSOCIATIONS>
117611768  1

> <PUBCHEM_COORDINATE_TYPE>
1
3

$$$$
