310944644
  -OEChem-07211613022D

 35 40  0     1  0  0  0  0  0999 V2000
    1.8249    3.0700    0.0000 F   0  0  0  0  0  0  0  0  0  0  0  0
    1.7908   -1.0233    0.0000 N   0  0  0  0  0  0  0  0  0  0  0  0
    3.9739    2.5924    0.0000 N   0  0  0  0  0  0  0  0  0  0  0  0
    0.3582    0.6140    0.0000 C   0  0  0  0  0  0  0  0  0  0  0  0
   -1.0915   -0.2047    0.0000 C   0  0  0  0  0  0  0  0  0  0  0  0
   -0.3582    1.0233    0.0000 C   0  0  0  0  0  0  0  0  0  0  0  0
    0.3411   -0.1876    0.0000 C   0  0  0  0  0  0  0  0  0  0  0  0
   -1.0915    0.6310    0.0000 C   0  0  0  0  0  0  0  0  0  0  0  0
   -0.3582   -0.5969    0.0000 C   0  0  0  0  0  0  0  0  0  0  0  0
    1.0745    1.0233    0.0000 C   0  0  0  0  0  0  0  0  0  0  0  0
   -1.7908   -0.6140    0.0000 C   0  0  0  0  0  0  0  0  0  0  0  0
    1.8079    0.6310    0.0000 C   0  0  0  0  0  0  0  0  0  0  0  0
   -0.3752    1.8249    0.0000 C   0  0  0  0  0  0  0  0  0  0  0  0
    1.0745   -0.5969    0.0000 C   0  0  0  0  0  0  0  0  0  0  0  0
   -1.8079    1.0404    0.0000 C   0  0  0  0  0  0  0  0  0  0  0  0
   -0.3411   -1.4327    0.0000 C   0  0  0  0  0  0  0  0  0  0  0  0
    1.0915    1.8420    0.0000 C   0  0  0  0  0  0  0  0  0  0  0  0
   -1.8079   -1.4497    0.0000 C   0  0  0  0  0  0  0  0  0  0  0  0
    1.8079    2.2513    0.0000 C   0  0  0  0  0  0  0  0  0  0  0  0
   -2.5071   -0.2388    0.0000 C   0  0  0  0  0  0  0  0  0  0  0  0
    2.5242    1.0233    0.0000 C   0  0  0  0  0  0  0  0  0  0  0  0
    2.5412    1.8590    0.0000 C   0  0  0  0  0  0  0  0  0  0  0  0
   -2.5071   -1.8420    0.0000 C   0  0  0  0  0  0  0  0  0  0  0  0
    1.0915   -1.4156    0.0000 C   0  0  0  0  0  0  0  0  0  0  0  0
   -1.0915    2.2343    0.0000 C   0  0  0  0  0  0  0  0  0  0  0  0
    0.3752   -1.8249    0.0000 C   0  0  0  0  0  0  0  0  0  0  0  0
   -1.7908    1.8249    0.0000 C   0  0  0  0  0  0  0  0  0  0  0  0
   -3.2406   -1.4497    0.0000 C   0  0  3  0  0  0  0  0  0  0  0  0
    1.7908   -0.2217    0.0000 C   0  0  0  0  0  0  0  0  0  0  0  0
   -3.2406   -0.6310    0.0000 C   0  0  0  0  0  0  0  0  0  0  0  0
   -2.5242   -2.6777    0.0000 C   0  0  0  0  0  0  0  0  0  0  0  0
    3.2576    2.2513    0.0000 C   0  0  0  0  0  0  0  0  0  0  0  0
   -3.9739   -1.8931    0.0000 C   0  0  0  0  0  0  0  0  0  0  0  0
   -3.2234   -3.0700    0.0000 C   0  0  0  0  0  0  0  0  0  0  0  0
   -3.9568   -2.6948    0.0000 C   0  0  0  0  0  0  0  0  0  0  0  0
  1 19  1  0  0  0  0
  2 29  3  0  0  0  0
  3 32  3  0  0  0  0
  4  6  2  0  0  0  0
  4  7  1  0  0  0  0
  4 10  1  0  0  0  0
  5  8  2  0  0  0  0
  5  9  1  0  0  0  0
  5 11  1  0  0  0  0
  6  8  1  0  0  0  0
  6 13  1  0  0  0  0
  7  9  1  0  0  0  0
  7 14  2  0  0  0  0
  8 15  1  0  0  0  0
  9 16  2  0  0  0  0
 10 12  1  0  0  0  0
 10 17  2  0  0  0  0
 11 18  1  0  0  0  0
 11 20  2  0  0  0  0
 12 21  2  0  0  0  0
 12 29  1  0  0  0  0
 13 25  2  0  0  0  0
 14 24  1  0  0  0  0
 15 27  2  0  0  0  0
 16 26  1  0  0  0  0
 17 19  1  0  0  0  0
 18 23  2  0  0  0  0
 19 22  2  0  0  0  0
 20 30  1  0  0  0  0
 21 22  1  0  0  0  0
 22 32  1  0  0  0  0
 23 28  1  0  0  0  0
 23 31  1  0  0  0  0
 24 26  2  0  0  0  0
 25 27  1  0  0  0  0
 28 30  1  0  0  0  0
 28 33  1  0  0  0  0
 31 34  2  0  0  0  0
 33 35  2  0  0  0  0
 34 35  1  0  0  0  0
M  END
> <PUBCHEM_COMPOUND_ID_TYPE>
0

> <PUBCHEM_TOTAL_CHARGE>
0

> <PUBCHEM_SUBSTANCE_ID>
310944644

> <PUBCHEM_SUBSTANCE_VERSION>
1

> <PUBCHEM_EXT_DATASOURCE_NAME>
4488

> <PUBCHEM_EXT_DATASOURCE_REGID>
SCHEMBL16122722

> <PUBCHEM_SUBSTANCE_COMMENT>
InChI=1S/C32H19FN2/c33-30-17-29(23(18-34)16-24(30)19-35)32-27-11-5-3-9-25(27)31(26-10-4-6-12-28(26)32)22-14-13-20-7-1-2-8-21(20)15-22/h1-12,14-17,20H,13H2
InChIKey=GQCWHLQOTUZWLV-UHFFFAOYSA-N

> <PUBCHEM_SUBSTANCE_SYNONYM>
SCHEMBL16122722

> <PUBCHEM_XREF_EXT_ID>
SCHEMBL16122722

> <PUBCHEM_EXT_DATASOURCE_URL>
https://www.surechembl.org/

> <PUBCHEM_EXT_SUBSTANCE_URL>
https://www.surechembl.org/chemical/SCHEMBL16122722

> <PUBCHEM_CID_ASSOCIATIONS>
117610874  1

> <PUBCHEM_COORDINATE_TYPE>
1
3

$$$$
