310947859
  -OEChem-07211613022D

 25 27  0     1  0  0  0  0  0999 V2000
   -2.5354  -10.4537    0.0000 O   0  0  0  0  0  0  0  0  0  0  0  0
    0.2980  -11.2087    0.0000 N   0  0  0  0  0  0  0  0  0  0  0  0
    2.3245  -10.2822    0.0000 N   0  0  0  0  0  0  0  0  0  0  0  0
   -0.4165  -13.2712    0.0000 N   0  0  0  0  0  0  0  0  0  0  0  0
    0.9655  -10.7238    0.0000 C   0  0  0  0  0  0  0  0  0  0  0  0
   -0.3694  -10.7238    0.0000 C   0  0  0  0  0  0  0  0  0  0  0  0
    0.7105   -9.9392    0.0000 C   0  0  0  0  0  0  0  0  0  0  0  0
   -0.1145   -9.9392    0.0000 C   0  0  0  0  0  0  0  0  0  0  0  0
    1.7724  -10.8953    0.0000 C   0  0  0  0  0  0  0  0  0  0  0  0
    0.2980  -12.0337    0.0000 C   0  0  3  0  0  0  0  0  0  0  0  0
   -1.1764  -10.8953    0.0000 C   0  0  0  0  0  0  0  0  0  0  0  0
   -0.6665   -9.3261    0.0000 C   0  0  0  0  0  0  0  0  0  0  0  0
    1.2625   -9.3261    0.0000 C   0  0  0  0  0  0  0  0  0  0  0  0
   -1.7284  -10.2822    0.0000 C   0  0  0  0  0  0  0  0  0  0  0  0
   -1.4735   -9.4976    0.0000 C   0  0  0  0  0  0  0  0  0  0  0  0
    2.0695   -9.4976    0.0000 C   0  0  0  0  0  0  0  0  0  0  0  0
   -0.4165  -12.4462    0.0000 C   0  0  0  0  0  0  0  0  0  0  0  0
    2.0274  -11.6799    0.0000 C   0  0  0  0  0  0  0  0  0  0  0  0
    1.0125  -12.4462    0.0000 C   0  0  0  0  0  0  0  0  0  0  0  0
   -1.1220  -13.6837    0.0000 C   0  0  0  0  0  0  0  0  0  0  0  0
   -2.7903  -11.2384    0.0000 C   0  0  0  0  0  0  0  0  0  0  0  0
   -1.1220  -14.5087    0.0000 C   0  0  0  0  0  0  0  0  0  0  0  0
   -1.8376  -13.2732    0.0000 C   0  0  0  0  0  0  0  0  0  0  0  0
   -2.5509  -13.6876    0.0000 C   0  0  0  0  0  0  0  0  0  0  0  0
   -1.8365  -14.9212    0.0000 C   0  0  0  0  0  0  0  0  0  0  0  0
  1 14  1  0  0  0  0
  1 21  1  0  0  0  0
  2  5  1  0  0  0  0
  2  6  1  0  0  0  0
  2 10  1  0  0  0  0
  3  9  2  0  0  0  0
  3 16  1  0  0  0  0
  4 17  1  0  0  0  0
  4 20  1  0  0  0  0
  5  7  2  0  0  0  0
  5  9  1  0  0  0  0
  6  8  2  0  0  0  0
  6 11  1  0  0  0  0
  7  8  1  0  0  0  0
  7 13  1  0  0  0  0
  8 12  1  0  0  0  0
  9 18  1  0  0  0  0
 10 17  1  0  0  0  0
 10 19  1  0  0  0  0
 11 14  2  0  0  0  0
 12 15  2  0  0  0  0
 13 16  2  0  0  0  0
 14 15  1  0  0  0  0
 20 22  1  0  0  0  0
 20 23  1  0  0  0  0
 22 25  1  0  0  0  0
 23 24  1  0  0  0  0
M  END
> <PUBCHEM_COMPOUND_ID_TYPE>
0

> <PUBCHEM_TOTAL_CHARGE>
0

> <PUBCHEM_SUBSTANCE_ID>
310947859

> <PUBCHEM_SUBSTANCE_VERSION>
1

> <PUBCHEM_EXT_DATASOURCE_NAME>
4488

> <PUBCHEM_EXT_DATASOURCE_REGID>
SCHEMBL16126033

> <PUBCHEM_SUBSTANCE_COMMENT>
InChI=1S/C21H29N3O/c1-6-16(7-2)23-13-14(3)24-20-12-17(25-5)8-9-18(20)19-10-11-22-15(4)21(19)24/h8-12,14,16,23H,6-7,13H2,1-5H3
InChIKey=QTAJVRZABYYEFS-UHFFFAOYSA-N

> <PUBCHEM_SUBSTANCE_SYNONYM>
SCHEMBL16126033

> <PUBCHEM_XREF_EXT_ID>
SCHEMBL16126033

> <PUBCHEM_EXT_DATASOURCE_URL>
https://www.surechembl.org/

> <PUBCHEM_EXT_SUBSTANCE_URL>
https://www.surechembl.org/chemical/SCHEMBL16126033

> <PUBCHEM_CID_ASSOCIATIONS>
117613523  1

> <PUBCHEM_COORDINATE_TYPE>
1
3

$$$$
