310949347
  -OEChem-07211613022D

 28 29  0     1  0  0  0  0  0999 V2000
    3.3265   -1.8867    0.0000 F   0  0  0  0  0  0  0  0  0  0  0  0
    0.1862    0.2482    0.0000 F   0  0  0  0  0  0  0  0  0  0  0  0
    0.4096    1.0426    0.0000 F   0  0  0  0  0  0  0  0  0  0  0  0
    1.2039    1.2537    0.0000 F   0  0  0  0  0  0  0  0  0  0  0  0
    2.5817    0.8812    0.0000 O   0  0  0  0  0  0  0  0  0  0  0  0
    1.6260    2.8548    0.0000 O   0  0  0  0  0  0  0  0  0  0  0  0
    0.9557   -3.3886    0.0000 N   0  0  0  0  0  0  0  0  0  0  0  0
    1.8619   -3.6492    0.0000 N   0  0  0  0  0  0  0  0  0  0  0  0
   -0.4841   -2.5693    0.0000 N   0  0  3  0  0  0  0  0  0  0  0  0
   -2.6314   -2.1473    0.0000 N   0  0  0  0  0  0  0  0  0  0  0  0
    1.9487   -1.5019    0.0000 C   0  0  0  0  0  0  0  0  0  0  0  0
    1.5888   -0.1242    0.0000 C   0  0  0  0  0  0  0  0  0  0  0  0
    1.7253   -2.3087    0.0000 C   0  0  0  0  0  0  0  0  0  0  0  0
    2.3708    0.0869    0.0000 C   0  0  0  0  0  0  0  0  0  0  0  0
    2.7307   -1.2909    0.0000 C   0  0  0  0  0  0  0  0  0  0  0  0
    1.3777   -0.9309    0.0000 C   0  0  0  0  0  0  0  0  0  0  0  0
    0.9805    0.4717    0.0000 C   0  0  0  0  0  0  0  0  0  0  0  0
    0.9557   -2.5569    0.0000 C   0  0  0  0  0  0  0  0  0  0  0  0
    2.9541   -0.4965    0.0000 C   0  0  0  0  0  0  0  0  0  0  0  0
    2.2219   -2.9789    0.0000 C   0  0  0  0  0  0  0  0  0  0  0  0
    0.2235   -2.1598    0.0000 C   0  0  0  0  0  0  0  0  0  0  0  0
    2.0108    1.4646    0.0000 C   0  0  0  0  0  0  0  0  0  0  0  0
   -1.2039   -2.1598    0.0000 C   0  0  0  0  0  0  0  0  0  0  0  0
    2.2219    2.2591    0.0000 C   0  0  0  0  0  0  0  0  0  0  0  0
   -0.4717   -3.3886    0.0000 C   0  0  0  0  0  0  0  0  0  0  0  0
   -1.9115   -2.5693    0.0000 C   0  0  0  0  0  0  0  0  0  0  0  0
    1.8494    3.6492    0.0000 C   0  0  0  0  0  0  0  0  0  0  0  0
   -3.3265   -2.5693    0.0000 C   0  0  0  0  0  0  0  0  0  0  0  0
  1 15  1  0  0  0  0
  2 17  1  0  0  0  0
  3 17  1  0  0  0  0
  4 17  1  0  0  0  0
  5 14  1  0  0  0  0
  5 22  1  0  0  0  0
  6 24  1  0  0  0  0
  6 27  1  0  0  0  0
  7  8  1  0  0  0  0
  7 18  2  0  0  0  0
  8 20  1  0  0  0  0
  9 21  1  0  0  0  0
  9 23  1  0  0  0  0
  9 25  1  0  0  0  0
 10 26  1  0  0  0  0
 10 28  1  0  0  0  0
 11 13  1  0  0  0  0
 11 15  2  0  0  0  0
 11 16  1  0  0  0  0
 12 14  1  0  0  0  0
 12 16  2  0  0  0  0
 12 17  1  0  0  0  0
 13 18  1  0  0  0  0
 13 20  2  0  0  0  0
 14 19  2  0  0  0  0
 15 19  1  0  0  0  0
 18 21  1  0  0  0  0
 22 24  1  0  0  0  0
 23 26  1  0  0  0  0
M  END
> <PUBCHEM_COMPOUND_ID_TYPE>
0

> <PUBCHEM_TOTAL_CHARGE>
0

> <PUBCHEM_SUBSTANCE_ID>
310949347

> <PUBCHEM_SUBSTANCE_VERSION>
1

> <PUBCHEM_EXT_DATASOURCE_NAME>
4488

> <PUBCHEM_EXT_DATASOURCE_REGID>
SCHEMBL16127537

> <PUBCHEM_SUBSTANCE_COMMENT>
InChI=1S/C18H24F4N4O2/c1-23-4-5-26(2)11-16-13(10-24-25-16)12-8-14(18(20,21)22)17(9-15(12)19)28-7-6-27-3/h8-10,23H,4-7,11H2,1-3H3,(H,24,25)
InChIKey=NOWCACRJHNSQDR-UHFFFAOYSA-N

> <PUBCHEM_SUBSTANCE_SYNONYM>
SCHEMBL16127537

> <PUBCHEM_XREF_EXT_ID>
SCHEMBL16127537

> <PUBCHEM_EXT_DATASOURCE_URL>
https://www.surechembl.org/

> <PUBCHEM_EXT_SUBSTANCE_URL>
https://www.surechembl.org/chemical/SCHEMBL16127537

> <PUBCHEM_CID_ASSOCIATIONS>
85473021  1

> <PUBCHEM_COORDINATE_TYPE>
1
3

$$$$
