310932365
  -OEChem-07211613022D

 12 12  0     1  0  0  0  0  0999 V2000
    1.5926    1.5189    0.0000 Cl  0  0  0  0  0  0  0  0  0  0  0  0
    1.2706   -0.5462    0.0000 Cl  0  0  0  0  0  0  0  0  0  0  0  0
    1.8475    0.7343    0.0000 S   0  0  0  0  0  0  0  0  0  0  0  0
   -0.2943    0.9059    0.0000 O   0  0  0  0  0  0  0  0  0  0  0  0
    1.6760   -0.0727    0.0000 O   0  0  0  0  0  0  0  0  0  0  0  0
    2.0191    1.5413    0.0000 O   0  0  0  0  0  0  0  0  0  0  0  0
    2.6545    0.5628    0.0000 O   0  0  0  0  0  0  0  0  0  0  0  0
    0.3731    2.2158    0.0000 O   0  0  0  0  0  0  0  0  0  0  0  0
    1.0406    0.9059    0.0000 C   0  0  3  0  0  0  0  0  0  0  0  0
    0.7856    0.1212    0.0000 C   0  0  3  0  0  0  0  0  0  0  0  0
    0.3731    1.3908    0.0000 C   0  0  0  0  0  0  0  0  0  0  0  0
   -0.0394    0.1212    0.0000 C   0  0  0  0  0  0  0  0  0  0  0  0
  1  9  1  0  0  0  0
  2 10  1  0  0  0  0
  3  5  2  0  0  0  0
  3  6  2  0  0  0  0
  3  7  1  0  0  0  0
  3  9  1  0  0  0  0
  4 11  1  0  0  0  0
  4 12  1  0  0  0  0
  8 11  2  0  0  0  0
  9 10  1  0  0  0  0
  9 11  1  0  0  0  0
 10 12  1  0  0  0  0
M  END
> <PUBCHEM_COMPOUND_ID_TYPE>
0

> <PUBCHEM_TOTAL_CHARGE>
0

> <PUBCHEM_SUBSTANCE_ID>
310932365

> <PUBCHEM_SUBSTANCE_VERSION>
1

> <PUBCHEM_EXT_DATASOURCE_NAME>
4488

> <PUBCHEM_EXT_DATASOURCE_REGID>
SCHEMBL16109731

> <PUBCHEM_SUBSTANCE_COMMENT>
InChI=1S/C4H4Cl2O5S/c5-2-1-11-3(7)4(2,6)12(8,9)10/h2H,1H2,(H,8,9,10)
InChIKey=RVKGOMNXNPZCAL-UHFFFAOYSA-N

> <PUBCHEM_SUBSTANCE_SYNONYM>
SCHEMBL16109731

> <PUBCHEM_XREF_EXT_ID>
SCHEMBL16109731

> <PUBCHEM_EXT_DATASOURCE_URL>
https://www.surechembl.org/

> <PUBCHEM_EXT_SUBSTANCE_URL>
https://www.surechembl.org/chemical/SCHEMBL16109731

> <PUBCHEM_CID_ASSOCIATIONS>
117600920  1

> <PUBCHEM_COORDINATE_TYPE>
1
3

$$$$
