310937006
  -OEChem-07211613022D

 23 26  0     1  0  0  0  0  0999 V2000
    2.9860    1.1906    0.0000 O   0  0  0  0  0  0  0  0  0  0  0  0
    0.9269    0.4021    0.0000 N   0  0  3  0  0  0  0  0  0  0  0  0
    1.4515   -0.8253    0.0000 N   0  0  0  0  0  0  0  0  0  0  0  0
    0.0000   -3.2351    0.0000 N   0  0  0  0  0  0  0  0  0  0  0  0
    0.0000   -0.7601    0.0000 C   0  0  0  0  0  0  0  0  0  0  0  0
    0.7433   -0.4021    0.0000 C   0  0  3  0  0  0  0  0  0  0  0  0
   -0.7433   -0.4021    0.0000 C   0  0  3  0  0  0  0  0  0  0  0  0
    0.0000   -1.5851    0.0000 C   0  0  0  0  0  0  0  0  0  0  0  0
    1.7485    0.4761    0.0000 C   0  0  0  0  0  0  0  0  0  0  0  0
   -0.9269    0.4021    0.0000 C   0  0  0  0  0  0  0  0  0  0  0  0
    0.4125    1.0472    0.0000 C   0  0  0  0  0  0  0  0  0  0  0  0
    2.0728   -0.2825    0.0000 C   0  0  0  0  0  0  0  0  0  0  0  0
   -0.4125    1.0472    0.0000 C   0  0  0  0  0  0  0  0  0  0  0  0
   -1.3480   -0.9633    0.0000 C   0  0  0  0  0  0  0  0  0  0  0  0
   -0.7144   -1.9976    0.0000 C   0  0  0  0  0  0  0  0  0  0  0  0
    0.7144   -1.9976    0.0000 C   0  0  0  0  0  0  0  0  0  0  0  0
   -1.7152    0.6453    0.0000 C   0  0  0  0  0  0  0  0  0  0  0  0
    2.1610    1.1906    0.0000 C   0  0  0  0  0  0  0  0  0  0  0  0
   -2.1364   -0.7201    0.0000 C   0  0  0  0  0  0  0  0  0  0  0  0
   -2.3200    0.0842    0.0000 C   0  0  0  0  0  0  0  0  0  0  0  0
   -0.7144   -2.8226    0.0000 C   0  0  0  0  0  0  0  0  0  0  0  0
    0.7144   -2.8226    0.0000 C   0  0  0  0  0  0  0  0  0  0  0  0
    0.0000   -4.0601    0.0000 C   0  0  0  0  0  0  0  0  0  0  0  0
  1 18  1  0  0  0  0
  2  6  1  0  0  0  0
  2  9  1  0  0  0  0
  2 11  1  0  0  0  0
  3  6  1  0  0  0  0
  3 12  1  0  0  0  0
  4 21  1  0  0  0  0
  4 22  1  0  0  0  0
  4 23  1  0  0  0  0
  5  6  1  0  0  0  0
  5  7  1  0  0  0  0
  5  8  2  0  0  0  0
  7 10  1  0  0  0  0
  7 14  1  0  0  0  0
  8 15  1  0  0  0  0
  8 16  1  0  0  0  0
  9 12  2  0  0  0  0
  9 18  1  0  0  0  0
 10 13  2  0  0  0  0
 10 17  1  0  0  0  0
 11 13  1  0  0  0  0
 14 19  2  0  0  0  0
 15 21  1  0  0  0  0
 16 22  1  0  0  0  0
 17 20  2  0  0  0  0
 19 20  1  0  0  0  0
M  END
> <PUBCHEM_COMPOUND_ID_TYPE>
0

> <PUBCHEM_TOTAL_CHARGE>
0

> <PUBCHEM_SUBSTANCE_ID>
310937006

> <PUBCHEM_SUBSTANCE_VERSION>
1

> <PUBCHEM_EXT_DATASOURCE_NAME>
4488

> <PUBCHEM_EXT_DATASOURCE_REGID>
SCHEMBL16114714

> <PUBCHEM_SUBSTANCE_COMMENT>
InChI=1S/C19H25N3O/c1-21-9-6-15(7-10-21)18-17-5-3-2-4-14(17)8-11-22-16(13-23)12-20-19(18)22/h2-5,8,12,17,19-20,23H,6-7,9-11,13H2,1H3
InChIKey=RJJFFRJMBXSZHA-UHFFFAOYSA-N

> <PUBCHEM_SUBSTANCE_SYNONYM>
SCHEMBL16114714

> <PUBCHEM_XREF_EXT_ID>
SCHEMBL16114714

> <PUBCHEM_EXT_DATASOURCE_URL>
https://www.surechembl.org/

> <PUBCHEM_EXT_SUBSTANCE_URL>
https://www.surechembl.org/chemical/SCHEMBL16114714

> <PUBCHEM_CID_ASSOCIATIONS>
117604862  1

> <PUBCHEM_COORDINATE_TYPE>
1
3

$$$$
