310943786
  -OEChem-07211613022D

 37 40  0     1  0  0  0  0  0999 V2000
   -1.9623    2.7732    0.0000 O   0  0  0  0  0  0  0  0  0  0  0  0
   -0.7849   -2.4593    0.0000 O   0  0  0  0  0  0  0  0  0  0  0  0
    1.4128    2.4331    0.0000 O   0  0  0  0  0  0  0  0  0  0  0  0
    2.1716    3.6759    0.0000 O   0  0  0  0  0  0  0  0  0  0  0  0
   -0.0785   -1.1774    0.0000 N   0  0  0  0  0  0  0  0  0  0  0  0
   -0.7719   -0.7326    0.0000 N   0  0  0  0  0  0  0  0  0  0  0  0
    1.5305    0.7849    0.0000 N   0  0  3  0  0  0  0  0  0  0  0  0
    3.2442    2.1454    0.0000 N   0  0  0  0  0  0  0  0  0  0  0  0
   -2.1585    1.9884    0.0000 C   0  0  0  0  0  0  0  0  0  0  0  0
   -0.5625    0.0654    0.0000 C   0  0  0  0  0  0  0  0  0  0  0  0
   -1.0988    0.7064    0.0000 C   0  0  0  0  0  0  0  0  0  0  0  0
    0.2616    0.1046    0.0000 C   0  0  0  0  0  0  0  0  0  0  0  0
   -3.3096    2.6948    0.0000 C   0  0  0  0  0  0  0  0  0  0  0  0
   -2.9825    1.9229    0.0000 C   0  0  0  0  0  0  0  0  0  0  0  0
   -2.4331    1.2035    0.0000 C   0  0  0  0  0  0  0  0  0  0  0  0
   -1.3343    2.1062    0.0000 C   0  0  0  0  0  0  0  0  0  0  0  0
   -1.9099    0.5625    0.0000 C   0  0  0  0  0  0  0  0  0  0  0  0
   -0.8111    1.4782    0.0000 C   0  0  0  0  0  0  0  0  0  0  0  0
    0.5625   -0.6410    0.0000 C   0  0  0  0  0  0  0  0  0  0  0  0
   -2.6686    3.2180    0.0000 C   0  0  0  0  0  0  0  0  0  0  0  0
   -0.0785   -2.0146    0.0000 C   0  0  3  0  0  0  0  0  0  0  0  0
    0.6933    0.7980    0.0000 C   0  0  0  0  0  0  0  0  0  0  0  0
   -4.0944    2.4462    0.0000 C   0  0  0  0  0  0  0  0  0  0  0  0
   -3.8852    3.2442    0.0000 C   0  0  0  0  0  0  0  0  0  0  0  0
    0.6410   -2.3939    0.0000 C   0  0  0  0  0  0  0  0  0  0  0  0
    1.9754    1.4782    0.0000 C   0  0  0  0  0  0  0  0  0  0  0  0
   -0.7588   -3.2966    0.0000 C   0  0  0  0  0  0  0  0  0  0  0  0
    0.6672   -3.2311    0.0000 C   0  0  0  0  0  0  0  0  0  0  0  0
   -0.0262   -3.6759    0.0000 C   0  0  0  0  0  0  0  0  0  0  0  0
    1.9099    0.0262    0.0000 C   0  0  0  0  0  0  0  0  0  0  0  0
    2.7994    1.4389    0.0000 C   0  0  0  0  0  0  0  0  0  0  0  0
    2.1716    2.8648    0.0000 C   0  0  0  0  0  0  0  0  0  0  0  0
    1.3997    1.5698    0.0000 C   0  0  0  0  0  0  0  0  0  0  0  0
    4.0944    2.1192    0.0000 C   0  0  0  0  0  0  0  0  0  0  0  0
    0.6279    1.5436    0.0000 C   0  0  0  0  0  0  0  0  0  0  0  0
    2.1716    1.5698    0.0000 C   0  0  0  0  0  0  0  0  0  0  0  0
    1.4128    0.7326    0.0000 C   0  0  0  0  0  0  0  0  0  0  0  0
  1  9  1  0  0  0  0
  1 20  1  0  0  0  0
  2 21  1  0  0  0  0
  2 27  1  0  0  0  0
  3 32  1  0  0  0  0
  3 33  1  0  0  0  0
  4 32  2  0  0  0  0
  5  6  1  0  0  0  0
  5 19  1  0  0  0  0
  5 21  1  0  0  0  0
  6 10  2  0  0  0  0
  7 22  1  0  0  0  0
  7 26  1  0  0  0  0
  7 30  1  0  0  0  0
  8 31  1  0  0  0  0
  8 32  1  0  0  0  0
  8 34  1  0  0  0  0
  9 14  1  0  0  0  0
  9 15  1  0  0  0  0
  9 16  1  0  0  0  0
 10 11  1  0  0  0  0
 10 12  1  0  0  0  0
 11 17  1  0  0  0  0
 11 18  1  0  0  0  0
 12 19  2  0  0  0  0
 12 22  1  0  0  0  0
 13 14  1  0  0  0  0
 13 20  1  0  0  0  0
 13 23  1  0  0  0  0
 13 24  1  0  0  0  0
 15 17  1  0  0  0  0
 16 18  1  0  0  0  0
 21 25  1  0  0  0  0
 25 28  1  0  0  0  0
 26 31  1  0  0  0  0
 27 29  1  0  0  0  0
 28 29  1  0  0  0  0
 33 35  1  0  0  0  0
 33 36  1  0  0  0  0
 33 37  1  0  0  0  0
M  END
> <PUBCHEM_COMPOUND_ID_TYPE>
0

> <PUBCHEM_TOTAL_CHARGE>
0

> <PUBCHEM_SUBSTANCE_ID>
310943786

> <PUBCHEM_SUBSTANCE_VERSION>
1

> <PUBCHEM_EXT_DATASOURCE_NAME>
4488

> <PUBCHEM_EXT_DATASOURCE_REGID>
SCHEMBL16121856

> <PUBCHEM_SUBSTANCE_COMMENT>
InChI=1S/C29H50N4O4/c1-27(2,3)37-26(34)32(7)16-15-31(6)18-23-19-33(24-10-8-9-17-35-24)30-25(23)22-11-13-29(14-12-22)20-28(4,5)21-36-29/h19,22,24H,8-18,20-21H2,1-7H3
InChIKey=ZSOIXACDQNFUEB-UHFFFAOYSA-N

> <PUBCHEM_SUBSTANCE_SYNONYM>
SCHEMBL16121856

> <PUBCHEM_XREF_EXT_ID>
SCHEMBL16121856

> <PUBCHEM_EXT_DATASOURCE_URL>
https://www.surechembl.org/

> <PUBCHEM_EXT_SUBSTANCE_URL>
https://www.surechembl.org/chemical/SCHEMBL16121856

> <PUBCHEM_CID_ASSOCIATIONS>
117610145  1

> <PUBCHEM_COORDINATE_TYPE>
1
3

$$$$
