310943857
  -OEChem-07211613022D

 31 34  0     1  0  0  0  0  0999 V2000
    3.2310    1.1499    0.0000 O   0  0  0  0  0  0  0  0  0  0  0  0
   -2.8185   -1.4999    0.0000 N   0  0  3  0  0  0  0  0  0  0  0  0
   -0.6437    1.3874    0.0000 N   0  0  0  0  0  0  0  0  0  0  0  0
   -4.5935   -0.9624    0.0000 N   0  0  3  0  0  0  0  0  0  0  0  0
    4.7059    1.9624    0.0000 N   0  0  0  0  0  0  0  0  0  0  0  0
    0.0813   -0.6500    0.0000 C   0  0  0  0  0  0  0  0  0  0  0  0
    0.9937   -0.1250    0.0000 C   0  0  0  0  0  0  0  0  0  0  0  0
   -0.6687   -0.2375    0.0000 C   0  0  0  0  0  0  0  0  0  0  0  0
   -1.3936   -1.4874    0.0000 C   0  0  0  0  0  0  0  0  0  0  0  0
   -1.3686   -0.6500    0.0000 C   0  0  0  0  0  0  0  0  0  0  0  0
    0.0687   -1.4749    0.0000 C   0  0  0  0  0  0  0  0  0  0  0  0
    2.4186    0.7250    0.0000 C   0  0  0  0  0  0  0  0  0  0  0  0
    0.9937    0.6999    0.0000 C   0  0  0  0  0  0  0  0  0  0  0  0
    1.7312   -0.5250    0.0000 C   0  0  0  0  0  0  0  0  0  0  0  0
   -0.6562   -1.8874    0.0000 C   0  0  0  0  0  0  0  0  0  0  0  0
    1.7061    1.1124    0.0000 C   0  0  0  0  0  0  0  0  0  0  0  0
    2.4186   -0.1000    0.0000 C   0  0  0  0  0  0  0  0  0  0  0  0
    4.0060    0.6749    0.0000 C   0  0  0  0  0  0  0  0  0  0  0  0
   -2.0811   -1.8999    0.0000 C   0  0  0  0  0  0  0  0  0  0  0  0
   -0.6562    0.5749    0.0000 C   0  0  0  0  0  0  0  0  0  0  0  0
    4.7184    1.1124    0.0000 C   0  0  0  0  0  0  0  0  0  0  0  0
    4.0185   -0.1500    0.0000 C   0  0  0  0  0  0  0  0  0  0  0  0
   -3.4810   -1.9624    0.0000 C   0  0  0  0  0  0  0  0  0  0  0  0
   -2.7560   -0.6625    0.0000 C   0  0  0  0  0  0  0  0  0  0  0  0
    5.4309    0.6875    0.0000 C   0  0  0  0  0  0  0  0  0  0  0  0
    4.7310   -0.5499    0.0000 C   0  0  0  0  0  0  0  0  0  0  0  0
    5.4309   -0.1375    0.0000 C   0  0  0  0  0  0  0  0  0  0  0  0
   -4.2810   -1.7249    0.0000 C   0  0  0  0  0  0  0  0  0  0  0  0
   -3.3560   -0.1125    0.0000 C   0  0  0  0  0  0  0  0  0  0  0  0
   -4.1685   -0.2375    0.0000 C   0  0  0  0  0  0  0  0  0  0  0  0
   -5.4309   -0.9874    0.0000 C   0  0  0  0  0  0  0  0  0  0  0  0
  1 12  1  0  0  0  0
  1 18  1  0  0  0  0
  2 19  1  0  0  0  0
  2 23  1  0  0  0  0
  2 24  1  0  0  0  0
  3 20  3  0  0  0  0
  4 28  1  0  0  0  0
  4 30  1  0  0  0  0
  4 31  1  0  0  0  0
  5 21  1  0  0  0  0
  6  7  1  0  0  0  0
  6  8  2  0  0  0  0
  6 11  1  0  0  0  0
  7 13  2  0  0  0  0
  7 14  1  0  0  0  0
  8 10  1  0  0  0  0
  8 20  1  0  0  0  0
  9 10  2  0  0  0  0
  9 15  1  0  0  0  0
  9 19  1  0  0  0  0
 11 15  2  0  0  0  0
 12 16  2  0  0  0  0
 12 17  1  0  0  0  0
 13 16  1  0  0  0  0
 14 17  2  0  0  0  0
 18 21  1  0  0  0  0
 18 22  2  0  0  0  0
 21 25  2  0  0  0  0
 22 26  1  0  0  0  0
 23 28  1  0  0  0  0
 24 29  1  0  0  0  0
 25 27  1  0  0  0  0
 26 27  2  0  0  0  0
 29 30  1  0  0  0  0
M  END
> <PUBCHEM_COMPOUND_ID_TYPE>
0

> <PUBCHEM_TOTAL_CHARGE>
0

> <PUBCHEM_SUBSTANCE_ID>
310943857

> <PUBCHEM_SUBSTANCE_VERSION>
1

> <PUBCHEM_EXT_DATASOURCE_NAME>
4488

> <PUBCHEM_EXT_DATASOURCE_REGID>
SCHEMBL16121928

> <PUBCHEM_SUBSTANCE_COMMENT>
InChI=1S/C26H28N4O/c1-29-13-4-14-30(16-15-29)19-20-7-12-24(22(17-20)18-27)21-8-10-23(11-9-21)31-26-6-3-2-5-25(26)28/h2-3,5-12,17H,4,13-16,19,28H2,1H3
InChIKey=UXOATHKVLIEDLJ-UHFFFAOYSA-N

> <PUBCHEM_SUBSTANCE_SYNONYM>
SCHEMBL16121928

> <PUBCHEM_XREF_EXT_ID>
SCHEMBL16121928

> <PUBCHEM_EXT_DATASOURCE_URL>
https://www.surechembl.org/

> <PUBCHEM_EXT_SUBSTANCE_URL>
https://www.surechembl.org/chemical/SCHEMBL16121928

> <PUBCHEM_CID_ASSOCIATIONS>
86299883  1

> <PUBCHEM_COORDINATE_TYPE>
1
3

$$$$
