310940810
  -OEChem-07211613022D

 44 48  0     1  0  0  0  0  0999 V2000
    5.2716    1.0322    0.0000 O   0  0  0  0  0  0  0  0  0  0  0  0
    4.1508   -0.9142    0.0000 O   0  0  0  0  0  0  0  0  0  0  0  0
    3.7085   -2.8164    0.0000 O   0  0  0  0  0  0  0  0  0  0  0  0
    1.5556    0.8995    0.0000 O   0  0  0  0  0  0  0  0  0  0  0  0
   -0.5972   -1.1648    0.0000 O   0  0  0  0  0  0  0  0  0  0  0  0
    5.1536   -2.8164    0.0000 O   0  0  0  0  0  0  0  0  0  0  0  0
   -2.7500    0.8995    0.0000 O   0  0  0  0  0  0  0  0  0  0  0  0
   -5.6106    0.8995    0.0000 O   0  0  0  0  0  0  0  0  0  0  0  0
    2.2782   -0.3392    0.0000 N   0  0  0  0  0  0  0  0  0  0  0  0
    0.1253    0.0737    0.0000 N   0  0  0  0  0  0  0  0  0  0  0  0
    4.4311   -1.5778    0.0000 N   0  0  0  0  0  0  0  0  0  0  0  0
   -2.0275   -0.3392    0.0000 N   0  0  0  0  0  0  0  0  0  0  0  0
   -4.1803    0.0737    0.0000 N   0  0  0  0  0  0  0  0  0  0  0  0
    4.8734    0.3686    0.0000 C   0  0  3  0  0  0  0  0  0  0  0  0
    4.1656   -0.0442    0.0000 C   0  0  0  0  0  0  0  0  0  0  0  0
    4.4753    1.0469    0.0000 C   0  0  0  0  0  0  0  0  0  0  0  0
    3.4136    0.3539    0.0000 C   0  0  3  0  0  0  0  0  0  0  0  0
    5.6106   -0.0737    0.0000 C   0  0  0  0  0  0  0  0  0  0  0  0
    3.4283    1.4156    0.0000 C   0  0  0  0  0  0  0  0  0  0  0  0
    1.5704    0.0737    0.0000 C   0  0  0  0  0  0  0  0  0  0  0  0
    0.8626   -0.3097    0.0000 C   0  0  3  0  0  0  0  0  0  0  0  0
    1.5704   -1.5483    0.0000 C   0  0  0  0  0  0  0  0  0  0  0  0
    2.7058    1.8432    0.0000 C   0  0  0  0  0  0  0  0  0  0  0  0
    3.0007   -1.5483    0.0000 C   0  0  0  0  0  0  0  0  0  0  0  0
    3.0007   -2.3740    0.0000 C   0  0  0  0  0  0  0  0  0  0  0  0
    0.8478   -1.1354    0.0000 C   0  0  0  0  0  0  0  0  0  0  0  0
    2.2782   -1.1501    0.0000 C   0  0  0  0  0  0  0  0  0  0  0  0
    1.5852   -2.3887    0.0000 C   0  0  0  0  0  0  0  0  0  0  0  0
    2.2930   -2.7869    0.0000 C   0  0  0  0  0  0  0  0  0  0  0  0
    3.7085   -1.1501    0.0000 C   0  0  0  0  0  0  0  0  0  0  0  0
   -0.5825   -0.2949    0.0000 C   0  0  0  0  0  0  0  0  0  0  0  0
    1.9538    1.5041    0.0000 C   0  0  0  0  0  0  0  0  0  0  0  0
    2.6173    2.6542    0.0000 C   0  0  0  0  0  0  0  0  0  0  0  0
    4.4015   -2.3740    0.0000 C   0  0  0  0  0  0  0  0  0  0  0  0
   -1.3197    0.1033    0.0000 C   0  0  3  0  0  0  0  0  0  0  0  0
    1.4229    2.0939    0.0000 C   0  0  0  0  0  0  0  0  0  0  0  0
    1.8211    2.8164    0.0000 C   0  0  0  0  0  0  0  0  0  0  0  0
   -2.7353    0.0737    0.0000 C   0  0  0  0  0  0  0  0  0  0  0  0
   -1.2902    0.9437    0.0000 C   0  0  0  0  0  0  0  0  0  0  0  0
   -3.4431   -0.3097    0.0000 C   0  0  0  0  0  0  0  0  0  0  0  0
   -4.1656    0.9142    0.0000 C   0  0  0  0  0  0  0  0  0  0  0  0
   -4.8882   -0.3097    0.0000 C   0  0  0  0  0  0  0  0  0  0  0  0
   -4.9029    1.3271    0.0000 C   0  0  0  0  0  0  0  0  0  0  0  0
   -5.5959    0.1033    0.0000 C   0  0  0  0  0  0  0  0  0  0  0  0
  1 14  1  0  0  0  0
  1 16  1  0  0  0  0
  2 15  2  0  0  0  0
  3 25  1  0  0  0  0
  3 34  1  0  0  0  0
  4 20  2  0  0  0  0
  5 31  2  0  0  0  0
  6 34  2  0  0  0  0
  7 38  2  0  0  0  0
  8 43  1  0  0  0  0
  8 44  1  0  0  0  0
  9 17  1  0  0  0  0
  9 20  1  0  0  0  0
 10 21  1  0  0  0  0
 10 31  1  0  0  0  0
 11 30  1  0  0  0  0
 11 34  1  0  0  0  0
 12 35  1  0  0  0  0
 12 38  1  0  0  0  0
 13 40  1  0  0  0  0
 13 41  1  0  0  0  0
 13 42  1  0  0  0  0
 14 15  1  0  0  0  0
 14 16  1  0  0  0  0
 14 18  1  0  0  0  0
 15 17  1  0  0  0  0
 17 19  1  0  0  0  0
 19 23  1  0  0  0  0
 20 21  1  0  0  0  0
 21 26  1  0  0  0  0
 22 26  1  0  0  0  0
 22 27  1  0  0  0  0
 22 28  2  0  0  0  0
 23 32  1  0  0  0  0
 23 33  1  0  0  0  0
 24 25  1  0  0  0  0
 24 27  2  0  0  0  0
 24 30  1  0  0  0  0
 25 29  2  0  0  0  0
 28 29  1  0  0  0  0
 31 35  1  0  0  0  0
 32 36  1  0  0  0  0
 33 37  1  0  0  0  0
 35 39  1  0  0  0  0
 36 37  1  0  0  0  0
 38 40  1  0  0  0  0
 41 43  1  0  0  0  0
 42 44  1  0  0  0  0
M  END
> <PUBCHEM_COMPOUND_ID_TYPE>
0

> <PUBCHEM_TOTAL_CHARGE>
0

> <PUBCHEM_SUBSTANCE_ID>
310940810

> <PUBCHEM_SUBSTANCE_VERSION>
1

> <PUBCHEM_EXT_DATASOURCE_NAME>
4488

> <PUBCHEM_EXT_DATASOURCE_REGID>
SCHEMBL16118769

> <PUBCHEM_SUBSTANCE_COMMENT>
InChI=1S/C31H43N5O8/c1-19(33-26(37)17-36-9-11-42-12-10-36)28(39)35-24(15-21-7-8-25-22(13-21)16-32-30(41)44-25)29(40)34-23(14-20-5-3-4-6-20)27(38)31(2)18-43-31/h7-8,13,19-20,23-24H,3-6,9-12,14-18H2,1-2H3,(H,32,41)(H,33,37)(H,34,40)(H,35,39)
InChIKey=AEVDMYHSXFTDPL-UHFFFAOYSA-N

> <PUBCHEM_SUBSTANCE_SYNONYM>
SCHEMBL16118769

> <PUBCHEM_XREF_EXT_ID>
SCHEMBL16118769

> <PUBCHEM_EXT_DATASOURCE_URL>
https://www.surechembl.org/

> <PUBCHEM_EXT_SUBSTANCE_URL>
https://www.surechembl.org/chemical/SCHEMBL16118769

> <PUBCHEM_CID_ASSOCIATIONS>
86296343  1

> <PUBCHEM_COORDINATE_TYPE>
1
3

$$$$
