310948418
  -OEChem-07211613022D

 42 47  0     1  0  0  0  0  0999 V2000
    2.9551   -2.1230    0.0000 S   0  0  0  0  0  0  0  0  0  0  0  0
    2.7073    3.8941    0.0000 F   0  0  0  0  0  0  0  0  0  0  0  0
    3.2382    3.2747    0.0000 F   0  0  0  0  0  0  0  0  0  0  0  0
   -1.9293    0.9562    0.0000 O   0  0  0  0  0  0  0  0  0  0  0  0
    1.6278    3.3277    0.0000 O   0  0  0  0  0  0  0  0  0  0  0  0
    2.4950    2.3190    0.0000 O   0  0  0  0  0  0  0  0  0  0  0  0
   -4.6724    0.1068    0.0000 O   0  0  0  0  0  0  0  0  0  0  0  0
    2.9551   -2.1230    0.0000 O   0  0  0  0  0  0  0  0  0  0  0  0
    2.9551   -2.1230    0.0000 O   0  0  0  0  0  0  0  0  0  0  0  0
   -1.3453    2.1420    0.0000 N   0  0  0  0  0  0  0  0  0  0  0  0
   -2.4956   -1.1851    0.0000 N   0  0  0  0  0  0  0  0  0  0  0  0
   -3.2743   -0.9019    0.0000 N   0  0  0  0  0  0  0  0  0  0  0  0
   -1.1153    0.8678    0.0000 C   0  0  0  0  0  0  0  0  0  0  0  0
   -0.7082    0.1422    0.0000 C   0  0  0  0  0  0  0  0  0  0  0  0
   -0.7436    1.6111    0.0000 C   0  0  0  0  0  0  0  0  0  0  0  0
   -1.1506   -0.5657    0.0000 C   0  0  0  0  0  0  0  0  0  0  0  0
    0.1058    1.7349    0.0000 C   0  0  0  0  0  0  0  0  0  0  0  0
   -1.9824   -0.5126    0.0000 C   0  0  0  0  0  0  0  0  0  0  0  0
    1.1854    2.6375    0.0000 C   0  0  0  0  0  0  0  0  0  0  0  0
    1.7163    2.0181    0.0000 C   0  0  0  0  0  0  0  0  0  0  0  0
    0.1235    0.1068    0.0000 C   0  0  0  0  0  0  0  0  0  0  0  0
    0.4952   -0.6011    0.0000 C   0  0  0  0  0  0  0  0  0  0  0  0
    0.3713    2.4959    0.0000 C   0  0  0  0  0  0  0  0  0  0  0  0
   -2.0532    1.7880    0.0000 C   0  0  0  0  0  0  0  0  0  0  0  0
    2.4419    3.1508    0.0000 C   0  0  0  0  0  0  0  0  0  0  0  0
   -0.7613   -1.2736    0.0000 C   0  0  0  0  0  0  0  0  0  0  0  0
    0.6191    1.1155    0.0000 C   0  0  0  0  0  0  0  0  0  0  0  0
   -2.4425    0.1422    0.0000 C   0  0  0  0  0  0  0  0  0  0  0  0
    1.4331    1.2571    0.0000 C   0  0  0  0  0  0  0  0  0  0  0  0
    0.0705   -1.2913    0.0000 C   0  0  0  0  0  0  0  0  0  0  0  0
    1.3446   -0.6365    0.0000 C   0  0  0  0  0  0  0  0  0  0  0  0
   -3.2212   -0.0702    0.0000 C   0  0  0  0  0  0  0  0  0  0  0  0
    1.7340   -1.3621    0.0000 C   0  0  0  0  0  0  0  0  0  0  0  0
    2.5657   -1.3975    0.0000 C   0  0  0  0  0  0  0  0  0  0  0  0
   -3.9291    0.4253    0.0000 C   0  0  3  0  0  0  0  0  0  0  0  0
    1.7871    0.0537    0.0000 C   0  0  0  0  0  0  0  0  0  0  0  0
   -2.8142    2.1066    0.0000 C   0  0  0  0  0  0  0  0  0  0  0  0
   -2.2479   -1.9815    0.0000 C   0  0  0  0  0  0  0  0  0  0  0  0
    2.9905   -0.7250    0.0000 C   0  0  0  0  0  0  0  0  0  0  0  0
    2.6188    0.0006    0.0000 C   0  0  0  0  0  0  0  0  0  0  0  0
   -3.7875    1.2217    0.0000 C   0  0  0  0  0  0  0  0  0  0  0  0
    4.6724   -3.8941    0.0000 C   0  0  0  0  0  0  0  0  0  0  0  0
  1  8  2  0  0  0  0
  1  9  2  0  0  0  0
  1 34  1  0  0  0  0
  1 42  1  0  0  0  0
  2 25  1  0  0  0  0
  3 25  1  0  0  0  0
  4 13  1  0  0  0  0
  4 24  1  0  0  0  0
  5 19  1  0  0  0  0
  5 25  1  0  0  0  0
  6 20  1  0  0  0  0
  6 25  1  0  0  0  0
  7 35  1  0  0  0  0
 10 15  1  0  0  0  0
 10 24  2  0  0  0  0
 11 12  1  0  0  0  0
 11 18  1  0  0  0  0
 11 38  1  0  0  0  0
 12 32  2  0  0  0  0
 13 14  1  0  0  0  0
 13 15  2  0  0  0  0
 14 16  1  0  0  0  0
 14 21  2  0  0  0  0
 15 17  1  0  0  0  0
 16 18  1  0  0  0  0
 16 26  2  0  0  0  0
 17 23  1  0  0  0  0
 17 27  2  0  0  0  0
 18 28  2  0  0  0  0
 19 20  1  0  0  0  0
 19 23  2  0  0  0  0
 20 29  2  0  0  0  0
 21 22  1  0  0  0  0
 22 30  2  0  0  0  0
 22 31  1  0  0  0  0
 24 37  1  0  0  0  0
 26 30  1  0  0  0  0
 27 29  1  0  0  0  0
 28 32  1  0  0  0  0
 31 33  1  0  0  0  0
 31 36  2  0  0  0  0
 32 35  1  0  0  0  0
 33 34  2  0  0  0  0
 34 39  1  0  0  0  0
 35 41  1  0  0  0  0
 36 40  1  0  0  0  0
 39 40  2  0  0  0  0
M  END
> <PUBCHEM_COMPOUND_ID_TYPE>
0

> <PUBCHEM_TOTAL_CHARGE>
0

> <PUBCHEM_SUBSTANCE_ID>
310948418

> <PUBCHEM_SUBSTANCE_VERSION>
1

> <PUBCHEM_EXT_DATASOURCE_NAME>
4488

> <PUBCHEM_EXT_DATASOURCE_REGID>
SCHEMBL16126599

> <PUBCHEM_SUBSTANCE_COMMENT>
InChI=1S/C30H25F2N3O6S/c1-16(36)24-15-25(35(3)34-24)22-10-8-19(18-6-5-7-21(12-18)42(4,37)38)13-23(22)29-28(33-17(2)39-29)20-9-11-26-27(14-20)41-30(31,32)40-26/h5-16,36H,1-4H3
InChIKey=PEXHLYCSEVCLCM-UHFFFAOYSA-N

> <PUBCHEM_SUBSTANCE_SYNONYM>
SCHEMBL16126599

> <PUBCHEM_XREF_EXT_ID>
SCHEMBL16126599

> <PUBCHEM_EXT_DATASOURCE_URL>
https://www.surechembl.org/

> <PUBCHEM_EXT_SUBSTANCE_URL>
https://www.surechembl.org/chemical/SCHEMBL16126599

> <PUBCHEM_CID_ASSOCIATIONS>
86276050  1

> <PUBCHEM_COORDINATE_TYPE>
1
3

$$$$
