310945406
  -OEChem-07211613022D

 25 27  0     1  0  0  0  0  0999 V2000
    2.9597    0.0439    0.0000 F   0  0  0  0  0  0  0  0  0  0  0  0
    2.4762   -0.9817    0.0000 F   0  0  0  0  0  0  0  0  0  0  0  0
    1.4359   -0.4982    0.0000 F   0  0  0  0  0  0  0  0  0  0  0  0
   -2.4030    1.0989    0.0000 O   0  0  0  0  0  0  0  0  0  0  0  0
    0.4103    0.3370    0.0000 N   0  0  0  0  0  0  0  0  0  0  0  0
    2.4469    1.2748    0.0000 N   0  0  0  0  0  0  0  0  0  0  0  0
   -0.2784   -1.7875    0.0000 N   0  0  0  0  0  0  0  0  0  0  0  0
    1.0696    0.8499    0.0000 C   0  0  0  0  0  0  0  0  0  0  0  0
    0.8352    1.5971    0.0000 C   0  0  0  0  0  0  0  0  0  0  0  0
   -0.2638    0.8352    0.0000 C   0  0  0  0  0  0  0  0  0  0  0  0
    0.0147    1.6264    0.0000 C   0  0  0  0  0  0  0  0  0  0  0  0
    1.8755    0.6447    0.0000 C   0  0  0  0  0  0  0  0  0  0  0  0
    2.1832   -0.2198    0.0000 C   0  0  0  0  0  0  0  0  0  0  0  0
    1.3919    2.2271    0.0000 C   0  0  0  0  0  0  0  0  0  0  0  0
   -1.0549    0.6593    0.0000 C   0  0  0  0  0  0  0  0  0  0  0  0
   -0.5275    2.2125    0.0000 C   0  0  0  0  0  0  0  0  0  0  0  0
    0.4103   -0.4835    0.0000 C   0  0  0  0  0  0  0  0  0  0  0  0
   -1.6118    1.2894    0.0000 C   0  0  0  0  0  0  0  0  0  0  0  0
    2.1978    2.0513    0.0000 C   0  0  0  0  0  0  0  0  0  0  0  0
   -1.3334    2.0660    0.0000 C   0  0  0  0  0  0  0  0  0  0  0  0
   -0.2784   -0.9524    0.0000 C   0  0  3  0  0  0  0  0  0  0  0  0
   -0.9964   -0.5714    0.0000 C   0  0  0  0  0  0  0  0  0  0  0  0
   -2.9597    1.7143    0.0000 C   0  0  0  0  0  0  0  0  0  0  0  0
    0.4543   -2.2271    0.0000 C   0  0  0  0  0  0  0  0  0  0  0  0
   -0.9817   -2.2271    0.0000 C   0  0  0  0  0  0  0  0  0  0  0  0
  1 13  1  0  0  0  0
  2 13  1  0  0  0  0
  3 13  1  0  0  0  0
  4 18  1  0  0  0  0
  4 23  1  0  0  0  0
  5  8  1  0  0  0  0
  5 10  1  0  0  0  0
  5 17  1  0  0  0  0
  6 12  2  0  0  0  0
  6 19  1  0  0  0  0
  7 21  1  0  0  0  0
  7 24  1  0  0  0  0
  7 25  1  0  0  0  0
  8  9  2  0  0  0  0
  8 12  1  0  0  0  0
  9 11  1  0  0  0  0
  9 14  1  0  0  0  0
 10 11  2  0  0  0  0
 10 15  1  0  0  0  0
 11 16  1  0  0  0  0
 12 13  1  0  0  0  0
 14 19  2  0  0  0  0
 15 18  2  0  0  0  0
 16 20  2  0  0  0  0
 17 21  1  0  0  0  0
 18 20  1  0  0  0  0
 21 22  1  0  0  0  0
M  END
> <PUBCHEM_COMPOUND_ID_TYPE>
0

> <PUBCHEM_TOTAL_CHARGE>
0

> <PUBCHEM_SUBSTANCE_ID>
310945406

> <PUBCHEM_SUBSTANCE_VERSION>
1

> <PUBCHEM_EXT_DATASOURCE_NAME>
4488

> <PUBCHEM_EXT_DATASOURCE_REGID>
SCHEMBL16123504

> <PUBCHEM_SUBSTANCE_COMMENT>
InChI=1S/C18H20F3N3O/c1-11(23(2)3)10-24-15-9-12(25-4)5-6-13(15)14-7-8-22-17(16(14)24)18(19,20)21/h5-9,11H,10H2,1-4H3
InChIKey=ASGQPUIZVLKBQG-UHFFFAOYSA-N

> <PUBCHEM_SUBSTANCE_SYNONYM>
SCHEMBL16123504

> <PUBCHEM_XREF_EXT_ID>
SCHEMBL16123504

> <PUBCHEM_EXT_DATASOURCE_URL>
https://www.surechembl.org/

> <PUBCHEM_EXT_SUBSTANCE_URL>
https://www.surechembl.org/chemical/SCHEMBL16123504

> <PUBCHEM_CID_ASSOCIATIONS>
117611452  1

> <PUBCHEM_COORDINATE_TYPE>
1
3

$$$$
