310937085
  -OEChem-07211613022D

 22 24  0     1  0  0  0  0  0999 V2000
    4.2868    0.0000    0.0000 F   0  0  0  0  0  0  0  0  0  0  0  0
    5.0013    0.4125    0.0000 F   0  0  0  0  0  0  0  0  0  0  0  0
    5.0013    1.2375    0.0000 F   0  0  0  0  0  0  0  0  0  0  0  0
    1.4290    0.8250    0.0000 O   0  0  0  0  0  0  0  0  0  0  0  0
   -2.2875    1.1266    0.0000 O   0  0  0  0  0  0  0  0  0  0  0  0
   -2.2875   -0.3024    0.0000 O   0  0  0  0  0  0  0  0  0  0  0  0
   -1.0500    0.4121    0.0000 N   0  0  0  0  0  0  0  0  0  0  0  0
    2.8579    0.8250    0.0000 N   0  0  0  0  0  0  0  0  0  0  0  0
    2.1434    2.0625    0.0000 N   0  0  0  0  0  0  0  0  0  0  0  0
   -0.7144    1.2375    0.0000 C   0  0  3  0  0  0  0  0  0  0  0  0
   -0.7144   -0.4125    0.0000 C   0  0  3  0  0  0  0  0  0  0  0  0
    0.0000    0.8250    0.0000 C   0  0  3  0  0  0  0  0  0  0  0  0
    0.0000    0.0000    0.0000 C   0  0  0  0  0  0  0  0  0  0  0  0
   -1.4290    0.8250    0.0000 C   0  0  0  0  0  0  0  0  0  0  0  0
   -1.4290    0.0000    0.0000 C   0  0  0  0  0  0  0  0  0  0  0  0
   -1.8750    0.4121    0.0000 C   0  0  0  0  0  0  0  0  0  0  0  0
    3.5724    1.2375    0.0000 C   0  0  0  0  0  0  0  0  0  0  0  0
    0.7144    1.2375    0.0000 C   0  0  0  0  0  0  0  0  0  0  0  0
    4.2868    0.8250    0.0000 C   0  0  0  0  0  0  0  0  0  0  0  0
    2.1434    1.2375    0.0000 C   0  0  0  0  0  0  0  0  0  0  0  0
    3.5724    2.0625    0.0000 C   0  0  0  0  0  0  0  0  0  0  0  0
    2.8579    2.4750    0.0000 C   0  0  0  0  0  0  0  0  0  0  0  0
  1 19  1  0  0  0  0
  2 19  1  0  0  0  0
  3 19  1  0  0  0  0
  4 18  1  0  0  0  0
  4 20  1  0  0  0  0
  5 16  2  0  0  0  0
  6 16  1  0  0  0  0
  7 10  1  0  0  0  0
  7 11  1  0  0  0  0
  7 16  1  0  0  0  0
  8 17  2  0  0  0  0
  8 20  1  0  0  0  0
  9 20  2  0  0  0  0
  9 22  1  0  0  0  0
 10 12  1  0  0  0  0
 10 14  1  0  0  0  0
 11 13  1  0  0  0  0
 11 15  1  0  0  0  0
 12 13  1  0  0  0  0
 12 18  1  0  0  0  0
 14 15  1  0  0  0  0
 17 19  1  0  0  0  0
 17 21  1  0  0  0  0
 21 22  2  0  0  0  0
M  END
> <PUBCHEM_COMPOUND_ID_TYPE>
0

> <PUBCHEM_TOTAL_CHARGE>
0

> <PUBCHEM_SUBSTANCE_ID>
310937085

> <PUBCHEM_SUBSTANCE_VERSION>
1

> <PUBCHEM_EXT_DATASOURCE_NAME>
4488

> <PUBCHEM_EXT_DATASOURCE_REGID>
SCHEMBL16114798

> <PUBCHEM_SUBSTANCE_COMMENT>
InChI=1S/C13H14F3N3O3/c14-13(15,16)10-3-4-17-11(18-10)22-6-7-5-8-1-2-9(7)19(8)12(20)21/h3-4,7-9H,1-2,5-6H2,(H,20,21)
InChIKey=ZETFZEZZIIBIQI-UHFFFAOYSA-N

> <PUBCHEM_SUBSTANCE_SYNONYM>
SCHEMBL16114798

> <PUBCHEM_XREF_EXT_ID>
SCHEMBL16114798

> <PUBCHEM_EXT_DATASOURCE_URL>
https://www.surechembl.org/

> <PUBCHEM_EXT_SUBSTANCE_URL>
https://www.surechembl.org/chemical/SCHEMBL16114798

> <PUBCHEM_CID_ASSOCIATIONS>
117604922  1

> <PUBCHEM_COORDINATE_TYPE>
1
3

$$$$
