310932947
  -OEChem-07211613022D

 20 21  0     1  0  0  0  0  0999 V2000
    0.0000   -1.2271    0.0000 F   0  0  0  0  0  0  0  0  0  0  0  0
    1.2517   -1.9389    0.0000 F   0  0  0  0  0  0  0  0  0  0  0  0
    0.4172   -0.5154    0.0000 F   0  0  0  0  0  0  0  0  0  0  0  0
    5.9395   -1.2271    0.0000 O   0  0  0  0  0  0  0  0  0  0  0  0
    5.2277    0.0000    0.0000 O   0  0  0  0  0  0  0  0  0  0  0  0
    1.5462   -0.8100    0.0000 C   0  0  3  0  0  0  0  0  0  0  0  0
    2.3562   -0.8100    0.0000 C   0  0  3  0  0  0  0  0  0  0  0  0
    1.9389   -0.0981    0.0000 C   0  0  0  0  0  0  0  0  0  0  0  0
    0.8345   -1.2271    0.0000 C   0  0  0  0  0  0  0  0  0  0  0  0
    3.0925   -1.2271    0.0000 C   0  0  0  0  0  0  0  0  0  0  0  0
    3.8042   -0.8100    0.0000 C   0  0  0  0  0  0  0  0  0  0  0  0
    4.5160   -1.2271    0.0000 C   0  0  0  0  0  0  0  0  0  0  0  0
    3.0925   -2.0616    0.0000 C   0  0  0  0  0  0  0  0  0  0  0  0
    5.2277   -0.8100    0.0000 C   0  0  0  0  0  0  0  0  0  0  0  0
    4.5160   -2.0616    0.0000 C   0  0  0  0  0  0  0  0  0  0  0  0
    3.8042   -2.4543    0.0000 C   0  0  0  0  0  0  0  0  0  0  0  0
    6.6513   -0.8100    0.0000 C   0  0  0  0  0  0  0  0  0  0  0  0
    7.0685   -1.5462    0.0000 C   0  0  0  0  0  0  0  0  0  0  0  0
    7.3630   -0.4172    0.0000 C   0  0  0  0  0  0  0  0  0  0  0  0
    6.2586   -0.0981    0.0000 C   0  0  0  0  0  0  0  0  0  0  0  0
  1  9  1  0  0  0  0
  2  9  1  0  0  0  0
  3  9  1  0  0  0  0
  4 14  1  0  0  0  0
  4 17  1  0  0  0  0
  5 14  2  0  0  0  0
  6  7  1  0  0  0  0
  6  8  1  0  0  0  0
  6  9  1  0  0  0  0
  7  8  1  0  0  0  0
  7 10  1  0  0  0  0
 10 11  1  0  0  0  0
 10 13  2  0  0  0  0
 11 12  2  0  0  0  0
 12 14  1  0  0  0  0
 12 15  1  0  0  0  0
 13 16  1  0  0  0  0
 15 16  2  0  0  0  0
 17 18  1  0  0  0  0
 17 19  1  0  0  0  0
 17 20  1  0  0  0  0
M  END
> <PUBCHEM_COMPOUND_ID_TYPE>
0

> <PUBCHEM_TOTAL_CHARGE>
0

> <PUBCHEM_SUBSTANCE_ID>
310932947

> <PUBCHEM_SUBSTANCE_VERSION>
1

> <PUBCHEM_EXT_DATASOURCE_NAME>
4488

> <PUBCHEM_EXT_DATASOURCE_REGID>
SCHEMBL16110343

> <PUBCHEM_SUBSTANCE_COMMENT>
InChI=1S/C15H17F3O2/c1-14(2,3)20-13(19)10-6-4-5-9(7-10)11-8-12(11)15(16,17)18/h4-7,11-12H,8H2,1-3H3
InChIKey=XPBFPTFOKFECAT-UHFFFAOYSA-N

> <PUBCHEM_SUBSTANCE_SYNONYM>
SCHEMBL16110343

> <PUBCHEM_XREF_EXT_ID>
SCHEMBL16110343

> <PUBCHEM_EXT_DATASOURCE_URL>
https://www.surechembl.org/

> <PUBCHEM_EXT_SUBSTANCE_URL>
https://www.surechembl.org/chemical/SCHEMBL16110343

> <PUBCHEM_CID_ASSOCIATIONS>
77436856  1

> <PUBCHEM_COORDINATE_TYPE>
1
3

$$$$
