310933484
  -OEChem-07211613022D

 29 32  0     1  0  0  0  0  0999 V2000
    2.5218   -4.2555    0.0000 O   0  0  0  0  0  0  0  0  0  0  0  0
    5.9577   -1.1033    0.0000 O   0  0  0  0  0  0  0  0  0  0  0  0
    0.4413   -2.1750    0.0000 O   0  0  0  0  0  0  0  0  0  0  0  0
    3.9718   -5.0750    0.0000 O   0  0  0  0  0  0  0  0  0  0  0  0
    1.7337   -2.8370    0.0000 N   0  0  0  0  0  0  0  0  0  0  0  0
    1.7653   -1.5130    0.0000 N   0  0  0  0  0  0  0  0  0  0  0  0
    4.0979   -5.2326    0.0000 N   0  0  0  0  0  0  0  0  0  0  0  0
    5.5794   -0.3783    0.0000 N   0  0  0  0  0  0  0  0  0  0  0  0
    3.2468   -3.0261    0.0000 C   0  0  0  0  0  0  0  0  0  0  0  0
    3.2468   -3.8457    0.0000 C   0  0  3  0  0  0  0  0  0  0  0  0
    2.5218   -2.6163    0.0000 C   0  0  0  0  0  0  0  0  0  0  0  0
    2.5533   -1.7653    0.0000 C   0  0  0  0  0  0  0  0  0  0  0  0
    3.9718   -1.7653    0.0000 C   0  0  0  0  0  0  0  0  0  0  0  0
    3.9403   -2.6479    0.0000 C   0  0  0  0  0  0  0  0  0  0  0  0
    4.6653   -1.3870    0.0000 C   0  0  0  0  0  0  0  0  0  0  0  0
    3.2783   -1.3870    0.0000 C   0  0  0  0  0  0  0  0  0  0  0  0
    3.2468   -4.6653    0.0000 C   0  0  0  0  0  0  0  0  0  0  0  0
    1.2609   -2.1750    0.0000 C   0  0  0  0  0  0  0  0  0  0  0  0
    3.9718   -4.2555    0.0000 C   0  0  0  0  0  0  0  0  0  0  0  0
    5.4218   -1.7022    0.0000 C   0  0  0  0  0  0  0  0  0  0  0  0
    4.7598   -0.5674    0.0000 C   0  0  0  0  0  0  0  0  0  0  0  0
    2.5218   -5.0750    0.0000 C   0  0  0  0  0  0  0  0  0  0  0  0
    3.9718   -5.8946    0.0000 C   0  0  0  0  0  0  0  0  0  0  0  0
    2.5533   -5.8946    0.0000 C   0  0  0  0  0  0  0  0  0  0  0  0
    5.6109   -2.5218    0.0000 C   0  0  0  0  0  0  0  0  0  0  0  0
    4.1609    0.0000    0.0000 C   0  0  0  0  0  0  0  0  0  0  0  0
    3.2468   -6.3044    0.0000 C   0  0  0  0  0  0  0  0  0  0  0  0
    0.0000   -2.8685    0.0000 C   0  0  0  0  0  0  0  0  0  0  0  0
    0.4098   -3.5935    0.0000 C   0  0  0  0  0  0  0  0  0  0  0  0
  1 10  1  0  0  0  0
  2  8  1  0  0  0  0
  2 20  1  0  0  0  0
  3 18  1  0  0  0  0
  3 28  1  0  0  0  0
  4 19  2  0  0  0  0
  5 11  1  0  0  0  0
  5 18  2  0  0  0  0
  6 12  1  0  0  0  0
  6 18  1  0  0  0  0
  7 17  1  0  0  0  0
  7 23  2  0  0  0  0
  8 21  2  0  0  0  0
  9 10  1  0  0  0  0
  9 11  1  0  0  0  0
  9 14  2  0  0  0  0
 10 17  1  0  0  0  0
 10 19  1  0  0  0  0
 11 12  2  0  0  0  0
 12 16  1  0  0  0  0
 13 14  1  0  0  0  0
 13 15  1  0  0  0  0
 13 16  2  0  0  0  0
 15 20  2  0  0  0  0
 15 21  1  0  0  0  0
 17 22  2  0  0  0  0
 20 25  1  0  0  0  0
 21 26  1  0  0  0  0
 22 24  1  0  0  0  0
 23 27  1  0  0  0  0
 24 27  2  0  0  0  0
 28 29  1  0  0  0  0
M  END
> <PUBCHEM_COMPOUND_ID_TYPE>
0

> <PUBCHEM_TOTAL_CHARGE>
0

> <PUBCHEM_SUBSTANCE_ID>
310933484

> <PUBCHEM_SUBSTANCE_VERSION>
1

> <PUBCHEM_EXT_DATASOURCE_NAME>
4488

> <PUBCHEM_EXT_DATASOURCE_REGID>
SCHEMBL16110904

> <PUBCHEM_SUBSTANCE_COMMENT>
InChI=1S/C21H20N4O4/c1-4-28-20-23-16-10-14(18-12(2)25-29-13(18)3)9-15(19(16)24-20)21(27,11-26)17-7-5-6-8-22-17/h5-11,27H,4H2,1-3H3,(H,23,24)
InChIKey=OOEBJXPZTUKGDY-UHFFFAOYSA-N

> <PUBCHEM_SUBSTANCE_SYNONYM>
SCHEMBL16110904

> <PUBCHEM_XREF_EXT_ID>
SCHEMBL16110904

> <PUBCHEM_EXT_DATASOURCE_URL>
https://www.surechembl.org/

> <PUBCHEM_EXT_SUBSTANCE_URL>
https://www.surechembl.org/chemical/SCHEMBL16110904

> <PUBCHEM_CID_ASSOCIATIONS>
117601879  1

> <PUBCHEM_COORDINATE_TYPE>
1
3

$$$$
