310942285
  -OEChem-07211613022D

 23 25  0     1  0  0  0  0  0999 V2000
    2.2329    0.7443    0.0000 O   0  0  0  0  0  0  0  0  0  0  0  0
   -1.4408   -0.7034    0.0000 O   0  0  0  0  0  0  0  0  0  0  0  0
   -1.0721   -2.0827    0.0000 O   0  0  0  0  0  0  0  0  0  0  0  0
    1.2496   -1.0174    0.0000 N   0  0  0  0  0  0  0  0  0  0  0  0
    2.0007   -1.3588    0.0000 N   0  0  0  0  0  0  0  0  0  0  0  0
    1.0038   -0.2663    0.0000 C   0  0  0  0  0  0  0  0  0  0  0  0
    1.5091    0.4166    0.0000 C   0  0  3  0  0  0  0  0  0  0  0  0
    0.1707   -0.2390    0.0000 C   0  0  0  0  0  0  0  0  0  0  0  0
   -0.0888   -1.0311    0.0000 C   0  0  0  0  0  0  0  0  0  0  0  0
    0.5941   -1.5091    0.0000 C   0  0  0  0  0  0  0  0  0  0  0  0
    1.1540    1.1676    0.0000 C   0  0  0  0  0  0  0  0  0  0  0  0
   -0.8399   -1.2496    0.0000 C   0  0  0  0  0  0  0  0  0  0  0  0
    0.6897   -2.3286    0.0000 C   0  0  0  0  0  0  0  0  0  0  0  0
    2.1647   -0.1024    0.0000 C   0  0  0  0  0  0  0  0  0  0  0  0
   -0.3210    0.4166    0.0000 C   0  0  0  0  0  0  0  0  0  0  0  0
    2.0964   -2.1784    0.0000 C   0  0  0  0  0  0  0  0  0  0  0  0
    1.4271   -2.6562    0.0000 C   0  0  0  0  0  0  0  0  0  0  0  0
    1.6047    1.7959    0.0000 C   0  0  0  0  0  0  0  0  0  0  0  0
    0.3346    1.2496    0.0000 C   0  0  0  0  0  0  0  0  0  0  0  0
    1.2906    2.5743    0.0000 C   0  0  0  0  0  0  0  0  0  0  0  0
    0.0205    2.0281    0.0000 C   0  0  0  0  0  0  0  0  0  0  0  0
    0.4848    2.6562    0.0000 C   0  0  0  0  0  0  0  0  0  0  0  0
   -2.2329   -0.9218    0.0000 C   0  0  0  0  0  0  0  0  0  0  0  0
  1  7  1  0  0  0  0
  2 12  1  0  0  0  0
  2 23  1  0  0  0  0
  3 12  2  0  0  0  0
  4  5  1  0  0  0  0
  4  6  1  0  0  0  0
  4 10  1  0  0  0  0
  5 16  2  0  0  0  0
  6  7  1  0  0  0  0
  6  8  2  0  0  0  0
  7 11  1  0  0  0  0
  7 14  1  0  0  0  0
  8  9  1  0  0  0  0
  8 15  1  0  0  0  0
  9 10  2  0  0  0  0
  9 12  1  0  0  0  0
 10 13  1  0  0  0  0
 11 18  2  0  0  0  0
 11 19  1  0  0  0  0
 13 17  2  0  0  0  0
 16 17  1  0  0  0  0
 18 20  1  0  0  0  0
 19 21  2  0  0  0  0
 20 22  2  0  0  0  0
 21 22  1  0  0  0  0
M  END
> <PUBCHEM_COMPOUND_ID_TYPE>
0

> <PUBCHEM_TOTAL_CHARGE>
0

> <PUBCHEM_SUBSTANCE_ID>
310942285

> <PUBCHEM_SUBSTANCE_VERSION>
1

> <PUBCHEM_EXT_DATASOURCE_NAME>
4488

> <PUBCHEM_EXT_DATASOURCE_REGID>
SCHEMBL16120320

> <PUBCHEM_SUBSTANCE_COMMENT>
InChI=1S/C18H18N2O3/c1-12-15(17(21)23-3)14-10-7-11-19-20(14)16(12)18(2,22)13-8-5-4-6-9-13/h4-11,22H,1-3H3
InChIKey=BIFZSRUKFGHQJH-UHFFFAOYSA-N

> <PUBCHEM_SUBSTANCE_SYNONYM>
SCHEMBL16120320

> <PUBCHEM_XREF_EXT_ID>
SCHEMBL16120320

> <PUBCHEM_EXT_DATASOURCE_URL>
https://www.surechembl.org/

> <PUBCHEM_EXT_SUBSTANCE_URL>
https://www.surechembl.org/chemical/SCHEMBL16120320

> <PUBCHEM_CID_ASSOCIATIONS>
117608934  1

> <PUBCHEM_COORDINATE_TYPE>
1
3

$$$$
