310945555
  -OEChem-07211613022D

 12 12  0     1  0  0  0  0  0999 V2000
   -1.9094    0.2638    0.0000 N   0  0  0  0  0  0  0  0  0  0  0  0
   -2.4649   -0.3472    0.0000 N   0  0  0  0  0  0  0  0  0  0  0  0
    0.2986   -0.0694    0.0000 N   0  0  3  0  0  0  0  0  0  0  0  0
   -2.0482   -1.0693    0.0000 N   0  0  0  0  0  0  0  0  0  0  0  0
    2.4649    0.3333    0.0000 N   0  0  0  0  0  0  0  0  0  0  0  0
   -1.1318   -0.0417    0.0000 C   0  0  0  0  0  0  0  0  0  0  0  0
   -0.4235    0.3611    0.0000 C   0  0  0  0  0  0  0  0  0  0  0  0
   -1.2290   -0.8610    0.0000 C   0  0  0  0  0  0  0  0  0  0  0  0
   -2.0760    1.0693    0.0000 C   0  0  0  0  0  0  0  0  0  0  0  0
    1.0207    0.3611    0.0000 C   0  0  0  0  0  0  0  0  0  0  0  0
    0.3402   -0.8888    0.0000 C   0  0  0  0  0  0  0  0  0  0  0  0
    1.7705   -0.0417    0.0000 C   0  0  0  0  0  0  0  0  0  0  0  0
  1  2  1  0  0  0  0
  1  6  1  0  0  0  0
  1  9  1  0  0  0  0
  2  4  2  0  0  0  0
  3  7  1  0  0  0  0
  3 10  1  0  0  0  0
  3 11  1  0  0  0  0
  4  8  1  0  0  0  0
  5 12  1  0  0  0  0
  6  7  1  0  0  0  0
  6  8  2  0  0  0  0
 10 12  1  0  0  0  0
M  END
> <PUBCHEM_COMPOUND_ID_TYPE>
0

> <PUBCHEM_TOTAL_CHARGE>
0

> <PUBCHEM_SUBSTANCE_ID>
310945555

> <PUBCHEM_SUBSTANCE_VERSION>
1

> <PUBCHEM_EXT_DATASOURCE_NAME>
4488

> <PUBCHEM_EXT_DATASOURCE_REGID>
SCHEMBL16123653

> <PUBCHEM_SUBSTANCE_COMMENT>
InChI=1S/C7H15N5/c1-11(4-3-8)6-7-5-9-10-12(7)2/h5H,3-4,6,8H2,1-2H3
InChIKey=UOQPWPFVECQYMQ-UHFFFAOYSA-N

> <PUBCHEM_SUBSTANCE_SYNONYM>
SCHEMBL16123653

> <PUBCHEM_XREF_EXT_ID>
SCHEMBL16123653

> <PUBCHEM_EXT_DATASOURCE_URL>
https://www.surechembl.org/

> <PUBCHEM_EXT_SUBSTANCE_URL>
https://www.surechembl.org/chemical/SCHEMBL16123653

> <PUBCHEM_CID_ASSOCIATIONS>
117611591  1

> <PUBCHEM_COORDINATE_TYPE>
1
3

$$$$
