310938672
  -OEChem-07211613022D

 17 17  0     1  0  0  0  0  0999 V2000
    1.5247    2.7400    0.0000 S   0  0  3  0  0  0  0  0  0  0  0  0
   -2.4602    0.7880    0.0000 F   0  0  0  0  0  0  0  0  0  0  0  0
   -1.6352    0.7880    0.0000 F   0  0  0  0  0  0  0  0  0  0  0  0
    1.1122    2.0255    0.0000 O   0  0  0  0  0  0  0  0  0  0  0  0
   -0.6187    1.5025    0.0000 N   0  0  0  0  0  0  0  0  0  0  0  0
    1.9372    2.0255    0.0000 N   0  0  0  0  0  0  0  0  0  0  0  0
    0.8102    3.1525    0.0000 C   0  0  3  0  0  0  0  0  0  0  0  0
    0.0957    2.7400    0.0000 C   0  0  0  0  0  0  0  0  0  0  0  0
   -1.3332    1.9150    0.0000 C   0  0  0  0  0  0  0  0  0  0  0  0
   -2.0477    1.5025    0.0000 C   0  0  0  0  0  0  0  0  0  0  0  0
    0.0957    1.9150    0.0000 C   0  0  0  0  0  0  0  0  0  0  0  0
   -0.6187    3.1525    0.0000 C   0  0  0  0  0  0  0  0  0  0  0  0
   -1.3332    2.7400    0.0000 C   0  0  0  0  0  0  0  0  0  0  0  0
    0.8102    3.9775    0.0000 C   0  0  0  0  0  0  0  0  0  0  0  0
    2.2391    3.1525    0.0000 C   0  0  0  0  0  0  0  0  0  0  0  0
   -2.7622    1.9150    0.0000 C   0  0  0  0  0  0  0  0  0  0  0  0
    2.7622    2.0255    0.0000 C   0  0  0  0  0  0  0  0  0  0  0  0
  1  4  2  0  0  0  0
  1  6  2  0  0  0  0
  1  7  1  0  0  0  0
  1 15  1  0  0  0  0
  2 10  1  0  0  0  0
  3 10  1  0  0  0  0
  5  9  1  0  0  0  0
  5 11  2  0  0  0  0
  6 17  1  0  0  0  0
  7  8  1  0  0  0  0
  7 14  1  0  0  0  0
  8 11  1  0  0  0  0
  8 12  2  0  0  0  0
  9 10  1  0  0  0  0
  9 13  2  0  0  0  0
 10 16  1  0  0  0  0
 12 13  1  0  0  0  0
M  END
> <PUBCHEM_COMPOUND_ID_TYPE>
0

> <PUBCHEM_TOTAL_CHARGE>
0

> <PUBCHEM_SUBSTANCE_ID>
310938672

> <PUBCHEM_SUBSTANCE_VERSION>
1

> <PUBCHEM_EXT_DATASOURCE_NAME>
4488

> <PUBCHEM_EXT_DATASOURCE_REGID>
SCHEMBL16116586

> <PUBCHEM_SUBSTANCE_COMMENT>
InChI=1S/C11H16F2N2OS/c1-8(17(4,16)14-3)9-5-6-10(15-7-9)11(2,12)13/h5-8H,1-4H3
InChIKey=SJKJFZDYLLKIOL-UHFFFAOYSA-N

> <PUBCHEM_SUBSTANCE_SYNONYM>
SCHEMBL16116586

> <PUBCHEM_XREF_EXT_ID>
SCHEMBL16116586

> <PUBCHEM_EXT_DATASOURCE_URL>
https://www.surechembl.org/

> <PUBCHEM_EXT_SUBSTANCE_URL>
https://www.surechembl.org/chemical/SCHEMBL16116586

> <PUBCHEM_CID_ASSOCIATIONS>
117606104  1

> <PUBCHEM_COORDINATE_TYPE>
1
3

$$$$
