310930307
  -OEChem-07211613022D

 21 22  0     1  0  0  0  0  0999 V2000
    1.2290    0.0000    0.0000 O   0  0  0  0  0  0  0  0  0  0  0  0
    4.9381   -0.7023    0.0000 O   0  0  0  0  0  0  0  0  0  0  0  0
    6.1672   -1.4266    0.0000 O   0  0  0  0  0  0  0  0  0  0  0  0
    4.9381   -2.1289    0.0000 N   0  0  0  0  0  0  0  0  0  0  0  0
    0.0000   -2.1508    0.0000 N   0  0  0  0  0  0  0  0  0  0  0  0
    2.8970   -1.4266    0.0000 C   0  0  0  0  0  0  0  0  0  0  0  0
    2.4801   -2.1508    0.0000 C   0  0  0  0  0  0  0  0  0  0  0  0
    4.1041   -2.1289    0.0000 C   0  0  3  0  0  0  0  0  0  0  0  0
    3.6872   -1.4266    0.0000 C   0  0  0  0  0  0  0  0  0  0  0  0
    1.6241   -0.7242    0.0000 C   0  0  0  0  0  0  0  0  0  0  0  0
    1.2290   -1.4266    0.0000 C   0  0  0  0  0  0  0  0  0  0  0  0
    2.4801   -0.7242    0.0000 C   0  0  0  0  0  0  0  0  0  0  0  0
    1.6461   -2.1508    0.0000 C   0  0  0  0  0  0  0  0  0  0  0  0
    2.8751   -2.8532    0.0000 C   0  0  0  0  0  0  0  0  0  0  0  0
    3.7091   -2.8532    0.0000 C   0  0  0  0  0  0  0  0  0  0  0  0
    5.3551   -1.4266    0.0000 C   0  0  0  0  0  0  0  0  0  0  0  0
    0.3950   -1.4266    0.0000 C   0  0  0  0  0  0  0  0  0  0  0  0
    5.3551   -2.8532    0.0000 C   0  0  0  0  0  0  0  0  0  0  0  0
    6.1672   -2.8532    0.0000 C   0  0  0  0  0  0  0  0  0  0  0  0
    0.3950    0.0000    0.0000 C   0  0  0  0  0  0  0  0  0  0  0  0
    6.5842   -2.1508    0.0000 C   0  0  0  0  0  0  0  0  0  0  0  0
  1 10  1  0  0  0  0
  1 20  1  0  0  0  0
  2 16  2  0  0  0  0
  3 16  1  0  0  0  0
  4  8  1  0  0  0  0
  4 16  1  0  0  0  0
  4 18  1  0  0  0  0
  5 17  3  0  0  0  0
  6  7  2  0  0  0  0
  6  9  1  0  0  0  0
  6 12  1  0  0  0  0
  7 13  1  0  0  0  0
  7 14  1  0  0  0  0
  8  9  1  0  0  0  0
  8 15  1  0  0  0  0
 10 11  1  0  0  0  0
 10 12  2  0  0  0  0
 11 13  2  0  0  0  0
 11 17  1  0  0  0  0
 14 15  1  0  0  0  0
 18 19  1  0  0  0  0
 19 21  2  0  0  0  0
M  END
> <PUBCHEM_COMPOUND_ID_TYPE>
0

> <PUBCHEM_TOTAL_CHARGE>
0

> <PUBCHEM_SUBSTANCE_ID>
310930307

> <PUBCHEM_SUBSTANCE_VERSION>
1

> <PUBCHEM_EXT_DATASOURCE_NAME>
4488

> <PUBCHEM_EXT_DATASOURCE_REGID>
SCHEMBL16107588

> <PUBCHEM_SUBSTANCE_COMMENT>
InChI=1S/C16H18N2O3/c1-3-6-18(16(19)20)14-5-4-11-7-13(10-17)15(21-2)9-12(11)8-14/h3,7,9,14H,1,4-6,8H2,2H3,(H,19,20)
InChIKey=VNBPRHWICUWBSD-UHFFFAOYSA-N

> <PUBCHEM_SUBSTANCE_SYNONYM>
SCHEMBL16107588

> <PUBCHEM_XREF_EXT_ID>
SCHEMBL16107588

> <PUBCHEM_EXT_DATASOURCE_URL>
https://www.surechembl.org/

> <PUBCHEM_EXT_SUBSTANCE_URL>
https://www.surechembl.org/chemical/SCHEMBL16107588

> <PUBCHEM_CID_ASSOCIATIONS>
117599483  1

> <PUBCHEM_COORDINATE_TYPE>
1
3

$$$$
