310929893
  -OEChem-07211613022D

 15 14  0     1  0  0  0  0  0999 V2000
    6.4304    0.4125    0.0000 O   0  0  0  0  0  0  0  0  0  0  0  0
    4.2869    0.0000    0.0000 O   0  0  0  0  0  0  0  0  0  0  0  0
    8.5738    0.0000    0.0000 O   0  0  0  0  0  0  0  0  0  0  0  0
    3.5724    1.2375    0.0000 O   0  0  0  0  0  0  0  0  0  0  0  0
    7.1449    0.0000    0.0000 C   0  0  3  0  0  0  0  0  0  0  0  0
    7.8594    0.4125    0.0000 C   0  0  0  0  0  0  0  0  0  0  0  0
    3.5724    0.4125    0.0000 C   0  0  0  0  0  0  0  0  0  0  0  0
    5.7159    0.0000    0.0000 C   0  0  0  0  0  0  0  0  0  0  0  0
    5.0014    0.4125    0.0000 C   0  0  0  0  0  0  0  0  0  0  0  0
    7.1449   -0.8250    0.0000 C   0  0  0  0  0  0  0  0  0  0  0  0
    2.8579    0.0000    0.0000 C   0  0  0  0  0  0  0  0  0  0  0  0
    9.2883    0.4125    0.0000 C   0  0  0  0  0  0  0  0  0  0  0  0
    7.8594   -1.2375    0.0000 C   0  0  0  0  0  0  0  0  0  0  0  0
    2.1435    0.4125    0.0000 C   0  0  0  0  0  0  0  0  0  0  0  0
   10.0028    0.0000    0.0000 C   0  0  0  0  0  0  0  0  0  0  0  0
  1  5  1  0  0  0  0
  1  8  1  0  0  0  0
  2  7  1  0  0  0  0
  2  9  1  0  0  0  0
  3  6  1  0  0  0  0
  3 12  1  0  0  0  0
  4  7  2  0  0  0  0
  5  6  1  0  0  0  0
  5 10  1  0  0  0  0
  7 11  1  0  0  0  0
  8  9  1  0  0  0  0
 10 13  2  0  0  0  0
 11 14  2  0  0  0  0
 12 15  1  0  0  0  0
M  END
> <PUBCHEM_COMPOUND_ID_TYPE>
0

> <PUBCHEM_TOTAL_CHARGE>
0

> <PUBCHEM_SUBSTANCE_ID>
310929893

> <PUBCHEM_SUBSTANCE_VERSION>
1

> <PUBCHEM_EXT_DATASOURCE_NAME>
4488

> <PUBCHEM_EXT_DATASOURCE_REGID>
SCHEMBL16107110

> <PUBCHEM_SUBSTANCE_COMMENT>
InChI=1S/C11H18O4/c1-4-10(9-13-6-3)14-7-8-15-11(12)5-2/h4-5,10H,1-2,6-9H2,3H3
InChIKey=IQKWJUYWOSNGPN-UHFFFAOYSA-N

> <PUBCHEM_SUBSTANCE_SYNONYM>
SCHEMBL16107110

> <PUBCHEM_XREF_EXT_ID>
SCHEMBL16107110

> <PUBCHEM_EXT_DATASOURCE_URL>
https://www.surechembl.org/

> <PUBCHEM_EXT_SUBSTANCE_URL>
https://www.surechembl.org/chemical/SCHEMBL16107110

> <PUBCHEM_CID_ASSOCIATIONS>
117599156  1

> <PUBCHEM_COORDINATE_TYPE>
1
3

$$$$
