310941468
  -OEChem-07211613022D

 16 15  0     1  0  0  0  0  0999 V2000
   -0.3327    1.3309    0.0000 P   0  0  3  0  0  0  0  0  0  0  0  0
    0.4379    1.3309    0.0000 F   0  0  0  0  0  0  0  0  0  0  0  0
    0.4379    1.3309    0.0000 F   0  0  0  0  0  0  0  0  0  0  0  0
    0.4379    1.3309    0.0000 F   0  0  0  0  0  0  0  0  0  0  0  0
    0.4379    1.3309    0.0000 O   0  0  0  0  0  0  0  0  0  0  0  0
    0.8814   -0.6654    0.0000 O   0  0  0  0  0  0  0  0  0  0  0  0
   -0.3444    2.1131    0.0000 O   0  0  0  0  0  0  0  0  0  0  0  0
   -0.3327   -1.4477    0.0000 O   0  0  0  0  0  0  0  0  0  0  0  0
    0.1810    0.6654    0.0000 N   0  0  0  0  0  0  0  0  0  0  0  0
    0.4379    1.3309    0.0000 C   0  0  0  0  0  0  0  0  0  0  0  0
   -0.3327   -0.0117    0.0000 C   0  0  3  0  0  0  0  0  0  0  0  0
    0.4379    1.3309    0.0000 C   0  0  0  0  0  0  0  0  0  0  0  0
    0.0642   -0.6888    0.0000 C   0  0  0  0  0  0  0  0  0  0  0  0
   -1.3368   -0.0117    0.0000 C   0  0  0  0  0  0  0  0  0  0  0  0
    1.3368   -1.3776    0.0000 C   0  0  0  0  0  0  0  0  0  0  0  0
    0.9631   -2.1131    0.0000 C   0  0  0  0  0  0  0  0  0  0  0  0
  1  5  1  0  0  0  0
  1  7  2  0  0  0  0
  1  9  1  0  0  0  0
  2 10  1  0  0  0  0
  3 10  1  0  0  0  0
  4 10  1  0  0  0  0
  5 12  1  0  0  0  0
  6 13  1  0  0  0  0
  6 15  1  0  0  0  0
  8 13  2  0  0  0  0
  9 11  1  0  0  0  0
 10 12  1  0  0  0  0
 11 13  1  0  0  0  0
 11 14  1  0  0  0  0
 15 16  1  0  0  0  0
M  END
> <PUBCHEM_COMPOUND_ID_TYPE>
0

> <PUBCHEM_TOTAL_CHARGE>
0

> <PUBCHEM_SUBSTANCE_ID>
310941468

> <PUBCHEM_SUBSTANCE_VERSION>
1

> <PUBCHEM_EXT_DATASOURCE_NAME>
4488

> <PUBCHEM_EXT_DATASOURCE_REGID>
SCHEMBL16119499

> <PUBCHEM_SUBSTANCE_COMMENT>
InChI=1S/C7H13F3NO4P/c1-3-14-6(12)5(2)11-16(13)15-4-7(8,9)10/h5,16H,3-4H2,1-2H3,(H,11,13)
InChIKey=MWIXZNWEQNELEU-UHFFFAOYSA-N

> <PUBCHEM_SUBSTANCE_SYNONYM>
SCHEMBL16119499

> <PUBCHEM_XREF_EXT_ID>
SCHEMBL16119499

> <PUBCHEM_EXT_DATASOURCE_URL>
https://www.surechembl.org/

> <PUBCHEM_EXT_SUBSTANCE_URL>
https://www.surechembl.org/chemical/SCHEMBL16119499

> <PUBCHEM_CID_ASSOCIATIONS>
117608290  1

> <PUBCHEM_COORDINATE_TYPE>
1
3

$$$$
