310946273
  -OEChem-07211613022D

 26 28  0     1  0  0  0  0  0999 V2000
    3.1769   -8.8722    0.0000 S   0  0  0  0  0  0  0  0  0  0  0  0
    2.3519   -8.8722    0.0000 O   0  0  0  0  0  0  0  0  0  0  0  0
   -0.5060   -8.8722    0.0000 O   0  0  0  0  0  0  0  0  0  0  0  0
   -0.5060   -5.5722    0.0000 O   0  0  0  0  0  0  0  0  0  0  0  0
    3.5894   -9.5867    0.0000 O   0  0  0  0  0  0  0  0  0  0  0  0
    3.5894   -8.1577    0.0000 O   0  0  0  0  0  0  0  0  0  0  0  0
    4.0019   -8.8722    0.0000 O   0  0  0  0  0  0  0  0  0  0  0  0
   -1.9349   -6.3972    0.0000 O   0  0  0  0  0  0  0  0  0  0  0  0
   -4.3620   -5.3454    0.0000 O   0  0  0  0  0  0  0  0  0  0  0  0
    0.2085   -7.6347    0.0000 N   0  0  0  0  0  0  0  0  0  0  0  0
    1.6374   -8.4597    0.0000 N   0  0  0  0  0  0  0  0  0  0  0  0
   -1.2205   -6.8097    0.0000 N   0  0  0  0  0  0  0  0  0  0  0  0
   -3.9472   -6.9805    0.0000 N   0  0  0  0  0  0  0  0  0  0  0  0
    0.2085   -8.4597    0.0000 C   0  0  0  0  0  0  0  0  0  0  0  0
    1.6374   -7.6347    0.0000 C   0  0  3  0  0  0  0  0  0  0  0  0
    0.2085   -6.8097    0.0000 C   0  0  3  0  0  0  0  0  0  0  0  0
    0.9230   -8.0472    0.0000 C   0  0  0  0  0  0  0  0  0  0  0  0
    1.6374   -6.8097    0.0000 C   0  0  0  0  0  0  0  0  0  0  0  0
    0.9230   -6.3972    0.0000 C   0  0  0  0  0  0  0  0  0  0  0  0
   -0.5060   -6.3972    0.0000 C   0  0  0  0  0  0  0  0  0  0  0  0
   -3.5774   -5.6003    0.0000 C   0  0  0  0  0  0  0  0  0  0  0  0
   -3.3639   -6.3972    0.0000 C   0  0  3  0  0  0  0  0  0  0  0  0
   -2.6494   -6.8097    0.0000 C   0  0  0  0  0  0  0  0  0  0  0  0
   -3.0925   -4.9329    0.0000 C   0  0  0  0  0  0  0  0  0  0  0  0
   -4.3620   -4.5204    0.0000 C   0  0  0  0  0  0  0  0  0  0  0  0
   -3.5774   -4.2654    0.0000 C   0  0  0  0  0  0  0  0  0  0  0  0
  1  2  1  0  0  0  0
  1  5  2  0  0  0  0
  1  6  2  0  0  0  0
  1  7  1  0  0  0  0
  2 11  1  0  0  0  0
  3 14  2  0  0  0  0
  4 20  2  0  0  0  0
  8 12  1  0  0  0  0
  8 23  1  0  0  0  0
  9 21  1  0  0  0  0
  9 25  1  0  0  0  0
 10 14  1  0  0  0  0
 10 16  1  0  0  0  0
 10 17  1  0  0  0  0
 11 14  1  0  0  0  0
 11 15  1  0  0  0  0
 12 20  1  0  0  0  0
 13 22  1  0  0  0  0
 15 17  1  6  0  0  0
 15 18  1  0  0  0  0
 16 19  1  0  0  0  0
 16 20  1  6  0  0  0
 18 19  1  0  0  0  0
 21 22  1  0  0  0  0
 21 24  2  0  0  0  0
 22 23  1  0  0  0  0
 24 26  1  0  0  0  0
 25 26  2  0  0  0  0
M  END
> <PUBCHEM_COMPOUND_ID_TYPE>
0

> <PUBCHEM_TOTAL_CHARGE>
0

> <PUBCHEM_SUBSTANCE_ID>
310946273

> <PUBCHEM_SUBSTANCE_VERSION>
1

> <PUBCHEM_EXT_DATASOURCE_NAME>
4488

> <PUBCHEM_EXT_DATASOURCE_REGID>
SCHEMBL16124391

> <PUBCHEM_SUBSTANCE_COMMENT>
InChI=1S/C13H18N4O8S/c14-9(11-2-1-5-23-11)7-24-15-12(18)10-4-3-8-6-16(10)13(19)17(8)25-26(20,21)22/h1-2,5,8-10H,3-4,6-7,14H2,(H,15,18)(H,20,21,22)/t8-,9?,10+/m1/s1
InChIKey=DYSYRJFQBZRYNM-FIBVVXLUSA-N

> <PUBCHEM_SUBSTANCE_SYNONYM>
SCHEMBL16124391

> <PUBCHEM_XREF_EXT_ID>
SCHEMBL16124391

> <PUBCHEM_EXT_DATASOURCE_URL>
https://www.surechembl.org/

> <PUBCHEM_EXT_SUBSTANCE_URL>
https://www.surechembl.org/chemical/SCHEMBL16124391

> <PUBCHEM_CID_ASSOCIATIONS>
117612221  1

> <PUBCHEM_COORDINATE_TYPE>
1
3

> <PUBCHEM_BONDANNOTATIONS>
15  17  6
16  20  6

$$$$
