310939131
  -OEChem-07211613022D

 22 24  0     1  0  0  0  0  0999 V2000
    0.7145    0.6027    0.0000 F   0  0  0  0  0  0  0  0  0  0  0  0
   -0.7145   -1.8723    0.0000 F   0  0  0  0  0  0  0  0  0  0  0  0
   -0.7145   -0.2223    0.0000 O   0  0  0  0  0  0  0  0  0  0  0  0
    2.8109    1.0877    0.0000 N   0  0  0  0  0  0  0  0  0  0  0  0
    1.4760    1.0877    0.0000 N   0  0  0  0  0  0  0  0  0  0  0  0
    2.8579   -0.6348    0.0000 N   0  0  0  0  0  0  0  0  0  0  0  0
    1.4289   -0.6348    0.0000 C   0  0  0  0  0  0  0  0  0  0  0  0
    0.7145   -0.2223    0.0000 C   0  0  0  0  0  0  0  0  0  0  0  0
    0.0000   -0.6348    0.0000 C   0  0  0  0  0  0  0  0  0  0  0  0
    2.1434   -0.2223    0.0000 C   0  0  3  0  0  0  0  0  0  0  0  0
    0.0000   -1.4598    0.0000 C   0  0  0  0  0  0  0  0  0  0  0  0
    2.1434    0.6027    0.0000 C   0  0  0  0  0  0  0  0  0  0  0  0
    1.4289   -1.4598    0.0000 C   0  0  0  0  0  0  0  0  0  0  0  0
    0.7145   -1.8723    0.0000 C   0  0  0  0  0  0  0  0  0  0  0  0
   -1.4289   -0.6348    0.0000 C   0  0  0  0  0  0  0  0  0  0  0  0
    2.5559    1.8723    0.0000 C   0  0  0  0  0  0  0  0  0  0  0  0
    1.7309    1.8723    0.0000 C   0  0  0  0  0  0  0  0  0  0  0  0
   -1.4289   -1.4598    0.0000 C   0  0  0  0  0  0  0  0  0  0  0  0
   -2.1434   -0.2223    0.0000 C   0  0  0  0  0  0  0  0  0  0  0  0
   -2.1434   -1.8723    0.0000 C   0  0  0  0  0  0  0  0  0  0  0  0
   -2.8579   -0.6348    0.0000 C   0  0  0  0  0  0  0  0  0  0  0  0
   -2.8579   -1.4598    0.0000 C   0  0  0  0  0  0  0  0  0  0  0  0
  1  8  1  0  0  0  0
  2 11  1  0  0  0  0
  3  9  1  0  0  0  0
  3 15  1  0  0  0  0
  4 12  2  0  0  0  0
  4 16  1  0  0  0  0
  5 12  1  0  0  0  0
  5 17  1  0  0  0  0
  6 10  1  0  0  0  0
  7  8  2  0  0  0  0
  7 10  1  0  0  0  0
  7 13  1  0  0  0  0
  8  9  1  0  0  0  0
  9 11  2  0  0  0  0
 10 12  1  0  0  0  0
 11 14  1  0  0  0  0
 13 14  2  0  0  0  0
 15 18  2  0  0  0  0
 15 19  1  0  0  0  0
 16 17  1  0  0  0  0
 18 20  1  0  0  0  0
 19 21  2  0  0  0  0
 20 22  2  0  0  0  0
 21 22  1  0  0  0  0
M  END
> <PUBCHEM_COMPOUND_ID_TYPE>
0

> <PUBCHEM_TOTAL_CHARGE>
0

> <PUBCHEM_SUBSTANCE_ID>
310939131

> <PUBCHEM_SUBSTANCE_VERSION>
1

> <PUBCHEM_EXT_DATASOURCE_NAME>
4488

> <PUBCHEM_EXT_DATASOURCE_REGID>
SCHEMBL16117052

> <PUBCHEM_SUBSTANCE_COMMENT>
InChI=1S/C16H15F2N3O/c17-12-7-6-11(14(19)16-20-8-9-21-16)13(18)15(12)22-10-4-2-1-3-5-10/h1-7,14H,8-9,19H2,(H,20,21)
InChIKey=OPPYZDMFRAAFDH-UHFFFAOYSA-N

> <PUBCHEM_SUBSTANCE_SYNONYM>
SCHEMBL16117052

> <PUBCHEM_XREF_EXT_ID>
SCHEMBL16117052

> <PUBCHEM_EXT_DATASOURCE_URL>
https://www.surechembl.org/

> <PUBCHEM_EXT_SUBSTANCE_URL>
https://www.surechembl.org/chemical/SCHEMBL16117052

> <PUBCHEM_CID_ASSOCIATIONS>
117606486  1

> <PUBCHEM_COORDINATE_TYPE>
1
3

$$$$
