310941874
  -OEChem-07211613022D

 22 25  0     1  0  0  0  0  0999 V2000
    1.1618    1.4643    0.0000 Br  0  0  0  0  0  0  0  0  0  0  0  0
   -0.4331    1.0380    0.0000 O   0  0  0  0  0  0  0  0  0  0  0  0
    1.3130   -0.7218    0.0000 N   0  0  0  0  0  0  0  0  0  0  0  0
    0.4743   -1.7530    0.0000 N   0  0  0  0  0  0  0  0  0  0  0  0
    1.2443   -2.0417    0.0000 N   0  0  0  0  0  0  0  0  0  0  0  0
    2.7842   -1.4643    0.0000 N   0  0  0  0  0  0  0  0  0  0  0  0
   -2.0830    1.2168    0.0000 C   0  0  3  0  0  0  0  0  0  0  0  0
   -1.8630    0.4056    0.0000 C   0  0  0  0  0  0  0  0  0  0  0  0
   -1.2305    0.8180    0.0000 C   0  0  3  0  0  0  0  0  0  0  0  0
   -2.0830   -0.3506    0.0000 C   0  0  3  0  0  0  0  0  0  0  0  0
   -1.2443   -0.0069    0.0000 C   0  0  0  0  0  0  0  0  0  0  0  0
   -2.7842    0.8180    0.0000 C   0  0  0  0  0  0  0  0  0  0  0  0
   -2.7842    0.0069    0.0000 C   0  0  0  0  0  0  0  0  0  0  0  0
    0.1581    0.4606    0.0000 C   0  0  0  0  0  0  0  0  0  0  0  0
    0.5156   -0.9280    0.0000 C   0  0  0  0  0  0  0  0  0  0  0  0
   -2.0967    2.0417    0.0000 C   0  0  0  0  0  0  0  0  0  0  0  0
    0.9418    0.6668    0.0000 C   0  0  0  0  0  0  0  0  0  0  0  0
   -1.4368   -0.2818    0.0000 C   0  0  0  0  0  0  0  0  0  0  0  0
   -1.4643    1.1618    0.0000 C   0  0  0  0  0  0  0  0  0  0  0  0
   -0.0619   -0.3506    0.0000 C   0  0  0  0  0  0  0  0  0  0  0  0
    1.5193    0.0756    0.0000 C   0  0  0  0  0  0  0  0  0  0  0  0
    1.7393   -1.3955    0.0000 C   0  0  0  0  0  0  0  0  0  0  0  0
  1 17  1  0  0  0  0
  9  2  1  6  0  0  0
  2 14  1  0  0  0  0
  3 15  1  0  0  0  0
  3 21  1  0  0  0  0
  3 22  1  0  0  0  0
  4  5  1  0  0  0  0
  4 15  2  0  0  0  0
  5 22  2  0  0  0  0
  6 22  1  0  0  0  0
  7  8  1  0  0  0  0
  7  9  1  0  0  0  0
  7 12  1  0  0  0  0
  7 16  1  6  0  0  0
  8 10  1  0  0  0  0
  8 18  1  0  0  0  0
  8 19  1  0  0  0  0
  9 11  1  0  0  0  0
 10 11  1  0  0  0  0
 10 13  1  0  0  0  0
 12 13  1  0  0  0  0
 14 17  1  0  0  0  0
 14 20  2  0  0  0  0
 15 20  1  0  0  0  0
 17 21  2  0  0  0  0
M  END
> <PUBCHEM_COMPOUND_ID_TYPE>
0

> <PUBCHEM_TOTAL_CHARGE>
0

> <PUBCHEM_SUBSTANCE_ID>
310941874

> <PUBCHEM_SUBSTANCE_VERSION>
1

> <PUBCHEM_EXT_DATASOURCE_NAME>
4488

> <PUBCHEM_EXT_DATASOURCE_REGID>
SCHEMBL16119906

> <PUBCHEM_SUBSTANCE_COMMENT>
InChI=1S/C16H21BrN4O/c1-15(2)9-4-5-16(15,3)12(6-9)22-11-7-13-19-20-14(18)21(13)8-10(11)17/h7-9,12H,4-6H2,1-3H3,(H2,18,20)/t9?,12-,16+/m1/s1
InChIKey=ZXZDOZCAPXIXCB-MGHJCYNESA-N

> <PUBCHEM_SUBSTANCE_SYNONYM>
SCHEMBL16119906

> <PUBCHEM_XREF_EXT_ID>
SCHEMBL16119906

> <PUBCHEM_EXT_DATASOURCE_URL>
https://www.surechembl.org/

> <PUBCHEM_EXT_SUBSTANCE_URL>
https://www.surechembl.org/chemical/SCHEMBL16119906

> <PUBCHEM_CID_ASSOCIATIONS>
117608612  1

> <PUBCHEM_COORDINATE_TYPE>
1
3

> <PUBCHEM_BONDANNOTATIONS>
9  2  6
7  16  6

$$$$
