310935239
  -OEChem-07211613022D

 27 29  0     1  0  0  0  0  0999 V2000
   -2.0035   -0.3544    0.0000 F   0  0  0  0  0  0  0  0  0  0  0  0
   -2.1226   -5.8442    0.0000 F   0  0  0  0  0  0  0  0  0  0  0  0
   -2.3052   -4.6919    0.0000 F   0  0  0  0  0  0  0  0  0  0  0  0
   -0.9703   -5.6617    0.0000 F   0  0  0  0  0  0  0  0  0  0  0  0
    1.0116    0.1602    0.0000 O   0  0  0  0  0  0  0  0  0  0  0  0
    2.0735   -0.7959    0.0000 O   0  0  0  0  0  0  0  0  0  0  0  0
   -1.4884   -3.7557    0.0000 N   0  0  0  0  0  0  0  0  0  0  0  0
    0.7145   -1.2375    0.0000 C   0  0  3  0  0  0  0  0  0  0  0  0
    0.1624   -0.6244    0.0000 C   0  0  0  0  0  0  0  0  0  0  0  0
    0.0470   -1.7224    0.0000 C   0  0  0  0  0  0  0  0  0  0  0  0
    0.3020   -2.5070    0.0000 C   0  0  0  0  0  0  0  0  0  0  0  0
    1.3819   -1.7224    0.0000 C   0  0  0  0  0  0  0  0  0  0  0  0
    1.2665   -0.6244    0.0000 C   0  0  0  0  0  0  0  0  0  0  0  0
   -0.6445   -0.7959    0.0000 C   0  0  0  0  0  0  0  0  0  0  0  0
    1.1270   -2.5070    0.0000 C   0  0  0  0  0  0  0  0  0  0  0  0
   -0.1830   -3.1745    0.0000 C   0  0  0  0  0  0  0  0  0  0  0  0
    0.4174    0.1602    0.0000 C   0  0  0  0  0  0  0  0  0  0  0  0
   -1.1966   -0.1828    0.0000 C   0  0  0  0  0  0  0  0  0  0  0  0
   -0.1347    0.7733    0.0000 C   0  0  0  0  0  0  0  0  0  0  0  0
   -1.1528   -4.5094    0.0000 C   0  0  0  0  0  0  0  0  0  0  0  0
   -0.9416    0.6018    0.0000 C   0  0  0  0  0  0  0  0  0  0  0  0
   -1.0034   -3.0882    0.0000 C   0  0  0  0  0  0  0  0  0  0  0  0
    0.1526   -3.9282    0.0000 C   0  0  0  0  0  0  0  0  0  0  0  0
   -1.6377   -5.1768    0.0000 C   0  0  0  0  0  0  0  0  0  0  0  0
   -0.3323   -4.5956    0.0000 C   0  0  0  0  0  0  0  0  0  0  0  0
   -0.8995   -1.5806    0.0000 C   0  0  0  0  0  0  0  0  0  0  0  0
    0.1203    1.5579    0.0000 C   0  0  0  0  0  0  0  0  0  0  0  0
  1 18  1  0  0  0  0
  2 24  1  0  0  0  0
  3 24  1  0  0  0  0
  4 24  1  0  0  0  0
  5 13  2  0  0  0  0
  6 13  1  0  0  0  0
  7 20  1  0  0  0  0
  7 22  2  0  0  0  0
  8  9  1  0  0  0  0
  8 10  1  0  0  0  0
  8 12  1  0  0  0  0
  8 13  1  0  0  0  0
  9 14  2  0  0  0  0
  9 17  1  0  0  0  0
 10 11  2  0  0  0  0
 11 15  1  0  0  0  0
 11 16  1  0  0  0  0
 12 15  1  0  0  0  0
 14 18  1  0  0  0  0
 14 26  1  0  0  0  0
 16 22  1  0  0  0  0
 16 23  2  0  0  0  0
 17 19  2  0  0  0  0
 18 21  2  0  0  0  0
 19 21  1  0  0  0  0
 19 27  1  0  0  0  0
 20 24  1  0  0  0  0
 20 25  2  0  0  0  0
 23 25  1  0  0  0  0
M  END
> <PUBCHEM_COMPOUND_ID_TYPE>
0

> <PUBCHEM_TOTAL_CHARGE>
0

> <PUBCHEM_SUBSTANCE_ID>
310935239

> <PUBCHEM_SUBSTANCE_VERSION>
1

> <PUBCHEM_EXT_DATASOURCE_NAME>
4488

> <PUBCHEM_EXT_DATASOURCE_REGID>
SCHEMBL16112767

> <PUBCHEM_SUBSTANCE_COMMENT>
InChI=1S/C20H17F4NO2/c1-11-7-15(12(2)16(21)8-11)19(18(26)27)6-5-13(9-19)14-3-4-17(25-10-14)20(22,23)24/h3-4,7-10H,5-6H2,1-2H3,(H,26,27)
InChIKey=REMPSQXIQZFECG-UHFFFAOYSA-N

> <PUBCHEM_SUBSTANCE_SYNONYM>
SCHEMBL16112767

> <PUBCHEM_XREF_EXT_ID>
SCHEMBL16112767

> <PUBCHEM_EXT_DATASOURCE_URL>
https://www.surechembl.org/

> <PUBCHEM_EXT_SUBSTANCE_URL>
https://www.surechembl.org/chemical/SCHEMBL16112767

> <PUBCHEM_CID_ASSOCIATIONS>
117603316  1

> <PUBCHEM_COORDINATE_TYPE>
1
3

$$$$
