310937557
  -OEChem-07211613022D

 23 25  0     1  0  0  0  0  0999 V2000
    1.2834   -2.4734    0.0000 O   0  0  0  0  0  0  0  0  0  0  0  0
    7.0002   -1.6567    0.0000 O   0  0  0  0  0  0  0  0  0  0  0  0
    0.5367   -2.9634    0.0000 N   0  0  0  0  0  0  0  0  0  0  0  0
    0.3967   -4.2934    0.0000 N   0  0  0  0  0  0  0  0  0  0  0  0
    6.2768   -0.4200    0.0000 N   0  0  0  0  0  0  0  0  0  0  0  0
    2.0067   -2.8700    0.0000 C   0  0  3  0  0  0  0  0  0  0  0  0
    2.7067   -2.4734    0.0000 C   0  0  0  0  0  0  0  0  0  0  0  0
    1.2834   -3.2901    0.0000 C   0  0  0  0  0  0  0  0  0  0  0  0
    4.1534   -2.4734    0.0000 C   0  0  0  0  0  0  0  0  0  0  0  0
    4.1534   -1.6334    0.0000 C   0  0  0  0  0  0  0  0  0  0  0  0
    3.4301   -2.8700    0.0000 C   0  0  0  0  0  0  0  0  0  0  0  0
    2.7067   -1.6334    0.0000 C   0  0  0  0  0  0  0  0  0  0  0  0
    1.2134   -4.1068    0.0000 C   0  0  0  0  0  0  0  0  0  0  0  0
    3.4301   -1.2367    0.0000 C   0  0  0  0  0  0  0  0  0  0  0  0
    4.8301   -1.2367    0.0000 C   0  0  0  0  0  0  0  0  0  0  0  0
    5.5535   -1.6334    0.0000 C   0  0  0  0  0  0  0  0  0  0  0  0
    2.0067   -3.7101    0.0000 C   0  0  0  0  0  0  0  0  0  0  0  0
    4.8301   -2.8700    0.0000 C   0  0  0  0  0  0  0  0  0  0  0  0
    0.0000   -3.5934    0.0000 C   0  0  0  0  0  0  0  0  0  0  0  0
    5.5535   -2.4734    0.0000 C   0  0  0  0  0  0  0  0  0  0  0  0
    6.2768   -1.2367    0.0000 C   0  0  0  0  0  0  0  0  0  0  0  0
    0.3500   -2.1467    0.0000 C   0  0  0  0  0  0  0  0  0  0  0  0
    7.0002    0.0000    0.0000 C   0  0  0  0  0  0  0  0  0  0  0  0
  1  6  1  0  0  0  0
  2 21  2  0  0  0  0
  3  8  1  0  0  0  0
  3 19  1  0  0  0  0
  3 22  1  0  0  0  0
  4 13  1  0  0  0  0
  4 19  2  0  0  0  0
  5 21  1  0  0  0  0
  5 23  1  0  0  0  0
  6  7  1  0  0  0  0
  6  8  1  0  0  0  0
  6 17  1  0  0  0  0
  7 11  2  0  0  0  0
  7 12  1  0  0  0  0
  8 13  2  0  0  0  0
  9 10  2  0  0  0  0
  9 11  1  0  0  0  0
  9 18  1  0  0  0  0
 10 14  1  0  0  0  0
 10 15  1  0  0  0  0
 12 14  2  0  0  0  0
 15 16  2  0  0  0  0
 16 20  1  0  0  0  0
 16 21  1  0  0  0  0
 18 20  2  0  0  0  0
M  END
> <PUBCHEM_COMPOUND_ID_TYPE>
0

> <PUBCHEM_TOTAL_CHARGE>
0

> <PUBCHEM_SUBSTANCE_ID>
310937557

> <PUBCHEM_SUBSTANCE_VERSION>
1

> <PUBCHEM_EXT_DATASOURCE_NAME>
4488

> <PUBCHEM_EXT_DATASOURCE_REGID>
SCHEMBL16115334

> <PUBCHEM_SUBSTANCE_COMMENT>
InChI=1S/C18H19N3O2/c1-18(23,16-10-20-11-21(16)3)15-7-6-12-8-14(17(22)19-2)5-4-13(12)9-15/h4-11,23H,1-3H3,(H,19,22)
InChIKey=CWOCSWWXAHRGJZ-UHFFFAOYSA-N

> <PUBCHEM_SUBSTANCE_SYNONYM>
SCHEMBL16115334

> <PUBCHEM_XREF_EXT_ID>
SCHEMBL16115334

> <PUBCHEM_EXT_DATASOURCE_URL>
https://www.surechembl.org/

> <PUBCHEM_EXT_SUBSTANCE_URL>
https://www.surechembl.org/chemical/SCHEMBL16115334

> <PUBCHEM_CID_ASSOCIATIONS>
57397795  1

> <PUBCHEM_COORDINATE_TYPE>
1
3

$$$$
