310943076
  -OEChem-07211613022D

 16 16  0     1  0  0  0  0  0999 V2000
   -2.3084   -1.8550    0.0000 Br  0  0  0  0  0  0  0  0  0  0  0  0
    1.9787    0.0824    0.0000 F   0  0  0  0  0  0  0  0  0  0  0  0
    2.3084   -1.0306    0.0000 F   0  0  0  0  0  0  0  0  0  0  0  0
    1.1679   -1.3466    0.0000 F   0  0  0  0  0  0  0  0  0  0  0  0
    0.8519    0.6047    0.0000 N   0  0  0  0  0  0  0  0  0  0  0  0
    0.8519   -0.2061    0.0000 C   0  0  3  0  0  0  0  0  0  0  0  0
    1.5665   -0.6321    0.0000 C   0  0  0  0  0  0  0  0  0  0  0  0
    0.1511   -0.6183    0.0000 C   0  0  0  0  0  0  0  0  0  0  0  0
   -0.5771   -0.2199    0.0000 C   0  0  0  0  0  0  0  0  0  0  0  0
    0.1374   -1.4290    0.0000 C   0  0  0  0  0  0  0  0  0  0  0  0
   -1.2916   -1.4428    0.0000 C   0  0  0  0  0  0  0  0  0  0  0  0
   -1.2641   -0.6183    0.0000 C   0  0  0  0  0  0  0  0  0  0  0  0
   -0.5634   -1.8413    0.0000 C   0  0  0  0  0  0  0  0  0  0  0  0
    1.5527    1.0168    0.0000 C   0  0  0  0  0  0  0  0  0  0  0  0
    2.2947    0.6047    0.0000 C   0  0  0  0  0  0  0  0  0  0  0  0
    1.5527    1.8550    0.0000 C   0  0  0  0  0  0  0  0  0  0  0  0
  1 11  1  0  0  0  0
  2  7  1  0  0  0  0
  3  7  1  0  0  0  0
  4  7  1  0  0  0  0
  5  6  1  0  0  0  0
  5 14  1  0  0  0  0
  6  7  1  0  0  0  0
  6  8  1  0  0  0  0
  8  9  2  0  0  0  0
  8 10  1  0  0  0  0
  9 12  1  0  0  0  0
 10 13  2  0  0  0  0
 11 12  2  0  0  0  0
 11 13  1  0  0  0  0
 14 15  1  0  0  0  0
 14 16  1  0  0  0  0
M  END
> <PUBCHEM_COMPOUND_ID_TYPE>
0

> <PUBCHEM_TOTAL_CHARGE>
0

> <PUBCHEM_SUBSTANCE_ID>
310943076

> <PUBCHEM_SUBSTANCE_VERSION>
1

> <PUBCHEM_EXT_DATASOURCE_NAME>
4488

> <PUBCHEM_EXT_DATASOURCE_REGID>
SCHEMBL16121135

> <PUBCHEM_SUBSTANCE_COMMENT>
InChI=1S/C11H13BrF3N/c1-7(2)16-10(11(13,14)15)8-3-5-9(12)6-4-8/h3-7,10,16H,1-2H3
InChIKey=QHZCEDWDBKYSNZ-UHFFFAOYSA-N

> <PUBCHEM_SUBSTANCE_SYNONYM>
SCHEMBL16121135

> <PUBCHEM_XREF_EXT_ID>
SCHEMBL16121135

> <PUBCHEM_EXT_DATASOURCE_URL>
https://www.surechembl.org/

> <PUBCHEM_EXT_SUBSTANCE_URL>
https://www.surechembl.org/chemical/SCHEMBL16121135

> <PUBCHEM_CID_ASSOCIATIONS>
117609512  1

> <PUBCHEM_COORDINATE_TYPE>
1
3

$$$$
