310945768
  -OEChem-07211613022D

 40 42  0     1  0  0  0  0  0999 V2000
    4.3863   -0.8311    0.0000 O   0  0  0  0  0  0  0  0  0  0  0  0
    3.2408    1.1385    0.0000 O   0  0  0  0  0  0  0  0  0  0  0  0
    1.0756   -0.9429    0.0000 O   0  0  0  0  0  0  0  0  0  0  0  0
   -1.0896    1.1385    0.0000 O   0  0  0  0  0  0  0  0  0  0  0  0
    3.2408    2.8008    0.0000 O   0  0  0  0  0  0  0  0  0  0  0  0
   -3.2548   -0.9429    0.0000 O   0  0  0  0  0  0  0  0  0  0  0  0
   -5.4340   -0.5238    0.0000 O   0  0  0  0  0  0  0  0  0  0  0  0
    1.8020    0.3143    0.0000 N   0  0  0  0  0  0  0  0  0  0  0  0
   -0.3632   -0.1047    0.0000 N   0  0  0  0  0  0  0  0  0  0  0  0
   -2.5285    0.3143    0.0000 N   0  0  0  0  0  0  0  0  0  0  0  0
    3.9812   -0.0768    0.0000 C   0  0  3  0  0  0  0  0  0  0  0  0
    3.2269    0.3143    0.0000 C   0  0  0  0  0  0  0  0  0  0  0  0
    2.5424   -0.0768    0.0000 C   0  0  3  0  0  0  0  0  0  0  0  0
    4.7914   -0.0908    0.0000 C   0  0  0  0  0  0  0  0  0  0  0  0
    1.0896   -0.0489    0.0000 C   0  0  0  0  0  0  0  0  0  0  0  0
    0.3632    0.3423    0.0000 C   0  0  3  0  0  0  0  0  0  0  0  0
    2.5285   -1.1664    0.0000 C   0  0  0  0  0  0  0  0  0  0  0  0
    3.2549   -1.5715    0.0000 C   0  0  0  0  0  0  0  0  0  0  0  0
    0.3772    1.1804    0.0000 C   0  0  0  0  0  0  0  0  0  0  0  0
    1.0617    1.5855    0.0000 C   0  0  0  0  0  0  0  0  0  0  0  0
   -1.0896    0.3143    0.0000 C   0  0  0  0  0  0  0  0  0  0  0  0
   -1.8020   -0.0629    0.0000 C   0  0  3  0  0  0  0  0  0  0  0  0
    3.9672   -1.1804    0.0000 C   0  0  0  0  0  0  0  0  0  0  0  0
    3.2549   -2.3957    0.0000 C   0  0  0  0  0  0  0  0  0  0  0  0
    1.7741    1.1804    0.0000 C   0  0  0  0  0  0  0  0  0  0  0  0
    1.0896    2.4097    0.0000 C   0  0  0  0  0  0  0  0  0  0  0  0
    2.5285    2.4097    0.0000 C   0  0  0  0  0  0  0  0  0  0  0  0
    4.6937   -2.3957    0.0000 C   0  0  0  0  0  0  0  0  0  0  0  0
    4.6937   -1.5855    0.0000 C   0  0  0  0  0  0  0  0  0  0  0  0
    3.9393   -2.8008    0.0000 C   0  0  0  0  0  0  0  0  0  0  0  0
    2.5285    1.5855    0.0000 C   0  0  0  0  0  0  0  0  0  0  0  0
    1.7881    2.8148    0.0000 C   0  0  0  0  0  0  0  0  0  0  0  0
   -3.2548   -0.0489    0.0000 C   0  0  0  0  0  0  0  0  0  0  0  0
   -4.7076   -0.0768    0.0000 C   0  0  0  0  0  0  0  0  0  0  0  0
   -4.0092    0.3283    0.0000 C   0  0  0  0  0  0  0  0  0  0  0  0
   -1.8160   -0.9150    0.0000 C   0  0  0  0  0  0  0  0  0  0  0  0
    5.4340   -2.8148    0.0000 C   0  0  0  0  0  0  0  0  0  0  0  0
   -4.6937   -0.9150    0.0000 C   0  0  0  0  0  0  0  0  0  0  0  0
   -5.4340    0.3143    0.0000 C   0  0  0  0  0  0  0  0  0  0  0  0
    3.9952    2.3957    0.0000 C   0  0  0  0  0  0  0  0  0  0  0  0
  1 11  1  0  0  0  0
  1 14  1  0  0  0  0
  2 12  2  0  0  0  0
  3 15  2  0  0  0  0
  4 21  2  0  0  0  0
  5 27  1  0  0  0  0
  5 40  1  0  0  0  0
  6 33  2  0  0  0  0
  7 34  1  0  0  0  0
  8 13  1  0  0  0  0
  8 15  1  0  0  0  0
  9 16  1  0  0  0  0
  9 21  1  0  0  0  0
 10 22  1  0  0  0  0
 10 33  1  0  0  0  0
 11 12  1  0  0  0  0
 11 14  1  0  0  0  0
 12 13  1  0  0  0  0
 13 17  1  0  0  0  0
 15 16  1  0  0  0  0
 16 19  1  0  0  0  0
 17 18  1  0  0  0  0
 18 23  2  0  0  0  0
 18 24  1  0  0  0  0
 19 20  1  0  0  0  0
 20 25  2  0  0  0  0
 20 26  1  0  0  0  0
 21 22  1  0  0  0  0
 22 36  1  0  0  0  0
 23 29  1  0  0  0  0
 24 30  2  0  0  0  0
 25 31  1  0  0  0  0
 26 32  2  0  0  0  0
 27 31  2  0  0  0  0
 27 32  1  0  0  0  0
 28 29  2  0  0  0  0
 28 30  1  0  0  0  0
 28 37  1  0  0  0  0
 33 35  1  0  0  0  0
 34 35  1  0  0  0  0
 34 38  1  0  0  0  0
 34 39  1  0  0  0  0
M  END
> <PUBCHEM_COMPOUND_ID_TYPE>
0

> <PUBCHEM_TOTAL_CHARGE>
0

> <PUBCHEM_SUBSTANCE_ID>
310945768

> <PUBCHEM_SUBSTANCE_VERSION>
1

> <PUBCHEM_EXT_DATASOURCE_NAME>
4488

> <PUBCHEM_EXT_DATASOURCE_REGID>
SCHEMBL16123872

> <PUBCHEM_SUBSTANCE_COMMENT>
InChI=1S/C30H39N3O7/c1-18-6-8-20(9-7-18)14-23(27(35)25-17-40-25)32-29(37)24(15-21-10-12-22(39-5)13-11-21)33-28(36)19(2)31-26(34)16-30(3,4)38/h6-13,19,23-25,38H,14-17H2,1-5H3,(H,31,34)(H,32,37)(H,33,36)
InChIKey=SVHYGBLKBNPNGQ-UHFFFAOYSA-N

> <PUBCHEM_SUBSTANCE_SYNONYM>
SCHEMBL16123872

> <PUBCHEM_XREF_EXT_ID>
SCHEMBL16123872

> <PUBCHEM_EXT_DATASOURCE_URL>
https://www.surechembl.org/

> <PUBCHEM_EXT_SUBSTANCE_URL>
https://www.surechembl.org/chemical/SCHEMBL16123872

> <PUBCHEM_CID_ASSOCIATIONS>
117611756  1

> <PUBCHEM_COORDINATE_TYPE>
1
3

$$$$
