310944138
  -OEChem-07211613022D

 16 18  0     1  0  0  0  0  0999 V2000
    2.4481    0.6995    0.0000 O   0  0  0  0  0  0  0  0  0  0  0  0
    1.7375   -0.5329    0.0000 O   0  0  0  0  0  0  0  0  0  0  0  0
   -1.1380   -0.5329    0.0000 N   0  0  0  0  0  0  0  0  0  0  0  0
    0.3053   -0.5329    0.0000 N   0  0  0  0  0  0  0  0  0  0  0  0
   -1.8929   -0.1888    0.0000 N   0  0  0  0  0  0  0  0  0  0  0  0
   -2.4481   -0.8105    0.0000 N   0  0  0  0  0  0  0  0  0  0  0  0
   -2.0262   -1.5210    0.0000 N   0  0  0  0  0  0  0  0  0  0  0  0
    1.0269    0.7106    0.0000 C   0  0  0  0  0  0  0  0  0  0  0  0
    1.7487    1.1102    0.0000 C   0  0  3  0  0  0  0  0  0  0  0  0
    1.0048   -0.1221    0.0000 C   0  0  0  0  0  0  0  0  0  0  0  0
   -0.4274   -0.1110    0.0000 C   0  0  0  0  0  0  0  0  0  0  0  0
    0.2942    1.1213    0.0000 C   0  0  0  0  0  0  0  0  0  0  0  0
    2.4481    1.5210    0.0000 C   0  0  0  0  0  0  0  0  0  0  0  0
   -0.4053    0.7106    0.0000 C   0  0  0  0  0  0  0  0  0  0  0  0
   -1.2269   -1.3545    0.0000 C   0  0  0  0  0  0  0  0  0  0  0  0
    1.7597   -1.3545    0.0000 C   0  0  0  0  0  0  0  0  0  0  0  0
  9  1  1  1  0  0  0
  1 13  1  0  0  0  0
  2 10  1  0  0  0  0
  2 16  1  0  0  0  0
  3  5  1  0  0  0  0
  3 11  1  0  0  0  0
  3 15  1  0  0  0  0
  4 10  2  0  0  0  0
  4 11  1  0  0  0  0
  5  6  2  0  0  0  0
  6  7  1  0  0  0  0
  7 15  2  0  0  0  0
  8  9  1  0  0  0  0
  8 10  1  0  0  0  0
  8 12  2  0  0  0  0
  9 13  1  0  0  0  0
 11 14  2  0  0  0  0
 12 14  1  0  0  0  0
M  END
> <PUBCHEM_COMPOUND_ID_TYPE>
0

> <PUBCHEM_TOTAL_CHARGE>
0

> <PUBCHEM_SUBSTANCE_ID>
310944138

> <PUBCHEM_SUBSTANCE_VERSION>
1

> <PUBCHEM_EXT_DATASOURCE_NAME>
4488

> <PUBCHEM_EXT_DATASOURCE_REGID>
SCHEMBL16122213

> <PUBCHEM_SUBSTANCE_COMMENT>
InChI=1S/C9H9N5O2/c1-15-9-6(7-4-16-7)2-3-8(11-9)14-5-10-12-13-14/h2-3,5,7H,4H2,1H3/t7-/m1/s1
InChIKey=UMSKAPNKRRXLSF-SSDOTTSWSA-N

> <PUBCHEM_SUBSTANCE_SYNONYM>
SCHEMBL16122213

> <PUBCHEM_XREF_EXT_ID>
SCHEMBL16122213

> <PUBCHEM_EXT_DATASOURCE_URL>
https://www.surechembl.org/

> <PUBCHEM_EXT_SUBSTANCE_URL>
https://www.surechembl.org/chemical/SCHEMBL16122213

> <PUBCHEM_CID_ASSOCIATIONS>
117610419  1

> <PUBCHEM_COORDINATE_TYPE>
1
3

> <PUBCHEM_BONDANNOTATIONS>
9  1  5

$$$$
