310947213
  -OEChem-07211613022D

 23 24  0     1  0  0  0  0  0999 V2000
   -2.2357    2.0763    0.0000 Cl  0  0  0  0  0  0  0  0  0  0  0  0
   -0.8555    2.4461    0.0000 F   0  0  0  0  0  0  0  0  0  0  0  0
    0.1550    1.4357    0.0000 F   0  0  0  0  0  0  0  0  0  0  0  0
   -0.0586    2.2326    0.0000 F   0  0  0  0  0  0  0  0  0  0  0  0
   -1.8665   -1.7787    0.0000 N   0  0  0  0  0  0  0  0  0  0  0  0
   -1.3816   -2.4461    0.0000 N   0  0  0  0  0  0  0  0  0  0  0  0
    0.8320   -1.3662    0.0000 N   0  0  3  0  0  0  0  0  0  0  0  0
    2.9754   -0.9537    0.0000 N   0  0  0  0  0  0  0  0  0  0  0  0
   -1.5951   -0.3144    0.0000 C   0  0  0  0  0  0  0  0  0  0  0  0
   -1.2253    1.0659    0.0000 C   0  0  0  0  0  0  0  0  0  0  0  0
   -1.3816   -1.1113    0.0000 C   0  0  0  0  0  0  0  0  0  0  0  0
   -2.3920   -0.1008    0.0000 C   0  0  0  0  0  0  0  0  0  0  0  0
   -1.0118    0.2690    0.0000 C   0  0  0  0  0  0  0  0  0  0  0  0
   -0.6419    1.6492    0.0000 C   0  0  0  0  0  0  0  0  0  0  0  0
   -2.0222    1.2794    0.0000 C   0  0  0  0  0  0  0  0  0  0  0  0
   -0.5970   -1.3662    0.0000 C   0  0  0  0  0  0  0  0  0  0  0  0
   -2.6055    0.6960    0.0000 C   0  0  0  0  0  0  0  0  0  0  0  0
   -0.5970   -2.1912    0.0000 C   0  0  0  0  0  0  0  0  0  0  0  0
    0.1175   -0.9537    0.0000 C   0  0  0  0  0  0  0  0  0  0  0  0
   -2.9754   -0.6842    0.0000 C   0  0  0  0  0  0  0  0  0  0  0  0
    1.5464   -0.9537    0.0000 C   0  0  0  0  0  0  0  0  0  0  0  0
    0.8320   -2.1912    0.0000 C   0  0  0  0  0  0  0  0  0  0  0  0
    2.2609   -1.3662    0.0000 C   0  0  0  0  0  0  0  0  0  0  0  0
  1 15  1  0  0  0  0
  2 14  1  0  0  0  0
  3 14  1  0  0  0  0
  4 14  1  0  0  0  0
  5  6  1  0  0  0  0
  5 11  2  0  0  0  0
  6 18  1  0  0  0  0
  7 19  1  0  0  0  0
  7 21  1  0  0  0  0
  7 22  1  0  0  0  0
  8 23  1  0  0  0  0
  9 11  1  0  0  0  0
  9 12  2  0  0  0  0
  9 13  1  0  0  0  0
 10 13  2  0  0  0  0
 10 14  1  0  0  0  0
 10 15  1  0  0  0  0
 11 16  1  0  0  0  0
 12 17  1  0  0  0  0
 12 20  1  0  0  0  0
 15 17  2  0  0  0  0
 16 18  2  0  0  0  0
 16 19  1  0  0  0  0
 21 23  1  0  0  0  0
M  END
> <PUBCHEM_COMPOUND_ID_TYPE>
0

> <PUBCHEM_TOTAL_CHARGE>
0

> <PUBCHEM_SUBSTANCE_ID>
310947213

> <PUBCHEM_SUBSTANCE_VERSION>
1

> <PUBCHEM_EXT_DATASOURCE_NAME>
4488

> <PUBCHEM_EXT_DATASOURCE_REGID>
SCHEMBL16125368

> <PUBCHEM_SUBSTANCE_COMMENT>
InChI=1S/C15H18ClF3N4/c1-9-5-13(16)12(15(17,18)19)6-11(9)14-10(7-21-22-14)8-23(2)4-3-20/h5-7H,3-4,8,20H2,1-2H3,(H,21,22)
InChIKey=AZMXVARPHNYELV-UHFFFAOYSA-N

> <PUBCHEM_SUBSTANCE_SYNONYM>
SCHEMBL16125368

> <PUBCHEM_XREF_EXT_ID>
SCHEMBL16125368

> <PUBCHEM_EXT_DATASOURCE_URL>
https://www.surechembl.org/

> <PUBCHEM_EXT_SUBSTANCE_URL>
https://www.surechembl.org/chemical/SCHEMBL16125368

> <PUBCHEM_CID_ASSOCIATIONS>
85472764  1

> <PUBCHEM_COORDINATE_TYPE>
1
3

$$$$
