310933239
  -OEChem-07211613022D

 44 49  0     1  0  0  0  0  0999 V2000
    4.3320    3.1611    0.0000 Cl  0  0  0  0  0  0  0  0  0  0  0  0
    6.2232   -6.8230    0.0000 F   0  0  0  0  0  0  0  0  0  0  0  0
    5.1340   -6.4049    0.0000 F   0  0  0  0  0  0  0  0  0  0  0  0
    6.6413   -5.7338    0.0000 F   0  0  0  0  0  0  0  0  0  0  0  0
   11.4767   -1.7889    0.0000 F   0  0  0  0  0  0  0  0  0  0  0  0
    7.2369   -1.8613    0.0000 O   0  0  0  0  0  0  0  0  0  0  0  0
    7.9043    1.0986    0.0000 O   0  0  0  0  0  0  0  0  0  0  0  0
    5.5521   -5.3157    0.0000 O   0  0  0  0  0  0  0  0  0  0  0  0
    7.1898   -0.1389    0.0000 N   0  0  0  0  0  0  0  0  0  0  0  0
    4.3320   -0.1389    0.0000 N   0  0  0  0  0  0  0  0  0  0  0  0
    8.5717   -1.8613    0.0000 N   0  0  0  0  0  0  0  0  0  0  0  0
    8.3168   -2.6459    0.0000 N   0  0  0  0  0  0  0  0  0  0  0  0
    3.6645   -0.6238    0.0000 N   0  0  0  0  0  0  0  0  0  0  0  0
    3.9195   -1.4084    0.0000 N   0  0  0  0  0  0  0  0  0  0  0  0
    4.7445   -1.4084    0.0000 N   0  0  0  0  0  0  0  0  0  0  0  0
    7.9043   -0.5514    0.0000 C   0  0  3  0  0  0  0  0  0  0  0  0
    5.0464    1.0986    0.0000 C   0  0  0  0  0  0  0  0  0  0  0  0
    5.7609    0.6861    0.0000 C   0  0  0  0  0  0  0  0  0  0  0  0
    7.9043   -1.3764    0.0000 C   0  0  0  0  0  0  0  0  0  0  0  0
    7.1898    0.6861    0.0000 C   0  0  0  0  0  0  0  0  0  0  0  0
    4.3320    0.6861    0.0000 C   0  0  0  0  0  0  0  0  0  0  0  0
    6.4754    1.0986    0.0000 C   0  0  0  0  0  0  0  0  0  0  0  0
    7.4918   -2.6459    0.0000 C   0  0  0  0  0  0  0  0  0  0  0  0
    6.4754   -0.5514    0.0000 C   0  0  0  0  0  0  0  0  0  0  0  0
    5.7609   -0.1389    0.0000 C   0  0  0  0  0  0  0  0  0  0  0  0
    8.6188   -0.1389    0.0000 C   0  0  0  0  0  0  0  0  0  0  0  0
    5.0464    1.9236    0.0000 C   0  0  0  0  0  0  0  0  0  0  0  0
    7.0069   -3.3134    0.0000 C   0  0  0  0  0  0  0  0  0  0  0  0
    3.6175    1.0986    0.0000 C   0  0  0  0  0  0  0  0  0  0  0  0
    4.3320    2.3361    0.0000 C   0  0  0  0  0  0  0  0  0  0  0  0
    9.3332   -0.5514    0.0000 C   0  0  0  0  0  0  0  0  0  0  0  0
    3.6175    1.9236    0.0000 C   0  0  0  0  0  0  0  0  0  0  0  0
    4.9994   -0.6238    0.0000 C   0  0  0  0  0  0  0  0  0  0  0  0
    7.3424   -4.0670    0.0000 C   0  0  0  0  0  0  0  0  0  0  0  0
    6.1864   -3.2271    0.0000 C   0  0  0  0  0  0  0  0  0  0  0  0
    6.0370   -4.6482    0.0000 C   0  0  0  0  0  0  0  0  0  0  0  0
    6.8575   -4.7345    0.0000 C   0  0  0  0  0  0  0  0  0  0  0  0
    5.7015   -3.8946    0.0000 C   0  0  0  0  0  0  0  0  0  0  0  0
    9.3332   -1.3764    0.0000 C   0  0  0  0  0  0  0  0  0  0  0  0
   10.0477   -0.1389    0.0000 C   0  0  0  0  0  0  0  0  0  0  0  0
   10.0477   -1.7889    0.0000 C   0  0  0  0  0  0  0  0  0  0  0  0
   10.7622   -0.5514    0.0000 C   0  0  0  0  0  0  0  0  0  0  0  0
   10.7622   -1.3764    0.0000 C   0  0  0  0  0  0  0  0  0  0  0  0
    5.8877   -6.0694    0.0000 C   0  0  0  0  0  0  0  0  0  0  0  0
  1 30  1  0  0  0  0
  2 44  1  0  0  0  0
  3 44  1  0  0  0  0
  4 44  1  0  0  0  0
  5 43  1  0  0  0  0
  6 19  1  0  0  0  0
  6 23  1  0  0  0  0
  7 20  2  0  0  0  0
  8 36  1  0  0  0  0
  8 44  1  0  0  0  0
  9 16  1  0  0  0  0
  9 20  1  0  0  0  0
  9 24  1  0  0  0  0
 10 13  1  0  0  0  0
 10 21  1  0  0  0  0
 10 33  1  0  0  0  0
 11 12  1  0  0  0  0
 11 19  2  0  0  0  0
 12 23  2  0  0  0  0
 13 14  2  0  0  0  0
 14 15  1  0  0  0  0
 15 33  2  0  0  0  0
 16 19  1  0  0  0  0
 16 26  1  0  0  0  0
 17 18  1  0  0  0  0
 17 21  2  0  0  0  0
 17 27  1  0  0  0  0
 18 22  2  0  0  0  0
 18 25  1  0  0  0  0
 20 22  1  0  0  0  0
 21 29  1  0  0  0  0
 23 28  1  0  0  0  0
 24 25  2  0  0  0  0
 26 31  1  0  0  0  0
 27 30  2  0  0  0  0
 28 34  2  0  0  0  0
 28 35  1  0  0  0  0
 29 32  2  0  0  0  0
 30 32  1  0  0  0  0
 31 39  2  0  0  0  0
 31 40  1  0  0  0  0
 34 37  1  0  0  0  0
 35 38  2  0  0  0  0
 36 37  2  0  0  0  0
 36 38  1  0  0  0  0
 39 41  1  0  0  0  0
 40 42  2  0  0  0  0
 41 43  2  0  0  0  0
 42 43  1  0  0  0  0
M  END
> <PUBCHEM_COMPOUND_ID_TYPE>
0

> <PUBCHEM_TOTAL_CHARGE>
0

> <PUBCHEM_SUBSTANCE_ID>
310933239

> <PUBCHEM_SUBSTANCE_VERSION>
1

> <PUBCHEM_EXT_DATASOURCE_NAME>
4488

> <PUBCHEM_EXT_DATASOURCE_REGID>
SCHEMBL16110648

> <PUBCHEM_SUBSTANCE_COMMENT>
InChI=1S/C29H18ClF4N7O3/c30-20-5-10-24(41-16-35-38-39-41)23(15-20)19-11-12-40(26(42)14-19)25(13-17-1-6-21(31)7-2-17)28-37-36-27(43-28)18-3-8-22(9-4-18)44-29(32,33)34/h1-12,14-16,25H,13H2
InChIKey=UNUDKCDUDQMFIX-UHFFFAOYSA-N

> <PUBCHEM_SUBSTANCE_SYNONYM>
SCHEMBL16110648

> <PUBCHEM_XREF_EXT_ID>
SCHEMBL16110648

> <PUBCHEM_EXT_DATASOURCE_URL>
https://www.surechembl.org/

> <PUBCHEM_EXT_SUBSTANCE_URL>
https://www.surechembl.org/chemical/SCHEMBL16110648

> <PUBCHEM_CID_ASSOCIATIONS>
117601673  1

> <PUBCHEM_COORDINATE_TYPE>
1
3

$$$$
