310929220
  -OEChem-07211613022D

 59 63  0     1  0  0  0  0  0999 V2000
   14.9050   -5.1069    0.0000 S   0  0  0  0  0  0  0  0  0  0  0  0
    4.9881   -2.0190    0.0000 S   0  0  3  0  0  0  0  0  0  0  0  0
    9.9762   -2.1972    0.0000 O   0  0  0  0  0  0  0  0  0  0  0  0
   13.6579   -2.9691    0.0000 O   0  0  0  0  0  0  0  0  0  0  0  0
   13.2422   -0.7720    0.0000 O   0  0  0  0  0  0  0  0  0  0  0  0
   15.6769   -4.6318    0.0000 O   0  0  0  0  0  0  0  0  0  0  0  0
   14.1924   -5.4632    0.0000 O   0  0  0  0  0  0  0  0  0  0  0  0
    7.4228   -3.5630    0.0000 O   0  0  0  0  0  0  0  0  0  0  0  0
    4.6318   -1.3064    0.0000 O   0  0  0  0  0  0  0  0  0  0  0  0
    4.5130   -4.1567    0.0000 O   0  0  0  0  0  0  0  0  0  0  0  0
    2.4347   -4.7506    0.0000 O   0  0  0  0  0  0  0  0  0  0  0  0
    0.8314   -3.2660    0.0000 O   0  0  0  0  0  0  0  0  0  0  0  0
   14.4892   -1.4846    0.0000 N   0  0  0  0  0  0  0  0  0  0  0  0
   13.2422   -2.1972    0.0000 N   0  0  0  0  0  0  0  0  0  0  0  0
   14.4892   -4.3943    0.0000 N   0  0  0  0  0  0  0  0  0  0  0  0
    7.5415   -0.7126    0.0000 N   0  0  0  0  0  0  0  0  0  0  0  0
    8.7885    0.0000    0.0000 N   0  0  0  0  0  0  0  0  0  0  0  0
   14.9050   -2.1972    0.0000 C   0  0  0  0  0  0  0  0  0  0  0  0
   14.4892   -2.9691    0.0000 C   0  0  0  0  0  0  0  0  0  0  0  0
   12.0546   -1.5439    0.0000 C   0  0  0  0  0  0  0  0  0  0  0  0
   11.2232   -1.4846    0.0000 C   0  0  0  0  0  0  0  0  0  0  0  0
   14.9050   -3.6817    0.0000 C   0  0  0  0  0  0  0  0  0  0  0  0
   16.1519   -2.9691    0.0000 C   0  0  0  0  0  0  0  0  0  0  0  0
   12.4108   -2.1972    0.0000 C   0  0  0  0  0  0  0  0  0  0  0  0
   10.8076   -2.1972    0.0000 C   0  0  0  0  0  0  0  0  0  0  0  0
   15.7363   -2.2565    0.0000 C   0  0  0  0  0  0  0  0  0  0  0  0
   15.7363   -3.6817    0.0000 C   0  0  0  0  0  0  0  0  0  0  0  0
   16.9833   -2.9691    0.0000 C   0  0  0  0  0  0  0  0  0  0  0  0
   13.6579   -1.4846    0.0000 C   0  0  0  0  0  0  0  0  0  0  0  0
   11.9952   -2.9097    0.0000 C   0  0  0  0  0  0  0  0  0  0  0  0
   11.2232   -2.9097    0.0000 C   0  0  0  0  0  0  0  0  0  0  0  0
   12.4703   -0.8314    0.0000 C   0  0  0  0  0  0  0  0  0  0  0  0
   10.8076   -0.7720    0.0000 C   0  0  0  0  0  0  0  0  0  0  0  0
    9.5606   -1.4846    0.0000 C   0  0  0  0  0  0  0  0  0  0  0  0
   12.0546   -0.0594    0.0000 C   0  0  0  0  0  0  0  0  0  0  0  0
   11.2232   -0.0594    0.0000 C   0  0  0  0  0  0  0  0  0  0  0  0
    8.3729   -0.7126    0.0000 C   0  0  0  0  0  0  0  0  0  0  0  0
    8.7292   -1.4846    0.0000 C   0  0  0  0  0  0  0  0  0  0  0  0
   16.9833   -3.8004    0.0000 C   0  0  0  0  0  0  0  0  0  0  0  0
   17.8147   -2.9691    0.0000 C   0  0  0  0  0  0  0  0  0  0  0  0
   16.9833   -2.1378    0.0000 C   0  0  0  0  0  0  0  0  0  0  0  0
    7.0665   -1.3658    0.0000 C   0  0  0  0  0  0  0  0  0  0  0  0
    9.9762   -0.7720    0.0000 C   0  0  0  0  0  0  0  0  0  0  0  0
    5.8195   -2.0784    0.0000 C   0  0  0  0  0  0  0  0  0  0  0  0
    6.2945   -1.3658    0.0000 C   0  0  0  0  0  0  0  0  0  0  0  0
    7.0071   -2.7909    0.0000 C   0  0  0  0  0  0  0  0  0  0  0  0
    7.4822   -2.1378    0.0000 C   0  0  0  0  0  0  0  0  0  0  0  0
    9.6199    0.0000    0.0000 C   0  0  0  0  0  0  0  0  0  0  0  0
   13.2422   -3.6817    0.0000 C   0  0  0  0  0  0  0  0  0  0  0  0
    6.2351   -2.7909    0.0000 C   0  0  0  0  0  0  0  0  0  0  0  0
   15.3206   -5.8195    0.0000 C   0  0  0  0  0  0  0  0  0  0  0  0
    4.5724   -2.7316    0.0000 C   0  0  0  0  0  0  0  0  0  0  0  0
    4.9288   -3.4442    0.0000 C   0  0  0  0  0  0  0  0  0  0  0  0
    8.2541   -3.5630    0.0000 C   0  0  0  0  0  0  0  0  0  0  0  0
    3.6817   -4.0974    0.0000 C   0  0  0  0  0  0  0  0  0  0  0  0
    3.2067   -4.8100    0.0000 C   0  0  0  0  0  0  0  0  0  0  0  0
    2.0190   -4.0380    0.0000 C   0  0  0  0  0  0  0  0  0  0  0  0
    1.1877   -3.9786    0.0000 C   0  0  0  0  0  0  0  0  0  0  0  0
    0.0000   -3.2660    0.0000 C   0  0  0  0  0  0  0  0  0  0  0  0
  1  6  2  0  0  0  0
  1  7  2  0  0  0  0
  1 15  1  0  0  0  0
  1 51  1  0  0  0  0
  2  9  2  0  0  0  0
  2 44  1  0  0  0  0
  2 52  1  0  0  0  0
  3 25  1  0  0  0  0
  3 34  1  0  0  0  0
  4 19  1  0  0  0  0
  4 49  1  0  0  0  0
  5 29  2  0  0  0  0
  8 46  1  0  0  0  0
  8 54  1  0  0  0  0
 10 53  1  0  0  0  0
 10 55  1  0  0  0  0
 11 56  1  0  0  0  0
 11 57  1  0  0  0  0
 12 58  1  0  0  0  0
 12 59  1  0  0  0  0
 13 18  1  0  0  0  0
 13 29  1  0  0  0  0
 14 24  1  0  0  0  0
 14 29  1  0  0  0  0
 15 22  1  0  0  0  0
 16 37  1  0  0  0  0
 16 42  1  0  0  0  0
 17 37  1  0  0  0  0
 17 48  2  0  0  0  0
 18 19  1  0  0  0  0
 18 26  2  0  0  0  0
 19 22  2  0  0  0  0
 20 21  2  0  0  0  0
 20 24  1  0  0  0  0
 20 32  1  0  0  0  0
 21 25  1  0  0  0  0
 21 33  1  0  0  0  0
 22 27  1  0  0  0  0
 23 26  1  0  0  0  0
 23 27  2  0  0  0  0
 23 28  1  0  0  0  0
 24 30  2  0  0  0  0
 25 31  2  0  0  0  0
 28 39  1  0  0  0  0
 28 40  1  0  0  0  0
 28 41  1  0  0  0  0
 30 31  1  0  0  0  0
 32 35  2  0  0  0  0
 33 36  2  0  0  0  0
 34 38  1  0  0  0  0
 34 43  2  0  0  0  0
 35 36  1  0  0  0  0
 37 38  2  0  0  0  0
 42 45  2  0  0  0  0
 42 47  1  0  0  0  0
 43 48  1  0  0  0  0
 44 45  1  0  0  0  0
 44 50  2  0  0  0  0
 46 47  2  0  0  0  0
 46 50  1  0  0  0  0
 52 53  1  0  0  0  0
 55 56  1  0  0  0  0
 57 58  1  0  0  0  0
M  END
> <PUBCHEM_COMPOUND_ID_TYPE>
0

> <PUBCHEM_TOTAL_CHARGE>
0

> <PUBCHEM_SUBSTANCE_ID>
310929220

> <PUBCHEM_SUBSTANCE_VERSION>
1

> <PUBCHEM_EXT_DATASOURCE_NAME>
4488

> <PUBCHEM_EXT_DATASOURCE_REGID>
SCHEMBL16106383

> <PUBCHEM_SUBSTANCE_COMMENT>
InChI=1S/C42H51N5O10S2/c1-42(2,3)28-22-36(40(54-6)37(23-28)47-59(7,50)51)46-41(48)45-35-12-13-38(34-11-9-8-10-33(34)35)57-30-14-15-43-39(27-30)44-29-24-31(53-5)26-32(25-29)58(49)21-20-56-19-18-55-17-16-52-4/h8-15,22-27,47H,16-21H2,1-7H3,(H,43,44)(H2,45,46,48)
InChIKey=APWKGPZXAGMPGW-UHFFFAOYSA-N

> <PUBCHEM_SUBSTANCE_SYNONYM>
SCHEMBL16106383

> <PUBCHEM_XREF_EXT_ID>
SCHEMBL16106383

> <PUBCHEM_EXT_DATASOURCE_URL>
https://www.surechembl.org/

> <PUBCHEM_EXT_SUBSTANCE_URL>
https://www.surechembl.org/chemical/SCHEMBL16106383

> <PUBCHEM_CID_ASSOCIATIONS>
117598665  1

> <PUBCHEM_COORDINATE_TYPE>
1
3

$$$$
