310942991
  -OEChem-07211613022D

 36 40  0     1  0  0  0  0  0999 V2000
   -1.7989    1.0261    0.0000 O   0  0  0  0  0  0  0  0  0  0  0  0
    5.3348    0.2102    0.0000 O   0  0  0  0  0  0  0  0  0  0  0  0
   -3.2330    0.2102    0.0000 O   0  0  0  0  0  0  0  0  0  0  0  0
    1.0695    0.2102    0.0000 N   0  0  0  0  0  0  0  0  0  0  0  0
    1.7865    1.4465    0.0000 N   0  0  0  0  0  0  0  0  0  0  0  0
    3.2083    1.4465    0.0000 N   0  0  0  0  0  0  0  0  0  0  0  0
    3.2083   -2.6705    0.0000 N   0  0  0  0  0  0  0  0  0  0  0  0
   -4.6424    1.0385    0.0000 N   0  0  0  0  0  0  0  0  0  0  0  0
    1.7741   -1.0261    0.0000 C   0  0  0  0  0  0  0  0  0  0  0  0
    1.7741   -0.1978    0.0000 C   0  0  0  0  0  0  0  0  0  0  0  0
    2.4912   -1.4342    0.0000 C   0  0  0  0  0  0  0  0  0  0  0  0
    1.0695    1.0385    0.0000 C   0  0  0  0  0  0  0  0  0  0  0  0
    2.4912    1.0385    0.0000 C   0  0  0  0  0  0  0  0  0  0  0  0
    2.4789   -2.2625    0.0000 C   0  0  0  0  0  0  0  0  0  0  0  0
    2.4912    0.1978    0.0000 C   0  0  0  0  0  0  0  0  0  0  0  0
    0.3400    1.4589    0.0000 C   0  0  0  0  0  0  0  0  0  0  0  0
    1.0695   -1.4465    0.0000 C   0  0  0  0  0  0  0  0  0  0  0  0
    3.2083   -1.0261    0.0000 C   0  0  0  0  0  0  0  0  0  0  0  0
    1.7865   -2.6705    0.0000 C   0  0  0  0  0  0  0  0  0  0  0  0
   -0.3523    1.0385    0.0000 C   0  0  0  0  0  0  0  0  0  0  0  0
    1.0695   -2.2625    0.0000 C   0  0  0  0  0  0  0  0  0  0  0  0
    0.3523    2.2625    0.0000 C   0  0  0  0  0  0  0  0  0  0  0  0
   -1.0818    1.4465    0.0000 C   0  0  0  0  0  0  0  0  0  0  0  0
    3.9254    1.0385    0.0000 C   0  0  0  0  0  0  0  0  0  0  0  0
    3.9130   -1.4342    0.0000 C   0  0  0  0  0  0  0  0  0  0  0  0
    3.9130   -2.2749    0.0000 C   0  0  0  0  0  0  0  0  0  0  0  0
   -0.3647    2.6705    0.0000 C   0  0  0  0  0  0  0  0  0  0  0  0
   -1.0695    2.2625    0.0000 C   0  0  0  0  0  0  0  0  0  0  0  0
    3.9130    0.2102    0.0000 C   0  0  0  0  0  0  0  0  0  0  0  0
    4.6424    1.4465    0.0000 C   0  0  0  0  0  0  0  0  0  0  0  0
   -2.5036    1.4465    0.0000 C   0  0  0  0  0  0  0  0  0  0  0  0
    5.3472    1.0385    0.0000 C   0  0  0  0  0  0  0  0  0  0  0  0
    4.6424   -0.1978    0.0000 C   0  0  0  0  0  0  0  0  0  0  0  0
   -3.2207    1.0385    0.0000 C   0  0  3  0  0  0  0  0  0  0  0  0
   -3.9254    1.4465    0.0000 C   0  0  0  0  0  0  0  0  0  0  0  0
   -5.3472    1.4218    0.0000 C   0  0  0  0  0  0  0  0  0  0  0  0
  1 23  1  0  0  0  0
  1 31  1  0  0  0  0
  2 32  1  0  0  0  0
  2 33  1  0  0  0  0
  3 34  1  0  0  0  0
  4 10  2  0  0  0  0
  4 12  1  0  0  0  0
  5 12  2  0  0  0  0
  5 13  1  0  0  0  0
  6 13  1  0  0  0  0
  6 24  1  0  0  0  0
  7 14  1  0  0  0  0
  7 26  2  0  0  0  0
  8 35  1  0  0  0  0
  8 36  1  0  0  0  0
  9 10  1  0  0  0  0
  9 11  1  0  0  0  0
  9 17  2  0  0  0  0
 10 15  1  0  0  0  0
 11 14  2  0  0  0  0
 11 18  1  0  0  0  0
 12 16  1  0  0  0  0
 13 15  2  0  0  0  0
 14 19  1  0  0  0  0
 16 20  2  0  0  0  0
 16 22  1  0  0  0  0
 17 21  1  0  0  0  0
 18 25  2  0  0  0  0
 19 21  2  0  0  0  0
 20 23  1  0  0  0  0
 22 27  2  0  0  0  0
 23 28  2  0  0  0  0
 24 29  1  0  0  0  0
 24 30  1  0  0  0  0
 25 26  1  0  0  0  0
 27 28  1  0  0  0  0
 29 33  1  0  0  0  0
 30 32  1  0  0  0  0
 31 34  1  0  0  0  0
 34 35  1  0  0  0  0
M  END
> <PUBCHEM_COMPOUND_ID_TYPE>
0

> <PUBCHEM_TOTAL_CHARGE>
0

> <PUBCHEM_SUBSTANCE_ID>
310942991

> <PUBCHEM_SUBSTANCE_VERSION>
1

> <PUBCHEM_EXT_DATASOURCE_NAME>
4488

> <PUBCHEM_EXT_DATASOURCE_REGID>
SCHEMBL16121050

> <PUBCHEM_SUBSTANCE_COMMENT>
InChI=1S/C28H31N5O3/c1-29-17-21(34)18-36-22-6-2-5-19(15-22)28-32-26(16-27(33-28)31-20-10-13-35-14-11-20)24-7-3-9-25-23(24)8-4-12-30-25/h2-9,12,15-16,20-21,29,34H,10-11,13-14,17-18H2,1H3,(H,31,32,33)
InChIKey=GTELTKFSKWYHEI-UHFFFAOYSA-N

> <PUBCHEM_SUBSTANCE_SYNONYM>
SCHEMBL16121050

> <PUBCHEM_XREF_EXT_ID>
SCHEMBL16121050

> <PUBCHEM_EXT_DATASOURCE_URL>
https://www.surechembl.org/

> <PUBCHEM_EXT_SUBSTANCE_URL>
https://www.surechembl.org/chemical/SCHEMBL16121050

> <PUBCHEM_CID_ASSOCIATIONS>
85472561  1

> <PUBCHEM_COORDINATE_TYPE>
1
3

$$$$
