310945822
  -OEChem-07211613022D

 46 51  0     1  0  0  0  0  0999 V2000
    5.2720   -1.2886    0.0000 O   0  0  0  0  0  0  0  0  0  0  0  0
    4.1359    0.6789    0.0000 O   0  0  0  0  0  0  0  0  0  0  0  0
    1.9744   -1.3994    0.0000 O   0  0  0  0  0  0  0  0  0  0  0  0
   -2.3347   -1.3994    0.0000 O   0  0  0  0  0  0  0  0  0  0  0  0
   -0.1732    0.6789    0.0000 O   0  0  0  0  0  0  0  0  0  0  0  0
    2.6949   -0.1524    0.0000 N   0  0  0  0  0  0  0  0  0  0  0  0
    0.5473   -0.5681    0.0000 N   0  0  0  0  0  0  0  0  0  0  0  0
    3.2907    1.3855    0.0000 N   0  0  0  0  0  0  0  0  0  0  0  0
   -1.6142   -0.1524    0.0000 N   0  0  0  0  0  0  0  0  0  0  0  0
    4.8563   -0.5542    0.0000 C   0  0  3  0  0  0  0  0  0  0  0  0
    4.1359   -0.1386    0.0000 C   0  0  0  0  0  0  0  0  0  0  0  0
    4.4546   -1.2470    0.0000 C   0  0  0  0  0  0  0  0  0  0  0  0
    3.4292   -0.5265    0.0000 C   0  0  3  0  0  0  0  0  0  0  0  0
   -3.0690   -0.1108    0.0000 C   0  0  0  0  0  0  0  0  0  0  0  0
   -3.9557    0.8867    0.0000 C   0  0  0  0  0  0  0  0  0  0  0  0
   -3.1383    0.7067    0.0000 C   0  0  0  0  0  0  0  0  0  0  0  0
   -4.3575    0.1663    0.0000 C   0  0  0  0  0  0  0  0  0  0  0  0
    5.5907   -0.1247    0.0000 C   0  0  0  0  0  0  0  0  0  0  0  0
    1.2539   -0.1247    0.0000 C   0  0  3  0  0  0  0  0  0  0  0  0
    1.9883   -0.5127    0.0000 C   0  0  0  0  0  0  0  0  0  0  0  0
    1.9744    1.1223    0.0000 C   0  0  0  0  0  0  0  0  0  0  0  0
    2.0714    1.9675    0.0000 C   0  0  0  0  0  0  0  0  0  0  0  0
   -3.7895   -0.4572    0.0000 C   0  0  0  0  0  0  0  0  0  0  0  0
    3.4154   -1.8705    0.0000 C   0  0  0  0  0  0  0  0  0  0  0  0
   -2.3208   -0.5127    0.0000 C   0  0  0  0  0  0  0  0  0  0  0  0
    2.8612    2.1337    0.0000 C   0  0  0  0  0  0  0  0  0  0  0  0
    1.2678    0.7067    0.0000 C   0  0  0  0  0  0  0  0  0  0  0  0
   -4.3575    1.5934    0.0000 C   0  0  0  0  0  0  0  0  0  0  0  0
    2.7503    0.8036    0.0000 C   0  0  0  0  0  0  0  0  0  0  0  0
   -5.2028    0.1802    0.0000 C   0  0  0  0  0  0  0  0  0  0  0  0
    2.6949   -2.2723    0.0000 C   0  0  0  0  0  0  0  0  0  0  0  0
   -0.1732   -0.1386    0.0000 C   0  0  0  0  0  0  0  0  0  0  0  0
   -0.8798   -0.5265    0.0000 C   0  0  3  0  0  0  0  0  0  0  0  0
    1.5310    2.5633    0.0000 C   0  0  0  0  0  0  0  0  0  0  0  0
    3.1244    2.9235    0.0000 C   0  0  0  0  0  0  0  0  0  0  0  0
   -2.5009    1.2470    0.0000 C   0  0  0  0  0  0  0  0  0  0  0  0
   -5.1889    1.5934    0.0000 C   0  0  0  0  0  0  0  0  0  0  0  0
   -5.5907    0.8729    0.0000 C   0  0  0  0  0  0  0  0  0  0  0  0
    1.7804    3.3530    0.0000 C   0  0  0  0  0  0  0  0  0  0  0  0
    2.5841    3.5193    0.0000 C   0  0  0  0  0  0  0  0  0  0  0  0
    2.6949   -3.1175    0.0000 C   0  0  0  0  0  0  0  0  0  0  0  0
    1.9744   -1.8843    0.0000 C   0  0  0  0  0  0  0  0  0  0  0  0
   -0.8937   -1.3855    0.0000 C   0  0  0  0  0  0  0  0  0  0  0  0
    1.9883   -3.5193    0.0000 C   0  0  0  0  0  0  0  0  0  0  0  0
    1.2816   -2.2861    0.0000 C   0  0  0  0  0  0  0  0  0  0  0  0
    1.2816   -3.1175    0.0000 C   0  0  0  0  0  0  0  0  0  0  0  0
  1 10  1  0  0  0  0
  1 12  1  0  0  0  0
  2 11  2  0  0  0  0
  3 20  2  0  0  0  0
  4 25  2  0  0  0  0
  5 32  2  0  0  0  0
  6 13  1  0  0  0  0
  6 20  1  0  0  0  0
  7 19  1  0  0  0  0
  7 32  1  0  0  0  0
  8 26  1  0  0  0  0
  8 29  1  0  0  0  0
  9 25  1  0  0  0  0
  9 33  1  0  0  0  0
 10 11  1  0  0  0  0
 10 12  1  0  0  0  0
 10 18  1  0  0  0  0
 11 13  1  0  0  0  0
 13 24  1  0  0  0  0
 14 16  2  0  0  0  0
 14 23  1  0  0  0  0
 14 25  1  0  0  0  0
 15 16  1  0  0  0  0
 15 17  1  0  0  0  0
 15 28  2  0  0  0  0
 16 36  1  0  0  0  0
 17 23  1  0  0  0  0
 17 30  2  0  0  0  0
 19 20  1  0  0  0  0
 19 27  1  0  0  0  0
 21 22  1  0  0  0  0
 21 27  1  0  0  0  0
 21 29  2  0  0  0  0
 22 26  1  0  0  0  0
 22 34  2  0  0  0  0
 24 31  1  0  0  0  0
 26 35  2  0  0  0  0
 28 37  1  0  0  0  0
 30 38  1  0  0  0  0
 31 41  2  0  0  0  0
 31 42  1  0  0  0  0
 32 33  1  0  0  0  0
 33 43  1  0  0  0  0
 34 39  1  0  0  0  0
 35 40  1  0  0  0  0
 37 38  2  0  0  0  0
 39 40  2  0  0  0  0
 41 44  1  0  0  0  0
 42 45  2  0  0  0  0
 44 46  2  0  0  0  0
 45 46  1  0  0  0  0
M  END
> <PUBCHEM_COMPOUND_ID_TYPE>
0

> <PUBCHEM_TOTAL_CHARGE>
0

> <PUBCHEM_SUBSTANCE_ID>
310945822

> <PUBCHEM_SUBSTANCE_VERSION>
1

> <PUBCHEM_EXT_DATASOURCE_NAME>
4488

> <PUBCHEM_EXT_DATASOURCE_REGID>
SCHEMBL16123927

> <PUBCHEM_SUBSTANCE_COMMENT>
InChI=1S/C37H38N4O5/c1-22-27-14-8-7-13-25(27)18-29(22)35(44)39-23(2)34(43)41-32(19-26-20-38-30-16-10-9-15-28(26)30)36(45)40-31(33(42)37(3)21-46-37)17-24-11-5-4-6-12-24/h4-16,20,23,31-32,38H,17-19,21H2,1-3H3,(H,39,44)(H,40,45)(H,41,43)
InChIKey=ADBUEVSHEJICCM-UHFFFAOYSA-N

> <PUBCHEM_SUBSTANCE_SYNONYM>
SCHEMBL16123927

> <PUBCHEM_XREF_EXT_ID>
SCHEMBL16123927

> <PUBCHEM_EXT_DATASOURCE_URL>
https://www.surechembl.org/

> <PUBCHEM_EXT_SUBSTANCE_URL>
https://www.surechembl.org/chemical/SCHEMBL16123927

> <PUBCHEM_CID_ASSOCIATIONS>
117611808  1

> <PUBCHEM_COORDINATE_TYPE>
1
3

$$$$
