310931434
  -OEChem-07211613022D

 24 27  0     1  0  0  0  0  0999 V2000
    0.3299   -2.7287    0.0000 O   0  0  0  0  0  0  0  0  0  0  0  0
    0.4498   -5.1576    0.0000 O   0  0  0  0  0  0  0  0  0  0  0  0
    1.7692    0.0000    0.0000 O   0  0  0  0  0  0  0  0  0  0  0  0
    1.7692   -2.5188    0.0000 N   0  0  0  0  0  0  0  0  0  0  0  0
    2.1890   -3.7783    0.0000 N   0  0  0  0  0  0  0  0  0  0  0  0
    3.2085   -2.7287    0.0000 N   0  0  0  0  0  0  0  0  0  0  0  0
    1.3494   -3.7783    0.0000 C   0  0  3  0  0  0  0  0  0  0  0  0
    1.1095   -2.9986    0.0000 C   0  0  0  0  0  0  0  0  0  0  0  0
    0.8696   -4.4379    0.0000 C   0  0  0  0  0  0  0  0  0  0  0  0
    1.7092   -4.5279    0.0000 C   0  0  0  0  0  0  0  0  0  0  0  0
    2.4289   -2.9986    0.0000 C   0  0  0  0  0  0  0  0  0  0  0  0
    0.7796   -5.2775    0.0000 C   0  0  0  0  0  0  0  0  0  0  0  0
    0.0900   -4.7978    0.0000 C   0  0  0  0  0  0  0  0  0  0  0  0
    1.2894   -5.2176    0.0000 C   0  0  0  0  0  0  0  0  0  0  0  0
    1.7692   -1.6792    0.0000 C   0  0  0  0  0  0  0  0  0  0  0  0
    2.5488   -4.5579    0.0000 C   0  0  0  0  0  0  0  0  0  0  0  0
    1.6492   -5.9372    0.0000 C   0  0  0  0  0  0  0  0  0  0  0  0
    2.4589   -1.2594    0.0000 C   0  0  0  0  0  0  0  0  0  0  0  0
    1.0495   -1.2594    0.0000 C   0  0  0  0  0  0  0  0  0  0  0  0
    2.9386   -5.3076    0.0000 C   0  0  0  0  0  0  0  0  0  0  0  0
    2.4589   -5.9972    0.0000 C   0  0  0  0  0  0  0  0  0  0  0  0
    2.4589   -0.4498    0.0000 C   0  0  0  0  0  0  0  0  0  0  0  0
    1.0495   -0.4498    0.0000 C   0  0  0  0  0  0  0  0  0  0  0  0
    0.0000   -5.8773    0.0000 C   0  0  0  0  0  0  0  0  0  0  0  0
  1  8  2  0  0  0  0
  2 14  1  0  0  0  0
  2 24  1  0  0  0  0
  3 22  1  0  0  0  0
  3 23  1  0  0  0  0
  4  8  1  0  0  0  0
  4 11  1  0  0  0  0
  4 15  1  0  0  0  0
  5  7  1  0  0  0  0
  5 11  1  0  0  0  0
  6 11  2  3  0  0  0
  7  8  1  0  0  0  0
  7  9  1  0  0  0  0
  7 10  1  0  0  0  0
  9 12  1  0  0  0  0
  9 13  1  0  0  0  0
 10 14  1  0  0  0  0
 10 16  2  0  0  0  0
 12 13  1  0  0  0  0
 14 17  2  0  0  0  0
 15 18  1  0  0  0  0
 15 19  1  0  0  0  0
 16 20  1  0  0  0  0
 17 21  1  0  0  0  0
 18 22  1  0  0  0  0
 19 23  1  0  0  0  0
 20 21  2  0  0  0  0
M  END
> <PUBCHEM_COMPOUND_ID_TYPE>
0

> <PUBCHEM_TOTAL_CHARGE>
0

> <PUBCHEM_SUBSTANCE_ID>
310931434

> <PUBCHEM_SUBSTANCE_VERSION>
1

> <PUBCHEM_EXT_DATASOURCE_NAME>
4488

> <PUBCHEM_EXT_DATASOURCE_REGID>
SCHEMBL16108759

> <PUBCHEM_SUBSTANCE_COMMENT>
InChI=1S/C18H23N3O3/c1-23-15-5-3-2-4-14(15)18(12-6-7-12)16(22)21(17(19)20-18)13-8-10-24-11-9-13/h2-5,12-13H,6-11H2,1H3,(H2,19,20)
InChIKey=ORKKVRFGJXUURE-UHFFFAOYSA-N

> <PUBCHEM_SUBSTANCE_SYNONYM>
SCHEMBL16108759

> <PUBCHEM_XREF_EXT_ID>
SCHEMBL16108759

> <PUBCHEM_EXT_DATASOURCE_URL>
https://www.surechembl.org/

> <PUBCHEM_EXT_SUBSTANCE_URL>
https://www.surechembl.org/chemical/SCHEMBL16108759

> <PUBCHEM_CID_ASSOCIATIONS>
117600211  1

> <PUBCHEM_COORDINATE_TYPE>
1
3

$$$$
