310941124
  -OEChem-07211613022D

 43 46  0     1  0  0  0  0  0999 V2000
    5.0393    0.6806    0.0000 O   0  0  0  0  0  0  0  0  0  0  0  0
    3.9118   -1.2719    0.0000 O   0  0  0  0  0  0  0  0  0  0  0  0
    1.7806    0.7906    0.0000 O   0  0  0  0  0  0  0  0  0  0  0  0
    1.0656   -2.9219    0.0000 O   0  0  0  0  0  0  0  0  0  0  0  0
   -0.3644   -1.2719    0.0000 O   0  0  0  0  0  0  0  0  0  0  0  0
    3.9118   -2.9219    0.0000 O   0  0  0  0  0  0  0  0  0  0  0  0
   -2.4956    0.7906    0.0000 O   0  0  0  0  0  0  0  0  0  0  0  0
   -5.3556    0.7906    0.0000 O   0  0  0  0  0  0  0  0  0  0  0  0
    2.4956   -0.4332    0.0000 N   0  0  0  0  0  0  0  0  0  0  0  0
    0.3506   -0.0206    0.0000 N   0  0  0  0  0  0  0  0  0  0  0  0
   -1.7806   -0.4332    0.0000 N   0  0  0  0  0  0  0  0  0  0  0  0
   -3.9256   -0.0206    0.0000 N   0  0  0  0  0  0  0  0  0  0  0  0
    4.6406   -0.0069    0.0000 C   0  0  3  0  0  0  0  0  0  0  0  0
    3.9256   -0.4194    0.0000 C   0  0  0  0  0  0  0  0  0  0  0  0
    4.2556    0.6944    0.0000 C   0  0  0  0  0  0  0  0  0  0  0  0
    3.1968   -0.0206    0.0000 C   0  0  3  0  0  0  0  0  0  0  0  0
    5.3556   -0.4606    0.0000 C   0  0  0  0  0  0  0  0  0  0  0  0
    3.2106    1.2994    0.0000 C   0  0  0  0  0  0  0  0  0  0  0  0
    1.7669   -0.0481    0.0000 C   0  0  0  0  0  0  0  0  0  0  0  0
    1.0793   -0.4332    0.0000 C   0  0  3  0  0  0  0  0  0  0  0  0
    2.4818    1.7119    0.0000 C   0  0  0  0  0  0  0  0  0  0  0  0
    1.0656   -1.2581    0.0000 C   0  0  0  0  0  0  0  0  0  0  0  0
    1.7806   -1.6706    0.0000 C   0  0  0  0  0  0  0  0  0  0  0  0
    1.7806   -2.4956    0.0000 C   0  0  0  0  0  0  0  0  0  0  0  0
   -0.3644   -0.4056    0.0000 C   0  0  0  0  0  0  0  0  0  0  0  0
    1.7806    1.2994    0.0000 C   0  0  0  0  0  0  0  0  0  0  0  0
    2.4956    2.5231    0.0000 C   0  0  0  0  0  0  0  0  0  0  0  0
    2.4956   -1.2719    0.0000 C   0  0  0  0  0  0  0  0  0  0  0  0
    2.4818   -2.8944    0.0000 C   0  0  0  0  0  0  0  0  0  0  0  0
   -1.0656   -0.0206    0.0000 C   0  0  3  0  0  0  0  0  0  0  0  0
    3.1968   -2.4818    0.0000 C   0  0  0  0  0  0  0  0  0  0  0  0
    3.1968   -1.6706    0.0000 C   0  0  0  0  0  0  0  0  0  0  0  0
    1.0793    1.7119    0.0000 C   0  0  0  0  0  0  0  0  0  0  0  0
    1.7669    2.9219    0.0000 C   0  0  0  0  0  0  0  0  0  0  0  0
    1.0793    2.5369    0.0000 C   0  0  0  0  0  0  0  0  0  0  0  0
   -2.4956   -0.0481    0.0000 C   0  0  0  0  0  0  0  0  0  0  0  0
   -1.0656    0.8181    0.0000 C   0  0  0  0  0  0  0  0  0  0  0  0
   -3.1968   -0.4332    0.0000 C   0  0  0  0  0  0  0  0  0  0  0  0
   -3.9118    0.7906    0.0000 C   0  0  0  0  0  0  0  0  0  0  0  0
   -4.6131   -0.4332    0.0000 C   0  0  0  0  0  0  0  0  0  0  0  0
    4.6544   -2.5093    0.0000 C   0  0  0  0  0  0  0  0  0  0  0  0
   -4.6544    1.2031    0.0000 C   0  0  0  0  0  0  0  0  0  0  0  0
   -5.3418   -0.0343    0.0000 C   0  0  0  0  0  0  0  0  0  0  0  0
  1 13  1  0  0  0  0
  1 15  1  0  0  0  0
  2 14  2  0  0  0  0
  3 19  2  0  0  0  0
  4 24  1  0  0  0  0
  5 25  2  0  0  0  0
  6 31  1  0  0  0  0
  6 41  1  0  0  0  0
  7 36  2  0  0  0  0
  8 42  1  0  0  0  0
  8 43  1  0  0  0  0
  9 16  1  0  0  0  0
  9 19  1  0  0  0  0
 10 20  1  0  0  0  0
 10 25  1  0  0  0  0
 11 30  1  0  0  0  0
 11 36  1  0  0  0  0
 12 38  1  0  0  0  0
 12 39  1  0  0  0  0
 12 40  1  0  0  0  0
 13 14  1  0  0  0  0
 13 15  1  0  0  0  0
 13 17  1  0  0  0  0
 14 16  1  0  0  0  0
 16 18  1  0  0  0  0
 18 21  1  0  0  0  0
 19 20  1  0  0  0  0
 20 22  1  0  0  0  0
 21 26  2  0  0  0  0
 21 27  1  0  0  0  0
 22 23  1  0  0  0  0
 23 24  1  0  0  0  0
 23 28  2  0  0  0  0
 24 29  2  0  0  0  0
 25 30  1  0  0  0  0
 26 33  1  0  0  0  0
 27 34  2  0  0  0  0
 28 32  1  0  0  0  0
 29 31  1  0  0  0  0
 30 37  1  0  0  0  0
 31 32  2  0  0  0  0
 33 35  2  0  0  0  0
 34 35  1  0  0  0  0
 36 38  1  0  0  0  0
 39 42  1  0  0  0  0
 40 43  1  0  0  0  0
M  END
> <PUBCHEM_COMPOUND_ID_TYPE>
0

> <PUBCHEM_TOTAL_CHARGE>
0

> <PUBCHEM_SUBSTANCE_ID>
310941124

> <PUBCHEM_SUBSTANCE_VERSION>
1

> <PUBCHEM_EXT_DATASOURCE_NAME>
4488

> <PUBCHEM_EXT_DATASOURCE_REGID>
SCHEMBL16119084

> <PUBCHEM_SUBSTANCE_COMMENT>
InChI=1S/C31H40N4O8/c1-20(32-27(37)18-35-11-13-42-14-12-35)29(39)34-25(16-22-9-10-23(41-3)17-26(22)36)30(40)33-24(28(38)31(2)19-43-31)15-21-7-5-4-6-8-21/h4-10,17,20,24-25,36H,11-16,18-19H2,1-3H3,(H,32,37)(H,33,40)(H,34,39)
InChIKey=LJZVAJRNHWYTIG-UHFFFAOYSA-N

> <PUBCHEM_SUBSTANCE_SYNONYM>
SCHEMBL16119084

> <PUBCHEM_XREF_EXT_ID>
SCHEMBL16119084

> <PUBCHEM_EXT_DATASOURCE_URL>
https://www.surechembl.org/

> <PUBCHEM_EXT_SUBSTANCE_URL>
https://www.surechembl.org/chemical/SCHEMBL16119084

> <PUBCHEM_CID_ASSOCIATIONS>
117608007  1

> <PUBCHEM_COORDINATE_TYPE>
1
3

$$$$
