310947335
  -OEChem-07211613022D

 31 34  0     1  0  0  0  0  0999 V2000
    1.1798   -1.7348    0.0000 O   0  0  0  0  0  0  0  0  0  0  0  0
   -1.3784    1.9629    0.0000 O   0  0  0  0  0  0  0  0  0  0  0  0
    1.5497   -0.3546    0.0000 N   0  0  0  0  0  0  0  0  0  0  0  0
    2.0346    0.3129    0.0000 N   0  0  0  0  0  0  0  0  0  0  0  0
   -2.0929    0.7254    0.0000 N   0  0  0  0  0  0  0  0  0  0  0  0
    3.9403   -0.9951    0.0000 N   0  0  0  0  0  0  0  0  0  0  0  0
    0.7650   -0.0996    0.0000 C   0  0  0  0  0  0  0  0  0  0  0  0
    0.7650    0.7254    0.0000 C   0  0  0  0  0  0  0  0  0  0  0  0
    1.5497    0.9803    0.0000 C   0  0  0  0  0  0  0  0  0  0  0  0
    1.7632   -1.1514    0.0000 C   0  0  0  0  0  0  0  0  0  0  0  0
    0.0506    1.1379    0.0000 C   0  0  0  0  0  0  0  0  0  0  0  0
   -0.6639    0.7254    0.0000 C   0  0  0  0  0  0  0  0  0  0  0  0
    0.0506   -0.5121    0.0000 C   0  0  0  0  0  0  0  0  0  0  0  0
    2.5601   -1.3650    0.0000 C   0  0  0  0  0  0  0  0  0  0  0  0
   -0.6639   -0.0996    0.0000 C   0  0  0  0  0  0  0  0  0  0  0  0
   -1.3784    1.1379    0.0000 C   0  0  0  0  0  0  0  0  0  0  0  0
    1.9622    1.6948    0.0000 C   0  0  0  0  0  0  0  0  0  0  0  0
    3.1434   -0.7816    0.0000 C   0  0  0  0  0  0  0  0  0  0  0  0
    2.7736   -2.1619    0.0000 C   0  0  0  0  0  0  0  0  0  0  0  0
   -2.8073    1.1379    0.0000 C   0  0  3  0  0  0  0  0  0  0  0  0
    3.5705   -2.3754    0.0000 C   0  0  0  0  0  0  0  0  0  0  0  0
    4.1538   -1.7920    0.0000 C   0  0  0  0  0  0  0  0  0  0  0  0
   -3.5218    0.7254    0.0000 C   0  0  0  0  0  0  0  0  0  0  0  0
   -2.8073    1.9629    0.0000 C   0  0  0  0  0  0  0  0  0  0  0  0
   -4.2363    1.1379    0.0000 C   0  0  0  0  0  0  0  0  0  0  0  0
   -3.5218   -0.0996    0.0000 C   0  0  0  0  0  0  0  0  0  0  0  0
    4.9507   -2.0055    0.0000 C   0  0  0  0  0  0  0  0  0  0  0  0
   -4.9507    0.7254    0.0000 C   0  0  0  0  0  0  0  0  0  0  0  0
   -4.2363   -0.5121    0.0000 C   0  0  0  0  0  0  0  0  0  0  0  0
   -4.9507   -0.0996    0.0000 C   0  0  0  0  0  0  0  0  0  0  0  0
   -3.5218    2.3754    0.0000 C   0  0  0  0  0  0  0  0  0  0  0  0
  1 10  2  0  0  0  0
  2 16  2  0  0  0  0
  3  4  1  0  0  0  0
  3  7  1  0  0  0  0
  3 10  1  0  0  0  0
  4  9  2  0  0  0  0
  5 16  1  0  0  0  0
  5 20  1  0  0  0  0
  6 18  2  0  0  0  0
  6 22  1  0  0  0  0
  7  8  1  0  0  0  0
  7 13  2  0  0  0  0
  8  9  1  0  0  0  0
  8 11  2  0  0  0  0
  9 17  1  0  0  0  0
 10 14  1  0  0  0  0
 11 12  1  0  0  0  0
 12 15  2  0  0  0  0
 12 16  1  0  0  0  0
 13 15  1  0  0  0  0
 14 18  1  0  0  0  0
 14 19  2  0  0  0  0
 19 21  1  0  0  0  0
 20 23  1  0  0  0  0
 20 24  1  0  0  0  0
 21 22  2  0  0  0  0
 22 27  1  0  0  0  0
 23 25  2  0  0  0  0
 23 26  1  0  0  0  0
 24 31  1  0  0  0  0
 25 28  1  0  0  0  0
 26 29  2  0  0  0  0
 28 30  2  0  0  0  0
 29 30  1  0  0  0  0
M  END
> <PUBCHEM_COMPOUND_ID_TYPE>
0

> <PUBCHEM_TOTAL_CHARGE>
0

> <PUBCHEM_SUBSTANCE_ID>
310947335

> <PUBCHEM_SUBSTANCE_VERSION>
1

> <PUBCHEM_EXT_DATASOURCE_NAME>
4488

> <PUBCHEM_EXT_DATASOURCE_REGID>
SCHEMBL16125490

> <PUBCHEM_SUBSTANCE_COMMENT>
InChI=1S/C25H24N4O2/c1-4-22(18-8-6-5-7-9-18)27-24(30)19-12-13-23-21(14-19)17(3)28-29(23)25(31)20-11-10-16(2)26-15-20/h5-15,22H,4H2,1-3H3,(H,27,30)
InChIKey=MOGQOLWXIWUOJV-UHFFFAOYSA-N

> <PUBCHEM_SUBSTANCE_SYNONYM>
SCHEMBL16125490

> <PUBCHEM_XREF_EXT_ID>
SCHEMBL16125490

> <PUBCHEM_EXT_DATASOURCE_URL>
https://www.surechembl.org/

> <PUBCHEM_EXT_SUBSTANCE_URL>
https://www.surechembl.org/chemical/SCHEMBL16125490

> <PUBCHEM_CID_ASSOCIATIONS>
71577576  1

> <PUBCHEM_COORDINATE_TYPE>
1
3

$$$$
