310930327
  -OEChem-07211613022D

 27 29  0     1  0  0  0  0  0999 V2000
    0.8504   -3.7051    0.0000 S   0  0  0  0  0  0  0  0  0  0  0  0
    0.8504   -2.8851    0.0000 O   0  0  0  0  0  0  0  0  0  0  0  0
    1.6703   -3.7051    0.0000 O   0  0  0  0  0  0  0  0  0  0  0  0
    0.0000   -3.7051    0.0000 O   0  0  0  0  0  0  0  0  0  0  0  0
    0.8504   -4.5555    0.0000 O   0  0  0  0  0  0  0  0  0  0  0  0
    6.6813   -3.7354    0.0000 N   0  0  0  0  0  0  0  0  0  0  0  0
    7.3495   -2.5814    0.0000 N   0  0  0  0  0  0  0  0  0  0  0  0
    5.8613   -2.4903    0.0000 N   0  0  0  0  0  0  0  0  0  0  0  0
    2.2777   -1.2451    0.0000 N   0  0  3  0  0  0  0  0  0  0  0  0
    5.1629   -2.8851    0.0000 N   0  0  0  0  0  0  0  0  0  0  0  0
    7.4709   -3.9176    0.0000 C   0  0  0  0  0  0  0  0  0  0  0  0
    7.8961   -3.1888    0.0000 C   0  0  0  0  0  0  0  0  0  0  0  0
    6.5902   -2.9155    0.0000 C   0  0  0  0  0  0  0  0  0  0  0  0
    2.9762   -1.6400    0.0000 C   0  0  0  0  0  0  0  0  0  0  0  0
    4.4340   -2.4599    0.0000 C   0  0  0  0  0  0  0  0  0  0  0  0
    7.8961   -4.6162    0.0000 C   0  0  0  0  0  0  0  0  0  0  0  0
    8.7161   -3.1888    0.0000 C   0  0  0  0  0  0  0  0  0  0  0  0
    3.7051   -1.2148    0.0000 C   0  0  0  0  0  0  0  0  0  0  0  0
    2.9762   -2.4599    0.0000 C   0  0  0  0  0  0  0  0  0  0  0  0
    4.4340   -1.6400    0.0000 C   0  0  0  0  0  0  0  0  0  0  0  0
    3.7051   -2.8851    0.0000 C   0  0  0  0  0  0  0  0  0  0  0  0
    8.6857   -4.6162    0.0000 C   0  0  0  0  0  0  0  0  0  0  0  0
    9.1109   -3.8873    0.0000 C   0  0  0  0  0  0  0  0  0  0  0  0
    1.5488   -1.6400    0.0000 C   0  0  0  0  0  0  0  0  0  0  0  0
    2.2777   -0.3948    0.0000 C   0  0  0  0  0  0  0  0  0  0  0  0
    1.5488   -2.4599    0.0000 C   0  0  0  0  0  0  0  0  0  0  0  0
    1.5488    0.0000    0.0000 C   0  0  0  0  0  0  0  0  0  0  0  0
  1  2  1  0  0  0  0
  1  3  2  0  0  0  0
  1  4  2  0  0  0  0
  1  5  1  0  0  0  0
  2 26  1  0  0  0  0
  6 11  1  0  0  0  0
  6 13  2  0  0  0  0
  7 12  1  0  0  0  0
  7 13  1  0  0  0  0
  8 10  2  0  0  0  0
  8 13  1  0  0  0  0
  9 14  1  0  0  0  0
  9 24  1  0  0  0  0
  9 25  1  0  0  0  0
 10 15  1  0  0  0  0
 11 12  2  0  0  0  0
 11 16  1  0  0  0  0
 12 17  1  0  0  0  0
 14 18  2  0  0  0  0
 14 19  1  0  0  0  0
 15 20  2  0  0  0  0
 15 21  1  0  0  0  0
 16 22  2  0  0  0  0
 17 23  2  0  0  0  0
 18 20  1  0  0  0  0
 19 21  2  0  0  0  0
 22 23  1  0  0  0  0
 24 26  1  0  0  0  0
 25 27  1  0  0  0  0
M  END
> <PUBCHEM_COMPOUND_ID_TYPE>
0

> <PUBCHEM_TOTAL_CHARGE>
0

> <PUBCHEM_SUBSTANCE_ID>
310930327

> <PUBCHEM_SUBSTANCE_VERSION>
1

> <PUBCHEM_EXT_DATASOURCE_NAME>
4488

> <PUBCHEM_EXT_DATASOURCE_REGID>
SCHEMBL16107610

> <PUBCHEM_SUBSTANCE_COMMENT>
InChI=1S/C17H19N5O4S/c1-2-22(11-12-26-27(23,24)25)14-9-7-13(8-10-14)20-21-17-18-15-5-3-4-6-16(15)19-17/h3-10H,2,11-12H2,1H3,(H,18,19)(H,23,24,25)/b21-20+
InChIKey=OKCGFWIOCQDXNR-QZQOTICOSA-N

> <PUBCHEM_SUBSTANCE_SYNONYM>
SCHEMBL16107610

> <PUBCHEM_XREF_EXT_ID>
SCHEMBL16107610

> <PUBCHEM_EXT_DATASOURCE_URL>
https://www.surechembl.org/

> <PUBCHEM_EXT_SUBSTANCE_URL>
https://www.surechembl.org/chemical/SCHEMBL16107610

> <PUBCHEM_CID_ASSOCIATIONS>
117599499  1

> <PUBCHEM_COORDINATE_TYPE>
1
3

$$$$
