310946204
  -OEChem-07211613022D

 17 20  0     1  0  0  0  0  0999 V2000
   -0.6829   -0.5743    0.0000 O   0  0  0  0  0  0  0  0  0  0  0  0
   -1.5675    0.9777    0.0000 O   0  0  0  0  0  0  0  0  0  0  0  0
    1.3192   -0.2017    0.0000 C   0  0  3  0  0  0  0  0  0  0  0  0
    1.0398   -0.5432    0.0000 C   0  0  3  0  0  0  0  0  0  0  0  0
    0.2328   -0.0620    0.0000 C   0  0  3  0  0  0  0  0  0  0  0  0
    1.6296   -0.5277    0.0000 C   0  0  3  0  0  0  0  0  0  0  0  0
    0.4656    0.7449    0.0000 C   0  0  3  0  0  0  0  0  0  0  0  0
    0.8380    0.0620    0.0000 C   0  0  0  0  0  0  0  0  0  0  0  0
    1.4123   -1.1639    0.0000 C   0  0  0  0  0  0  0  0  0  0  0  0
    1.8313    0.0620    0.0000 C   0  0  0  0  0  0  0  0  0  0  0  0
    2.2038    0.7449    0.0000 C   0  0  3  0  0  0  0  0  0  0  0  0
    2.4366   -0.0466    0.0000 C   0  0  0  0  0  0  0  0  0  0  0  0
    1.3347    1.5985    0.0000 C   0  0  0  0  0  0  0  0  0  0  0  0
    0.2483   -1.0864    0.0000 C   0  0  0  0  0  0  0  0  0  0  0  0
   -1.5520   -0.0776    0.0000 C   0  0  0  0  0  0  0  0  0  0  0  0
    1.1330   -1.5985    0.0000 C   0  0  0  0  0  0  0  0  0  0  0  0
   -2.4366   -0.5898    0.0000 C   0  0  0  0  0  0  0  0  0  0  0  0
  1  5  1  0  0  0  0
  1 15  1  0  0  0  0
  2 15  2  0  0  0  0
  3  4  1  0  0  0  0
  3  6  1  0  0  0  0
  3  8  1  0  0  0  0
  3 10  1  0  0  0  0
  4  5  1  0  0  0  0
  4  9  1  0  0  0  0
  5  7  1  0  0  0  0
  5 14  1  0  0  0  0
  6  9  1  0  0  0  0
  6 12  1  0  0  0  0
  7  8  1  0  0  0  0
  7 13  1  0  0  0  0
 10 11  1  0  0  0  0
 11 12  1  0  0  0  0
 11 13  1  0  0  0  0
 14 16  1  0  0  0  0
 15 17  1  0  0  0  0
M  END
> <PUBCHEM_COMPOUND_ID_TYPE>
0

> <PUBCHEM_TOTAL_CHARGE>
0

> <PUBCHEM_SUBSTANCE_ID>
310946204

> <PUBCHEM_SUBSTANCE_VERSION>
1

> <PUBCHEM_EXT_DATASOURCE_NAME>
4488

> <PUBCHEM_EXT_DATASOURCE_REGID>
SCHEMBL16124316

> <PUBCHEM_SUBSTANCE_COMMENT>
InChI=1S/C15H22O2/c1-3-15(17-9(2)16)12-5-10-4-11-6-13(15)14(11,7-10)8-12/h10-13H,3-8H2,1-2H3
InChIKey=QZGKWZVQPGYIOX-UHFFFAOYSA-N

> <PUBCHEM_SUBSTANCE_SYNONYM>
SCHEMBL16124316

> <PUBCHEM_XREF_EXT_ID>
SCHEMBL16124316

> <PUBCHEM_EXT_DATASOURCE_URL>
https://www.surechembl.org/

> <PUBCHEM_EXT_SUBSTANCE_URL>
https://www.surechembl.org/chemical/SCHEMBL16124316

> <PUBCHEM_CID_ASSOCIATIONS>
117612154  1

> <PUBCHEM_COORDINATE_TYPE>
1
3

$$$$
