310934286
  -OEChem-07211613022D

 16 17  0     1  0  0  0  0  0999 V2000
    4.1265   -4.2762    0.0000 Br  0  0  0  0  0  0  0  0  0  0  0  0
    2.9078   -0.7055    0.0000 Cl  0  0  0  0  0  0  0  0  0  0  0  0
    1.6463    0.0000    0.0000 F   0  0  0  0  0  0  0  0  0  0  0  0
    1.6677   -1.4325    0.0000 C   0  0  0  0  0  0  0  0  0  0  0  0
    2.4802   -1.4325    0.0000 C   0  0  3  0  0  0  0  0  0  0  0  0
    2.9078   -2.1381    0.0000 C   0  0  0  0  0  0  0  0  0  0  0  0
    1.2401   -0.7269    0.0000 C   0  0  0  0  0  0  0  0  0  0  0  0
    1.2401   -2.1381    0.0000 C   0  0  0  0  0  0  0  0  0  0  0  0
    3.7202   -2.1381    0.0000 C   0  0  0  0  0  0  0  0  0  0  0  0
    2.5016   -2.8437    0.0000 C   0  0  0  0  0  0  0  0  0  0  0  0
    3.7202   -3.5706    0.0000 C   0  0  0  0  0  0  0  0  0  0  0  0
    0.4276   -0.7269    0.0000 C   0  0  0  0  0  0  0  0  0  0  0  0
    4.1479   -2.8437    0.0000 C   0  0  0  0  0  0  0  0  0  0  0  0
    2.9078   -3.5492    0.0000 C   0  0  0  0  0  0  0  0  0  0  0  0
    0.4276   -2.1381    0.0000 C   0  0  0  0  0  0  0  0  0  0  0  0
    0.0000   -1.4325    0.0000 C   0  0  0  0  0  0  0  0  0  0  0  0
  1 11  1  0  0  0  0
  2  5  1  0  0  0  0
  3  7  1  0  0  0  0
  4  5  1  0  0  0  0
  4  7  1  0  0  0  0
  4  8  2  0  0  0  0
  5  6  1  0  0  0  0
  6  9  2  0  0  0  0
  6 10  1  0  0  0  0
  7 12  2  0  0  0  0
  8 15  1  0  0  0  0
  9 13  1  0  0  0  0
 10 14  2  0  0  0  0
 11 13  2  0  0  0  0
 11 14  1  0  0  0  0
 12 16  1  0  0  0  0
 15 16  2  0  0  0  0
M  END
> <PUBCHEM_COMPOUND_ID_TYPE>
0

> <PUBCHEM_TOTAL_CHARGE>
0

> <PUBCHEM_SUBSTANCE_ID>
310934286

> <PUBCHEM_SUBSTANCE_VERSION>
1

> <PUBCHEM_EXT_DATASOURCE_NAME>
4488

> <PUBCHEM_EXT_DATASOURCE_REGID>
SCHEMBL16111744

> <PUBCHEM_SUBSTANCE_COMMENT>
InChI=1S/C13H9BrClF/c14-10-7-5-9(6-8-10)13(15)11-3-1-2-4-12(11)16/h1-8,13H
InChIKey=SKBXUSOMIZURNN-UHFFFAOYSA-N

> <PUBCHEM_SUBSTANCE_SYNONYM>
SCHEMBL16111744

> <PUBCHEM_XREF_EXT_ID>
SCHEMBL16111744

> <PUBCHEM_EXT_DATASOURCE_URL>
https://www.surechembl.org/

> <PUBCHEM_EXT_SUBSTANCE_URL>
https://www.surechembl.org/chemical/SCHEMBL16111744

> <PUBCHEM_CID_ASSOCIATIONS>
63428793  1

> <PUBCHEM_COORDINATE_TYPE>
1
3

$$$$
