310948414
  -OEChem-07211613022D

 17 19  0     1  0  0  0  0  0999 V2000
   -2.2518   -1.4640    0.0000 Br  0  0  0  0  0  0  0  0  0  0  0  0
   -0.0767    0.3346    0.0000 F   0  0  0  0  0  0  0  0  0  0  0  0
    0.1882    1.4640    0.0000 F   0  0  0  0  0  0  0  0  0  0  0  0
    1.3315    1.1572    0.0000 F   0  0  0  0  0  0  0  0  0  0  0  0
    1.6243    0.6274    0.0000 O   0  0  0  0  0  0  0  0  0  0  0  0
    1.5407   -0.6413    0.0000 C   0  0  0  0  0  0  0  0  0  0  0  0
    1.0248    0.0558    0.0000 C   0  0  3  0  0  0  0  0  0  0  0  0
    0.2440   -0.2231    0.0000 C   0  0  0  0  0  0  0  0  0  0  0  0
    0.6205    0.7668    0.0000 C   0  0  0  0  0  0  0  0  0  0  0  0
    1.0527   -1.2966    0.0000 C   0  0  0  0  0  0  0  0  0  0  0  0
    0.2440   -1.0317    0.0000 C   0  0  0  0  0  0  0  0  0  0  0  0
    2.2518   -0.2231    0.0000 C   0  0  0  0  0  0  0  0  0  0  0  0
    2.2518   -1.0317    0.0000 C   0  0  0  0  0  0  0  0  0  0  0  0
   -0.4811    0.1952    0.0000 C   0  0  0  0  0  0  0  0  0  0  0  0
   -0.4811   -1.4640    0.0000 C   0  0  0  0  0  0  0  0  0  0  0  0
   -1.2200   -1.0457    0.0000 C   0  0  0  0  0  0  0  0  0  0  0  0
   -1.2061   -0.2231    0.0000 C   0  0  0  0  0  0  0  0  0  0  0  0
  1 16  1  0  0  0  0
  2  9  1  0  0  0  0
  3  9  1  0  0  0  0
  4  9  1  0  0  0  0
  5  7  1  0  0  0  0
  6  7  1  0  0  0  0
  6 10  1  0  0  0  0
  6 12  1  0  0  0  0
  6 13  1  0  0  0  0
  7  8  1  0  0  0  0
  7  9  1  0  0  0  0
  8 11  1  0  0  0  0
  8 14  2  0  0  0  0
 10 11  1  0  0  0  0
 11 15  2  0  0  0  0
 12 13  1  0  0  0  0
 14 17  1  0  0  0  0
 15 16  1  0  0  0  0
 16 17  2  0  0  0  0
M  END
> <PUBCHEM_COMPOUND_ID_TYPE>
0

> <PUBCHEM_TOTAL_CHARGE>
0

> <PUBCHEM_SUBSTANCE_ID>
310948414

> <PUBCHEM_SUBSTANCE_VERSION>
1

> <PUBCHEM_EXT_DATASOURCE_NAME>
4488

> <PUBCHEM_EXT_DATASOURCE_REGID>
SCHEMBL16126595

> <PUBCHEM_SUBSTANCE_COMMENT>
InChI=1S/C12H10BrF3O/c13-8-1-2-9-7(5-8)6-10(3-4-10)11(9,17)12(14,15)16/h1-2,5,17H,3-4,6H2
InChIKey=NKMHRRQSRUHTIE-UHFFFAOYSA-N

> <PUBCHEM_SUBSTANCE_SYNONYM>
SCHEMBL16126595

> <PUBCHEM_XREF_EXT_ID>
SCHEMBL16126595

> <PUBCHEM_EXT_DATASOURCE_URL>
https://www.surechembl.org/

> <PUBCHEM_EXT_SUBSTANCE_URL>
https://www.surechembl.org/chemical/SCHEMBL16126595

> <PUBCHEM_CID_ASSOCIATIONS>
117613975  1

> <PUBCHEM_COORDINATE_TYPE>
1
3

$$$$
