310933703
  -OEChem-07211613022D

 16 18  0     1  0  0  0  0  0999 V2000
   -1.8073    0.0000    0.0000 N   0  0  3  0  0  0  0  0  0  0  0  0
    0.7846   -0.6674    0.0000 N   0  0  0  0  0  0  0  0  0  0  0  0
    0.7846    0.6674    0.0000 N   0  0  0  0  0  0  0  0  0  0  0  0
    0.0000   -0.4125    0.0000 C   0  0  0  0  0  0  0  0  0  0  0  0
    0.0000    0.4125    0.0000 C   0  0  0  0  0  0  0  0  0  0  0  0
   -2.6323    0.0000    0.0000 C   0  0  0  0  0  0  0  0  0  0  0  0
   -0.6450   -0.9269    0.0000 C   0  0  0  0  0  0  0  0  0  0  0  0
   -0.6450    0.9269    0.0000 C   0  0  0  0  0  0  0  0  0  0  0  0
   -1.4494   -0.7433    0.0000 C   0  0  0  0  0  0  0  0  0  0  0  0
   -1.4494    0.7433    0.0000 C   0  0  0  0  0  0  0  0  0  0  0  0
    1.2696    0.0000    0.0000 C   0  0  0  0  0  0  0  0  0  0  0  0
   -3.0448    0.7145    0.0000 C   0  0  0  0  0  0  0  0  0  0  0  0
   -3.0448   -0.7145    0.0000 C   0  0  0  0  0  0  0  0  0  0  0  0
   -3.8698    0.7145    0.0000 C   0  0  0  0  0  0  0  0  0  0  0  0
   -3.8698   -0.7145    0.0000 C   0  0  0  0  0  0  0  0  0  0  0  0
   -4.2823    0.0000    0.0000 C   0  0  0  0  0  0  0  0  0  0  0  0
  1  6  1  0  0  0  0
  1  9  1  0  0  0  0
  1 10  1  0  0  0  0
  2  4  1  0  0  0  0
  2 11  2  0  0  0  0
  3  5  1  0  0  0  0
  3 11  1  0  0  0  0
  4  5  2  0  0  0  0
  4  7  1  0  0  0  0
  5  8  1  0  0  0  0
  6 12  2  0  0  0  0
  6 13  1  0  0  0  0
  7  9  1  0  0  0  0
  8 10  1  0  0  0  0
 12 14  1  0  0  0  0
 13 15  2  0  0  0  0
 14 16  2  0  0  0  0
 15 16  1  0  0  0  0
M  END
> <PUBCHEM_COMPOUND_ID_TYPE>
0

> <PUBCHEM_TOTAL_CHARGE>
0

> <PUBCHEM_SUBSTANCE_ID>
310933703

> <PUBCHEM_SUBSTANCE_VERSION>
1

> <PUBCHEM_EXT_DATASOURCE_NAME>
4488

> <PUBCHEM_EXT_DATASOURCE_REGID>
SCHEMBL16111138

> <PUBCHEM_SUBSTANCE_COMMENT>
InChI=1S/C13H15N3/c1-2-4-11(5-3-1)16-8-6-12-13(7-9-16)15-10-14-12/h1-5,10H,6-9H2,(H,14,15)
InChIKey=OZUXDKFJHABHQF-UHFFFAOYSA-N

> <PUBCHEM_SUBSTANCE_SYNONYM>
SCHEMBL16111138

> <PUBCHEM_XREF_EXT_ID>
SCHEMBL16111138

> <PUBCHEM_EXT_DATASOURCE_URL>
https://www.surechembl.org/

> <PUBCHEM_EXT_SUBSTANCE_URL>
https://www.surechembl.org/chemical/SCHEMBL16111138

> <PUBCHEM_CID_ASSOCIATIONS>
117602069  1

> <PUBCHEM_COORDINATE_TYPE>
1
3

$$$$
