310947837
  -OEChem-07211613022D

 47 51  0     1  0  0  0  0  0999 V2000
   -4.6441    0.0000    0.0000 S   0  0  0  0  0  0  0  0  0  0  0  0
    0.3572   -1.2375    0.0000 O   0  0  0  0  0  0  0  0  0  0  0  0
   -5.3585   -0.4125    0.0000 O   0  0  0  0  0  0  0  0  0  0  0  0
   -5.0566    0.7145    0.0000 O   0  0  0  0  0  0  0  0  0  0  0  0
    3.2151    3.7125    0.0000 O   0  0  0  0  0  0  0  0  0  0  0  0
   -2.5006   -1.2375    0.0000 O   0  0  0  0  0  0  0  0  0  0  0  0
    5.3585    1.6500    0.0000 O   0  0  0  0  0  0  0  0  0  0  0  0
   -1.7862    1.6500    0.0000 N   0  0  3  0  0  0  0  0  0  0  0  0
   -3.9296    0.4125    0.0000 N   0  0  0  0  0  0  0  0  0  0  0  0
   -1.0717   -1.2375    0.0000 N   0  0  0  0  0  0  0  0  0  0  0  0
    3.9296    2.4750    0.0000 N   0  0  0  0  0  0  0  0  0  0  0  0
   -3.2151   -2.4750    0.0000 N   0  0  0  0  0  0  0  0  0  0  0  0
   -1.0717    1.2375    0.0000 C   0  0  0  0  0  0  0  0  0  0  0  0
   -1.0717    0.4125    0.0000 C   0  0  0  0  0  0  0  0  0  0  0  0
   -0.3572    0.0000    0.0000 C   0  0  0  0  0  0  0  0  0  0  0  0
    0.3572    1.2375    0.0000 C   0  0  0  0  0  0  0  0  0  0  0  0
   -0.3572    1.6500    0.0000 C   0  0  0  0  0  0  0  0  0  0  0  0
    0.3572    0.4125    0.0000 C   0  0  0  0  0  0  0  0  0  0  0  0
    1.0717    1.6500    0.0000 C   0  0  0  0  0  0  0  0  0  0  0  0
   -2.5006    1.2375    0.0000 C   0  0  0  0  0  0  0  0  0  0  0  0
   -0.3572   -0.8250    0.0000 C   0  0  0  0  0  0  0  0  0  0  0  0
   -1.7862    2.4750    0.0000 C   0  0  0  0  0  0  0  0  0  0  0  0
   -3.2151    1.6500    0.0000 C   0  0  0  0  0  0  0  0  0  0  0  0
   -2.5006    0.4125    0.0000 C   0  0  0  0  0  0  0  0  0  0  0  0
    1.7862    1.2375    0.0000 C   0  0  0  0  0  0  0  0  0  0  0  0
    1.0717    2.4750    0.0000 C   0  0  0  0  0  0  0  0  0  0  0  0
   -1.7862    0.0000    0.0000 C   0  0  0  0  0  0  0  0  0  0  0  0
    2.5006    2.4750    0.0000 C   0  0  0  0  0  0  0  0  0  0  0  0
   -3.9296    1.2375    0.0000 C   0  0  0  0  0  0  0  0  0  0  0  0
   -3.2151    0.0000    0.0000 C   0  0  0  0  0  0  0  0  0  0  0  0
    2.5006    1.6500    0.0000 C   0  0  0  0  0  0  0  0  0  0  0  0
    1.7862    2.8875    0.0000 C   0  0  0  0  0  0  0  0  0  0  0  0
   -1.7862   -2.4750    0.0000 C   0  0  0  0  0  0  0  0  0  0  0  0
    3.2151    2.8875    0.0000 C   0  0  0  0  0  0  0  0  0  0  0  0
   -1.0717   -2.0625    0.0000 C   0  0  0  0  0  0  0  0  0  0  0  0
   -2.5006   -2.0625    0.0000 C   0  0  0  0  0  0  0  0  0  0  0  0
   -1.7862   -3.3000    0.0000 C   0  0  0  0  0  0  0  0  0  0  0  0
   -2.5006    2.8875    0.0000 C   0  0  0  0  0  0  0  0  0  0  0  0
   -3.2151   -3.3000    0.0000 C   0  0  0  0  0  0  0  0  0  0  0  0
   -2.5006   -3.7125    0.0000 C   0  0  0  0  0  0  0  0  0  0  0  0
   -4.2316   -0.7145    0.0000 C   0  0  0  0  0  0  0  0  0  0  0  0
    3.9296    1.6500    0.0000 C   0  0  0  0  0  0  0  0  0  0  0  0
    4.6441    2.8875    0.0000 C   0  0  0  0  0  0  0  0  0  0  0  0
   -1.0717   -3.7125    0.0000 C   0  0  0  0  0  0  0  0  0  0  0  0
    4.6441    1.2375    0.0000 C   0  0  0  0  0  0  0  0  0  0  0  0
    5.3585    2.4750    0.0000 C   0  0  0  0  0  0  0  0  0  0  0  0
   -3.9296   -3.7125    0.0000 C   0  0  0  0  0  0  0  0  0  0  0  0
  1  3  2  0  0  0  0
  1  4  2  0  0  0  0
  1  9  1  0  0  0  0
  1 41  1  0  0  0  0
  2 21  2  0  0  0  0
  5 34  2  0  0  0  0
  6 36  2  0  0  0  0
  7 45  1  0  0  0  0
  7 46  1  0  0  0  0
  8 13  1  0  0  0  0
  8 20  1  0  0  0  0
  8 22  1  0  0  0  0
  9 29  1  0  0  0  0
  9 30  1  0  0  0  0
 10 21  1  0  0  0  0
 10 35  1  0  0  0  0
 11 34  1  0  0  0  0
 11 42  1  0  0  0  0
 11 43  1  0  0  0  0
 12 36  1  0  0  0  0
 12 39  1  0  0  0  0
 13 14  1  0  0  0  0
 13 17  2  0  0  0  0
 14 15  2  0  0  0  0
 14 27  1  0  0  0  0
 15 18  1  0  0  0  0
 15 21  1  0  0  0  0
 16 17  1  0  0  0  0
 16 18  2  0  0  0  0
 16 19  1  0  0  0  0
 19 25  2  0  0  0  0
 19 26  1  0  0  0  0
 20 23  1  0  0  0  0
 20 24  1  0  0  0  0
 22 38  1  0  0  0  0
 23 29  1  0  0  0  0
 24 30  1  0  0  0  0
 25 31  1  0  0  0  0
 26 32  2  0  0  0  0
 28 31  2  0  0  0  0
 28 32  1  0  0  0  0
 28 34  1  0  0  0  0
 33 35  1  0  0  0  0
 33 36  1  0  0  0  0
 33 37  2  0  0  0  0
 37 40  1  0  0  0  0
 37 44  1  0  0  0  0
 39 40  2  0  0  0  0
 39 47  1  0  0  0  0
 42 45  1  0  0  0  0
 43 46  1  0  0  0  0
M  END
> <PUBCHEM_COMPOUND_ID_TYPE>
0

> <PUBCHEM_TOTAL_CHARGE>
0

> <PUBCHEM_SUBSTANCE_ID>
310947837

> <PUBCHEM_SUBSTANCE_VERSION>
1

> <PUBCHEM_EXT_DATASOURCE_NAME>
4488

> <PUBCHEM_EXT_DATASOURCE_REGID>
SCHEMBL16126009

> <PUBCHEM_SUBSTANCE_COMMENT>
InChI=1S/C35H45N5O6S/c1-6-40(29-11-13-39(14-12-29)47(5,44)45)32-21-28(26-7-9-27(10-8-26)35(43)38-15-17-46-18-16-38)20-30(25(32)4)33(41)36-22-31-23(2)19-24(3)37-34(31)42/h7-10,19-21,29H,6,11-18,22H2,1-5H3,(H,36,41)(H,37,42)
InChIKey=WVYYFTLCALWUSR-UHFFFAOYSA-N

> <PUBCHEM_SUBSTANCE_SYNONYM>
SCHEMBL16126009

> <PUBCHEM_XREF_EXT_ID>
SCHEMBL16126009

> <PUBCHEM_EXT_DATASOURCE_URL>
https://www.surechembl.org/

> <PUBCHEM_EXT_SUBSTANCE_URL>
https://www.surechembl.org/chemical/SCHEMBL16126009

> <PUBCHEM_CID_ASSOCIATIONS>
117613502  1

> <PUBCHEM_COORDINATE_TYPE>
1
3

$$$$
