310941279
  -OEChem-07211613022D

 43 46  0     1  0  0  0  0  0999 V2000
   -5.9279   -1.0074    0.0000 F   0  0  0  0  0  0  0  0  0  0  0  0
   -5.5094   -1.7202    0.0000 F   0  0  0  0  0  0  0  0  0  0  0  0
    5.6024   -1.0074    0.0000 O   0  0  0  0  0  0  0  0  0  0  0  0
    4.4711    0.9454    0.0000 O   0  0  0  0  0  0  0  0  0  0  0  0
    2.1000   -1.0074    0.0000 O   0  0  0  0  0  0  0  0  0  0  0  0
   -0.0697    1.0693    0.0000 O   0  0  0  0  0  0  0  0  0  0  0  0
   -2.2239   -1.0074    0.0000 O   0  0  0  0  0  0  0  0  0  0  0  0
    4.2541    2.7276    0.0000 O   0  0  0  0  0  0  0  0  0  0  0  0
    2.8128    0.2480    0.0000 N   0  0  0  0  0  0  0  0  0  0  0  0
    0.6586   -0.1705    0.0000 N   0  0  0  0  0  0  0  0  0  0  0  0
   -3.6652   -0.1705    0.0000 N   0  0  0  0  0  0  0  0  0  0  0  0
   -1.5110    0.2480    0.0000 N   0  0  0  0  0  0  0  0  0  0  0  0
    5.1995   -0.2790    0.0000 C   0  0  3  0  0  0  0  0  0  0  0  0
    4.4711    0.1085    0.0000 C   0  0  0  0  0  0  0  0  0  0  0  0
    4.7965   -0.9764    0.0000 C   0  0  0  0  0  0  0  0  0  0  0  0
    3.7581   -0.2634    0.0000 C   0  0  3  0  0  0  0  0  0  0  0  0
    5.9279    0.1549    0.0000 C   0  0  0  0  0  0  0  0  0  0  0  0
    3.7427   -1.3483    0.0000 C   0  0  0  0  0  0  0  0  0  0  0  0
    2.1000   -0.1239    0.0000 C   0  0  0  0  0  0  0  0  0  0  0  0
    1.3716    0.2634    0.0000 C   0  0  3  0  0  0  0  0  0  0  0  0
    3.0298   -1.7667    0.0000 C   0  0  0  0  0  0  0  0  0  0  0  0
    1.4025    1.1003    0.0000 C   0  0  0  0  0  0  0  0  0  0  0  0
   -0.0697    0.2480    0.0000 C   0  0  0  0  0  0  0  0  0  0  0  0
    2.2859   -1.4413    0.0000 C   0  0  0  0  0  0  0  0  0  0  0  0
    2.9368   -2.5881    0.0000 C   0  0  0  0  0  0  0  0  0  0  0  0
    2.1000    1.5188    0.0000 C   0  0  0  0  0  0  0  0  0  0  0  0
   -0.7671   -0.1395    0.0000 C   0  0  3  0  0  0  0  0  0  0  0  0
   -5.1064   -0.9764    0.0000 C   0  0  0  0  0  0  0  0  0  0  0  0
    1.7435   -2.0612    0.0000 C   0  0  0  0  0  0  0  0  0  0  0  0
    2.1464   -2.7430    0.0000 C   0  0  0  0  0  0  0  0  0  0  0  0
   -2.2084   -0.1239    0.0000 C   0  0  0  0  0  0  0  0  0  0  0  0
    2.8128    1.1003    0.0000 C   0  0  0  0  0  0  0  0  0  0  0  0
    2.1309    2.3401    0.0000 C   0  0  0  0  0  0  0  0  0  0  0  0
   -5.0754   -0.1395    0.0000 C   0  0  0  0  0  0  0  0  0  0  0  0
   -4.3470   -1.3793    0.0000 C   0  0  0  0  0  0  0  0  0  0  0  0
   -2.9368    0.2634    0.0000 C   0  0  0  0  0  0  0  0  0  0  0  0
   -4.3780    0.2634    0.0000 C   0  0  0  0  0  0  0  0  0  0  0  0
   -3.6652   -0.9764    0.0000 C   0  0  0  0  0  0  0  0  0  0  0  0
    3.5412    2.3401    0.0000 C   0  0  0  0  0  0  0  0  0  0  0  0
    3.5257    1.5188    0.0000 C   0  0  0  0  0  0  0  0  0  0  0  0
    2.7973    2.7430    0.0000 C   0  0  0  0  0  0  0  0  0  0  0  0
   -0.7517   -0.9918    0.0000 C   0  0  0  0  0  0  0  0  0  0  0  0
    4.9825    2.3091    0.0000 C   0  0  0  0  0  0  0  0  0  0  0  0
  1 28  1  0  0  0  0
  2 28  1  0  0  0  0
  3 13  1  0  0  0  0
  3 15  1  0  0  0  0
  4 14  2  0  0  0  0
  5 19  2  0  0  0  0
  6 23  2  0  0  0  0
  7 31  2  0  0  0  0
  8 39  1  0  0  0  0
  8 43  1  0  0  0  0
  9 16  1  0  0  0  0
  9 19  1  0  0  0  0
 10 20  1  0  0  0  0
 10 23  1  0  0  0  0
 11 36  1  0  0  0  0
 11 37  1  0  0  0  0
 11 38  1  0  0  0  0
 12 27  1  0  0  0  0
 12 31  1  0  0  0  0
 13 14  1  0  0  0  0
 13 15  1  0  0  0  0
 13 17  1  0  0  0  0
 14 16  1  0  0  0  0
 16 18  1  0  0  0  0
 18 21  1  0  0  0  0
 19 20  1  0  0  0  0
 20 22  1  0  0  0  0
 21 24  1  0  0  0  0
 21 25  1  0  0  0  0
 22 26  1  0  0  0  0
 23 27  1  0  0  0  0
 24 29  1  0  0  0  0
 25 30  1  0  0  0  0
 26 32  2  0  0  0  0
 26 33  1  0  0  0  0
 27 42  1  0  0  0  0
 28 34  1  0  0  0  0
 28 35  1  0  0  0  0
 29 30  1  0  0  0  0
 31 36  1  0  0  0  0
 32 40  1  0  0  0  0
 33 41  2  0  0  0  0
 34 37  1  0  0  0  0
 35 38  1  0  0  0  0
 39 40  2  0  0  0  0
 39 41  1  0  0  0  0
M  END
> <PUBCHEM_COMPOUND_ID_TYPE>
0

> <PUBCHEM_TOTAL_CHARGE>
0

> <PUBCHEM_SUBSTANCE_ID>
310941279

> <PUBCHEM_SUBSTANCE_VERSION>
1

> <PUBCHEM_EXT_DATASOURCE_NAME>
4488

> <PUBCHEM_EXT_DATASOURCE_REGID>
SCHEMBL16119239

> <PUBCHEM_SUBSTANCE_COMMENT>
InChI=1S/C31H44F2N4O6/c1-20(34-26(38)18-37-14-12-31(32,33)13-15-37)28(40)36-25(17-22-8-10-23(42-3)11-9-22)29(41)35-24(16-21-6-4-5-7-21)27(39)30(2)19-43-30/h8-11,20-21,24-25H,4-7,12-19H2,1-3H3,(H,34,38)(H,35,41)(H,36,40)
InChIKey=HJDUINVBWAGTOH-UHFFFAOYSA-N

> <PUBCHEM_SUBSTANCE_SYNONYM>
SCHEMBL16119239

> <PUBCHEM_XREF_EXT_ID>
SCHEMBL16119239

> <PUBCHEM_EXT_DATASOURCE_URL>
https://www.surechembl.org/

> <PUBCHEM_EXT_SUBSTANCE_URL>
https://www.surechembl.org/chemical/SCHEMBL16119239

> <PUBCHEM_CID_ASSOCIATIONS>
86297717  1

> <PUBCHEM_COORDINATE_TYPE>
1
3

$$$$
