310943574
  -OEChem-07211613022D

 27 29  0     1  0  0  0  0  0999 V2000
    3.2763    1.2823    0.0000 S   0  0  0  0  0  0  0  0  0  0  0  0
    3.9949    2.0292    0.0000 O   0  0  0  0  0  0  0  0  0  0  0  0
    2.8535    2.0010    0.0000 O   0  0  0  0  0  0  0  0  0  0  0  0
   -2.4166   -1.2259    0.0000 N   0  0  3  0  0  0  0  0  0  0  0  0
    4.1781    0.7751    0.0000 N   0  0  0  0  0  0  0  0  0  0  0  0
   -4.1781   -0.6765    0.0000 N   0  0  3  0  0  0  0  0  0  0  0  0
    1.8671   -2.0292    0.0000 N   0  0  0  0  0  0  0  0  0  0  0  0
    0.4297   -0.3663    0.0000 C   0  0  0  0  0  0  0  0  0  0  0  0
    1.1344    0.0423    0.0000 C   0  0  0  0  0  0  0  0  0  0  0  0
    0.4156   -1.1978    0.0000 C   0  0  0  0  0  0  0  0  0  0  0  0
    2.5575    0.8737    0.0000 C   0  0  0  0  0  0  0  0  0  0  0  0
   -0.9935   -1.2118    0.0000 C   0  0  0  0  0  0  0  0  0  0  0  0
   -0.2747    0.0282    0.0000 C   0  0  0  0  0  0  0  0  0  0  0  0
   -0.2747   -1.6205    0.0000 C   0  0  0  0  0  0  0  0  0  0  0  0
    1.8671   -0.3663    0.0000 C   0  0  0  0  0  0  0  0  0  0  0  0
    1.1484    0.8737    0.0000 C   0  0  0  0  0  0  0  0  0  0  0  0
    2.5434    0.0282    0.0000 C   0  0  0  0  0  0  0  0  0  0  0  0
    1.8248    1.2682    0.0000 C   0  0  0  0  0  0  0  0  0  0  0  0
   -0.9794   -0.3804    0.0000 C   0  0  0  0  0  0  0  0  0  0  0  0
   -1.6980   -1.6205    0.0000 C   0  0  0  0  0  0  0  0  0  0  0  0
    1.1484   -1.6205    0.0000 C   0  0  0  0  0  0  0  0  0  0  0  0
   -3.1071   -1.6909    0.0000 C   0  0  0  0  0  0  0  0  0  0  0  0
   -2.3744   -0.3804    0.0000 C   0  0  0  0  0  0  0  0  0  0  0  0
   -3.8822   -1.4373    0.0000 C   0  0  0  0  0  0  0  0  0  0  0  0
   -2.9521    0.1691    0.0000 C   0  0  0  0  0  0  0  0  0  0  0  0
   -3.7694    0.0564    0.0000 C   0  0  0  0  0  0  0  0  0  0  0  0
   -4.1781   -0.6765    0.0000 C   0  0  0  0  0  0  0  0  0  0  0  0
  1  2  2  0  0  0  0
  1  3  2  0  0  0  0
  1  5  1  0  0  0  0
  1 11  1  0  0  0  0
  4 20  1  0  0  0  0
  4 22  1  0  0  0  0
  4 23  1  0  0  0  0
  6 24  1  0  0  0  0
  6 26  1  0  0  0  0
  6 27  1  0  0  0  0
  7 21  3  0  0  0  0
  8  9  1  0  0  0  0
  8 10  1  0  0  0  0
  8 13  2  0  0  0  0
  9 15  2  0  0  0  0
  9 16  1  0  0  0  0
 10 14  2  0  0  0  0
 10 21  1  0  0  0  0
 11 17  2  0  0  0  0
 11 18  1  0  0  0  0
 12 14  1  0  0  0  0
 12 19  2  0  0  0  0
 12 20  1  0  0  0  0
 13 19  1  0  0  0  0
 15 17  1  0  0  0  0
 16 18  2  0  0  0  0
 22 24  1  0  0  0  0
 23 25  1  0  0  0  0
 25 26  1  0  0  0  0
M  END
> <PUBCHEM_COMPOUND_ID_TYPE>
0

> <PUBCHEM_TOTAL_CHARGE>
0

> <PUBCHEM_SUBSTANCE_ID>
310943574

> <PUBCHEM_SUBSTANCE_VERSION>
1

> <PUBCHEM_EXT_DATASOURCE_NAME>
4488

> <PUBCHEM_EXT_DATASOURCE_REGID>
SCHEMBL16121641

> <PUBCHEM_SUBSTANCE_COMMENT>
InChI=1S/C20H24N4O2S/c1-23-9-2-10-24(12-11-23)15-16-3-8-20(18(13-16)14-21)17-4-6-19(7-5-17)27(22,25)26/h3-8,13H,2,9-12,15H2,1H3,(H2,22,25,26)
InChIKey=XKHQNNMNTXAFHO-UHFFFAOYSA-N

> <PUBCHEM_SUBSTANCE_SYNONYM>
SCHEMBL16121641

> <PUBCHEM_XREF_EXT_ID>
SCHEMBL16121641

> <PUBCHEM_EXT_DATASOURCE_URL>
https://www.surechembl.org/

> <PUBCHEM_EXT_SUBSTANCE_URL>
https://www.surechembl.org/chemical/SCHEMBL16121641

> <PUBCHEM_CID_ASSOCIATIONS>
117609982  1

> <PUBCHEM_COORDINATE_TYPE>
1
3

$$$$
