310944589
  -OEChem-07211613022D

 29 31  0     1  0  0  0  0  0999 V2000
   -4.3704    1.6443    0.0000 Cl  0  0  0  0  0  0  0  0  0  0  0  0
   -4.3704    0.0000    0.0000 Cl  0  0  0  0  0  0  0  0  0  0  0  0
   -1.3538    0.0000    0.0000 O   0  0  0  0  0  0  0  0  0  0  0  0
    0.0680    2.4726    0.0000 O   0  0  0  0  0  0  0  0  0  0  0  0
    4.3580   -2.4726    0.0000 O   0  0  0  0  0  0  0  0  0  0  0  0
    2.2440    0.4203    0.0000 N   0  0  0  0  0  0  0  0  0  0  0  0
    0.7974    1.2363    0.0000 N   0  0  0  0  0  0  0  0  0  0  0  0
    3.6657   -1.2363    0.0000 N   0  0  0  0  0  0  0  0  0  0  0  0
   -1.3414    1.6567    0.0000 N   0  0  0  0  0  0  0  0  0  0  0  0
    2.9487    0.0124    0.0000 C   0  0  3  0  0  0  0  0  0  0  0  0
   -2.0585    1.2487    0.0000 C   0  0  0  0  0  0  0  0  0  0  0  0
   -2.0708    0.4203    0.0000 C   0  0  0  0  0  0  0  0  0  0  0  0
    0.0680    1.6443    0.0000 C   0  0  0  0  0  0  0  0  0  0  0  0
    2.9487   -0.8160    0.0000 C   0  0  0  0  0  0  0  0  0  0  0  0
    1.5269    0.0000    0.0000 C   0  0  0  0  0  0  0  0  0  0  0  0
    2.2316    1.2363    0.0000 C   0  0  0  0  0  0  0  0  0  0  0  0
   -3.4802    1.2363    0.0000 C   0  0  0  0  0  0  0  0  0  0  0  0
   -3.4926    0.4203    0.0000 C   0  0  0  0  0  0  0  0  0  0  0  0
   -2.7632    1.6443    0.0000 C   0  0  0  0  0  0  0  0  0  0  0  0
    0.8098    0.4080    0.0000 C   0  0  0  0  0  0  0  0  0  0  0  0
    1.5145    1.6443    0.0000 C   0  0  0  0  0  0  0  0  0  0  0  0
   -2.7755    0.0124    0.0000 C   0  0  0  0  0  0  0  0  0  0  0  0
    3.6657    0.4203    0.0000 C   0  0  0  0  0  0  0  0  0  0  0  0
   -0.6243    1.2363    0.0000 C   0  0  0  0  0  0  0  0  0  0  0  0
    3.6410   -2.0399    0.0000 C   0  0  0  0  0  0  0  0  0  0  0  0
    4.3704   -0.8283    0.0000 C   0  0  0  0  0  0  0  0  0  0  0  0
    4.3704    0.0000    0.0000 C   0  0  0  0  0  0  0  0  0  0  0  0
    2.9487   -2.4726    0.0000 C   0  0  0  0  0  0  0  0  0  0  0  0
    2.2563   -2.0152    0.0000 C   0  0  0  0  0  0  0  0  0  0  0  0
  1 17  1  0  0  0  0
  2 18  1  0  0  0  0
  3 12  1  0  0  0  0
  4 13  2  0  0  0  0
  5 25  2  0  0  0  0
  6 10  1  0  0  0  0
  6 15  1  0  0  0  0
  6 16  1  0  0  0  0
  7 13  1  0  0  0  0
  7 20  1  0  0  0  0
  7 21  1  0  0  0  0
  8 14  1  0  0  0  0
  8 25  1  0  0  0  0
  8 26  1  0  0  0  0
  9 11  1  0  0  0  0
  9 24  1  0  0  0  0
 10 14  1  0  0  0  0
 10 23  1  0  0  0  0
 11 12  1  0  0  0  0
 11 19  2  0  0  0  0
 12 22  2  0  0  0  0
 13 24  1  0  0  0  0
 15 20  1  0  0  0  0
 16 21  1  0  0  0  0
 17 18  2  0  0  0  0
 17 19  1  0  0  0  0
 18 22  1  0  0  0  0
 23 27  1  0  0  0  0
 25 28  1  0  0  0  0
 26 27  1  0  0  0  0
 28 29  2  0  0  0  0
M  END
> <PUBCHEM_COMPOUND_ID_TYPE>
0

> <PUBCHEM_TOTAL_CHARGE>
0

> <PUBCHEM_SUBSTANCE_ID>
310944589

> <PUBCHEM_SUBSTANCE_VERSION>
1

> <PUBCHEM_EXT_DATASOURCE_NAME>
4488

> <PUBCHEM_EXT_DATASOURCE_REGID>
SCHEMBL16122667

> <PUBCHEM_SUBSTANCE_COMMENT>
InChI=1S/C20H26Cl2N4O3/c1-2-19(28)26-5-3-4-14(13-26)24-6-8-25(9-7-24)20(29)12-23-17-10-15(21)16(22)11-18(17)27/h2,10-11,14,23,27H,1,3-9,12-13H2
InChIKey=KPZZPZSUUGIMHO-UHFFFAOYSA-N

> <PUBCHEM_SUBSTANCE_SYNONYM>
SCHEMBL16122667

> <PUBCHEM_XREF_EXT_ID>
SCHEMBL16122667

> <PUBCHEM_EXT_DATASOURCE_URL>
https://www.surechembl.org/

> <PUBCHEM_EXT_SUBSTANCE_URL>
https://www.surechembl.org/chemical/SCHEMBL16122667

> <PUBCHEM_CID_ASSOCIATIONS>
117610819  1

> <PUBCHEM_COORDINATE_TYPE>
1
3

$$$$
