310943715
  -OEChem-07211613022D

 27 29  0     1  0  0  0  0  0999 V2000
   -2.7701   -0.9562    0.0000 N   0  0  3  0  0  0  0  0  0  0  0  0
   -4.5419   -0.4218    0.0000 N   0  0  3  0  0  0  0  0  0  0  0  0
    1.5468   -1.7155    0.0000 N   0  0  0  0  0  0  0  0  0  0  0  0
    3.6560    1.1812    0.0000 N   0  0  0  0  0  0  0  0  0  0  0  0
    0.0703   -0.0843    0.0000 C   0  0  0  0  0  0  0  0  0  0  0  0
    0.0703   -0.9140    0.0000 C   0  0  0  0  0  0  0  0  0  0  0  0
    0.8015    0.3234    0.0000 C   0  0  0  0  0  0  0  0  0  0  0  0
   -1.3359   -0.9281    0.0000 C   0  0  0  0  0  0  0  0  0  0  0  0
   -0.6187   -1.3359    0.0000 C   0  0  0  0  0  0  0  0  0  0  0  0
   -0.6327    0.2812    0.0000 C   0  0  0  0  0  0  0  0  0  0  0  0
   -1.3359   -0.1125    0.0000 C   0  0  0  0  0  0  0  0  0  0  0  0
    1.5187   -0.0703    0.0000 C   0  0  0  0  0  0  0  0  0  0  0  0
    0.8015    1.1531    0.0000 C   0  0  0  0  0  0  0  0  0  0  0  0
   -2.0671   -1.3499    0.0000 C   0  0  0  0  0  0  0  0  0  0  0  0
    2.2076    1.1671    0.0000 C   0  0  0  0  0  0  0  0  0  0  0  0
    0.8156   -1.3218    0.0000 C   0  0  0  0  0  0  0  0  0  0  0  0
    2.2358    0.3375    0.0000 C   0  0  0  0  0  0  0  0  0  0  0  0
    1.5187    1.5468    0.0000 C   0  0  0  0  0  0  0  0  0  0  0  0
   -3.4451   -1.4202    0.0000 C   0  0  0  0  0  0  0  0  0  0  0  0
   -2.7280   -0.1266    0.0000 C   0  0  0  0  0  0  0  0  0  0  0  0
    2.9389    1.5889    0.0000 C   0  0  0  0  0  0  0  0  0  0  0  0
   -4.2607   -1.1812    0.0000 C   0  0  0  0  0  0  0  0  0  0  0  0
   -3.3045    0.3937    0.0000 C   0  0  0  0  0  0  0  0  0  0  0  0
   -4.1341    0.2953    0.0000 C   0  0  0  0  0  0  0  0  0  0  0  0
   -4.5419   -0.4218    0.0000 C   0  0  0  0  0  0  0  0  0  0  0  0
    3.6701    0.1266    0.0000 C   0  0  0  0  0  0  0  0  0  0  0  0
    4.5419    1.7155    0.0000 C   0  0  0  0  0  0  0  0  0  0  0  0
  1 14  1  0  0  0  0
  1 19  1  0  0  0  0
  1 20  1  0  0  0  0
  2 22  1  0  0  0  0
  2 24  1  0  0  0  0
  2 25  1  0  0  0  0
  3 16  3  0  0  0  0
  4 21  1  0  0  0  0
  4 26  1  0  0  0  0
  4 27  1  0  0  0  0
  5  6  1  0  0  0  0
  5  7  1  0  0  0  0
  5 10  2  0  0  0  0
  6  9  2  0  0  0  0
  6 16  1  0  0  0  0
  7 12  2  0  0  0  0
  7 13  1  0  0  0  0
  8  9  1  0  0  0  0
  8 11  2  0  0  0  0
  8 14  1  0  0  0  0
 10 11  1  0  0  0  0
 12 17  1  0  0  0  0
 13 18  2  0  0  0  0
 15 17  2  0  0  0  0
 15 18  1  0  0  0  0
 15 21  1  0  0  0  0
 19 22  1  0  0  0  0
 20 23  1  0  0  0  0
 23 24  1  0  0  0  0
M  END
> <PUBCHEM_COMPOUND_ID_TYPE>
0

> <PUBCHEM_TOTAL_CHARGE>
0

> <PUBCHEM_SUBSTANCE_ID>
310943715

> <PUBCHEM_SUBSTANCE_VERSION>
1

> <PUBCHEM_EXT_DATASOURCE_NAME>
4488

> <PUBCHEM_EXT_DATASOURCE_REGID>
SCHEMBL16121783

> <PUBCHEM_SUBSTANCE_COMMENT>
InChI=1S/C23H30N4/c1-25(2)17-19-5-8-21(9-6-19)23-10-7-20(15-22(23)16-24)18-27-12-4-11-26(3)13-14-27/h5-10,15H,4,11-14,17-18H2,1-3H3
InChIKey=ZIKVVISVLNFIQP-UHFFFAOYSA-N

> <PUBCHEM_SUBSTANCE_SYNONYM>
SCHEMBL16121783

> <PUBCHEM_XREF_EXT_ID>
SCHEMBL16121783

> <PUBCHEM_EXT_DATASOURCE_URL>
https://www.surechembl.org/

> <PUBCHEM_EXT_SUBSTANCE_URL>
https://www.surechembl.org/chemical/SCHEMBL16121783

> <PUBCHEM_CID_ASSOCIATIONS>
86301204  1

> <PUBCHEM_COORDINATE_TYPE>
1
3

$$$$
