310931942
  -OEChem-07211613022D

 13 11  0     1  0  0  0  0  0999 V2000
    0.0000   -1.4326    0.0000 Cl  0  0  0  0  0  0  0  0  0  0  0  0
    1.6577   -1.4326    0.0000 Cl  0  0  0  0  0  0  0  0  0  0  0  0
    5.4234   -1.6373    0.0000 N   0  0  0  0  0  0  0  0  0  0  0  0
    4.0112    0.0000    0.0000 N   0  0  0  0  0  0  0  0  0  0  0  0
    4.7275   -1.2279    0.0000 C   0  0  3  0  0  0  0  0  0  0  0  0
    4.7275   -0.3888    0.0000 C   0  0  0  0  0  0  0  0  0  0  0  0
    4.0112   -1.6373    0.0000 C   0  0  0  0  0  0  0  0  0  0  0  0
    5.4234   -2.4558    0.0000 C   0  0  0  0  0  0  0  0  0  0  0  0
    6.1396   -1.2279    0.0000 C   0  0  0  0  0  0  0  0  0  0  0  0
    3.2949   -1.2279    0.0000 C   0  0  0  0  0  0  0  0  0  0  0  0
    3.2949   -0.3888    0.0000 C   0  0  0  0  0  0  0  0  0  0  0  0
    6.1396   -2.8651    0.0000 C   0  0  0  0  0  0  0  0  0  0  0  0
    6.1396   -0.3888    0.0000 C   0  0  0  0  0  0  0  0  0  0  0  0
  3  5  1  0  0  0  0
  3  8  1  0  0  0  0
  3  9  1  0  0  0  0
  4  6  1  0  0  0  0
  4 11  1  0  0  0  0
  5  6  1  0  0  0  0
  5  7  1  0  0  0  0
  7 10  1  0  0  0  0
  8 12  1  0  0  0  0
  9 13  1  0  0  0  0
 10 11  1  0  0  0  0
M  END
> <PUBCHEM_COMPOUND_ID_TYPE>
0

> <PUBCHEM_TOTAL_CHARGE>
0

> <PUBCHEM_SUBSTANCE_ID>
310931942

> <PUBCHEM_SUBSTANCE_VERSION>
1

> <PUBCHEM_EXT_DATASOURCE_NAME>
4488

> <PUBCHEM_EXT_DATASOURCE_REGID>
SCHEMBL16109278

> <PUBCHEM_SUBSTANCE_COMMENT>
InChI=1S/C9H20N2.2ClH/c1-3-11(4-2)9-6-5-7-10-8-9;;/h9-10H,3-8H2,1-2H3;2*1H
InChIKey=DBBSMADIHVDOKJ-UHFFFAOYSA-N

> <PUBCHEM_SUBSTANCE_SYNONYM>
SCHEMBL16109278

> <PUBCHEM_XREF_EXT_ID>
SCHEMBL16109278

> <PUBCHEM_EXT_DATASOURCE_URL>
https://www.surechembl.org/

> <PUBCHEM_EXT_SUBSTANCE_URL>
https://www.surechembl.org/chemical/SCHEMBL16109278

> <PUBCHEM_CID_ASSOCIATIONS>
53410670  1
313  2
21512553  2

> <PUBCHEM_COORDINATE_TYPE>
1
3

$$$$
