310932287
  -OEChem-07211613022D

 20 21  0     1  0  0  0  0  0999 V2000
    2.7767   -1.6143    0.0000 O   0  0  0  0  0  0  0  0  0  0  0  0
    3.8744   -3.5838    0.0000 O   0  0  0  0  0  0  0  0  0  0  0  0
    4.6170   -2.3246    0.0000 O   0  0  0  0  0  0  0  0  0  0  0  0
    2.3570   -2.3246    0.0000 C   0  0  3  0  0  0  0  0  0  0  0  0
    3.1641   -2.3246    0.0000 C   0  0  3  0  0  0  0  0  0  0  0  0
    1.7758   -1.7435    0.0000 C   0  0  0  0  0  0  0  0  0  0  0  0
    3.8744   -2.7443    0.0000 C   0  0  0  0  0  0  0  0  0  0  0  0
    1.6466   -2.7443    0.0000 C   0  0  0  0  0  0  0  0  0  0  0  0
    0.9686   -1.9695    0.0000 C   0  0  0  0  0  0  0  0  0  0  0  0
    1.9695   -0.9686    0.0000 C   0  0  0  0  0  0  0  0  0  0  0  0
    0.3874   -1.3883    0.0000 C   0  0  0  0  0  0  0  0  0  0  0  0
    1.3883   -0.3874    0.0000 C   0  0  0  0  0  0  0  0  0  0  0  0
    1.6466   -3.5838    0.0000 C   0  0  0  0  0  0  0  0  0  0  0  0
    0.5812   -0.5812    0.0000 C   0  0  0  0  0  0  0  0  0  0  0  0
    4.6170   -4.0035    0.0000 C   0  0  0  0  0  0  0  0  0  0  0  0
    0.0000    0.0000    0.0000 C   0  0  0  0  0  0  0  0  0  0  0  0
    4.6170   -4.8107    0.0000 C   0  0  0  0  0  0  0  0  0  0  0  0
    5.3273   -5.2304    0.0000 C   0  0  0  0  0  0  0  0  0  0  0  0
    5.3273   -6.0376    0.0000 C   0  0  0  0  0  0  0  0  0  0  0  0
    6.0376   -6.4574    0.0000 C   0  0  0  0  0  0  0  0  0  0  0  0
  1  4  1  0  0  0  0
  1  5  1  0  0  0  0
  2  7  1  0  0  0  0
  2 15  1  0  0  0  0
  3  7  2  0  0  0  0
  4  5  1  0  0  0  0
  4  6  1  0  0  0  0
  4  8  1  0  0  0  0
  5  7  1  0  0  0  0
  6  9  2  0  0  0  0
  6 10  1  0  0  0  0
  8 13  1  0  0  0  0
  9 11  1  0  0  0  0
 10 12  2  0  0  0  0
 11 14  2  0  0  0  0
 12 14  1  0  0  0  0
 14 16  1  0  0  0  0
 15 17  1  0  0  0  0
 17 18  1  0  0  0  0
 18 19  1  0  0  0  0
 19 20  1  0  0  0  0
M  END
> <PUBCHEM_COMPOUND_ID_TYPE>
0

> <PUBCHEM_TOTAL_CHARGE>
0

> <PUBCHEM_SUBSTANCE_ID>
310932287

> <PUBCHEM_SUBSTANCE_VERSION>
1

> <PUBCHEM_EXT_DATASOURCE_NAME>
4488

> <PUBCHEM_EXT_DATASOURCE_REGID>
SCHEMBL16109650

> <PUBCHEM_SUBSTANCE_COMMENT>
InChI=1S/C17H24O3/c1-4-6-7-12-19-16(18)15-17(5-2,20-15)14-10-8-13(3)9-11-14/h8-11,15H,4-7,12H2,1-3H3
InChIKey=LBTBZOVCSFBTOE-UHFFFAOYSA-N

> <PUBCHEM_SUBSTANCE_SYNONYM>
SCHEMBL16109650

> <PUBCHEM_XREF_EXT_ID>
SCHEMBL16109650

> <PUBCHEM_EXT_DATASOURCE_URL>
https://www.surechembl.org/

> <PUBCHEM_EXT_SUBSTANCE_URL>
https://www.surechembl.org/chemical/SCHEMBL16109650

> <PUBCHEM_CID_ASSOCIATIONS>
117600849  1

> <PUBCHEM_COORDINATE_TYPE>
1
3

$$$$
