310948970
  -OEChem-07211613022D

 15 17  0     1  0  0  0  0  0999 V2000
    1.3298   -0.3246    0.0000 N   0  0  0  0  0  0  0  0  0  0  0  0
    0.0943    0.4083    0.0000 N   0  0  0  0  0  0  0  0  0  0  0  0
   -1.9581   -0.1361    0.0000 N   0  0  0  0  0  0  0  0  0  0  0  0
    2.6491    0.0943    0.0000 N   0  0  0  0  0  0  0  0  0  0  0  0
   -0.7225    0.4293    0.0000 C   0  0  3  0  0  0  0  0  0  0  0  0
   -1.1413   -0.3246    0.0000 C   0  0  3  0  0  0  0  0  0  0  0  0
    0.4922   -0.3246    0.0000 C   0  0  0  0  0  0  0  0  0  0  0  0
   -1.2879    1.0366    0.0000 C   0  0  0  0  0  0  0  0  0  0  0  0
   -0.7435   -1.0156    0.0000 C   0  0  0  0  0  0  0  0  0  0  0  0
    0.0523   -1.0366    0.0000 C   0  0  0  0  0  0  0  0  0  0  0  0
   -2.0418    0.7016    0.0000 C   0  0  0  0  0  0  0  0  0  0  0  0
    1.8324    0.3665    0.0000 C   0  0  0  0  0  0  0  0  0  0  0  0
    1.8534   -0.9948    0.0000 C   0  0  0  0  0  0  0  0  0  0  0  0
    2.6073   -0.7435    0.0000 C   0  0  0  0  0  0  0  0  0  0  0  0
   -2.6491    1.0366    0.0000 C   0  0  0  0  0  0  0  0  0  0  0  0
  1  7  1  0  0  0  0
  1 12  1  0  0  0  0
  1 13  1  0  0  0  0
  2  5  1  0  0  0  0
  2  7  2  0  0  0  0
  3  6  1  0  0  0  0
  3 11  1  0  0  0  0
  4 12  2  0  0  0  0
  4 14  1  0  0  0  0
  5  6  1  0  0  0  0
  5  8  1  0  0  0  0
  6  9  1  0  0  0  0
  7 10  1  0  0  0  0
  8 11  2  0  0  0  0
  9 10  2  0  0  0  0
 11 15  1  0  0  0  0
 13 14  2  0  0  0  0
M  END
> <PUBCHEM_COMPOUND_ID_TYPE>
0

> <PUBCHEM_TOTAL_CHARGE>
0

> <PUBCHEM_SUBSTANCE_ID>
310948970

> <PUBCHEM_SUBSTANCE_VERSION>
1

> <PUBCHEM_EXT_DATASOURCE_NAME>
4488

> <PUBCHEM_EXT_DATASOURCE_REGID>
SCHEMBL16127158

> <PUBCHEM_SUBSTANCE_COMMENT>
InChI=1S/C11H12N4/c1-8-6-10-9(13-8)2-3-11(14-10)15-5-4-12-7-15/h2-7,9-10,13H,1H3
InChIKey=WGKNVVLWZUAKLZ-UHFFFAOYSA-N

> <PUBCHEM_SUBSTANCE_SYNONYM>
SCHEMBL16127158

> <PUBCHEM_XREF_EXT_ID>
SCHEMBL16127158

> <PUBCHEM_EXT_DATASOURCE_URL>
https://www.surechembl.org/

> <PUBCHEM_EXT_SUBSTANCE_URL>
https://www.surechembl.org/chemical/SCHEMBL16127158

> <PUBCHEM_CID_ASSOCIATIONS>
117614479  1

> <PUBCHEM_COORDINATE_TYPE>
1
3

$$$$
