310939022
  -OEChem-07211613022D

 17 19  0     1  0  0  0  0  0999 V2000
    1.9445   -1.5870    0.0000 I   0  0  0  0  0  0  0  0  0  0  0  0
   -1.2490   -1.5968    0.0000 O   0  0  0  0  0  0  0  0  0  0  0  0
   -1.2490   -0.1567    0.0000 N   0  0  3  0  0  0  0  0  0  0  0  0
   -0.0049   -0.8817    0.0000 C   0  0  3  0  0  0  0  0  0  0  0  0
   -0.4163   -1.6164    0.0000 C   0  0  3  0  0  0  0  0  0  0  0  0
   -0.4065   -0.1764    0.0000 C   0  0  0  0  0  0  0  0  0  0  0  0
   -1.2294    0.6955    0.0000 C   0  0  0  0  0  0  0  0  0  0  0  0
    0.8376   -0.9013    0.0000 C   0  0  0  0  0  0  0  0  0  0  0  0
   -1.6605   -0.9111    0.0000 C   0  0  0  0  0  0  0  0  0  0  0  0
   -0.0049   -2.3315    0.0000 C   0  0  0  0  0  0  0  0  0  0  0  0
    1.2392   -1.5968    0.0000 C   0  0  3  0  0  0  0  0  0  0  0  0
    0.8376   -2.3217    0.0000 C   0  0  0  0  0  0  0  0  0  0  0  0
   -1.9445    1.0873    0.0000 C   0  0  0  0  0  0  0  0  0  0  0  0
   -0.5241    1.1069    0.0000 C   0  0  0  0  0  0  0  0  0  0  0  0
   -1.9445    1.9495    0.0000 C   0  0  0  0  0  0  0  0  0  0  0  0
   -0.5339    1.9397    0.0000 C   0  0  0  0  0  0  0  0  0  0  0  0
   -1.2294    2.3315    0.0000 C   0  0  0  0  0  0  0  0  0  0  0  0
  1 11  1  0  0  0  0
  2  5  1  0  0  0  0
  2  9  1  0  0  0  0
  3  6  1  0  0  0  0
  3  7  1  0  0  0  0
  3  9  1  0  0  0  0
  4  5  1  0  0  0  0
  4  6  1  0  0  0  0
  4  8  1  0  0  0  0
  5 10  1  0  0  0  0
  7 13  1  0  0  0  0
  7 14  1  0  0  0  0
  8 11  1  0  0  0  0
 10 12  1  0  0  0  0
 11 12  1  0  0  0  0
 13 15  1  0  0  0  0
 14 16  1  0  0  0  0
 15 17  1  0  0  0  0
 16 17  1  0  0  0  0
M  END
> <PUBCHEM_COMPOUND_ID_TYPE>
0

> <PUBCHEM_TOTAL_CHARGE>
0

> <PUBCHEM_SUBSTANCE_ID>
310939022

> <PUBCHEM_SUBSTANCE_VERSION>
1

> <PUBCHEM_EXT_DATASOURCE_NAME>
4488

> <PUBCHEM_EXT_DATASOURCE_REGID>
SCHEMBL16116941

> <PUBCHEM_SUBSTANCE_COMMENT>
InChI=1S/C14H24INO/c15-12-6-7-14-11(8-12)9-16(10-17-14)13-4-2-1-3-5-13/h11-14H,1-10H2
InChIKey=JTYQLFYXZZZDQR-UHFFFAOYSA-N

> <PUBCHEM_SUBSTANCE_SYNONYM>
SCHEMBL16116941

> <PUBCHEM_XREF_EXT_ID>
SCHEMBL16116941

> <PUBCHEM_EXT_DATASOURCE_URL>
https://www.surechembl.org/

> <PUBCHEM_EXT_SUBSTANCE_URL>
https://www.surechembl.org/chemical/SCHEMBL16116941

> <PUBCHEM_CID_ASSOCIATIONS>
117606401  1

> <PUBCHEM_COORDINATE_TYPE>
1
3

$$$$
