310937318
  -OEChem-07211613022D

 39 43  0     1  0  0  0  0  0999 V2000
    4.3421   -5.3408    0.0000 O   0  0  0  0  0  0  0  0  0  0  0  0
    7.2513   -5.3842    0.0000 O   0  0  0  0  0  0  0  0  0  0  0  0
    6.6000   -2.6053    0.0000 N   0  0  3  0  0  0  0  0  0  0  0  0
    5.7750   -5.3408    0.0000 N   0  0  0  0  0  0  0  0  0  0  0  0
    2.2145   -2.4750    0.0000 N   0  0  0  0  0  0  0  0  0  0  0  0
    1.4329   -1.2592    0.0000 N   0  0  0  0  0  0  0  0  0  0  0  0
    7.9460   -6.6000    0.0000 N   0  0  0  0  0  0  0  0  0  0  0  0
    0.0000   -0.4342    0.0000 N   0  0  0  0  0  0  0  0  0  0  0  0
    5.7750   -3.6908    0.0000 C   0  0  0  0  0  0  0  0  0  0  0  0
    5.7750   -2.8658    0.0000 C   0  0  0  0  0  0  0  0  0  0  0  0
    5.0802   -4.1250    0.0000 C   0  0  0  0  0  0  0  0  0  0  0  0
    4.3421   -2.8658    0.0000 C   0  0  0  0  0  0  0  0  0  0  0  0
    5.0802   -2.4750    0.0000 C   0  0  0  0  0  0  0  0  0  0  0  0
    4.3421   -3.6908    0.0000 C   0  0  0  0  0  0  0  0  0  0  0  0
    6.6000   -3.9513    0.0000 C   0  0  0  0  0  0  0  0  0  0  0  0
    5.0802   -4.9500    0.0000 C   0  0  0  0  0  0  0  0  0  0  0  0
    7.0776   -3.3000    0.0000 C   0  0  0  0  0  0  0  0  0  0  0  0
    3.6474   -2.4750    0.0000 C   0  0  0  0  0  0  0  0  0  0  0  0
    6.8171   -1.8236    0.0000 C   0  0  0  0  0  0  0  0  0  0  0  0
    6.5131   -6.6000    0.0000 C   0  0  0  0  0  0  0  0  0  0  0  0
    2.9092   -2.8658    0.0000 C   0  0  0  0  0  0  0  0  0  0  0  0
    3.6039   -1.6500    0.0000 C   0  0  0  0  0  0  0  0  0  0  0  0
    6.5131   -7.4250    0.0000 C   0  0  0  0  0  0  0  0  0  0  0  0
    5.7750   -6.2092    0.0000 C   0  0  0  0  0  0  0  0  0  0  0  0
    2.1711   -1.6500    0.0000 C   0  0  0  0  0  0  0  0  0  0  0  0
    7.2513   -6.2092    0.0000 C   0  0  0  0  0  0  0  0  0  0  0  0
    2.9092   -1.2592    0.0000 C   0  0  0  0  0  0  0  0  0  0  0  0
    7.2079   -7.8592    0.0000 C   0  0  0  0  0  0  0  0  0  0  0  0
    7.9460   -7.4684    0.0000 C   0  0  0  0  0  0  0  0  0  0  0  0
    5.8184   -7.8592    0.0000 C   0  0  0  0  0  0  0  0  0  0  0  0
    6.2960   -1.2158    0.0000 C   0  0  0  0  0  0  0  0  0  0  0  0
    7.6421   -1.6500    0.0000 C   0  0  0  0  0  0  0  0  0  0  0  0
    1.4329   -0.4342    0.0000 C   0  0  0  0  0  0  0  0  0  0  0  0
    0.7381   -1.6500    0.0000 C   0  0  0  0  0  0  0  0  0  0  0  0
    8.6842   -7.8592    0.0000 C   0  0  0  0  0  0  0  0  0  0  0  0
    5.8184   -8.6842    0.0000 C   0  0  0  0  0  0  0  0  0  0  0  0
    5.0802   -7.4684    0.0000 C   0  0  0  0  0  0  0  0  0  0  0  0
    0.0000   -1.2592    0.0000 C   0  0  0  0  0  0  0  0  0  0  0  0
    0.7381    0.0000    0.0000 C   0  0  0  0  0  0  0  0  0  0  0  0
  1 16  2  0  0  0  0
  2 26  2  0  0  0  0
  3 10  1  0  0  0  0
  3 17  1  0  0  0  0
  3 19  1  0  0  0  0
  4 16  1  0  0  0  0
  4 24  1  0  0  0  0
  5 21  1  0  0  0  0
  5 25  2  0  0  0  0
  6 25  1  0  0  0  0
  6 33  1  0  0  0  0
  6 34  1  0  0  0  0
  7 26  1  0  0  0  0
  7 29  1  0  0  0  0
  8 38  1  0  0  0  0
  8 39  1  0  0  0  0
  9 10  2  0  0  0  0
  9 11  1  0  0  0  0
  9 15  1  0  0  0  0
 10 13  1  0  0  0  0
 11 14  2  0  0  0  0
 11 16  1  0  0  0  0
 12 13  2  0  0  0  0
 12 14  1  0  0  0  0
 12 18  1  0  0  0  0
 15 17  1  0  0  0  0
 18 21  2  0  0  0  0
 18 22  1  0  0  0  0
 19 31  1  0  0  0  0
 19 32  1  0  0  0  0
 20 23  2  0  0  0  0
 20 24  1  0  0  0  0
 20 26  1  0  0  0  0
 22 27  2  0  0  0  0
 23 28  1  0  0  0  0
 23 30  1  0  0  0  0
 25 27  1  0  0  0  0
 28 29  2  0  0  0  0
 29 35  1  0  0  0  0
 30 36  1  0  0  0  0
 30 37  1  0  0  0  0
 33 39  1  0  0  0  0
 34 38  1  0  0  0  0
M  END
> <PUBCHEM_COMPOUND_ID_TYPE>
0

> <PUBCHEM_TOTAL_CHARGE>
0

> <PUBCHEM_SUBSTANCE_ID>
310937318

> <PUBCHEM_SUBSTANCE_VERSION>
1

> <PUBCHEM_EXT_DATASOURCE_NAME>
4488

> <PUBCHEM_EXT_DATASOURCE_REGID>
SCHEMBL16115066

> <PUBCHEM_SUBSTANCE_COMMENT>
InChI=1S/C31H40N6O2/c1-19(2)25-14-21(5)35-31(39)27(25)18-34-30(38)26-15-23(16-28-24(26)8-11-37(28)20(3)4)22-6-7-29(33-17-22)36-12-9-32-10-13-36/h6-7,14-17,19-20,32H,8-13,18H2,1-5H3,(H,34,38)(H,35,39)
InChIKey=JYKWDWFMPDOAAD-UHFFFAOYSA-N

> <PUBCHEM_SUBSTANCE_SYNONYM>
SCHEMBL16115066

> <PUBCHEM_XREF_EXT_ID>
SCHEMBL16115066

> <PUBCHEM_EXT_DATASOURCE_URL>
https://www.surechembl.org/

> <PUBCHEM_EXT_SUBSTANCE_URL>
https://www.surechembl.org/chemical/SCHEMBL16115066

> <PUBCHEM_CID_ASSOCIATIONS>
86273876  1

> <PUBCHEM_COORDINATE_TYPE>
1
3

$$$$
