310941773
  -OEChem-07211613022D

 27 31  0     1  0  0  0  0  0999 V2000
   -3.6526    1.6790    0.0000 O   0  0  0  0  0  0  0  0  0  0  0  0
    0.6481   -0.0687    0.0000 O   0  0  0  0  0  0  0  0  0  0  0  0
    2.0817   -2.5431    0.0000 O   0  0  0  0  0  0  0  0  0  0  0  0
    2.7885   -1.3059    0.0000 O   0  0  0  0  0  0  0  0  0  0  0  0
    2.0817   -0.0687    0.0000 O   0  0  0  0  0  0  0  0  0  0  0  0
   -1.5710    1.1292    0.0000 N   0  0  3  0  0  0  0  0  0  0  0  0
   -0.8248    2.3664    0.0000 N   0  0  0  0  0  0  0  0  0  0  0  0
   -2.6904    1.4827    0.0000 C   0  0  3  0  0  0  0  0  0  0  0  0
   -3.0635    0.9328    0.0000 C   0  0  0  0  0  0  0  0  0  0  0  0
   -2.0620    1.8361    0.0000 C   0  0  0  0  0  0  0  0  0  0  0  0
   -0.8445    1.5808    0.0000 C   0  0  0  0  0  0  0  0  0  0  0  0
   -0.1178    1.1685    0.0000 C   0  0  0  0  0  0  0  0  0  0  0  0
   -3.1420    0.2651    0.0000 C   0  0  0  0  0  0  0  0  0  0  0  0
    1.3746   -1.2666    0.0000 C   0  0  0  0  0  0  0  0  0  0  0  0
   -0.1178    0.4222    0.0000 C   0  0  0  0  0  0  0  0  0  0  0  0
    0.5891    1.5612    0.0000 C   0  0  0  0  0  0  0  0  0  0  0  0
    0.6481   -0.8543    0.0000 C   0  0  0  0  0  0  0  0  0  0  0  0
    1.3550   -2.0915    0.0000 C   0  0  0  0  0  0  0  0  0  0  0  0
    2.0817   -0.8739    0.0000 C   0  0  0  0  0  0  0  0  0  0  0  0
    2.8082   -2.1111    0.0000 C   0  0  0  0  0  0  0  0  0  0  0  0
   -0.1178    2.8180    0.0000 C   0  0  0  0  0  0  0  0  0  0  0  0
    0.6087    2.3860    0.0000 C   0  0  0  0  0  0  0  0  0  0  0  0
    0.6677   -2.5038    0.0000 C   0  0  0  0  0  0  0  0  0  0  0  0
   -0.0392   -1.2863    0.0000 C   0  0  0  0  0  0  0  0  0  0  0  0
   -0.0589   -2.1111    0.0000 C   0  0  0  0  0  0  0  0  0  0  0  0
    3.2403   -2.8180    0.0000 C   0  0  0  0  0  0  0  0  0  0  0  0
    3.6526   -2.0915    0.0000 C   0  0  0  0  0  0  0  0  0  0  0  0
  1  8  1  0  0  0  0
  1  9  1  0  0  0  0
  2 15  1  0  0  0  0
  2 17  1  0  0  0  0
  3 18  1  0  0  0  0
  3 20  1  0  0  0  0
  4 19  1  0  0  0  0
  4 20  1  0  0  0  0
  5 19  2  0  0  0  0
  6  8  1  0  0  0  0
  6 10  1  0  0  0  0
  6 11  1  0  0  0  0
  7 11  1  0  0  0  0
  7 21  2  0  0  0  0
  8  9  1  0  0  0  0
  8 10  1  0  0  0  0
  9 13  2  0  0  0  0
 11 12  2  0  0  0  0
 12 15  1  0  0  0  0
 12 16  1  0  0  0  0
 14 17  2  0  0  0  0
 14 18  1  0  0  0  0
 14 19  1  0  0  0  0
 16 22  2  0  0  0  0
 17 24  1  0  0  0  0
 18 23  2  0  0  0  0
 20 26  1  0  0  0  0
 20 27  1  0  0  0  0
 21 22  1  0  0  0  0
 23 25  1  0  0  0  0
 24 25  2  0  0  0  0
M  END
> <PUBCHEM_COMPOUND_ID_TYPE>
0

> <PUBCHEM_TOTAL_CHARGE>
0

> <PUBCHEM_SUBSTANCE_ID>
310941773

> <PUBCHEM_SUBSTANCE_VERSION>
1

> <PUBCHEM_EXT_DATASOURCE_NAME>
4488

> <PUBCHEM_EXT_DATASOURCE_REGID>
SCHEMBL16119804

> <PUBCHEM_SUBSTANCE_COMMENT>
InChI=1S/C20H18N2O5/c1-12-20(25-12)11-22(20)17-13(6-5-9-21-17)10-24-14-7-4-8-15-16(14)18(23)27-19(2,3)26-15/h4-9H,1,10-11H2,2-3H3
InChIKey=LXMCTSXEOYLCLQ-UHFFFAOYSA-N

> <PUBCHEM_SUBSTANCE_SYNONYM>
SCHEMBL16119804

> <PUBCHEM_XREF_EXT_ID>
SCHEMBL16119804

> <PUBCHEM_EXT_DATASOURCE_URL>
https://www.surechembl.org/

> <PUBCHEM_EXT_SUBSTANCE_URL>
https://www.surechembl.org/chemical/SCHEMBL16119804

> <PUBCHEM_CID_ASSOCIATIONS>
117608526  1

> <PUBCHEM_COORDINATE_TYPE>
1
3

> <PUBCHEM_BONDANNOTATIONS>
8  9  3

$$$$
