310938844
  -OEChem-07211613022D

 78 93  0     1  0  0  0  0  0999 V2000
    0.0000    0.8755    0.0000 N   0  0  0  0  0  0  0  0  0  0  0  0
   -2.9069   -3.4610    0.0000 N   0  0  0  0  0  0  0  0  0  0  0  0
    2.9069   -3.4610    0.0000 N   0  0  0  0  0  0  0  0  0  0  0  0
   -2.3549   -1.4190    0.0000 C   0  0  3  0  0  0  0  0  0  0  0  0
    2.3549   -1.4190    0.0000 C   0  0  3  0  0  0  0  0  0  0  0  0
   -2.9069   -2.0321    0.0000 C   0  0  0  0  0  0  0  0  0  0  0  0
    2.9069   -2.0321    0.0000 C   0  0  0  0  0  0  0  0  0  0  0  0
   -1.6012   -1.7545    0.0000 C   0  0  0  0  0  0  0  0  0  0  0  0
    1.6012   -1.7545    0.0000 C   0  0  0  0  0  0  0  0  0  0  0  0
   -2.4944   -2.7465    0.0000 C   0  0  0  0  0  0  0  0  0  0  0  0
    2.4944   -2.7465    0.0000 C   0  0  0  0  0  0  0  0  0  0  0  0
    1.7715   -0.8356    0.0000 C   0  0  0  0  0  0  0  0  0  0  0  0
   -1.7715   -0.8356    0.0000 C   0  0  0  0  0  0  0  0  0  0  0  0
   -1.6874   -2.5750    0.0000 C   0  0  0  0  0  0  0  0  0  0  0  0
    1.6874   -2.5750    0.0000 C   0  0  0  0  0  0  0  0  0  0  0  0
   -3.7319   -2.0321    0.0000 C   0  0  0  0  0  0  0  0  0  0  0  0
    3.7319   -2.0321    0.0000 C   0  0  0  0  0  0  0  0  0  0  0  0
   -2.7674   -0.7045    0.0000 C   0  0  0  0  0  0  0  0  0  0  0  0
    2.7674   -0.7045    0.0000 C   0  0  0  0  0  0  0  0  0  0  0  0
   -0.4125   -0.3941    0.0000 C   0  0  0  0  0  0  0  0  0  0  0  0
    0.4125   -0.3941    0.0000 C   0  0  0  0  0  0  0  0  0  0  0  0
   -0.6674    0.3906    0.0000 C   0  0  0  0  0  0  0  0  0  0  0  0
    0.6674    0.3906    0.0000 C   0  0  0  0  0  0  0  0  0  0  0  0
    0.9645   -1.0071    0.0000 C   0  0  0  0  0  0  0  0  0  0  0  0
   -0.9645   -1.0071    0.0000 C   0  0  0  0  0  0  0  0  0  0  0  0
   -4.1444   -2.7465    0.0000 C   0  0  0  0  0  0  0  0  0  0  0  0
    4.1444   -2.7465    0.0000 C   0  0  0  0  0  0  0  0  0  0  0  0
    2.0264   -0.0510    0.0000 C   0  0  0  0  0  0  0  0  0  0  0  0
   -2.0264   -0.0510    0.0000 C   0  0  0  0  0  0  0  0  0  0  0  0
   -3.7319   -3.4610    0.0000 C   0  0  0  0  0  0  0  0  0  0  0  0
    3.7319   -3.4610    0.0000 C   0  0  0  0  0  0  0  0  0  0  0  0
   -0.8475   -1.4190    0.0000 C   0  0  0  0  0  0  0  0  0  0  0  0
    0.8475   -1.4190    0.0000 C   0  0  0  0  0  0  0  0  0  0  0  0
   -4.3153   -1.4487    0.0000 C   0  0  0  0  0  0  0  0  0  0  0  0
    4.3153   -1.4487    0.0000 C   0  0  0  0  0  0  0  0  0  0  0  0
    1.4744    0.5621    0.0000 C   0  0  0  0  0  0  0  0  0  0  0  0
   -1.4744    0.5621    0.0000 C   0  0  0  0  0  0  0  0  0  0  0  0
   -1.0200   -3.0599    0.0000 C   0  0  0  0  0  0  0  0  0  0  0  0
    1.0200   -3.0599    0.0000 C   0  0  0  0  0  0  0  0  0  0  0  0
   -2.3549    0.0100    0.0000 C   0  0  0  0  0  0  0  0  0  0  0  0
    2.3549    0.0100    0.0000 C   0  0  0  0  0  0  0  0  0  0  0  0
   -3.5924   -0.7045    0.0000 C   0  0  0  0  0  0  0  0  0  0  0  0
    3.5924   -0.7045    0.0000 C   0  0  0  0  0  0  0  0  0  0  0  0
    0.0000    1.7005    0.0000 C   0  0  0  0  0  0  0  0  0  0  0  0
   -0.1801   -1.9039    0.0000 C   0  0  0  0  0  0  0  0  0  0  0  0
    0.1801   -1.9039    0.0000 C   0  0  0  0  0  0  0  0  0  0  0  0
   -4.9694   -2.7465    0.0000 C   0  0  0  0  0  0  0  0  0  0  0  0
    4.9694   -2.7465    0.0000 C   0  0  0  0  0  0  0  0  0  0  0  0
   -0.2663   -2.7244    0.0000 C   0  0  0  0  0  0  0  0  0  0  0  0
    0.2663   -2.7244    0.0000 C   0  0  0  0  0  0  0  0  0  0  0  0
   -4.1444   -4.1755    0.0000 C   0  0  0  0  0  0  0  0  0  0  0  0
    4.1444   -4.1755    0.0000 C   0  0  0  0  0  0  0  0  0  0  0  0
   -5.1122   -1.6622    0.0000 C   0  0  0  0  0  0  0  0  0  0  0  0
    5.1122   -1.6622    0.0000 C   0  0  0  0  0  0  0  0  0  0  0  0
   -4.1017   -0.6518    0.0000 C   0  0  0  0  0  0  0  0  0  0  0  0
    4.1017   -0.6518    0.0000 C   0  0  0  0  0  0  0  0  0  0  0  0
   -2.7674    0.7244    0.0000 C   0  0  0  0  0  0  0  0  0  0  0  0
    2.7674    0.7244    0.0000 C   0  0  0  0  0  0  0  0  0  0  0  0
   -4.0049    0.0100    0.0000 C   0  0  0  0  0  0  0  0  0  0  0  0
    4.0049    0.0100    0.0000 C   0  0  0  0  0  0  0  0  0  0  0  0
   -5.3819   -3.4610    0.0000 C   0  0  0  0  0  0  0  0  0  0  0  0
    5.3819   -3.4610    0.0000 C   0  0  0  0  0  0  0  0  0  0  0  0
   -0.7145    2.1130    0.0000 C   0  0  0  0  0  0  0  0  0  0  0  0
    0.7145    2.1130    0.0000 C   0  0  0  0  0  0  0  0  0  0  0  0
   -4.9694   -4.1755    0.0000 C   0  0  0  0  0  0  0  0  0  0  0  0
    4.9694   -4.1755    0.0000 C   0  0  0  0  0  0  0  0  0  0  0  0
   -3.5924    0.7244    0.0000 C   0  0  0  0  0  0  0  0  0  0  0  0
    3.5924    0.7244    0.0000 C   0  0  0  0  0  0  0  0  0  0  0  0
   -5.6955   -1.0789    0.0000 C   0  0  0  0  0  0  0  0  0  0  0  0
    5.6955   -1.0789    0.0000 C   0  0  0  0  0  0  0  0  0  0  0  0
   -4.6851   -0.0685    0.0000 C   0  0  0  0  0  0  0  0  0  0  0  0
    4.6851   -0.0685    0.0000 C   0  0  0  0  0  0  0  0  0  0  0  0
   -0.7145    2.9380    0.0000 C   0  0  0  0  0  0  0  0  0  0  0  0
    0.7145    2.9380    0.0000 C   0  0  0  0  0  0  0  0  0  0  0  0
   -5.4820   -0.2820    0.0000 C   0  0  0  0  0  0  0  0  0  0  0  0
    5.4820   -0.2820    0.0000 C   0  0  0  0  0  0  0  0  0  0  0  0
    0.0000    3.3505    0.0000 C   0  0  0  0  0  0  0  0  0  0  0  0
    0.0000    4.1755    0.0000 C   0  0  0  0  0  0  0  0  0  0  0  0
  1 22  1  0  0  0  0
  1 23  1  0  0  0  0
  1 44  1  0  0  0  0
  2 10  1  0  0  0  0
  2 30  2  0  0  0  0
  3 11  1  0  0  0  0
  3 31  2  0  0  0  0
  4  6  1  0  0  0  0
  4  8  1  0  0  0  0
  4 13  1  0  0  0  0
  4 18  1  0  0  0  0
  5  7  1  0  0  0  0
  5  9  1  0  0  0  0
  5 12  1  0  0  0  0
  5 19  1  0  0  0  0
  6 10  2  0  0  0  0
  6 16  1  0  0  0  0
  7 11  2  0  0  0  0
  7 17  1  0  0  0  0
  8 14  2  0  0  0  0
  8 32  1  0  0  0  0
  9 15  2  0  0  0  0
  9 33  1  0  0  0  0
 10 14  1  0  0  0  0
 11 15  1  0  0  0  0
 12 24  2  0  0  0  0
 12 28  1  0  0  0  0
 13 25  2  0  0  0  0
 13 29  1  0  0  0  0
 14 38  1  0  0  0  0
 15 39  1  0  0  0  0
 16 26  2  0  0  0  0
 16 34  1  0  0  0  0
 17 27  2  0  0  0  0
 17 35  1  0  0  0  0
 18 40  2  0  0  0  0
 18 42  1  0  0  0  0
 19 41  2  0  0  0  0
 19 43  1  0  0  0  0
 20 21  1  0  0  0  0
 20 22  2  0  0  0  0
 20 25  1  0  0  0  0
 21 23  2  0  0  0  0
 21 24  1  0  0  0  0
 22 37  1  0  0  0  0
 23 36  1  0  0  0  0
 26 30  1  0  0  0  0
 26 47  1  0  0  0  0
 27 31  1  0  0  0  0
 27 48  1  0  0  0  0
 28 36  2  0  0  0  0
 29 37  2  0  0  0  0
 30 51  1  0  0  0  0
 31 52  1  0  0  0  0
 32 45  2  0  0  0  0
 33 46  2  0  0  0  0
 34 53  2  0  0  0  0
 34 55  1  0  0  0  0
 35 54  2  0  0  0  0
 35 56  1  0  0  0  0
 38 49  2  0  0  0  0
 39 50  2  0  0  0  0
 40 57  1  0  0  0  0
 41 58  1  0  0  0  0
 42 59  2  0  0  0  0
 43 60  2  0  0  0  0
 44 63  2  0  0  0  0
 44 64  1  0  0  0  0
 45 49  1  0  0  0  0
 46 50  1  0  0  0  0
 47 61  2  0  0  0  0
 48 62  2  0  0  0  0
 51 65  2  0  0  0  0
 52 66  2  0  0  0  0
 53 69  1  0  0  0  0
 54 70  1  0  0  0  0
 55 71  2  0  0  0  0
 56 72  2  0  0  0  0
 57 67  2  0  0  0  0
 58 68  2  0  0  0  0
 59 67  1  0  0  0  0
 60 68  1  0  0  0  0
 61 65  1  0  0  0  0
 62 66  1  0  0  0  0
 63 73  1  0  0  0  0
 64 74  2  0  0  0  0
 69 75  2  0  0  0  0
 70 76  2  0  0  0  0
 71 75  1  0  0  0  0
 72 76  1  0  0  0  0
 73 77  2  0  0  0  0
 74 77  1  0  0  0  0
 77 78  1  0  0  0  0
M  END
> <PUBCHEM_COMPOUND_ID_TYPE>
0

> <PUBCHEM_TOTAL_CHARGE>
0

> <PUBCHEM_SUBSTANCE_ID>
310938844

> <PUBCHEM_SUBSTANCE_VERSION>
1

> <PUBCHEM_EXT_DATASOURCE_NAME>
4488

> <PUBCHEM_EXT_DATASOURCE_REGID>
SCHEMBL16116763

> <PUBCHEM_SUBSTANCE_COMMENT>
InChI=1S/C75H49N3/c1-48-38-42-55(43-39-48)78-66-44-40-53(74(51-26-10-4-11-27-51)62-34-18-14-30-56(62)72-70(74)68(49-22-6-2-7-23-49)58-32-16-20-36-64(58)76-72)46-60(66)61-47-54(41-45-67(61)78)75(52-28-12-5-13-29-52)63-35-19-15-31-57(63)73-71(75)69(50-24-8-3-9-25-50)59-33-17-21-37-65(59)77-73/h2-47H,1H3
InChIKey=SKLBQMGDGGWOJU-UHFFFAOYSA-N

> <PUBCHEM_SUBSTANCE_SYNONYM>
SCHEMBL16116763

> <PUBCHEM_XREF_EXT_ID>
SCHEMBL16116763

> <PUBCHEM_EXT_DATASOURCE_URL>
https://www.surechembl.org/

> <PUBCHEM_EXT_SUBSTANCE_URL>
https://www.surechembl.org/chemical/SCHEMBL16116763

> <PUBCHEM_CID_ASSOCIATIONS>
117606244  1

> <PUBCHEM_COORDINATE_TYPE>
1
3

$$$$
