310934617
  -OEChem-07211613022D

 14 13  0     1  0  0  0  0  0999 V2000
    4.2757   -0.8171    0.0000 O   0  0  0  0  0  0  0  0  0  0  0  0
    2.1473   -1.2352    0.0000 O   0  0  0  0  0  0  0  0  0  0  0  0
    3.5536   -2.0333    0.0000 O   0  0  0  0  0  0  0  0  0  0  0  0
    0.7221   -2.0523    0.0000 O   0  0  0  0  0  0  0  0  0  0  0  0
    0.0000    0.0000    0.0000 O   0  0  0  0  0  0  0  0  0  0  0  0
    2.8504   -0.8171    0.0000 N   0  0  0  0  0  0  0  0  0  0  0  0
    4.9788   -1.2542    0.0000 C   0  0  0  0  0  0  0  0  0  0  0  0
    3.5536   -1.2352    0.0000 C   0  0  0  0  0  0  0  0  0  0  0  0
    0.7221   -1.2352    0.0000 C   0  0  3  0  0  0  0  0  0  0  0  0
    1.4252   -0.8171    0.0000 C   0  0  0  0  0  0  0  0  0  0  0  0
    4.5607   -1.9573    0.0000 C   0  0  0  0  0  0  0  0  0  0  0  0
    5.4158   -0.5321    0.0000 C   0  0  0  0  0  0  0  0  0  0  0  0
    5.7009   -1.6532    0.0000 C   0  0  0  0  0  0  0  0  0  0  0  0
    0.0000   -0.8171    0.0000 C   0  0  0  0  0  0  0  0  0  0  0  0
  1  7  1  0  0  0  0
  1  8  1  0  0  0  0
  2  6  1  0  0  0  0
  2 10  1  0  0  0  0
  3  8  2  0  0  0  0
  4  9  1  0  0  0  0
  5 14  1  0  0  0  0
  6  8  1  0  0  0  0
  7 11  1  0  0  0  0
  7 12  1  0  0  0  0
  7 13  1  0  0  0  0
  9 10  1  0  0  0  0
  9 14  1  0  0  0  0
M  END
> <PUBCHEM_COMPOUND_ID_TYPE>
0

> <PUBCHEM_TOTAL_CHARGE>
0

> <PUBCHEM_SUBSTANCE_ID>
310934617

> <PUBCHEM_SUBSTANCE_VERSION>
1

> <PUBCHEM_EXT_DATASOURCE_NAME>
4488

> <PUBCHEM_EXT_DATASOURCE_REGID>
SCHEMBL16112113

> <PUBCHEM_SUBSTANCE_COMMENT>
InChI=1S/C8H17NO5/c1-8(2,3)14-7(12)9-13-5-6(11)4-10/h6,10-11H,4-5H2,1-3H3,(H,9,12)
InChIKey=AHJVRFOMSMPRBI-UHFFFAOYSA-N

> <PUBCHEM_SUBSTANCE_SYNONYM>
SCHEMBL16112113

> <PUBCHEM_XREF_EXT_ID>
SCHEMBL16112113

> <PUBCHEM_EXT_DATASOURCE_URL>
https://www.surechembl.org/

> <PUBCHEM_EXT_SUBSTANCE_URL>
https://www.surechembl.org/chemical/SCHEMBL16112113

> <PUBCHEM_CID_ASSOCIATIONS>
117602791  1

> <PUBCHEM_COORDINATE_TYPE>
1
3

$$$$
