310940797
  -OEChem-07211613022D

 42 46  0     1  0  0  0  0  0999 V2000
    5.1824   -1.4510    0.0000 O   0  0  0  0  0  0  0  0  0  0  0  0
    4.0530    0.5075    0.0000 O   0  0  0  0  0  0  0  0  0  0  0  0
    2.5804    3.0808    0.0000 O   0  0  0  0  0  0  0  0  0  0  0  0
    3.7384    2.4232    0.0000 O   0  0  0  0  0  0  0  0  0  0  0  0
    1.6941   -1.4368    0.0000 O   0  0  0  0  0  0  0  0  0  0  0  0
   -0.4647    0.6220    0.0000 O   0  0  0  0  0  0  0  0  0  0  0  0
   -2.6233   -1.4368    0.0000 O   0  0  0  0  0  0  0  0  0  0  0  0
   -5.4826   -1.4368    0.0000 O   0  0  0  0  0  0  0  0  0  0  0  0
    2.4088   -0.2073    0.0000 N   0  0  0  0  0  0  0  0  0  0  0  0
    0.2502   -0.6220    0.0000 N   0  0  0  0  0  0  0  0  0  0  0  0
   -1.8943   -0.2073    0.0000 N   0  0  0  0  0  0  0  0  0  0  0  0
   -4.0530   -0.6220    0.0000 N   0  0  0  0  0  0  0  0  0  0  0  0
    4.7820   -0.7219    0.0000 C   0  0  3  0  0  0  0  0  0  0  0  0
    4.0530   -0.3217    0.0000 C   0  0  0  0  0  0  0  0  0  0  0  0
    4.3818   -1.4225    0.0000 C   0  0  0  0  0  0  0  0  0  0  0  0
    3.3524   -0.7076    0.0000 C   0  0  3  0  0  0  0  0  0  0  0  0
    5.4826   -0.2931    0.0000 C   0  0  0  0  0  0  0  0  0  0  0  0
    3.3381   -1.7799    0.0000 C   0  0  0  0  0  0  0  0  0  0  0  0
    1.6941   -0.5647    0.0000 C   0  0  0  0  0  0  0  0  0  0  0  0
    0.9649   -0.1787    0.0000 C   0  0  3  0  0  0  0  0  0  0  0  0
    1.6941    1.0651    0.0000 C   0  0  0  0  0  0  0  0  0  0  0  0
    2.4088    2.3088    0.0000 C   0  0  0  0  0  0  0  0  0  0  0  0
    2.6233   -2.1945    0.0000 C   0  0  0  0  0  0  0  0  0  0  0  0
    3.1238    1.8943    0.0000 C   0  0  0  0  0  0  0  0  0  0  0  0
    0.9792    0.6505    0.0000 C   0  0  0  0  0  0  0  0  0  0  0  0
    1.7084    1.8943    0.0000 C   0  0  0  0  0  0  0  0  0  0  0  0
    2.4088    0.6647    0.0000 C   0  0  0  0  0  0  0  0  0  0  0  0
    3.1238    1.0651    0.0000 C   0  0  0  0  0  0  0  0  0  0  0  0
   -0.4790   -0.1930    0.0000 C   0  0  0  0  0  0  0  0  0  0  0  0
    1.8657   -1.8800    0.0000 C   0  0  0  0  0  0  0  0  0  0  0  0
    2.5233   -3.0236    0.0000 C   0  0  0  0  0  0  0  0  0  0  0  0
    3.4096    3.1809    0.0000 C   0  0  0  0  0  0  0  0  0  0  0  0
   -1.1651   -0.5791    0.0000 C   0  0  3  0  0  0  0  0  0  0  0  0
    1.3224   -2.4804    0.0000 C   0  0  0  0  0  0  0  0  0  0  0  0
    1.7228   -3.1809    0.0000 C   0  0  0  0  0  0  0  0  0  0  0  0
   -2.6090   -0.5647    0.0000 C   0  0  0  0  0  0  0  0  0  0  0  0
   -1.1794   -1.4225    0.0000 C   0  0  0  0  0  0  0  0  0  0  0  0
   -3.3381   -0.1787    0.0000 C   0  0  0  0  0  0  0  0  0  0  0  0
   -4.0530   -1.4082    0.0000 C   0  0  0  0  0  0  0  0  0  0  0  0
   -4.7820   -0.1787    0.0000 C   0  0  0  0  0  0  0  0  0  0  0  0
   -4.7534   -1.8228    0.0000 C   0  0  0  0  0  0  0  0  0  0  0  0
   -5.4683   -0.5791    0.0000 C   0  0  0  0  0  0  0  0  0  0  0  0
  1 13  1  0  0  0  0
  1 15  1  0  0  0  0
  2 14  2  0  0  0  0
  3 22  1  0  0  0  0
  3 32  1  0  0  0  0
  4 24  1  0  0  0  0
  4 32  1  0  0  0  0
  5 19  2  0  0  0  0
  6 29  2  0  0  0  0
  7 36  2  0  0  0  0
  8 41  1  0  0  0  0
  8 42  1  0  0  0  0
  9 16  1  0  0  0  0
  9 19  1  0  0  0  0
 10 20  1  0  0  0  0
 10 29  1  0  0  0  0
 11 33  1  0  0  0  0
 11 36  1  0  0  0  0
 12 38  1  0  0  0  0
 12 39  1  0  0  0  0
 12 40  1  0  0  0  0
 13 14  1  0  0  0  0
 13 15  1  0  0  0  0
 13 17  1  0  0  0  0
 14 16  1  0  0  0  0
 16 18  1  0  0  0  0
 18 23  1  0  0  0  0
 19 20  1  0  0  0  0
 20 25  1  0  0  0  0
 21 25  1  0  0  0  0
 21 26  1  0  0  0  0
 21 27  2  0  0  0  0
 22 24  1  0  0  0  0
 22 26  2  0  0  0  0
 23 30  1  0  0  0  0
 23 31  1  0  0  0  0
 24 28  2  0  0  0  0
 27 28  1  0  0  0  0
 29 33  1  0  0  0  0
 30 34  1  0  0  0  0
 31 35  1  0  0  0  0
 33 37  1  0  0  0  0
 34 35  1  0  0  0  0
 36 38  1  0  0  0  0
 39 41  1  0  0  0  0
 40 42  1  0  0  0  0
M  END
> <PUBCHEM_COMPOUND_ID_TYPE>
0

> <PUBCHEM_TOTAL_CHARGE>
0

> <PUBCHEM_SUBSTANCE_ID>
310940797

> <PUBCHEM_SUBSTANCE_VERSION>
1

> <PUBCHEM_EXT_DATASOURCE_NAME>
4488

> <PUBCHEM_EXT_DATASOURCE_REGID>
SCHEMBL16118756

> <PUBCHEM_SUBSTANCE_COMMENT>
InChI=1S/C30H42N4O8/c1-19(31-26(35)16-34-9-11-39-12-10-34)28(37)33-23(14-21-7-8-24-25(15-21)41-18-40-24)29(38)32-22(13-20-5-3-4-6-20)27(36)30(2)17-42-30/h7-8,15,19-20,22-23H,3-6,9-14,16-18H2,1-2H3,(H,31,35)(H,32,38)(H,33,37)
InChIKey=HUPBHWWNBPLPHM-UHFFFAOYSA-N

> <PUBCHEM_SUBSTANCE_SYNONYM>
SCHEMBL16118756

> <PUBCHEM_XREF_EXT_ID>
SCHEMBL16118756

> <PUBCHEM_EXT_DATASOURCE_URL>
https://www.surechembl.org/

> <PUBCHEM_EXT_SUBSTANCE_URL>
https://www.surechembl.org/chemical/SCHEMBL16118756

> <PUBCHEM_CID_ASSOCIATIONS>
86296536  1

> <PUBCHEM_COORDINATE_TYPE>
1
3

$$$$
