310947639
  -OEChem-07211613022D

 39 38  0     1  0  0  0  0  0999 V2000
   -2.9680   -0.2799    0.0000 S   0  0  0  0  0  0  0  0  0  0  0  0
   -2.2537   -0.6924    0.0000 S   0  0  0  0  0  0  0  0  0  0  0  0
   -5.1112    1.7823    0.0000 O   0  0  0  0  0  0  0  0  0  0  0  0
   -5.1112   -1.5174    0.0000 O   0  0  0  0  0  0  0  0  0  0  0  0
   -6.0134   -0.1695    0.0000 O   0  0  0  0  0  0  0  0  0  0  0  0
   -0.1105    0.5450    0.0000 O   0  0  0  0  0  0  0  0  0  0  0  0
   -5.8257    0.5450    0.0000 O   0  0  0  0  0  0  0  0  0  0  0  0
    4.9924    1.0164    0.0000 O   0  0  0  0  0  0  0  0  0  0  0  0
    3.3595    1.0164    0.0000 O   0  0  0  0  0  0  0  0  0  0  0  0
   -2.9680    2.1949    0.0000 O   0  0  0  0  0  0  0  0  0  0  0  0
   -0.8248    1.7823    0.0000 O   0  0  0  0  0  0  0  0  0  0  0  0
    1.5835    2.3495    0.0000 O   0  0  0  0  0  0  0  0  0  0  0  0
   -4.3969    0.5450    0.0000 N   0  0  0  0  0  0  0  0  0  0  0  0
    0.6038   -0.6924    0.0000 N   0  0  0  0  0  0  0  0  0  0  0  0
   -0.8248   -1.5174    0.0000 N   0  0  0  0  0  0  0  0  0  0  0  0
    4.8904   -0.6924    0.0000 N   0  0  0  0  0  0  0  0  0  0  0  0
   -4.3969   -0.2799    0.0000 C   0  0  3  0  0  0  0  0  0  0  0  0
   -0.8248   -0.6924    0.0000 C   0  0  3  0  0  0  0  0  0  0  0  0
   -5.1112   -0.6924    0.0000 C   0  0  0  0  0  0  0  0  0  0  0  0
   -0.1105   -0.2799    0.0000 C   0  0  0  0  0  0  0  0  0  0  0  0
   -3.6825   -0.6924    0.0000 C   0  0  0  0  0  0  0  0  0  0  0  0
   -5.1112    0.9575    0.0000 C   0  0  0  0  0  0  0  0  0  0  0  0
   -1.5393   -0.2799    0.0000 C   0  0  0  0  0  0  0  0  0  0  0  0
    4.1759   -0.2799    0.0000 C   0  0  3  0  0  0  0  0  0  0  0  0
    1.3183   -0.2799    0.0000 C   0  0  0  0  0  0  0  0  0  0  0  0
    4.1759    0.5450    0.0000 C   0  0  0  0  0  0  0  0  0  0  0  0
   -4.3969    2.1949    0.0000 C   0  0  0  0  0  0  0  0  0  0  0  0
    3.4615   -0.6924    0.0000 C   0  0  0  0  0  0  0  0  0  0  0  0
    2.0327   -0.6924    0.0000 C   0  0  0  0  0  0  0  0  0  0  0  0
    2.7471   -0.2799    0.0000 C   0  0  0  0  0  0  0  0  0  0  0  0
   -1.3479   -2.4305    0.0000 C   0  0  0  0  0  0  0  0  0  0  0  0
   -3.6825    1.7823    0.0000 C   0  0  0  0  0  0  0  0  0  0  0  0
    4.9924    1.9590    0.0000 C   0  0  0  0  0  0  0  0  0  0  0  0
   -2.2537    1.7823    0.0000 C   0  0  0  0  0  0  0  0  0  0  0  0
   -1.5393    2.1949    0.0000 C   0  0  0  0  0  0  0  0  0  0  0  0
    5.8088    2.4305    0.0000 C   0  0  0  0  0  0  0  0  0  0  0  0
    0.1547    2.3495    0.0000 C   0  0  0  0  0  0  0  0  0  0  0  0
    0.8691    1.9370    0.0000 C   0  0  0  0  0  0  0  0  0  0  0  0
    2.2979    1.9370    0.0000 C   0  0  0  0  0  0  0  0  0  0  0  0
  1  2  1  0  0  0  0
  1 21  1  0  0  0  0
  2 23  1  0  0  0  0
  3 22  1  0  0  0  0
  3 27  1  0  0  0  0
  4 19  2  0  0  0  0
  5 19  1  0  0  0  0
  6 20  2  0  0  0  0
  7 22  2  0  0  0  0
  8 26  1  0  0  0  0
  8 33  1  0  0  0  0
  9 26  2  0  0  0  0
 10 32  1  0  0  0  0
 10 34  1  0  0  0  0
 11 35  1  0  0  0  0
 11 37  1  0  0  0  0
 12 38  1  0  0  0  0
 12 39  1  0  0  0  0
 13 17  1  0  0  0  0
 13 22  1  0  0  0  0
 14 20  1  0  0  0  0
 14 25  1  0  0  0  0
 15 18  1  0  0  0  0
 15 31  1  0  0  0  0
 16 24  1  0  0  0  0
 17 19  1  0  0  0  0
 17 21  1  0  0  0  0
 18 20  1  0  0  0  0
 18 23  1  0  0  0  0
 24 26  1  0  0  0  0
 24 28  1  0  0  0  0
 25 29  1  0  0  0  0
 27 32  1  0  0  0  0
 28 30  1  0  0  0  0
 29 30  1  0  0  0  0
 33 36  1  0  0  0  0
 34 35  1  0  0  0  0
 37 38  1  0  0  0  0
M  END
> <PUBCHEM_COMPOUND_ID_TYPE>
0

> <PUBCHEM_TOTAL_CHARGE>
0

> <PUBCHEM_SUBSTANCE_ID>
310947639

> <PUBCHEM_SUBSTANCE_VERSION>
1

> <PUBCHEM_EXT_DATASOURCE_NAME>
4488

> <PUBCHEM_EXT_DATASOURCE_REGID>
SCHEMBL16125806

> <PUBCHEM_SUBSTANCE_COMMENT>
InChI=1S/C23H44N4O10S2/c1-4-36-22(31)17(24)7-5-6-8-26-20(28)18(25-2)15-38-39-16-19(21(29)30)27-23(32)37-14-13-35-12-11-34-10-9-33-3/h17-19,25H,4-16,24H2,1-3H3,(H,26,28)(H,27,32)(H,29,30)
InChIKey=FSNLNHNDTQNBHB-UHFFFAOYSA-N

> <PUBCHEM_SUBSTANCE_SYNONYM>
SCHEMBL16125806

> <PUBCHEM_XREF_EXT_ID>
SCHEMBL16125806

> <PUBCHEM_EXT_DATASOURCE_URL>
https://www.surechembl.org/

> <PUBCHEM_EXT_SUBSTANCE_URL>
https://www.surechembl.org/chemical/SCHEMBL16125806

> <PUBCHEM_CID_ASSOCIATIONS>
117613355  1

> <PUBCHEM_COORDINATE_TYPE>
1
3

$$$$
