310945118
  -OEChem-07211613022D

 15 17  0     1  0  0  0  0  0999 V2000
   -1.0081   -1.2280    0.0000 O   0  0  0  0  0  0  0  0  0  0  0  0
    2.5476    0.0183    0.0000 O   0  5  0  0  0  0  0  0  0  0  0  0
    1.8328    1.2280    0.0000 O   0  0  0  0  0  0  0  0  0  0  0  0
   -1.0081    0.4399    0.0000 N   0  0  3  0  0  0  0  0  0  0  0  0
    1.8328    0.4399    0.0000 N   0  3  0  0  0  0  0  0  0  0  0  0
   -1.7412    0.0367    0.0000 C   0  0  3  0  0  0  0  0  0  0  0  0
   -0.2933    0.0183    0.0000 C   0  0  0  0  0  0  0  0  0  0  0  0
   -1.7229    0.8248    0.0000 C   0  0  0  0  0  0  0  0  0  0  0  0
   -0.3116   -0.8065    0.0000 C   0  0  0  0  0  0  0  0  0  0  0  0
   -1.7229   -0.8065    0.0000 C   0  0  0  0  0  0  0  0  0  0  0  0
    0.4032    0.4215    0.0000 C   0  0  0  0  0  0  0  0  0  0  0  0
    1.1363    0.0183    0.0000 C   0  0  0  0  0  0  0  0  0  0  0  0
   -2.5476    0.0000    0.0000 C   0  0  0  0  0  0  0  0  0  0  0  0
    0.4215   -1.2097    0.0000 C   0  0  0  0  0  0  0  0  0  0  0  0
    1.1180   -0.8065    0.0000 C   0  0  0  0  0  0  0  0  0  0  0  0
  1  9  1  0  0  0  0
  1 10  1  0  0  0  0
  2  5  1  0  0  0  0
  3  5  2  0  0  0  0
  4  6  1  0  0  0  0
  4  7  1  0  0  0  0
  4  8  1  0  0  0  0
  5 12  1  0  0  0  0
  6  8  1  0  0  0  0
  6 10  1  0  0  0  0
  6 13  1  0  0  0  0
  7  9  2  0  0  0  0
  7 11  1  0  0  0  0
  9 14  1  0  0  0  0
 11 12  2  0  0  0  0
 12 15  1  0  0  0  0
 14 15  2  0  0  0  0
M  CHG  2   2  -1   5   1
M  END
> <PUBCHEM_COMPOUND_ID_TYPE>
0

> <PUBCHEM_TOTAL_CHARGE>
0

> <PUBCHEM_SUBSTANCE_ID>
310945118

> <PUBCHEM_SUBSTANCE_VERSION>
1

> <PUBCHEM_EXT_DATASOURCE_NAME>
4488

> <PUBCHEM_EXT_DATASOURCE_REGID>
SCHEMBL16123208

> <PUBCHEM_SUBSTANCE_COMMENT>
InChI=1S/C10H10N2O3/c1-10-5-11(10)8-4-7(12(13)14)2-3-9(8)15-6-10/h2-4H,5-6H2,1H3
InChIKey=RAIITTKYIVCMSH-UHFFFAOYSA-N

> <PUBCHEM_SUBSTANCE_SYNONYM>
SCHEMBL16123208

> <PUBCHEM_XREF_EXT_ID>
SCHEMBL16123208

> <PUBCHEM_EXT_DATASOURCE_URL>
https://www.surechembl.org/

> <PUBCHEM_EXT_SUBSTANCE_URL>
https://www.surechembl.org/chemical/SCHEMBL16123208

> <PUBCHEM_CID_ASSOCIATIONS>
117611213  1

> <PUBCHEM_COORDINATE_TYPE>
1
3

$$$$
