310929713
  -OEChem-07211613022D

 35 38  0     1  0  0  0  0  0999 V2000
   -0.0322    2.4833    0.0000 O   0  0  0  0  0  0  0  0  0  0  0  0
   -5.3586   -1.0313    0.0000 O   0  0  0  0  0  0  0  0  0  0  0  0
   -2.5804   -3.5063    0.0000 O   0  0  0  0  0  0  0  0  0  0  0  0
   -3.2949   -2.2688    0.0000 O   0  0  0  0  0  0  0  0  0  0  0  0
   -1.7862    0.2063    0.0000 C   0  0  3  0  0  0  0  0  0  0  0  0
   -1.0717    0.6188    0.0000 C   0  0  3  0  0  0  0  0  0  0  0  0
   -2.5007    0.6188    0.0000 C   0  0  3  0  0  0  0  0  0  0  0  0
   -1.0717    1.4438    0.0000 C   0  0  3  0  0  0  0  0  0  0  0  0
   -3.2152    0.2063    0.0000 C   0  0  3  0  0  0  0  0  0  0  0  0
   -2.5007    1.4438    0.0000 C   0  0  0  0  0  0  0  0  0  0  0  0
   -1.7862   -0.6188    0.0000 C   0  0  0  0  0  0  0  0  0  0  0  0
   -3.2152   -0.6188    0.0000 C   0  0  0  0  0  0  0  0  0  0  0  0
   -1.7862    1.8563    0.0000 C   0  0  0  0  0  0  0  0  0  0  0  0
   -0.2871    1.6987    0.0000 C   0  0  3  0  0  0  0  0  0  0  0  0
   -0.2871    0.3638    0.0000 C   0  0  0  0  0  0  0  0  0  0  0  0
   -2.5007   -1.0313    0.0000 C   0  0  0  0  0  0  0  0  0  0  0  0
    0.1978    1.0313    0.0000 C   0  0  0  0  0  0  0  0  0  0  0  0
   -3.9296    0.6188    0.0000 C   0  0  0  0  0  0  0  0  0  0  0  0
   -1.0717    2.2688    0.0000 C   0  0  0  0  0  0  0  0  0  0  0  0
   -3.9296   -1.0313    0.0000 C   0  0  0  0  0  0  0  0  0  0  0  0
   -4.6441    0.2063    0.0000 C   0  0  0  0  0  0  0  0  0  0  0  0
   -4.6441   -0.6188    0.0000 C   0  0  0  0  0  0  0  0  0  0  0  0
   -1.8659   -3.0938    0.0000 C   0  0  0  0  0  0  0  0  0  0  0  0
   -1.8659   -2.2688    0.0000 C   0  0  0  0  0  0  0  0  0  0  0  0
   -1.1514   -3.5063    0.0000 C   0  0  0  0  0  0  0  0  0  0  0  0
   -3.2949   -3.0938    0.0000 C   0  0  0  0  0  0  0  0  0  0  0  0
   -1.1514   -1.8563    0.0000 C   0  0  0  0  0  0  0  0  0  0  0  0
   -0.4370   -3.0938    0.0000 C   0  0  0  0  0  0  0  0  0  0  0  0
   -0.4370   -2.2688    0.0000 C   0  0  0  0  0  0  0  0  0  0  0  0
   -4.0093   -3.5063    0.0000 C   0  0  0  0  0  0  0  0  0  0  0  0
   -4.7238   -3.0938    0.0000 C   0  0  0  0  0  0  0  0  0  0  0  0
   -1.7862    1.0313    0.0000 H   0  0  0  0  0  0  0  0  0  0  0  0
   -1.0717   -0.2063    0.0000 H   0  0  0  0  0  0  0  0  0  0  0  0
   -2.5007   -0.2063    0.0000 H   0  0  0  0  0  0  0  0  0  0  0  0
   -3.2152    1.0313    0.0000 H   0  0  0  0  0  0  0  0  0  0  0  0
 14  1  1  1  0  0  0
  2 22  2  0  0  0  0
  3 23  1  0  0  0  0
  3 26  1  0  0  0  0
  4 26  2  0  0  0  0
  5  6  1  0  0  0  0
  5  7  1  0  0  0  0
  5 11  1  0  0  0  0
  5 32  1  1  0  0  0
  6  8  1  0  0  0  0
  6 15  1  0  0  0  0
  6 33  1  6  0  0  0
  7  9  1  0  0  0  0
  7 10  1  0  0  0  0
  7 34  1  6  0  0  0
  8 13  1  0  0  0  0
  8 14  1  0  0  0  0
  8 19  1  1  0  0  0
  9 12  1  0  0  0  0
  9 18  1  0  0  0  0
  9 35  1  1  0  0  0
 10 13  1  0  0  0  0
 11 16  1  0  0  0  0
 12 16  1  0  0  0  0
 12 20  2  0  0  0  0
 14 17  1  0  0  0  0
 15 17  1  0  0  0  0
 18 21  1  0  0  0  0
 20 22  1  0  0  0  0
 21 22  1  0  0  0  0
 23 24  2  0  0  0  0
 23 25  1  0  0  0  0
 24 27  1  0  0  0  0
 25 28  2  0  0  0  0
 26 30  1  0  0  0  0
 27 29  2  0  0  0  0
 28 29  1  0  0  0  0
 30 31  1  0  0  0  0
M  END
> <PUBCHEM_COMPOUND_ID_TYPE>
0

> <PUBCHEM_TOTAL_CHARGE>
0

> <PUBCHEM_SUBSTANCE_ID>
310929713

> <PUBCHEM_SUBSTANCE_VERSION>
1

> <PUBCHEM_EXT_DATASOURCE_NAME>
4488

> <PUBCHEM_EXT_DATASOURCE_REGID>
SCHEMBL16106906

> <PUBCHEM_SUBSTANCE_COMMENT>
InChI=1S/C18H26O2.C9H10O2/c1-18-9-8-14-13-5-3-12(19)10-11(13)2-4-15(14)16(18)6-7-17(18)20;1-2-9(10)11-8-6-4-3-5-7-8/h10,13-17,20H,2-9H2,1H3;3-7H,2H2,1H3/t13-,14+,15+,16-,17-,18-;/m0./s1
InChIKey=DLOMZNNXRDQXCR-OGVPJBRJSA-N

> <PUBCHEM_SUBSTANCE_SYNONYM>
SCHEMBL16106906

> <PUBCHEM_XREF_EXT_ID>
SCHEMBL16106906

> <PUBCHEM_EXT_DATASOURCE_URL>
https://www.surechembl.org/

> <PUBCHEM_EXT_SUBSTANCE_URL>
https://www.surechembl.org/chemical/SCHEMBL16106906

> <PUBCHEM_CID_ASSOCIATIONS>
23615855  1
9904  2
12497  2

> <PUBCHEM_COORDINATE_TYPE>
1
3

> <PUBCHEM_BONDANNOTATIONS>
14  1  5
5  32  5
6  33  6
7  34  6
8  19  5
9  35  5

$$$$
