310934184
  -OEChem-07211613022D

 43 47  0     1  0  0  0  0  0999 V2000
    2.3856   -0.7040    0.0000 Cl  0  0  0  0  0  0  0  0  0  0  0  0
    6.1009   -5.7490    0.0000 O   0  0  0  0  0  0  0  0  0  0  0  0
    6.9613   -2.8940    0.0000 O   0  0  0  0  0  0  0  0  0  0  0  0
    1.4470   -6.6875    0.0000 O   0  0  0  0  0  0  0  0  0  0  0  0
    0.7040   -5.4361    0.0000 O   0  0  0  0  0  0  0  0  0  0  0  0
    6.1400    0.0000    0.0000 O   0  5  0  0  0  0  0  0  0  0  0  0
    6.1400   -1.4079    0.0000 O   0  0  0  0  0  0  0  0  0  0  0  0
    4.8494   -5.0059    0.0000 N   0  0  0  0  0  0  0  0  0  0  0  0
    5.6707   -3.5980    0.0000 N   0  0  0  0  0  0  0  0  0  0  0  0
    2.1510   -5.4361    0.0000 N   0  0  0  0  0  0  0  0  0  0  0  0
    5.7098   -0.7040    0.0000 N   0  3  0  0  0  0  0  0  0  0  0  0
    6.1009   -4.3019    0.0000 C   0  0  3  0  0  0  0  0  0  0  0  0
    5.6707   -5.0059    0.0000 C   0  0  0  0  0  0  0  0  0  0  0  0
    3.5589   -5.4361    0.0000 C   0  0  3  0  0  0  0  0  0  0  0  0
    3.5589   -4.5757    0.0000 C   0  0  3  0  0  0  0  0  0  0  0  0
    4.3411   -5.6707    0.0000 C   0  0  0  0  0  0  0  0  0  0  0  0
    4.3411   -4.3411    0.0000 C   0  0  0  0  0  0  0  0  0  0  0  0
    4.8885   -2.1510    0.0000 C   0  0  0  0  0  0  0  0  0  0  0  0
    6.1009   -2.8940    0.0000 C   0  0  0  0  0  0  0  0  0  0  0  0
    4.4583   -1.4470    0.0000 C   0  0  0  0  0  0  0  0  0  0  0  0
    2.8549   -5.8272    0.0000 C   0  0  0  0  0  0  0  0  0  0  0  0
    5.7098   -2.1510    0.0000 C   0  0  0  0  0  0  0  0  0  0  0  0
    4.8494   -3.5980    0.0000 C   0  0  0  0  0  0  0  0  0  0  0  0
    4.8494   -0.7040    0.0000 C   0  0  0  0  0  0  0  0  0  0  0  0
    2.8549   -4.1846    0.0000 C   0  0  0  0  0  0  0  0  0  0  0  0
    6.9222   -4.3019    0.0000 C   0  0  0  0  0  0  0  0  0  0  0  0
    4.4583   -2.8549    0.0000 C   0  0  0  0  0  0  0  0  0  0  0  0
    2.1510   -4.5757    0.0000 C   0  0  0  0  0  0  0  0  0  0  0  0
    3.6371   -1.4079    0.0000 C   0  0  0  0  0  0  0  0  0  0  0  0
    1.4079   -5.8662    0.0000 C   0  0  0  0  0  0  0  0  0  0  0  0
    7.3524   -5.0059    0.0000 C   0  0  0  0  0  0  0  0  0  0  0  0
    4.4583    0.0000    0.0000 C   0  0  0  0  0  0  0  0  0  0  0  0
    3.2069   -0.7040    0.0000 C   0  0  0  0  0  0  0  0  0  0  0  0
    3.6371    0.0000    0.0000 C   0  0  0  0  0  0  0  0  0  0  0  0
    8.1737   -5.0059    0.0000 C   0  0  0  0  0  0  0  0  0  0  0  0
    6.9613   -5.7490    0.0000 C   0  0  0  0  0  0  0  0  0  0  0  0
    0.7040   -7.1177    0.0000 C   0  0  0  0  0  0  0  0  0  0  0  0
    8.6039   -5.7490    0.0000 C   0  0  0  0  0  0  0  0  0  0  0  0
    7.3524   -6.4529    0.0000 C   0  0  0  0  0  0  0  0  0  0  0  0
    8.1737   -6.4529    0.0000 C   0  0  0  0  0  0  0  0  0  0  0  0
    0.2737   -6.3747    0.0000 C   0  0  0  0  0  0  0  0  0  0  0  0
    0.0000   -7.5480    0.0000 C   0  0  0  0  0  0  0  0  0  0  0  0
    1.1342   -7.8217    0.0000 C   0  0  0  0  0  0  0  0  0  0  0  0
  1 33  1  0  0  0  0
  2 13  2  0  0  0  0
  3 19  2  0  0  0  0
  4 30  1  0  0  0  0
  4 37  1  0  0  0  0
  5 30  2  0  0  0  0
  6 11  1  0  0  0  0
  7 11  2  0  0  0  0
  8 13  1  0  0  0  0
  8 16  1  0  0  0  0
  8 17  1  0  0  0  0
  9 12  1  0  0  0  0
  9 19  1  0  0  0  0
  9 23  1  0  0  0  0
 10 21  1  0  0  0  0
 10 28  1  0  0  0  0
 10 30  1  0  0  0  0
 11 24  1  0  0  0  0
 12 13  1  0  0  0  0
 12 26  1  0  0  0  0
 14 15  1  0  0  0  0
 14 16  1  0  0  0  0
 14 21  1  0  0  0  0
 15 17  1  0  0  0  0
 15 25  1  0  0  0  0
 18 20  1  0  0  0  0
 18 22  2  0  0  0  0
 18 27  1  0  0  0  0
 19 22  1  0  0  0  0
 20 24  1  0  0  0  0
 20 29  2  0  0  0  0
 23 27  2  0  0  0  0
 24 32  2  0  0  0  0
 25 28  1  0  0  0  0
 26 31  1  0  0  0  0
 29 33  1  0  0  0  0
 31 35  2  0  0  0  0
 31 36  1  0  0  0  0
 32 34  1  0  0  0  0
 33 34  2  0  0  0  0
 35 38  1  0  0  0  0
 36 39  2  0  0  0  0
 37 41  1  0  0  0  0
 37 42  1  0  0  0  0
 37 43  1  0  0  0  0
 38 40  2  0  0  0  0
 39 40  1  0  0  0  0
M  CHG  2   6  -1  11   1
M  END
> <PUBCHEM_COMPOUND_ID_TYPE>
0

> <PUBCHEM_TOTAL_CHARGE>
0

> <PUBCHEM_SUBSTANCE_ID>
310934184

> <PUBCHEM_SUBSTANCE_VERSION>
1

> <PUBCHEM_EXT_DATASOURCE_NAME>
4488

> <PUBCHEM_EXT_DATASOURCE_REGID>
SCHEMBL16111637

> <PUBCHEM_SUBSTANCE_COMMENT>
InChI=1S/C32H35ClN4O6/c1-32(2,3)43-31(40)34-13-11-23-18-35(20-24(23)19-34)30(39)28(15-21-7-5-4-6-8-21)36-14-12-22(16-29(36)38)26-17-25(33)9-10-27(26)37(41)42/h4-10,12,14,16-17,23-24,28H,11,13,15,18-20H2,1-3H3
InChIKey=MPVPWQNDTWLVJC-UHFFFAOYSA-N

> <PUBCHEM_SUBSTANCE_SYNONYM>
SCHEMBL16111637

> <PUBCHEM_XREF_EXT_ID>
SCHEMBL16111637

> <PUBCHEM_EXT_DATASOURCE_URL>
https://www.surechembl.org/

> <PUBCHEM_EXT_SUBSTANCE_URL>
https://www.surechembl.org/chemical/SCHEMBL16111637

> <PUBCHEM_CID_ASSOCIATIONS>
86302019  1

> <PUBCHEM_COORDINATE_TYPE>
1
3

$$$$
