310945232
  -OEChem-07211613022D

 46 51  0     1  0  0  0  0  0999 V2000
    2.4139    3.6811    0.0000 O   0  0  0  0  0  0  0  0  0  0  0  0
    4.6064   -0.0201    0.0000 O   0  0  0  0  0  0  0  0  0  0  0  0
    3.8622   -1.2270    0.0000 O   0  0  0  0  0  0  0  0  0  0  0  0
   -5.3708    0.6035    0.0000 O   0  0  0  0  0  0  0  0  0  0  0  0
    0.9052    1.3880    0.0000 N   0  0  0  0  0  0  0  0  0  0  0  0
    3.1380    2.4742    0.0000 N   0  0  0  0  0  0  0  0  0  0  0  0
    3.1380   -0.0201    0.0000 N   0  0  0  0  0  0  0  0  0  0  0  0
   -2.0518    2.0518    0.0000 N   0  0  0  0  0  0  0  0  0  0  0  0
   -3.2989   -1.5086    0.0000 N   0  0  0  0  0  0  0  0  0  0  0  0
   -4.1237   -0.0805    0.0000 N   0  0  0  0  0  0  0  0  0  0  0  0
   -4.1237   -2.9369    0.0000 N   0  0  0  0  0  0  0  0  0  0  0  0
    2.4139    1.2472    0.0000 C   0  0  3  0  0  0  0  0  0  0  0  0
    1.6696    1.6494    0.0000 C   0  0  0  0  0  0  0  0  0  0  0  0
    1.7098    2.4742    0.0000 C   0  0  0  0  0  0  0  0  0  0  0  0
    0.4225    2.0518    0.0000 C   0  0  0  0  0  0  0  0  0  0  0  0
    2.4139    2.8765    0.0000 C   0  0  0  0  0  0  0  0  0  0  0  0
    3.1380    1.6494    0.0000 C   0  0  0  0  0  0  0  0  0  0  0  0
    0.9253    2.7156    0.0000 C   0  0  0  0  0  0  0  0  0  0  0  0
    3.1380    0.8247    0.0000 C   0  0  0  0  0  0  0  0  0  0  0  0
    1.7299    0.8247    0.0000 C   0  0  0  0  0  0  0  0  0  0  0  0
   -0.4023    2.0719    0.0000 C   0  0  0  0  0  0  0  0  0  0  0  0
    1.7098    0.0000    0.0000 C   0  0  0  0  0  0  0  0  0  0  0  0
    2.4340   -0.4225    0.0000 C   0  0  0  0  0  0  0  0  0  0  0  0
   -0.8046    1.3477    0.0000 C   0  0  0  0  0  0  0  0  0  0  0  0
    3.8622   -0.4225    0.0000 C   0  0  0  0  0  0  0  0  0  0  0  0
   -1.6494    1.3678    0.0000 C   0  0  0  0  0  0  0  0  0  0  0  0
   -0.8046    2.7558    0.0000 C   0  0  0  0  0  0  0  0  0  0  0  0
   -2.0719    0.6235    0.0000 C   0  0  0  0  0  0  0  0  0  0  0  0
   -2.8765   -0.7845    0.0000 C   0  0  0  0  0  0  0  0  0  0  0  0
   -3.2989   -0.0805    0.0000 C   0  0  0  0  0  0  0  0  0  0  0  0
   -1.6294    2.7759    0.0000 C   0  0  0  0  0  0  0  0  0  0  0  0
   -2.8765    0.6035    0.0000 C   0  0  0  0  0  0  0  0  0  0  0  0
   -1.6494   -0.0805    0.0000 C   0  0  0  0  0  0  0  0  0  0  0  0
   -2.0518   -0.7845    0.0000 C   0  0  0  0  0  0  0  0  0  0  0  0
    4.6265    0.8046    0.0000 C   0  0  0  0  0  0  0  0  0  0  0  0
   -4.1237   -1.5086    0.0000 C   0  0  0  0  0  0  0  0  0  0  0  0
   -2.8765   -2.2127    0.0000 C   0  0  0  0  0  0  0  0  0  0  0  0
   -4.5260    0.6235    0.0000 C   0  0  0  0  0  0  0  0  0  0  0  0
   -4.5260   -2.2529    0.0000 C   0  0  0  0  0  0  0  0  0  0  0  0
   -3.2788   -2.9369    0.0000 C   0  0  0  0  0  0  0  0  0  0  0  0
    5.3708    0.8448    0.0000 C   0  0  0  0  0  0  0  0  0  0  0  0
    3.8622    0.8046    0.0000 C   0  0  0  0  0  0  0  0  0  0  0  0
    4.6064    1.6294    0.0000 C   0  0  0  0  0  0  0  0  0  0  0  0
   -4.1237    1.3678    0.0000 C   0  0  0  0  0  0  0  0  0  0  0  0
   -4.5260   -3.6811    0.0000 C   0  0  0  0  0  0  0  0  0  0  0  0
   -4.6064    2.0316    0.0000 C   0  0  0  0  0  0  0  0  0  0  0  0
  1 16  2  0  0  0  0
  2 25  1  0  0  0  0
  2 35  1  0  0  0  0
  3 25  2  0  0  0  0
  4 38  2  0  0  0  0
  5 13  1  0  0  0  0
  5 15  1  0  0  0  0
  6 16  1  0  0  0  0
  6 17  1  0  0  0  0
  7 19  1  0  0  0  0
  7 23  1  0  0  0  0
  7 25  1  0  0  0  0
  8 26  2  0  0  0  0
  8 31  1  0  0  0  0
  9 29  1  0  0  0  0
  9 36  1  0  0  0  0
  9 37  1  0  0  0  0
 10 30  1  0  0  0  0
 10 38  1  0  0  0  0
 11 39  1  0  0  0  0
 11 40  1  0  0  0  0
 11 45  1  0  0  0  0
 12 13  1  0  0  0  0
 12 17  1  0  0  0  0
 12 19  1  0  0  0  0
 12 20  1  0  0  0  0
 13 14  2  0  0  0  0
 14 16  1  0  0  0  0
 14 18  1  0  0  0  0
 15 18  2  0  0  0  0
 15 21  1  0  0  0  0
 20 22  1  0  0  0  0
 21 24  2  0  0  0  0
 21 27  1  0  0  0  0
 22 23  1  0  0  0  0
 24 26  1  0  0  0  0
 26 28  1  0  0  0  0
 27 31  2  0  0  0  0
 28 32  2  0  0  0  0
 28 33  1  0  0  0  0
 29 30  2  0  0  0  0
 29 34  1  0  0  0  0
 30 32  1  0  0  0  0
 33 34  2  0  0  0  0
 35 41  1  0  0  0  0
 35 42  1  0  0  0  0
 35 43  1  0  0  0  0
 36 39  1  0  0  0  0
 37 40  1  0  0  0  0
 38 44  1  0  0  0  0
 44 46  2  0  0  0  0
M  END
> <PUBCHEM_COMPOUND_ID_TYPE>
0

> <PUBCHEM_TOTAL_CHARGE>
0

> <PUBCHEM_SUBSTANCE_ID>
310945232

> <PUBCHEM_SUBSTANCE_VERSION>
1

> <PUBCHEM_EXT_DATASOURCE_NAME>
4488

> <PUBCHEM_EXT_DATASOURCE_REGID>
SCHEMBL16123322

> <PUBCHEM_SUBSTANCE_COMMENT>
InChI=1S/C35H43N7O4/c1-6-30(43)38-28-19-23(8-9-29(28)41-16-14-40(5)15-17-41)26-18-24(10-12-36-26)27-20-25-31(39-27)35(21-37-32(25)44)11-7-13-42(22-35)33(45)46-34(2,3)4/h6,8-10,12,18-20,39H,1,7,11,13-17,21-22H2,2-5H3,(H,37,44)(H,38,43)
InChIKey=PJGDRSLHEQWKLF-UHFFFAOYSA-N

> <PUBCHEM_SUBSTANCE_SYNONYM>
SCHEMBL16123322

> <PUBCHEM_XREF_EXT_ID>
SCHEMBL16123322

> <PUBCHEM_EXT_DATASOURCE_URL>
https://www.surechembl.org/

> <PUBCHEM_EXT_SUBSTANCE_URL>
https://www.surechembl.org/chemical/SCHEMBL16123322

> <PUBCHEM_CID_ASSOCIATIONS>
117611304  1

> <PUBCHEM_COORDINATE_TYPE>
1
3

$$$$
