310948027
  -OEChem-07211613022D

 19 21  0     1  0  0  0  0  0999 V2000
    1.5975    1.9950    0.0000 O   0  0  0  0  0  0  0  0  0  0  0  0
    0.3018   -0.1841    0.0000 N   0  0  3  0  0  0  0  0  0  0  0  0
   -0.5227   -0.2871    0.0000 N   0  0  0  0  0  0  0  0  0  0  0  0
    0.0221   -1.5091    0.0000 N   0  0  0  0  0  0  0  0  0  0  0  0
    0.6405   -0.9497    0.0000 N   0  0  0  0  0  0  0  0  0  0  0  0
    2.7607    1.3472    0.0000 N   0  0  0  0  0  0  0  0  0  0  0  0
    2.9226    2.1570    0.0000 N   0  0  0  0  0  0  0  0  0  0  0  0
   -0.6993   -1.0675    0.0000 C   0  0  0  0  0  0  0  0  0  0  0  0
   -1.4356   -1.4061    0.0000 C   0  0  0  0  0  0  0  0  0  0  0  0
    1.5091    0.5668    0.0000 C   0  0  0  0  0  0  0  0  0  0  0  0
    1.9214    1.2883    0.0000 C   0  0  0  0  0  0  0  0  0  0  0  0
    0.6993    0.5374    0.0000 C   0  0  0  0  0  0  0  0  0  0  0  0
   -1.5386   -2.2453    0.0000 C   0  0  0  0  0  0  0  0  0  0  0  0
   -2.0981   -0.9350    0.0000 C   0  0  0  0  0  0  0  0  0  0  0  0
    2.1864    2.5693    0.0000 C   0  0  0  0  0  0  0  0  0  0  0  0
    1.9509   -0.1546    0.0000 C   0  0  0  0  0  0  0  0  0  0  0  0
   -2.2453   -2.5693    0.0000 C   0  0  0  0  0  0  0  0  0  0  0  0
   -2.8490   -1.2736    0.0000 C   0  0  0  0  0  0  0  0  0  0  0  0
   -2.9226   -2.0981    0.0000 C   0  0  0  0  0  0  0  0  0  0  0  0
  1 11  1  0  0  0  0
  1 15  1  0  0  0  0
  2  3  1  0  0  0  0
  2  5  1  0  0  0  0
  2 12  1  0  0  0  0
  3  8  2  0  0  0  0
  4  5  1  0  0  0  0
  4  8  1  0  0  0  0
  6  7  1  0  0  0  0
  6 11  2  0  0  0  0
  7 15  2  0  0  0  0
  8  9  1  0  0  0  0
  9 13  2  0  0  0  0
  9 14  1  0  0  0  0
 10 11  1  0  0  0  0
 10 12  1  0  0  0  0
 10 16  2  0  0  0  0
 13 17  1  0  0  0  0
 14 18  2  0  0  0  0
 17 19  2  0  0  0  0
 18 19  1  0  0  0  0
M  END
> <PUBCHEM_COMPOUND_ID_TYPE>
0

> <PUBCHEM_TOTAL_CHARGE>
0

> <PUBCHEM_SUBSTANCE_ID>
310948027

> <PUBCHEM_SUBSTANCE_VERSION>
1

> <PUBCHEM_EXT_DATASOURCE_NAME>
4488

> <PUBCHEM_EXT_DATASOURCE_REGID>
SCHEMBL16126202

> <PUBCHEM_SUBSTANCE_COMMENT>
InChI=1S/C12H12N6O/c1-9(12-15-13-8-19-12)7-18-16-11(14-17-18)10-5-3-2-4-6-10/h2-6,8,17H,1,7H2,(H,14,16)
InChIKey=FKQIVUCREHISKG-UHFFFAOYSA-N

> <PUBCHEM_SUBSTANCE_SYNONYM>
SCHEMBL16126202

> <PUBCHEM_XREF_EXT_ID>
SCHEMBL16126202

> <PUBCHEM_EXT_DATASOURCE_URL>
https://www.surechembl.org/

> <PUBCHEM_EXT_SUBSTANCE_URL>
https://www.surechembl.org/chemical/SCHEMBL16126202

> <PUBCHEM_CID_ASSOCIATIONS>
117613663  1

> <PUBCHEM_COORDINATE_TYPE>
1
3

$$$$
