310936815
  -OEChem-07211613022D

 44 48  0     1  0  0  0  0  0999 V2000
   -3.7614    4.4426    0.0000 S   0  0  0  0  0  0  0  0  0  0  0  0
    1.4290    1.6500    0.0000 F   0  0  0  0  0  0  0  0  0  0  0  0
    0.7145    2.0625    0.0000 F   0  0  0  0  0  0  0  0  0  0  0  0
    1.4290    0.8250    0.0000 F   0  0  0  0  0  0  0  0  0  0  0  0
   -1.4290   -1.6500    0.0000 F   0  0  0  0  0  0  0  0  0  0  0  0
   -0.7145   -2.0625    0.0000 F   0  0  0  0  0  0  0  0  0  0  0  0
    0.0000   -1.6500    0.0000 F   0  0  0  0  0  0  0  0  0  0  0  0
   -2.2297    2.0580    0.0000 O   0  0  0  0  0  0  0  0  0  0  0  0
   -3.3722    2.9832    0.0000 O   0  0  0  0  0  0  0  0  0  0  0  0
   -5.8014    5.0718    0.0000 O   0  0  0  0  0  0  0  0  0  0  0  0
   -3.4492    1.5151    0.0000 N   0  0  0  0  0  0  0  0  0  0  0  0
   -6.0600    2.6775    0.0000 N   0  0  0  0  0  0  0  0  0  0  0  0
   -5.9106    1.2564    0.0000 N   0  0  0  0  0  0  0  0  0  0  0  0
   -2.1434    1.2375    0.0000 C   0  0  3  0  0  0  0  0  0  0  0  0
   -2.8971    0.9020    0.0000 C   0  0  3  0  0  0  0  0  0  0  0  0
   -1.4290    0.8250    0.0000 C   0  0  0  0  0  0  0  0  0  0  0  0
   -3.0367    2.2295    0.0000 C   0  0  0  0  0  0  0  0  0  0  0  0
    0.0000    0.8250    0.0000 C   0  0  0  0  0  0  0  0  0  0  0  0
   -0.7145   -0.4125    0.0000 C   0  0  0  0  0  0  0  0  0  0  0  0
   -1.4290    0.0000    0.0000 C   0  0  0  0  0  0  0  0  0  0  0  0
   -0.7145    1.2375    0.0000 C   0  0  0  0  0  0  0  0  0  0  0  0
   -4.7546    2.0963    0.0000 C   0  0  0  0  0  0  0  0  0  0  0  0
   -4.2697    1.4288    0.0000 C   0  0  0  0  0  0  0  0  0  0  0  0
    0.0000    0.0000    0.0000 C   0  0  0  0  0  0  0  0  0  0  0  0
    0.7145    1.2375    0.0000 C   0  0  0  0  0  0  0  0  0  0  0  0
   -0.7145   -1.2375    0.0000 C   0  0  0  0  0  0  0  0  0  0  0  0
   -5.5751    2.0100    0.0000 C   0  0  0  0  0  0  0  0  0  0  0  0
   -4.9040    3.5174    0.0000 C   0  0  0  0  0  0  0  0  0  0  0  0
   -4.4191    2.8499    0.0000 C   0  0  0  0  0  0  0  0  0  0  0  0
   -4.5684    4.2711    0.0000 C   0  0  0  0  0  0  0  0  0  0  0  0
   -3.0686    0.0950    0.0000 C   0  0  0  0  0  0  0  0  0  0  0  0
   -5.7245    3.4312    0.0000 C   0  0  0  0  0  0  0  0  0  0  0  0
   -4.9809    4.9855    0.0000 C   0  0  0  0  0  0  0  0  0  0  0  0
   -5.4257    0.5889    0.0000 C   0  0  3  0  0  0  0  0  0  0  0  0
   -4.4288    5.5986    0.0000 C   0  0  0  0  0  0  0  0  0  0  0  0
   -3.6752    5.2631    0.0000 C   0  0  0  0  0  0  0  0  0  0  0  0
   -5.7613   -0.1648    0.0000 C   0  0  3  0  0  0  0  0  0  0  0  0
   -4.6052    0.6752    0.0000 C   0  0  0  0  0  0  0  0  0  0  0  0
   -5.2764   -0.8323    0.0000 C   0  0  0  0  0  0  0  0  0  0  0  0
   -6.5818   -0.2510    0.0000 C   0  0  0  0  0  0  0  0  0  0  0  0
   -4.1203    0.0077    0.0000 C   0  0  0  0  0  0  0  0  0  0  0  0
   -4.4558   -0.7460    0.0000 C   0  0  0  0  0  0  0  0  0  0  0  0
   -6.2863    4.4044    0.0000 C   0  0  0  0  0  0  0  0  0  0  0  0
   -7.0667    0.4164    0.0000 C   0  0  0  0  0  0  0  0  0  0  0  0
  1 30  1  0  0  0  0
  1 36  1  0  0  0  0
  2 25  1  0  0  0  0
  3 25  1  0  0  0  0
  4 25  1  0  0  0  0
  5 26  1  0  0  0  0
  6 26  1  0  0  0  0
  7 26  1  0  0  0  0
  8 14  1  0  0  0  0
  8 17  1  0  0  0  0
  9 17  2  0  0  0  0
 10 33  1  0  0  0  0
 10 43  1  0  0  0  0
 11 15  1  0  0  0  0
 11 17  1  0  0  0  0
 11 23  1  0  0  0  0
 12 27  2  0  0  0  0
 12 32  1  0  0  0  0
 13 27  1  0  0  0  0
 13 34  1  0  0  0  0
 14 15  1  0  0  0  0
 14 16  1  0  0  0  0
 15 31  1  0  0  0  0
 16 20  2  0  0  0  0
 16 21  1  0  0  0  0
 18 21  2  0  0  0  0
 18 24  1  0  0  0  0
 18 25  1  0  0  0  0
 19 20  1  0  0  0  0
 19 24  2  0  0  0  0
 19 26  1  0  0  0  0
 22 23  1  0  0  0  0
 22 27  1  0  0  0  0
 22 29  2  0  0  0  0
 28 29  1  0  0  0  0
 28 30  1  0  0  0  0
 28 32  2  0  0  0  0
 30 33  2  0  0  0  0
 33 35  1  0  0  0  0
 34 37  1  0  0  0  0
 34 38  1  0  0  0  0
 35 36  2  0  0  0  0
 37 39  1  0  0  0  0
 37 40  1  0  0  0  0
 38 41  1  0  0  0  0
 39 42  1  0  0  0  0
 40 44  1  0  0  0  0
 41 42  1  0  0  0  0
M  END
> <PUBCHEM_COMPOUND_ID_TYPE>
0

> <PUBCHEM_TOTAL_CHARGE>
0

> <PUBCHEM_SUBSTANCE_ID>
310936815

> <PUBCHEM_SUBSTANCE_VERSION>
1

> <PUBCHEM_EXT_DATASOURCE_NAME>
4488

> <PUBCHEM_EXT_DATASOURCE_REGID>
SCHEMBL16114502

> <PUBCHEM_SUBSTANCE_COMMENT>
InChI=1S/C31H33F6N3O3S/c1-4-18-7-5-6-8-24(18)39-28-21(11-20(15-38-28)27-25(42-3)9-10-44-27)16-40-17(2)26(43-29(40)41)19-12-22(30(32,33)34)14-23(13-19)31(35,36)37/h9-15,17-18,24,26H,4-8,16H2,1-3H3,(H,38,39)
InChIKey=DQKYNISXNRTSEH-UHFFFAOYSA-N

> <PUBCHEM_SUBSTANCE_SYNONYM>
SCHEMBL16114502

> <PUBCHEM_XREF_EXT_ID>
SCHEMBL16114502

> <PUBCHEM_EXT_DATASOURCE_URL>
https://www.surechembl.org/

> <PUBCHEM_EXT_SUBSTANCE_URL>
https://www.surechembl.org/chemical/SCHEMBL16114502

> <PUBCHEM_CID_ASSOCIATIONS>
117604708  1

> <PUBCHEM_COORDINATE_TYPE>
1
3

$$$$
