310940287
  -OEChem-07211613022D

 35 39  0     1  0  0  0  0  0999 V2000
    1.9237   -2.1078    0.0000 S   0  0  0  0  0  0  0  0  0  0  0  0
    1.9237   -2.9362    0.0000 O   0  0  0  0  0  0  0  0  0  0  0  0
    2.7153   -2.3103    0.0000 O   0  0  0  0  0  0  0  0  0  0  0  0
   -3.0835   -1.7397    0.0000 O   0  0  0  0  0  0  0  0  0  0  0  0
   -1.5740    0.5615    0.0000 N   0  0  0  0  0  0  0  0  0  0  0  0
    2.1815   -1.2978    0.0000 N   0  0  3  0  0  0  0  0  0  0  0  0
   -1.0953   -0.1197    0.0000 N   0  0  0  0  0  0  0  0  0  0  0  0
   -1.3346   -1.5556    0.0000 N   0  0  0  0  0  0  0  0  0  0  0  0
   -3.8015   -0.5062    0.0000 N   0  0  0  0  0  0  0  0  0  0  0  0
    0.8560    1.0585    0.0000 N   0  0  0  0  0  0  0  0  0  0  0  0
    1.0769   -2.0710    0.0000 C   0  0  0  0  0  0  0  0  0  0  0  0
   -2.3472    0.3221    0.0000 C   0  0  0  0  0  0  0  0  0  0  0  0
   -2.3839   -0.5062    0.0000 C   0  0  0  0  0  0  0  0  0  0  0  0
    0.8376   -1.2978    0.0000 C   0  0  0  0  0  0  0  0  0  0  0  0
   -1.3163    1.3346    0.0000 C   0  0  0  0  0  0  0  0  0  0  0  0
   -1.5924   -0.7824    0.0000 C   0  0  0  0  0  0  0  0  0  0  0  0
    1.5003   -0.8192    0.0000 C   0  0  0  0  0  0  0  0  0  0  0  0
    2.9914   -1.0401    0.0000 C   0  0  0  0  0  0  0  0  0  0  0  0
   -0.5431   -1.7397    0.0000 C   0  0  0  0  0  0  0  0  0  0  0  0
    0.0276   -1.1322    0.0000 C   0  0  0  0  0  0  0  0  0  0  0  0
   -3.0835   -0.8928    0.0000 C   0  0  0  0  0  0  0  0  0  0  0  0
    0.5431   -2.6785    0.0000 C   0  0  0  0  0  0  0  0  0  0  0  0
   -3.1019    0.7088    0.0000 C   0  0  0  0  0  0  0  0  0  0  0  0
   -0.2669   -2.5128    0.0000 C   0  0  0  0  0  0  0  0  0  0  0  0
   -2.1078    1.5924    0.0000 C   0  0  0  0  0  0  0  0  0  0  0  0
   -0.7272    1.8501    0.0000 C   0  0  0  0  0  0  0  0  0  0  0  0
   -0.7455    0.7272    0.0000 C   0  0  0  0  0  0  0  0  0  0  0  0
   -3.7646    0.3221    0.0000 C   0  0  0  0  0  0  0  0  0  0  0  0
    3.5989   -1.6292    0.0000 C   0  0  0  0  0  0  0  0  0  0  0  0
    3.1571   -0.2301    0.0000 C   0  0  0  0  0  0  0  0  0  0  0  0
    3.8015   -0.8560    0.0000 C   0  0  0  0  0  0  0  0  0  0  0  0
   -2.2551    2.4024    0.0000 C   0  0  0  0  0  0  0  0  0  0  0  0
   -0.8744    2.6601    0.0000 C   0  0  0  0  0  0  0  0  0  0  0  0
    0.0276    0.8744    0.0000 C   0  0  0  0  0  0  0  0  0  0  0  0
   -1.6476    2.9362    0.0000 C   0  0  0  0  0  0  0  0  0  0  0  0
  1  2  2  0  0  0  0
  1  3  2  0  0  0  0
  1  6  1  0  0  0  0
  1 11  1  0  0  0  0
  4 21  2  0  0  0  0
  5  7  1  0  0  0  0
  5 12  1  0  0  0  0
  5 15  1  0  0  0  0
  6 17  1  0  0  0  0
  6 18  1  0  0  0  0
  7 16  2  0  0  0  0
  8 16  1  0  0  0  0
  8 19  1  0  0  0  0
  9 21  1  0  0  0  0
  9 28  1  0  0  0  0
 10 34  3  0  0  0  0
 11 14  1  0  0  0  0
 11 22  2  0  0  0  0
 12 13  2  0  0  0  0
 12 23  1  0  0  0  0
 13 16  1  0  0  0  0
 13 21  1  0  0  0  0
 14 17  1  0  0  0  0
 14 20  2  0  0  0  0
 15 25  1  0  0  0  0
 15 26  1  0  0  0  0
 15 27  1  0  0  0  0
 18 29  1  0  0  0  0
 18 30  1  0  0  0  0
 18 31  1  0  0  0  0
 19 20  1  0  0  0  0
 19 24  2  0  0  0  0
 22 24  1  0  0  0  0
 23 28  2  0  0  0  0
 25 32  1  0  0  0  0
 26 33  1  0  0  0  0
 27 34  1  0  0  0  0
 32 35  1  0  0  0  0
 33 35  1  0  0  0  0
M  END
> <PUBCHEM_COMPOUND_ID_TYPE>
0

> <PUBCHEM_TOTAL_CHARGE>
0

> <PUBCHEM_SUBSTANCE_ID>
310940287

> <PUBCHEM_SUBSTANCE_VERSION>
1

> <PUBCHEM_EXT_DATASOURCE_NAME>
4488

> <PUBCHEM_EXT_DATASOURCE_REGID>
SCHEMBL16118230

> <PUBCHEM_SUBSTANCE_COMMENT>
InChI=1S/C25H30N6O3S/c1-24(2,3)30-16-17-15-18(7-8-20(17)35(30,33)34)28-22-21-19(9-14-27-23(21)32)31(29-22)25(12-13-26)10-5-4-6-11-25/h7-9,14-15H,4-6,10-12,16H2,1-3H3,(H,27,32)(H,28,29)
InChIKey=CBMGCCOYSLQIGL-UHFFFAOYSA-N

> <PUBCHEM_SUBSTANCE_SYNONYM>
SCHEMBL16118230

> <PUBCHEM_XREF_EXT_ID>
SCHEMBL16118230

> <PUBCHEM_EXT_DATASOURCE_URL>
https://www.surechembl.org/

> <PUBCHEM_EXT_SUBSTANCE_URL>
https://www.surechembl.org/chemical/SCHEMBL16118230

> <PUBCHEM_CID_ASSOCIATIONS>
86269263  1

> <PUBCHEM_COORDINATE_TYPE>
1
3

$$$$
