310936465
  -OEChem-07211613022D

 29 31  0     1  0  0  0  0  0999 V2000
    0.8267   -4.9976    0.0000 S   0  0  0  0  0  0  0  0  0  0  0  0
    0.8267   -4.1709    0.0000 O   0  0  0  0  0  0  0  0  0  0  0  0
    1.7285   -4.9976    0.0000 O   0  0  0  0  0  0  0  0  0  0  0  0
    0.0000   -4.9976    0.0000 O   0  0  0  0  0  0  0  0  0  0  0  0
    3.0061   -2.8933    0.0000 O   0  0  0  0  0  0  0  0  0  0  0  0
    4.4340   -2.8933    0.0000 O   0  0  0  0  0  0  0  0  0  0  0  0
    1.5406   -3.7576    0.0000 C   0  0  3  0  0  0  0  0  0  0  0  0
    0.8267   -5.8243    0.0000 C   0  0  0  0  0  0  0  0  0  0  0  0
    1.5406   -2.8933    0.0000 C   0  0  0  0  0  0  0  0  0  0  0  0
    2.2546   -4.1709    0.0000 C   0  0  0  0  0  0  0  0  0  0  0  0
    1.5406   -6.2752    0.0000 C   0  0  0  0  0  0  0  0  0  0  0  0
    0.1127   -6.2752    0.0000 C   0  0  0  0  0  0  0  0  0  0  0  0
    3.0061   -3.7576    0.0000 C   0  0  3  0  0  0  0  0  0  0  0  0
    0.8267   -2.4800    0.0000 C   0  0  0  0  0  0  0  0  0  0  0  0
    2.2546   -2.4800    0.0000 C   0  0  0  0  0  0  0  0  0  0  0  0
    3.7200   -2.4800    0.0000 C   0  0  0  0  0  0  0  0  0  0  0  0
    3.7200   -1.6533    0.0000 C   0  0  0  0  0  0  0  0  0  0  0  0
    1.5406   -7.0643    0.0000 C   0  0  0  0  0  0  0  0  0  0  0  0
    0.1127   -7.0643    0.0000 C   0  0  0  0  0  0  0  0  0  0  0  0
    0.8267   -7.5153    0.0000 C   0  0  0  0  0  0  0  0  0  0  0  0
    0.8267   -1.6533    0.0000 C   0  0  0  0  0  0  0  0  0  0  0  0
    2.2546   -1.6533    0.0000 C   0  0  0  0  0  0  0  0  0  0  0  0
    1.5406   -1.2400    0.0000 C   0  0  0  0  0  0  0  0  0  0  0  0
    4.4340   -1.2400    0.0000 C   0  0  0  0  0  0  0  0  0  0  0  0
    3.0061   -1.2400    0.0000 C   0  0  0  0  0  0  0  0  0  0  0  0
    3.7200   -4.1709    0.0000 C   0  0  0  0  0  0  0  0  0  0  0  0
    4.4340   -0.4133    0.0000 C   0  0  0  0  0  0  0  0  0  0  0  0
    3.0061   -0.4133    0.0000 C   0  0  0  0  0  0  0  0  0  0  0  0
    3.7200    0.0000    0.0000 C   0  0  0  0  0  0  0  0  0  0  0  0
  1  2  1  0  0  0  0
  1  3  2  0  0  0  0
  1  4  2  0  0  0  0
  1  8  1  0  0  0  0
  2  7  1  0  0  0  0
  5 13  1  0  0  0  0
  5 16  1  0  0  0  0
  6 16  2  0  0  0  0
  7  9  1  0  0  0  0
  7 10  1  0  0  0  0
  8 11  2  0  0  0  0
  8 12  1  0  0  0  0
  9 14  2  0  0  0  0
  9 15  1  0  0  0  0
 10 13  1  0  0  0  0
 11 18  1  0  0  0  0
 12 19  2  0  0  0  0
 13 26  1  0  0  0  0
 14 21  1  0  0  0  0
 15 22  2  0  0  0  0
 16 17  1  0  0  0  0
 17 24  2  0  0  0  0
 17 25  1  0  0  0  0
 18 20  2  0  0  0  0
 19 20  1  0  0  0  0
 21 23  2  0  0  0  0
 22 23  1  0  0  0  0
 24 27  1  0  0  0  0
 25 28  2  0  0  0  0
 27 29  2  0  0  0  0
 28 29  1  0  0  0  0
M  END
> <PUBCHEM_COMPOUND_ID_TYPE>
0

> <PUBCHEM_TOTAL_CHARGE>
0

> <PUBCHEM_SUBSTANCE_ID>
310936465

> <PUBCHEM_SUBSTANCE_VERSION>
1

> <PUBCHEM_EXT_DATASOURCE_NAME>
4488

> <PUBCHEM_EXT_DATASOURCE_REGID>
SCHEMBL16114109

> <PUBCHEM_SUBSTANCE_COMMENT>
InChI=1S/C23H22O5S/c1-18(27-23(24)20-13-7-3-8-14-20)17-22(19-11-5-2-6-12-19)28-29(25,26)21-15-9-4-10-16-21/h2-16,18,22H,17H2,1H3
InChIKey=WJPAWUHAOYOJKC-UHFFFAOYSA-N

> <PUBCHEM_SUBSTANCE_SYNONYM>
SCHEMBL16114109

> <PUBCHEM_XREF_EXT_ID>
SCHEMBL16114109

> <PUBCHEM_EXT_DATASOURCE_URL>
https://www.surechembl.org/

> <PUBCHEM_EXT_SUBSTANCE_URL>
https://www.surechembl.org/chemical/SCHEMBL16114109

> <PUBCHEM_CID_ASSOCIATIONS>
117604396  1

> <PUBCHEM_COORDINATE_TYPE>
1
3

$$$$
