310941187
  -OEChem-07211613022D

 41 44  0     1  0  0  0  0  0999 V2000
    5.0255    0.6737    0.0000 O   0  0  0  0  0  0  0  0  0  0  0  0
    3.9118   -1.2787    0.0000 O   0  0  0  0  0  0  0  0  0  0  0  0
    1.7669    0.7837    0.0000 O   0  0  0  0  0  0  0  0  0  0  0  0
   -0.3781   -1.2787    0.0000 O   0  0  0  0  0  0  0  0  0  0  0  0
   -2.5094    0.7837    0.0000 O   0  0  0  0  0  0  0  0  0  0  0  0
    3.9118   -2.9287    0.0000 O   0  0  0  0  0  0  0  0  0  0  0  0
    2.4818   -0.4537    0.0000 N   0  0  0  0  0  0  0  0  0  0  0  0
    0.3506   -0.0413    0.0000 N   0  0  0  0  0  0  0  0  0  0  0  0
   -1.7943   -0.4537    0.0000 N   0  0  0  0  0  0  0  0  0  0  0  0
   -4.5168   -0.7288    0.0000 N   0  0  3  0  0  0  0  0  0  0  0  0
    4.6268    0.0000    0.0000 C   0  0  3  0  0  0  0  0  0  0  0  0
    3.9118   -0.4125    0.0000 C   0  0  0  0  0  0  0  0  0  0  0  0
    4.2281    0.6875    0.0000 C   0  0  0  0  0  0  0  0  0  0  0  0
    3.1831   -0.0137    0.0000 C   0  0  3  0  0  0  0  0  0  0  0  0
    5.3556   -0.4263    0.0000 C   0  0  0  0  0  0  0  0  0  0  0  0
    3.1968    1.2924    0.0000 C   0  0  0  0  0  0  0  0  0  0  0  0
    1.7531   -0.0413    0.0000 C   0  0  0  0  0  0  0  0  0  0  0  0
    1.0656   -0.4263    0.0000 C   0  0  3  0  0  0  0  0  0  0  0  0
    2.4681    1.7187    0.0000 C   0  0  0  0  0  0  0  0  0  0  0  0
    1.0656   -1.2513    0.0000 C   0  0  0  0  0  0  0  0  0  0  0  0
   -0.3644   -0.4125    0.0000 C   0  0  0  0  0  0  0  0  0  0  0  0
    1.7806   -1.6500    0.0000 C   0  0  0  0  0  0  0  0  0  0  0  0
   -1.0931   -0.0137    0.0000 C   0  0  3  0  0  0  0  0  0  0  0  0
    2.4818    2.5300    0.0000 C   0  0  0  0  0  0  0  0  0  0  0  0
    1.7806    1.3062    0.0000 C   0  0  0  0  0  0  0  0  0  0  0  0
   -3.2106   -0.4263    0.0000 C   0  0  3  0  0  0  0  0  0  0  0  0
   -2.5094   -0.0413    0.0000 C   0  0  0  0  0  0  0  0  0  0  0  0
    1.7806   -2.4887    0.0000 C   0  0  0  0  0  0  0  0  0  0  0  0
    2.4681   -1.2650    0.0000 C   0  0  0  0  0  0  0  0  0  0  0  0
   -3.9668   -0.0962    0.0000 C   0  0  0  0  0  0  0  0  0  0  0  0
   -3.3068   -1.2513    0.0000 C   0  0  0  0  0  0  0  0  0  0  0  0
    1.7531    2.9287    0.0000 C   0  0  0  0  0  0  0  0  0  0  0  0
    1.0793    1.7050    0.0000 C   0  0  0  0  0  0  0  0  0  0  0  0
    3.1968   -2.4749    0.0000 C   0  0  0  0  0  0  0  0  0  0  0  0
   -4.1043   -1.4162    0.0000 C   0  0  0  0  0  0  0  0  0  0  0  0
    2.4955   -2.8875    0.0000 C   0  0  0  0  0  0  0  0  0  0  0  0
    3.1968   -1.6637    0.0000 C   0  0  0  0  0  0  0  0  0  0  0  0
    1.0793    2.5300    0.0000 C   0  0  0  0  0  0  0  0  0  0  0  0
   -1.0656    0.8250    0.0000 C   0  0  0  0  0  0  0  0  0  0  0  0
   -5.3556   -0.6187    0.0000 C   0  0  0  0  0  0  0  0  0  0  0  0
    4.6405   -2.5024    0.0000 C   0  0  0  0  0  0  0  0  0  0  0  0
  1 11  1  0  0  0  0
  1 13  1  0  0  0  0
  2 12  2  0  0  0  0
  3 17  2  0  0  0  0
  4 21  2  0  0  0  0
  5 27  2  0  0  0  0
  6 34  1  0  0  0  0
  6 41  1  0  0  0  0
  7 14  1  0  0  0  0
  7 17  1  0  0  0  0
  8 18  1  0  0  0  0
  8 21  1  0  0  0  0
  9 23  1  0  0  0  0
  9 27  1  0  0  0  0
 10 30  1  0  0  0  0
 10 35  1  0  0  0  0
 10 40  1  0  0  0  0
 11 12  1  0  0  0  0
 11 13  1  0  0  0  0
 11 15  1  0  0  0  0
 12 14  1  0  0  0  0
 14 16  1  0  0  0  0
 16 19  1  0  0  0  0
 17 18  1  0  0  0  0
 18 20  1  0  0  0  0
 19 24  2  0  0  0  0
 19 25  1  0  0  0  0
 20 22  1  0  0  0  0
 21 23  1  0  0  0  0
 22 28  2  0  0  0  0
 22 29  1  0  0  0  0
 23 39  1  0  0  0  0
 24 32  1  0  0  0  0
 25 33  2  0  0  0  0
 26 27  1  0  0  0  0
 26 30  1  0  0  0  0
 26 31  1  0  0  0  0
 28 36  1  0  0  0  0
 29 37  2  0  0  0  0
 31 35  1  0  0  0  0
 32 38  2  0  0  0  0
 33 38  1  0  0  0  0
 34 36  2  0  0  0  0
 34 37  1  0  0  0  0
M  END
> <PUBCHEM_COMPOUND_ID_TYPE>
0

> <PUBCHEM_TOTAL_CHARGE>
0

> <PUBCHEM_SUBSTANCE_ID>
310941187

> <PUBCHEM_SUBSTANCE_VERSION>
1

> <PUBCHEM_EXT_DATASOURCE_NAME>
4488

> <PUBCHEM_EXT_DATASOURCE_REGID>
SCHEMBL16119147

> <PUBCHEM_SUBSTANCE_COMMENT>
InChI=1S/C31H40N4O6/c1-20(32-29(38)23-14-15-35(3)18-23)28(37)34-26(17-22-10-12-24(40-4)13-11-22)30(39)33-25(27(36)31(2)19-41-31)16-21-8-6-5-7-9-21/h5-13,20,23,25-26H,14-19H2,1-4H3,(H,32,38)(H,33,39)(H,34,37)
InChIKey=QOFKBMGJDTYSRB-UHFFFAOYSA-N

> <PUBCHEM_SUBSTANCE_SYNONYM>
SCHEMBL16119147

> <PUBCHEM_XREF_EXT_ID>
SCHEMBL16119147

> <PUBCHEM_EXT_DATASOURCE_URL>
https://www.surechembl.org/

> <PUBCHEM_EXT_SUBSTANCE_URL>
https://www.surechembl.org/chemical/SCHEMBL16119147

> <PUBCHEM_CID_ASSOCIATIONS>
117608061  1

> <PUBCHEM_COORDINATE_TYPE>
1
3

$$$$
