310947118
  -OEChem-07211613022D

 18 19  0     1  0  0  0  0  0999 V2000
   -0.8734    1.8252    0.0000 S   0  0  0  0  0  0  0  0  0  0  0  0
   -0.0888    0.7453    0.0000 O   0  0  0  0  0  0  0  0  0  0  0  0
   -2.4672    0.0633    0.0000 O   0  0  0  0  0  0  0  0  0  0  0  0
    1.3402    1.5703    0.0000 O   0  0  0  0  0  0  0  0  0  0  0  0
   -1.0869   -0.3066    0.0000 N   0  0  0  0  0  0  0  0  0  0  0  0
   -2.0973   -1.3170    0.0000 N   0  0  0  0  0  0  0  0  0  0  0  0
   -1.7275   -2.6972    0.0000 N   0  0  0  0  0  0  0  0  0  0  0  0
   -0.8734    0.4903    0.0000 C   0  0  3  0  0  0  0  0  0  0  0  0
   -1.8838   -0.5201    0.0000 C   0  0  0  0  0  0  0  0  0  0  0  0
   -0.0888    1.5703    0.0000 C   0  0  3  0  0  0  0  0  0  0  0  0
   -1.3583    1.1578    0.0000 C   0  0  0  0  0  0  0  0  0  0  0  0
   -0.5035   -0.8899    0.0000 C   0  0  0  0  0  0  0  0  0  0  0  0
   -1.5140   -1.9003    0.0000 C   0  0  0  0  0  0  0  0  0  0  0  0
   -0.7171   -1.6868    0.0000 C   0  0  0  0  0  0  0  0  0  0  0  0
    0.6257    1.9828    0.0000 C   0  0  0  0  0  0  0  0  0  0  0  0
    2.0547    1.9828    0.0000 C   0  0  0  0  0  0  0  0  0  0  0  0
    1.6422    2.6972    0.0000 C   0  0  0  0  0  0  0  0  0  0  0  0
    2.4672    1.2683    0.0000 C   0  0  0  0  0  0  0  0  0  0  0  0
  1 10  1  0  0  0  0
  1 11  1  0  0  0  0
  2  8  1  0  0  0  0
  2 10  1  0  0  0  0
  3  9  2  0  0  0  0
  4 15  1  0  0  0  0
  4 16  1  0  0  0  0
  5  8  1  0  0  0  0
  5  9  1  0  0  0  0
  5 12  1  0  0  0  0
  6  9  1  0  0  0  0
  6 13  2  0  0  0  0
  7 13  1  0  0  0  0
  8 11  1  0  0  0  0
 10 15  1  0  0  0  0
 12 14  2  0  0  0  0
 13 14  1  0  0  0  0
 16 17  1  0  0  0  0
 16 18  1  0  0  0  0
M  END
> <PUBCHEM_COMPOUND_ID_TYPE>
0

> <PUBCHEM_TOTAL_CHARGE>
0

> <PUBCHEM_SUBSTANCE_ID>
310947118

> <PUBCHEM_SUBSTANCE_VERSION>
1

> <PUBCHEM_EXT_DATASOURCE_NAME>
4488

> <PUBCHEM_EXT_DATASOURCE_REGID>
SCHEMBL16125272

> <PUBCHEM_SUBSTANCE_COMMENT>
InChI=1S/C11H17N3O3S/c1-7(2)16-5-10-17-9(6-18-10)14-4-3-8(12)13-11(14)15/h3-4,7,9-10H,5-6H2,1-2H3,(H2,12,13,15)
InChIKey=MGPPFVTXJAOJJP-UHFFFAOYSA-N

> <PUBCHEM_SUBSTANCE_SYNONYM>
SCHEMBL16125272

> <PUBCHEM_XREF_EXT_ID>
SCHEMBL16125272

> <PUBCHEM_EXT_DATASOURCE_URL>
https://www.surechembl.org/

> <PUBCHEM_EXT_SUBSTANCE_URL>
https://www.surechembl.org/chemical/SCHEMBL16125272

> <PUBCHEM_CID_ASSOCIATIONS>
117612967  1

> <PUBCHEM_COORDINATE_TYPE>
1
3

> <PUBCHEM_BONDANNOTATIONS>
16  17  3
16  18  3

$$$$
