310948346
  -OEChem-07211613022D

 15 16  0     1  0  0  0  0  0999 V2000
   -0.9717    2.4109    0.0000 Br  0  0  0  0  0  0  0  0  0  0  0  0
   -0.8067   -0.8892    0.0000 S   0  0  0  0  0  0  0  0  0  0  0  0
   -0.8067   -1.7142    0.0000 O   0  0  0  0  0  0  0  0  0  0  0  0
   -1.6317   -0.9808    0.0000 O   0  0  0  0  0  0  0  0  0  0  0  0
    1.6684   -2.4109    0.0000 O   0  0  0  0  0  0  0  0  0  0  0  0
    0.0184   -0.9626    0.0000 N   0  0  3  0  0  0  0  0  0  0  0  0
   -0.9717   -0.0641    0.0000 C   0  0  0  0  0  0  0  0  0  0  0  0
   -0.2750    0.3392    0.0000 C   0  0  0  0  0  0  0  0  0  0  0  0
    0.3484   -0.1925    0.0000 C   0  0  0  0  0  0  0  0  0  0  0  0
   -1.6684    0.3392    0.0000 C   0  0  0  0  0  0  0  0  0  0  0  0
   -0.2750    1.1642    0.0000 C   0  0  0  0  0  0  0  0  0  0  0  0
    0.4217   -1.6593    0.0000 C   0  0  0  0  0  0  0  0  0  0  0  0
   -0.9900    1.5859    0.0000 C   0  0  0  0  0  0  0  0  0  0  0  0
   -1.6684    1.1825    0.0000 C   0  0  0  0  0  0  0  0  0  0  0  0
    1.2650   -1.6959    0.0000 C   0  0  0  0  0  0  0  0  0  0  0  0
  1 13  1  0  0  0  0
  2  3  2  0  0  0  0
  2  4  2  0  0  0  0
  2  6  1  0  0  0  0
  2  7  1  0  0  0  0
  5 15  1  0  0  0  0
  6  9  1  0  0  0  0
  6 12  1  0  0  0  0
  7  8  2  0  0  0  0
  7 10  1  0  0  0  0
  8  9  1  0  0  0  0
  8 11  1  0  0  0  0
 10 14  2  0  0  0  0
 11 13  2  0  0  0  0
 12 15  1  0  0  0  0
 13 14  1  0  0  0  0
M  END
> <PUBCHEM_COMPOUND_ID_TYPE>
0

> <PUBCHEM_TOTAL_CHARGE>
0

> <PUBCHEM_SUBSTANCE_ID>
310948346

> <PUBCHEM_SUBSTANCE_VERSION>
1

> <PUBCHEM_EXT_DATASOURCE_NAME>
4488

> <PUBCHEM_EXT_DATASOURCE_REGID>
SCHEMBL16126524

> <PUBCHEM_SUBSTANCE_COMMENT>
InChI=1S/C9H10BrNO3S/c10-8-1-2-9-7(5-8)6-11(3-4-12)15(9,13)14/h1-2,5,12H,3-4,6H2
InChIKey=IMKMCSGNFOPYTC-UHFFFAOYSA-N

> <PUBCHEM_SUBSTANCE_SYNONYM>
SCHEMBL16126524

> <PUBCHEM_XREF_EXT_ID>
SCHEMBL16126524

> <PUBCHEM_EXT_DATASOURCE_URL>
https://www.surechembl.org/

> <PUBCHEM_EXT_SUBSTANCE_URL>
https://www.surechembl.org/chemical/SCHEMBL16126524

> <PUBCHEM_CID_ASSOCIATIONS>
117613910  1

> <PUBCHEM_COORDINATE_TYPE>
1
3

$$$$
