310935422
  -OEChem-07211613022D

 24 24  0     1  0  0  0  0  0999 V2000
    7.3530   -2.8875    0.0000 P   0  0  0  0  0  0  0  0  0  0  0  0
    7.8931   -2.2639    0.0000 O   0  0  0  0  0  0  0  0  0  0  0  0
    7.9766   -3.4276    0.0000 O   0  0  0  0  0  0  0  0  0  0  0  0
    6.7293   -2.3474    0.0000 O   0  0  0  0  0  0  0  0  0  0  0  0
    4.9226   -2.4198    0.0000 O   0  0  0  0  0  0  0  0  0  0  0  0
    6.2728   -1.9520    0.0000 O   0  0  0  0  0  0  0  0  0  0  0  0
    6.8129   -3.5111    0.0000 N   0  0  3  0  0  0  0  0  0  0  0  0
    7.0829   -4.2907    0.0000 N   0  0  0  0  0  0  0  0  0  0  0  0
    6.0028   -3.3552    0.0000 C   0  0  3  0  0  0  0  0  0  0  0  0
    5.7327   -2.5757    0.0000 C   0  0  0  0  0  0  0  0  0  0  0  0
    7.8931   -4.4466    0.0000 C   0  0  0  0  0  0  0  0  0  0  0  0
    6.5428   -4.9143    0.0000 C   0  0  0  0  0  0  0  0  0  0  0  0
    5.4627   -3.9789    0.0000 C   0  0  0  0  0  0  0  0  0  0  0  0
    8.1631   -5.2262    0.0000 C   0  0  0  0  0  0  0  0  0  0  0  0
    6.8129   -5.6939    0.0000 C   0  0  0  0  0  0  0  0  0  0  0  0
    7.6230   -5.8498    0.0000 C   0  0  0  0  0  0  0  0  0  0  0  0
    4.6525   -1.6402    0.0000 C   0  0  0  0  0  0  0  0  0  0  0  0
    3.8424   -1.4843    0.0000 C   0  0  0  0  0  0  0  0  0  0  0  0
    3.5724   -0.7048    0.0000 C   0  0  0  0  0  0  0  0  0  0  0  0
    3.3023   -2.1079    0.0000 C   0  0  0  0  0  0  0  0  0  0  0  0
    2.7622   -0.5488    0.0000 C   0  0  0  0  0  0  0  0  0  0  0  0
    3.5724   -2.8875    0.0000 C   0  0  0  0  0  0  0  0  0  0  0  0
    2.4922    0.2307    0.0000 C   0  0  0  0  0  0  0  0  0  0  0  0
    3.0323   -3.5111    0.0000 C   0  0  0  0  0  0  0  0  0  0  0  0
  1  2  2  0  0  0  0
  1  3  1  0  0  0  0
  1  4  1  0  0  0  0
  1  7  1  0  0  0  0
  5 10  1  0  0  0  0
  5 17  1  0  0  0  0
  6 10  2  0  0  0  0
  7  8  1  0  0  0  0
  7  9  1  0  0  0  0
  8 11  1  0  0  0  0
  8 12  1  0  0  0  0
  9 10  1  0  0  0  0
  9 13  1  0  0  0  0
 11 14  1  0  0  0  0
 12 15  1  0  0  0  0
 14 16  1  0  0  0  0
 15 16  1  0  0  0  0
 17 18  1  0  0  0  0
 18 19  1  0  0  0  0
 18 20  1  0  0  0  0
 19 21  1  0  0  0  0
 20 22  1  0  0  0  0
 21 23  1  0  0  0  0
 22 24  1  0  0  0  0
M  END
> <PUBCHEM_COMPOUND_ID_TYPE>
0

> <PUBCHEM_TOTAL_CHARGE>
0

> <PUBCHEM_SUBSTANCE_ID>
310935422

> <PUBCHEM_SUBSTANCE_VERSION>
1

> <PUBCHEM_EXT_DATASOURCE_NAME>
4488

> <PUBCHEM_EXT_DATASOURCE_REGID>
SCHEMBL16112963

> <PUBCHEM_SUBSTANCE_COMMENT>
InChI=1S/C16H33N2O5P/c1-4-9-15(10-5-2)13-23-16(19)14(3)18(24(20,21)22)17-11-7-6-8-12-17/h14-15H,4-13H2,1-3H3,(H2,20,21,22)
InChIKey=FTDNVNJZAKTCCS-UHFFFAOYSA-N

> <PUBCHEM_SUBSTANCE_SYNONYM>
SCHEMBL16112963

> <PUBCHEM_XREF_EXT_ID>
SCHEMBL16112963

> <PUBCHEM_EXT_DATASOURCE_URL>
https://www.surechembl.org/

> <PUBCHEM_EXT_SUBSTANCE_URL>
https://www.surechembl.org/chemical/SCHEMBL16112963

> <PUBCHEM_CID_ASSOCIATIONS>
117603465  1

> <PUBCHEM_COORDINATE_TYPE>
1
3

$$$$
