310945536
  -OEChem-07211613022D

 23 25  0     1  0  0  0  0  0999 V2000
   -2.4109    1.5514    0.0000 O   0  0  0  0  0  0  0  0  0  0  0  0
    0.4006    0.8086    0.0000 N   0  0  0  0  0  0  0  0  0  0  0  0
    2.4109    1.7407    0.0000 N   0  0  0  0  0  0  0  0  0  0  0  0
   -0.3278   -1.4348    0.0000 N   0  0  0  0  0  0  0  0  0  0  0  0
    1.0562    1.3183    0.0000 C   0  0  0  0  0  0  0  0  0  0  0  0
   -0.2986    1.3038    0.0000 C   0  0  0  0  0  0  0  0  0  0  0  0
    0.8086    2.0758    0.0000 C   0  0  0  0  0  0  0  0  0  0  0  0
   -0.0218    2.0903    0.0000 C   0  0  0  0  0  0  0  0  0  0  0  0
    1.8719    1.1290    0.0000 C   0  0  0  0  0  0  0  0  0  0  0  0
    0.3860   -0.1821    0.0000 C   0  0  3  0  0  0  0  0  0  0  0  0
   -1.0707    1.1290    0.0000 C   0  0  0  0  0  0  0  0  0  0  0  0
    1.3620    2.6876    0.0000 C   0  0  0  0  0  0  0  0  0  0  0  0
   -0.5608    2.6876    0.0000 C   0  0  0  0  0  0  0  0  0  0  0  0
   -1.6242    1.7407    0.0000 C   0  0  0  0  0  0  0  0  0  0  0  0
   -1.3475    2.5128    0.0000 C   0  0  0  0  0  0  0  0  0  0  0  0
    2.1632    2.5128    0.0000 C   0  0  0  0  0  0  0  0  0  0  0  0
   -0.2986   -0.5899    0.0000 C   0  0  0  0  0  0  0  0  0  0  0  0
    2.1778    0.2403    0.0000 C   0  0  0  0  0  0  0  0  0  0  0  0
    1.1144   -0.5899    0.0000 C   0  0  0  0  0  0  0  0  0  0  0  0
   -1.0270   -1.8427    0.0000 C   0  0  0  0  0  0  0  0  0  0  0  0
    0.4006   -1.8572    0.0000 C   0  0  0  0  0  0  0  0  0  0  0  0
   -1.0124   -2.6876    0.0000 C   0  0  0  0  0  0  0  0  0  0  0  0
    0.4151   -2.6876    0.0000 C   0  0  0  0  0  0  0  0  0  0  0  0
  1 14  1  0  0  0  0
  2  5  1  0  0  0  0
  2  6  1  0  0  0  0
  2 10  1  0  0  0  0
  3  9  2  0  0  0  0
  3 16  1  0  0  0  0
  4 17  1  0  0  0  0
  4 20  1  0  0  0  0
  4 21  1  0  0  0  0
  5  7  2  0  0  0  0
  5  9  1  0  0  0  0
  6  8  2  0  0  0  0
  6 11  1  0  0  0  0
  7  8  1  0  0  0  0
  7 12  1  0  0  0  0
  8 13  1  0  0  0  0
  9 18  1  0  0  0  0
 10 17  1  0  0  0  0
 10 19  1  0  0  0  0
 11 14  2  0  0  0  0
 12 16  2  0  0  0  0
 13 15  2  0  0  0  0
 14 15  1  0  0  0  0
 20 22  1  0  0  0  0
 21 23  1  0  0  0  0
M  END
> <PUBCHEM_COMPOUND_ID_TYPE>
0

> <PUBCHEM_TOTAL_CHARGE>
0

> <PUBCHEM_SUBSTANCE_ID>
310945536

> <PUBCHEM_SUBSTANCE_VERSION>
1

> <PUBCHEM_EXT_DATASOURCE_NAME>
4488

> <PUBCHEM_EXT_DATASOURCE_REGID>
SCHEMBL16123634

> <PUBCHEM_SUBSTANCE_COMMENT>
InChI=1S/C19H25N3O/c1-5-21(6-2)12-13(3)22-18-11-15(23)7-8-16(18)17-9-10-20-14(4)19(17)22/h7-11,13,23H,5-6,12H2,1-4H3
InChIKey=YCDJAACSZMVDCQ-UHFFFAOYSA-N

> <PUBCHEM_SUBSTANCE_SYNONYM>
SCHEMBL16123634

> <PUBCHEM_XREF_EXT_ID>
SCHEMBL16123634

> <PUBCHEM_EXT_DATASOURCE_URL>
https://www.surechembl.org/

> <PUBCHEM_EXT_SUBSTANCE_URL>
https://www.surechembl.org/chemical/SCHEMBL16123634

> <PUBCHEM_CID_ASSOCIATIONS>
117611577  1

> <PUBCHEM_COORDINATE_TYPE>
1
3

$$$$
