310931392
  -OEChem-07211613022D

 20 21  0     1  0  0  0  0  0999 V2000
   -2.0367   -1.2991    0.0000 F   0  0  0  0  0  0  0  0  0  0  0  0
    0.1067   -0.0616    0.0000 O   0  0  0  0  0  0  0  0  0  0  0  0
    1.4574   -2.0811    0.0000 O   0  5  0  0  0  0  0  0  0  0  0  0
    1.0158   -0.7221    0.0000 O   0  0  0  0  0  0  0  0  0  0  0  0
   -3.4656   -1.2991    0.0000 O   0  5  0  0  0  0  0  0  0  0  0  0
   -4.1801   -0.0616    0.0000 O   0  0  0  0  0  0  0  0  0  0  0  0
   -0.6078   -1.2991    0.0000 N   0  0  0  0  0  0  0  0  0  0  0  0
   -3.4656   -0.4741    0.0000 N   0  3  0  0  0  0  0  0  0  0  0  0
   -1.3222   -0.0616    0.0000 C   0  0  0  0  0  0  0  0  0  0  0  0
   -0.6078   -0.4741    0.0000 C   0  0  0  0  0  0  0  0  0  0  0  0
   -2.0367   -0.4741    0.0000 C   0  0  0  0  0  0  0  0  0  0  0  0
    0.0597   -1.7840    0.0000 C   0  0  3  0  0  0  0  0  0  0  0  0
   -2.7512   -0.0616    0.0000 C   0  0  0  0  0  0  0  0  0  0  0  0
   -1.3222    0.7634    0.0000 C   0  0  0  0  0  0  0  0  0  0  0  0
   -1.2752   -1.7840    0.0000 C   0  0  0  0  0  0  0  0  0  0  0  0
   -0.1953   -2.5687    0.0000 C   0  0  0  0  0  0  0  0  0  0  0  0
   -2.7512    0.7634    0.0000 C   0  0  0  0  0  0  0  0  0  0  0  0
    0.8443   -1.5291    0.0000 C   0  0  0  0  0  0  0  0  0  0  0  0
   -2.0367    1.1759    0.0000 C   0  0  0  0  0  0  0  0  0  0  0  0
   -1.0203   -2.5687    0.0000 C   0  0  0  0  0  0  0  0  0  0  0  0
  1 11  1  0  0  0  0
  2 10  2  0  0  0  0
  3 18  1  0  0  0  0
  4 18  2  0  0  0  0
  5  8  1  0  0  0  0
  6  8  2  0  0  0  0
  7 10  1  6  0  0  0
  7 12  1  0  0  0  0
  7 15  1  0  0  0  0
  8 13  1  0  0  0  0
  9 10  1  0  0  0  0
  9 11  2  0  0  0  0
  9 14  1  0  0  0  0
 11 13  1  0  0  0  0
 12 16  1  0  0  0  0
 12 18  1  0  0  0  0
 13 17  2  0  0  0  0
 14 19  2  0  0  0  0
 15 20  1  0  0  0  0
 16 20  1  0  0  0  0
 17 19  1  0  0  0  0
M  CHG  3   3  -1   5  -1   8   1
M  END
> <PUBCHEM_COMPOUND_ID_TYPE>
0

> <PUBCHEM_TOTAL_CHARGE>
-1

> <PUBCHEM_SUBSTANCE_ID>
310931392

> <PUBCHEM_SUBSTANCE_VERSION>
1

> <PUBCHEM_EXT_DATASOURCE_NAME>
4488

> <PUBCHEM_EXT_DATASOURCE_REGID>
SCHEMBL16108716

> <PUBCHEM_SUBSTANCE_COMMENT>
InChI=1S/C12H11FN2O5/c13-10-7(3-1-4-8(10)15(19)20)11(16)14-6-2-5-9(14)12(17)18/h1,3-4,9H,2,5-6H2,(H,17,18)/p-1
InChIKey=MUHHFKGGFOXWCS-UHFFFAOYSA-M

> <PUBCHEM_SUBSTANCE_SYNONYM>
SCHEMBL16108716

> <PUBCHEM_XREF_EXT_ID>
SCHEMBL16108716

> <PUBCHEM_EXT_DATASOURCE_URL>
https://www.surechembl.org/

> <PUBCHEM_EXT_SUBSTANCE_URL>
https://www.surechembl.org/chemical/SCHEMBL16108716

> <PUBCHEM_CID_ASSOCIATIONS>
117600183  1
89525635  2

> <PUBCHEM_COORDINATE_TYPE>
1
3

> <PUBCHEM_BONDANNOTATIONS>
7  10  6

$$$$
