310941068
  -OEChem-07211613022D

 44 47  0     1  0  0  0  0  0999 V2000
    5.0778    0.6858    0.0000 O   0  0  0  0  0  0  0  0  0  0  0  0
    3.9418   -1.2815    0.0000 O   0  0  0  0  0  0  0  0  0  0  0  0
    1.7942    0.7967    0.0000 O   0  0  0  0  0  0  0  0  0  0  0  0
    1.0737   -2.9442    0.0000 O   0  0  0  0  0  0  0  0  0  0  0  0
    3.9418   -2.9442    0.0000 O   0  0  0  0  0  0  0  0  0  0  0  0
   -0.3672   -1.2815    0.0000 O   0  0  0  0  0  0  0  0  0  0  0  0
   -2.5285    0.7967    0.0000 O   0  0  0  0  0  0  0  0  0  0  0  0
   -5.3966    0.7967    0.0000 O   0  0  0  0  0  0  0  0  0  0  0  0
    2.5146   -0.4364    0.0000 N   0  0  0  0  0  0  0  0  0  0  0  0
    0.3534   -0.0208    0.0000 N   0  0  0  0  0  0  0  0  0  0  0  0
   -1.7942   -0.4364    0.0000 N   0  0  0  0  0  0  0  0  0  0  0  0
   -3.9556   -0.0208    0.0000 N   0  0  0  0  0  0  0  0  0  0  0  0
    4.6622   -0.0070    0.0000 C   0  0  3  0  0  0  0  0  0  0  0  0
    3.9556   -0.4226    0.0000 C   0  0  0  0  0  0  0  0  0  0  0  0
    4.2742    0.6997    0.0000 C   0  0  0  0  0  0  0  0  0  0  0  0
    3.2213   -0.0208    0.0000 C   0  0  3  0  0  0  0  0  0  0  0  0
    5.3966   -0.4642    0.0000 C   0  0  0  0  0  0  0  0  0  0  0  0
    3.2351    1.2954    0.0000 C   0  0  0  0  0  0  0  0  0  0  0  0
    1.7942   -0.0485    0.0000 C   0  0  0  0  0  0  0  0  0  0  0  0
    1.0737   -0.4364    0.0000 C   0  0  3  0  0  0  0  0  0  0  0  0
    2.5008    1.7249    0.0000 C   0  0  0  0  0  0  0  0  0  0  0  0
    1.7942   -1.6834    0.0000 C   0  0  0  0  0  0  0  0  0  0  0  0
    1.0737   -1.2539    0.0000 C   0  0  0  0  0  0  0  0  0  0  0  0
    1.7942   -2.5146    0.0000 C   0  0  0  0  0  0  0  0  0  0  0  0
   -0.3534   -0.4226    0.0000 C   0  0  0  0  0  0  0  0  0  0  0  0
    2.5146   -1.2815    0.0000 C   0  0  0  0  0  0  0  0  0  0  0  0
    2.5008   -2.9164    0.0000 C   0  0  0  0  0  0  0  0  0  0  0  0
    1.8081    1.3093    0.0000 C   0  0  0  0  0  0  0  0  0  0  0  0
    2.5008    2.5424    0.0000 C   0  0  0  0  0  0  0  0  0  0  0  0
    3.2213   -2.5008    0.0000 C   0  0  0  0  0  0  0  0  0  0  0  0
   -1.1015   -0.0208    0.0000 C   0  0  3  0  0  0  0  0  0  0  0  0
    3.2213   -1.6834    0.0000 C   0  0  0  0  0  0  0  0  0  0  0  0
    1.0737    1.7249    0.0000 C   0  0  0  0  0  0  0  0  0  0  0  0
    1.7803    2.9442    0.0000 C   0  0  0  0  0  0  0  0  0  0  0  0
    1.0737    2.5424    0.0000 C   0  0  0  0  0  0  0  0  0  0  0  0
   -2.5285   -0.0485    0.0000 C   0  0  0  0  0  0  0  0  0  0  0  0
   -1.0737    0.8243    0.0000 C   0  0  0  0  0  0  0  0  0  0  0  0
   -3.2213   -0.4364    0.0000 C   0  0  0  0  0  0  0  0  0  0  0  0
    0.3394   -2.5285    0.0000 C   0  0  0  0  0  0  0  0  0  0  0  0
    4.6899   -2.5008    0.0000 C   0  0  0  0  0  0  0  0  0  0  0  0
   -3.9556    0.7967    0.0000 C   0  0  0  0  0  0  0  0  0  0  0  0
   -4.6622   -0.4364    0.0000 C   0  0  0  0  0  0  0  0  0  0  0  0
   -4.6899    1.2123    0.0000 C   0  0  0  0  0  0  0  0  0  0  0  0
   -5.3966   -0.0208    0.0000 C   0  0  0  0  0  0  0  0  0  0  0  0
  1 13  1  0  0  0  0
  1 15  1  0  0  0  0
  2 14  2  0  0  0  0
  3 19  2  0  0  0  0
  4 24  1  0  0  0  0
  4 39  1  0  0  0  0
  5 30  1  0  0  0  0
  5 40  1  0  0  0  0
  6 25  2  0  0  0  0
  7 36  2  0  0  0  0
  8 43  1  0  0  0  0
  8 44  1  0  0  0  0
  9 16  1  0  0  0  0
  9 19  1  0  0  0  0
 10 20  1  0  0  0  0
 10 25  1  0  0  0  0
 11 31  1  0  0  0  0
 11 36  1  0  0  0  0
 12 38  1  0  0  0  0
 12 41  1  0  0  0  0
 12 42  1  0  0  0  0
 13 14  1  0  0  0  0
 13 15  1  0  0  0  0
 13 17  1  0  0  0  0
 14 16  1  0  0  0  0
 16 18  1  0  0  0  0
 18 21  1  0  0  0  0
 19 20  1  0  0  0  0
 20 23  1  0  0  0  0
 21 28  2  0  0  0  0
 21 29  1  0  0  0  0
 22 23  1  0  0  0  0
 22 24  1  0  0  0  0
 22 26  2  0  0  0  0
 24 27  2  0  0  0  0
 25 31  1  0  0  0  0
 26 32  1  0  0  0  0
 27 30  1  0  0  0  0
 28 33  1  0  0  0  0
 29 34  2  0  0  0  0
 30 32  2  0  0  0  0
 31 37  1  0  0  0  0
 33 35  2  0  0  0  0
 34 35  1  0  0  0  0
 36 38  1  0  0  0  0
 41 43  1  0  0  0  0
 42 44  1  0  0  0  0
M  END
> <PUBCHEM_COMPOUND_ID_TYPE>
0

> <PUBCHEM_TOTAL_CHARGE>
0

> <PUBCHEM_SUBSTANCE_ID>
310941068

> <PUBCHEM_SUBSTANCE_VERSION>
1

> <PUBCHEM_EXT_DATASOURCE_NAME>
4488

> <PUBCHEM_EXT_DATASOURCE_REGID>
SCHEMBL16119028

> <PUBCHEM_SUBSTANCE_COMMENT>
InChI=1S/C32H42N4O8/c1-21(33-28(37)19-36-12-14-43-15-13-36)30(39)35-26(17-23-10-11-24(41-3)18-27(23)42-4)31(40)34-25(29(38)32(2)20-44-32)16-22-8-6-5-7-9-22/h5-11,18,21,25-26H,12-17,19-20H2,1-4H3,(H,33,37)(H,34,40)(H,35,39)
InChIKey=ILHDQBNUJBQIMZ-UHFFFAOYSA-N

> <PUBCHEM_SUBSTANCE_SYNONYM>
SCHEMBL16119028

> <PUBCHEM_XREF_EXT_ID>
SCHEMBL16119028

> <PUBCHEM_EXT_DATASOURCE_URL>
https://www.surechembl.org/

> <PUBCHEM_EXT_SUBSTANCE_URL>
https://www.surechembl.org/chemical/SCHEMBL16119028

> <PUBCHEM_CID_ASSOCIATIONS>
117607959  1

> <PUBCHEM_COORDINATE_TYPE>
1
3

$$$$
