310940808
  -OEChem-07211613022D

 42 46  0     1  0  0  0  0  0999 V2000
    5.2052   -1.5939    0.0000 O   0  0  0  0  0  0  0  0  0  0  0  0
    4.0709    0.3734    0.0000 O   0  0  0  0  0  0  0  0  0  0  0  0
    1.7015   -1.5795    0.0000 O   0  0  0  0  0  0  0  0  0  0  0  0
   -0.4667    0.4882    0.0000 O   0  0  0  0  0  0  0  0  0  0  0  0
   -2.6349   -1.5795    0.0000 O   0  0  0  0  0  0  0  0  0  0  0  0
   -5.5068   -1.5795    0.0000 O   0  0  0  0  0  0  0  0  0  0  0  0
    2.4195   -0.3446    0.0000 N   0  0  0  0  0  0  0  0  0  0  0  0
    3.0082    1.1774    0.0000 N   0  0  0  0  0  0  0  0  0  0  0  0
    0.2513   -0.7610    0.0000 N   0  0  0  0  0  0  0  0  0  0  0  0
   -1.9026   -0.3446    0.0000 N   0  0  0  0  0  0  0  0  0  0  0  0
   -4.0709   -0.7610    0.0000 N   0  0  0  0  0  0  0  0  0  0  0  0
    4.8032   -0.8616    0.0000 C   0  0  3  0  0  0  0  0  0  0  0  0
    4.0709   -0.4595    0.0000 C   0  0  0  0  0  0  0  0  0  0  0  0
    4.4011   -1.5652    0.0000 C   0  0  0  0  0  0  0  0  0  0  0  0
    3.3673   -0.8472    0.0000 C   0  0  3  0  0  0  0  0  0  0  0  0
    5.5068   -0.4308    0.0000 C   0  0  0  0  0  0  0  0  0  0  0  0
    1.6872    0.9333    0.0000 C   0  0  0  0  0  0  0  0  0  0  0  0
    1.7015   -0.7036    0.0000 C   0  0  0  0  0  0  0  0  0  0  0  0
    1.7877    1.7662    0.0000 C   0  0  0  0  0  0  0  0  0  0  0  0
    0.9692   -0.3015    0.0000 C   0  0  3  0  0  0  0  0  0  0  0  0
    3.3529   -1.9241    0.0000 C   0  0  0  0  0  0  0  0  0  0  0  0
    2.5918    1.9385    0.0000 C   0  0  0  0  0  0  0  0  0  0  0  0
    0.9836    0.5169    0.0000 C   0  0  0  0  0  0  0  0  0  0  0  0
    2.6349   -2.3405    0.0000 C   0  0  0  0  0  0  0  0  0  0  0  0
    2.4626    0.6031    0.0000 C   0  0  0  0  0  0  0  0  0  0  0  0
    1.2420    2.3692    0.0000 C   0  0  0  0  0  0  0  0  0  0  0  0
    2.8503    2.7283    0.0000 C   0  0  0  0  0  0  0  0  0  0  0  0
   -0.4810   -0.3302    0.0000 C   0  0  0  0  0  0  0  0  0  0  0  0
    1.8739   -2.0103    0.0000 C   0  0  0  0  0  0  0  0  0  0  0  0
    2.5344   -3.1590    0.0000 C   0  0  0  0  0  0  0  0  0  0  0  0
    1.4861    3.1590    0.0000 C   0  0  0  0  0  0  0  0  0  0  0  0
    2.3047    3.3169    0.0000 C   0  0  0  0  0  0  0  0  0  0  0  0
   -1.1703   -0.7180    0.0000 C   0  0  3  0  0  0  0  0  0  0  0  0
    1.3282   -2.6133    0.0000 C   0  0  0  0  0  0  0  0  0  0  0  0
    1.7302   -3.3169    0.0000 C   0  0  0  0  0  0  0  0  0  0  0  0
   -2.6205   -0.7036    0.0000 C   0  0  0  0  0  0  0  0  0  0  0  0
   -1.1846   -1.5652    0.0000 C   0  0  0  0  0  0  0  0  0  0  0  0
   -3.3529   -0.3159    0.0000 C   0  0  0  0  0  0  0  0  0  0  0  0
   -4.0709   -1.5508    0.0000 C   0  0  0  0  0  0  0  0  0  0  0  0
   -4.8175   -0.3159    0.0000 C   0  0  0  0  0  0  0  0  0  0  0  0
   -4.7601   -1.9528    0.0000 C   0  0  0  0  0  0  0  0  0  0  0  0
   -5.4924   -0.7180    0.0000 C   0  0  0  0  0  0  0  0  0  0  0  0
  1 12  1  0  0  0  0
  1 14  1  0  0  0  0
  2 13  2  0  0  0  0
  3 18  2  0  0  0  0
  4 28  2  0  0  0  0
  5 36  2  0  0  0  0
  6 41  1  0  0  0  0
  6 42  1  0  0  0  0
  7 15  1  0  0  0  0
  7 18  1  0  0  0  0
  8 22  1  0  0  0  0
  8 25  1  0  0  0  0
  9 20  1  0  0  0  0
  9 28  1  0  0  0  0
 10 33  1  0  0  0  0
 10 36  1  0  0  0  0
 11 38  1  0  0  0  0
 11 39  1  0  0  0  0
 11 40  1  0  0  0  0
 12 13  1  0  0  0  0
 12 14  1  0  0  0  0
 12 16  1  0  0  0  0
 13 15  1  0  0  0  0
 15 21  1  0  0  0  0
 17 19  1  0  0  0  0
 17 23  1  0  0  0  0
 17 25  2  0  0  0  0
 18 20  1  0  0  0  0
 19 22  1  0  0  0  0
 19 26  2  0  0  0  0
 20 23  1  0  0  0  0
 21 24  1  0  0  0  0
 22 27  2  0  0  0  0
 24 29  1  0  0  0  0
 24 30  1  0  0  0  0
 26 31  1  0  0  0  0
 27 32  1  0  0  0  0
 28 33  1  0  0  0  0
 29 34  1  0  0  0  0
 30 35  1  0  0  0  0
 31 32  2  0  0  0  0
 33 37  1  0  0  0  0
 34 35  1  0  0  0  0
 36 38  1  0  0  0  0
 39 41  1  0  0  0  0
 40 42  1  0  0  0  0
M  END
> <PUBCHEM_COMPOUND_ID_TYPE>
0

> <PUBCHEM_TOTAL_CHARGE>
0

> <PUBCHEM_SUBSTANCE_ID>
310940808

> <PUBCHEM_SUBSTANCE_VERSION>
1

> <PUBCHEM_EXT_DATASOURCE_NAME>
4488

> <PUBCHEM_EXT_DATASOURCE_REGID>
SCHEMBL16118767

> <PUBCHEM_SUBSTANCE_COMMENT>
InChI=1S/C31H43N5O6/c1-20(33-27(37)18-36-11-13-41-14-12-36)29(39)35-26(16-22-17-32-24-10-6-5-9-23(22)24)30(40)34-25(15-21-7-3-4-8-21)28(38)31(2)19-42-31/h5-6,9-10,17,20-21,25-26,32H,3-4,7-8,11-16,18-19H2,1-2H3,(H,33,37)(H,34,40)(H,35,39)
InChIKey=ZKCYWIKGCWXMCZ-UHFFFAOYSA-N

> <PUBCHEM_SUBSTANCE_SYNONYM>
SCHEMBL16118767

> <PUBCHEM_XREF_EXT_ID>
SCHEMBL16118767

> <PUBCHEM_EXT_DATASOURCE_URL>
https://www.surechembl.org/

> <PUBCHEM_EXT_SUBSTANCE_URL>
https://www.surechembl.org/chemical/SCHEMBL16118767

> <PUBCHEM_CID_ASSOCIATIONS>
86296726  1

> <PUBCHEM_COORDINATE_TYPE>
1
3

$$$$
