310934405
  -OEChem-07211613022D

 33 36  0     1  0  0  0  0  0999 V2000
   -5.0013   -1.2696    0.0000 O   0  0  0  0  0  0  0  0  0  0  0  0
   -2.1434   -4.5696    0.0000 O   0  0  0  0  0  0  0  0  0  0  0  0
   -1.4290   -3.3321    0.0000 O   0  0  0  0  0  0  0  0  0  0  0  0
   -6.4302   -1.2696    0.0000 N   0  0  0  0  0  0  0  0  0  0  0  0
   -6.8427    2.4750    0.0000 N   0  0  0  0  0  0  0  0  0  0  0  0
   -6.0177    2.4750    0.0000 N   0  0  0  0  0  0  0  0  0  0  0  0
   -5.0013   -2.0946    0.0000 N   0  0  0  0  0  0  0  0  0  0  0  0
   -6.4302    1.2054    0.0000 C   0  0  0  0  0  0  0  0  0  0  0  0
   -6.4302    0.3804    0.0000 C   0  0  0  0  0  0  0  0  0  0  0  0
   -5.7158   -0.8571    0.0000 C   0  0  0  0  0  0  0  0  0  0  0  0
   -7.0977    1.6904    0.0000 C   0  0  0  0  0  0  0  0  0  0  0  0
   -5.7628    1.6904    0.0000 C   0  0  0  0  0  0  0  0  0  0  0  0
   -5.7158   -0.0321    0.0000 C   0  0  0  0  0  0  0  0  0  0  0  0
   -6.4302   -2.0946    0.0000 C   0  0  3  0  0  0  0  0  0  0  0  0
   -7.1447   -0.0321    0.0000 C   0  0  0  0  0  0  0  0  0  0  0  0
   -7.1447   -0.8571    0.0000 C   0  0  0  0  0  0  0  0  0  0  0  0
   -7.1447   -2.5071    0.0000 C   0  0  0  0  0  0  0  0  0  0  0  0
   -5.7158   -2.5071    0.0000 C   0  0  0  0  0  0  0  0  0  0  0  0
   -7.8592   -2.0946    0.0000 C   0  0  0  0  0  0  0  0  0  0  0  0
   -7.8823    1.4354    0.0000 C   0  0  0  0  0  0  0  0  0  0  0  0
   -4.9782    1.4354    0.0000 C   0  0  0  0  0  0  0  0  0  0  0  0
   -4.2868   -2.5071    0.0000 C   0  0  0  0  0  0  0  0  0  0  0  0
   -2.8579   -3.3321    0.0000 C   0  0  0  0  0  0  0  0  0  0  0  0
   -4.2868   -3.3321    0.0000 C   0  0  0  0  0  0  0  0  0  0  0  0
   -3.5724   -2.0946    0.0000 C   0  0  0  0  0  0  0  0  0  0  0  0
   -8.5736   -2.5071    0.0000 C   0  0  0  0  0  0  0  0  0  0  0  0
   -7.8592   -1.2696    0.0000 C   0  0  0  0  0  0  0  0  0  0  0  0
   -3.5724   -3.7446    0.0000 C   0  0  0  0  0  0  0  0  0  0  0  0
   -2.8579   -2.5071    0.0000 C   0  0  0  0  0  0  0  0  0  0  0  0
   -2.1434   -3.7446    0.0000 C   0  0  0  0  0  0  0  0  0  0  0  0
   -9.2881   -2.0946    0.0000 C   0  0  0  0  0  0  0  0  0  0  0  0
   -8.5736   -0.8571    0.0000 C   0  0  0  0  0  0  0  0  0  0  0  0
   -9.2881   -1.2696    0.0000 C   0  0  0  0  0  0  0  0  0  0  0  0
  1 10  2  0  0  0  0
  2 30  2  0  0  0  0
  3 30  1  0  0  0  0
  4 10  1  0  0  0  0
  4 14  1  0  0  0  0
  4 16  1  0  0  0  0
  5  6  1  0  0  0  0
  5 11  2  0  0  0  0
  6 12  1  0  0  0  0
  7 18  1  0  0  0  0
  7 22  1  0  0  0  0
  8  9  1  0  0  0  0
  8 11  1  0  0  0  0
  8 12  2  0  0  0  0
  9 13  2  0  0  0  0
  9 15  1  0  0  0  0
 10 13  1  0  0  0  0
 11 20  1  0  0  0  0
 12 21  1  0  0  0  0
 14 17  1  0  0  0  0
 14 18  1  0  0  0  0
 15 16  2  0  0  0  0
 17 19  1  0  0  0  0
 19 26  2  0  0  0  0
 19 27  1  0  0  0  0
 22 24  2  0  0  0  0
 22 25  1  0  0  0  0
 23 28  2  0  0  0  0
 23 29  1  0  0  0  0
 23 30  1  0  0  0  0
 24 28  1  0  0  0  0
 25 29  2  0  0  0  0
 26 31  1  0  0  0  0
 27 32  2  0  0  0  0
 31 33  2  0  0  0  0
 32 33  1  0  0  0  0
M  END
> <PUBCHEM_COMPOUND_ID_TYPE>
0

> <PUBCHEM_TOTAL_CHARGE>
0

> <PUBCHEM_SUBSTANCE_ID>
310934405

> <PUBCHEM_SUBSTANCE_VERSION>
1

> <PUBCHEM_EXT_DATASOURCE_NAME>
4488

> <PUBCHEM_EXT_DATASOURCE_REGID>
SCHEMBL16111878

> <PUBCHEM_SUBSTANCE_COMMENT>
InChI=1S/C26H26N4O3/c1-17-25(18(2)29-28-17)21-12-13-30(24(31)15-21)23(14-19-6-4-3-5-7-19)16-27-22-10-8-20(9-11-22)26(32)33/h3-13,15,23,27H,14,16H2,1-2H3,(H,28,29)(H,32,33)
InChIKey=GAAWPGJQYOFPFF-UHFFFAOYSA-N

> <PUBCHEM_SUBSTANCE_SYNONYM>
SCHEMBL16111878

> <PUBCHEM_XREF_EXT_ID>
SCHEMBL16111878

> <PUBCHEM_EXT_DATASOURCE_URL>
https://www.surechembl.org/

> <PUBCHEM_EXT_SUBSTANCE_URL>
https://www.surechembl.org/chemical/SCHEMBL16111878

> <PUBCHEM_CID_ASSOCIATIONS>
117602626  1

> <PUBCHEM_COORDINATE_TYPE>
1
3

$$$$
