310942329
  -OEChem-07211613022D

 37 40  0     1  0  0  0  0  0999 V2000
   -1.1537    0.6892    0.0000 Cl  0  0  0  0  0  0  0  0  0  0  0  0
   -1.1231   -1.9348    0.0000 O   0  0  0  0  0  0  0  0  0  0  0  0
   -2.5423    0.5564    0.0000 O   0  0  0  0  0  0  0  0  0  0  0  0
   -3.9615   -1.9348    0.0000 O   0  0  0  0  0  0  0  0  0  0  0  0
    5.3909    0.8934    0.0000 O   0  0  0  0  0  0  0  0  0  0  0  0
    0.8883   -0.4135    0.0000 N   0  0  0  0  0  0  0  0  0  0  0  0
    1.6847   -0.5769    0.0000 N   0  0  0  0  0  0  0  0  0  0  0  0
   -1.8378   -0.6892    0.0000 N   0  0  0  0  0  0  0  0  0  0  0  0
    3.2570    1.3222    0.0000 N   0  0  0  0  0  0  0  0  0  0  0  0
   -4.6762   -0.6892    0.0000 N   0  0  0  0  0  0  0  0  0  0  0  0
    0.4594    0.3114    0.0000 C   0  0  0  0  0  0  0  0  0  0  0  0
   -0.4186   -0.6892    0.0000 C   0  0  0  0  0  0  0  0  0  0  0  0
    0.3370   -1.0261    0.0000 C   0  0  0  0  0  0  0  0  0  0  0  0
   -0.3165    0.1480    0.0000 C   0  0  0  0  0  0  0  0  0  0  0  0
    0.8066    1.0772    0.0000 C   0  0  3  0  0  0  0  0  0  0  0  0
   -1.1231   -1.0670    0.0000 C   0  0  0  0  0  0  0  0  0  0  0  0
    0.5820   -1.8020    0.0000 C   0  0  0  0  0  0  0  0  0  0  0  0
    1.6234    1.1589    0.0000 C   0  0  0  0  0  0  0  0  0  0  0  0
    1.9399   -1.3529    0.0000 C   0  0  0  0  0  0  0  0  0  0  0  0
    1.3988   -1.9859    0.0000 C   0  0  0  0  0  0  0  0  0  0  0  0
    0.3165    1.7408    0.0000 C   0  0  0  0  0  0  0  0  0  0  0  0
    1.9603    1.9144    0.0000 C   0  0  0  0  0  0  0  0  0  0  0  0
    2.0930    0.4952    0.0000 C   0  0  0  0  0  0  0  0  0  0  0  0
   -3.2570   -0.6790    0.0000 C   0  0  0  0  0  0  0  0  0  0  0  0
   -2.5321   -1.0976    0.0000 C   0  0  0  0  0  0  0  0  0  0  0  0
   -3.2468    0.1480    0.0000 C   0  0  0  0  0  0  0  0  0  0  0  0
   -3.9615   -1.0772    0.0000 C   0  0  0  0  0  0  0  0  0  0  0  0
    2.7772    1.9859    0.0000 C   0  0  0  0  0  0  0  0  0  0  0  0
    2.9201    0.5667    0.0000 C   0  0  0  0  0  0  0  0  0  0  0  0
   -3.9615    0.5564    0.0000 C   0  0  0  0  0  0  0  0  0  0  0  0
   -4.6660    0.1480    0.0000 C   0  0  0  0  0  0  0  0  0  0  0  0
    4.0840    1.3937    0.0000 C   0  0  0  0  0  0  0  0  0  0  0  0
    4.5946    0.7607    0.0000 C   0  0  0  0  0  0  0  0  0  0  0  0
   -5.3909    0.5564    0.0000 C   0  0  0  0  0  0  0  0  0  0  0  0
   -2.5321    1.3630    0.0000 C   0  0  0  0  0  0  0  0  0  0  0  0
    5.0132    0.0561    0.0000 C   0  0  0  0  0  0  0  0  0  0  0  0
    4.2882   -0.0153    0.0000 C   0  0  0  0  0  0  0  0  0  0  0  0
  1 14  1  0  0  0  0
  2 16  2  0  0  0  0
  3 26  1  0  0  0  0
  3 35  1  0  0  0  0
  4 27  2  0  0  0  0
  5 33  1  0  0  0  0
  6  7  1  0  0  0  0
  6 11  1  0  0  0  0
  6 13  1  0  0  0  0
  7 19  2  0  0  0  0
  8 16  1  0  0  0  0
  8 25  1  0  0  0  0
  9 28  1  0  0  0  0
  9 29  1  0  0  0  0
  9 32  1  0  0  0  0
 10 27  1  0  0  0  0
 10 31  1  0  0  0  0
 11 14  2  0  0  0  0
 11 15  1  0  0  0  0
 12 13  2  0  0  0  0
 12 14  1  0  0  0  0
 12 16  1  0  0  0  0
 13 17  1  0  0  0  0
 15 18  1  0  0  0  0
 15 21  1  0  0  0  0
 17 20  2  0  0  0  0
 18 22  1  0  0  0  0
 18 23  1  0  0  0  0
 19 20  1  0  0  0  0
 22 28  1  0  0  0  0
 23 29  1  0  0  0  0
 24 25  1  0  0  0  0
 24 26  2  0  0  0  0
 24 27  1  0  0  0  0
 26 30  1  0  0  0  0
 30 31  2  0  0  0  0
 31 34  1  0  0  0  0
 32 33  1  0  0  0  0
 33 36  1  0  0  0  0
 33 37  1  0  0  0  0
M  END
> <PUBCHEM_COMPOUND_ID_TYPE>
0

> <PUBCHEM_TOTAL_CHARGE>
0

> <PUBCHEM_SUBSTANCE_ID>
310942329

> <PUBCHEM_SUBSTANCE_VERSION>
1

> <PUBCHEM_EXT_DATASOURCE_NAME>
4488

> <PUBCHEM_EXT_DATASOURCE_REGID>
SCHEMBL16120365

> <PUBCHEM_SUBSTANCE_COMMENT>
InChI=1S/C27H36ClN5O4/c1-16-13-21(37-5)19(25(34)31-16)14-29-26(35)22-20-7-6-10-30-33(20)24(23(22)28)17(2)18-8-11-32(12-9-18)15-27(3,4)36/h6-7,10,13,17-18,36H,8-9,11-12,14-15H2,1-5H3,(H,29,35)(H,31,34)
InChIKey=PZIHLJQHLTXAPE-UHFFFAOYSA-N

> <PUBCHEM_SUBSTANCE_SYNONYM>
SCHEMBL16120365

> <PUBCHEM_XREF_EXT_ID>
SCHEMBL16120365

> <PUBCHEM_EXT_DATASOURCE_URL>
https://www.surechembl.org/

> <PUBCHEM_EXT_SUBSTANCE_URL>
https://www.surechembl.org/chemical/SCHEMBL16120365

> <PUBCHEM_CID_ASSOCIATIONS>
86299775  1

> <PUBCHEM_COORDINATE_TYPE>
1
3

$$$$
