310936477
  -OEChem-07211613022D

 28 31  0     1  0  0  0  0  0999 V2000
    3.5850   -0.0465    0.0000 Cl  0  0  0  0  0  0  0  0  0  0  0  0
    0.7449   -2.4211    0.0000 O   0  0  0  0  0  0  0  0  0  0  0  0
    4.4696   -9.3117    0.0000 O   0  0  0  0  0  0  0  0  0  0  0  0
    3.5850   -7.4028    0.0000 N   0  0  0  0  0  0  0  0  0  0  0  0
    1.4433   -3.6781    0.0000 N   0  0  0  0  0  0  0  0  0  0  0  0
    4.2834   -6.1457    0.0000 N   0  0  0  0  0  0  0  0  0  0  0  0
    2.8866   -6.1457    0.0000 N   0  0  0  0  0  0  0  0  0  0  0  0
    2.1417   -2.4676    0.0000 C   0  0  0  0  0  0  0  0  0  0  0  0
    2.1882   -1.6295    0.0000 C   0  0  0  0  0  0  0  0  0  0  0  0
    1.4433   -2.8401    0.0000 C   0  0  0  0  0  0  0  0  0  0  0  0
    2.8401   -3.6781    0.0000 C   0  0  0  0  0  0  0  0  0  0  0  0
    2.8401   -2.8401    0.0000 C   0  0  0  0  0  0  0  0  0  0  0  0
    3.5850   -6.5647    0.0000 C   0  0  0  0  0  0  0  0  0  0  0  0
    3.5850   -4.8887    0.0000 C   0  0  0  0  0  0  0  0  0  0  0  0
    3.5850   -4.0971    0.0000 C   0  0  0  0  0  0  0  0  0  0  0  0
    2.1417   -4.0506    0.0000 C   0  0  0  0  0  0  0  0  0  0  0  0
    2.8866   -1.2105    0.0000 C   0  0  0  0  0  0  0  0  0  0  0  0
    4.2834   -5.3542    0.0000 C   0  0  0  0  0  0  0  0  0  0  0  0
    2.8866   -5.3542    0.0000 C   0  0  0  0  0  0  0  0  0  0  0  0
    4.2368   -7.8684    0.0000 C   0  0  0  0  0  0  0  0  0  0  0  0
    1.4433   -1.2105    0.0000 C   0  0  0  0  0  0  0  0  0  0  0  0
    2.9332   -7.8684    0.0000 C   0  0  0  0  0  0  0  0  0  0  0  0
    4.0040   -8.6599    0.0000 C   0  0  3  0  0  0  0  0  0  0  0  0
    2.8866   -0.4190    0.0000 C   0  0  0  0  0  0  0  0  0  0  0  0
    3.1660   -8.6599    0.0000 C   0  0  0  0  0  0  0  0  0  0  0  0
    1.4899   -0.3725    0.0000 C   0  0  0  0  0  0  0  0  0  0  0  0
    2.1882    0.0000    0.0000 C   0  0  0  0  0  0  0  0  0  0  0  0
    0.0000   -2.8401    0.0000 C   0  0  0  0  0  0  0  0  0  0  0  0
  1 24  1  0  0  0  0
  2 10  1  0  0  0  0
  2 28  1  0  0  0  0
  3 23  1  0  0  0  0
  4 13  1  0  0  0  0
  4 20  1  0  0  0  0
  4 22  1  0  0  0  0
  5 10  2  0  0  0  0
  5 16  1  0  0  0  0
  6 13  2  0  0  0  0
  6 18  1  0  0  0  0
  7 13  1  0  0  0  0
  7 19  2  0  0  0  0
  8  9  1  0  0  0  0
  8 10  1  0  0  0  0
  8 12  2  0  0  0  0
  9 17  1  0  0  0  0
  9 21  2  0  0  0  0
 11 12  1  0  0  0  0
 11 15  1  0  0  0  0
 11 16  2  0  0  0  0
 14 15  1  0  0  0  0
 14 18  2  0  0  0  0
 14 19  1  0  0  0  0
 17 24  2  0  0  0  0
 20 23  1  0  0  0  0
 21 26  1  0  0  0  0
 22 25  1  0  0  0  0
 23 25  1  0  0  0  0
 24 27  1  0  0  0  0
 26 27  2  0  0  0  0
M  END
> <PUBCHEM_COMPOUND_ID_TYPE>
0

> <PUBCHEM_TOTAL_CHARGE>
0

> <PUBCHEM_SUBSTANCE_ID>
310936477

> <PUBCHEM_SUBSTANCE_VERSION>
1

> <PUBCHEM_EXT_DATASOURCE_NAME>
4488

> <PUBCHEM_EXT_DATASOURCE_REGID>
SCHEMBL16114125

> <PUBCHEM_SUBSTANCE_COMMENT>
InChI=1S/C21H21ClN4O2/c1-28-20-19(16-3-2-4-17(22)9-16)8-14(10-23-20)7-15-11-24-21(25-12-15)26-6-5-18(27)13-26/h2-4,8-12,18,27H,5-7,13H2,1H3
InChIKey=PWUNXNJMFBEGSY-UHFFFAOYSA-N

> <PUBCHEM_SUBSTANCE_SYNONYM>
SCHEMBL16114125

> <PUBCHEM_XREF_EXT_ID>
SCHEMBL16114125

> <PUBCHEM_EXT_DATASOURCE_URL>
https://www.surechembl.org/

> <PUBCHEM_EXT_SUBSTANCE_URL>
https://www.surechembl.org/chemical/SCHEMBL16114125

> <PUBCHEM_CID_ASSOCIATIONS>
117604407  1

> <PUBCHEM_COORDINATE_TYPE>
1
3

$$$$
