310937287
  -OEChem-07211613022D

 40 44  0     1  0  0  0  0  0999 V2000
    5.0620   -5.3366    0.0000 O   0  0  0  0  0  0  0  0  0  0  0  0
    7.9265   -5.3758    0.0000 O   0  0  0  0  0  0  0  0  0  0  0  0
    7.2593   -2.5898    0.0000 N   0  0  3  0  0  0  0  0  0  0  0  0
    6.4746   -5.3366    0.0000 N   0  0  0  0  0  0  0  0  0  0  0  0
    2.9038   -2.4721    0.0000 N   0  0  0  0  0  0  0  0  0  0  0  0
    2.1582   -1.2164    0.0000 N   0  0  0  0  0  0  0  0  0  0  0  0
    8.6328   -6.5923    0.0000 N   0  0  0  0  0  0  0  0  0  0  0  0
    0.7063   -0.4316    0.0000 N   0  0  0  0  0  0  0  0  0  0  0  0
    6.4746   -3.6885    0.0000 C   0  0  0  0  0  0  0  0  0  0  0  0
    7.2593   -3.9240    0.0000 C   0  0  0  0  0  0  0  0  0  0  0  0
    6.4746   -2.8645    0.0000 C   0  0  0  0  0  0  0  0  0  0  0  0
    5.7683   -4.0810    0.0000 C   0  0  0  0  0  0  0  0  0  0  0  0
    7.7695   -3.2569    0.0000 C   0  0  0  0  0  0  0  0  0  0  0  0
    5.0620   -2.8645    0.0000 C   0  0  0  0  0  0  0  0  0  0  0  0
    5.7683   -2.4329    0.0000 C   0  0  0  0  0  0  0  0  0  0  0  0
    5.0620   -3.6885    0.0000 C   0  0  0  0  0  0  0  0  0  0  0  0
    5.7683   -4.9050    0.0000 C   0  0  0  0  0  0  0  0  0  0  0  0
    7.5340   -1.8050    0.0000 C   0  0  0  0  0  0  0  0  0  0  0  0
    4.3556   -2.4721    0.0000 C   0  0  0  0  0  0  0  0  0  0  0  0
    7.5340   -4.7088    0.0000 C   0  0  0  0  0  0  0  0  0  0  0  0
    8.0834   -4.0810    0.0000 C   0  0  0  0  0  0  0  0  0  0  0  0
    3.6101   -2.8645    0.0000 C   0  0  0  0  0  0  0  0  0  0  0  0
    4.3164   -1.6481    0.0000 C   0  0  0  0  0  0  0  0  0  0  0  0
    6.9847   -1.2164    0.0000 C   0  0  0  0  0  0  0  0  0  0  0  0
    8.3188   -1.6481    0.0000 C   0  0  0  0  0  0  0  0  0  0  0  0
    2.8645   -1.6481    0.0000 C   0  0  0  0  0  0  0  0  0  0  0  0
    6.4746   -6.1607    0.0000 C   0  0  0  0  0  0  0  0  0  0  0  0
    3.6101   -1.2164    0.0000 C   0  0  0  0  0  0  0  0  0  0  0  0
    7.1809   -6.5923    0.0000 C   0  0  0  0  0  0  0  0  0  0  0  0
    7.9265   -6.1999    0.0000 C   0  0  0  0  0  0  0  0  0  0  0  0
    7.2202   -7.4163    0.0000 C   0  0  0  0  0  0  0  0  0  0  0  0
    7.9265   -7.8087    0.0000 C   0  0  0  0  0  0  0  0  0  0  0  0
    8.6328   -7.4163    0.0000 C   0  0  0  0  0  0  0  0  0  0  0  0
    2.1582   -0.3924    0.0000 C   0  0  0  0  0  0  0  0  0  0  0  0
    1.4519   -1.6481    0.0000 C   0  0  0  0  0  0  0  0  0  0  0  0
    0.7456   -1.2557    0.0000 C   0  0  0  0  0  0  0  0  0  0  0  0
    1.4126    0.0000    0.0000 C   0  0  0  0  0  0  0  0  0  0  0  0
    6.5138   -7.8087    0.0000 C   0  0  0  0  0  0  0  0  0  0  0  0
    9.3784   -7.8480    0.0000 C   0  0  0  0  0  0  0  0  0  0  0  0
    0.0000   -0.0393    0.0000 C   0  0  0  0  0  0  0  0  0  0  0  0
  1 17  2  0  0  0  0
  2 30  2  0  0  0  0
  3 11  1  0  0  0  0
  3 13  1  0  0  0  0
  3 18  1  0  0  0  0
  4 17  1  0  0  0  0
  4 27  1  0  0  0  0
  5 22  1  0  0  0  0
  5 26  2  0  0  0  0
  6 26  1  0  0  0  0
  6 34  1  0  0  0  0
  6 35  1  0  0  0  0
  7 30  1  0  0  0  0
  7 33  1  0  0  0  0
  8 36  1  0  0  0  0
  8 37  1  0  0  0  0
  8 40  1  0  0  0  0
  9 10  1  0  0  0  0
  9 11  2  0  0  0  0
  9 12  1  0  0  0  0
 10 13  1  0  0  0  0
 10 20  1  0  0  0  0
 10 21  1  0  0  0  0
 11 15  1  0  0  0  0
 12 16  2  0  0  0  0
 12 17  1  0  0  0  0
 14 15  2  0  0  0  0
 14 16  1  0  0  0  0
 14 19  1  0  0  0  0
 18 24  1  0  0  0  0
 18 25  1  0  0  0  0
 19 22  2  0  0  0  0
 19 23  1  0  0  0  0
 23 28  2  0  0  0  0
 26 28  1  0  0  0  0
 27 29  1  0  0  0  0
 29 30  1  0  0  0  0
 29 31  2  0  0  0  0
 31 32  1  0  0  0  0
 31 38  1  0  0  0  0
 32 33  2  0  0  0  0
 33 39  1  0  0  0  0
 34 37  1  0  0  0  0
 35 36  1  0  0  0  0
M  END
> <PUBCHEM_COMPOUND_ID_TYPE>
0

> <PUBCHEM_TOTAL_CHARGE>
0

> <PUBCHEM_SUBSTANCE_ID>
310937287

> <PUBCHEM_SUBSTANCE_VERSION>
1

> <PUBCHEM_EXT_DATASOURCE_NAME>
4488

> <PUBCHEM_EXT_DATASOURCE_REGID>
SCHEMBL16115031

> <PUBCHEM_SUBSTANCE_COMMENT>
InChI=1S/C32H42N6O2/c1-20(2)38-19-32(5,6)29-25(30(39)34-18-26-21(3)14-22(4)35-31(26)40)15-24(16-27(29)38)23-8-9-28(33-17-23)37-12-10-36(7)11-13-37/h8-9,14-17,20H,10-13,18-19H2,1-7H3,(H,34,39)(H,35,40)
InChIKey=BTCYPIXOJHNMMB-UHFFFAOYSA-N

> <PUBCHEM_SUBSTANCE_SYNONYM>
SCHEMBL16115031

> <PUBCHEM_XREF_EXT_ID>
SCHEMBL16115031

> <PUBCHEM_EXT_DATASOURCE_URL>
https://www.surechembl.org/

> <PUBCHEM_EXT_SUBSTANCE_URL>
https://www.surechembl.org/chemical/SCHEMBL16115031

> <PUBCHEM_CID_ASSOCIATIONS>
86272205  1

> <PUBCHEM_COORDINATE_TYPE>
1
3

$$$$
