310941482
  -OEChem-07211613022D

 21 21  0     1  0  0  0  0  0999 V2000
    0.0188    0.7014    0.0000 P   0  0  3  0  0  0  0  0  0  0  0  0
    0.4321   -0.0251    0.0000 O   0  0  0  0  0  0  0  0  0  0  0  0
    0.8454    0.7014    0.0000 O   0  0  0  0  0  0  0  0  0  0  0  0
    1.2463   -1.4404    0.0000 O   0  0  0  0  0  0  0  0  0  0  0  0
    0.0689   -2.2045    0.0000 O   0  0  0  0  0  0  0  0  0  0  0  0
    0.0063    1.5281    0.0000 O   0  0  0  0  0  0  0  0  0  0  0  0
   -2.4988   -0.7515    0.0000 O   0  0  0  0  0  0  0  0  0  0  0  0
   -2.4738   -2.1919    0.0000 N   0  0  0  0  0  0  0  0  0  0  0  0
    0.0188   -0.7515    0.0000 C   0  0  3  0  0  0  0  0  0  0  0  0
    0.4447   -1.4655    0.0000 C   0  0  0  0  0  0  0  0  0  0  0  0
    1.2713    1.4404    0.0000 C   0  0  0  0  0  0  0  0  0  0  0  0
   -0.8079   -0.7390    0.0000 C   0  0  0  0  0  0  0  0  0  0  0  0
    0.8580    2.1293    0.0000 C   0  0  0  0  0  0  0  0  0  0  0  0
    2.0855    1.4404    0.0000 C   0  0  0  0  0  0  0  0  0  0  0  0
   -1.2338   -1.4655    0.0000 C   0  0  0  0  0  0  0  0  0  0  0  0
    1.2713    2.8308    0.0000 C   0  0  0  0  0  0  0  0  0  0  0  0
    2.4988    2.1544    0.0000 C   0  0  0  0  0  0  0  0  0  0  0  0
   -2.0604   -1.4655    0.0000 C   0  0  0  0  0  0  0  0  0  0  0  0
    2.0855    2.8432    0.0000 C   0  0  0  0  0  0  0  0  0  0  0  0
    1.6972   -2.1168    0.0000 C   0  0  0  0  0  0  0  0  0  0  0  0
    1.3339   -2.8432    0.0000 C   0  0  0  0  0  0  0  0  0  0  0  0
  1  2  1  0  0  0  0
  1  3  1  0  0  0  0
  1  6  2  0  0  0  0
  2  9  1  0  0  0  0
  3 11  1  0  0  0  0
  4 10  1  0  0  0  0
  4 20  1  0  0  0  0
  5 10  2  0  0  0  0
  7 18  2  0  0  0  0
  8 18  1  0  0  0  0
  9 10  1  0  0  0  0
  9 12  1  0  0  0  0
 11 13  2  0  0  0  0
 11 14  1  0  0  0  0
 12 15  1  0  0  0  0
 13 16  1  0  0  0  0
 14 17  2  0  0  0  0
 15 18  1  0  0  0  0
 16 19  2  0  0  0  0
 17 19  1  0  0  0  0
 20 21  1  0  0  0  0
M  END
> <PUBCHEM_COMPOUND_ID_TYPE>
0

> <PUBCHEM_TOTAL_CHARGE>
0

> <PUBCHEM_SUBSTANCE_ID>
310941482

> <PUBCHEM_SUBSTANCE_VERSION>
1

> <PUBCHEM_EXT_DATASOURCE_NAME>
4488

> <PUBCHEM_EXT_DATASOURCE_REGID>
SCHEMBL16119513

> <PUBCHEM_SUBSTANCE_COMMENT>
InChI=1S/C13H18NO6P/c1-2-18-13(16)11(8-9-12(14)15)20-21(17)19-10-6-4-3-5-7-10/h3-7,11,21H,2,8-9H2,1H3,(H2,14,15)
InChIKey=VGTPTGNRPNLUHI-UHFFFAOYSA-N

> <PUBCHEM_SUBSTANCE_SYNONYM>
SCHEMBL16119513

> <PUBCHEM_XREF_EXT_ID>
SCHEMBL16119513

> <PUBCHEM_EXT_DATASOURCE_URL>
https://www.surechembl.org/

> <PUBCHEM_EXT_SUBSTANCE_URL>
https://www.surechembl.org/chemical/SCHEMBL16119513

> <PUBCHEM_CID_ASSOCIATIONS>
117608304  1

> <PUBCHEM_COORDINATE_TYPE>
1
3

$$$$
