310947211
  -OEChem-07211613022D

 23 24  0     1  0  0  0  0  0999 V2000
   -0.8555    2.4461    0.0000 F   0  0  0  0  0  0  0  0  0  0  0  0
    0.1550    1.4357    0.0000 F   0  0  0  0  0  0  0  0  0  0  0  0
   -0.0586    2.2326    0.0000 F   0  0  0  0  0  0  0  0  0  0  0  0
   -2.9754   -0.6842    0.0000 O   0  0  0  0  0  0  0  0  0  0  0  0
   -1.8665   -1.7787    0.0000 N   0  0  0  0  0  0  0  0  0  0  0  0
   -1.3816   -2.4461    0.0000 N   0  0  0  0  0  0  0  0  0  0  0  0
    0.8320   -1.3662    0.0000 N   0  0  3  0  0  0  0  0  0  0  0  0
    2.9754   -0.9537    0.0000 N   0  0  0  0  0  0  0  0  0  0  0  0
   -1.5951   -0.3144    0.0000 C   0  0  0  0  0  0  0  0  0  0  0  0
   -1.3816   -1.1113    0.0000 C   0  0  0  0  0  0  0  0  0  0  0  0
   -1.2253    1.0659    0.0000 C   0  0  0  0  0  0  0  0  0  0  0  0
   -2.3920   -0.1008    0.0000 C   0  0  0  0  0  0  0  0  0  0  0  0
   -0.5970   -1.3662    0.0000 C   0  0  0  0  0  0  0  0  0  0  0  0
   -1.0118    0.2690    0.0000 C   0  0  0  0  0  0  0  0  0  0  0  0
   -0.6419    1.6492    0.0000 C   0  0  0  0  0  0  0  0  0  0  0  0
   -2.0222    1.2794    0.0000 C   0  0  0  0  0  0  0  0  0  0  0  0
   -2.6055    0.6960    0.0000 C   0  0  0  0  0  0  0  0  0  0  0  0
   -0.5970   -2.1912    0.0000 C   0  0  0  0  0  0  0  0  0  0  0  0
    0.1175   -0.9537    0.0000 C   0  0  0  0  0  0  0  0  0  0  0  0
   -2.7619   -1.4811    0.0000 C   0  0  0  0  0  0  0  0  0  0  0  0
    1.5464   -0.9537    0.0000 C   0  0  0  0  0  0  0  0  0  0  0  0
    0.8320   -2.1912    0.0000 C   0  0  0  0  0  0  0  0  0  0  0  0
    2.2609   -1.3662    0.0000 C   0  0  0  0  0  0  0  0  0  0  0  0
  1 15  1  0  0  0  0
  2 15  1  0  0  0  0
  3 15  1  0  0  0  0
  4 12  1  0  0  0  0
  4 20  1  0  0  0  0
  5  6  1  0  0  0  0
  5 10  2  0  0  0  0
  6 18  1  0  0  0  0
  7 19  1  0  0  0  0
  7 21  1  0  0  0  0
  7 22  1  0  0  0  0
  8 23  1  0  0  0  0
  9 10  1  0  0  0  0
  9 12  2  0  0  0  0
  9 14  1  0  0  0  0
 10 13  1  0  0  0  0
 11 14  2  0  0  0  0
 11 15  1  0  0  0  0
 11 16  1  0  0  0  0
 12 17  1  0  0  0  0
 13 18  2  0  0  0  0
 13 19  1  0  0  0  0
 16 17  2  0  0  0  0
 21 23  1  0  0  0  0
M  END
> <PUBCHEM_COMPOUND_ID_TYPE>
0

> <PUBCHEM_TOTAL_CHARGE>
0

> <PUBCHEM_SUBSTANCE_ID>
310947211

> <PUBCHEM_SUBSTANCE_VERSION>
1

> <PUBCHEM_EXT_DATASOURCE_NAME>
4488

> <PUBCHEM_EXT_DATASOURCE_REGID>
SCHEMBL16125366

> <PUBCHEM_SUBSTANCE_COMMENT>
InChI=1S/C15H19F3N4O/c1-22(6-5-19)9-10-8-20-21-14(10)12-7-11(15(16,17)18)3-4-13(12)23-2/h3-4,7-8H,5-6,9,19H2,1-2H3,(H,20,21)
InChIKey=NIORYEBLECWZJJ-UHFFFAOYSA-N

> <PUBCHEM_SUBSTANCE_SYNONYM>
SCHEMBL16125366

> <PUBCHEM_XREF_EXT_ID>
SCHEMBL16125366

> <PUBCHEM_EXT_DATASOURCE_URL>
https://www.surechembl.org/

> <PUBCHEM_EXT_SUBSTANCE_URL>
https://www.surechembl.org/chemical/SCHEMBL16125366

> <PUBCHEM_CID_ASSOCIATIONS>
85472648  1

> <PUBCHEM_COORDINATE_TYPE>
1
3

$$$$
