310935924
  -OEChem-07211613022D

 30 34  0     1  0  0  0  0  0999 V2000
   -2.1434   -3.3000    0.0000 F   0  0  0  0  0  0  0  0  0  0  0  0
    0.7144   -1.6500    0.0000 O   0  0  0  0  0  0  0  0  0  0  0  0
    3.3321   -2.1434    0.0000 O   0  0  0  0  0  0  0  0  0  0  0  0
    0.7846    0.6674    0.0000 N   0  0  0  0  0  0  0  0  0  0  0  0
   -1.4290   -0.4125    0.0000 N   0  0  0  0  0  0  0  0  0  0  0  0
   -0.7144    0.8250    0.0000 N   0  0  0  0  0  0  0  0  0  0  0  0
    3.7446    0.0000    0.0000 N   0  0  0  0  0  0  0  0  0  0  0  0
    5.1529   -2.0123    0.0000 N   0  0  0  0  0  0  0  0  0  0  0  0
    0.0000   -0.4125    0.0000 C   0  0  0  0  0  0  0  0  0  0  0  0
   -0.7144   -0.8250    0.0000 C   0  0  0  0  0  0  0  0  0  0  0  0
    0.0000    0.4125    0.0000 C   0  0  0  0  0  0  0  0  0  0  0  0
    1.2696    0.0000    0.0000 C   0  0  0  0  0  0  0  0  0  0  0  0
   -0.7144   -1.6500    0.0000 C   0  0  0  0  0  0  0  0  0  0  0  0
    0.7846   -0.6674    0.0000 C   0  0  0  0  0  0  0  0  0  0  0  0
    2.0946    0.0000    0.0000 C   0  0  0  0  0  0  0  0  0  0  0  0
    0.0000   -2.0625    0.0000 C   0  0  0  0  0  0  0  0  0  0  0  0
    3.3321   -0.7144    0.0000 C   0  0  3  0  0  0  0  0  0  0  0  0
    2.5071   -0.7144    0.0000 C   0  0  0  0  0  0  0  0  0  0  0  0
   -1.4290   -2.0625    0.0000 C   0  0  0  0  0  0  0  0  0  0  0  0
   -1.4290    0.4125    0.0000 C   0  0  0  0  0  0  0  0  0  0  0  0
    2.5071    0.7144    0.0000 C   0  0  0  0  0  0  0  0  0  0  0  0
    3.7446   -1.4290    0.0000 C   0  0  0  0  0  0  0  0  0  0  0  0
   -1.4290   -2.8875    0.0000 C   0  0  0  0  0  0  0  0  0  0  0  0
    0.0000   -2.8875    0.0000 C   0  0  0  0  0  0  0  0  0  0  0  0
    4.5696   -1.4290    0.0000 C   0  0  3  0  0  0  0  0  0  0  0  0
   -0.7144   -3.3000    0.0000 C   0  0  0  0  0  0  0  0  0  0  0  0
    3.3321    0.7144    0.0000 C   0  0  0  0  0  0  0  0  0  0  0  0
    5.1529   -0.8456    0.0000 C   0  0  0  0  0  0  0  0  0  0  0  0
    5.7363   -1.4290    0.0000 C   0  0  0  0  0  0  0  0  0  0  0  0
    1.4290   -2.0625    0.0000 C   0  0  0  0  0  0  0  0  0  0  0  0
  1 23  1  0  0  0  0
  2 16  1  0  0  0  0
  2 30  1  0  0  0  0
  3 22  2  0  0  0  0
  4 11  1  0  0  0  0
  4 12  1  0  0  0  0
  5 10  1  0  0  0  0
  5 20  2  0  0  0  0
  6 11  2  0  0  0  0
  6 20  1  0  0  0  0
  7 17  1  0  0  0  0
  7 27  1  0  0  0  0
  8 25  1  0  0  0  0
  8 29  1  0  0  0  0
  9 10  2  0  0  0  0
  9 11  1  0  0  0  0
  9 14  1  0  0  0  0
 10 13  1  0  0  0  0
 12 14  2  0  0  0  0
 12 15  1  0  0  0  0
 13 16  1  0  0  0  0
 13 19  2  0  0  0  0
 15 18  1  0  0  0  0
 15 21  2  0  0  0  0
 16 24  2  0  0  0  0
 17 18  1  0  0  0  0
 17 22  1  0  0  0  0
 19 23  1  0  0  0  0
 21 27  1  0  0  0  0
 22 25  1  0  0  0  0
 23 26  2  0  0  0  0
 24 26  1  0  0  0  0
 25 28  1  0  0  0  0
 28 29  1  0  0  0  0
M  END
> <PUBCHEM_COMPOUND_ID_TYPE>
0

> <PUBCHEM_TOTAL_CHARGE>
0

> <PUBCHEM_SUBSTANCE_ID>
310935924

> <PUBCHEM_SUBSTANCE_VERSION>
1

> <PUBCHEM_EXT_DATASOURCE_NAME>
4488

> <PUBCHEM_EXT_DATASOURCE_REGID>
SCHEMBL16113520

> <PUBCHEM_SUBSTANCE_COMMENT>
InChI=1S/C22H22FN5O2/c1-30-19-3-2-13(23)9-14(19)20-15-10-17(28-22(15)27-11-26-20)12-4-6-25-18(8-12)21(29)16-5-7-24-16/h2-4,9-11,16,18,24-25H,5-8H2,1H3,(H,26,27,28)
InChIKey=CRXJTHJKLDNIEE-UHFFFAOYSA-N

> <PUBCHEM_SUBSTANCE_SYNONYM>
SCHEMBL16113520

> <PUBCHEM_XREF_EXT_ID>
SCHEMBL16113520

> <PUBCHEM_EXT_DATASOURCE_URL>
https://www.surechembl.org/

> <PUBCHEM_EXT_SUBSTANCE_URL>
https://www.surechembl.org/chemical/SCHEMBL16113520

> <PUBCHEM_CID_ASSOCIATIONS>
117603907  1

> <PUBCHEM_COORDINATE_TYPE>
1
3

$$$$
