310938257
  -OEChem-07211613022D

 39 43  0     1  0  0  0  0  0999 V2000
    4.6189   -5.1251    0.0000 O   0  0  0  0  0  0  0  0  0  0  0  0
    3.2269   -2.5309    0.0000 O   0  0  0  0  0  0  0  0  0  0  0  0
    1.7083  -12.6546    0.0000 O   0  0  0  0  0  0  0  0  0  0  0  0
    3.1636  -12.6546    0.0000 O   0  0  0  0  0  0  0  0  0  0  0  0
    1.0757   -4.4924    0.0000 N   0  0  3  0  0  0  0  0  0  0  0  0
    3.9229   -3.8597    0.0000 N   0  0  0  0  0  0  0  0  0  0  0  0
    2.4677   -9.6808    0.0000 N   0  0  0  0  0  0  0  0  0  0  0  0
    1.7083   -8.4786    0.0000 N   0  0  0  0  0  0  0  0  0  0  0  0
    2.4677  -11.3891    0.0000 N   0  0  0  0  0  0  0  0  0  0  0  0
    3.9862   -1.2654    0.0000 N   0  0  0  0  0  0  0  0  0  0  0  0
    2.4677   -4.6822    0.0000 C   0  0  0  0  0  0  0  0  0  0  0  0
    1.7083   -5.0619    0.0000 C   0  0  0  0  0  0  0  0  0  0  0  0
    3.1636   -5.0619    0.0000 C   0  0  0  0  0  0  0  0  0  0  0  0
    2.4044   -6.3273    0.0000 C   0  0  0  0  0  0  0  0  0  0  0  0
    1.7083   -5.9477    0.0000 C   0  0  0  0  0  0  0  0  0  0  0  0
    3.1636   -5.9477    0.0000 C   0  0  0  0  0  0  0  0  0  0  0  0
    2.4044   -7.1498    0.0000 C   0  0  0  0  0  0  0  0  0  0  0  0
    2.2778   -3.7964    0.0000 C   0  0  0  0  0  0  0  0  0  0  0  0
    3.9229   -4.6822    0.0000 C   0  0  0  0  0  0  0  0  0  0  0  0
    1.4553   -3.7331    0.0000 C   0  0  0  0  0  0  0  0  0  0  0  0
    1.7083   -7.5927    0.0000 C   0  0  0  0  0  0  0  0  0  0  0  0
    3.1636   -7.5927    0.0000 C   0  0  0  0  0  0  0  0  0  0  0  0
    2.4677   -8.8582    0.0000 C   0  0  0  0  0  0  0  0  0  0  0  0
    0.2531   -4.6822    0.0000 C   0  0  0  0  0  0  0  0  0  0  0  0
    3.1636   -8.4153    0.0000 C   0  0  0  0  0  0  0  0  0  0  0  0
    4.6822   -2.5942    0.0000 C   0  0  0  0  0  0  0  0  0  0  0  0
    4.6822   -3.4167    0.0000 C   0  0  0  0  0  0  0  0  0  0  0  0
    3.9862   -2.0880    0.0000 C   0  0  0  0  0  0  0  0  0  0  0  0
    5.3782   -2.1513    0.0000 C   0  0  0  0  0  0  0  0  0  0  0  0
    1.7083  -10.1237    0.0000 C   0  0  0  0  0  0  0  0  0  0  0  0
    3.1636  -10.1237    0.0000 C   0  0  0  0  0  0  0  0  0  0  0  0
    4.6822   -0.8225    0.0000 C   0  0  0  0  0  0  0  0  0  0  0  0
    5.4415   -1.3287    0.0000 C   0  0  0  0  0  0  0  0  0  0  0  0
    3.1636  -10.9462    0.0000 C   0  0  0  0  0  0  0  0  0  0  0  0
    1.7083  -10.9462    0.0000 C   0  0  0  0  0  0  0  0  0  0  0  0
    0.0000   -5.4415    0.0000 C   0  0  0  0  0  0  0  0  0  0  0  0
    2.4677  -12.2117    0.0000 C   0  0  0  0  0  0  0  0  0  0  0  0
    6.1375   -2.5309    0.0000 C   0  0  0  0  0  0  0  0  0  0  0  0
    4.7455    0.0000    0.0000 C   0  0  0  0  0  0  0  0  0  0  0  0
  1 19  2  0  0  0  0
  2 28  2  0  0  0  0
  3 37  2  0  0  0  0
  4 37  1  0  0  0  0
  5 12  1  0  0  0  0
  5 20  1  0  0  0  0
  5 24  1  0  0  0  0
  6 19  1  0  0  0  0
  6 27  1  0  0  0  0
  7 23  1  0  0  0  0
  7 30  1  0  0  0  0
  7 31  1  0  0  0  0
  8 21  2  0  0  0  0
  8 23  1  0  0  0  0
  9 34  1  0  0  0  0
  9 35  1  0  0  0  0
  9 37  1  0  0  0  0
 10 28  1  0  0  0  0
 10 32  1  0  0  0  0
 11 12  2  0  0  0  0
 11 13  1  0  0  0  0
 11 18  1  0  0  0  0
 12 15  1  0  0  0  0
 13 16  2  0  0  0  0
 13 19  1  0  0  0  0
 14 15  2  0  0  0  0
 14 16  1  0  0  0  0
 14 17  1  0  0  0  0
 17 21  1  0  0  0  0
 17 22  2  0  0  0  0
 18 20  1  0  0  0  0
 22 25  1  0  0  0  0
 23 25  2  0  0  0  0
 24 36  1  0  0  0  0
 26 27  1  0  0  0  0
 26 28  1  0  0  0  0
 26 29  2  0  0  0  0
 29 33  1  0  0  0  0
 29 38  1  0  0  0  0
 30 35  1  0  0  0  0
 31 34  1  0  0  0  0
 32 33  2  0  0  0  0
 32 39  1  0  0  0  0
M  END
> <PUBCHEM_COMPOUND_ID_TYPE>
0

> <PUBCHEM_TOTAL_CHARGE>
0

> <PUBCHEM_SUBSTANCE_ID>
310938257

> <PUBCHEM_SUBSTANCE_VERSION>
1

> <PUBCHEM_EXT_DATASOURCE_NAME>
4488

> <PUBCHEM_EXT_DATASOURCE_REGID>
SCHEMBL16116124

> <PUBCHEM_SUBSTANCE_COMMENT>
InChI=1S/C29H34N6O4/c1-4-33-8-7-22-23(27(36)31-17-24-18(2)13-19(3)32-28(24)37)14-21(15-25(22)33)20-5-6-26(30-16-20)34-9-11-35(12-10-34)29(38)39/h5-6,13-16H,4,7-12,17H2,1-3H3,(H,31,36)(H,32,37)(H,38,39)
InChIKey=GYWIWGZCSFSBCP-UHFFFAOYSA-N

> <PUBCHEM_SUBSTANCE_SYNONYM>
SCHEMBL16116124

> <PUBCHEM_XREF_EXT_ID>
SCHEMBL16116124

> <PUBCHEM_EXT_DATASOURCE_URL>
https://www.surechembl.org/

> <PUBCHEM_EXT_SUBSTANCE_URL>
https://www.surechembl.org/chemical/SCHEMBL16116124

> <PUBCHEM_CID_ASSOCIATIONS>
117605772  1

> <PUBCHEM_COORDINATE_TYPE>
1
3

$$$$
