310946017
  -OEChem-07211613022D

 38 41  0     1  0  0  0  0  0999 V2000
    3.6648    0.8244    0.0000 O   0  0  0  0  0  0  0  0  0  0  0  0
    1.3925    0.8244    0.0000 O   0  0  0  0  0  0  0  0  0  0  0  0
    0.6720    0.4088    0.0000 O   0  0  0  0  0  0  0  0  0  0  0  0
   -0.0485    0.8244    0.0000 O   0  0  0  0  0  0  0  0  0  0  0  0
   -2.9443   -3.3185    0.0000 O   0  0  0  0  0  0  0  0  0  0  0  0
   -2.9305    3.3185    0.0000 O   0  0  0  0  0  0  0  0  0  0  0  0
    1.3925   -0.8106    0.0000 N   0  0  0  0  0  0  0  0  0  0  0  0
   -0.7690   -0.4088    0.0000 N   0  0  0  0  0  0  0  0  0  0  0  0
   -1.4895    1.6696    0.0000 N   0  0  0  0  0  0  0  0  0  0  0  0
    2.8473    0.8383    0.0000 C   0  0  3  0  0  0  0  0  0  0  0  0
    2.1407    0.4226    0.0000 C   0  0  0  0  0  0  0  0  0  0  0  0
    3.2630    0.1455    0.0000 C   0  0  0  0  0  0  0  0  0  0  0  0
    2.0991   -0.3949    0.0000 C   0  0  3  0  0  0  0  0  0  0  0  0
    2.8334    1.6834    0.0000 C   0  0  0  0  0  0  0  0  0  0  0  0
    2.8473   -0.8244    0.0000 C   0  0  0  0  0  0  0  0  0  0  0  0
    0.6581   -0.4226    0.0000 C   0  0  0  0  0  0  0  0  0  0  0  0
   -0.0347   -0.8106    0.0000 C   0  0  3  0  0  0  0  0  0  0  0  0
    2.8334   -1.6419    0.0000 C   0  0  0  0  0  0  0  0  0  0  0  0
   -0.0485   -1.6419    0.0000 C   0  0  0  0  0  0  0  0  0  0  0  0
   -0.7967    0.4226    0.0000 C   0  0  0  0  0  0  0  0  0  0  0  0
   -1.4895    0.8521    0.0000 C   0  0  3  0  0  0  0  0  0  0  0  0
   -0.7690   -2.0575    0.0000 C   0  0  0  0  0  0  0  0  0  0  0  0
    3.5540   -2.0575    0.0000 C   0  0  0  0  0  0  0  0  0  0  0  0
    2.1269   -2.0575    0.0000 C   0  0  0  0  0  0  0  0  0  0  0  0
   -2.1961    0.4365    0.0000 C   0  0  0  0  0  0  0  0  0  0  0  0
   -2.2238    2.0853    0.0000 C   0  0  3  0  0  0  0  0  0  0  0  0
   -1.4756   -1.6557    0.0000 C   0  0  0  0  0  0  0  0  0  0  0  0
   -0.7690   -2.8889    0.0000 C   0  0  0  0  0  0  0  0  0  0  0  0
   -2.2238   -2.8889    0.0000 C   0  0  0  0  0  0  0  0  0  0  0  0
    3.5540   -2.8889    0.0000 C   0  0  0  0  0  0  0  0  0  0  0  0
    2.1269   -2.8889    0.0000 C   0  0  0  0  0  0  0  0  0  0  0  0
   -2.1961   -2.0575    0.0000 C   0  0  0  0  0  0  0  0  0  0  0  0
   -1.4895   -3.2907    0.0000 C   0  0  0  0  0  0  0  0  0  0  0  0
   -2.9305    0.8521    0.0000 C   0  0  0  0  0  0  0  0  0  0  0  0
   -2.9305    1.6696    0.0000 C   0  0  0  0  0  0  0  0  0  0  0  0
    2.8473   -3.2907    0.0000 C   0  0  0  0  0  0  0  0  0  0  0  0
   -2.2100    2.9166    0.0000 C   0  0  0  0  0  0  0  0  0  0  0  0
   -3.6648   -2.8889    0.0000 C   0  0  0  0  0  0  0  0  0  0  0  0
  1 10  1  0  0  0  0
  1 12  1  0  0  0  0
  2 11  2  0  0  0  0
  3 16  2  0  0  0  0
  4 20  2  0  0  0  0
  5 29  1  0  0  0  0
  5 38  1  0  0  0  0
  6 37  1  0  0  0  0
  7 13  1  0  0  0  0
  7 16  1  0  0  0  0
  8 17  1  0  0  0  0
  8 20  1  0  0  0  0
  9 21  1  0  0  0  0
  9 26  1  0  0  0  0
 10 11  1  0  0  0  0
 10 12  1  0  0  0  0
 10 14  1  0  0  0  0
 11 13  1  0  0  0  0
 13 15  1  0  0  0  0
 15 18  1  0  0  0  0
 16 17  1  0  0  0  0
 17 19  1  0  0  0  0
 18 23  2  0  0  0  0
 18 24  1  0  0  0  0
 19 22  1  0  0  0  0
 20 21  1  0  0  0  0
 21 25  1  0  0  0  0
 22 27  2  0  0  0  0
 22 28  1  0  0  0  0
 23 30  1  0  0  0  0
 24 31  2  0  0  0  0
 25 34  1  0  0  0  0
 26 35  1  0  0  0  0
 26 37  1  0  0  0  0
 27 32  1  0  0  0  0
 28 33  2  0  0  0  0
 29 32  2  0  0  0  0
 29 33  1  0  0  0  0
 30 36  2  0  0  0  0
 31 36  1  0  0  0  0
 34 35  1  0  0  0  0
M  END
> <PUBCHEM_COMPOUND_ID_TYPE>
0

> <PUBCHEM_TOTAL_CHARGE>
0

> <PUBCHEM_SUBSTANCE_ID>
310946017

> <PUBCHEM_SUBSTANCE_VERSION>
1

> <PUBCHEM_EXT_DATASOURCE_NAME>
4488

> <PUBCHEM_EXT_DATASOURCE_REGID>
SCHEMBL16124123

> <PUBCHEM_SUBSTANCE_COMMENT>
InChI=1S/C29H37N3O6/c1-29(18-38-29)26(34)24(15-19-7-4-3-5-8-19)31-28(36)25(16-20-11-13-22(37-2)14-12-20)32-27(35)23-10-6-9-21(17-33)30-23/h3-5,7-8,11-14,21,23-25,30,33H,6,9-10,15-18H2,1-2H3,(H,31,36)(H,32,35)
InChIKey=UZRKNNITHMEKCK-UHFFFAOYSA-N

> <PUBCHEM_SUBSTANCE_SYNONYM>
SCHEMBL16124123

> <PUBCHEM_XREF_EXT_ID>
SCHEMBL16124123

> <PUBCHEM_EXT_DATASOURCE_URL>
https://www.surechembl.org/

> <PUBCHEM_EXT_SUBSTANCE_URL>
https://www.surechembl.org/chemical/SCHEMBL16124123

> <PUBCHEM_CID_ASSOCIATIONS>
117611988  1

> <PUBCHEM_COORDINATE_TYPE>
1
3

$$$$
