310937801
  -OEChem-07211613022D

 23 25  0     1  0  0  0  0  0999 V2000
    0.7126   -4.6916    0.0000 O   0  0  0  0  0  0  0  0  0  0  0  0
    0.0000   -5.9388    0.0000 O   0  0  0  0  0  0  0  0  0  0  0  0
    5.4934   -2.2567    0.0000 N   0  0  0  0  0  0  0  0  0  0  0  0
    6.6515   -1.4253    0.0000 N   0  0  0  0  0  0  0  0  0  0  0  0
    3.5930   -5.5231    0.0000 N   0  0  3  0  0  0  0  0  0  0  0  0
    5.8497   -1.4847    0.0000 C   0  0  0  0  0  0  0  0  0  0  0  0
    5.3746   -0.8314    0.0000 C   0  0  0  0  0  0  0  0  0  0  0  0
    4.6619   -2.3459    0.0000 C   0  0  0  0  0  0  0  0  0  0  0  0
    4.5432   -0.9205    0.0000 C   0  0  0  0  0  0  0  0  0  0  0  0
    4.4838   -4.5135    0.0000 C   0  0  3  0  0  0  0  0  0  0  0  0
    4.1868   -1.6629    0.0000 C   0  0  0  0  0  0  0  0  0  0  0  0
    4.3353   -3.0882    0.0000 C   0  0  0  0  0  0  0  0  0  0  0  0
    5.7012   -0.0891    0.0000 C   0  0  0  0  0  0  0  0  0  0  0  0
    3.6821   -4.6916    0.0000 C   0  0  0  0  0  0  0  0  0  0  0  0
    4.8104   -3.7711    0.0000 C   0  0  0  0  0  0  0  0  0  0  0  0
    4.8995   -5.2559    0.0000 C   0  0  0  0  0  0  0  0  0  0  0  0
    4.3650   -5.8497    0.0000 C   0  0  0  0  0  0  0  0  0  0  0  0
    7.0078   -0.6533    0.0000 C   0  0  0  0  0  0  0  0  0  0  0  0
    6.5030    0.0000    0.0000 C   0  0  0  0  0  0  0  0  0  0  0  0
    2.8803   -5.9388    0.0000 C   0  0  0  0  0  0  0  0  0  0  0  0
    2.1380   -5.5231    0.0000 C   0  0  0  0  0  0  0  0  0  0  0  0
    1.4253   -5.9388    0.0000 C   0  0  0  0  0  0  0  0  0  0  0  0
    0.7126   -5.5231    0.0000 C   0  0  0  0  0  0  0  0  0  0  0  0
  1 23  2  0  0  0  0
  2 23  1  0  0  0  0
  3  6  1  0  0  0  0
  3  8  2  0  0  0  0
  4  6  2  0  0  0  0
  4 18  1  0  0  0  0
  5 14  1  0  0  0  0
  5 17  1  0  0  0  0
  5 20  1  0  0  0  0
  6  7  1  0  0  0  0
  7  9  1  0  0  0  0
  7 13  2  0  0  0  0
  8 11  1  0  0  0  0
  8 12  1  0  0  0  0
  9 11  2  0  0  0  0
 10 14  1  0  0  0  0
 10 15  1  0  0  0  0
 10 16  1  0  0  0  0
 12 15  1  0  0  0  0
 13 19  1  0  0  0  0
 16 17  1  0  0  0  0
 18 19  2  0  0  0  0
 20 21  1  0  0  0  0
 21 22  2  0  0  0  0
 22 23  1  0  0  0  0
M  END
> <PUBCHEM_COMPOUND_ID_TYPE>
0

> <PUBCHEM_TOTAL_CHARGE>
0

> <PUBCHEM_SUBSTANCE_ID>
310937801

> <PUBCHEM_SUBSTANCE_VERSION>
1

> <PUBCHEM_EXT_DATASOURCE_NAME>
4488

> <PUBCHEM_EXT_DATASOURCE_REGID>
SCHEMBL16115616

> <PUBCHEM_SUBSTANCE_COMMENT>
InChI=1S/C18H21N3O2/c22-17(23)4-2-11-21-12-9-14(13-21)5-7-16-8-6-15-3-1-10-19-18(15)20-16/h1-4,6,8,10,14H,5,7,9,11-13H2,(H,22,23)/b4-2+
InChIKey=BKSOJVVEOXVAOL-DUXPYHPUSA-N

> <PUBCHEM_SUBSTANCE_SYNONYM>
SCHEMBL16115616

> <PUBCHEM_XREF_EXT_ID>
SCHEMBL16115616

> <PUBCHEM_EXT_DATASOURCE_URL>
https://www.surechembl.org/

> <PUBCHEM_EXT_SUBSTANCE_URL>
https://www.surechembl.org/chemical/SCHEMBL16115616

> <PUBCHEM_CID_ASSOCIATIONS>
117605450  1

> <PUBCHEM_COORDINATE_TYPE>
1
3

$$$$
