310938351
  -OEChem-07211613022D

 22 25  0     1  0  0  0  0  0999 V2000
    1.2695    0.0000    0.0000 O   0  0  0  0  0  0  0  0  0  0  0  0
   -3.4491    1.1025    0.0000 O   0  0  0  0  0  0  0  0  0  0  0  0
   -3.0366    1.8170    0.0000 N   0  0  0  0  0  0  0  0  0  0  0  0
    0.0000    0.4125    0.0000 C   0  0  0  0  0  0  0  0  0  0  0  0
   -1.4289    0.4125    0.0000 C   0  0  0  0  0  0  0  0  0  0  0  0
    0.7846    0.6674    0.0000 C   0  0  3  0  0  0  0  0  0  0  0  0
    0.0000   -0.4125    0.0000 C   0  0  0  0  0  0  0  0  0  0  0  0
   -2.1434    0.8250    0.0000 C   0  0  0  0  0  0  0  0  0  0  0  0
   -0.7144    0.8250    0.0000 C   0  0  0  0  0  0  0  0  0  0  0  0
   -2.8971    0.4895    0.0000 C   0  0  0  0  0  0  0  0  0  0  0  0
   -2.2296    1.6455    0.0000 C   0  0  0  0  0  0  0  0  0  0  0  0
    1.0396    1.4520    0.0000 C   0  0  0  0  0  0  0  0  0  0  0  0
   -1.4289   -0.4125    0.0000 C   0  0  0  0  0  0  0  0  0  0  0  0
   -0.7144   -0.8250    0.0000 C   0  0  0  0  0  0  0  0  0  0  0  0
    0.7846   -0.6674    0.0000 C   0  0  0  0  0  0  0  0  0  0  0  0
    1.8465    1.6236    0.0000 C   0  0  0  0  0  0  0  0  0  0  0  0
    0.4875    2.0651    0.0000 C   0  0  0  0  0  0  0  0  0  0  0  0
   -3.0686   -0.3175    0.0000 C   0  0  0  0  0  0  0  0  0  0  0  0
   -1.6165    2.1975    0.0000 C   0  0  0  0  0  0  0  0  0  0  0  0
    2.1014    2.4082    0.0000 C   0  0  0  0  0  0  0  0  0  0  0  0
    0.7424    2.8498    0.0000 C   0  0  0  0  0  0  0  0  0  0  0  0
    1.5495    3.0213    0.0000 C   0  0  0  0  0  0  0  0  0  0  0  0
  1  6  1  0  0  0  0
  1 15  1  0  0  0  0
  2  3  1  0  0  0  0
  2 10  1  0  0  0  0
  3 11  2  0  0  0  0
  4  6  1  0  0  0  0
  4  7  2  0  0  0  0
  4  9  1  0  0  0  0
  5  8  1  0  0  0  0
  5  9  2  0  0  0  0
  5 13  1  0  0  0  0
  6 12  1  0  0  0  0
  7 14  1  0  0  0  0
  7 15  1  0  0  0  0
  8 10  2  0  0  0  0
  8 11  1  0  0  0  0
 10 18  1  0  0  0  0
 11 19  1  0  0  0  0
 12 16  2  0  0  0  0
 12 17  1  0  0  0  0
 13 14  2  0  0  0  0
 16 20  1  0  0  0  0
 17 21  2  0  0  0  0
 20 22  2  0  0  0  0
 21 22  1  0  0  0  0
M  END
> <PUBCHEM_COMPOUND_ID_TYPE>
0

> <PUBCHEM_TOTAL_CHARGE>
0

> <PUBCHEM_SUBSTANCE_ID>
310938351

> <PUBCHEM_SUBSTANCE_VERSION>
1

> <PUBCHEM_EXT_DATASOURCE_NAME>
4488

> <PUBCHEM_EXT_DATASOURCE_REGID>
SCHEMBL16116236

> <PUBCHEM_SUBSTANCE_COMMENT>
InChI=1S/C19H17NO2/c1-12-18(13(2)22-20-12)15-8-9-16-11-21-19(17(16)10-15)14-6-4-3-5-7-14/h3-10,19H,11H2,1-2H3
InChIKey=JEKGBVMXNPJKCO-UHFFFAOYSA-N

> <PUBCHEM_SUBSTANCE_SYNONYM>
SCHEMBL16116236

> <PUBCHEM_XREF_EXT_ID>
SCHEMBL16116236

> <PUBCHEM_EXT_DATASOURCE_URL>
https://www.surechembl.org/

> <PUBCHEM_EXT_SUBSTANCE_URL>
https://www.surechembl.org/chemical/SCHEMBL16116236

> <PUBCHEM_CID_ASSOCIATIONS>
117605837  1

> <PUBCHEM_COORDINATE_TYPE>
1
3

$$$$
