310931690
  -OEChem-07211613022D

 28 31  0     1  0  0  0  0  0999 V2000
    1.1623   -6.4570    0.0000 Cl  0  0  0  0  0  0  0  0  0  0  0  0
    2.0662   -2.7442    0.0000 O   0  0  0  0  0  0  0  0  0  0  0  0
    0.4843   -4.9396    0.0000 O   0  0  0  0  0  0  0  0  0  0  0  0
    3.5190    0.0000    0.0000 O   0  0  0  0  0  0  0  0  0  0  0  0
    3.5190   -2.5182    0.0000 N   0  0  0  0  0  0  0  0  0  0  0  0
    3.9387   -3.7773    0.0000 N   0  0  0  0  0  0  0  0  0  0  0  0
    4.9718   -2.7442    0.0000 N   0  0  0  0  0  0  0  0  0  0  0  0
    3.0993   -3.7773    0.0000 C   0  0  3  0  0  0  0  0  0  0  0  0
    2.8410   -3.0025    0.0000 C   0  0  0  0  0  0  0  0  0  0  0  0
    2.6151   -4.4553    0.0000 C   0  0  0  0  0  0  0  0  0  0  0  0
    3.4868   -4.5199    0.0000 C   0  0  0  0  0  0  0  0  0  0  0  0
    4.1970   -3.0025    0.0000 C   0  0  0  0  0  0  0  0  0  0  0  0
    3.5190   -1.6788    0.0000 C   0  0  0  0  0  0  0  0  0  0  0  0
    1.8079   -4.3585    0.0000 C   0  0  0  0  0  0  0  0  0  0  0  0
    2.9379   -5.1979    0.0000 C   0  0  0  0  0  0  0  0  0  0  0  0
    4.2939   -4.5844    0.0000 C   0  0  0  0  0  0  0  0  0  0  0  0
    3.1962   -5.3916    0.0000 C   0  0  0  0  0  0  0  0  0  0  0  0
    1.3237   -5.0364    0.0000 C   0  0  0  0  0  0  0  0  0  0  0  0
    1.6465   -5.7789    0.0000 C   0  0  0  0  0  0  0  0  0  0  0  0
    2.4537   -5.8758    0.0000 C   0  0  0  0  0  0  0  0  0  0  0  0
    4.2293   -1.2591    0.0000 C   0  0  0  0  0  0  0  0  0  0  0  0
    2.8088   -1.2591    0.0000 C   0  0  0  0  0  0  0  0  0  0  0  0
    4.6813   -5.2947    0.0000 C   0  0  0  0  0  0  0  0  0  0  0  0
    3.3899   -5.9404    0.0000 C   0  0  0  0  0  0  0  0  0  0  0  0
    4.2293   -6.0050    0.0000 C   0  0  0  0  0  0  0  0  0  0  0  0
    4.2293   -0.4520    0.0000 C   0  0  0  0  0  0  0  0  0  0  0  0
    2.8088   -0.4520    0.0000 C   0  0  0  0  0  0  0  0  0  0  0  0
    0.0000   -5.6175    0.0000 C   0  0  0  0  0  0  0  0  0  0  0  0
  1 19  1  0  0  0  0
  2  9  2  0  0  0  0
  3 18  1  0  0  0  0
  3 28  1  0  0  0  0
  4 26  1  0  0  0  0
  4 27  1  0  0  0  0
  5  9  1  0  0  0  0
  5 12  1  0  0  0  0
  5 13  1  0  0  0  0
  6  8  1  0  0  0  0
  6 12  1  0  0  0  0
  7 12  2  3  0  0  0
  8  9  1  0  0  0  0
  8 10  1  0  0  0  0
  8 11  1  0  0  0  0
 10 14  1  0  0  0  0
 10 15  2  0  0  0  0
 11 16  1  0  0  0  0
 11 17  1  0  0  0  0
 13 21  1  0  0  0  0
 13 22  1  0  0  0  0
 14 18  2  0  0  0  0
 15 20  1  0  0  0  0
 16 23  1  0  0  0  0
 17 24  1  0  0  0  0
 18 19  1  0  0  0  0
 19 20  2  0  0  0  0
 21 26  1  0  0  0  0
 22 27  1  0  0  0  0
 23 25  1  0  0  0  0
 24 25  1  0  0  0  0
M  END
> <PUBCHEM_COMPOUND_ID_TYPE>
0

> <PUBCHEM_TOTAL_CHARGE>
0

> <PUBCHEM_SUBSTANCE_ID>
310931690

> <PUBCHEM_SUBSTANCE_VERSION>
1

> <PUBCHEM_EXT_DATASOURCE_NAME>
4488

> <PUBCHEM_EXT_DATASOURCE_REGID>
SCHEMBL16109017

> <PUBCHEM_SUBSTANCE_COMMENT>
InChI=1S/C21H28ClN3O3/c1-27-18-13-15(7-8-17(18)22)21(14-5-3-2-4-6-14)19(26)25(20(23)24-21)16-9-11-28-12-10-16/h7-8,13-14,16H,2-6,9-12H2,1H3,(H2,23,24)
InChIKey=QQBCAZGJQJGWEL-UHFFFAOYSA-N

> <PUBCHEM_SUBSTANCE_SYNONYM>
SCHEMBL16109017

> <PUBCHEM_XREF_EXT_ID>
SCHEMBL16109017

> <PUBCHEM_EXT_DATASOURCE_URL>
https://www.surechembl.org/

> <PUBCHEM_EXT_SUBSTANCE_URL>
https://www.surechembl.org/chemical/SCHEMBL16109017

> <PUBCHEM_CID_ASSOCIATIONS>
86274085  1

> <PUBCHEM_COORDINATE_TYPE>
1
3

$$$$
