310940829
  -OEChem-07211613022D

 42 46  0     1  0  0  0  0  0999 V2000
    5.0895   -0.8936    0.0000 O   0  0  0  0  0  0  0  0  0  0  0  0
    3.9458    1.0651    0.0000 O   0  0  0  0  0  0  0  0  0  0  0  0
    1.7870   -1.0079    0.0000 O   0  0  0  0  0  0  0  0  0  0  0  0
   -0.3860    1.0651    0.0000 O   0  0  0  0  0  0  0  0  0  0  0  0
    3.9458    2.7378    0.0000 O   0  0  0  0  0  0  0  0  0  0  0  0
   -2.5448   -1.0079    0.0000 O   0  0  0  0  0  0  0  0  0  0  0  0
   -5.4327   -1.0079    0.0000 O   0  0  0  0  0  0  0  0  0  0  0  0
    2.5162    0.2359    0.0000 N   0  0  0  0  0  0  0  0  0  0  0  0
    0.3431   -0.1787    0.0000 N   0  0  0  0  0  0  0  0  0  0  0  0
   -1.8300    0.2359    0.0000 N   0  0  0  0  0  0  0  0  0  0  0  0
   -3.9887   -0.1787    0.0000 N   0  0  0  0  0  0  0  0  0  0  0  0
    2.4876   -1.4225    0.0000 C   0  0  0  0  0  0  0  0  0  0  0  0
    1.6727   -1.4225    0.0000 C   0  0  3  0  0  0  0  0  0  0  0  0
    2.0730   -2.1088    0.0000 C   0  0  3  0  0  0  0  0  0  0  0  0
    4.6750   -0.1644    0.0000 C   0  0  3  0  0  0  0  0  0  0  0  0
    3.9458    0.2502    0.0000 C   0  0  0  0  0  0  0  0  0  0  0  0
    3.2453   -0.1501    0.0000 C   0  0  3  0  0  0  0  0  0  0  0  0
    3.2310   -0.9793    0.0000 C   0  0  0  0  0  0  0  0  0  0  0  0
    0.8721   -1.5797    0.0000 C   0  0  0  0  0  0  0  0  0  0  0  0
    1.5440   -2.7378    0.0000 C   0  0  0  0  0  0  0  0  0  0  0  0
    4.2747   -0.8793    0.0000 C   0  0  0  0  0  0  0  0  0  0  0  0
    0.7863   -2.4090    0.0000 C   0  0  0  0  0  0  0  0  0  0  0  0
    5.4327    0.2645    0.0000 C   0  0  0  0  0  0  0  0  0  0  0  0
    1.8014   -0.1358    0.0000 C   0  0  0  0  0  0  0  0  0  0  0  0
    1.0723    0.2645    0.0000 C   0  0  3  0  0  0  0  0  0  0  0  0
    1.0866    1.1079    0.0000 C   0  0  0  0  0  0  0  0  0  0  0  0
    1.7870    1.5083    0.0000 C   0  0  0  0  0  0  0  0  0  0  0  0
   -0.3860    0.2502    0.0000 C   0  0  0  0  0  0  0  0  0  0  0  0
   -1.0866   -0.1501    0.0000 C   0  0  3  0  0  0  0  0  0  0  0  0
    2.5162    1.1079    0.0000 C   0  0  0  0  0  0  0  0  0  0  0  0
    1.8014    2.3374    0.0000 C   0  0  0  0  0  0  0  0  0  0  0  0
    3.2310    2.3517    0.0000 C   0  0  0  0  0  0  0  0  0  0  0  0
    3.2310    1.5083    0.0000 C   0  0  0  0  0  0  0  0  0  0  0  0
    2.5019    2.7378    0.0000 C   0  0  0  0  0  0  0  0  0  0  0  0
   -2.5448   -0.1358    0.0000 C   0  0  0  0  0  0  0  0  0  0  0  0
   -1.1008   -0.9936    0.0000 C   0  0  0  0  0  0  0  0  0  0  0  0
   -3.2739    0.2502    0.0000 C   0  0  0  0  0  0  0  0  0  0  0  0
   -3.9887   -0.9793    0.0000 C   0  0  0  0  0  0  0  0  0  0  0  0
   -4.7178    0.2502    0.0000 C   0  0  0  0  0  0  0  0  0  0  0  0
   -4.6893   -1.3939    0.0000 C   0  0  0  0  0  0  0  0  0  0  0  0
   -5.4184   -0.1501    0.0000 C   0  0  0  0  0  0  0  0  0  0  0  0
    4.7036    2.3232    0.0000 C   0  0  0  0  0  0  0  0  0  0  0  0
  1 15  1  0  0  0  0
  1 21  1  0  0  0  0
  2 16  2  0  0  0  0
  3 24  2  0  0  0  0
  4 28  2  0  0  0  0
  5 32  1  0  0  0  0
  5 42  1  0  0  0  0
  6 35  2  0  0  0  0
  7 40  1  0  0  0  0
  7 41  1  0  0  0  0
  8 17  1  0  0  0  0
  8 24  1  0  0  0  0
  9 25  1  0  0  0  0
  9 28  1  0  0  0  0
 10 29  1  0  0  0  0
 10 35  1  0  0  0  0
 11 37  1  0  0  0  0
 11 38  1  0  0  0  0
 11 39  1  0  0  0  0
 12 13  1  0  0  0  0
 12 14  1  0  0  0  0
 12 18  1  0  0  0  0
 13 14  1  0  0  0  0
 13 19  1  0  0  0  0
 14 20  1  0  0  0  0
 15 16  1  0  0  0  0
 15 21  1  0  0  0  0
 15 23  1  0  0  0  0
 16 17  1  0  0  0  0
 17 18  1  0  0  0  0
 19 22  1  0  0  0  0
 20 22  1  0  0  0  0
 24 25  1  0  0  0  0
 25 26  1  0  0  0  0
 26 27  1  0  0  0  0
 27 30  2  0  0  0  0
 27 31  1  0  0  0  0
 28 29  1  0  0  0  0
 29 36  1  0  0  0  0
 30 33  1  0  0  0  0
 31 34  2  0  0  0  0
 32 33  2  0  0  0  0
 32 34  1  0  0  0  0
 35 37  1  0  0  0  0
 38 40  1  0  0  0  0
 39 41  1  0  0  0  0
M  END
> <PUBCHEM_COMPOUND_ID_TYPE>
0

> <PUBCHEM_TOTAL_CHARGE>
0

> <PUBCHEM_SUBSTANCE_ID>
310940829

> <PUBCHEM_SUBSTANCE_VERSION>
1

> <PUBCHEM_EXT_DATASOURCE_NAME>
4488

> <PUBCHEM_EXT_DATASOURCE_REGID>
SCHEMBL16118788

> <PUBCHEM_SUBSTANCE_COMMENT>
InChI=1S/C31H44N4O7/c1-19(32-27(36)17-35-11-13-41-14-12-35)29(38)34-26(15-20-7-9-21(40-3)10-8-20)30(39)33-25(28(37)31(2)18-42-31)16-24-22-5-4-6-23(22)24/h7-10,19,22-26H,4-6,11-18H2,1-3H3,(H,32,36)(H,33,39)(H,34,38)
InChIKey=MMADYNPLYKEDOX-UHFFFAOYSA-N

> <PUBCHEM_SUBSTANCE_SYNONYM>
SCHEMBL16118788

> <PUBCHEM_XREF_EXT_ID>
SCHEMBL16118788

> <PUBCHEM_EXT_DATASOURCE_URL>
https://www.surechembl.org/

> <PUBCHEM_EXT_SUBSTANCE_URL>
https://www.surechembl.org/chemical/SCHEMBL16118788

> <PUBCHEM_CID_ASSOCIATIONS>
86297125  1

> <PUBCHEM_COORDINATE_TYPE>
1
3

$$$$
