310946750
  -OEChem-07211613022D

 23 25  0     1  0  0  0  0  0999 V2000
   -1.5097    0.3119    0.0000 N   0  0  0  0  0  0  0  0  0  0  0  0
   -1.5821   -2.4049    0.0000 N   0  0  0  0  0  0  0  0  0  0  0  0
   -2.2943    0.0569    0.0000 N   0  0  0  0  0  0  0  0  0  0  0  0
   -1.0972   -3.0724    0.0000 N   0  0  0  0  0  0  0  0  0  0  0  0
    1.1164   -1.9924    0.0000 N   0  0  3  0  0  0  0  0  0  0  0  0
    3.2598   -1.5799    0.0000 N   0  0  0  0  0  0  0  0  0  0  0  0
   -1.0972   -1.7375    0.0000 C   0  0  0  0  0  0  0  0  0  0  0  0
   -1.5097   -1.0230    0.0000 C   0  0  0  0  0  0  0  0  0  0  0  0
   -0.3126   -1.9924    0.0000 C   0  0  0  0  0  0  0  0  0  0  0  0
   -1.0248   -0.3556    0.0000 C   0  0  0  0  0  0  0  0  0  0  0  0
   -2.2943   -0.7681    0.0000 C   0  0  0  0  0  0  0  0  0  0  0  0
   -0.3126   -2.8174    0.0000 C   0  0  0  0  0  0  0  0  0  0  0  0
    0.4019   -1.5799    0.0000 C   0  0  0  0  0  0  0  0  0  0  0  0
   -1.2962    1.1087    0.0000 C   0  0  0  0  0  0  0  0  0  0  0  0
   -1.8795    1.6921    0.0000 C   0  0  0  0  0  0  0  0  0  0  0  0
   -1.6660    2.4890    0.0000 C   0  0  0  0  0  0  0  0  0  0  0  0
   -2.6764    1.4786    0.0000 C   0  0  0  0  0  0  0  0  0  0  0  0
    1.8308   -1.5799    0.0000 C   0  0  0  0  0  0  0  0  0  0  0  0
    1.1164   -2.8174    0.0000 C   0  0  0  0  0  0  0  0  0  0  0  0
   -2.2494    3.0724    0.0000 C   0  0  0  0  0  0  0  0  0  0  0  0
   -3.2598    2.0620    0.0000 C   0  0  0  0  0  0  0  0  0  0  0  0
   -3.0463    2.8588    0.0000 C   0  0  0  0  0  0  0  0  0  0  0  0
    2.5453   -1.9924    0.0000 C   0  0  0  0  0  0  0  0  0  0  0  0
  1  3  1  0  0  0  0
  1 10  1  0  0  0  0
  1 14  1  0  0  0  0
  2  4  1  0  0  0  0
  2  7  2  0  0  0  0
  3 11  2  0  0  0  0
  4 12  1  0  0  0  0
  5 13  1  0  0  0  0
  5 18  1  0  0  0  0
  5 19  1  0  0  0  0
  6 23  1  0  0  0  0
  7  8  1  0  0  0  0
  7  9  1  0  0  0  0
  8 10  2  0  0  0  0
  8 11  1  0  0  0  0
  9 12  2  0  0  0  0
  9 13  1  0  0  0  0
 14 15  1  0  0  0  0
 15 16  2  0  0  0  0
 15 17  1  0  0  0  0
 16 20  1  0  0  0  0
 17 21  2  0  0  0  0
 18 23  1  0  0  0  0
 20 22  2  0  0  0  0
 21 22  1  0  0  0  0
M  END
> <PUBCHEM_COMPOUND_ID_TYPE>
0

> <PUBCHEM_TOTAL_CHARGE>
0

> <PUBCHEM_SUBSTANCE_ID>
310946750

> <PUBCHEM_SUBSTANCE_VERSION>
1

> <PUBCHEM_EXT_DATASOURCE_NAME>
4488

> <PUBCHEM_EXT_DATASOURCE_REGID>
SCHEMBL16124874

> <PUBCHEM_SUBSTANCE_COMMENT>
InChI=1S/C17H22N6/c1-22(8-7-18)12-15-9-19-21-17(15)16-10-20-23(13-16)11-14-5-3-2-4-6-14/h2-6,9-10,13H,7-8,11-12,18H2,1H3,(H,19,21)
InChIKey=DWPZGNRLOHISCA-UHFFFAOYSA-N

> <PUBCHEM_SUBSTANCE_SYNONYM>
SCHEMBL16124874

> <PUBCHEM_XREF_EXT_ID>
SCHEMBL16124874

> <PUBCHEM_EXT_DATASOURCE_URL>
https://www.surechembl.org/

> <PUBCHEM_EXT_SUBSTANCE_URL>
https://www.surechembl.org/chemical/SCHEMBL16124874

> <PUBCHEM_CID_ASSOCIATIONS>
86296346  1

> <PUBCHEM_COORDINATE_TYPE>
1
3

$$$$
