310946536
  -OEChem-07211613022D

 23 22  0     1  0  0  0  0  0999 V2000
   -6.8911   14.8451    0.0000 O   0  0  0  0  0  0  0  0  0  0  0  0
   -2.6043   14.8451    0.0000 O   0  0  0  0  0  0  0  0  0  0  0  0
   -7.6056   16.9076    0.0000 O   0  0  0  0  0  0  0  0  0  0  0  0
   -6.8911   15.6701    0.0000 O   0  0  0  0  0  0  0  0  0  0  0  0
   -7.6056   13.6076    0.0000 O   0  0  0  0  0  0  0  0  0  0  0  0
  -10.4635   16.0826    0.0000 O   0  0  0  0  0  0  0  0  0  0  0  0
   -9.7490   14.8451    0.0000 O   0  0  0  0  0  0  0  0  0  0  0  0
   -1.8898   16.0826    0.0000 O   0  5  0  0  0  0  0  0  0  0  0  0
   -3.3188   16.0826    0.0000 O   0  0  0  0  0  0  0  0  0  0  0  0
   -8.3201   14.8451    0.0000 N   0  0  0  0  0  0  0  0  0  0  0  0
   -2.6043   15.6701    0.0000 N   0  3  0  0  0  0  0  0  0  0  0  0
   -8.3201   15.6701    0.0000 C   0  0  3  0  0  0  0  0  0  0  0  0
   -7.6056   16.0826    0.0000 C   0  0  0  0  0  0  0  0  0  0  0  0
   -7.6056   14.4326    0.0000 C   0  0  0  0  0  0  0  0  0  0  0  0
   -9.0345   16.0826    0.0000 C   0  0  0  0  0  0  0  0  0  0  0  0
   -9.7490   15.6701    0.0000 C   0  0  0  0  0  0  0  0  0  0  0  0
   -3.3188   14.4326    0.0000 C   0  0  3  0  0  0  0  0  0  0  0  0
   -4.0332   14.8451    0.0000 C   0  0  0  0  0  0  0  0  0  0  0  0
   -6.1767   14.4326    0.0000 C   0  0  0  0  0  0  0  0  0  0  0  0
   -4.7477   14.4326    0.0000 C   0  0  0  0  0  0  0  0  0  0  0  0
   -5.4622   14.8451    0.0000 C   0  0  0  0  0  0  0  0  0  0  0  0
   -3.3188   13.6076    0.0000 C   0  0  0  0  0  0  0  0  0  0  0  0
   -2.6043   13.1951    0.0000 C   0  0  0  0  0  0  0  0  0  0  0  0
  1 14  1  0  0  0  0
  1 19  1  0  0  0  0
  2 11  1  0  0  0  0
  2 17  1  0  0  0  0
  3 13  2  0  0  0  0
  4 13  1  0  0  0  0
  5 14  2  0  0  0  0
  6 16  2  0  0  0  0
  7 16  1  0  0  0  0
  8 11  1  0  0  0  0
  9 11  2  0  0  0  0
 10 12  1  0  0  0  0
 10 14  1  0  0  0  0
 12 13  1  0  0  0  0
 12 15  1  0  0  0  0
 15 16  1  0  0  0  0
 17 18  1  0  0  0  0
 17 22  1  0  0  0  0
 18 20  1  0  0  0  0
 19 21  1  0  0  0  0
 20 21  1  0  0  0  0
 22 23  1  0  0  0  0
M  CHG  2   8  -1  11   1
M  END
> <PUBCHEM_COMPOUND_ID_TYPE>
0

> <PUBCHEM_TOTAL_CHARGE>
0

> <PUBCHEM_SUBSTANCE_ID>
310946536

> <PUBCHEM_SUBSTANCE_VERSION>
1

> <PUBCHEM_EXT_DATASOURCE_NAME>
4488

> <PUBCHEM_EXT_DATASOURCE_REGID>
SCHEMBL16124657

> <PUBCHEM_SUBSTANCE_COMMENT>
InChI=1S/C12H20N2O9/c1-2-8(23-14(20)21)5-3-4-6-22-12(19)13-9(11(17)18)7-10(15)16/h8-9H,2-7H2,1H3,(H,13,19)(H,15,16)(H,17,18)
InChIKey=DUUDHRFKHRKFRI-UHFFFAOYSA-N

> <PUBCHEM_SUBSTANCE_SYNONYM>
SCHEMBL16124657

> <PUBCHEM_XREF_EXT_ID>
SCHEMBL16124657

> <PUBCHEM_EXT_DATASOURCE_URL>
https://www.surechembl.org/

> <PUBCHEM_EXT_SUBSTANCE_URL>
https://www.surechembl.org/chemical/SCHEMBL16124657

> <PUBCHEM_CID_ASSOCIATIONS>
117612441  1

> <PUBCHEM_COORDINATE_TYPE>
1
3

$$$$
