310935284
  -OEChem-07211613022D

 32 35  0     1  0  0  0  0  0999 V2000
    4.9930   -0.9178    0.0000 S   0  0  0  0  0  0  0  0  0  0  0  0
    0.4039   -5.9108    0.0000 O   0  0  0  0  0  0  0  0  0  0  0  0
    4.9930    0.0000    0.0000 O   0  0  0  0  0  0  0  0  0  0  0  0
    4.9930   -1.7255    0.0000 O   0  0  0  0  0  0  0  0  0  0  0  0
    4.9930   -3.7815    0.0000 N   0  0  0  0  0  0  0  0  0  0  0  0
    6.2413   -5.9475    0.0000 N   0  0  0  0  0  0  0  0  0  0  0  0
    6.2413   -4.4790    0.0000 N   0  0  0  0  0  0  0  0  0  0  0  0
    4.1853   -0.9178    0.0000 N   0  0  3  0  0  0  0  0  0  0  0  0
    1.6888   -6.6451    0.0000 N   0  0  0  0  0  0  0  0  0  0  0  0
    4.9930   -5.2133    0.0000 C   0  0  0  0  0  0  0  0  0  0  0  0
    5.3968   -5.9475    0.0000 C   0  0  0  0  0  0  0  0  0  0  0  0
    5.3968   -4.4790    0.0000 C   0  0  0  0  0  0  0  0  0  0  0  0
    3.7447   -5.9108    0.0000 C   0  0  0  0  0  0  0  0  0  0  0  0
    4.9930   -6.6451    0.0000 C   0  0  0  0  0  0  0  0  0  0  0  0
    4.1853   -5.2133    0.0000 C   0  0  0  0  0  0  0  0  0  0  0  0
    4.1853   -6.6451    0.0000 C   0  0  0  0  0  0  0  0  0  0  0  0
    2.9371   -5.9108    0.0000 C   0  0  0  0  0  0  0  0  0  0  0  0
    6.6451   -5.2133    0.0000 C   0  0  0  0  0  0  0  0  0  0  0  0
    4.1486   -3.7815    0.0000 C   0  0  0  0  0  0  0  0  0  0  0  0
    5.3968   -3.0839    0.0000 C   0  0  0  0  0  0  0  0  0  0  0  0
    4.1853   -2.3497    0.0000 C   0  0  0  0  0  0  0  0  0  0  0  0
    2.4965   -6.6451    0.0000 C   0  0  0  0  0  0  0  0  0  0  0  0
    2.4965   -5.2133    0.0000 C   0  0  0  0  0  0  0  0  0  0  0  0
    3.7447   -3.0839    0.0000 C   0  0  0  0  0  0  0  0  0  0  0  0
    4.9930   -2.3497    0.0000 C   0  0  0  0  0  0  0  0  0  0  0  0
    5.4335   -7.3426    0.0000 C   0  0  0  0  0  0  0  0  0  0  0  0
    3.7447   -1.6154    0.0000 C   0  0  0  0  0  0  0  0  0  0  0  0
    1.2483   -5.9108    0.0000 C   0  0  0  0  0  0  0  0  0  0  0  0
    1.6888   -5.2133    0.0000 C   0  0  0  0  0  0  0  0  0  0  0  0
    3.7447   -0.1835    0.0000 C   0  0  0  0  0  0  0  0  0  0  0  0
    5.8007   -0.9178    0.0000 C   0  0  0  0  0  0  0  0  0  0  0  0
    0.0000   -6.6451    0.0000 C   0  0  0  0  0  0  0  0  0  0  0  0
  1  3  2  0  0  0  0
  1  4  2  0  0  0  0
  1  8  1  0  0  0  0
  1 31  1  0  0  0  0
  2 28  1  0  0  0  0
  2 32  1  0  0  0  0
  5 12  1  0  0  0  0
  5 19  1  0  0  0  0
  5 20  1  0  0  0  0
  6 11  2  0  0  0  0
  6 18  1  0  0  0  0
  7 12  1  0  0  0  0
  7 18  2  0  0  0  0
  8 27  1  0  0  0  0
  8 30  1  0  0  0  0
  9 22  1  0  0  0  0
  9 28  2  0  0  0  0
 10 11  1  0  0  0  0
 10 12  2  0  0  0  0
 10 15  1  0  0  0  0
 11 14  1  0  0  0  0
 13 15  2  0  0  0  0
 13 16  1  0  0  0  0
 13 17  1  0  0  0  0
 14 16  2  0  0  0  0
 14 26  1  0  0  0  0
 17 22  2  0  0  0  0
 17 23  1  0  0  0  0
 19 24  1  0  0  0  0
 20 25  1  0  0  0  0
 21 24  1  0  0  0  0
 21 25  1  0  0  0  0
 21 27  1  0  0  0  0
 23 29  2  0  0  0  0
 28 29  1  0  0  0  0
M  END
> <PUBCHEM_COMPOUND_ID_TYPE>
0

> <PUBCHEM_TOTAL_CHARGE>
0

> <PUBCHEM_SUBSTANCE_ID>
310935284

> <PUBCHEM_SUBSTANCE_VERSION>
1

> <PUBCHEM_EXT_DATASOURCE_NAME>
4488

> <PUBCHEM_EXT_DATASOURCE_REGID>
SCHEMBL16112816

> <PUBCHEM_SUBSTANCE_COMMENT>
InChI=1S/C23H29N5O3S/c1-16-11-19(18-5-6-21(31-3)24-13-18)12-20-22(16)25-15-26-23(20)28-9-7-17(8-10-28)14-27(2)32(4,29)30/h5-6,11-13,15,17H,7-10,14H2,1-4H3
InChIKey=ABRWNMWLMRPEGL-UHFFFAOYSA-N

> <PUBCHEM_SUBSTANCE_SYNONYM>
SCHEMBL16112816

> <PUBCHEM_XREF_EXT_ID>
SCHEMBL16112816

> <PUBCHEM_EXT_DATASOURCE_URL>
https://www.surechembl.org/

> <PUBCHEM_EXT_SUBSTANCE_URL>
https://www.surechembl.org/chemical/SCHEMBL16112816

> <PUBCHEM_CID_ASSOCIATIONS>
117603353  1

> <PUBCHEM_COORDINATE_TYPE>
1
3

$$$$
