310937399
  -OEChem-07211613022D

 29 30  0     1  0  0  0  0  0999 V2000
    3.7934   -7.1743    0.0000 F   0  0  0  0  0  0  0  0  0  0  0  0
    3.4914   -6.0474    0.0000 F   0  0  0  0  0  0  0  0  0  0  0  0
    4.9204   -6.8724    0.0000 F   0  0  0  0  0  0  0  0  0  0  0  0
    7.5059   -5.0309    0.0000 F   0  0  0  0  0  0  0  0  0  0  0  0
    6.6809   -5.8559    0.0000 F   0  0  0  0  0  0  0  0  0  0  0  0
    6.6809   -4.2059    0.0000 F   0  0  0  0  0  0  0  0  0  0  0  0
    2.9684   -2.8875    0.0000 O   0  0  0  0  0  0  0  0  0  0  0  0
    3.3809   -5.0309    0.0000 O   0  0  0  0  0  0  0  0  0  0  0  0
    1.7309   -2.1730    0.0000 O   0  0  0  0  0  0  0  0  0  0  0  0
    1.7309   -3.6020    0.0000 N   0  0  0  0  0  0  0  0  0  0  0  0
    4.6184   -4.3164    0.0000 C   0  0  0  0  0  0  0  0  0  0  0  0
    4.6184   -5.7454    0.0000 C   0  0  0  0  0  0  0  0  0  0  0  0
    5.8559   -5.0309    0.0000 C   0  0  0  0  0  0  0  0  0  0  0  0
    4.2059   -3.6020    0.0000 C   0  0  3  0  0  0  0  0  0  0  0  0
    5.4434   -4.3164    0.0000 C   0  0  0  0  0  0  0  0  0  0  0  0
    4.2059   -5.0309    0.0000 C   0  0  0  0  0  0  0  0  0  0  0  0
    5.4434   -5.7454    0.0000 C   0  0  0  0  0  0  0  0  0  0  0  0
    4.2059   -6.4599    0.0000 C   0  0  0  0  0  0  0  0  0  0  0  0
    6.6809   -5.0309    0.0000 C   0  0  0  0  0  0  0  0  0  0  0  0
    3.3809   -3.6020    0.0000 C   0  0  3  0  0  0  0  0  0  0  0  0
    4.6184   -2.8875    0.0000 C   0  0  0  0  0  0  0  0  0  0  0  0
    4.2059   -2.1730    0.0000 C   0  0  0  0  0  0  0  0  0  0  0  0
    2.9684   -4.3164    0.0000 C   0  0  0  0  0  0  0  0  0  0  0  0
    2.1434   -2.8875    0.0000 C   0  0  0  0  0  0  0  0  0  0  0  0
    3.3809   -2.1730    0.0000 C   0  0  0  0  0  0  0  0  0  0  0  0
    4.6184   -1.4586    0.0000 C   0  0  0  0  0  0  0  0  0  0  0  0
    2.9684   -1.4586    0.0000 C   0  0  0  0  0  0  0  0  0  0  0  0
    4.2059   -0.7441    0.0000 C   0  0  0  0  0  0  0  0  0  0  0  0
    3.3809   -0.7441    0.0000 C   0  0  0  0  0  0  0  0  0  0  0  0
  1 18  1  0  0  0  0
  2 18  1  0  0  0  0
  3 18  1  0  0  0  0
  4 19  1  0  0  0  0
  5 19  1  0  0  0  0
  6 19  1  0  0  0  0
  7 20  1  0  0  0  0
  7 24  1  0  0  0  0
  8 23  1  0  0  0  0
  9 24  2  0  0  0  0
 10 24  1  0  0  0  0
 11 14  1  0  0  0  0
 11 15  2  0  0  0  0
 11 16  1  0  0  0  0
 12 16  2  0  0  0  0
 12 17  1  0  0  0  0
 12 18  1  0  0  0  0
 13 15  1  0  0  0  0
 13 17  2  0  0  0  0
 13 19  1  0  0  0  0
 14 20  1  0  0  0  0
 14 21  1  0  0  0  0
 20 23  1  0  0  0  0
 21 22  1  0  0  0  0
 22 25  2  0  0  0  0
 22 26  1  0  0  0  0
 25 27  1  0  0  0  0
 26 28  2  0  0  0  0
 27 29  2  0  0  0  0
 28 29  1  0  0  0  0
M  END
> <PUBCHEM_COMPOUND_ID_TYPE>
0

> <PUBCHEM_TOTAL_CHARGE>
0

> <PUBCHEM_SUBSTANCE_ID>
310937399

> <PUBCHEM_SUBSTANCE_VERSION>
1

> <PUBCHEM_EXT_DATASOURCE_NAME>
4488

> <PUBCHEM_EXT_DATASOURCE_REGID>
SCHEMBL16115157

> <PUBCHEM_SUBSTANCE_COMMENT>
InChI=1S/C19H17F6NO3/c20-18(21,22)13-7-12(8-14(9-13)19(23,24)25)15(16(10-27)29-17(26)28)6-11-4-2-1-3-5-11/h1-5,7-9,15-16,27H,6,10H2,(H2,26,28)
InChIKey=OEJASGQUOPBKQT-UHFFFAOYSA-N

> <PUBCHEM_SUBSTANCE_SYNONYM>
SCHEMBL16115157

> <PUBCHEM_XREF_EXT_ID>
SCHEMBL16115157

> <PUBCHEM_EXT_DATASOURCE_URL>
https://www.surechembl.org/

> <PUBCHEM_EXT_SUBSTANCE_URL>
https://www.surechembl.org/chemical/SCHEMBL16115157

> <PUBCHEM_CID_ASSOCIATIONS>
117605163  1

> <PUBCHEM_COORDINATE_TYPE>
1
3

$$$$
