310943579
  -OEChem-07211613022D

 27 29  0     1  0  0  0  0  0999 V2000
    3.7996    1.0412    0.0000 S   0  0  0  0  0  0  0  0  0  0  0  0
    3.5292    2.0283    0.0000 O   0  0  0  0  0  0  0  0  0  0  0  0
    4.6920    1.5550    0.0000 O   0  0  0  0  0  0  0  0  0  0  0  0
   -2.0824   -1.5685    0.0000 N   0  0  3  0  0  0  0  0  0  0  0  0
   -3.8672   -1.0141    0.0000 N   0  0  3  0  0  0  0  0  0  0  0  0
    0.0541    1.5415    0.0000 N   0  0  0  0  0  0  0  0  0  0  0  0
    0.7707   -0.7167    0.0000 C   0  0  0  0  0  0  0  0  0  0  0  0
    1.4874   -0.3110    0.0000 C   0  0  0  0  0  0  0  0  0  0  0  0
    0.0541   -0.2975    0.0000 C   0  0  0  0  0  0  0  0  0  0  0  0
    2.8937    0.5139    0.0000 C   0  0  0  0  0  0  0  0  0  0  0  0
   -0.6626   -1.5415    0.0000 C   0  0  0  0  0  0  0  0  0  0  0  0
    0.7707   -1.5550    0.0000 C   0  0  0  0  0  0  0  0  0  0  0  0
   -0.6490   -0.7301    0.0000 C   0  0  0  0  0  0  0  0  0  0  0  0
    2.2041   -0.7167    0.0000 C   0  0  0  0  0  0  0  0  0  0  0  0
    1.5144    0.5273    0.0000 C   0  0  0  0  0  0  0  0  0  0  0  0
    2.8801   -0.3110    0.0000 C   0  0  0  0  0  0  0  0  0  0  0  0
    2.1905    0.9195    0.0000 C   0  0  0  0  0  0  0  0  0  0  0  0
    0.0541   -1.9607    0.0000 C   0  0  0  0  0  0  0  0  0  0  0  0
   -1.3522   -1.9607    0.0000 C   0  0  0  0  0  0  0  0  0  0  0  0
    0.0541    0.7031    0.0000 C   0  0  0  0  0  0  0  0  0  0  0  0
    4.5298    0.3110    0.0000 C   0  0  0  0  0  0  0  0  0  0  0  0
   -2.7584   -2.0283    0.0000 C   0  0  0  0  0  0  0  0  0  0  0  0
   -2.0283   -0.7437    0.0000 C   0  0  0  0  0  0  0  0  0  0  0  0
   -3.5562   -1.7849    0.0000 C   0  0  0  0  0  0  0  0  0  0  0  0
   -2.6367   -0.1758    0.0000 C   0  0  0  0  0  0  0  0  0  0  0  0
   -3.4346   -0.2975    0.0000 C   0  0  0  0  0  0  0  0  0  0  0  0
   -4.6920   -1.0276    0.0000 C   0  0  0  0  0  0  0  0  0  0  0  0
  1  2  2  0  0  0  0
  1  3  2  0  0  0  0
  1 10  1  0  0  0  0
  1 21  1  0  0  0  0
  4 19  1  0  0  0  0
  4 22  1  0  0  0  0
  4 23  1  0  0  0  0
  5 24  1  0  0  0  0
  5 26  1  0  0  0  0
  5 27  1  0  0  0  0
  6 20  3  0  0  0  0
  7  8  1  0  0  0  0
  7  9  2  0  0  0  0
  7 12  1  0  0  0  0
  8 14  2  0  0  0  0
  8 15  1  0  0  0  0
  9 13  1  0  0  0  0
  9 20  1  0  0  0  0
 10 16  2  0  0  0  0
 10 17  1  0  0  0  0
 11 13  2  0  0  0  0
 11 18  1  0  0  0  0
 11 19  1  0  0  0  0
 12 18  2  0  0  0  0
 14 16  1  0  0  0  0
 15 17  2  0  0  0  0
 22 24  1  0  0  0  0
 23 25  1  0  0  0  0
 25 26  1  0  0  0  0
M  END
> <PUBCHEM_COMPOUND_ID_TYPE>
0

> <PUBCHEM_TOTAL_CHARGE>
0

> <PUBCHEM_SUBSTANCE_ID>
310943579

> <PUBCHEM_SUBSTANCE_VERSION>
1

> <PUBCHEM_EXT_DATASOURCE_NAME>
4488

> <PUBCHEM_EXT_DATASOURCE_REGID>
SCHEMBL16121646

> <PUBCHEM_SUBSTANCE_COMMENT>
InChI=1S/C21H25N3O2S/c1-23-10-3-11-24(13-12-23)16-17-4-9-21(19(14-17)15-22)18-5-7-20(8-6-18)27(2,25)26/h4-9,14H,3,10-13,16H2,1-2H3
InChIKey=RISQQSVWOPMMPV-UHFFFAOYSA-N

> <PUBCHEM_SUBSTANCE_SYNONYM>
SCHEMBL16121646

> <PUBCHEM_XREF_EXT_ID>
SCHEMBL16121646

> <PUBCHEM_EXT_DATASOURCE_URL>
https://www.surechembl.org/

> <PUBCHEM_EXT_SUBSTANCE_URL>
https://www.surechembl.org/chemical/SCHEMBL16121646

> <PUBCHEM_CID_ASSOCIATIONS>
117609985  1

> <PUBCHEM_COORDINATE_TYPE>
1
3

$$$$
