310935021
  -OEChem-07211613022D

 42 47  0     1  0  0  0  0  0999 V2000
    1.3969  -11.1753    0.0000 F   0  0  0  0  0  0  0  0  0  0  0  0
    2.8497  -11.1753    0.0000 F   0  0  0  0  0  0  0  0  0  0  0  0
    3.5761   -5.8112    0.0000 O   0  0  0  0  0  0  0  0  0  0  0  0
    5.7552   -3.7437    0.0000 O   0  0  0  0  0  0  0  0  0  0  0  0
    0.7264   -3.2967    0.0000 N   0  0  3  0  0  0  0  0  0  0  0  0
    0.0000   -2.0674    0.0000 N   0  0  0  0  0  0  0  0  0  0  0  0
    0.7264   -0.8382    0.0000 N   0  0  0  0  0  0  0  0  0  0  0  0
    2.8497   -7.0404    0.0000 N   0  0  0  0  0  0  0  0  0  0  0  0
    3.5761   -3.3526    0.0000 N   0  0  0  0  0  0  0  0  0  0  0  0
    4.3025   -3.7437    0.0000 N   0  0  0  0  0  0  0  0  0  0  0  0
    2.8497   -9.4990    0.0000 N   0  0  0  0  0  0  0  0  0  0  0  0
    1.4528   -2.0674    0.0000 C   0  0  0  0  0  0  0  0  0  0  0  0
    0.7264   -2.4585    0.0000 C   0  0  0  0  0  0  0  0  0  0  0  0
    1.4528   -1.2293    0.0000 C   0  0  0  0  0  0  0  0  0  0  0  0
    2.8497   -2.0674    0.0000 C   0  0  0  0  0  0  0  0  0  0  0  0
    2.1233   -0.8382    0.0000 C   0  0  0  0  0  0  0  0  0  0  0  0
    2.1233   -2.4585    0.0000 C   0  0  0  0  0  0  0  0  0  0  0  0
    1.4528   -4.5819    0.0000 C   0  0  0  0  0  0  0  0  0  0  0  0
    1.4528   -3.7437    0.0000 C   0  0  0  0  0  0  0  0  0  0  0  0
    0.7264   -4.9730    0.0000 C   0  0  0  0  0  0  0  0  0  0  0  0
    2.8497   -1.2293    0.0000 C   0  0  0  0  0  0  0  0  0  0  0  0
    3.5761   -2.5145    0.0000 C   0  0  0  0  0  0  0  0  0  0  0  0
    0.0000   -3.6878    0.0000 C   0  0  0  0  0  0  0  0  0  0  0  0
    2.1233   -5.8112    0.0000 C   0  0  0  0  0  0  0  0  0  0  0  0
    2.1233   -4.9730    0.0000 C   0  0  0  0  0  0  0  0  0  0  0  0
    0.0000   -4.5260    0.0000 C   0  0  0  0  0  0  0  0  0  0  0  0
    0.0000   -1.2293    0.0000 C   0  0  0  0  0  0  0  0  0  0  0  0
    0.7264   -5.7552    0.0000 C   0  0  0  0  0  0  0  0  0  0  0  0
    2.8497   -6.2023    0.0000 C   0  0  0  0  0  0  0  0  0  0  0  0
    1.3969   -6.2023    0.0000 C   0  0  0  0  0  0  0  0  0  0  0  0
    4.3025   -2.1233    0.0000 C   0  0  0  0  0  0  0  0  0  0  0  0
    2.1233    0.0000    0.0000 C   0  0  0  0  0  0  0  0  0  0  0  0
    5.0289   -3.3526    0.0000 C   0  0  0  0  0  0  0  0  0  0  0  0
    5.0289   -2.5145    0.0000 C   0  0  0  0  0  0  0  0  0  0  0  0
    3.5761   -7.4316    0.0000 C   0  0  0  0  0  0  0  0  0  0  0  0
    2.1233   -7.4316    0.0000 C   0  0  0  0  0  0  0  0  0  0  0  0
    2.8497   -8.6608    0.0000 C   0  0  0  0  0  0  0  0  0  0  0  0
    3.5761   -8.2697    0.0000 C   0  0  0  0  0  0  0  0  0  0  0  0
    2.1233   -8.2697    0.0000 C   0  0  0  0  0  0  0  0  0  0  0  0
    2.1233   -9.9460    0.0000 C   0  0  0  0  0  0  0  0  0  0  0  0
    6.4816   -3.3526    0.0000 C   0  0  0  0  0  0  0  0  0  0  0  0
    2.1233  -10.7283    0.0000 C   0  0  0  0  0  0  0  0  0  0  0  0
  1 42  1  0  0  0  0
  2 42  1  0  0  0  0
  3 29  2  0  0  0  0
  4 33  1  0  0  0  0
  4 41  1  0  0  0  0
  5 13  1  0  0  0  0
  5 19  1  0  0  0  0
  5 23  1  0  0  0  0
  6 13  1  0  0  0  0
  6 27  2  0  0  0  0
  7 14  2  0  0  0  0
  7 27  1  0  0  0  0
  8 29  1  0  0  0  0
  8 35  1  0  0  0  0
  8 36  1  0  0  0  0
  9 10  2  0  0  0  0
  9 22  1  0  0  0  0
 10 33  1  0  0  0  0
 11 37  1  0  0  0  0
 11 40  1  0  0  0  0
 12 13  2  0  0  0  0
 12 14  1  0  0  0  0
 12 17  1  0  0  0  0
 14 16  1  0  0  0  0
 15 17  2  0  0  0  0
 15 21  1  0  0  0  0
 15 22  1  0  0  0  0
 16 21  2  0  0  0  0
 16 32  1  0  0  0  0
 18 19  1  0  0  0  0
 18 20  2  0  0  0  0
 18 25  1  0  0  0  0
 20 26  1  0  0  0  0
 20 28  1  0  0  0  0
 22 31  2  0  0  0  0
 23 26  1  0  0  0  0
 24 25  2  0  0  0  0
 24 29  1  0  0  0  0
 24 30  1  0  0  0  0
 28 30  2  0  0  0  0
 31 34  1  0  0  0  0
 33 34  2  0  0  0  0
 35 38  1  0  0  0  0
 36 39  1  0  0  0  0
 37 38  1  0  0  0  0
 37 39  1  0  0  0  0
 40 42  1  0  0  0  0
M  END
> <PUBCHEM_COMPOUND_ID_TYPE>
0

> <PUBCHEM_TOTAL_CHARGE>
0

> <PUBCHEM_SUBSTANCE_ID>
310935021

> <PUBCHEM_SUBSTANCE_VERSION>
1

> <PUBCHEM_EXT_DATASOURCE_NAME>
4488

> <PUBCHEM_EXT_DATASOURCE_REGID>
SCHEMBL16112540

> <PUBCHEM_SUBSTANCE_COMMENT>
InChI=1S/C31H33F2N7O2/c1-19-13-22(26-5-6-28(42-2)38-37-26)15-25-29(19)35-18-36-30(25)40-10-7-20-3-4-21(14-23(20)17-40)31(41)39-11-8-24(9-12-39)34-16-27(32)33/h3-6,13-15,18,24,27,34H,7-12,16-17H2,1-2H3
InChIKey=BNRLFZYSTDNPGC-UHFFFAOYSA-N

> <PUBCHEM_SUBSTANCE_SYNONYM>
SCHEMBL16112540

> <PUBCHEM_XREF_EXT_ID>
SCHEMBL16112540

> <PUBCHEM_EXT_DATASOURCE_URL>
https://www.surechembl.org/

> <PUBCHEM_EXT_SUBSTANCE_URL>
https://www.surechembl.org/chemical/SCHEMBL16112540

> <PUBCHEM_CID_ASSOCIATIONS>
86301214  1

> <PUBCHEM_COORDINATE_TYPE>
1
3

$$$$
