310948012
  -OEChem-07211613022D

 27 31  0     1  0  0  0  0  0999 V2000
    0.1051   -0.6801    0.0000 Cl  0  0  0  0  0  0  0  0  0  0  0  0
    0.9459    0.6307    0.0000 O   0  0  0  0  0  0  0  0  0  0  0  0
   -2.7141   -0.6059    0.0000 O   0  0  0  0  0  0  0  0  0  0  0  0
   -0.4265    0.6307    0.0000 N   0  0  0  0  0  0  0  0  0  0  0  0
   -1.2674    1.8670    0.0000 N   0  0  0  0  0  0  0  0  0  0  0  0
    0.1545    1.8670    0.0000 N   0  0  0  0  0  0  0  0  0  0  0  0
   -1.9350   -1.0881    0.0000 N   0  0  0  0  0  0  0  0  0  0  0  0
    1.6260    1.7929    0.0000 N   0  0  0  0  0  0  0  0  0  0  0  0
   -1.6754   -1.8670    0.0000 N   0  0  0  0  0  0  0  0  0  0  0  0
   -1.2797    0.2225    0.0000 C   0  0  3  0  0  0  0  0  0  0  0  0
   -1.9969    0.6430    0.0000 C   0  0  0  0  0  0  0  0  0  0  0  0
   -1.9845    1.4591    0.0000 C   0  0  0  0  0  0  0  0  0  0  0  0
   -1.2797   -0.6059    0.0000 C   0  0  0  0  0  0  0  0  0  0  0  0
   -0.5503    1.4714    0.0000 C   0  0  0  0  0  0  0  0  0  0  0  0
   -2.7017    0.2472    0.0000 C   0  0  0  0  0  0  0  0  0  0  0  0
   -0.5997   -1.0757    0.0000 C   0  0  0  0  0  0  0  0  0  0  0  0
    0.8717    1.4591    0.0000 C   0  0  0  0  0  0  0  0  0  0  0  0
    1.7619    0.4699    0.0000 C   0  0  0  0  0  0  0  0  0  0  0  0
    2.1700    1.1870    0.0000 C   0  0  0  0  0  0  0  0  0  0  0  0
   -2.7141    1.8547    0.0000 C   0  0  0  0  0  0  0  0  0  0  0  0
   -3.4064    0.6430    0.0000 C   0  0  0  0  0  0  0  0  0  0  0  0
   -0.8593   -1.8670    0.0000 C   0  0  0  0  0  0  0  0  0  0  0  0
   -3.4064    1.4591    0.0000 C   0  0  0  0  0  0  0  0  0  0  0  0
    2.1823   -0.2472    0.0000 C   0  0  0  0  0  0  0  0  0  0  0  0
    2.9984    1.1746    0.0000 C   0  0  0  0  0  0  0  0  0  0  0  0
    2.9984   -0.2472    0.0000 C   0  0  0  0  0  0  0  0  0  0  0  0
    3.4064    0.4699    0.0000 C   0  0  0  0  0  0  0  0  0  0  0  0
  1 16  1  0  0  0  0
  2 17  1  0  0  0  0
  2 18  1  0  0  0  0
  3 15  2  0  0  0  0
  4 10  1  0  0  0  0
  4 14  2  0  0  0  0
  5 12  1  0  0  0  0
  5 14  1  0  0  0  0
  6 14  1  0  0  0  0
  6 17  1  0  0  0  0
  7  9  1  0  0  0  0
  7 13  2  0  0  0  0
  8 17  2  0  0  0  0
  8 19  1  0  0  0  0
  9 22  1  0  0  0  0
 10 11  1  0  0  0  0
 10 13  1  0  0  0  0
 11 12  2  0  0  0  0
 11 15  1  0  0  0  0
 12 20  1  0  0  0  0
 13 16  1  0  0  0  0
 15 21  1  0  0  0  0
 16 22  2  0  0  0  0
 18 19  1  0  0  0  0
 18 24  2  0  0  0  0
 19 25  2  0  0  0  0
 20 23  1  0  0  0  0
 21 23  1  0  0  0  0
 24 26  1  0  0  0  0
 25 27  1  0  0  0  0
 26 27  2  0  0  0  0
M  END
> <PUBCHEM_COMPOUND_ID_TYPE>
0

> <PUBCHEM_TOTAL_CHARGE>
0

> <PUBCHEM_SUBSTANCE_ID>
310948012

> <PUBCHEM_SUBSTANCE_VERSION>
1

> <PUBCHEM_EXT_DATASOURCE_NAME>
4488

> <PUBCHEM_EXT_DATASOURCE_REGID>
SCHEMBL16126186

> <PUBCHEM_SUBSTANCE_COMMENT>
InChI=1S/C18H15ClN6O2/c19-9-8-20-25-15(9)16-14-11(5-3-6-12(14)26)21-17(23-16)24-18-22-10-4-1-2-7-13(10)27-18/h1-2,4,7-8,16H,3,5-6H2,(H,20,25)(H2,21,22,23,24)
InChIKey=ORBGGGFENULXFO-UHFFFAOYSA-N

> <PUBCHEM_SUBSTANCE_SYNONYM>
SCHEMBL16126186

> <PUBCHEM_XREF_EXT_ID>
SCHEMBL16126186

> <PUBCHEM_EXT_DATASOURCE_URL>
https://www.surechembl.org/

> <PUBCHEM_EXT_SUBSTANCE_URL>
https://www.surechembl.org/chemical/SCHEMBL16126186

> <PUBCHEM_CID_ASSOCIATIONS>
46926062  1

> <PUBCHEM_COORDINATE_TYPE>
1
3

$$$$
