310934784
  -OEChem-07211613022D

 38 43  0     1  0  0  0  0  0999 V2000
   -2.1434    3.7125    0.0000 S   0  0  0  0  0  0  0  0  0  0  0  0
    2.9441    0.8205    0.0000 S   0  0  0  0  0  0  0  0  0  0  0  0
   -1.7309    4.4270    0.0000 O   0  0  0  0  0  0  0  0  0  0  0  0
   -2.5559    2.9980    0.0000 O   0  0  0  0  0  0  0  0  0  0  0  0
    0.0000    0.8250    0.0000 N   0  0  0  0  0  0  0  0  0  0  0  0
   -0.7145   -0.4125    0.0000 N   0  0  0  0  0  0  0  0  0  0  0  0
    0.0000   -1.6500    0.0000 N   0  0  0  0  0  0  0  0  0  0  0  0
   -3.1880    1.1511    0.0000 N   0  0  0  0  0  0  0  0  0  0  0  0
   -2.8579    4.1250    0.0000 N   0  0  0  0  0  0  0  0  0  0  0  0
    4.1636    0.2775    0.0000 N   0  0  0  0  0  0  0  0  0  0  0  0
   -0.7145    1.2375    0.0000 C   0  0  3  0  0  0  0  0  0  0  0  0
   -0.7145    2.0625    0.0000 C   0  0  0  0  0  0  0  0  0  0  0  0
    0.0000   -0.0000    0.0000 C   0  0  0  0  0  0  0  0  0  0  0  0
   -1.5390    1.2087    0.0000 C   0  0  0  0  0  0  0  0  0  0  0  0
   -0.0000    2.4750    0.0000 C   0  0  0  0  0  0  0  0  0  0  0  0
    0.7145    1.2375    0.0000 C   0  0  3  0  0  0  0  0  0  0  0  0
    0.7145   -0.4125    0.0000 C   0  0  0  0  0  0  0  0  0  0  0  0
    0.7145    2.0625    0.0000 C   0  0  0  0  0  0  0  0  0  0  0  0
   -1.4289    2.4750    0.0000 C   0  0  0  0  0  0  0  0  0  0  0  0
    0.7145   -1.2375    0.0000 C   0  0  0  0  0  0  0  0  0  0  0  0
   -1.1517    0.5379    0.0000 C   0  0  0  0  0  0  0  0  0  0  0  0
   -1.4289    3.3000    0.0000 C   0  0  0  0  0  0  0  0  0  0  0  0
    0.0000    3.3000    0.0000 C   0  0  0  0  0  0  0  0  0  0  0  0
    1.4289   -0.0000    0.0000 C   0  0  0  0  0  0  0  0  0  0  0  0
   -1.9762    1.9083    0.0000 C   0  0  0  0  0  0  0  0  0  0  0  0
   -1.9263    0.4803    0.0000 C   0  0  0  0  0  0  0  0  0  0  0  0
    1.4289   -1.6500    0.0000 C   0  0  0  0  0  0  0  0  0  0  0  0
    2.1434   -0.4125    0.0000 C   0  0  0  0  0  0  0  0  0  0  0  0
   -0.7145    3.7125    0.0000 C   0  0  0  0  0  0  0  0  0  0  0  0
    1.4289    0.8250    0.0000 C   0  0  0  0  0  0  0  0  0  0  0  0
   -0.7145   -1.2375    0.0000 C   0  0  0  0  0  0  0  0  0  0  0  0
    2.1434   -1.2375    0.0000 C   0  0  0  0  0  0  0  0  0  0  0  0
    2.8579   -0.0000    0.0000 C   0  0  0  0  0  0  0  0  0  0  0  0
   -2.8006    1.8796    0.0000 C   0  0  0  0  0  0  0  0  0  0  0  0
   -2.7508    0.4515    0.0000 C   0  0  0  0  0  0  0  0  0  0  0  0
    1.4289   -2.4750    0.0000 C   0  0  0  0  0  0  0  0  0  0  0  0
    3.6116   -0.3356    0.0000 C   0  0  0  0  0  0  0  0  0  0  0  0
    3.7511    0.9920    0.0000 C   0  0  0  0  0  0  0  0  0  0  0  0
  1  3  2  0  0  0  0
  1  4  2  0  0  0  0
  1  9  1  0  0  0  0
  1 22  1  0  0  0  0
  2 33  1  0  0  0  0
  2 38  1  0  0  0  0
  5 11  1  0  0  0  0
  5 13  1  0  0  0  0
  5 16  1  0  0  0  0
  6 13  2  0  0  0  0
  6 31  1  0  0  0  0
  7 20  1  0  0  0  0
  7 31  2  0  0  0  0
  8 34  1  0  0  0  0
  8 35  1  0  0  0  0
 10 37  1  0  0  0  0
 10 38  2  0  0  0  0
 11 12  1  0  0  0  0
 11 14  1  0  0  0  0
 11 21  1  0  0  0  0
 12 15  1  0  0  0  0
 12 19  2  0  0  0  0
 13 17  1  0  0  0  0
 14 25  1  0  0  0  0
 14 26  1  0  0  0  0
 15 18  1  0  0  0  0
 15 23  2  0  0  0  0
 16 18  1  0  0  0  0
 16 30  1  0  0  0  0
 17 20  1  0  0  0  0
 17 24  2  0  0  0  0
 19 22  1  0  0  0  0
 20 27  2  0  0  0  0
 22 29  2  0  0  0  0
 23 29  1  0  0  0  0
 24 28  1  0  0  0  0
 25 34  1  0  0  0  0
 26 35  1  0  0  0  0
 27 32  1  0  0  0  0
 27 36  1  0  0  0  0
 28 32  2  0  0  0  0
 28 33  1  0  0  0  0
 33 37  2  0  0  0  0
M  END
> <PUBCHEM_COMPOUND_ID_TYPE>
0

> <PUBCHEM_TOTAL_CHARGE>
0

> <PUBCHEM_SUBSTANCE_ID>
310934784

> <PUBCHEM_SUBSTANCE_VERSION>
1

> <PUBCHEM_EXT_DATASOURCE_NAME>
4488

> <PUBCHEM_EXT_DATASOURCE_REGID>
SCHEMBL16112287

> <PUBCHEM_SUBSTANCE_COMMENT>
InChI=1S/C28H32N6O2S2/c1-17-10-20(25-14-31-16-37-25)12-23-26(17)32-15-33-27(23)34-18(2)11-19-4-5-22(38(29,35)36)13-24(19)28(34,3)21-6-8-30-9-7-21/h4-5,10,12-16,18,21,30H,6-9,11H2,1-3H3,(H2,29,35,36)
InChIKey=BDXZEIAYZZGHDS-UHFFFAOYSA-N

> <PUBCHEM_SUBSTANCE_SYNONYM>
SCHEMBL16112287

> <PUBCHEM_XREF_EXT_ID>
SCHEMBL16112287

> <PUBCHEM_EXT_DATASOURCE_URL>
https://www.surechembl.org/

> <PUBCHEM_EXT_SUBSTANCE_URL>
https://www.surechembl.org/chemical/SCHEMBL16112287

> <PUBCHEM_CID_ASSOCIATIONS>
117602932  1

> <PUBCHEM_COORDINATE_TYPE>
1
3

$$$$
