310945285
  -OEChem-07211613022D

 35 39  0     1  0  0  0  0  0999 V2000
    3.8196    3.2992    0.0000 O   0  0  0  0  0  0  0  0  0  0  0  0
   -2.0325   -1.8067    0.0000 O   0  0  0  0  0  0  0  0  0  0  0  0
   -4.0749    0.0589    0.0000 O   0  0  0  0  0  0  0  0  0  0  0  0
    2.1896    1.0212    0.0000 N   0  0  0  0  0  0  0  0  0  0  0  0
   -0.7561    1.7478    0.0000 N   0  0  0  0  0  0  0  0  0  0  0  0
    4.4284    2.0816    0.0000 N   0  0  0  0  0  0  0  0  0  0  0  0
   -2.8377   -0.3535    0.0000 N   0  0  0  0  0  0  0  0  0  0  0  0
   -4.4284   -3.2992    0.0000 N   0  0  0  0  0  0  0  0  0  0  0  0
    1.7183    1.7085    0.0000 C   0  0  0  0  0  0  0  0  0  0  0  0
    2.2093    2.3762    0.0000 C   0  0  0  0  0  0  0  0  0  0  0  0
    0.8935    1.7282    0.0000 C   0  0  0  0  0  0  0  0  0  0  0  0
    2.9948    2.1013    0.0000 C   0  0  0  0  0  0  0  0  0  0  0  0
    0.5008    2.4351    0.0000 C   0  0  3  0  0  0  0  0  0  0  0  0
    2.9555    1.2765    0.0000 C   0  0  0  0  0  0  0  0  0  0  0  0
    1.6987    3.2010    0.0000 C   0  0  0  0  0  0  0  0  0  0  0  0
    0.4811    1.0015    0.0000 C   0  0  0  0  0  0  0  0  0  0  0  0
   -0.3633    1.0408    0.0000 C   0  0  0  0  0  0  0  0  0  0  0  0
   -0.3240    2.4351    0.0000 C   0  0  3  0  0  0  0  0  0  0  0  0
    3.7017    2.4744    0.0000 C   0  0  0  0  0  0  0  0  0  0  0  0
    0.8739    3.1617    0.0000 C   0  0  0  0  0  0  0  0  0  0  0  0
   -0.7953    0.3142    0.0000 C   0  0  0  0  0  0  0  0  0  0  0  0
    3.7017    0.8641    0.0000 C   0  0  0  0  0  0  0  0  0  0  0  0
    4.4087    1.2568    0.0000 C   0  0  0  0  0  0  0  0  0  0  0  0
   -1.5809    0.3338    0.0000 C   0  0  0  0  0  0  0  0  0  0  0  0
   -2.0129   -0.3731    0.0000 C   0  0  0  0  0  0  0  0  0  0  0  0
   -0.3829   -0.4124    0.0000 C   0  0  0  0  0  0  0  0  0  0  0  0
    0.0883    2.3173    0.0000 C   0  0  0  0  0  0  0  0  0  0  0  0
   -1.6202   -1.0801    0.0000 C   0  0  0  0  0  0  0  0  0  0  0  0
   -0.7953   -1.0801    0.0000 C   0  0  0  0  0  0  0  0  0  0  0  0
   -3.3090    0.3338    0.0000 C   0  0  0  0  0  0  0  0  0  0  0  0
   -2.8573   -1.7870    0.0000 C   0  0  0  0  0  0  0  0  0  0  0  0
   -3.1323    1.1194    0.0000 C   0  0  0  0  0  0  0  0  0  0  0  0
   -3.2305   -2.5137    0.0000 C   0  0  0  0  0  0  0  0  0  0  0  0
   -3.7999    1.6103    0.0000 C   0  0  0  0  0  0  0  0  0  0  0  0
   -4.0552   -2.5726    0.0000 C   0  0  0  0  0  0  0  0  0  0  0  0
  1 19  2  0  0  0  0
  2 28  1  0  0  0  0
  2 31  1  0  0  0  0
  3 30  2  0  0  0  0
  4  9  1  0  0  0  0
  4 14  1  0  0  0  0
  5 17  2  0  0  0  0
  5 18  1  0  0  0  0
  6 19  1  0  0  0  0
  6 23  1  0  0  0  0
  7 25  1  0  0  0  0
  7 30  1  0  0  0  0
  8 35  1  0  0  0  0
  9 10  2  0  0  0  0
  9 11  1  0  0  0  0
 10 12  1  0  0  0  0
 10 15  1  0  0  0  0
 11 13  1  0  0  0  0
 11 16  2  0  0  0  0
 12 14  2  0  0  0  0
 12 19  1  0  0  0  0
 13 18  1  0  0  0  0
 13 20  1  0  0  0  0
 14 22  1  0  0  0  0
 15 20  1  0  0  0  0
 16 17  1  0  0  0  0
 17 21  1  0  0  0  0
 18 27  1  0  0  0  0
 21 24  2  0  0  0  0
 21 26  1  0  0  0  0
 22 23  1  0  0  0  0
 24 25  1  0  0  0  0
 25 28  2  0  0  0  0
 26 29  2  0  0  0  0
 28 29  1  0  0  0  0
 30 32  1  0  0  0  0
 31 33  1  0  0  0  0
 32 34  2  0  0  0  0
 33 35  1  0  0  0  0
M  END
> <PUBCHEM_COMPOUND_ID_TYPE>
0

> <PUBCHEM_TOTAL_CHARGE>
0

> <PUBCHEM_SUBSTANCE_ID>
310945285

> <PUBCHEM_SUBSTANCE_VERSION>
1

> <PUBCHEM_EXT_DATASOURCE_NAME>
4488

> <PUBCHEM_EXT_DATASOURCE_REGID>
SCHEMBL16123381

> <PUBCHEM_SUBSTANCE_COMMENT>
InChI=1S/C27H31N5O3/c1-3-24(33)31-22-13-16(5-8-23(22)35-12-4-10-28)21-14-19-17(15(2)30-21)6-7-18-25-20(32-26(18)19)9-11-29-27(25)34/h3,5,8,13-15,17,32H,1,4,6-7,9-12,28H2,2H3,(H,29,34)(H,31,33)
InChIKey=BBNYBGSNUBQZNN-UHFFFAOYSA-N

> <PUBCHEM_SUBSTANCE_SYNONYM>
SCHEMBL16123381

> <PUBCHEM_XREF_EXT_ID>
SCHEMBL16123381

> <PUBCHEM_EXT_DATASOURCE_URL>
https://www.surechembl.org/

> <PUBCHEM_EXT_SUBSTANCE_URL>
https://www.surechembl.org/chemical/SCHEMBL16123381

> <PUBCHEM_CID_ASSOCIATIONS>
117611346  1

> <PUBCHEM_COORDINATE_TYPE>
1
3

$$$$
