310947205
  -OEChem-07211613022D

 31 31  0     1  0  0  0  0  0999 V2000
    7.4204    9.6306    0.0000 S   0  0  0  0  0  0  0  0  0  0  0  0
    7.0916    7.8877    0.0000 O   0  0  0  0  0  0  0  0  0  0  0  0
    5.1983    7.5857    0.0000 O   0  0  0  0  0  0  0  0  0  0  0  0
    5.5002    8.7127    0.0000 O   0  0  0  0  0  0  0  0  0  0  0  0
    8.8520    7.5317    0.0000 O   0  0  0  0  0  0  0  0  0  0  0  0
    4.0714    7.8877    0.0000 O   0  0  0  0  0  0  0  0  0  0  0  0
    6.7060    9.2181    0.0000 O   0  0  0  0  0  0  0  0  0  0  0  0
    2.8607    8.3931    0.0000 O   0  0  0  0  0  0  0  0  0  0  0  0
    5.8858    5.9533    0.0000 O   0  0  0  0  0  0  0  0  0  0  0  0
    7.0079   10.3451    0.0000 O   0  0  0  0  0  0  0  0  0  0  0  0
    7.8329    8.9161    0.0000 O   0  0  0  0  0  0  0  0  0  0  0  0
    8.1349   10.0431    0.0000 O   0  0  0  0  0  0  0  0  0  0  0  0
    3.4770    6.5854    0.0000 O   0  0  0  0  0  0  0  0  0  0  0  0
    1.6831    7.6741    0.0000 O   0  0  0  0  0  0  0  0  0  0  0  0
    2.3091    6.5898    0.0000 O   0  0  0  0  0  0  0  0  0  0  0  0
    1.6232    9.1076    0.0000 O   0  0  0  0  0  0  0  0  0  0  0  0
    7.1233    6.6678    0.0000 N   0  0  0  0  0  0  0  0  0  0  0  0
    5.9127    7.1732    0.0000 C   0  0  3  0  0  0  0  0  0  0  0  0
    6.7108    7.3823    0.0000 C   0  0  3  0  0  0  0  0  0  0  0  0
    5.5002    7.8877    0.0000 C   0  0  3  0  0  0  0  0  0  0  0  0
    6.2935    7.6786    0.0000 C   0  0  3  0  0  0  0  0  0  0  0  0
    7.5041    7.1732    0.0000 C   0  0  3  0  0  0  0  0  0  0  0  0
    4.4838    7.1732    0.0000 C   0  0  3  0  0  0  0  0  0  0  0  0
    6.7060    8.3931    0.0000 C   0  0  0  0  0  0  0  0  0  0  0  0
    6.7108    5.9533    0.0000 C   0  0  0  0  0  0  0  0  0  0  0  0
    3.2732    7.6786    0.0000 C   0  0  3  0  0  0  0  0  0  0  0  0
    3.6906    7.3823    0.0000 C   0  0  0  0  0  0  0  0  0  0  0  0
    2.4800    7.8877    0.0000 C   0  0  3  0  0  0  0  0  0  0  0  0
    7.1233    5.2389    0.0000 C   0  0  0  0  0  0  0  0  0  0  0  0
    2.8925    7.1732    0.0000 C   0  0  0  0  0  0  0  0  0  0  0  0
    2.0357    8.3931    0.0000 C   0  0  0  0  0  0  0  0  0  0  0  0
  1  7  1  0  0  0  0
  1 10  2  0  0  0  0
  1 11  2  0  0  0  0
  1 12  1  0  0  0  0
  2 21  1  0  0  0  0
  2 22  1  0  0  0  0
  3 18  1  0  0  0  0
  3 23  1  0  0  0  0
  4 20  1  0  0  0  0
  5 22  1  0  0  0  0
  6 23  1  0  0  0  0
  6 26  1  0  0  0  0
  7 24  1  0  0  0  0
  8 26  1  0  0  0  0
  8 31  1  0  0  0  0
  9 25  2  0  0  0  0
 13 27  2  0  0  0  0
 14 28  1  0  0  0  0
 15 30  2  0  0  0  0
 16 31  2  0  0  0  0
 17 19  1  0  0  0  0
 17 25  1  0  0  0  0
 18 19  1  0  0  0  0
 18 20  1  0  0  0  0
 19 22  1  0  0  0  0
 20 21  1  0  0  0  0
 21 24  1  0  0  0  0
 23 27  1  0  0  0  0
 25 29  1  0  0  0  0
 26 28  1  0  0  0  0
 28 30  1  0  0  0  0
M  END
> <PUBCHEM_COMPOUND_ID_TYPE>
0

> <PUBCHEM_TOTAL_CHARGE>
0

> <PUBCHEM_SUBSTANCE_ID>
310947205

> <PUBCHEM_SUBSTANCE_VERSION>
1

> <PUBCHEM_EXT_DATASOURCE_NAME>
4488

> <PUBCHEM_EXT_DATASOURCE_REGID>
SCHEMBL16125359

> <PUBCHEM_SUBSTANCE_COMMENT>
InChI=1S/C14H21NO15S/c1-6(19)15-10-12(11(21)8(28-13(10)22)4-27-31(23,24)25)29-9(3-17)30-14(26-5-18)7(20)2-16/h2-3,5,7-14,20-22H,4H2,1H3,(H,15,19)(H,23,24,25)
InChIKey=OGLLIHGULSYHCS-UHFFFAOYSA-N

> <PUBCHEM_SUBSTANCE_SYNONYM>
SCHEMBL16125359

> <PUBCHEM_XREF_EXT_ID>
SCHEMBL16125359

> <PUBCHEM_EXT_DATASOURCE_URL>
https://www.surechembl.org/

> <PUBCHEM_EXT_SUBSTANCE_URL>
https://www.surechembl.org/chemical/SCHEMBL16125359

> <PUBCHEM_CID_ASSOCIATIONS>
117613028  1

> <PUBCHEM_COORDINATE_TYPE>
1
3

$$$$
