310949620
  -OEChem-07211613022D

 27 29  0     1  0  0  0  0  0999 V2000
    1.4695   -2.2093    0.0000 O   0  0  0  0  0  0  0  0  0  0  0  0
   -1.3884   -1.3985    0.0000 O   0  0  0  0  0  0  0  0  0  0  0  0
    2.9288   -1.2972    0.0000 N   0  0  0  0  0  0  0  0  0  0  0  0
    3.4963   -0.6689    0.0000 N   0  0  0  0  0  0  0  0  0  0  0  0
    0.7601   -0.9729    0.0000 N   0  0  0  0  0  0  0  0  0  0  0  0
    2.7464    1.4390    0.0000 N   0  0  3  0  0  0  0  0  0  0  0  0
    2.2599   -0.1419    0.0000 C   0  0  0  0  0  0  0  0  0  0  0  0
    2.1586   -0.9526    0.0000 C   0  0  0  0  0  0  0  0  0  0  0  0
    3.0301    0.0405    0.0000 C   0  0  0  0  0  0  0  0  0  0  0  0
    1.4898   -1.3377    0.0000 C   0  0  0  0  0  0  0  0  0  0  0  0
    1.6924    0.4662    0.0000 C   0  0  0  0  0  0  0  0  0  0  0  0
    3.2936    0.8107    0.0000 C   0  0  0  0  0  0  0  0  0  0  0  0
   -2.0978   -0.1621    0.0000 C   0  0  0  0  0  0  0  0  0  0  0  0
    1.9559    1.2567    0.0000 C   0  0  0  0  0  0  0  0  0  0  0  0
   -2.0775   -0.9526    0.0000 C   0  0  0  0  0  0  0  0  0  0  0  0
   -1.3884    0.2837    0.0000 C   0  0  0  0  0  0  0  0  0  0  0  0
    0.0710   -1.3783    0.0000 C   0  0  0  0  0  0  0  0  0  0  0  0
   -2.8274    0.2635    0.0000 C   0  0  0  0  0  0  0  0  0  0  0  0
   -2.7667   -1.3580    0.0000 C   0  0  0  0  0  0  0  0  0  0  0  0
   -0.6790   -0.9729    0.0000 C   0  0  0  0  0  0  0  0  0  0  0  0
    0.7398   -0.1419    0.0000 C   0  0  0  0  0  0  0  0  0  0  0  0
    2.9896    2.2093    0.0000 C   0  0  0  0  0  0  0  0  0  0  0  0
   -3.4963   -0.1419    0.0000 C   0  0  0  0  0  0  0  0  0  0  0  0
   -3.4963   -0.9729    0.0000 C   0  0  0  0  0  0  0  0  0  0  0  0
   -1.4087    1.0945    0.0000 C   0  0  0  0  0  0  0  0  0  0  0  0
   -0.6790    0.7094    0.0000 C   0  0  0  0  0  0  0  0  0  0  0  0
   -0.6588   -0.1621    0.0000 C   0  0  0  0  0  0  0  0  0  0  0  0
  1 10  2  0  0  0  0
  2 15  1  0  0  0  0
  2 20  1  0  0  0  0
  3  4  1  0  0  0  0
  3  8  2  0  0  0  0
  4  9  1  0  0  0  0
  5 10  1  0  0  0  0
  5 17  1  0  0  0  0
  5 21  1  0  0  0  0
  6 12  1  0  0  0  0
  6 14  1  0  0  0  0
  6 22  1  0  0  0  0
  7  8  1  0  0  0  0
  7  9  2  0  0  0  0
  7 11  1  0  0  0  0
  8 10  1  0  0  0  0
  9 12  1  0  0  0  0
 11 14  1  0  0  0  0
 13 15  1  0  0  0  0
 13 16  1  0  0  0  0
 13 18  2  0  0  0  0
 15 19  2  0  0  0  0
 16 25  1  0  0  0  0
 16 26  1  0  0  0  0
 16 27  1  0  0  0  0
 17 20  1  0  0  0  0
 18 23  1  0  0  0  0
 19 24  1  0  0  0  0
 23 24  2  0  0  0  0
M  END
> <PUBCHEM_COMPOUND_ID_TYPE>
0

> <PUBCHEM_TOTAL_CHARGE>
0

> <PUBCHEM_SUBSTANCE_ID>
310949620

> <PUBCHEM_SUBSTANCE_VERSION>
1

> <PUBCHEM_EXT_DATASOURCE_NAME>
4488

> <PUBCHEM_EXT_DATASOURCE_REGID>
SCHEMBL16127818

> <PUBCHEM_SUBSTANCE_COMMENT>
InChI=1S/C21H30N4O2/c1-21(2,3)16-8-6-7-9-18(16)27-13-12-25(5)20(26)19-15-10-11-24(4)14-17(15)22-23-19/h6-9H,10-14H2,1-5H3,(H,22,23)
InChIKey=NFMNOBURYAKPQZ-UHFFFAOYSA-N

> <PUBCHEM_SUBSTANCE_SYNONYM>
SCHEMBL16127818

> <PUBCHEM_XREF_EXT_ID>
SCHEMBL16127818

> <PUBCHEM_EXT_DATASOURCE_URL>
https://www.surechembl.org/

> <PUBCHEM_EXT_SUBSTANCE_URL>
https://www.surechembl.org/chemical/SCHEMBL16127818

> <PUBCHEM_CID_ASSOCIATIONS>
117615010  1

> <PUBCHEM_COORDINATE_TYPE>
1
3

$$$$
