310941225
  -OEChem-07211613022D

 41 44  0     1  0  0  0  0  0999 V2000
    5.1969   -1.4473    0.0000 O   0  0  0  0  0  0  0  0  0  0  0  0
    4.0566    0.5263    0.0000 O   0  0  0  0  0  0  0  0  0  0  0  0
    1.6738   -1.4326    0.0000 O   0  0  0  0  0  0  0  0  0  0  0  0
   -0.4897    0.6578    0.0000 O   0  0  0  0  0  0  0  0  0  0  0  0
    3.8374    2.3243    0.0000 O   0  0  0  0  0  0  0  0  0  0  0  0
   -2.6533   -1.4326    0.0000 O   0  0  0  0  0  0  0  0  0  0  0  0
   -5.5331   -1.4326    0.0000 O   0  0  0  0  0  0  0  0  0  0  0  0
    2.4047   -0.1900    0.0000 N   0  0  0  0  0  0  0  0  0  0  0  0
    0.2412   -0.5994    0.0000 N   0  0  0  0  0  0  0  0  0  0  0  0
   -1.9223   -0.1900    0.0000 N   0  0  0  0  0  0  0  0  0  0  0  0
   -4.0859   -0.5994    0.0000 N   0  0  0  0  0  0  0  0  0  0  0  0
    4.7875   -0.7017    0.0000 C   0  0  3  0  0  0  0  0  0  0  0  0
    4.0420   -0.3070    0.0000 C   0  0  0  0  0  0  0  0  0  0  0  0
    4.3783   -1.4180    0.0000 C   0  0  0  0  0  0  0  0  0  0  0  0
    3.3550   -0.6871    0.0000 C   0  0  3  0  0  0  0  0  0  0  0  0
    5.5331   -0.2777    0.0000 C   0  0  0  0  0  0  0  0  0  0  0  0
    3.3403   -1.7834    0.0000 C   0  0  0  0  0  0  0  0  0  0  0  0
    1.6884   -0.5555    0.0000 C   0  0  0  0  0  0  0  0  0  0  0  0
    0.9575   -0.1608    0.0000 C   0  0  3  0  0  0  0  0  0  0  0  0
    2.6241   -2.2074    0.0000 C   0  0  0  0  0  0  0  0  0  0  0  0
    0.9722    0.6871    0.0000 C   0  0  0  0  0  0  0  0  0  0  0  0
    1.6884    1.0964    0.0000 C   0  0  0  0  0  0  0  0  0  0  0  0
   -0.4897   -0.1754    0.0000 C   0  0  0  0  0  0  0  0  0  0  0  0
    1.8638   -1.8858    0.0000 C   0  0  0  0  0  0  0  0  0  0  0  0
    2.5217   -3.0260    0.0000 C   0  0  0  0  0  0  0  0  0  0  0  0
    1.7031    1.9442    0.0000 C   0  0  0  0  0  0  0  0  0  0  0  0
   -1.1914   -0.5701    0.0000 C   0  0  3  0  0  0  0  0  0  0  0  0
    2.4047    2.3536    0.0000 C   0  0  0  0  0  0  0  0  0  0  0  0
    2.4047    0.6871    0.0000 C   0  0  0  0  0  0  0  0  0  0  0  0
    3.1210    1.9442    0.0000 C   0  0  0  0  0  0  0  0  0  0  0  0
    1.3229   -2.4997    0.0000 C   0  0  0  0  0  0  0  0  0  0  0  0
    1.7177   -3.2015    0.0000 C   0  0  0  0  0  0  0  0  0  0  0  0
    3.1210    1.0964    0.0000 C   0  0  0  0  0  0  0  0  0  0  0  0
   -2.6387   -0.5555    0.0000 C   0  0  0  0  0  0  0  0  0  0  0  0
   -3.3842   -0.1608    0.0000 C   0  0  0  0  0  0  0  0  0  0  0  0
   -1.2060   -1.4326    0.0000 C   0  0  0  0  0  0  0  0  0  0  0  0
    2.4193    3.2015    0.0000 C   0  0  0  0  0  0  0  0  0  0  0  0
   -4.0859   -1.4180    0.0000 C   0  0  0  0  0  0  0  0  0  0  0  0
   -4.8168   -0.1608    0.0000 C   0  0  0  0  0  0  0  0  0  0  0  0
   -4.8021   -1.8273    0.0000 C   0  0  0  0  0  0  0  0  0  0  0  0
   -5.5185   -0.5701    0.0000 C   0  0  0  0  0  0  0  0  0  0  0  0
  1 12  1  0  0  0  0
  1 14  1  0  0  0  0
  2 13  2  0  0  0  0
  3 18  2  0  0  0  0
  4 23  2  0  0  0  0
  5 30  1  0  0  0  0
  6 34  2  0  0  0  0
  7 40  1  0  0  0  0
  7 41  1  0  0  0  0
  8 15  1  0  0  0  0
  8 18  1  0  0  0  0
  9 19  1  0  0  0  0
  9 23  1  0  0  0  0
 10 27  1  0  0  0  0
 10 34  1  0  0  0  0
 11 35  1  0  0  0  0
 11 38  1  0  0  0  0
 11 39  1  0  0  0  0
 12 13  1  0  0  0  0
 12 14  1  0  0  0  0
 12 16  1  0  0  0  0
 13 15  1  0  0  0  0
 15 17  1  0  0  0  0
 17 20  1  0  0  0  0
 18 19  1  0  0  0  0
 19 21  1  0  0  0  0
 20 24  2  0  0  0  0
 20 25  1  0  0  0  0
 21 22  1  0  0  0  0
 22 26  1  0  0  0  0
 22 29  2  0  0  0  0
 23 27  1  0  0  0  0
 24 31  1  0  0  0  0
 25 32  1  0  0  0  0
 26 28  2  0  0  0  0
 27 36  1  0  0  0  0
 28 30  1  0  0  0  0
 28 37  1  0  0  0  0
 29 33  1  0  0  0  0
 30 33  2  0  0  0  0
 31 32  1  0  0  0  0
 34 35  1  0  0  0  0
 38 40  1  0  0  0  0
 39 41  1  0  0  0  0
M  END
> <PUBCHEM_COMPOUND_ID_TYPE>
0

> <PUBCHEM_TOTAL_CHARGE>
0

> <PUBCHEM_SUBSTANCE_ID>
310941225

> <PUBCHEM_SUBSTANCE_VERSION>
1

> <PUBCHEM_EXT_DATASOURCE_NAME>
4488

> <PUBCHEM_EXT_DATASOURCE_REGID>
SCHEMBL16119185

> <PUBCHEM_SUBSTANCE_COMMENT>
InChI=1S/C30H42N4O7/c1-19-14-22(8-9-25(19)35)16-24(33-28(38)20(2)31-26(36)17-34-10-12-40-13-11-34)29(39)32-23(15-21-6-4-5-7-21)27(37)30(3)18-41-30/h6,8-9,14,20,23-24,35H,4-5,7,10-13,15-18H2,1-3H3,(H,31,36)(H,32,39)(H,33,38)
InChIKey=DZJFXGKPSAYPGP-UHFFFAOYSA-N

> <PUBCHEM_SUBSTANCE_SYNONYM>
SCHEMBL16119185

> <PUBCHEM_XREF_EXT_ID>
SCHEMBL16119185

> <PUBCHEM_EXT_DATASOURCE_URL>
https://www.surechembl.org/

> <PUBCHEM_EXT_SUBSTANCE_URL>
https://www.surechembl.org/chemical/SCHEMBL16119185

> <PUBCHEM_CID_ASSOCIATIONS>
86296927  1

> <PUBCHEM_COORDINATE_TYPE>
1
3

$$$$
