310934130
  -OEChem-07211613022D

 38 42  0     1  0  0  0  0  0999 V2000
   -5.0013   -5.7750    0.0000 Cl  0  0  0  0  0  0  0  0  0  0  0  0
   -2.1434   -1.6500    0.0000 O   0  0  0  0  0  0  0  0  0  0  0  0
   -2.8579    0.4125    0.0000 O   0  0  0  0  0  0  0  0  0  0  0  0
    2.0946    0.0000    0.0000 O   0  0  0  0  0  0  0  0  0  0  0  0
   -1.4290   -4.5375    0.0000 O   0  5  0  0  0  0  0  0  0  0  0  0
   -2.1434   -3.3000    0.0000 O   0  0  0  0  0  0  0  0  0  0  0  0
   -3.5724   -1.6500    0.0000 N   0  0  0  0  0  0  0  0  0  0  0  0
   -2.1434   -0.8250    0.0000 N   0  0  0  0  0  0  0  0  0  0  0  0
    0.7846   -0.6674    0.0000 N   0  0  0  0  0  0  0  0  0  0  0  0
    0.7846    0.6674    0.0000 N   0  0  0  0  0  0  0  0  0  0  0  0
   -2.1434   -4.1250    0.0000 N   0  3  0  0  0  0  0  0  0  0  0  0
   -3.5724   -3.3000    0.0000 C   0  0  0  0  0  0  0  0  0  0  0  0
   -3.5724   -4.1250    0.0000 C   0  0  0  0  0  0  0  0  0  0  0  0
   -3.5724   -0.8250    0.0000 C   0  0  3  0  0  0  0  0  0  0  0  0
   -2.8579   -2.0625    0.0000 C   0  0  0  0  0  0  0  0  0  0  0  0
   -2.8579   -4.5375    0.0000 C   0  0  0  0  0  0  0  0  0  0  0  0
   -2.8579   -2.8875    0.0000 C   0  0  0  0  0  0  0  0  0  0  0  0
   -2.8579   -0.4125    0.0000 C   0  0  0  0  0  0  0  0  0  0  0  0
    0.0000   -0.4125    0.0000 C   0  0  0  0  0  0  0  0  0  0  0  0
    0.0000    0.4125    0.0000 C   0  0  0  0  0  0  0  0  0  0  0  0
   -4.2868   -2.0625    0.0000 C   0  0  0  0  0  0  0  0  0  0  0  0
   -4.2868   -2.8875    0.0000 C   0  0  0  0  0  0  0  0  0  0  0  0
   -1.4290   -0.4125    0.0000 C   0  0  0  0  0  0  0  0  0  0  0  0
   -4.2868   -4.5375    0.0000 C   0  0  0  0  0  0  0  0  0  0  0  0
   -0.7144   -0.8250    0.0000 C   0  0  0  0  0  0  0  0  0  0  0  0
   -4.2868   -0.4125    0.0000 C   0  0  0  0  0  0  0  0  0  0  0  0
    1.2696    0.0000    0.0000 C   0  0  0  0  0  0  0  0  0  0  0  0
   -0.7144    0.8250    0.0000 C   0  0  0  0  0  0  0  0  0  0  0  0
   -2.8579   -5.3625    0.0000 C   0  0  0  0  0  0  0  0  0  0  0  0
   -4.2868   -5.3625    0.0000 C   0  0  0  0  0  0  0  0  0  0  0  0
   -1.4290    0.4125    0.0000 C   0  0  0  0  0  0  0  0  0  0  0  0
   -5.0013   -0.8250    0.0000 C   0  0  0  0  0  0  0  0  0  0  0  0
   -3.5724   -5.7750    0.0000 C   0  0  0  0  0  0  0  0  0  0  0  0
   -5.7158   -0.4125    0.0000 C   0  0  0  0  0  0  0  0  0  0  0  0
   -5.0013   -1.6500    0.0000 C   0  0  0  0  0  0  0  0  0  0  0  0
   -6.4302   -0.8250    0.0000 C   0  0  0  0  0  0  0  0  0  0  0  0
   -5.7158   -2.0625    0.0000 C   0  0  0  0  0  0  0  0  0  0  0  0
   -6.4302   -1.6500    0.0000 C   0  0  0  0  0  0  0  0  0  0  0  0
  1 30  1  0  0  0  0
  2 15  2  0  0  0  0
  3 18  2  0  0  0  0
  4 27  2  0  0  0  0
  5 11  1  0  0  0  0
  6 11  2  0  0  0  0
  7 14  1  0  0  0  0
  7 15  1  0  0  0  0
  7 21  1  0  0  0  0
  8 18  1  0  0  0  0
  8 23  1  0  0  0  0
  9 19  1  0  0  0  0
  9 27  1  0  0  0  0
 10 20  1  0  0  0  0
 10 27  1  0  0  0  0
 11 16  1  0  0  0  0
 12 13  1  0  0  0  0
 12 17  2  0  0  0  0
 12 22  1  0  0  0  0
 13 16  1  0  0  0  0
 13 24  2  0  0  0  0
 14 18  1  0  0  0  0
 14 26  1  0  0  0  0
 15 17  1  0  0  0  0
 16 29  2  0  0  0  0
 19 20  1  0  0  0  0
 19 25  2  0  0  0  0
 20 28  2  0  0  0  0
 21 22  2  0  0  0  0
 23 25  1  0  0  0  0
 23 31  2  0  0  0  0
 24 30  1  0  0  0  0
 26 32  1  0  0  0  0
 28 31  1  0  0  0  0
 29 33  1  0  0  0  0
 30 33  2  0  0  0  0
 32 34  2  0  0  0  0
 32 35  1  0  0  0  0
 34 36  1  0  0  0  0
 35 37  2  0  0  0  0
 36 38  2  0  0  0  0
 37 38  1  0  0  0  0
M  CHG  2   5  -1  11   1
M  END
> <PUBCHEM_COMPOUND_ID_TYPE>
0

> <PUBCHEM_TOTAL_CHARGE>
0

> <PUBCHEM_SUBSTANCE_ID>
310934130

> <PUBCHEM_SUBSTANCE_VERSION>
1

> <PUBCHEM_EXT_DATASOURCE_NAME>
4488

> <PUBCHEM_EXT_DATASOURCE_REGID>
SCHEMBL16111577

> <PUBCHEM_SUBSTANCE_COMMENT>
InChI=1S/C27H20ClN5O5/c28-18-6-9-23(33(37)38)20(14-18)17-10-11-32(25(34)13-17)24(12-16-4-2-1-3-5-16)26(35)29-19-7-8-21-22(15-19)31-27(36)30-21/h1-11,13-15,24H,12H2,(H,29,35)(H2,30,31,36)
InChIKey=QXEWTDGLQFDEMV-UHFFFAOYSA-N

> <PUBCHEM_SUBSTANCE_SYNONYM>
SCHEMBL16111577

> <PUBCHEM_XREF_EXT_ID>
SCHEMBL16111577

> <PUBCHEM_EXT_DATASOURCE_URL>
https://www.surechembl.org/

> <PUBCHEM_EXT_SUBSTANCE_URL>
https://www.surechembl.org/chemical/SCHEMBL16111577

> <PUBCHEM_CID_ASSOCIATIONS>
86301862  1

> <PUBCHEM_COORDINATE_TYPE>
1
3

$$$$
