310939064
  -OEChem-07211613022D

 46 45  0     1  0  0  0  0  0999 V2000
   -4.1857    0.0000    0.0000 O   0  0  0  0  0  0  0  0  0  0  0  0
    0.8156    0.4125    0.0000 O   0  0  0  0  0  0  0  0  0  0  0  0
   -4.9002    1.2375    0.0000 O   0  0  0  0  0  0  0  0  0  0  0  0
    1.5300   -0.8250    0.0000 O   0  0  0  0  0  0  0  0  0  0  0  0
   -4.9002   -2.0625    0.0000 O   0  0  0  0  0  0  0  0  0  0  0  0
    3.6734    1.2375    0.0000 O   0  0  0  0  0  0  0  0  0  0  0  0
   -5.6147   -0.8250    0.0000 N   0  0  0  0  0  0  0  0  0  0  0  0
    2.9590    0.0000    0.0000 N   0  0  0  0  0  0  0  0  0  0  0  0
   -5.6147    0.0000    0.0000 C   0  0  3  0  0  0  0  0  0  0  0  0
    2.2445    0.4125    0.0000 C   0  0  3  0  0  0  0  0  0  0  0  0
   -4.9002    0.4125    0.0000 C   0  0  0  0  0  0  0  0  0  0  0  0
    1.5300    0.0000    0.0000 C   0  0  0  0  0  0  0  0  0  0  0  0
   -6.3292    0.4125    0.0000 C   0  0  0  0  0  0  0  0  0  0  0  0
    2.2445    1.2375    0.0000 C   0  0  0  0  0  0  0  0  0  0  0  0
   -4.9002   -1.2375    0.0000 C   0  0  0  0  0  0  0  0  0  0  0  0
    3.6734    0.4125    0.0000 C   0  0  0  0  0  0  0  0  0  0  0  0
   -6.6864   -0.6187    0.0000 C   0  0  0  0  0  0  0  0  0  0  0  0
    3.3162    2.2687    0.0000 C   0  0  0  0  0  0  0  0  0  0  0  0
   -3.4713    0.4125    0.0000 C   0  0  0  0  0  0  0  0  0  0  0  0
    0.1011    0.0000    0.0000 C   0  0  0  0  0  0  0  0  0  0  0  0
   -7.0436    0.0000    0.0000 C   0  0  0  0  0  0  0  0  0  0  0  0
   -6.3292    1.2375    0.0000 C   0  0  0  0  0  0  0  0  0  0  0  0
    2.9590    1.6500    0.0000 C   0  0  0  0  0  0  0  0  0  0  0  0
    1.5300    1.6500    0.0000 C   0  0  0  0  0  0  0  0  0  0  0  0
   -2.7568    0.0000    0.0000 C   0  0  0  0  0  0  0  0  0  0  0  0
   -0.6134    0.4125    0.0000 C   0  0  0  0  0  0  0  0  0  0  0  0
   -5.9719   -1.0313    0.0000 C   0  0  0  0  0  0  0  0  0  0  0  0
    3.3162    1.4437    0.0000 C   0  0  0  0  0  0  0  0  0  0  0  0
   -1.3279    0.0000    0.0000 C   0  0  0  0  0  0  0  0  0  0  0  0
   -2.0423    0.4125    0.0000 C   0  0  0  0  0  0  0  0  0  0  0  0
   -5.2574   -0.6187    0.0000 C   0  0  0  0  0  0  0  0  0  0  0  0
    4.0307    1.0313    0.0000 C   0  0  0  0  0  0  0  0  0  0  0  0
   -4.5430   -1.0312    0.0000 C   0  0  0  0  0  0  0  0  0  0  0  0
    4.0307    0.2062    0.0000 C   0  0  0  0  0  0  0  0  0  0  0  0
   -3.8285   -0.6187    0.0000 C   0  0  0  0  0  0  0  0  0  0  0  0
    4.7451   -0.2062    0.0000 C   0  0  0  0  0  0  0  0  0  0  0  0
   -3.1140   -1.0312    0.0000 C   0  0  0  0  0  0  0  0  0  0  0  0
    4.7451   -1.0313    0.0000 C   0  0  0  0  0  0  0  0  0  0  0  0
   -2.3996   -0.6187    0.0000 C   0  0  0  0  0  0  0  0  0  0  0  0
    5.4596   -1.4437    0.0000 C   0  0  0  0  0  0  0  0  0  0  0  0
   -1.6851   -1.0312    0.0000 C   0  0  0  0  0  0  0  0  0  0  0  0
    5.4596   -2.2687    0.0000 C   0  0  0  0  0  0  0  0  0  0  0  0
   -3.3607   -0.8250    0.0000 C   0  0  0  0  0  0  0  0  0  0  0  0
    5.2129    0.0000    0.0000 C   0  0  0  0  0  0  0  0  0  0  0  0
   -2.2841   -0.8250    0.0000 C   0  0  0  0  0  0  0  0  0  0  0  0
    6.2894    0.0000    0.0000 C   0  0  0  0  0  0  0  0  0  0  0  0
  1 11  1  0  0  0  0
  1 19  1  0  0  0  0
  2 12  1  0  0  0  0
  2 20  1  0  0  0  0
  3 11  2  0  0  0  0
  4 12  2  0  0  0  0
  5 15  2  0  0  0  0
  6 16  2  0  0  0  0
  7  9  1  0  0  0  0
  7 15  1  0  0  0  0
  8 10  1  0  0  0  0
  8 16  1  0  0  0  0
  9 11  1  0  0  0  0
  9 13  1  0  0  0  0
 10 12  1  0  0  0  0
 10 14  1  0  0  0  0
 13 21  1  0  0  0  0
 13 22  1  0  0  0  0
 14 23  1  0  0  0  0
 14 24  1  0  0  0  0
 15 17  1  0  0  0  0
 16 18  1  0  0  0  0
 17 27  1  0  0  0  0
 18 28  1  0  0  0  0
 19 25  1  0  0  0  0
 20 26  1  0  0  0  0
 25 30  1  0  0  0  0
 26 29  1  0  0  0  0
 27 31  1  0  0  0  0
 28 32  1  0  0  0  0
 29 30  1  0  0  0  0
 31 33  1  0  0  0  0
 32 34  1  0  0  0  0
 33 35  1  0  0  0  0
 34 36  1  0  0  0  0
 35 37  1  0  0  0  0
 36 38  1  0  0  0  0
 37 39  1  0  0  0  0
 38 40  1  0  0  0  0
 39 41  1  0  0  0  0
 40 42  1  0  0  0  0
 41 43  1  0  0  0  0
 42 44  1  0  0  0  0
 43 45  2  0  0  0  0
 44 46  2  0  0  0  0
M  END
> <PUBCHEM_COMPOUND_ID_TYPE>
0

> <PUBCHEM_TOTAL_CHARGE>
0

> <PUBCHEM_SUBSTANCE_ID>
310939064

> <PUBCHEM_SUBSTANCE_VERSION>
1

> <PUBCHEM_EXT_DATASOURCE_NAME>
4488

> <PUBCHEM_EXT_DATASOURCE_REGID>
SCHEMBL16116983

> <PUBCHEM_SUBSTANCE_COMMENT>
InChI=1S/C38H68N2O6/c1-7-9-11-13-15-17-19-23-27-33(41)39-35(31(3)4)37(43)45-29-25-21-22-26-30-46-38(44)36(32(5)6)40-34(42)28-24-20-18-16-14-12-10-8-2/h7-8,31-32,35-36H,1-2,9-30H2,3-6H3,(H,39,41)(H,40,42)
InChIKey=ZKYDZOGJQIYYDV-UHFFFAOYSA-N

> <PUBCHEM_SUBSTANCE_SYNONYM>
SCHEMBL16116983

> <PUBCHEM_XREF_EXT_ID>
SCHEMBL16116983

> <PUBCHEM_EXT_DATASOURCE_URL>
https://www.surechembl.org/

> <PUBCHEM_EXT_SUBSTANCE_URL>
https://www.surechembl.org/chemical/SCHEMBL16116983

> <PUBCHEM_CID_ASSOCIATIONS>
117606428  1

> <PUBCHEM_COORDINATE_TYPE>
1
3

$$$$
