310946207
  -OEChem-07211613022D

 19 21  0     1  0  0  0  0  0999 V2000
   -1.1085   -0.4196    0.0000 O   0  0  0  0  0  0  0  0  0  0  0  0
   -1.8350    0.8329    0.0000 O   0  0  0  0  0  0  0  0  0  0  0  0
   -0.3695   -0.0063    0.0000 C   0  0  3  0  0  0  0  0  0  0  0  0
    0.3570   -0.3946    0.0000 C   0  0  3  0  0  0  0  0  0  0  0  0
    0.3570    1.2463    0.0000 C   0  0  3  0  0  0  0  0  0  0  0  0
    1.0709    0.8454    0.0000 C   0  0  3  0  0  0  0  0  0  0  0  0
    1.0709    0.0063    0.0000 C   0  0  3  0  0  0  0  0  0  0  0  0
   -0.3570    0.8329    0.0000 C   0  0  0  0  0  0  0  0  0  0  0  0
    0.5699    0.4446    0.0000 C   0  0  0  0  0  0  0  0  0  0  0  0
    1.8098    1.2463    0.0000 C   0  0  0  0  0  0  0  0  0  0  0  0
   -0.3695   -0.8329    0.0000 C   0  0  0  0  0  0  0  0  0  0  0  0
    1.7097   -0.3570    0.0000 C   0  0  0  0  0  0  0  0  0  0  0  0
   -1.8224   -0.0063    0.0000 C   0  0  0  0  0  0  0  0  0  0  0  0
    2.5238    0.8329    0.0000 C   0  0  0  0  0  0  0  0  0  0  0  0
    2.0103    0.4697    0.0000 C   0  0  0  0  0  0  0  0  0  0  0  0
    0.3444   -1.2463    0.0000 C   0  0  0  0  0  0  0  0  0  0  0  0
    2.5238    0.0063    0.0000 C   0  0  0  0  0  0  0  0  0  0  0  0
    1.8474   -0.3695    0.0000 C   0  0  0  0  0  0  0  0  0  0  0  0
   -2.5238   -0.4321    0.0000 C   0  0  0  0  0  0  0  0  0  0  0  0
  1  3  1  0  0  0  0
  1 13  1  0  0  0  0
  2 13  2  0  0  0  0
  3  4  1  0  0  0  0
  3  8  1  0  0  0  0
  3 11  1  0  0  0  0
  4  7  1  0  0  0  0
  4  9  1  0  0  0  0
  5  6  1  0  0  0  0
  5  8  1  0  0  0  0
  5  9  1  0  0  0  0
  6  7  1  0  0  0  0
  6 10  1  0  0  0  0
  7 12  1  0  0  0  0
 10 14  1  0  0  0  0
 10 15  1  0  0  0  0
 11 16  1  0  0  0  0
 13 19  1  0  0  0  0
 14 17  1  0  0  0  0
 15 18  1  0  0  0  0
 17 18  1  0  0  0  0
M  END
> <PUBCHEM_COMPOUND_ID_TYPE>
0

> <PUBCHEM_TOTAL_CHARGE>
0

> <PUBCHEM_SUBSTANCE_ID>
310946207

> <PUBCHEM_SUBSTANCE_VERSION>
1

> <PUBCHEM_EXT_DATASOURCE_NAME>
4488

> <PUBCHEM_EXT_DATASOURCE_REGID>
SCHEMBL16124319

> <PUBCHEM_SUBSTANCE_COMMENT>
InChI=1S/C17H28O2/c1-4-17(19-12(3)18)10-14-9-15(17)11(2)16(14)13-7-5-6-8-13/h11,13-16H,4-10H2,1-3H3
InChIKey=GXCJKZDKYAEFLO-UHFFFAOYSA-N

> <PUBCHEM_SUBSTANCE_SYNONYM>
SCHEMBL16124319

> <PUBCHEM_XREF_EXT_ID>
SCHEMBL16124319

> <PUBCHEM_EXT_DATASOURCE_URL>
https://www.surechembl.org/

> <PUBCHEM_EXT_SUBSTANCE_URL>
https://www.surechembl.org/chemical/SCHEMBL16124319

> <PUBCHEM_CID_ASSOCIATIONS>
117612157  1

> <PUBCHEM_COORDINATE_TYPE>
1
3

$$$$
