310947285
  -OEChem-07211613022D

 38 42  0     1  0  0  0  0  0999 V2000
   -2.1753    2.2832    0.0000 O   0  0  0  0  0  0  0  0  0  0  0  0
    4.0227    0.1356    0.0000 O   0  0  0  0  0  0  0  0  0  0  0  0
    0.7528   -0.0343    0.0000 N   0  0  0  0  0  0  0  0  0  0  0  0
    1.2377    0.6332    0.0000 N   0  0  0  0  0  0  0  0  0  0  0  0
   -2.8897    1.0457    0.0000 N   0  0  0  0  0  0  0  0  0  0  0  0
    5.4517    0.1356    0.0000 N   0  0  0  0  0  0  0  0  0  0  0  0
   -0.0319    0.2207    0.0000 C   0  0  0  0  0  0  0  0  0  0  0  0
   -0.0319    1.0457    0.0000 C   0  0  0  0  0  0  0  0  0  0  0  0
    0.7528    1.3006    0.0000 C   0  0  0  0  0  0  0  0  0  0  0  0
   -0.7463    1.4582    0.0000 C   0  0  0  0  0  0  0  0  0  0  0  0
   -1.4608    1.0457    0.0000 C   0  0  0  0  0  0  0  0  0  0  0  0
   -0.7463   -0.1918    0.0000 C   0  0  0  0  0  0  0  0  0  0  0  0
    0.9663   -0.8312    0.0000 C   0  0  0  0  0  0  0  0  0  0  0  0
   -1.4608    0.2207    0.0000 C   0  0  0  0  0  0  0  0  0  0  0  0
    1.7632   -1.0447    0.0000 C   0  0  0  0  0  0  0  0  0  0  0  0
   -2.1753    1.4582    0.0000 C   0  0  0  0  0  0  0  0  0  0  0  0
    3.3570   -1.4717    0.0000 C   0  0  0  0  0  0  0  0  0  0  0  0
    4.1538   -1.6853    0.0000 C   0  0  0  0  0  0  0  0  0  0  0  0
    1.1653    2.0151    0.0000 C   0  0  0  0  0  0  0  0  0  0  0  0
    1.9767   -1.8416    0.0000 C   0  0  0  0  0  0  0  0  0  0  0  0
    2.3465   -0.4613    0.0000 C   0  0  0  0  0  0  0  0  0  0  0  0
    4.7372   -1.1019    0.0000 C   0  0  0  0  0  0  0  0  0  0  0  0
    2.7736   -2.0551    0.0000 C   0  0  0  0  0  0  0  0  0  0  0  0
    3.1434   -0.6748    0.0000 C   0  0  0  0  0  0  0  0  0  0  0  0
   -3.6042    1.4582    0.0000 C   0  0  3  0  0  0  0  0  0  0  0  0
    4.3674   -2.4821    0.0000 C   0  0  0  0  0  0  0  0  0  0  0  0
    4.7372   -0.2769    0.0000 C   0  0  0  0  0  0  0  0  0  0  0  0
    5.5341   -1.3154    0.0000 C   0  0  0  0  0  0  0  0  0  0  0  0
   -4.3187    1.0457    0.0000 C   0  0  0  0  0  0  0  0  0  0  0  0
    5.1643   -2.6957    0.0000 C   0  0  0  0  0  0  0  0  0  0  0  0
    5.7476   -2.1123    0.0000 C   0  0  0  0  0  0  0  0  0  0  0  0
   -3.6042    2.2832    0.0000 C   0  0  0  0  0  0  0  0  0  0  0  0
   -4.3187    0.2207    0.0000 C   0  0  0  0  0  0  0  0  0  0  0  0
   -5.0332    1.4582    0.0000 C   0  0  0  0  0  0  0  0  0  0  0  0
   -5.0332   -0.1918    0.0000 C   0  0  0  0  0  0  0  0  0  0  0  0
   -5.7476    1.0457    0.0000 C   0  0  0  0  0  0  0  0  0  0  0  0
   -5.7476    0.2207    0.0000 C   0  0  0  0  0  0  0  0  0  0  0  0
   -4.3187    2.6957    0.0000 C   0  0  0  0  0  0  0  0  0  0  0  0
  1 16  2  0  0  0  0
  2 27  2  0  0  0  0
  3  4  1  0  0  0  0
  3  7  1  0  0  0  0
  3 13  1  0  0  0  0
  4  9  2  0  0  0  0
  5 16  1  0  0  0  0
  5 25  1  0  0  0  0
  6 27  1  0  0  0  0
  7  8  1  0  0  0  0
  7 12  2  0  0  0  0
  8  9  1  0  0  0  0
  8 10  2  0  0  0  0
  9 19  1  0  0  0  0
 10 11  1  0  0  0  0
 11 14  2  0  0  0  0
 11 16  1  0  0  0  0
 12 14  1  0  0  0  0
 13 15  1  0  0  0  0
 15 20  2  0  0  0  0
 15 21  1  0  0  0  0
 17 18  1  0  0  0  0
 17 23  2  0  0  0  0
 17 24  1  0  0  0  0
 18 22  1  0  0  0  0
 18 26  2  0  0  0  0
 20 23  1  0  0  0  0
 21 24  2  0  0  0  0
 22 27  1  0  0  0  0
 22 28  2  0  0  0  0
 25 29  1  0  0  0  0
 25 32  1  0  0  0  0
 26 30  1  0  0  0  0
 28 31  1  0  0  0  0
 29 33  2  0  0  0  0
 29 34  1  0  0  0  0
 30 31  2  0  0  0  0
 32 38  1  0  0  0  0
 33 35  1  0  0  0  0
 34 36  2  0  0  0  0
 35 37  2  0  0  0  0
 36 37  1  0  0  0  0
M  END
> <PUBCHEM_COMPOUND_ID_TYPE>
0

> <PUBCHEM_TOTAL_CHARGE>
0

> <PUBCHEM_SUBSTANCE_ID>
310947285

> <PUBCHEM_SUBSTANCE_VERSION>
1

> <PUBCHEM_EXT_DATASOURCE_NAME>
4488

> <PUBCHEM_EXT_DATASOURCE_REGID>
SCHEMBL16125440

> <PUBCHEM_SUBSTANCE_COMMENT>
InChI=1S/C32H30N4O2/c1-3-29(24-9-5-4-6-10-24)34-32(38)25-17-18-30-28(19-25)21(2)35-36(30)20-22-13-15-23(16-14-22)26-11-7-8-12-27(26)31(33)37/h4-19,29H,3,20H2,1-2H3,(H2,33,37)(H,34,38)
InChIKey=YMGXLOLUUPLWMT-UHFFFAOYSA-N

> <PUBCHEM_SUBSTANCE_SYNONYM>
SCHEMBL16125440

> <PUBCHEM_XREF_EXT_ID>
SCHEMBL16125440

> <PUBCHEM_EXT_DATASOURCE_URL>
https://www.surechembl.org/

> <PUBCHEM_EXT_SUBSTANCE_URL>
https://www.surechembl.org/chemical/SCHEMBL16125440

> <PUBCHEM_CID_ASSOCIATIONS>
71577139  1

> <PUBCHEM_COORDINATE_TYPE>
1
3

$$$$
