310945921
  -OEChem-07211613022D

 36 39  0     1  0  0  0  0  0999 V2000
    3.6370    1.4438    0.0000 O   0  0  0  0  0  0  0  0  0  0  0  0
    1.3819    1.4438    0.0000 O   0  0  0  0  0  0  0  0  0  0  0  0
    0.6669    1.0313    0.0000 O   0  0  0  0  0  0  0  0  0  0  0  0
   -0.0481    1.4438    0.0000 O   0  0  0  0  0  0  0  0  0  0  0  0
   -2.1932    2.6813    0.0000 O   0  0  0  0  0  0  0  0  0  0  0  0
   -2.9082   -2.6813    0.0000 O   0  0  0  0  0  0  0  0  0  0  0  0
    1.3819   -0.1925    0.0000 N   0  0  0  0  0  0  0  0  0  0  0  0
   -0.7632    0.2200    0.0000 N   0  0  0  0  0  0  0  0  0  0  0  0
   -2.1932    1.0450    0.0000 N   0  0  0  0  0  0  0  0  0  0  0  0
    2.8257    1.4575    0.0000 C   0  0  3  0  0  0  0  0  0  0  0  0
    2.1245    1.0313    0.0000 C   0  0  0  0  0  0  0  0  0  0  0  0
    3.2382    0.7563    0.0000 C   0  0  0  0  0  0  0  0  0  0  0  0
    2.0832    0.2200    0.0000 C   0  0  3  0  0  0  0  0  0  0  0  0
    2.8257    2.2963    0.0000 C   0  0  0  0  0  0  0  0  0  0  0  0
    2.8257   -0.2063    0.0000 C   0  0  0  0  0  0  0  0  0  0  0  0
    0.6669    0.1925    0.0000 C   0  0  0  0  0  0  0  0  0  0  0  0
   -0.0344   -0.1925    0.0000 C   0  0  3  0  0  0  0  0  0  0  0  0
    2.8120   -1.0176    0.0000 C   0  0  0  0  0  0  0  0  0  0  0  0
   -0.0481   -1.0176    0.0000 C   0  0  0  0  0  0  0  0  0  0  0  0
   -0.7769    1.0313    0.0000 C   0  0  0  0  0  0  0  0  0  0  0  0
   -0.7632   -1.4301    0.0000 C   0  0  0  0  0  0  0  0  0  0  0  0
   -1.4920    1.4438    0.0000 C   0  0  3  0  0  0  0  0  0  0  0  0
    3.5270   -1.4301    0.0000 C   0  0  0  0  0  0  0  0  0  0  0  0
    2.1107   -1.4438    0.0000 C   0  0  0  0  0  0  0  0  0  0  0  0
   -1.4644   -1.0313    0.0000 C   0  0  0  0  0  0  0  0  0  0  0  0
   -0.7632   -2.2551    0.0000 C   0  0  0  0  0  0  0  0  0  0  0  0
   -1.4782    2.2688    0.0000 C   0  0  0  0  0  0  0  0  0  0  0  0
   -2.1932   -2.2551    0.0000 C   0  0  0  0  0  0  0  0  0  0  0  0
   -2.1794   -1.4301    0.0000 C   0  0  0  0  0  0  0  0  0  0  0  0
   -1.4644   -2.6539    0.0000 C   0  0  0  0  0  0  0  0  0  0  0  0
    3.5270   -2.2551    0.0000 C   0  0  0  0  0  0  0  0  0  0  0  0
    2.1107   -2.2551    0.0000 C   0  0  0  0  0  0  0  0  0  0  0  0
    2.8257   -2.6539    0.0000 C   0  0  0  0  0  0  0  0  0  0  0  0
   -2.9082    1.4575    0.0000 C   0  0  0  0  0  0  0  0  0  0  0  0
   -2.9082    2.2826    0.0000 C   0  0  0  0  0  0  0  0  0  0  0  0
   -3.6370   -2.2688    0.0000 C   0  0  0  0  0  0  0  0  0  0  0  0
  1 10  1  0  0  0  0
  1 12  1  0  0  0  0
  2 11  2  0  0  0  0
  3 16  2  0  0  0  0
  4 20  2  0  0  0  0
  5 27  1  0  0  0  0
  5 35  1  0  0  0  0
  6 28  1  0  0  0  0
  6 36  1  0  0  0  0
  7 13  1  0  0  0  0
  7 16  1  0  0  0  0
  8 17  1  0  0  0  0
  8 20  1  0  0  0  0
  9 22  1  0  0  0  0
  9 34  1  0  0  0  0
 10 11  1  0  0  0  0
 10 12  1  0  0  0  0
 10 14  1  0  0  0  0
 11 13  1  0  0  0  0
 13 15  1  0  0  0  0
 15 18  1  0  0  0  0
 16 17  1  0  0  0  0
 17 19  1  0  0  0  0
 18 23  2  0  0  0  0
 18 24  1  0  0  0  0
 19 21  1  0  0  0  0
 20 22  1  0  0  0  0
 21 25  2  0  0  0  0
 21 26  1  0  0  0  0
 22 27  1  0  0  0  0
 23 31  1  0  0  0  0
 24 32  2  0  0  0  0
 25 29  1  0  0  0  0
 26 30  2  0  0  0  0
 28 29  2  0  0  0  0
 28 30  1  0  0  0  0
 31 33  2  0  0  0  0
 32 33  1  0  0  0  0
 34 35  1  0  0  0  0
M  END
> <PUBCHEM_COMPOUND_ID_TYPE>
0

> <PUBCHEM_TOTAL_CHARGE>
0

> <PUBCHEM_SUBSTANCE_ID>
310945921

> <PUBCHEM_SUBSTANCE_VERSION>
1

> <PUBCHEM_EXT_DATASOURCE_NAME>
4488

> <PUBCHEM_EXT_DATASOURCE_REGID>
SCHEMBL16124026

> <PUBCHEM_SUBSTANCE_COMMENT>
InChI=1S/C27H33N3O6/c1-27(17-36-27)24(31)21(14-18-6-4-3-5-7-18)29-25(32)22(15-19-8-10-20(34-2)11-9-19)30-26(33)23-16-35-13-12-28-23/h3-11,21-23,28H,12-17H2,1-2H3,(H,29,32)(H,30,33)
InChIKey=INZHDGLTARGLLA-UHFFFAOYSA-N

> <PUBCHEM_SUBSTANCE_SYNONYM>
SCHEMBL16124026

> <PUBCHEM_XREF_EXT_ID>
SCHEMBL16124026

> <PUBCHEM_EXT_DATASOURCE_URL>
https://www.surechembl.org/

> <PUBCHEM_EXT_SUBSTANCE_URL>
https://www.surechembl.org/chemical/SCHEMBL16124026

> <PUBCHEM_CID_ASSOCIATIONS>
117611904  1

> <PUBCHEM_COORDINATE_TYPE>
1
3

$$$$
