310935594
  -OEChem-07211613022D

 19 19  0     1  0  0  0  0  0999 V2000
    2.0448   -2.0448    0.0000 P   0  0  3  0  0  0  0  0  0  0  0  0
    1.2134   -2.0448    0.0000 O   0  0  0  0  0  0  0  0  0  0  0  0
    2.8537   -2.0448    0.0000 O   0  0  0  0  0  0  0  0  0  0  0  0
    3.4605   -1.2359    0.0000 O   0  0  0  0  0  0  0  0  0  0  0  0
    2.7638    0.0000    0.0000 O   0  0  0  0  0  0  0  0  0  0  0  0
    2.0448   -1.2359    0.0000 C   0  0  0  0  0  0  0  0  0  0  0  0
    2.0448   -2.8537    0.0000 C   0  0  0  0  0  0  0  0  0  0  0  0
    2.7638   -0.8090    0.0000 C   0  0  0  0  0  0  0  0  0  0  0  0
    1.3258   -0.8090    0.0000 C   0  0  0  0  0  0  0  0  0  0  0  0
    2.0448   -0.4045    0.0000 C   0  0  0  0  0  0  0  0  0  0  0  0
    2.7638   -3.2807    0.0000 C   0  0  0  0  0  0  0  0  0  0  0  0
    1.3258   -3.2807    0.0000 C   0  0  0  0  0  0  0  0  0  0  0  0
    0.8090   -1.3482    0.0000 C   0  0  0  0  0  0  0  0  0  0  0  0
    2.7638   -4.0896    0.0000 C   0  0  0  0  0  0  0  0  0  0  0  0
    1.3258   -4.0896    0.0000 C   0  0  0  0  0  0  0  0  0  0  0  0
    2.0448   -4.4941    0.0000 C   0  0  0  0  0  0  0  0  0  0  0  0
    4.1795   -0.8090    0.0000 C   0  0  0  0  0  0  0  0  0  0  0  0
    0.0000   -1.3482    0.0000 C   0  0  0  0  0  0  0  0  0  0  0  0
    4.1795    0.0000    0.0000 C   0  0  0  0  0  0  0  0  0  0  0  0
  1  2  1  0  0  0  0
  1  3  2  0  0  0  0
  1  6  1  0  0  0  0
  1  7  1  0  0  0  0
  2 13  1  0  0  0  0
  4  8  1  0  0  0  0
  4 17  1  0  0  0  0
  5  8  2  0  0  0  0
  6  8  1  0  0  0  0
  6  9  1  0  0  0  0
  6 10  1  0  0  0  0
  7 11  2  0  0  0  0
  7 12  1  0  0  0  0
 11 14  1  0  0  0  0
 12 15  2  0  0  0  0
 13 18  1  0  0  0  0
 14 16  2  0  0  0  0
 15 16  1  0  0  0  0
 17 19  1  0  0  0  0
M  END
> <PUBCHEM_COMPOUND_ID_TYPE>
0

> <PUBCHEM_TOTAL_CHARGE>
0

> <PUBCHEM_SUBSTANCE_ID>
310935594

> <PUBCHEM_SUBSTANCE_VERSION>
1

> <PUBCHEM_EXT_DATASOURCE_NAME>
4488

> <PUBCHEM_EXT_DATASOURCE_REGID>
SCHEMBL16113167

> <PUBCHEM_SUBSTANCE_COMMENT>
InChI=1S/C14H21O4P/c1-5-17-13(15)14(3,4)19(16,18-6-2)12-10-8-7-9-11-12/h7-11H,5-6H2,1-4H3
InChIKey=ZRMMQTLSTXBPNE-UHFFFAOYSA-N

> <PUBCHEM_SUBSTANCE_SYNONYM>
SCHEMBL16113167

> <PUBCHEM_XREF_EXT_ID>
SCHEMBL16113167

> <PUBCHEM_EXT_DATASOURCE_URL>
https://www.surechembl.org/

> <PUBCHEM_EXT_SUBSTANCE_URL>
https://www.surechembl.org/chemical/SCHEMBL16113167

> <PUBCHEM_CID_ASSOCIATIONS>
117603615  1

> <PUBCHEM_COORDINATE_TYPE>
1
3

$$$$
