310935135
  -OEChem-07211613022D

 25 27  0     1  0  0  0  0  0999 V2000
    6.5269   -0.6618    0.0000 F   0  0  0  0  0  0  0  0  0  0  0  0
    0.0000   -2.8983    0.0000 F   0  0  0  0  0  0  0  0  0  0  0  0
    0.1369   -4.5642    0.0000 F   0  0  0  0  0  0  0  0  0  0  0  0
    5.3630   -1.5062    0.0000 O   0  0  0  0  0  0  0  0  0  0  0  0
    5.3630   -2.9211    0.0000 O   0  0  0  0  0  0  0  0  0  0  0  0
    1.5746   -4.4045    0.0000 N   0  0  0  0  0  0  0  0  0  0  0  0
    4.1306   -2.2137    0.0000 C   0  0  3  0  0  0  0  0  0  0  0  0
    4.4958   -1.4605    0.0000 C   0  0  0  0  0  0  0  0  0  0  0  0
    3.6514   -2.8755    0.0000 C   0  0  0  0  0  0  0  0  0  0  0  0
    2.8526   -2.6244    0.0000 C   0  0  0  0  0  0  0  0  0  0  0  0
    4.9522   -2.2137    0.0000 C   0  0  0  0  0  0  0  0  0  0  0  0
    3.6514   -1.5290    0.0000 C   0  0  0  0  0  0  0  0  0  0  0  0
    5.4999   -1.5975    0.0000 C   0  0  0  0  0  0  0  0  0  0  0  0
    2.8526   -1.8029    0.0000 C   0  0  0  0  0  0  0  0  0  0  0  0
    2.1908   -3.1037    0.0000 C   0  0  0  0  0  0  0  0  0  0  0  0
    4.0622   -0.7759    0.0000 C   0  0  0  0  0  0  0  0  0  0  0  0
    5.7053   -0.6846    0.0000 C   0  0  0  0  0  0  0  0  0  0  0  0
    1.4149   -2.7842    0.0000 C   0  0  0  0  0  0  0  0  0  0  0  0
    2.2365   -3.9252    0.0000 C   0  0  0  0  0  0  0  0  0  0  0  0
    4.4273   -0.0228    0.0000 C   0  0  0  0  0  0  0  0  0  0  0  0
    0.7531   -3.2406    0.0000 C   0  0  0  0  0  0  0  0  0  0  0  0
    5.2717    0.0000    0.0000 C   0  0  0  0  0  0  0  0  0  0  0  0
    0.8216   -4.0850    0.0000 C   0  0  0  0  0  0  0  0  0  0  0  0
    5.7737   -2.1224    0.0000 C   0  0  0  0  0  0  0  0  0  0  0  0
    6.1845   -1.5062    0.0000 C   0  0  0  0  0  0  0  0  0  0  0  0
  1 17  1  0  0  0  0
  2 21  1  0  0  0  0
  3 23  1  0  0  0  0
  4 11  1  0  0  0  0
  4 25  1  0  0  0  0
  5 11  2  0  0  0  0
  6 19  1  0  0  0  0
  6 23  2  0  0  0  0
  7  8  1  0  0  0  0
  7  9  1  0  0  0  0
  7 11  1  0  0  0  0
  7 12  1  0  0  0  0
  8 13  1  0  0  0  0
  8 16  2  0  0  0  0
  9 10  2  0  0  0  0
 10 14  1  0  0  0  0
 10 15  1  0  0  0  0
 12 14  1  0  0  0  0
 13 17  2  0  0  0  0
 13 24  1  0  0  0  0
 15 18  1  0  0  0  0
 15 19  2  0  0  0  0
 16 20  1  0  0  0  0
 17 22  1  0  0  0  0
 18 21  2  0  0  0  0
 20 22  2  0  0  0  0
 21 23  1  0  0  0  0
M  END
> <PUBCHEM_COMPOUND_ID_TYPE>
0

> <PUBCHEM_TOTAL_CHARGE>
0

> <PUBCHEM_SUBSTANCE_ID>
310935135

> <PUBCHEM_SUBSTANCE_VERSION>
1

> <PUBCHEM_EXT_DATASOURCE_NAME>
4488

> <PUBCHEM_EXT_DATASOURCE_REGID>
SCHEMBL16112662

> <PUBCHEM_SUBSTANCE_COMMENT>
InChI=1S/C19H16F3NO2/c1-11-14(4-3-5-15(11)20)19(18(24)25-2)7-6-12(9-19)13-8-16(21)17(22)23-10-13/h3-5,8-10H,6-7H2,1-2H3
InChIKey=BBSYHDFQFHQNDU-UHFFFAOYSA-N

> <PUBCHEM_SUBSTANCE_SYNONYM>
SCHEMBL16112662

> <PUBCHEM_XREF_EXT_ID>
SCHEMBL16112662

> <PUBCHEM_EXT_DATASOURCE_URL>
https://www.surechembl.org/

> <PUBCHEM_EXT_SUBSTANCE_URL>
https://www.surechembl.org/chemical/SCHEMBL16112662

> <PUBCHEM_CID_ASSOCIATIONS>
117603223  1

> <PUBCHEM_COORDINATE_TYPE>
1
3

$$$$
