310945877
  -OEChem-07211613022D

 38 41  0     1  0  0  0  0  0999 V2000
    3.6878    1.4570    0.0000 O   0  0  0  0  0  0  0  0  0  0  0  0
    1.4012    1.4570    0.0000 O   0  0  0  0  0  0  0  0  0  0  0  0
   -2.6421    0.3137    0.0000 O   0  0  0  0  0  0  0  0  0  0  0  0
    0.6762    1.0387    0.0000 O   0  0  0  0  0  0  0  0  0  0  0  0
   -0.0488    1.4570    0.0000 O   0  0  0  0  0  0  0  0  0  0  0  0
   -2.9488   -2.7118    0.0000 O   0  0  0  0  0  0  0  0  0  0  0  0
    1.4012   -0.2021    0.0000 N   0  0  0  0  0  0  0  0  0  0  0  0
   -0.7738    0.2161    0.0000 N   0  0  0  0  0  0  0  0  0  0  0  0
   -1.4988    2.3075    0.0000 N   0  0  0  0  0  0  0  0  0  0  0  0
    2.8652    1.4709    0.0000 C   0  0  3  0  0  0  0  0  0  0  0  0
    2.1541    1.0527    0.0000 C   0  0  0  0  0  0  0  0  0  0  0  0
    3.2695    0.7738    0.0000 C   0  0  0  0  0  0  0  0  0  0  0  0
    2.1262    0.2301    0.0000 C   0  0  3  0  0  0  0  0  0  0  0  0
    2.8513    2.3214    0.0000 C   0  0  0  0  0  0  0  0  0  0  0  0
   -1.4988    1.4709    0.0000 C   0  0  3  0  0  0  0  0  0  0  0  0
   -2.2099    1.0527    0.0000 C   0  0  3  0  0  0  0  0  0  0  0  0
    0.6762    0.2021    0.0000 C   0  0  0  0  0  0  0  0  0  0  0  0
   -0.0348   -0.2021    0.0000 C   0  0  3  0  0  0  0  0  0  0  0  0
    2.8652   -0.2021    0.0000 C   0  0  0  0  0  0  0  0  0  0  0  0
   -0.7877    1.0527    0.0000 C   0  0  0  0  0  0  0  0  0  0  0  0
    2.8513   -1.0248    0.0000 C   0  0  0  0  0  0  0  0  0  0  0  0
   -0.0488   -1.0387    0.0000 C   0  0  0  0  0  0  0  0  0  0  0  0
   -2.9488    1.4709    0.0000 C   0  0  0  0  0  0  0  0  0  0  0  0
   -0.7599   -1.4431    0.0000 C   0  0  0  0  0  0  0  0  0  0  0  0
   -2.2238    2.7118    0.0000 C   0  0  0  0  0  0  0  0  0  0  0  0
   -1.8056    0.3276    0.0000 C   0  0  0  0  0  0  0  0  0  0  0  0
   -2.9349    2.3075    0.0000 C   0  0  0  0  0  0  0  0  0  0  0  0
    3.5763   -1.4570    0.0000 C   0  0  0  0  0  0  0  0  0  0  0  0
    2.1402   -1.4570    0.0000 C   0  0  0  0  0  0  0  0  0  0  0  0
   -1.4988   -1.0527    0.0000 C   0  0  0  0  0  0  0  0  0  0  0  0
   -0.7738   -2.2796    0.0000 C   0  0  0  0  0  0  0  0  0  0  0  0
   -2.2238   -2.2796    0.0000 C   0  0  0  0  0  0  0  0  0  0  0  0
   -2.2099   -1.4570    0.0000 C   0  0  0  0  0  0  0  0  0  0  0  0
   -1.4849   -2.6979    0.0000 C   0  0  0  0  0  0  0  0  0  0  0  0
    3.5763   -2.2796    0.0000 C   0  0  0  0  0  0  0  0  0  0  0  0
    2.1402   -2.2796    0.0000 C   0  0  0  0  0  0  0  0  0  0  0  0
    2.8652   -2.6979    0.0000 C   0  0  0  0  0  0  0  0  0  0  0  0
   -3.6878   -2.2796    0.0000 C   0  0  0  0  0  0  0  0  0  0  0  0
  1 10  1  0  0  0  0
  1 12  1  0  0  0  0
  2 11  2  0  0  0  0
  3 16  1  0  0  0  0
  4 17  2  0  0  0  0
  5 20  2  0  0  0  0
  6 32  1  0  0  0  0
  6 38  1  0  0  0  0
  7 13  1  0  0  0  0
  7 17  1  0  0  0  0
  8 18  1  0  0  0  0
  8 20  1  0  0  0  0
  9 15  1  0  0  0  0
  9 25  1  0  0  0  0
 10 11  1  0  0  0  0
 10 12  1  0  0  0  0
 10 14  1  0  0  0  0
 11 13  1  0  0  0  0
 13 19  1  0  0  0  0
 15 16  1  0  0  0  0
 15 20  1  0  0  0  0
 16 23  1  0  0  0  0
 16 26  1  0  0  0  0
 17 18  1  0  0  0  0
 18 22  1  0  0  0  0
 19 21  1  0  0  0  0
 21 28  2  0  0  0  0
 21 29  1  0  0  0  0
 22 24  1  0  0  0  0
 23 27  1  0  0  0  0
 24 30  2  0  0  0  0
 24 31  1  0  0  0  0
 25 27  1  0  0  0  0
 28 35  1  0  0  0  0
 29 36  2  0  0  0  0
 30 33  1  0  0  0  0
 31 34  2  0  0  0  0
 32 33  2  0  0  0  0
 32 34  1  0  0  0  0
 35 37  2  0  0  0  0
 36 37  1  0  0  0  0
M  END
> <PUBCHEM_COMPOUND_ID_TYPE>
0

> <PUBCHEM_TOTAL_CHARGE>
0

> <PUBCHEM_SUBSTANCE_ID>
310945877

> <PUBCHEM_SUBSTANCE_VERSION>
1

> <PUBCHEM_EXT_DATASOURCE_NAME>
4488

> <PUBCHEM_EXT_DATASOURCE_REGID>
SCHEMBL16123982

> <PUBCHEM_SUBSTANCE_COMMENT>
InChI=1S/C29H37N3O6/c1-28(36)14-7-15-30-24(28)27(35)32-23(17-20-10-12-21(37-3)13-11-20)26(34)31-22(25(33)29(2)18-38-29)16-19-8-5-4-6-9-19/h4-6,8-13,22-24,30,36H,7,14-18H2,1-3H3,(H,31,34)(H,32,35)
InChIKey=DVHXUPQSYAIDCE-UHFFFAOYSA-N

> <PUBCHEM_SUBSTANCE_SYNONYM>
SCHEMBL16123982

> <PUBCHEM_XREF_EXT_ID>
SCHEMBL16123982

> <PUBCHEM_EXT_DATASOURCE_URL>
https://www.surechembl.org/

> <PUBCHEM_EXT_SUBSTANCE_URL>
https://www.surechembl.org/chemical/SCHEMBL16123982

> <PUBCHEM_CID_ASSOCIATIONS>
117611861  1

> <PUBCHEM_COORDINATE_TYPE>
1
3

$$$$
