310942457
  -OEChem-07211613022D

 14 14  0     1  0  0  0  0  0999 V2000
   -2.1685   -0.6075    0.0000 S   0  0  3  0  0  0  0  0  0  0  0  0
   -2.1685   -1.4324    0.0000 O   0  0  0  0  0  0  0  0  0  0  0  0
   -0.7228   -0.6164    0.0000 N   0  0  0  0  0  0  0  0  0  0  0  0
   -1.4412    0.6252    0.0000 N   0  0  0  0  0  0  0  0  0  0  0  0
    0.7228   -0.6164    0.0000 N   0  0  0  0  0  0  0  0  0  0  0  0
    2.8958    1.4324    0.0000 N   0  0  0  0  0  0  0  0  0  0  0  0
   -1.4501   -0.1996    0.0000 C   0  0  0  0  0  0  0  0  0  0  0  0
    0.0133    0.6252    0.0000 C   0  0  0  0  0  0  0  0  0  0  0  0
   -0.0044   -0.1996    0.0000 C   0  0  0  0  0  0  0  0  0  0  0  0
   -0.7228    1.0332    0.0000 C   0  0  0  0  0  0  0  0  0  0  0  0
    0.7228    1.0332    0.0000 C   0  0  0  0  0  0  0  0  0  0  0  0
   -2.8958   -0.2084    0.0000 C   0  0  0  0  0  0  0  0  0  0  0  0
    1.4678    0.6252    0.0000 C   0  0  0  0  0  0  0  0  0  0  0  0
    2.1774    1.0422    0.0000 C   0  0  0  0  0  0  0  0  0  0  0  0
  1  2  2  0  0  0  0
  1  7  1  0  0  0  0
  1 12  1  0  0  0  0
  3  7  1  0  0  0  0
  3  9  2  0  0  0  0
  4  7  2  0  0  0  0
  4 10  1  0  0  0  0
  5  9  1  0  0  0  0
  6 14  3  0  0  0  0
  8  9  1  0  0  0  0
  8 10  2  0  0  0  0
  8 11  1  0  0  0  0
 11 13  2  0  0  0  0
 13 14  1  0  0  0  0
M  END
> <PUBCHEM_COMPOUND_ID_TYPE>
0

> <PUBCHEM_TOTAL_CHARGE>
0

> <PUBCHEM_SUBSTANCE_ID>
310942457

> <PUBCHEM_SUBSTANCE_VERSION>
1

> <PUBCHEM_EXT_DATASOURCE_NAME>
4488

> <PUBCHEM_EXT_DATASOURCE_REGID>
SCHEMBL16120493

> <PUBCHEM_SUBSTANCE_COMMENT>
InChI=1S/C8H8N4OS/c1-14(13)8-11-5-6(3-2-4-9)7(10)12-8/h2-3,5H,1H3,(H2,10,11,12)/b3-2+
InChIKey=AVZQWZHBNXQHRO-NSCUHMNNSA-N

> <PUBCHEM_SUBSTANCE_SYNONYM>
SCHEMBL16120493

> <PUBCHEM_XREF_EXT_ID>
SCHEMBL16120493

> <PUBCHEM_EXT_DATASOURCE_URL>
https://www.surechembl.org/

> <PUBCHEM_EXT_SUBSTANCE_URL>
https://www.surechembl.org/chemical/SCHEMBL16120493

> <PUBCHEM_CID_ASSOCIATIONS>
90466935  1

> <PUBCHEM_COORDINATE_TYPE>
1
3

$$$$
