310930842
  -OEChem-07211613022D

 23 24  0     1  0  0  0  0  0999 V2000
    2.1608    0.0000    0.0000 Cl  0  0  0  0  0  0  0  0  0  0  0  0
    2.8679   -6.2073    0.0000 O   0  0  0  0  0  0  0  0  0  0  0  0
    3.6143   -3.3001    0.0000 O   0  0  0  0  0  0  0  0  0  0  0  0
    1.4536   -6.2073    0.0000 O   0  0  0  0  0  0  0  0  0  0  0  0
    0.0000   -3.7322    0.0000 O   0  0  0  0  0  0  0  0  0  0  0  0
    2.1608   -3.3001    0.0000 N   0  0  0  0  0  0  0  0  0  0  0  0
    2.1608   -4.9894    0.0000 N   0  0  0  0  0  0  0  0  0  0  0  0
    1.4536   -3.7322    0.0000 C   0  0  3  0  0  0  0  0  0  0  0  0
    2.8679   -3.7322    0.0000 C   0  0  0  0  0  0  0  0  0  0  0  0
    2.1608   -2.4751    0.0000 C   0  0  0  0  0  0  0  0  0  0  0  0
    1.4536   -4.5572    0.0000 C   0  0  0  0  0  0  0  0  0  0  0  0
    2.8679   -4.5572    0.0000 C   0  0  0  0  0  0  0  0  0  0  0  0
    2.1608   -5.8144    0.0000 C   0  0  0  0  0  0  0  0  0  0  0  0
    1.4536   -2.0822    0.0000 C   0  0  0  0  0  0  0  0  0  0  0  0
    2.8679   -2.0822    0.0000 C   0  0  0  0  0  0  0  0  0  0  0  0
    0.7072   -3.3001    0.0000 C   0  0  0  0  0  0  0  0  0  0  0  0
    2.8679   -7.0323    0.0000 C   0  0  0  0  0  0  0  0  0  0  0  0
    1.4536   -1.2572    0.0000 C   0  0  0  0  0  0  0  0  0  0  0  0
    2.8679   -1.2572    0.0000 C   0  0  0  0  0  0  0  0  0  0  0  0
    2.1608   -0.8250    0.0000 C   0  0  0  0  0  0  0  0  0  0  0  0
    2.0429   -7.0323    0.0000 C   0  0  0  0  0  0  0  0  0  0  0  0
    2.8679   -7.8573    0.0000 C   0  0  0  0  0  0  0  0  0  0  0  0
    3.6930   -7.0323    0.0000 C   0  0  0  0  0  0  0  0  0  0  0  0
  1 20  1  0  0  0  0
  2 13  1  0  0  0  0
  2 17  1  0  0  0  0
  3  9  2  0  0  0  0
  4 13  2  0  0  0  0
  5 16  1  0  0  0  0
  6  8  1  0  0  0  0
  6  9  1  0  0  0  0
  6 10  1  0  0  0  0
  7 11  1  0  0  0  0
  7 12  1  0  0  0  0
  7 13  1  0  0  0  0
  8 11  1  0  0  0  0
  8 16  1  0  0  0  0
  9 12  1  0  0  0  0
 10 14  2  0  0  0  0
 10 15  1  0  0  0  0
 14 18  1  0  0  0  0
 15 19  2  0  0  0  0
 17 21  1  0  0  0  0
 17 22  1  0  0  0  0
 17 23  1  0  0  0  0
 18 20  2  0  0  0  0
 19 20  1  0  0  0  0
M  END
> <PUBCHEM_COMPOUND_ID_TYPE>
0

> <PUBCHEM_TOTAL_CHARGE>
0

> <PUBCHEM_SUBSTANCE_ID>
310930842

> <PUBCHEM_SUBSTANCE_VERSION>
1

> <PUBCHEM_EXT_DATASOURCE_NAME>
4488

> <PUBCHEM_EXT_DATASOURCE_REGID>
SCHEMBL16108139

> <PUBCHEM_SUBSTANCE_COMMENT>
InChI=1S/C16H21ClN2O4/c1-16(2,3)23-15(22)18-8-13(10-20)19(14(21)9-18)12-6-4-11(17)5-7-12/h4-7,13,20H,8-10H2,1-3H3
InChIKey=LJNUMMBNJMDHPL-UHFFFAOYSA-N

> <PUBCHEM_SUBSTANCE_SYNONYM>
SCHEMBL16108139

> <PUBCHEM_XREF_EXT_ID>
SCHEMBL16108139

> <PUBCHEM_EXT_DATASOURCE_URL>
https://www.surechembl.org/

> <PUBCHEM_EXT_SUBSTANCE_URL>
https://www.surechembl.org/chemical/SCHEMBL16108139

> <PUBCHEM_CID_ASSOCIATIONS>
117599836  1

> <PUBCHEM_COORDINATE_TYPE>
1
3

$$$$
