310930373
  -OEChem-07211613022D

 27 30  0     1  0  0  0  0  0999 V2000
    6.3564   -0.8835    0.0000 F   0  0  0  0  0  0  0  0  0  0  0  0
    4.4911   -4.9084    0.0000 O   0  0  0  0  0  0  0  0  0  0  0  0
    0.4172   -1.6197    0.0000 O   0  0  0  0  0  0  0  0  0  0  0  0
    3.6322    0.0000    0.0000 O   0  0  0  0  0  0  0  0  0  0  0  0
    4.7121   -3.4604    0.0000 N   0  0  0  0  0  0  0  0  0  0  0  0
    0.0000   -2.3315    0.0000 N   0  0  0  0  0  0  0  0  0  0  0  0
    3.4359   -3.0432    0.0000 C   0  0  0  0  0  0  0  0  0  0  0  0
    4.2212   -2.7978    0.0000 C   0  0  3  0  0  0  0  0  0  0  0  0
    3.4359   -3.8776    0.0000 C   0  0  0  0  0  0  0  0  0  0  0  0
    4.2212   -4.1230    0.0000 C   0  0  0  0  0  0  0  0  0  0  0  0
    4.4911   -2.0124    0.0000 C   0  0  0  0  0  0  0  0  0  0  0  0
    2.0370   -3.0432    0.0000 C   0  0  0  0  0  0  0  0  0  0  0  0
    2.7242   -2.6260    0.0000 C   0  0  0  0  0  0  0  0  0  0  0  0
    1.3253   -2.6260    0.0000 C   0  0  0  0  0  0  0  0  0  0  0  0
    2.7242   -4.2948    0.0000 C   0  0  0  0  0  0  0  0  0  0  0  0
    2.0370   -3.8776    0.0000 C   0  0  0  0  0  0  0  0  0  0  0  0
    3.9267   -1.3989    0.0000 C   0  0  0  0  0  0  0  0  0  0  0  0
    1.2271   -1.7916    0.0000 C   0  0  0  0  0  0  0  0  0  0  0  0
    0.5645   -2.9450    0.0000 C   0  0  0  0  0  0  0  0  0  0  0  0
    5.3010   -1.8407    0.0000 C   0  0  0  0  0  0  0  0  0  0  0  0
    5.5465   -3.4604    0.0000 C   0  0  0  0  0  0  0  0  0  0  0  0
    4.1967   -0.6136    0.0000 C   0  0  0  0  0  0  0  0  0  0  0  0
    5.5465   -1.0553    0.0000 C   0  0  0  0  0  0  0  0  0  0  0  0
    5.0065   -0.4418    0.0000 C   0  0  0  0  0  0  0  0  0  0  0  0
    1.8407   -1.2517    0.0000 C   0  0  0  0  0  0  0  0  0  0  0  0
    0.3927   -3.7549    0.0000 C   0  0  0  0  0  0  0  0  0  0  0  0
    2.8223   -0.1718    0.0000 C   0  0  0  0  0  0  0  0  0  0  0  0
  1 23  1  0  0  0  0
  2 10  2  0  0  0  0
  3  6  1  0  0  0  0
  3 18  1  0  0  0  0
  4 22  1  0  0  0  0
  4 27  1  0  0  0  0
  5  8  1  0  0  0  0
  5 10  1  0  0  0  0
  5 21  1  0  0  0  0
  6 19  2  0  0  0  0
  7  8  1  0  0  0  0
  7  9  2  0  0  0  0
  7 13  1  0  0  0  0
  8 11  1  0  0  0  0
  9 10  1  0  0  0  0
  9 15  1  0  0  0  0
 11 17  2  0  0  0  0
 11 20  1  0  0  0  0
 12 13  2  0  0  0  0
 12 14  1  0  0  0  0
 12 16  1  0  0  0  0
 14 18  2  0  0  0  0
 14 19  1  0  0  0  0
 15 16  2  0  0  0  0
 17 22  1  0  0  0  0
 18 25  1  0  0  0  0
 19 26  1  0  0  0  0
 20 23  2  0  0  0  0
 22 24  2  0  0  0  0
 23 24  1  0  0  0  0
M  END
> <PUBCHEM_COMPOUND_ID_TYPE>
0

> <PUBCHEM_TOTAL_CHARGE>
0

> <PUBCHEM_SUBSTANCE_ID>
310930373

> <PUBCHEM_SUBSTANCE_VERSION>
1

> <PUBCHEM_EXT_DATASOURCE_NAME>
4488

> <PUBCHEM_EXT_DATASOURCE_REGID>
SCHEMBL16107658

> <PUBCHEM_SUBSTANCE_COMMENT>
InChI=1S/C21H19FN2O3/c1-11-19(12(2)27-23-11)13-5-6-17-18(9-13)20(24(3)21(17)25)14-7-15(22)10-16(8-14)26-4/h5-10,20H,1-4H3
InChIKey=YPVQISJFDKOJML-UHFFFAOYSA-N

> <PUBCHEM_SUBSTANCE_SYNONYM>
SCHEMBL16107658

> <PUBCHEM_XREF_EXT_ID>
SCHEMBL16107658

> <PUBCHEM_EXT_DATASOURCE_URL>
https://www.surechembl.org/

> <PUBCHEM_EXT_SUBSTANCE_URL>
https://www.surechembl.org/chemical/SCHEMBL16107658

> <PUBCHEM_CID_ASSOCIATIONS>
86295259  1

> <PUBCHEM_COORDINATE_TYPE>
1
3

$$$$
