310945454
  -OEChem-07211613022D

 43 46  0     1  0  0  0  0  0999 V2000
    0.0136    2.7178    0.0000 F   0  0  0  0  0  0  0  0  0  0  0  0
    0.7320    3.1245    0.0000 F   0  0  0  0  0  0  0  0  0  0  0  0
    1.4504    2.7178    0.0000 F   0  0  0  0  0  0  0  0  0  0  0  0
   -5.0290   -0.0474    0.0000 F   0  0  0  0  0  0  0  0  0  0  0  0
   -5.0290    1.3623    0.0000 F   0  0  0  0  0  0  0  0  0  0  0  0
   -4.1886    1.3623    0.0000 F   0  0  0  0  0  0  0  0  0  0  0  0
    4.3106   -0.5626    0.0000 F   0  0  0  0  0  0  0  0  0  0  0  0
    5.0290   -0.9556    0.0000 F   0  0  0  0  0  0  0  0  0  0  0  0
    4.3106   -2.1892    0.0000 F   0  0  0  0  0  0  0  0  0  0  0  0
   -2.1146    2.0672    0.0000 O   0  0  0  0  0  0  0  0  0  0  0  0
   -0.7456   -2.1756    0.0000 O   0  0  0  0  0  0  0  0  0  0  0  0
    0.3254   -1.2268    0.0000 O   0  0  0  0  0  0  0  0  0  0  0  0
   -0.7862   -0.0068    0.0000 N   0  0  3  0  0  0  0  0  0  0  0  0
   -0.7998    1.3216    0.0000 N   0  0  0  0  0  0  0  0  0  0  0  0
    0.7320   -0.1559    0.0000 N   0  0  0  0  0  0  0  0  0  0  0  0
    1.4504    1.0776    0.0000 N   0  0  0  0  0  0  0  0  0  0  0  0
   -1.2878   -0.7794    0.0000 N   0  0  0  0  0  0  0  0  0  0  0  0
    2.8873   -1.3894    0.0000 N   0  0  0  0  0  0  0  0  0  0  0  0
    0.0000    1.0506    0.0000 C   0  0  0  0  0  0  0  0  0  0  0  0
    0.0000    0.2508    0.0000 C   0  0  0  0  0  0  0  0  0  0  0  0
   -1.2742    0.6438    0.0000 C   0  0  3  0  0  0  0  0  0  0  0  0
    0.7048    1.4843    0.0000 C   0  0  0  0  0  0  0  0  0  0  0  0
   -2.1146    0.6710    0.0000 C   0  0  0  0  0  0  0  0  0  0  0  0
    1.4368    0.2508    0.0000 C   0  0  0  0  0  0  0  0  0  0  0  0
    0.7184    2.3112    0.0000 C   0  0  0  0  0  0  0  0  0  0  0  0
   -2.5213    1.3758    0.0000 C   0  0  0  0  0  0  0  0  0  0  0  0
    2.1688   -0.1559    0.0000 C   0  0  0  0  0  0  0  0  0  0  0  0
   -2.5213   -0.0339    0.0000 C   0  0  0  0  0  0  0  0  0  0  0  0
   -3.7684    0.6574    0.0000 C   0  0  0  0  0  0  0  0  0  0  0  0
   -3.3482    1.3488    0.0000 C   0  0  0  0  0  0  0  0  0  0  0  0
   -0.5016   -1.3894    0.0000 C   0  0  0  0  0  0  0  0  0  0  0  0
   -3.3482   -0.0474    0.0000 C   0  0  0  0  0  0  0  0  0  0  0  0
    2.1688   -0.9692    0.0000 C   0  0  0  0  0  0  0  0  0  0  0  0
    2.8737    0.2508    0.0000 C   0  0  0  0  0  0  0  0  0  0  0  0
   -4.5952    0.6710    0.0000 C   0  0  0  0  0  0  0  0  0  0  0  0
    3.5921   -0.9692    0.0000 C   0  0  0  0  0  0  0  0  0  0  0  0
    3.5921   -0.1424    0.0000 C   0  0  0  0  0  0  0  0  0  0  0  0
    4.3106   -1.3758    0.0000 C   0  0  0  0  0  0  0  0  0  0  0  0
   -1.5453   -2.3247    0.0000 C   0  0  0  0  0  0  0  0  0  0  0  0
   -2.3315    2.8534    0.0000 C   0  0  0  0  0  0  0  0  0  0  0  0
   -1.3013   -1.5656    0.0000 C   0  0  0  0  0  0  0  0  0  0  0  0
   -2.1146   -1.7283    0.0000 C   0  0  0  0  0  0  0  0  0  0  0  0
   -1.7893   -3.1245    0.0000 C   0  0  0  0  0  0  0  0  0  0  0  0
  1 25  1  0  0  0  0
  2 25  1  0  0  0  0
  3 25  1  0  0  0  0
  4 35  1  0  0  0  0
  5 35  1  0  0  0  0
  6 35  1  0  0  0  0
  7 38  1  0  0  0  0
  8 38  1  0  0  0  0
  9 38  1  0  0  0  0
 10 26  1  0  0  0  0
 10 40  1  0  0  0  0
 11 31  1  0  0  0  0
 11 39  1  0  0  0  0
 12 31  2  0  0  0  0
 13 17  1  0  0  0  0
 13 20  1  0  0  0  0
 13 21  1  0  0  0  0
 14 19  1  0  0  0  0
 14 21  1  0  0  0  0
 15 20  1  0  0  0  0
 15 24  2  0  0  0  0
 16 22  2  0  0  0  0
 16 24  1  0  0  0  0
 17 31  1  0  0  0  0
 18 33  1  0  0  0  0
 18 36  2  0  0  0  0
 19 20  2  0  0  0  0
 19 22  1  0  0  0  0
 21 23  1  0  0  0  0
 22 25  1  0  0  0  0
 23 26  2  0  0  0  0
 23 28  1  0  0  0  0
 24 27  1  0  0  0  0
 26 30  1  0  0  0  0
 27 33  2  0  0  0  0
 27 34  1  0  0  0  0
 28 32  2  0  0  0  0
 29 30  2  0  0  0  0
 29 32  1  0  0  0  0
 29 35  1  0  0  0  0
 34 37  2  0  0  0  0
 36 37  1  0  0  0  0
 36 38  1  0  0  0  0
 39 41  1  0  0  0  0
 39 42  1  0  0  0  0
 39 43  1  0  0  0  0
M  END
> <PUBCHEM_COMPOUND_ID_TYPE>
0

> <PUBCHEM_TOTAL_CHARGE>
0

> <PUBCHEM_SUBSTANCE_ID>
310945454

> <PUBCHEM_SUBSTANCE_VERSION>
1

> <PUBCHEM_EXT_DATASOURCE_NAME>
4488

> <PUBCHEM_EXT_DATASOURCE_REGID>
SCHEMBL16123552

> <PUBCHEM_SUBSTANCE_COMMENT>
InChI=1S/C25H21F9N6O3/c1-22(2,3)43-21(41)39-40-19(13-7-6-12(23(26,27)28)9-14(13)42-4)36-16-17(25(32,33)34)37-18(38-20(16)40)11-5-8-15(35-10-11)24(29,30)31/h5-10,19,36H,1-4H3,(H,39,41)
InChIKey=HTHWVKCFYNLYBQ-UHFFFAOYSA-N

> <PUBCHEM_SUBSTANCE_SYNONYM>
SCHEMBL16123552

> <PUBCHEM_XREF_EXT_ID>
SCHEMBL16123552

> <PUBCHEM_EXT_DATASOURCE_URL>
https://www.surechembl.org/

> <PUBCHEM_EXT_SUBSTANCE_URL>
https://www.surechembl.org/chemical/SCHEMBL16123552

> <PUBCHEM_CID_ASSOCIATIONS>
117611499  1

> <PUBCHEM_COORDINATE_TYPE>
1
3

$$$$
