310936632
  -OEChem-07211613022D

 25 25  0     1  0  0  0  0  0999 V2000
    1.4438   -3.3229    0.0000 O   0  0  0  0  0  0  0  0  0  0  0  0
    2.8875   -1.6729    0.0000 O   0  0  0  0  0  0  0  0  0  0  0  0
    2.1542   -2.0854    0.0000 O   0  0  0  0  0  0  0  0  0  0  0  0
    4.3084   -1.6729    0.0000 O   0  0  0  0  0  0  0  0  0  0  0  0
    5.0417   -2.0854    0.0000 O   0  0  0  0  0  0  0  0  0  0  0  0
    5.7521   -3.3229    0.0000 O   0  0  0  0  0  0  0  0  0  0  0  0
    2.1542   -3.7584    0.0000 N   0  0  0  0  0  0  0  0  0  0  0  0
    2.1542   -4.5834    0.0000 N   0  0  0  0  0  0  0  0  0  0  0  0
    2.8875   -3.3229    0.0000 C   0  0  3  0  0  0  0  0  0  0  0  0
    3.5980   -2.9104    0.0000 C   0  0  3  0  0  0  0  0  0  0  0  0
    2.8875   -4.1709    0.0000 C   0  0  0  0  0  0  0  0  0  0  0  0
    4.3084   -3.3229    0.0000 C   0  0  0  0  0  0  0  0  0  0  0  0
    2.1542   -2.9104    0.0000 C   0  0  0  0  0  0  0  0  0  0  0  0
    3.5980   -2.0854    0.0000 C   0  0  0  0  0  0  0  0  0  0  0  0
    3.5980   -4.5834    0.0000 C   0  0  0  0  0  0  0  0  0  0  0  0
    4.3084   -4.1709    0.0000 C   0  0  0  0  0  0  0  0  0  0  0  0
    5.0417   -2.9104    0.0000 C   0  0  0  0  0  0  0  0  0  0  0  0
    0.7104   -2.8875    0.0000 C   0  0  0  0  0  0  0  0  0  0  0  0
    2.8875   -0.8250    0.0000 C   0  0  0  0  0  0  0  0  0  0  0  0
    1.1459   -2.2000    0.0000 C   0  0  0  0  0  0  0  0  0  0  0  0
    0.2979   -3.6209    0.0000 C   0  0  0  0  0  0  0  0  0  0  0  0
    0.0000   -2.4979    0.0000 C   0  0  0  0  0  0  0  0  0  0  0  0
    3.7354   -0.8479    0.0000 C   0  0  0  0  0  0  0  0  0  0  0  0
    2.0625   -0.8250    0.0000 C   0  0  0  0  0  0  0  0  0  0  0  0
    2.8875    0.0000    0.0000 C   0  0  0  0  0  0  0  0  0  0  0  0
  1 13  1  0  0  0  0
  1 18  1  0  0  0  0
  2 14  1  0  0  0  0
  2 19  1  0  0  0  0
  3 13  2  0  0  0  0
  4 14  2  0  0  0  0
  5 17  2  0  0  0  0
  6 17  1  0  0  0  0
  7  9  1  0  0  0  0
  8 11  1  0  0  0  0
  9 10  1  0  0  0  0
  9 11  1  0  0  0  0
  9 13  1  0  0  0  0
 10 12  1  0  0  0  0
 10 14  1  0  0  0  0
 11 15  2  0  0  0  0
 12 16  2  0  0  0  0
 12 17  1  0  0  0  0
 15 16  1  0  0  0  0
 18 20  1  0  0  0  0
 18 21  1  0  0  0  0
 18 22  1  0  0  0  0
 19 23  1  0  0  0  0
 19 24  1  0  0  0  0
 19 25  1  0  0  0  0
M  END
> <PUBCHEM_COMPOUND_ID_TYPE>
0

> <PUBCHEM_TOTAL_CHARGE>
0

> <PUBCHEM_SUBSTANCE_ID>
310936632

> <PUBCHEM_SUBSTANCE_VERSION>
1

> <PUBCHEM_EXT_DATASOURCE_NAME>
4488

> <PUBCHEM_EXT_DATASOURCE_REGID>
SCHEMBL16114292

> <PUBCHEM_SUBSTANCE_COMMENT>
InChI=1S/C17H26N2O6/c1-15(2,3)24-13(22)11-9(12(20)21)7-8-10(18)17(11,19)14(23)25-16(4,5)6/h7-8,11H,18-19H2,1-6H3,(H,20,21)
InChIKey=YDOFZRJXSCZEKU-UHFFFAOYSA-N

> <PUBCHEM_SUBSTANCE_SYNONYM>
SCHEMBL16114292

> <PUBCHEM_XREF_EXT_ID>
SCHEMBL16114292

> <PUBCHEM_EXT_DATASOURCE_URL>
https://www.surechembl.org/

> <PUBCHEM_EXT_SUBSTANCE_URL>
https://www.surechembl.org/chemical/SCHEMBL16114292

> <PUBCHEM_CID_ASSOCIATIONS>
117604547  1

> <PUBCHEM_COORDINATE_TYPE>
1
3

$$$$
