310931628
  -OEChem-07211613022D

 22 25  0     1  0  0  0  0  0999 V2000
    3.2860    0.0000    0.0000 O   0  0  0  0  0  0  0  0  0  0  0  0
    4.4142   -1.9597    0.0000 O   0  0  0  0  0  0  0  0  0  0  0  0
    5.1269   -0.7126    0.0000 O   0  0  0  0  0  0  0  0  0  0  0  0
    3.7016   -0.7126    0.0000 C   0  0  3  0  0  0  0  0  0  0  0  0
    2.8702   -0.7126    0.0000 C   0  0  3  0  0  0  0  0  0  0  0  0
    3.4839   -1.5242    0.0000 C   0  0  0  0  0  0  0  0  0  0  0  0
    4.4142   -1.1283    0.0000 C   0  0  0  0  0  0  0  0  0  0  0  0
    2.1576   -1.1283    0.0000 C   0  0  0  0  0  0  0  0  0  0  0  0
    4.0777   -2.1181    0.0000 C   0  0  0  0  0  0  0  0  0  0  0  0
    2.6921   -1.7419    0.0000 C   0  0  0  0  0  0  0  0  0  0  0  0
    2.1576   -1.9597    0.0000 C   0  0  0  0  0  0  0  0  0  0  0  0
    1.4450   -0.7324    0.0000 C   0  0  0  0  0  0  0  0  0  0  0  0
    5.1269   -2.3754    0.0000 C   0  0  0  0  0  0  0  0  0  0  0  0
    3.8600   -2.9098    0.0000 C   0  0  0  0  0  0  0  0  0  0  0  0
    2.4744   -2.5337    0.0000 C   0  0  0  0  0  0  0  0  0  0  0  0
    5.9384   -2.3754    0.0000 C   0  0  0  0  0  0  0  0  0  0  0  0
    5.5623   -3.1078    0.0000 C   0  0  0  0  0  0  0  0  0  0  0  0
    1.4450   -2.3754    0.0000 C   0  0  0  0  0  0  0  0  0  0  0  0
    0.7324   -1.1283    0.0000 C   0  0  0  0  0  0  0  0  0  0  0  0
    0.7324   -1.9597    0.0000 C   0  0  0  0  0  0  0  0  0  0  0  0
    3.0682   -3.1276    0.0000 C   0  0  0  0  0  0  0  0  0  0  0  0
    0.0000   -2.3754    0.0000 C   0  0  0  0  0  0  0  0  0  0  0  0
  1  4  1  0  0  0  0
  1  5  1  0  0  0  0
  2  7  1  0  0  0  0
  2 13  1  0  0  0  0
  3  7  2  0  0  0  0
  4  5  1  0  0  0  0
  4  6  1  0  0  0  0
  4  7  1  0  0  0  0
  5  8  1  0  0  0  0
  6  9  2  0  0  0  0
  6 10  1  0  0  0  0
  8 11  2  0  0  0  0
  8 12  1  0  0  0  0
  9 14  1  0  0  0  0
 10 15  2  0  0  0  0
 11 18  1  0  0  0  0
 12 19  2  0  0  0  0
 13 16  1  0  0  0  0
 13 17  1  0  0  0  0
 14 21  2  0  0  0  0
 15 21  1  0  0  0  0
 16 17  1  0  0  0  0
 18 20  2  0  0  0  0
 19 20  1  0  0  0  0
 20 22  1  0  0  0  0
M  END
> <PUBCHEM_COMPOUND_ID_TYPE>
0

> <PUBCHEM_TOTAL_CHARGE>
0

> <PUBCHEM_SUBSTANCE_ID>
310931628

> <PUBCHEM_SUBSTANCE_VERSION>
1

> <PUBCHEM_EXT_DATASOURCE_NAME>
4488

> <PUBCHEM_EXT_DATASOURCE_REGID>
SCHEMBL16108954

> <PUBCHEM_SUBSTANCE_COMMENT>
InChI=1S/C19H18O3/c1-13-7-9-14(10-8-13)17-19(22-17,15-5-3-2-4-6-15)18(20)21-16-11-12-16/h2-10,16-17H,11-12H2,1H3
InChIKey=PGVCYTINIDKRNE-UHFFFAOYSA-N

> <PUBCHEM_SUBSTANCE_SYNONYM>
SCHEMBL16108954

> <PUBCHEM_XREF_EXT_ID>
SCHEMBL16108954

> <PUBCHEM_EXT_DATASOURCE_URL>
https://www.surechembl.org/

> <PUBCHEM_EXT_SUBSTANCE_URL>
https://www.surechembl.org/chemical/SCHEMBL16108954

> <PUBCHEM_CID_ASSOCIATIONS>
117600345  1

> <PUBCHEM_COORDINATE_TYPE>
1
3

$$$$
