310938670
  -OEChem-07211613022D

 20 19  0     1  0  0  0  0  0999 V2000
    0.6173    4.0960    0.0000 Cl  0  0  0  0  0  0  0  0  0  0  0  0
   -0.8117    4.0960    0.0000 Cl  0  0  0  0  0  0  0  0  0  0  0  0
    2.0462    4.0960    0.0000 Cl  0  0  0  0  0  0  0  0  0  0  0  0
   -2.2406    4.0960    0.0000 Cl  0  0  0  0  0  0  0  0  0  0  0  0
    3.4752    4.0960    0.0000 Cl  0  0  0  0  0  0  0  0  0  0  0  0
   -3.6695    4.0960    0.0000 Cl  0  0  0  0  0  0  0  0  0  0  0  0
    0.6173    3.2710    0.0000 C   0  0  3  0  0  0  0  0  0  0  0  0
   -0.8117    3.2710    0.0000 C   0  0  3  0  0  0  0  0  0  0  0  0
   -0.0972    2.8585    0.0000 C   0  0  0  0  0  0  0  0  0  0  0  0
    2.0462    3.2710    0.0000 C   0  0  3  0  0  0  0  0  0  0  0  0
    1.3318    2.8585    0.0000 C   0  0  0  0  0  0  0  0  0  0  0  0
   -1.5261    2.8585    0.0000 C   0  0  0  0  0  0  0  0  0  0  0  0
   -2.2406    3.2710    0.0000 C   0  0  3  0  0  0  0  0  0  0  0  0
    2.7607    2.8585    0.0000 C   0  0  0  0  0  0  0  0  0  0  0  0
    3.4752    3.2710    0.0000 C   0  0  3  0  0  0  0  0  0  0  0  0
   -2.9551    2.8585    0.0000 C   0  0  0  0  0  0  0  0  0  0  0  0
   -3.6695    3.2710    0.0000 C   0  0  3  0  0  0  0  0  0  0  0  0
    4.1896    2.8585    0.0000 C   0  0  0  0  0  0  0  0  0  0  0  0
   -4.5774    2.7618    0.0000 C   0  0  0  0  0  0  0  0  0  0  0  0
    5.1555    3.4450    0.0000 C   0  0  0  0  0  0  0  0  0  0  0  0
  1  7  1  0  0  0  0
  2  8  1  0  0  0  0
  3 10  1  0  0  0  0
  4 13  1  0  0  0  0
  5 15  1  0  0  0  0
  6 17  1  0  0  0  0
  7  9  1  0  0  0  0
  7 11  1  0  0  0  0
  8  9  1  0  0  0  0
  8 12  1  0  0  0  0
 10 11  1  0  0  0  0
 10 14  1  0  0  0  0
 12 13  1  0  0  0  0
 13 16  1  0  0  0  0
 14 15  1  0  0  0  0
 15 18  1  0  0  0  0
 16 17  1  0  0  0  0
 17 19  1  0  0  0  0
 18 20  1  0  0  0  0
M  END
> <PUBCHEM_COMPOUND_ID_TYPE>
0

> <PUBCHEM_TOTAL_CHARGE>
0

> <PUBCHEM_SUBSTANCE_ID>
310938670

> <PUBCHEM_SUBSTANCE_VERSION>
1

> <PUBCHEM_EXT_DATASOURCE_NAME>
4488

> <PUBCHEM_EXT_DATASOURCE_REGID>
SCHEMBL16116584

> <PUBCHEM_SUBSTANCE_COMMENT>
InChI=1S/C14H24Cl6/c1-3-10(16)5-12(18)7-14(20)8-13(19)6-11(17)4-9(2)15/h9-14H,3-8H2,1-2H3
InChIKey=OXWPMBYBCLTTEK-UHFFFAOYSA-N

> <PUBCHEM_SUBSTANCE_SYNONYM>
SCHEMBL16116584

> <PUBCHEM_XREF_EXT_ID>
SCHEMBL16116584

> <PUBCHEM_EXT_DATASOURCE_URL>
https://www.surechembl.org/

> <PUBCHEM_EXT_SUBSTANCE_URL>
https://www.surechembl.org/chemical/SCHEMBL16116584

> <PUBCHEM_CID_ASSOCIATIONS>
117606102  1

> <PUBCHEM_COORDINATE_TYPE>
1
3

$$$$
