310945829
  -OEChem-07211613022D

 38 40  0     1  0  0  0  0  0999 V2000
    5.1742    0.9809    0.0000 O   0  0  0  0  0  0  0  0  0  0  0  0
    4.0412   -0.9809    0.0000 O   0  0  0  0  0  0  0  0  0  0  0  0
    1.6787    0.9671    0.0000 O   0  0  0  0  0  0  0  0  0  0  0  0
   -0.4767   -1.1053    0.0000 O   0  0  0  0  0  0  0  0  0  0  0  0
    3.8202   -2.7494    0.0000 O   0  0  0  0  0  0  0  0  0  0  0  0
   -2.6320    0.9671    0.0000 O   0  0  0  0  0  0  0  0  0  0  0  0
   -4.0689    0.1382    0.0000 O   0  0  0  0  0  0  0  0  0  0  0  0
    2.3971   -0.2625    0.0000 N   0  0  0  0  0  0  0  0  0  0  0  0
    0.2418    0.1382    0.0000 N   0  0  0  0  0  0  0  0  0  0  0  0
   -1.9135   -0.2625    0.0000 N   0  0  0  0  0  0  0  0  0  0  0  0
    4.7596    0.3040    0.0000 C   0  0  3  0  0  0  0  0  0  0  0  0
    4.0550   -0.0967    0.0000 C   0  0  0  0  0  0  0  0  0  0  0  0
    4.3728    0.9947    0.0000 C   0  0  0  0  0  0  0  0  0  0  0  0
    3.3366    0.2901    0.0000 C   0  0  3  0  0  0  0  0  0  0  0  0
    5.5057   -0.1243    0.0000 C   0  0  0  0  0  0  0  0  0  0  0  0
    3.3366    1.3540    0.0000 C   0  0  0  0  0  0  0  0  0  0  0  0
    1.6648    0.1520    0.0000 C   0  0  0  0  0  0  0  0  0  0  0  0
    0.9741   -0.2349    0.0000 C   0  0  3  0  0  0  0  0  0  0  0  0
    2.6043    1.7961    0.0000 C   0  0  0  0  0  0  0  0  0  0  0  0
    0.9602   -1.0776    0.0000 C   0  0  0  0  0  0  0  0  0  0  0  0
    1.6925   -1.4783    0.0000 C   0  0  0  0  0  0  0  0  0  0  0  0
   -0.4628   -0.2210    0.0000 C   0  0  0  0  0  0  0  0  0  0  0  0
    1.8444    1.4645    0.0000 C   0  0  0  0  0  0  0  0  0  0  0  0
    2.5214    2.5836    0.0000 C   0  0  0  0  0  0  0  0  0  0  0  0
   -1.1951    0.1658    0.0000 C   0  0  3  0  0  0  0  0  0  0  0  0
    1.6925   -2.3073    0.0000 C   0  0  0  0  0  0  0  0  0  0  0  0
    2.3833   -1.0915    0.0000 C   0  0  0  0  0  0  0  0  0  0  0  0
    1.3194    2.0448    0.0000 C   0  0  0  0  0  0  0  0  0  0  0  0
    1.7201    2.7494    0.0000 C   0  0  0  0  0  0  0  0  0  0  0  0
    3.1155   -2.3073    0.0000 C   0  0  0  0  0  0  0  0  0  0  0  0
    2.3971   -2.7218    0.0000 C   0  0  0  0  0  0  0  0  0  0  0  0
    3.1155   -1.4922    0.0000 C   0  0  0  0  0  0  0  0  0  0  0  0
   -2.6320    0.1520    0.0000 C   0  0  0  0  0  0  0  0  0  0  0  0
   -1.1951    0.9947    0.0000 C   0  0  0  0  0  0  0  0  0  0  0  0
   -3.3504   -0.2349    0.0000 C   0  0  0  0  0  0  0  0  0  0  0  0
    4.5386   -2.3073    0.0000 C   0  0  0  0  0  0  0  0  0  0  0  0
   -4.7596   -0.2349    0.0000 C   0  0  0  0  0  0  0  0  0  0  0  0
   -5.5057    0.1520    0.0000 C   0  0  0  0  0  0  0  0  0  0  0  0
  1 11  1  0  0  0  0
  1 13  1  0  0  0  0
  2 12  2  0  0  0  0
  3 17  2  0  0  0  0
  4 22  2  0  0  0  0
  5 30  1  0  0  0  0
  5 36  1  0  0  0  0
  6 33  2  0  0  0  0
  7 35  1  0  0  0  0
  7 37  1  0  0  0  0
  8 14  1  0  0  0  0
  8 17  1  0  0  0  0
  9 18  1  0  0  0  0
  9 22  1  0  0  0  0
 10 25  1  0  0  0  0
 10 33  1  0  0  0  0
 11 12  1  0  0  0  0
 11 13  1  0  0  0  0
 11 15  1  0  0  0  0
 12 14  1  0  0  0  0
 14 16  1  0  0  0  0
 16 19  1  0  0  0  0
 17 18  1  0  0  0  0
 18 20  1  0  0  0  0
 19 23  1  0  0  0  0
 19 24  1  0  0  0  0
 20 21  1  0  0  0  0
 21 26  2  0  0  0  0
 21 27  1  0  0  0  0
 22 25  1  0  0  0  0
 23 28  1  0  0  0  0
 24 29  1  0  0  0  0
 25 34  1  0  0  0  0
 26 31  1  0  0  0  0
 27 32  2  0  0  0  0
 28 29  1  0  0  0  0
 30 31  2  0  0  0  0
 30 32  1  0  0  0  0
 33 35  1  0  0  0  0
 37 38  1  0  0  0  0
M  END
> <PUBCHEM_COMPOUND_ID_TYPE>
0

> <PUBCHEM_TOTAL_CHARGE>
0

> <PUBCHEM_SUBSTANCE_ID>
310945829

> <PUBCHEM_SUBSTANCE_VERSION>
1

> <PUBCHEM_EXT_DATASOURCE_NAME>
4488

> <PUBCHEM_EXT_DATASOURCE_REGID>
SCHEMBL16123934

> <PUBCHEM_SUBSTANCE_COMMENT>
InChI=1S/C28H41N3O7/c1-5-37-16-24(32)29-18(2)26(34)31-23(15-20-10-12-21(36-4)13-11-20)27(35)30-22(14-19-8-6-7-9-19)25(33)28(3)17-38-28/h10-13,18-19,22-23H,5-9,14-17H2,1-4H3,(H,29,32)(H,30,35)(H,31,34)
InChIKey=VJDQTUZHKCHFRE-UHFFFAOYSA-N

> <PUBCHEM_SUBSTANCE_SYNONYM>
SCHEMBL16123934

> <PUBCHEM_XREF_EXT_ID>
SCHEMBL16123934

> <PUBCHEM_EXT_DATASOURCE_URL>
https://www.surechembl.org/

> <PUBCHEM_EXT_SUBSTANCE_URL>
https://www.surechembl.org/chemical/SCHEMBL16123934

> <PUBCHEM_CID_ASSOCIATIONS>
117611815  1

> <PUBCHEM_COORDINATE_TYPE>
1
3

$$$$
