310936007
  -OEChem-07211613022D

 41 46  0     1  0  0  0  0  0999 V2000
    5.6843   -4.1977    0.0000 S   0  0  0  0  0  0  0  0  0  0  0  0
    4.0810    0.0000    0.0000 F   0  0  0  0  0  0  0  0  0  0  0  0
    4.5766   -0.6996    0.0000 F   0  0  0  0  0  0  0  0  0  0  0  0
    6.1507   -4.9556    0.0000 O   0  0  0  0  0  0  0  0  0  0  0  0
    5.3053   -3.4980    0.0000 O   0  0  0  0  0  0  0  0  0  0  0  0
    2.1571   -4.6057    0.0000 N   0  0  3  0  0  0  0  0  0  0  0  0
    2.8567   -1.7490    0.0000 N   0  0  3  0  0  0  0  0  0  0  0  0
    0.7288   -4.6057    0.0000 N   0  0  0  0  0  0  0  0  0  0  0  0
    0.0292   -3.3523    0.0000 N   0  0  0  0  0  0  0  0  0  0  0  0
    6.3839   -3.7896    0.0000 N   0  0  3  0  0  0  0  0  0  0  0  0
    4.2560   -1.7199    0.0000 N   0  0  0  0  0  0  0  0  0  0  0  0
    1.4575   -3.3523    0.0000 C   0  0  0  0  0  0  0  0  0  0  0  0
    1.4284   -4.1977    0.0000 C   0  0  0  0  0  0  0  0  0  0  0  0
    0.7288   -2.9442    0.0000 C   0  0  0  0  0  0  0  0  0  0  0  0
    2.1571   -2.1571    0.0000 C   0  0  0  0  0  0  0  0  0  0  0  0
    3.5855   -4.6057    0.0000 C   0  0  0  0  0  0  0  0  0  0  0  0
    2.1571   -2.9734    0.0000 C   0  0  0  0  0  0  0  0  0  0  0  0
    0.7288   -2.1571    0.0000 C   0  0  0  0  0  0  0  0  0  0  0  0
    4.9847   -4.6057    0.0000 C   0  0  0  0  0  0  0  0  0  0  0  0
    3.5855   -5.4220    0.0000 C   0  0  0  0  0  0  0  0  0  0  0  0
    2.8567   -4.1977    0.0000 C   0  0  0  0  0  0  0  0  0  0  0  0
    1.4284   -1.7490    0.0000 C   0  0  0  0  0  0  0  0  0  0  0  0
    4.2560   -4.1977    0.0000 C   0  0  0  0  0  0  0  0  0  0  0  0
    2.1571   -5.4220    0.0000 C   0  0  0  0  0  0  0  0  0  0  0  0
    2.8567   -5.8301    0.0000 C   0  0  0  0  0  0  0  0  0  0  0  0
    3.7313   -0.7579    0.0000 C   0  0  0  0  0  0  0  0  0  0  0  0
    2.9442   -0.9328    0.0000 C   0  0  0  0  0  0  0  0  0  0  0  0
    4.9847   -5.4220    0.0000 C   0  0  0  0  0  0  0  0  0  0  0  0
    4.2560   -5.8301    0.0000 C   0  0  0  0  0  0  0  0  0  0  0  0
    0.0000   -4.1977    0.0000 C   0  0  0  0  0  0  0  0  0  0  0  0
    3.6147   -2.0697    0.0000 C   0  0  0  0  0  0  0  0  0  0  0  0
    4.1685   -1.4575    0.0000 C   0  0  0  0  0  0  0  0  0  0  0  0
    0.0000   -1.7490    0.0000 C   0  0  0  0  0  0  0  0  0  0  0  0
    6.3839   -2.9734    0.0000 C   0  0  0  0  0  0  0  0  0  0  0  0
    5.6552   -2.5652    0.0000 C   0  0  0  0  0  0  0  0  0  0  0  0
    7.0835   -4.1977    0.0000 C   0  0  0  0  0  0  0  0  0  0  0  0
    5.6843   -1.7199    0.0000 C   0  0  0  0  0  0  0  0  0  0  0  0
    4.9556   -2.9734    0.0000 C   0  0  0  0  0  0  0  0  0  0  0  0
    4.9556   -1.3118    0.0000 C   0  0  0  0  0  0  0  0  0  0  0  0
    4.2560   -2.5361    0.0000 C   0  0  0  0  0  0  0  0  0  0  0  0
    3.5564   -1.3118    0.0000 C   0  0  0  0  0  0  0  0  0  0  0  0
  1  4  2  0  0  0  0
  1  5  2  0  0  0  0
  1 10  1  0  0  0  0
  1 19  1  0  0  0  0
  2 26  1  0  0  0  0
  3 26  1  0  0  0  0
  6 13  1  0  0  0  0
  6 21  1  0  0  0  0
  6 24  1  0  0  0  0
  7 15  1  0  0  0  0
  7 27  1  0  0  0  0
  7 31  1  0  0  0  0
  8 13  1  0  0  0  0
  8 30  2  0  0  0  0
  9 14  2  0  0  0  0
  9 30  1  0  0  0  0
 10 34  1  0  0  0  0
 10 36  1  0  0  0  0
 11 39  1  0  0  0  0
 11 40  1  0  0  0  0
 11 41  1  0  0  0  0
 12 13  2  0  0  0  0
 12 14  1  0  0  0  0
 12 17  1  0  0  0  0
 14 18  1  0  0  0  0
 15 17  2  0  0  0  0
 15 22  1  0  0  0  0
 16 20  2  0  0  0  0
 16 21  1  0  0  0  0
 16 23  1  0  0  0  0
 18 22  2  0  0  0  0
 18 33  1  0  0  0  0
 19 23  2  0  0  0  0
 19 28  1  0  0  0  0
 20 25  1  0  0  0  0
 20 29  1  0  0  0  0
 24 25  1  0  0  0  0
 26 27  1  0  0  0  0
 26 32  1  0  0  0  0
 28 29  2  0  0  0  0
 31 32  1  0  0  0  0
 34 35  1  0  0  0  0
 35 37  1  0  0  0  0
 35 38  1  0  0  0  0
 37 39  1  0  0  0  0
 38 40  1  0  0  0  0
M  END
> <PUBCHEM_COMPOUND_ID_TYPE>
0

> <PUBCHEM_TOTAL_CHARGE>
0

> <PUBCHEM_SUBSTANCE_ID>
310936007

> <PUBCHEM_SUBSTANCE_VERSION>
1

> <PUBCHEM_EXT_DATASOURCE_NAME>
4488

> <PUBCHEM_EXT_DATASOURCE_REGID>
SCHEMBL16113608

> <PUBCHEM_SUBSTANCE_COMMENT>
InChI=1S/C30H38F2N6O2S/c1-21-14-25(38-13-9-30(31,32)19-38)16-27-28(21)33-20-34-29(27)37-12-8-23-4-5-26(15-24(23)18-37)41(39,40)36(3)17-22-6-10-35(2)11-7-22/h4-5,14-16,20,22H,6-13,17-19H2,1-3H3
InChIKey=IZLDSSWMISQOBK-UHFFFAOYSA-N

> <PUBCHEM_SUBSTANCE_SYNONYM>
SCHEMBL16113608

> <PUBCHEM_XREF_EXT_ID>
SCHEMBL16113608

> <PUBCHEM_EXT_DATASOURCE_URL>
https://www.surechembl.org/

> <PUBCHEM_EXT_SUBSTANCE_URL>
https://www.surechembl.org/chemical/SCHEMBL16113608

> <PUBCHEM_CID_ASSOCIATIONS>
86300037  1

> <PUBCHEM_COORDINATE_TYPE>
1
3

$$$$
