310937624
  -OEChem-07211613022D

 26 29  0     1  0  0  0  0  0999 V2000
    4.2781    1.2055    0.0000 Br  0  0  0  0  0  0  0  0  0  0  0  0
   -2.2876    1.1266    0.0000 O   0  0  0  0  0  0  0  0  0  0  0  0
   -2.2876   -0.3024    0.0000 O   0  0  0  0  0  0  0  0  0  0  0  0
   -1.0501    0.4122    0.0000 N   0  0  0  0  0  0  0  0  0  0  0  0
    0.7145    1.2375    0.0000 N   0  0  0  0  0  0  0  0  0  0  0  0
    2.8579    0.8250    0.0000 N   0  0  0  0  0  0  0  0  0  0  0  0
    1.4290    0.0000    0.0000 N   0  0  0  0  0  0  0  0  0  0  0  0
    2.3150    2.0445    0.0000 N   0  0  0  0  0  0  0  0  0  0  0  0
   -0.7145   -0.4125    0.0000 C   0  0  3  0  0  0  0  0  0  0  0  0
   -0.7145    1.2375    0.0000 C   0  0  3  0  0  0  0  0  0  0  0  0
    0.0000    0.8250    0.0000 C   0  0  3  0  0  0  0  0  0  0  0  0
    0.0000    0.0000    0.0000 C   0  0  0  0  0  0  0  0  0  0  0  0
   -0.1842   -1.0445    0.0000 C   0  0  0  0  0  0  0  0  0  0  0  0
   -1.4290    0.0000    0.0000 C   0  0  0  0  0  0  0  0  0  0  0  0
   -1.4290    0.8250    0.0000 C   0  0  0  0  0  0  0  0  0  0  0  0
   -1.8751    0.4122    0.0000 C   0  0  0  0  0  0  0  0  0  0  0  0
    1.4290    0.8250    0.0000 C   0  0  0  0  0  0  0  0  0  0  0  0
    2.1435    1.2375    0.0000 C   0  0  0  0  0  0  0  0  0  0  0  0
    0.3462   -1.6765    0.0000 C   0  0  0  0  0  0  0  0  0  0  0  0
   -0.4664   -1.8198    0.0000 C   0  0  0  0  0  0  0  0  0  0  0  0
    0.6283   -0.9013    0.0000 C   0  0  0  0  0  0  0  0  0  0  0  0
    3.4710    1.3771    0.0000 C   0  0  0  0  0  0  0  0  0  0  0  0
    2.8579    0.0000    0.0000 C   0  0  0  0  0  0  0  0  0  0  0  0
    3.1355    2.1307    0.0000 C   0  0  0  0  0  0  0  0  0  0  0  0
    2.1435   -0.4125    0.0000 C   0  0  0  0  0  0  0  0  0  0  0  0
   -0.7145    2.0625    0.0000 H   0  0  0  0  0  0  0  0  0  0  0  0
  1 22  1  0  0  0  0
  2 16  2  0  0  0  0
  3 16  1  0  0  0  0
  4  9  1  0  0  0  0
  4 10  1  0  0  0  0
  4 16  1  0  0  0  0
 11  5  1  6  0  0  0
  5 17  1  0  0  0  0
  6 18  1  0  0  0  0
  6 22  1  0  0  0  0
  6 23  1  0  0  0  0
  7 17  2  0  0  0  0
  7 25  1  0  0  0  0
  8 18  2  0  0  0  0
  8 24  1  0  0  0  0
  9 12  1  0  0  0  0
  9 13  1  0  0  0  0
  9 14  1  0  0  0  0
 10 11  1  0  0  0  0
 10 15  1  0  0  0  0
 10 26  1  6  0  0  0
 11 12  1  0  0  0  0
 13 19  1  0  0  0  0
 13 20  1  0  0  0  0
 13 21  1  0  0  0  0
 14 15  1  0  0  0  0
 17 18  1  0  0  0  0
 22 24  2  0  0  0  0
 23 25  2  0  0  0  0
M  END
> <PUBCHEM_COMPOUND_ID_TYPE>
0

> <PUBCHEM_TOTAL_CHARGE>
0

> <PUBCHEM_SUBSTANCE_ID>
310937624

> <PUBCHEM_SUBSTANCE_VERSION>
1

> <PUBCHEM_EXT_DATASOURCE_NAME>
4488

> <PUBCHEM_EXT_DATASOURCE_REGID>
SCHEMBL16115407

> <PUBCHEM_SUBSTANCE_COMMENT>
InChI=1S/C17H22BrN5O2/c1-16(2,3)17-5-4-11(23(17)15(24)25)10(8-17)21-13-14-20-9-12(18)22(14)7-6-19-13/h6-7,9-11H,4-5,8H2,1-3H3,(H,19,21)(H,24,25)/t10-,11+,17?/m1/s1
InChIKey=VCEXLXGIGDHLAM-XIPGDYJZSA-N

> <PUBCHEM_SUBSTANCE_SYNONYM>
SCHEMBL16115407

> <PUBCHEM_XREF_EXT_ID>
SCHEMBL16115407

> <PUBCHEM_EXT_DATASOURCE_URL>
https://www.surechembl.org/

> <PUBCHEM_EXT_SUBSTANCE_URL>
https://www.surechembl.org/chemical/SCHEMBL16115407

> <PUBCHEM_CID_ASSOCIATIONS>
117605323  1

> <PUBCHEM_COORDINATE_TYPE>
1
3

> <PUBCHEM_BONDANNOTATIONS>
10  26  6
11  5  6

$$$$
