310938972
  -OEChem-07211613022D

 16 16  0     1  0  0  0  0  0999 V2000
    0.4125   -0.9207    0.0000 N   0  0  0  0  0  0  0  0  0  0  0  0
   -0.7145    1.0313    0.0000 N   0  0  0  0  0  0  0  0  0  0  0  0
   -0.3020   -0.5082    0.0000 C   0  0  3  0  0  0  0  0  0  0  0  0
   -0.7145    0.2062    0.0000 C   0  0  3  0  0  0  0  0  0  0  0  0
   -1.1270   -0.5082    0.0000 C   0  0  3  0  0  0  0  0  0  0  0  0
    0.0000    1.4437    0.0000 C   0  0  0  0  0  0  0  0  0  0  0  0
    0.4125   -1.7457    0.0000 C   0  0  0  0  0  0  0  0  0  0  0  0
    1.1270   -0.5082    0.0000 C   0  0  0  0  0  0  0  0  0  0  0  0
   -1.8414   -0.9207    0.0000 C   0  0  0  0  0  0  0  0  0  0  0  0
   -0.4125    2.1582    0.0000 C   0  0  0  0  0  0  0  0  0  0  0  0
    0.7145    1.8563    0.0000 C   0  0  0  0  0  0  0  0  0  0  0  0
    0.4125    0.7293    0.0000 C   0  0  0  0  0  0  0  0  0  0  0  0
    1.1270   -2.1582    0.0000 C   0  0  0  0  0  0  0  0  0  0  0  0
   -0.3020   -2.1582    0.0000 C   0  0  0  0  0  0  0  0  0  0  0  0
    1.1270    0.3168    0.0000 C   0  0  0  0  0  0  0  0  0  0  0  0
    1.8414   -0.9207    0.0000 C   0  0  0  0  0  0  0  0  0  0  0  0
  1  3  1  0  0  0  0
  1  7  1  0  0  0  0
  1  8  1  0  0  0  0
  2  4  1  0  0  0  0
  2  6  1  0  0  0  0
  3  4  1  0  0  0  0
  3  5  1  0  0  0  0
  4  5  1  0  0  0  0
  5  9  1  0  0  0  0
  6 10  1  0  0  0  0
  6 11  1  0  0  0  0
  6 12  1  0  0  0  0
  7 13  1  0  0  0  0
  7 14  1  0  0  0  0
  8 15  1  0  0  0  0
  8 16  1  0  0  0  0
M  END
> <PUBCHEM_COMPOUND_ID_TYPE>
0

> <PUBCHEM_TOTAL_CHARGE>
0

> <PUBCHEM_SUBSTANCE_ID>
310938972

> <PUBCHEM_SUBSTANCE_VERSION>
1

> <PUBCHEM_EXT_DATASOURCE_NAME>
4488

> <PUBCHEM_EXT_DATASOURCE_REGID>
SCHEMBL16116891

> <PUBCHEM_SUBSTANCE_COMMENT>
InChI=1S/C14H30N2/c1-9(2)16(10(3)4)13-11(5)12(13)15-14(6,7)8/h9-13,15H,1-8H3
InChIKey=RPNBKWYCJRIULG-UHFFFAOYSA-N

> <PUBCHEM_SUBSTANCE_SYNONYM>
SCHEMBL16116891

> <PUBCHEM_XREF_EXT_ID>
SCHEMBL16116891

> <PUBCHEM_EXT_DATASOURCE_URL>
https://www.surechembl.org/

> <PUBCHEM_EXT_SUBSTANCE_URL>
https://www.surechembl.org/chemical/SCHEMBL16116891

> <PUBCHEM_CID_ASSOCIATIONS>
117606357  1

> <PUBCHEM_COORDINATE_TYPE>
1
3

$$$$
