310943773
  -OEChem-07211613022D

 21 22  0     1  0  0  0  0  0999 V2000
   -1.0141    1.7568    0.0000 F   0  0  0  0  0  0  0  0  0  0  0  0
    1.2025    0.2826    0.0000 N   0  0  3  0  0  0  0  0  0  0  0  0
    2.9870   -0.2605    0.0000 N   0  0  3  0  0  0  0  0  0  0  0  0
   -0.2937    0.2937    0.0000 C   0  0  0  0  0  0  0  0  0  0  0  0
   -1.0031    0.7260    0.0000 C   0  0  0  0  0  0  0  0  0  0  0  0
   -1.7346   -0.5376    0.0000 C   0  0  0  0  0  0  0  0  0  0  0  0
   -1.7125    0.3048    0.0000 C   0  0  0  0  0  0  0  0  0  0  0  0
    0.4046    0.7149    0.0000 C   0  0  0  0  0  0  0  0  0  0  0  0
   -0.2937   -0.5264    0.0000 C   0  0  0  0  0  0  0  0  0  0  0  0
   -1.0141   -0.9366    0.0000 C   0  0  0  0  0  0  0  0  0  0  0  0
   -2.4550   -0.9587    0.0000 C   0  0  0  0  0  0  0  0  0  0  0  0
    1.5019   -0.4821    0.0000 C   0  0  0  0  0  0  0  0  0  0  0  0
    1.6237    1.0141    0.0000 C   0  0  0  0  0  0  0  0  0  0  0  0
    2.2998   -0.7260    0.0000 C   0  0  0  0  0  0  0  0  0  0  0  0
   -3.1312   -0.5486    0.0000 C   0  0  0  0  0  0  0  0  0  0  0  0
    2.4439    1.1250    0.0000 C   0  0  0  0  0  0  0  0  0  0  0  0
    3.0424    0.5597    0.0000 C   0  0  0  0  0  0  0  0  0  0  0  0
   -2.4218   -1.7568    0.0000 C   0  0  0  0  0  0  0  0  0  0  0  0
   -3.8737   -0.9587    0.0000 C   0  0  0  0  0  0  0  0  0  0  0  0
    3.8737   -0.7814    0.0000 C   0  0  0  0  0  0  0  0  0  0  0  0
   -3.8183   -1.7457    0.0000 C   0  0  0  0  0  0  0  0  0  0  0  0
  1  5  1  0  0  0  0
  2  8  1  0  0  0  0
  2 12  1  0  0  0  0
  2 13  1  0  0  0  0
  3 14  1  0  0  0  0
  3 17  1  0  0  0  0
  3 20  1  0  0  0  0
  4  5  1  0  0  0  0
  4  8  1  0  0  0  0
  4  9  2  0  0  0  0
  5  7  2  0  0  0  0
  6  7  1  0  0  0  0
  6 10  2  0  0  0  0
  6 11  1  0  0  0  0
  9 10  1  0  0  0  0
 11 15  2  0  0  0  0
 11 18  1  0  0  0  0
 12 14  1  0  0  0  0
 13 16  1  0  0  0  0
 15 19  1  0  0  0  0
 16 17  1  0  0  0  0
 19 21  2  0  0  0  0
M  END
> <PUBCHEM_COMPOUND_ID_TYPE>
0

> <PUBCHEM_TOTAL_CHARGE>
0

> <PUBCHEM_SUBSTANCE_ID>
310943773

> <PUBCHEM_SUBSTANCE_VERSION>
1

> <PUBCHEM_EXT_DATASOURCE_NAME>
4488

> <PUBCHEM_EXT_DATASOURCE_REGID>
SCHEMBL16121842

> <PUBCHEM_SUBSTANCE_COMMENT>
InChI=1S/C18H25FN2/c1-4-6-15(2)16-7-8-17(18(19)13-16)14-21-10-5-9-20(3)11-12-21/h4,6-8,13H,1,5,9-12,14H2,2-3H3/b15-6+
InChIKey=YATUVWAUTVPLBF-GIDUJCDVSA-N

> <PUBCHEM_SUBSTANCE_SYNONYM>
SCHEMBL16121842

> <PUBCHEM_XREF_EXT_ID>
SCHEMBL16121842

> <PUBCHEM_EXT_DATASOURCE_URL>
https://www.surechembl.org/

> <PUBCHEM_EXT_SUBSTANCE_URL>
https://www.surechembl.org/chemical/SCHEMBL16121842

> <PUBCHEM_CID_ASSOCIATIONS>
117610135  1

> <PUBCHEM_COORDINATE_TYPE>
1
3

$$$$
