310935491
  -OEChem-07211613022D

 41 46  0     1  0  0  0  0  0999 V2000
    1.5439   -4.9750    0.0000 S   0  0  0  0  0  0  0  0  0  0  0  0
    0.0000   -7.8484    0.0000 F   0  0  0  0  0  0  0  0  0  0  0  0
    1.2437   -8.5775    0.0000 F   0  0  0  0  0  0  0  0  0  0  0  0
    0.3860   -7.1194    0.0000 F   0  0  0  0  0  0  0  0  0  0  0  0
    2.3588   -4.9750    0.0000 O   0  0  0  0  0  0  0  0  0  0  0  0
    0.6862   -4.9321    0.0000 O   0  0  0  0  0  0  0  0  0  0  0  0
    1.5439   -8.2774    0.0000 O   0  0  0  0  0  0  0  0  0  0  0  0
    1.5439   -5.7899    0.0000 N   0  0  0  0  0  0  0  0  0  0  0  0
    2.9593   -1.6726    0.0000 N   0  0  3  0  0  0  0  0  0  0  0  0
    3.6883   -0.3860    0.0000 N   0  0  0  0  0  0  0  0  0  0  0  0
    5.1037   -0.4289    0.0000 N   0  0  0  0  0  0  0  0  0  0  0  0
    5.7899   -4.9750    0.0000 N   0  0  0  0  0  0  0  0  0  0  0  0
    1.5439   -4.1601    0.0000 C   0  0  0  0  0  0  0  0  0  0  0  0
    1.5439   -7.4196    0.0000 C   0  0  0  0  0  0  0  0  0  0  0  0
    4.3745   -1.6726    0.0000 C   0  0  0  0  0  0  0  0  0  0  0  0
    3.6883   -1.2437    0.0000 C   0  0  0  0  0  0  0  0  0  0  0  0
    2.2301   -2.9164    0.0000 C   0  0  0  0  0  0  0  0  0  0  0  0
    5.1037   -1.2437    0.0000 C   0  0  0  0  0  0  0  0  0  0  0  0
    1.5439   -2.4875    0.0000 C   0  0  0  0  0  0  0  0  0  0  0  0
    0.8149   -7.8484    0.0000 C   0  0  0  0  0  0  0  0  0  0  0  0
    2.2731   -3.7312    0.0000 C   0  0  0  0  0  0  0  0  0  0  0  0
    2.9593   -2.4875    0.0000 C   0  0  0  0  0  0  0  0  0  0  0  0
    2.2731   -7.0336    0.0000 C   0  0  0  0  0  0  0  0  0  0  0  0
    0.8149   -7.0336    0.0000 C   0  0  0  0  0  0  0  0  0  0  0  0
    2.2731   -6.1758    0.0000 C   0  0  0  0  0  0  0  0  0  0  0  0
    0.8149   -6.1758    0.0000 C   0  0  0  0  0  0  0  0  0  0  0  0
    0.8149   -3.7312    0.0000 C   0  0  0  0  0  0  0  0  0  0  0  0
    4.3745   -2.4875    0.0000 C   0  0  0  0  0  0  0  0  0  0  0  0
    5.8327   -1.6298    0.0000 C   0  0  0  0  0  0  0  0  0  0  0  0
    5.1037   -2.8735    0.0000 C   0  0  0  0  0  0  0  0  0  0  0  0
    0.8149   -2.9164    0.0000 C   0  0  0  0  0  0  0  0  0  0  0  0
    2.2301   -1.2437    0.0000 C   0  0  0  0  0  0  0  0  0  0  0  0
    1.5439   -1.6726    0.0000 C   0  0  0  0  0  0  0  0  0  0  0  0
    5.8327   -2.4875    0.0000 C   0  0  0  0  0  0  0  0  0  0  0  0
    5.1037   -3.7312    0.0000 C   0  0  0  0  0  0  0  0  0  0  0  0
    4.3745    0.0000    0.0000 C   0  0  0  0  0  0  0  0  0  0  0  0
    6.5618   -1.2437    0.0000 C   0  0  0  0  0  0  0  0  0  0  0  0
    5.7899   -4.1601    0.0000 C   0  0  0  0  0  0  0  0  0  0  0  0
    4.3745   -4.1601    0.0000 C   0  0  0  0  0  0  0  0  0  0  0  0
    4.3745   -4.9750    0.0000 C   0  0  0  0  0  0  0  0  0  0  0  0
    5.1037   -5.4038    0.0000 C   0  0  0  0  0  0  0  0  0  0  0  0
  1  5  2  0  0  0  0
  1  6  2  0  0  0  0
  1  8  1  0  0  0  0
  1 13  1  0  0  0  0
  2 20  1  0  0  0  0
  3 20  1  0  0  0  0
  4 20  1  0  0  0  0
  7 14  1  0  0  0  0
  8 25  1  0  0  0  0
  8 26  1  0  0  0  0
  9 16  1  0  0  0  0
  9 22  1  0  0  0  0
  9 32  1  0  0  0  0
 10 16  1  0  0  0  0
 10 36  2  0  0  0  0
 11 18  2  0  0  0  0
 11 36  1  0  0  0  0
 12 38  1  0  0  0  0
 12 41  2  0  0  0  0
 13 21  2  0  0  0  0
 13 27  1  0  0  0  0
 14 20  1  0  0  0  0
 14 23  1  0  0  0  0
 14 24  1  0  0  0  0
 15 16  2  0  0  0  0
 15 18  1  0  0  0  0
 15 28  1  0  0  0  0
 17 19  2  0  0  0  0
 17 21  1  0  0  0  0
 17 22  1  0  0  0  0
 18 29  1  0  0  0  0
 19 31  1  0  0  0  0
 19 33  1  0  0  0  0
 23 25  1  0  0  0  0
 24 26  1  0  0  0  0
 27 31  2  0  0  0  0
 28 30  2  0  0  0  0
 29 34  2  0  0  0  0
 29 37  1  0  0  0  0
 30 34  1  0  0  0  0
 30 35  1  0  0  0  0
 32 33  1  0  0  0  0
 35 38  2  0  0  0  0
 35 39  1  0  0  0  0
 39 40  2  0  0  0  0
 40 41  1  0  0  0  0
M  END
> <PUBCHEM_COMPOUND_ID_TYPE>
0

> <PUBCHEM_TOTAL_CHARGE>
0

> <PUBCHEM_SUBSTANCE_ID>
310935491

> <PUBCHEM_SUBSTANCE_VERSION>
1

> <PUBCHEM_EXT_DATASOURCE_NAME>
4488

> <PUBCHEM_EXT_DATASOURCE_REGID>
SCHEMBL16113057

> <PUBCHEM_SUBSTANCE_COMMENT>
InChI=1S/C29H28F3N5O3S/c1-19-13-22(21-3-2-9-33-16-21)15-25-26(19)34-18-35-27(25)36-10-6-20-4-5-24(14-23(20)17-36)41(39,40)37-11-7-28(38,8-12-37)29(30,31)32/h2-5,9,13-16,18,38H,6-8,10-12,17H2,1H3
InChIKey=ZLZWMPCXDFKSEN-UHFFFAOYSA-N

> <PUBCHEM_SUBSTANCE_SYNONYM>
SCHEMBL16113057

> <PUBCHEM_XREF_EXT_ID>
SCHEMBL16113057

> <PUBCHEM_EXT_DATASOURCE_URL>
https://www.surechembl.org/

> <PUBCHEM_EXT_SUBSTANCE_URL>
https://www.surechembl.org/chemical/SCHEMBL16113057

> <PUBCHEM_CID_ASSOCIATIONS>
117603524  1

> <PUBCHEM_COORDINATE_TYPE>
1
3

$$$$
