310931344
  -OEChem-07211613022D

 16 18  0     1  0  0  0  0  0999 V2000
    2.5634    0.0000    0.0000 O   0  0  0  0  0  0  0  0  0  0  0  0
    3.6978   -1.9594    0.0000 O   0  0  0  0  0  0  0  0  0  0  0  0
    4.4197   -0.7219    0.0000 O   0  0  0  0  0  0  0  0  0  0  0  0
    2.1509   -0.7219    0.0000 C   0  0  3  0  0  0  0  0  0  0  0  0
    2.9907   -0.7219    0.0000 C   0  0  3  0  0  0  0  0  0  0  0  0
    1.4437   -1.1344    0.0000 C   0  0  0  0  0  0  0  0  0  0  0  0
    3.6978   -1.1344    0.0000 C   0  0  0  0  0  0  0  0  0  0  0  0
    2.3719   -0.6040    0.0000 C   0  0  0  0  0  0  0  0  0  0  0  0
    2.7697   -0.6040    0.0000 C   0  0  0  0  0  0  0  0  0  0  0  0
    2.5634   -0.7219    0.0000 C   0  0  0  0  0  0  0  0  0  0  0  0
    1.4290   -1.9741    0.0000 C   0  0  0  0  0  0  0  0  0  0  0  0
    0.7072   -0.7219    0.0000 C   0  0  0  0  0  0  0  0  0  0  0  0
    0.7072   -2.3866    0.0000 C   0  0  0  0  0  0  0  0  0  0  0  0
    0.0000   -1.1344    0.0000 C   0  0  0  0  0  0  0  0  0  0  0  0
    0.0000   -1.9594    0.0000 C   0  0  0  0  0  0  0  0  0  0  0  0
    4.4197   -2.3719    0.0000 C   0  0  0  0  0  0  0  0  0  0  0  0
  1  4  1  0  0  0  0
  1  5  1  0  0  0  0
  2  7  1  0  0  0  0
  2 16  1  0  0  0  0
  3  7  2  0  0  0  0
  4  5  1  0  0  0  0
  4  6  1  0  0  0  0
  4  8  1  0  0  0  0
  5  7  1  0  0  0  0
  5  9  1  0  0  0  0
  6 11  2  0  0  0  0
  6 12  1  0  0  0  0
  8 10  1  0  0  0  0
  9 10  1  0  0  0  0
 11 13  1  0  0  0  0
 12 14  2  0  0  0  0
 13 15  2  0  0  0  0
 14 15  1  0  0  0  0
M  END
> <PUBCHEM_COMPOUND_ID_TYPE>
0

> <PUBCHEM_TOTAL_CHARGE>
0

> <PUBCHEM_SUBSTANCE_ID>
310931344

> <PUBCHEM_SUBSTANCE_VERSION>
1

> <PUBCHEM_EXT_DATASOURCE_NAME>
4488

> <PUBCHEM_EXT_DATASOURCE_REGID>
SCHEMBL16108664

> <PUBCHEM_SUBSTANCE_COMMENT>
InChI=1S/C13H14O3/c1-15-11(14)13-9-5-8-12(13,16-13)10-6-3-2-4-7-10/h2-4,6-7H,5,8-9H2,1H3
InChIKey=IWWLKHLERIBCAD-UHFFFAOYSA-N

> <PUBCHEM_SUBSTANCE_SYNONYM>
SCHEMBL16108664

> <PUBCHEM_XREF_EXT_ID>
SCHEMBL16108664

> <PUBCHEM_EXT_DATASOURCE_URL>
https://www.surechembl.org/

> <PUBCHEM_EXT_SUBSTANCE_URL>
https://www.surechembl.org/chemical/SCHEMBL16108664

> <PUBCHEM_CID_ASSOCIATIONS>
117600149  1

> <PUBCHEM_COORDINATE_TYPE>
1
3

$$$$
