310938495
  -OEChem-07211613022D

 40 43  0     1  0  0  0  0  0999 V2000
   10.3216    3.3129    0.0000 O   0  0  0  0  0  0  0  0  0  0  0  0
   11.3481    3.7700    0.0000 O   0  0  0  0  0  0  0  0  0  0  0  0
    8.1782    1.2504    0.0000 O   0  0  0  0  0  0  0  0  0  0  0  0
    6.0347    3.3129    0.0000 O   0  0  0  0  0  0  0  0  0  0  0  0
   11.0360    2.0754    0.0000 N   0  0  0  0  0  0  0  0  0  0  0  0
   12.7459    3.4729    0.0000 N   0  0  0  0  0  0  0  0  0  0  0  0
    8.8926    2.4879    0.0000 N   0  0  0  0  0  0  0  0  0  0  0  0
    6.7492    2.0754    0.0000 N   0  0  0  0  0  0  0  0  0  0  0  0
   14.3694    4.0499    0.0000 N   0  0  0  0  0  0  0  0  0  0  0  0
   15.0369    4.5348    0.0000 N   0  0  0  0  0  0  0  0  0  0  0  0
   14.7819    5.3194    0.0000 N   0  0  0  0  0  0  0  0  0  0  0  0
   11.1223    1.2550    0.0000 C   0  0  0  0  0  0  0  0  0  0  0  0
   11.7897    2.4110    0.0000 C   0  0  3  0  0  0  0  0  0  0  0  0
   11.9292    1.0834    0.0000 C   0  0  0  0  0  0  0  0  0  0  0  0
   12.3417    1.7979    0.0000 C   0  0  0  0  0  0  0  0  0  0  0  0
   10.3216    2.4879    0.0000 C   0  0  0  0  0  0  0  0  0  0  0  0
   11.9612    3.2180    0.0000 C   0  0  0  0  0  0  0  0  0  0  0  0
   10.5702    0.6419    0.0000 C   0  0  0  0  0  0  0  0  0  0  0  0
   12.1842    0.2988    0.0000 C   0  0  0  0  0  0  0  0  0  0  0  0
   11.6322   -0.3143    0.0000 C   0  0  0  0  0  0  0  0  0  0  0  0
   10.8252   -0.1428    0.0000 C   0  0  0  0  0  0  0  0  0  0  0  0
    9.6071    2.0754    0.0000 C   0  0  0  0  0  0  0  0  0  0  0  0
    8.1782    2.0754    0.0000 C   0  0  0  0  0  0  0  0  0  0  0  0
   12.9174    4.2799    0.0000 C   0  0  0  0  0  0  0  0  0  0  0  0
   11.8871   -1.0989    0.0000 C   0  0  0  0  0  0  0  0  0  0  0  0
    7.4637    2.4879    0.0000 C   0  0  3  0  0  0  0  0  0  0  0  0
   13.7020    4.5348    0.0000 C   0  0  0  0  0  0  0  0  0  0  0  0
    7.4637    3.3129    0.0000 C   0  0  3  0  0  0  0  0  0  0  0  0
    6.0347    2.4879    0.0000 C   0  0  0  0  0  0  0  0  0  0  0  0
   13.9569    5.3194    0.0000 C   0  0  0  0  0  0  0  0  0  0  0  0
    6.7492    3.7254    0.0000 C   0  0  0  0  0  0  0  0  0  0  0  0
    5.3203    2.0754    0.0000 C   0  0  0  0  0  0  0  0  0  0  0  0
    4.6058    2.4879    0.0000 C   0  0  0  0  0  0  0  0  0  0  0  0
    8.1782    3.7254    0.0000 C   0  0  0  0  0  0  0  0  0  0  0  0
    3.8913    2.0754    0.0000 C   0  0  0  0  0  0  0  0  0  0  0  0
    4.6058    3.3129    0.0000 C   0  0  0  0  0  0  0  0  0  0  0  0
    6.7492    4.5504    0.0000 C   0  0  0  0  0  0  0  0  0  0  0  0
    3.1769    2.4879    0.0000 C   0  0  0  0  0  0  0  0  0  0  0  0
    3.8913    3.7254    0.0000 C   0  0  0  0  0  0  0  0  0  0  0  0
    3.1769    3.3129    0.0000 C   0  0  0  0  0  0  0  0  0  0  0  0
  1 16  2  0  0  0  0
  2 17  2  0  0  0  0
  3 23  2  0  0  0  0
  4 29  2  0  0  0  0
  5 12  1  0  0  0  0
  5 13  1  0  0  0  0
  5 16  1  0  0  0  0
  6 17  1  0  0  0  0
  6 24  1  0  0  0  0
  7 22  1  0  0  0  0
  7 23  1  0  0  0  0
  8 26  1  0  0  0  0
  8 29  1  0  0  0  0
  9 10  2  0  0  0  0
  9 27  1  0  0  0  0
 10 11  1  0  0  0  0
 11 30  1  0  0  0  0
 12 14  1  0  0  0  0
 12 18  2  0  0  0  0
 13 15  1  0  0  0  0
 13 17  1  0  0  0  0
 14 15  1  0  0  0  0
 14 19  2  0  0  0  0
 16 22  1  0  0  0  0
 18 21  1  0  0  0  0
 19 20  1  0  0  0  0
 20 21  2  0  0  0  0
 20 25  1  0  0  0  0
 23 26  1  0  0  0  0
 24 27  1  0  0  0  0
 26 28  1  0  0  0  0
 27 30  2  0  0  0  0
 28 31  1  0  0  0  0
 28 34  1  0  0  0  0
 29 32  1  0  0  0  0
 31 37  1  0  0  0  0
 32 33  1  0  0  0  0
 33 35  2  0  0  0  0
 33 36  1  0  0  0  0
 35 38  1  0  0  0  0
 36 39  2  0  0  0  0
 38 40  2  0  0  0  0
 39 40  1  0  0  0  0
M  END
> <PUBCHEM_COMPOUND_ID_TYPE>
0

> <PUBCHEM_TOTAL_CHARGE>
0

> <PUBCHEM_SUBSTANCE_ID>
310938495

> <PUBCHEM_SUBSTANCE_VERSION>
1

> <PUBCHEM_EXT_DATASOURCE_NAME>
4488

> <PUBCHEM_EXT_DATASOURCE_REGID>
SCHEMBL16116401

> <PUBCHEM_SUBSTANCE_COMMENT>
InChI=1S/C29H35N7O4/c1-4-19(3)27(33-25(37)13-20-8-6-5-7-9-20)29(40)31-17-26(38)36-23-11-10-18(2)12-21(23)14-24(36)28(39)30-15-22-16-32-35-34-22/h5-12,16,19,24,27H,4,13-15,17H2,1-3H3,(H,30,39)(H,31,40)(H,33,37)(H,32,34,35)
InChIKey=KKBUCRVQIDTLFH-UHFFFAOYSA-N

> <PUBCHEM_SUBSTANCE_SYNONYM>
SCHEMBL16116401

> <PUBCHEM_XREF_EXT_ID>
SCHEMBL16116401

> <PUBCHEM_EXT_DATASOURCE_URL>
https://www.surechembl.org/

> <PUBCHEM_EXT_SUBSTANCE_URL>
https://www.surechembl.org/chemical/SCHEMBL16116401

> <PUBCHEM_CID_ASSOCIATIONS>
117605951  1

> <PUBCHEM_COORDINATE_TYPE>
1
3

$$$$
