310941233
  -OEChem-07211613022D

 43 46  0     1  0  0  0  0  0999 V2000
    3.8357    2.4110    0.0000 S   0  0  0  0  0  0  0  0  0  0  0  0
    5.1946   -1.3735    0.0000 O   0  0  0  0  0  0  0  0  0  0  0  0
    4.0549    0.5992    0.0000 O   0  0  0  0  0  0  0  0  0  0  0  0
    1.6731   -1.3589    0.0000 O   0  0  0  0  0  0  0  0  0  0  0  0
    3.4265    3.1270    0.0000 O   0  0  0  0  0  0  0  0  0  0  0  0
    4.2594    1.6804    0.0000 O   0  0  0  0  0  0  0  0  0  0  0  0
   -0.4894    0.7306    0.0000 O   0  0  0  0  0  0  0  0  0  0  0  0
   -2.6520   -1.3589    0.0000 O   0  0  0  0  0  0  0  0  0  0  0  0
   -5.5306   -1.3589    0.0000 O   0  0  0  0  0  0  0  0  0  0  0  0
    2.4037   -0.1169    0.0000 N   0  0  0  0  0  0  0  0  0  0  0  0
    0.2411   -0.5260    0.0000 N   0  0  0  0  0  0  0  0  0  0  0  0
   -1.9215   -0.1169    0.0000 N   0  0  0  0  0  0  0  0  0  0  0  0
    4.5663    2.8200    0.0000 N   0  0  0  0  0  0  0  0  0  0  0  0
   -4.0841   -0.5260    0.0000 N   0  0  0  0  0  0  0  0  0  0  0  0
    4.7854   -0.6284    0.0000 C   0  0  3  0  0  0  0  0  0  0  0  0
    4.0403   -0.2338    0.0000 C   0  0  0  0  0  0  0  0  0  0  0  0
    4.3764   -1.3443    0.0000 C   0  0  0  0  0  0  0  0  0  0  0  0
    3.3535   -0.6284    0.0000 C   0  0  3  0  0  0  0  0  0  0  0  0
    5.5306   -0.2046    0.0000 C   0  0  0  0  0  0  0  0  0  0  0  0
    3.3389   -1.7096    0.0000 C   0  0  0  0  0  0  0  0  0  0  0  0
    1.6877   -0.4821    0.0000 C   0  0  0  0  0  0  0  0  0  0  0  0
    0.9571   -0.0877    0.0000 C   0  0  3  0  0  0  0  0  0  0  0  0
    2.6228   -2.1334    0.0000 C   0  0  0  0  0  0  0  0  0  0  0  0
    0.9718    0.7599    0.0000 C   0  0  0  0  0  0  0  0  0  0  0  0
    1.6877    1.1690    0.0000 C   0  0  0  0  0  0  0  0  0  0  0  0
    3.1197    2.0165    0.0000 C   0  0  0  0  0  0  0  0  0  0  0  0
   -0.4894   -0.1022    0.0000 C   0  0  0  0  0  0  0  0  0  0  0  0
    1.8631   -1.8119    0.0000 C   0  0  0  0  0  0  0  0  0  0  0  0
    2.5206   -2.9517    0.0000 C   0  0  0  0  0  0  0  0  0  0  0  0
    1.7023    2.0165    0.0000 C   0  0  0  0  0  0  0  0  0  0  0  0
    2.4037    0.7599    0.0000 C   0  0  0  0  0  0  0  0  0  0  0  0
    2.3891    2.4110    0.0000 C   0  0  0  0  0  0  0  0  0  0  0  0
    3.1197    1.1690    0.0000 C   0  0  0  0  0  0  0  0  0  0  0  0
   -1.1908   -0.4967    0.0000 C   0  0  3  0  0  0  0  0  0  0  0  0
    1.3224   -2.4256    0.0000 C   0  0  0  0  0  0  0  0  0  0  0  0
    1.7169   -3.1270    0.0000 C   0  0  0  0  0  0  0  0  0  0  0  0
   -2.6374   -0.4821    0.0000 C   0  0  0  0  0  0  0  0  0  0  0  0
   -1.2055   -1.3589    0.0000 C   0  0  0  0  0  0  0  0  0  0  0  0
   -3.3827   -0.0877    0.0000 C   0  0  0  0  0  0  0  0  0  0  0  0
   -4.0841   -1.3443    0.0000 C   0  0  0  0  0  0  0  0  0  0  0  0
   -4.8146   -0.0877    0.0000 C   0  0  0  0  0  0  0  0  0  0  0  0
   -4.8000   -1.7535    0.0000 C   0  0  0  0  0  0  0  0  0  0  0  0
   -5.5161   -0.4967    0.0000 C   0  0  0  0  0  0  0  0  0  0  0  0
  1  5  2  0  0  0  0
  1  6  2  0  0  0  0
  1 13  1  0  0  0  0
  1 26  1  0  0  0  0
  2 15  1  0  0  0  0
  2 17  1  0  0  0  0
  3 16  2  0  0  0  0
  4 21  2  0  0  0  0
  7 27  2  0  0  0  0
  8 37  2  0  0  0  0
  9 42  1  0  0  0  0
  9 43  1  0  0  0  0
 10 18  1  0  0  0  0
 10 21  1  0  0  0  0
 11 22  1  0  0  0  0
 11 27  1  0  0  0  0
 12 34  1  0  0  0  0
 12 37  1  0  0  0  0
 14 39  1  0  0  0  0
 14 40  1  0  0  0  0
 14 41  1  0  0  0  0
 15 16  1  0  0  0  0
 15 17  1  0  0  0  0
 15 19  1  0  0  0  0
 16 18  1  0  0  0  0
 18 20  1  0  0  0  0
 20 23  1  0  0  0  0
 21 22  1  0  0  0  0
 22 24  1  0  0  0  0
 23 28  1  0  0  0  0
 23 29  1  0  0  0  0
 24 25  1  0  0  0  0
 25 30  2  0  0  0  0
 25 31  1  0  0  0  0
 26 32  2  0  0  0  0
 26 33  1  0  0  0  0
 27 34  1  0  0  0  0
 28 35  1  0  0  0  0
 29 36  1  0  0  0  0
 30 32  1  0  0  0  0
 31 33  2  0  0  0  0
 34 38  1  0  0  0  0
 35 36  1  0  0  0  0
 37 39  1  0  0  0  0
 40 42  1  0  0  0  0
 41 43  1  0  0  0  0
M  END
> <PUBCHEM_COMPOUND_ID_TYPE>
0

> <PUBCHEM_TOTAL_CHARGE>
0

> <PUBCHEM_SUBSTANCE_ID>
310941233

> <PUBCHEM_SUBSTANCE_VERSION>
1

> <PUBCHEM_EXT_DATASOURCE_NAME>
4488

> <PUBCHEM_EXT_DATASOURCE_REGID>
SCHEMBL16119193

> <PUBCHEM_SUBSTANCE_COMMENT>
InChI=1S/C29H43N5O8S/c1-19(31-25(35)17-34-11-13-41-14-12-34)27(37)33-24(16-21-7-9-22(10-8-21)43(30,39)40)28(38)32-23(15-20-5-3-4-6-20)26(36)29(2)18-42-29/h7-10,19-20,23-24H,3-6,11-18H2,1-2H3,(H,31,35)(H,32,38)(H,33,37)(H2,30,39,40)
InChIKey=GNPWNVLMHPAMIH-UHFFFAOYSA-N

> <PUBCHEM_SUBSTANCE_SYNONYM>
SCHEMBL16119193

> <PUBCHEM_XREF_EXT_ID>
SCHEMBL16119193

> <PUBCHEM_EXT_DATASOURCE_URL>
https://www.surechembl.org/

> <PUBCHEM_EXT_SUBSTANCE_URL>
https://www.surechembl.org/chemical/SCHEMBL16119193

> <PUBCHEM_CID_ASSOCIATIONS>
117608099  1

> <PUBCHEM_COORDINATE_TYPE>
1
3

$$$$
