310937927
  -OEChem-07211613022D

 19 21  0     1  0  0  0  0  0999 V2000
    3.3987   -0.8846    0.0000 S   0  0  0  0  0  0  0  0  0  0  0  0
    0.0000   -3.4220    0.0000 O   0  0  0  0  0  0  0  0  0  0  0  0
    0.7217   -4.6558    0.0000 O   0  0  0  0  0  0  0  0  0  0  0  0
    2.8400   -2.5840    0.0000 N   0  0  0  0  0  0  0  0  0  0  0  0
    1.4200   -3.4220    0.0000 N   0  0  0  0  0  0  0  0  0  0  0  0
    3.6315   -3.6548    0.0000 N   0  0  0  0  0  0  0  0  0  0  0  0
    4.1204   -3.0030    0.0000 N   0  0  0  0  0  0  0  0  0  0  0  0
    4.6558   -1.3036    0.0000 N   0  0  0  0  0  0  0  0  0  0  0  0
    3.8876   -0.2095    0.0000 N   0  0  0  0  0  0  0  0  0  0  0  0
    2.8400   -3.4220    0.0000 C   0  0  0  0  0  0  0  0  0  0  0  0
    3.6315   -2.3512    0.0000 C   0  0  0  0  0  0  0  0  0  0  0  0
    2.1183   -3.8177    0.0000 C   0  0  3  0  0  0  0  0  0  0  0  0
    3.8876   -1.5597    0.0000 C   0  0  0  0  0  0  0  0  0  0  0  0
    2.1183   -2.1882    0.0000 C   0  0  0  0  0  0  0  0  0  0  0  0
    1.4200   -2.5840    0.0000 C   0  0  0  0  0  0  0  0  0  0  0  0
    0.6983   -3.8410    0.0000 C   0  0  0  0  0  0  0  0  0  0  0  0
    4.6558   -0.4889    0.0000 C   0  0  0  0  0  0  0  0  0  0  0  0
    2.0951   -4.6558    0.0000 C   0  0  0  0  0  0  0  0  0  0  0  0
    5.3308    0.0000    0.0000 C   0  0  0  0  0  0  0  0  0  0  0  0
  1  9  1  0  0  0  0
  1 13  1  0  0  0  0
  2 16  2  0  0  0  0
  3 16  1  0  0  0  0
  4 10  1  0  0  0  0
  4 11  1  0  0  0  0
  4 14  1  0  0  0  0
  5 12  1  0  0  0  0
  5 15  1  0  0  0  0
  5 16  1  0  0  0  0
  6  7  1  0  0  0  0
  6 10  2  0  0  0  0
  7 11  2  0  0  0  0
  8 13  2  0  0  0  0
  8 17  1  0  0  0  0
  9 17  2  0  0  0  0
 10 12  1  0  0  0  0
 11 13  1  0  0  0  0
 12 18  1  0  0  0  0
 14 15  1  0  0  0  0
 17 19  1  0  0  0  0
M  END
> <PUBCHEM_COMPOUND_ID_TYPE>
0

> <PUBCHEM_TOTAL_CHARGE>
0

> <PUBCHEM_SUBSTANCE_ID>
310937927

> <PUBCHEM_SUBSTANCE_VERSION>
1

> <PUBCHEM_EXT_DATASOURCE_NAME>
4488

> <PUBCHEM_EXT_DATASOURCE_REGID>
SCHEMBL16115756

> <PUBCHEM_SUBSTANCE_COMMENT>
InChI=1S/C10H12N6O2S/c1-5-7-12-13-8(9-11-6(2)14-19-9)16(7)4-3-15(5)10(17)18/h5H,3-4H2,1-2H3,(H,17,18)
InChIKey=FJJCOFRGIVVMTC-UHFFFAOYSA-N

> <PUBCHEM_SUBSTANCE_SYNONYM>
SCHEMBL16115756

> <PUBCHEM_XREF_EXT_ID>
SCHEMBL16115756

> <PUBCHEM_EXT_DATASOURCE_URL>
https://www.surechembl.org/

> <PUBCHEM_EXT_SUBSTANCE_URL>
https://www.surechembl.org/chemical/SCHEMBL16115756

> <PUBCHEM_CID_ASSOCIATIONS>
117605537  1

> <PUBCHEM_COORDINATE_TYPE>
1
3

$$$$
