310938617
  -OEChem-07211613022D

 26 29  0     1  0  0  0  0  0999 V2000
   -4.8936    2.5142    0.0000 Cl  0  0  0  0  0  0  0  0  0  0  0  0
   -1.3212    2.1017    0.0000 O   0  0  0  0  0  0  0  0  0  0  0  0
   -0.6068    0.8642    0.0000 O   0  0  0  0  0  0  0  0  0  0  0  0
    0.8222    0.8642    0.0000 O   0  0  0  0  0  0  0  0  0  0  0  0
   -4.8936    0.0392    0.0000 O   0  0  0  0  0  0  0  0  0  0  0  0
    0.1077    4.5767    0.0000 N   0  0  0  0  0  0  0  0  0  0  0  0
   -0.6068    3.3392    0.0000 N   0  0  0  0  0  0  0  0  0  0  0  0
    0.8222    3.3392    0.0000 N   0  0  0  0  0  0  0  0  0  0  0  0
    0.5202    5.8463    0.0000 C   0  0  3  0  0  0  0  0  0  0  0  0
   -0.3048    5.8463    0.0000 C   0  0  3  0  0  0  0  0  0  0  0  0
    0.1077    3.7517    0.0000 C   0  0  0  0  0  0  0  0  0  0  0  0
    0.1077    6.5608    0.0000 C   0  0  0  0  0  0  0  0  0  0  0  0
    0.7751    5.0617    0.0000 C   0  0  0  0  0  0  0  0  0  0  0  0
   -0.5597    5.0617    0.0000 C   0  0  0  0  0  0  0  0  0  0  0  0
   -0.6068    2.5142    0.0000 C   0  0  0  0  0  0  0  0  0  0  0  0
    0.1077    2.1017    0.0000 C   0  0  0  0  0  0  0  0  0  0  0  0
    0.8222    2.5142    0.0000 C   0  0  0  0  0  0  0  0  0  0  0  0
    0.1077    1.2767    0.0000 C   0  0  0  0  0  0  0  0  0  0  0  0
   -2.7502    2.1017    0.0000 C   0  0  0  0  0  0  0  0  0  0  0  0
   -2.0357    2.5142    0.0000 C   0  0  0  0  0  0  0  0  0  0  0  0
   -4.1791    2.1017    0.0000 C   0  0  0  0  0  0  0  0  0  0  0  0
   -3.4647    2.5142    0.0000 C   0  0  0  0  0  0  0  0  0  0  0  0
   -4.1791    1.2767    0.0000 C   0  0  0  0  0  0  0  0  0  0  0  0
   -2.7502    1.2767    0.0000 C   0  0  0  0  0  0  0  0  0  0  0  0
   -3.4647    0.8642    0.0000 C   0  0  0  0  0  0  0  0  0  0  0  0
   -4.8936    0.8642    0.0000 C   0  0  0  0  0  0  0  0  0  0  0  0
  1 21  1  0  0  0  0
  2 15  1  0  0  0  0
  2 20  1  0  0  0  0
  3 18  2  0  0  0  0
  4 18  1  0  0  0  0
  5 26  1  0  0  0  0
  6 11  1  0  0  0  0
  6 13  1  0  0  0  0
  6 14  1  0  0  0  0
  7 11  1  0  0  0  0
  7 15  2  0  0  0  0
  8 11  2  0  0  0  0
  8 17  1  0  0  0  0
  9 10  1  0  0  0  0
  9 12  1  0  0  0  0
  9 13  1  0  0  0  0
 10 12  1  0  0  0  0
 10 14  1  0  0  0  0
 15 16  1  0  0  0  0
 16 17  2  0  0  0  0
 16 18  1  0  0  0  0
 19 20  1  0  0  0  0
 19 22  2  0  0  0  0
 19 24  1  0  0  0  0
 21 22  1  0  0  0  0
 21 23  2  0  0  0  0
 23 25  1  0  0  0  0
 23 26  1  0  0  0  0
 24 25  2  0  0  0  0
M  END
> <PUBCHEM_COMPOUND_ID_TYPE>
0

> <PUBCHEM_TOTAL_CHARGE>
0

> <PUBCHEM_SUBSTANCE_ID>
310938617

> <PUBCHEM_SUBSTANCE_VERSION>
1

> <PUBCHEM_EXT_DATASOURCE_NAME>
4488

> <PUBCHEM_EXT_DATASOURCE_REGID>
SCHEMBL16116531

> <PUBCHEM_SUBSTANCE_COMMENT>
InChI=1S/C18H18ClN3O4/c19-15-3-10(1-2-11(15)8-23)9-26-16-14(17(24)25)5-20-18(21-16)22-6-12-4-13(12)7-22/h1-3,5,12-13,23H,4,6-9H2,(H,24,25)
InChIKey=SWBWVHPZMZTBSD-UHFFFAOYSA-N

> <PUBCHEM_SUBSTANCE_SYNONYM>
SCHEMBL16116531

> <PUBCHEM_XREF_EXT_ID>
SCHEMBL16116531

> <PUBCHEM_EXT_DATASOURCE_URL>
https://www.surechembl.org/

> <PUBCHEM_EXT_SUBSTANCE_URL>
https://www.surechembl.org/chemical/SCHEMBL16116531

> <PUBCHEM_CID_ASSOCIATIONS>
117606050  1

> <PUBCHEM_COORDINATE_TYPE>
1
3

$$$$
