310943884
  -OEChem-07211613022D

 14 16  0     1  0  0  0  0  0999 V2000
    2.4005   -0.3172    0.0000 O   0  0  0  0  0  0  0  0  0  0  0  0
   -1.3834   -0.1422    0.0000 N   0  0  0  0  0  0  0  0  0  0  0  0
    0.5633    0.8640    0.0000 N   0  0  0  0  0  0  0  0  0  0  0  0
   -1.9522    0.4484    0.0000 N   0  0  0  0  0  0  0  0  0  0  0  0
   -2.6958    0.0875    0.0000 N   0  0  0  0  0  0  0  0  0  0  0  0
   -2.5755   -0.7328    0.0000 N   0  0  0  0  0  0  0  0  0  0  0  0
    1.8647    0.3281    0.0000 C   0  0  3  0  0  0  0  0  0  0  0  0
    1.0772    0.2187    0.0000 C   0  0  0  0  0  0  0  0  0  0  0  0
   -0.5633   -0.0219    0.0000 C   0  0  0  0  0  0  0  0  0  0  0  0
    2.6958    0.4375    0.0000 C   0  0  0  0  0  0  0  0  0  0  0  0
    0.7601   -0.5578    0.0000 C   0  0  0  0  0  0  0  0  0  0  0  0
   -0.2570    0.7437    0.0000 C   0  0  0  0  0  0  0  0  0  0  0  0
   -0.0492   -0.6672    0.0000 C   0  0  0  0  0  0  0  0  0  0  0  0
   -1.7553   -0.8640    0.0000 C   0  0  0  0  0  0  0  0  0  0  0  0
  7  1  1  1  0  0  0
  1 10  1  0  0  0  0
  2  4  1  0  0  0  0
  2  9  1  0  0  0  0
  2 14  1  0  0  0  0
  3  8  2  0  0  0  0
  3 12  1  0  0  0  0
  4  5  2  0  0  0  0
  5  6  1  0  0  0  0
  6 14  2  0  0  0  0
  7  8  1  0  0  0  0
  7 10  1  0  0  0  0
  8 11  1  0  0  0  0
  9 12  2  0  0  0  0
  9 13  1  0  0  0  0
 11 13  2  0  0  0  0
M  END
> <PUBCHEM_COMPOUND_ID_TYPE>
0

> <PUBCHEM_TOTAL_CHARGE>
0

> <PUBCHEM_SUBSTANCE_ID>
310943884

> <PUBCHEM_SUBSTANCE_VERSION>
1

> <PUBCHEM_EXT_DATASOURCE_NAME>
4488

> <PUBCHEM_EXT_DATASOURCE_REGID>
SCHEMBL16121955

> <PUBCHEM_SUBSTANCE_COMMENT>
InChI=1S/C8H7N5O/c1-2-7(8-4-14-8)9-3-6(1)13-5-10-11-12-13/h1-3,5,8H,4H2/t8-/m0/s1
InChIKey=FXBQLFPGVJHVIV-QMMMGPOBSA-N

> <PUBCHEM_SUBSTANCE_SYNONYM>
SCHEMBL16121955

> <PUBCHEM_XREF_EXT_ID>
SCHEMBL16121955

> <PUBCHEM_EXT_DATASOURCE_URL>
https://www.surechembl.org/

> <PUBCHEM_EXT_SUBSTANCE_URL>
https://www.surechembl.org/chemical/SCHEMBL16121955

> <PUBCHEM_CID_ASSOCIATIONS>
117610210  1

> <PUBCHEM_COORDINATE_TYPE>
1
3

> <PUBCHEM_BONDANNOTATIONS>
7  1  5

$$$$
