310944771
  -OEChem-07211613022D

 27 29  0     1  0  0  0  0  0999 V2000
   -4.2593    1.3538    0.0000 Cl  0  0  0  0  0  0  0  0  0  0  0  0
   -4.2593   -0.2905    0.0000 Cl  0  0  0  0  0  0  0  0  0  0  0  0
   -1.2425   -0.2905    0.0000 O   0  0  0  0  0  0  0  0  0  0  0  0
    0.1793    2.1822    0.0000 O   0  0  0  0  0  0  0  0  0  0  0  0
    4.2593   -1.4651    0.0000 O   0  0  0  0  0  0  0  0  0  0  0  0
    0.9088    0.9458    0.0000 N   0  0  0  0  0  0  0  0  0  0  0  0
    3.0476   -0.7480    0.0000 N   0  0  0  0  0  0  0  0  0  0  0  0
   -1.2302    1.3661    0.0000 N   0  0  0  0  0  0  0  0  0  0  0  0
    1.7989   -0.0309    0.0000 C   0  0  3  0  0  0  0  0  0  0  0  0
    2.2069    0.6862    0.0000 C   0  0  3  0  0  0  0  0  0  0  0  0
    0.9952    0.1298    0.0000 C   0  0  0  0  0  0  0  0  0  0  0  0
    1.6505    1.2797    0.0000 C   0  0  0  0  0  0  0  0  0  0  0  0
    0.1793    1.3538    0.0000 C   0  0  0  0  0  0  0  0  0  0  0  0
    2.2069   -0.7480    0.0000 C   0  0  0  0  0  0  0  0  0  0  0  0
   -1.9472    0.9582    0.0000 C   0  0  0  0  0  0  0  0  0  0  0  0
    3.0476    0.6615    0.0000 C   0  0  0  0  0  0  0  0  0  0  0  0
   -1.9596    0.1298    0.0000 C   0  0  0  0  0  0  0  0  0  0  0  0
    3.4556   -0.0309    0.0000 C   0  0  0  0  0  0  0  0  0  0  0  0
   -3.3691    0.9582    0.0000 C   0  0  0  0  0  0  0  0  0  0  0  0
   -3.3815    0.1298    0.0000 C   0  0  0  0  0  0  0  0  0  0  0  0
   -2.6520    1.3538    0.0000 C   0  0  0  0  0  0  0  0  0  0  0  0
   -0.5007    0.9582    0.0000 C   0  0  0  0  0  0  0  0  0  0  0  0
   -2.6520   -0.2782    0.0000 C   0  0  0  0  0  0  0  0  0  0  0  0
    3.4309   -1.4527    0.0000 C   0  0  0  0  0  0  0  0  0  0  0  0
    3.0353   -2.1822    0.0000 C   0  0  0  0  0  0  0  0  0  0  0  0
   -0.5255    0.1298    0.0000 C   0  0  0  0  0  0  0  0  0  0  0  0
    2.2069   -2.1327    0.0000 C   0  0  0  0  0  0  0  0  0  0  0  0
  1 19  1  0  0  0  0
  2 20  1  0  0  0  0
  3 17  1  0  0  0  0
  3 26  1  0  0  0  0
  4 13  2  0  0  0  0
  5 24  2  0  0  0  0
  6 11  1  0  0  0  0
  6 12  1  0  0  0  0
  6 13  1  0  0  0  0
  7 14  1  0  0  0  0
  7 18  1  0  0  0  0
  7 24  1  0  0  0  0
  8 15  1  0  0  0  0
  8 22  1  0  0  0  0
  9 10  1  0  0  0  0
  9 11  1  0  0  0  0
  9 14  1  0  0  0  0
 10 12  1  0  0  0  0
 10 16  1  0  0  0  0
 13 22  1  0  0  0  0
 15 17  1  0  0  0  0
 15 21  2  0  0  0  0
 16 18  1  0  0  0  0
 17 23  2  0  0  0  0
 19 20  2  0  0  0  0
 19 21  1  0  0  0  0
 20 23  1  0  0  0  0
 24 25  1  0  0  0  0
 25 27  2  0  0  0  0
M  END
> <PUBCHEM_COMPOUND_ID_TYPE>
0

> <PUBCHEM_TOTAL_CHARGE>
0

> <PUBCHEM_SUBSTANCE_ID>
310944771

> <PUBCHEM_SUBSTANCE_VERSION>
1

> <PUBCHEM_EXT_DATASOURCE_NAME>
4488

> <PUBCHEM_EXT_DATASOURCE_REGID>
SCHEMBL16122850

> <PUBCHEM_SUBSTANCE_COMMENT>
InChI=1S/C19H23Cl2N3O3/c1-3-18(25)23-5-4-12-9-24(11-13(12)10-23)19(26)8-22-16-6-14(20)15(21)7-17(16)27-2/h3,6-7,12-13,22H,1,4-5,8-11H2,2H3
InChIKey=OYRLHRSSRQFXCM-UHFFFAOYSA-N

> <PUBCHEM_SUBSTANCE_SYNONYM>
SCHEMBL16122850

> <PUBCHEM_XREF_EXT_ID>
SCHEMBL16122850

> <PUBCHEM_EXT_DATASOURCE_URL>
https://www.surechembl.org/

> <PUBCHEM_EXT_SUBSTANCE_URL>
https://www.surechembl.org/chemical/SCHEMBL16122850

> <PUBCHEM_CID_ASSOCIATIONS>
117610987  1

> <PUBCHEM_COORDINATE_TYPE>
1
3

$$$$
