310932348
  -OEChem-07211613022D

 14 13  0     1  0  0  0  0  0999 V2000
   -0.4125   -0.7145    0.0000 Cl  0  0  0  0  0  0  0  0  0  0  0  0
    0.4125   -0.7145    0.0000 Cl  0  0  0  0  0  0  0  0  0  0  0  0
   -1.1270    1.1270    0.0000 Cl  0  0  0  0  0  0  0  0  0  0  0  0
    0.7145    0.4125    0.0000 S   0  0  0  0  0  0  0  0  0  0  0  0
   -1.4290    0.0000    0.0000 S   0  0  0  0  0  0  0  0  0  0  0  0
    1.1270   -0.3020    0.0000 O   0  0  0  0  0  0  0  0  0  0  0  0
    0.3020    1.1270    0.0000 O   0  0  0  0  0  0  0  0  0  0  0  0
    1.4290    0.8250    0.0000 O   0  0  0  0  0  0  0  0  0  0  0  0
   -1.8415    0.7145    0.0000 O   0  0  0  0  0  0  0  0  0  0  0  0
   -1.0165   -0.7145    0.0000 O   0  0  0  0  0  0  0  0  0  0  0  0
   -2.1435   -0.4125    0.0000 O   0  0  0  0  0  0  0  0  0  0  0  0
    0.0000    0.0000    0.0000 C   0  0  0  0  0  0  0  0  0  0  0  0
   -0.7145    0.4125    0.0000 C   0  0  3  0  0  0  0  0  0  0  0  0
   -0.3020    1.1270    0.0000 C   0  0  0  0  0  0  0  0  0  0  0  0
  1 12  1  0  0  0  0
  2 12  1  0  0  0  0
  3 13  1  0  0  0  0
  4  6  2  0  0  0  0
  4  7  2  0  0  0  0
  4  8  1  0  0  0  0
  4 12  1  0  0  0  0
  5  9  2  0  0  0  0
  5 10  2  0  0  0  0
  5 11  1  0  0  0  0
  5 13  1  0  0  0  0
 12 13  1  0  0  0  0
 13 14  1  0  0  0  0
M  END
> <PUBCHEM_COMPOUND_ID_TYPE>
0

> <PUBCHEM_TOTAL_CHARGE>
0

> <PUBCHEM_SUBSTANCE_ID>
310932348

> <PUBCHEM_SUBSTANCE_VERSION>
1

> <PUBCHEM_EXT_DATASOURCE_NAME>
4488

> <PUBCHEM_EXT_DATASOURCE_REGID>
SCHEMBL16109714

> <PUBCHEM_SUBSTANCE_COMMENT>
InChI=1S/C3H5Cl3O6S2/c1-2(4,13(7,8)9)3(5,6)14(10,11)12/h1H3,(H,7,8,9)(H,10,11,12)
InChIKey=JJKSHFUZMVYWGN-UHFFFAOYSA-N

> <PUBCHEM_SUBSTANCE_SYNONYM>
SCHEMBL16109714

> <PUBCHEM_XREF_EXT_ID>
SCHEMBL16109714

> <PUBCHEM_EXT_DATASOURCE_URL>
https://www.surechembl.org/

> <PUBCHEM_EXT_SUBSTANCE_URL>
https://www.surechembl.org/chemical/SCHEMBL16109714

> <PUBCHEM_CID_ASSOCIATIONS>
117600903  1

> <PUBCHEM_COORDINATE_TYPE>
1
3

$$$$
