310945338
  -OEChem-07211613022D

 80 92  0     1  0  0  0  0  0999 V2000
    3.0246    4.6183    0.0000 O   0  0  0  0  0  0  0  0  0  0  0  0
    2.9330   -2.9594    0.0000 O   0  0  0  0  0  0  0  0  0  0  0  0
   -4.5837    4.6183    0.0000 O   0  0  0  0  0  0  0  0  0  0  0  0
   -4.6448   -2.9900    0.0000 O   0  0  0  0  0  0  0  0  0  0  0  0
    3.0246    4.6183    0.0000 O   0  0  0  0  0  0  0  0  0  0  0  0
    2.9330   -2.9594    0.0000 O   0  0  0  0  0  0  0  0  0  0  0  0
   -4.5837    4.6183    0.0000 O   0  0  0  0  0  0  0  0  0  0  0  0
   -4.6448   -2.9900    0.0000 O   0  0  0  0  0  0  0  0  0  0  0  0
    0.4427    0.8294    0.0000 N   0  0  0  0  0  0  0  0  0  0  0  0
   -0.8407    2.0669    0.0000 N   0  0  0  0  0  0  0  0  0  0  0  0
   -0.8407   -0.4081    0.0000 N   0  0  0  0  0  0  0  0  0  0  0  0
   -1.9101    0.8294    0.0000 N   0  0  0  0  0  0  0  0  0  0  0  0
    0.9316    1.5017    0.0000 C   0  0  0  0  0  0  0  0  0  0  0  0
    0.9010    0.1725    0.0000 C   0  0  0  0  0  0  0  0  0  0  0  0
   -0.1226    2.5863    0.0000 C   0  0  0  0  0  0  0  0  0  0  0  0
   -0.1990   -0.8816    0.0000 C   0  0  0  0  0  0  0  0  0  0  0  0
   -1.4670    2.5710    0.0000 C   0  0  0  0  0  0  0  0  0  0  0  0
   -1.5128   -0.8816    0.0000 C   0  0  0  0  0  0  0  0  0  0  0  0
   -2.5670    0.1725    0.0000 C   0  0  0  0  0  0  0  0  0  0  0  0
   -2.5517    1.5017    0.0000 C   0  0  0  0  0  0  0  0  0  0  0  0
    0.6718    2.2808    0.0000 C   0  0  0  0  0  0  0  0  0  0  0  0
    0.5801   -0.6067    0.0000 C   0  0  0  0  0  0  0  0  0  0  0  0
   -2.2309    2.2961    0.0000 C   0  0  0  0  0  0  0  0  0  0  0  0
   -2.3073   -0.6373    0.0000 C   0  0  0  0  0  0  0  0  0  0  0  0
    1.7107    1.2266    0.0000 C   0  0  0  0  0  0  0  0  0  0  0  0
    1.7107    0.4016    0.0000 C   0  0  0  0  0  0  0  0  0  0  0  0
   -0.3976    3.3503    0.0000 C   0  0  3  0  0  0  0  0  0  0  0  0
   -0.4434   -1.6761    0.0000 C   0  0  3  0  0  0  0  0  0  0  0  0
   -1.2226    3.3503    0.0000 C   0  0  3  0  0  0  0  0  0  0  0  0
   -1.2684   -1.6761    0.0000 C   0  0  3  0  0  0  0  0  0  0  0  0
   -3.3462    0.4475    0.0000 C   0  0  3  0  0  0  0  0  0  0  0  0
   -3.3309    1.2572    0.0000 C   0  0  3  0  0  0  0  0  0  0  0  0
    1.2677    2.8919    0.0000 C   0  0  0  0  0  0  0  0  0  0  0  0
    1.1913   -1.2025    0.0000 C   0  0  0  0  0  0  0  0  0  0  0  0
   -2.8420    2.8766    0.0000 C   0  0  0  0  0  0  0  0  0  0  0  0
   -2.9031   -1.2484    0.0000 C   0  0  0  0  0  0  0  0  0  0  0  0
    2.4288    1.6238    0.0000 C   0  0  0  0  0  0  0  0  0  0  0  0
    2.4440   -0.0109    0.0000 C   0  0  0  0  0  0  0  0  0  0  0  0
    0.0149    4.0683    0.0000 C   0  0  0  0  0  0  0  0  0  0  0  0
   -0.0310   -2.3942    0.0000 C   0  0  0  0  0  0  0  0  0  0  0  0
   -1.6198    4.0683    0.0000 C   0  0  0  0  0  0  0  0  0  0  0  0
   -1.6656   -2.3789    0.0000 C   0  0  0  0  0  0  0  0  0  0  0  0
   -4.0642    0.0350    0.0000 C   0  0  0  0  0  0  0  0  0  0  0  0
   -4.0490    1.6697    0.0000 C   0  0  0  0  0  0  0  0  0  0  0  0
    2.0774    2.6627    0.0000 C   0  0  0  0  0  0  0  0  0  0  0  0
    0.9774   -1.9970    0.0000 C   0  0  0  0  0  0  0  0  0  0  0  0
    1.0691    3.6711    0.0000 C   0  0  0  0  0  0  0  0  0  0  0  0
    1.9857   -1.0039    0.0000 C   0  0  0  0  0  0  0  0  0  0  0  0
   -2.6282    3.6711    0.0000 C   0  0  0  0  0  0  0  0  0  0  0  0
   -3.6975   -1.0345    0.0000 C   0  0  0  0  0  0  0  0  0  0  0  0
   -3.6365    2.6780    0.0000 C   0  0  0  0  0  0  0  0  0  0  0  0
   -2.6892   -2.0428    0.0000 C   0  0  0  0  0  0  0  0  0  0  0  0
    3.1468    1.2266    0.0000 C   0  0  0  0  0  0  0  0  0  0  0  0
    3.1468    0.4016    0.0000 C   0  0  0  0  0  0  0  0  0  0  0  0
   -0.3823    4.7711    0.0000 C   0  0  0  0  0  0  0  0  0  0  0  0
   -0.4434   -3.1122    0.0000 C   0  0  0  0  0  0  0  0  0  0  0  0
   -1.2226    4.7711    0.0000 C   0  0  0  0  0  0  0  0  0  0  0  0
   -1.2531   -3.1122    0.0000 C   0  0  0  0  0  0  0  0  0  0  0  0
   -4.7517    0.4322    0.0000 C   0  0  0  0  0  0  0  0  0  0  0  0
   -4.7517    1.2572    0.0000 C   0  0  0  0  0  0  0  0  0  0  0  0
    2.6579    3.2433    0.0000 C   0  0  0  0  0  0  0  0  0  0  0  0
    1.5580   -2.5775    0.0000 C   0  0  0  0  0  0  0  0  0  0  0  0
    1.6496    4.2516    0.0000 C   0  0  0  0  0  0  0  0  0  0  0  0
    2.5663   -1.5692    0.0000 C   0  0  0  0  0  0  0  0  0  0  0  0
   -3.1934    4.2516    0.0000 C   0  0  0  0  0  0  0  0  0  0  0  0
   -4.2628   -1.5997    0.0000 C   0  0  0  0  0  0  0  0  0  0  0  0
   -4.2017    3.2433    0.0000 C   0  0  0  0  0  0  0  0  0  0  0  0
   -3.2545   -2.6081    0.0000 C   0  0  0  0  0  0  0  0  0  0  0  0
    2.4288    4.0377    0.0000 C   0  0  0  0  0  0  0  0  0  0  0  0
    2.3371   -2.3636    0.0000 C   0  0  0  0  0  0  0  0  0  0  0  0
   -3.9878    4.0530    0.0000 C   0  0  0  0  0  0  0  0  0  0  0  0
   -4.0642   -2.3942    0.0000 C   0  0  0  0  0  0  0  0  0  0  0  0
    3.0246    4.6183    0.0000 C   0  0  0  0  0  0  0  0  0  0  0  0
    2.9330   -2.9594    0.0000 C   0  0  0  0  0  0  0  0  0  0  0  0
   -4.5837    4.6183    0.0000 C   0  0  0  0  0  0  0  0  0  0  0  0
   -4.6448   -2.9900    0.0000 C   0  0  0  0  0  0  0  0  0  0  0  0
    4.7517    2.8372    0.0000 C   0  0  0  0  0  0  0  0  0  0  0  0
    4.6602   -4.7406    0.0000 C   0  0  0  0  0  0  0  0  0  0  0  0
   -2.8564    2.8371    0.0000 C   0  0  0  0  0  0  0  0  0  0  0  0
   -2.9177   -4.7711    0.0000 C   0  0  0  0  0  0  0  0  0  0  0  0
  1 73  1  0  0  0  0
  1 77  1  0  0  0  0
  2 74  1  0  0  0  0
  2 78  1  0  0  0  0
  3 75  1  0  0  0  0
  3 79  1  0  0  0  0
  4 76  1  0  0  0  0
  4 80  1  0  0  0  0
  5 73  2  0  0  0  0
  6 74  2  0  0  0  0
  7 75  2  0  0  0  0
  8 76  2  0  0  0  0
  9 13  1  0  0  0  0
  9 14  1  0  0  0  0
 10 15  1  0  0  0  0
 10 17  2  0  0  0  0
 11 16  1  0  0  0  0
 11 18  2  0  0  0  0
 12 19  1  0  0  0  0
 12 20  1  0  0  0  0
 13 21  1  0  0  0  0
 13 25  2  0  0  0  0
 14 22  1  0  0  0  0
 14 26  2  0  0  0  0
 15 21  2  0  0  0  0
 15 27  1  0  0  0  0
 16 22  2  0  0  0  0
 16 28  1  0  0  0  0
 17 23  1  0  0  0  0
 17 29  1  0  0  0  0
 18 24  1  0  0  0  0
 18 30  1  0  0  0  0
 19 24  2  0  0  0  0
 19 31  1  0  0  0  0
 20 23  2  0  0  0  0
 20 32  1  0  0  0  0
 21 33  1  0  0  0  0
 22 34  1  0  0  0  0
 23 35  1  0  0  0  0
 24 36  1  0  0  0  0
 25 26  1  0  0  0  0
 25 37  1  0  0  0  0
 26 38  1  0  0  0  0
 27 29  1  0  0  0  0
 27 39  1  0  0  0  0
 28 30  1  0  0  0  0
 28 40  1  0  0  0  0
 29 41  1  0  0  0  0
 30 42  1  0  0  0  0
 31 32  1  0  0  0  0
 31 43  1  0  0  0  0
 32 44  1  0  0  0  0
 33 45  2  0  0  0  0
 33 47  1  0  0  0  0
 34 46  2  0  0  0  0
 34 48  1  0  0  0  0
 35 49  2  0  0  0  0
 35 51  1  0  0  0  0
 36 50  2  0  0  0  0
 36 52  1  0  0  0  0
 37 53  1  0  0  0  0
 38 54  1  0  0  0  0
 39 55  1  0  0  0  0
 40 56  1  0  0  0  0
 41 57  1  0  0  0  0
 42 58  1  0  0  0  0
 43 59  1  0  0  0  0
 44 60  1  0  0  0  0
 45 61  1  0  0  0  0
 46 62  1  0  0  0  0
 47 63  2  0  0  0  0
 48 64  2  0  0  0  0
 49 65  1  0  0  0  0
 50 66  1  0  0  0  0
 51 67  2  0  0  0  0
 52 68  2  0  0  0  0
 53 54  1  0  0  0  0
 55 57  1  0  0  0  0
 56 58  1  0  0  0  0
 59 60  1  0  0  0  0
 61 69  2  0  0  0  0
 62 70  2  0  0  0  0
 63 69  1  0  0  0  0
 64 70  1  0  0  0  0
 65 71  2  0  0  0  0
 66 72  2  0  0  0  0
 67 71  1  0  0  0  0
 68 72  1  0  0  0  0
 69 73  1  0  0  0  0
 70 74  1  0  0  0  0
 71 75  1  0  0  0  0
 72 76  1  0  0  0  0
M  END
> <PUBCHEM_COMPOUND_ID_TYPE>
0

> <PUBCHEM_TOTAL_CHARGE>
0

> <PUBCHEM_SUBSTANCE_ID>
310945338

> <PUBCHEM_SUBSTANCE_VERSION>
1

> <PUBCHEM_EXT_DATASOURCE_NAME>
4488

> <PUBCHEM_EXT_DATASOURCE_REGID>
SCHEMBL16123436

> <PUBCHEM_SUBSTANCE_COMMENT>
InChI=1S/C68H68N4O8/c1-77-65(73)41-29-21-37(22-30-41)53-57-45-13-5-7-15-47(45)59(69-57)54(38-23-31-42(32-24-38)66(74)78-2)61-49-17-9-11-19-51(49)63(71-61)56(40-27-35-44(36-28-40)68(76)80-4)64-52-20-12-10-18-50(52)62(72-64)55(39-25-33-43(34-26-39)67(75)79-3)60-48-16-8-6-14-46(48)58(53)70-60/h21-36,45-49,51,69,72H,5-20H2,1-4H3/b57-53-,59-54-,60-55-,63-56-
InChIKey=XSCQZGHHJJBOMY-WVXNAYTASA-N

> <PUBCHEM_SUBSTANCE_SYNONYM>
SCHEMBL16123436

> <PUBCHEM_XREF_EXT_ID>
SCHEMBL16123436

> <PUBCHEM_EXT_DATASOURCE_URL>
https://www.surechembl.org/

> <PUBCHEM_EXT_SUBSTANCE_URL>
https://www.surechembl.org/chemical/SCHEMBL16123436

> <PUBCHEM_CID_ASSOCIATIONS>
117611397  1

> <PUBCHEM_COORDINATE_TYPE>
1
3

$$$$
