310946466
  -OEChem-07211613022D

 22 22  0     1  0  0  0  0  0999 V2000
   -2.5006   -0.2155    0.0000 O   0  0  0  0  0  0  0  0  0  0  0  0
   -1.0717   -1.0405    0.0000 O   0  0  0  0  0  0  0  0  0  0  0  0
    1.0717    1.0220    0.0000 O   0  0  0  0  0  0  0  0  0  0  0  0
    0.3572    2.2595    0.0000 O   0  0  0  0  0  0  0  0  0  0  0  0
   -3.2151    1.0220    0.0000 O   0  0  0  0  0  0  0  0  0  0  0  0
   -4.6441    0.1970    0.0000 N   0  0  0  0  0  0  0  0  0  0  0  0
   -1.7862    0.1970    0.0000 C   0  0  0  0  0  0  0  0  0  0  0  0
   -1.0717   -0.2155    0.0000 C   0  0  0  0  0  0  0  0  0  0  0  0
   -0.3572    1.0220    0.0000 C   0  0  0  0  0  0  0  0  0  0  0  0
   -0.3572    0.1970    0.0000 C   0  0  0  0  0  0  0  0  0  0  0  0
   -1.7862    1.0220    0.0000 C   0  0  0  0  0  0  0  0  0  0  0  0
   -1.0717    1.4345    0.0000 C   0  0  0  0  0  0  0  0  0  0  0  0
    0.3572    1.4345    0.0000 C   0  0  0  0  0  0  0  0  0  0  0  0
   -3.2151    0.1970    0.0000 C   0  0  0  0  0  0  0  0  0  0  0  0
   -3.9296   -0.2155    0.0000 C   0  0  3  0  0  0  0  0  0  0  0  0
    1.7862    1.4345    0.0000 C   0  0  0  0  0  0  0  0  0  0  0  0
   -0.3572   -1.4530    0.0000 C   0  0  0  0  0  0  0  0  0  0  0  0
   -3.9296   -1.0405    0.0000 C   0  0  0  0  0  0  0  0  0  0  0  0
    2.5006    1.0220    0.0000 C   0  0  0  0  0  0  0  0  0  0  0  0
    3.2151    1.4345    0.0000 C   0  0  0  0  0  0  0  0  0  0  0  0
    3.9296    1.0220    0.0000 C   0  0  0  0  0  0  0  0  0  0  0  0
    4.6441    1.4345    0.0000 C   0  0  0  0  0  0  0  0  0  0  0  0
  1  7  1  0  0  0  0
  1 14  1  0  0  0  0
  2  8  1  0  0  0  0
  2 17  1  0  0  0  0
  3 13  1  0  0  0  0
  3 16  1  0  0  0  0
  4 13  2  0  0  0  0
  5 14  2  0  0  0  0
  6 15  1  0  0  0  0
  7  8  1  0  0  0  0
  7 11  2  0  0  0  0
  8 10  2  0  0  0  0
  9 10  1  0  0  0  0
  9 12  2  0  0  0  0
  9 13  1  0  0  0  0
 11 12  1  0  0  0  0
 14 15  1  0  0  0  0
 15 18  1  0  0  0  0
 16 19  1  0  0  0  0
 19 20  1  0  0  0  0
 20 21  1  0  0  0  0
 21 22  1  0  0  0  0
M  END
> <PUBCHEM_COMPOUND_ID_TYPE>
0

> <PUBCHEM_TOTAL_CHARGE>
0

> <PUBCHEM_SUBSTANCE_ID>
310946466

> <PUBCHEM_SUBSTANCE_VERSION>
1

> <PUBCHEM_EXT_DATASOURCE_NAME>
4488

> <PUBCHEM_EXT_DATASOURCE_REGID>
SCHEMBL16124587

> <PUBCHEM_SUBSTANCE_COMMENT>
InChI=1S/C16H23NO5/c1-4-5-6-9-21-16(19)12-7-8-13(14(10-12)20-3)22-15(18)11(2)17/h7-8,10-11H,4-6,9,17H2,1-3H3
InChIKey=BRDONZJILSSBDV-UHFFFAOYSA-N

> <PUBCHEM_SUBSTANCE_SYNONYM>
SCHEMBL16124587

> <PUBCHEM_XREF_EXT_ID>
SCHEMBL16124587

> <PUBCHEM_EXT_DATASOURCE_URL>
https://www.surechembl.org/

> <PUBCHEM_EXT_SUBSTANCE_URL>
https://www.surechembl.org/chemical/SCHEMBL16124587

> <PUBCHEM_CID_ASSOCIATIONS>
117612376  1

> <PUBCHEM_COORDINATE_TYPE>
1
3

$$$$
