310946625
  -OEChem-07211613022D

 27 26  0     1  0  0  0  0  0999 V2000
    6.6687   17.0598    0.0000 O   0  0  0  0  0  0  0  0  0  0  0  0
    2.3561   17.6321    0.0000 O   0  0  0  0  0  0  0  0  0  0  0  0
    5.9622   18.2974    0.0000 O   0  0  0  0  0  0  0  0  0  0  0  0
    3.3665   18.6425    0.0000 O   0  0  0  0  0  0  0  0  0  0  0  0
    0.2127   13.0945    0.0000 O   0  0  0  0  0  0  0  0  0  0  0  0
    1.0532   11.6386    0.0000 O   0  5  0  0  0  0  0  0  0  0  0  0
    1.8938   13.0945    0.0000 O   0  0  0  0  0  0  0  0  0  0  0  0
    5.2447   16.2366    0.0000 N   0  0  0  0  0  0  0  0  0  0  0  0
    1.0532   12.6093    0.0000 N   0  3  0  0  0  0  0  0  0  0  0  0
    5.2467   17.0616    0.0000 C   0  0  3  0  0  0  0  0  0  0  0  0
    5.9622   17.4724    0.0000 C   0  0  0  0  0  0  0  0  0  0  0  0
    4.5332   17.4758    0.0000 C   0  0  0  0  0  0  0  0  0  0  0  0
    3.1530   17.8456    0.0000 C   0  0  0  0  0  0  0  0  0  0  0  0
    3.7363   17.2623    0.0000 C   0  0  0  0  0  0  0  0  0  0  0  0
    7.3833   17.4724    0.0000 C   0  0  0  0  0  0  0  0  0  0  0  0
    2.3561   16.8071    0.0000 C   0  0  0  0  0  0  0  0  0  0  0  0
    8.0977   17.0598    0.0000 C   0  0  0  0  0  0  0  0  0  0  0  0
    1.6417   16.3946    0.0000 C   0  0  0  0  0  0  0  0  0  0  0  0
    1.6417   15.5697    0.0000 C   0  0  0  0  0  0  0  0  0  0  0  0
    8.8122   17.4724    0.0000 C   0  0  0  0  0  0  0  0  0  0  0  0
    0.9272   15.1571    0.0000 C   0  0  0  0  0  0  0  0  0  0  0  0
    0.9272   14.3321    0.0000 C   0  0  0  0  0  0  0  0  0  0  0  0
    0.2127   13.9197    0.0000 C   0  0  0  0  0  0  0  0  0  0  0  0
    9.5267   17.0598    0.0000 C   0  0  0  0  0  0  0  0  0  0  0  0
   10.2411   17.4724    0.0000 C   0  0  0  0  0  0  0  0  0  0  0  0
   10.9556   17.0598    0.0000 C   0  0  0  0  0  0  0  0  0  0  0  0
   11.6701   17.4724    0.0000 C   0  0  0  0  0  0  0  0  0  0  0  0
  1 11  1  0  0  0  0
  1 15  1  0  0  0  0
  2 13  1  0  0  0  0
  2 16  1  0  0  0  0
  3 11  2  0  0  0  0
  4 13  2  0  0  0  0
  5  9  1  0  0  0  0
  5 23  1  0  0  0  0
  6  9  1  0  0  0  0
  7  9  2  0  0  0  0
  8 10  1  0  0  0  0
 10 11  1  0  0  0  0
 10 12  1  0  0  0  0
 12 14  1  0  0  0  0
 13 14  1  0  0  0  0
 15 17  1  0  0  0  0
 16 18  1  0  0  0  0
 17 20  1  0  0  0  0
 18 19  1  0  0  0  0
 19 21  1  0  0  0  0
 20 24  1  0  0  0  0
 21 22  1  0  0  0  0
 22 23  1  0  0  0  0
 24 25  1  0  0  0  0
 25 26  1  0  0  0  0
 26 27  1  0  0  0  0
M  CHG  2   6  -1   9   1
M  END
> <PUBCHEM_COMPOUND_ID_TYPE>
0

> <PUBCHEM_TOTAL_CHARGE>
0

> <PUBCHEM_SUBSTANCE_ID>
310946625

> <PUBCHEM_SUBSTANCE_VERSION>
1

> <PUBCHEM_EXT_DATASOURCE_NAME>
4488

> <PUBCHEM_EXT_DATASOURCE_REGID>
SCHEMBL16124746

> <PUBCHEM_SUBSTANCE_COMMENT>
InChI=1S/C18H34N2O7/c1-2-3-4-5-9-14-26-18(22)16(19)11-12-17(21)25-13-8-6-7-10-15-27-20(23)24/h16H,2-15,19H2,1H3
InChIKey=KOWXNQZRYRZCPE-UHFFFAOYSA-N

> <PUBCHEM_SUBSTANCE_SYNONYM>
SCHEMBL16124746

> <PUBCHEM_XREF_EXT_ID>
SCHEMBL16124746

> <PUBCHEM_EXT_DATASOURCE_URL>
https://www.surechembl.org/

> <PUBCHEM_EXT_SUBSTANCE_URL>
https://www.surechembl.org/chemical/SCHEMBL16124746

> <PUBCHEM_CID_ASSOCIATIONS>
117612525  1

> <PUBCHEM_COORDINATE_TYPE>
1
3

$$$$
