310943662
  -OEChem-07211613022D

 32 34  0     1  0  0  0  0  0999 V2000
    1.6497    2.1847    0.0000 O   0  0  0  0  0  0  0  0  0  0  0  0
   -4.0908   -1.3599    0.0000 N   0  0  3  0  0  0  0  0  0  0  0  0
    2.3742    0.7468    0.0000 N   0  0  0  0  0  0  0  0  0  0  0  0
    0.2453   -2.1847    0.0000 N   0  0  0  0  0  0  0  0  0  0  0  0
   -5.8854   -0.8137    0.0000 N   0  0  3  0  0  0  0  0  0  0  0  0
    5.9635    0.7580    0.0000 N   0  0  0  0  0  0  0  0  0  0  0  0
   -1.2262   -0.5239    0.0000 C   0  0  0  0  0  0  0  0  0  0  0  0
   -0.5017   -0.1003    0.0000 C   0  0  0  0  0  0  0  0  0  0  0  0
   -1.2262   -1.3376    0.0000 C   0  0  0  0  0  0  0  0  0  0  0  0
   -2.6529   -1.3488    0.0000 C   0  0  0  0  0  0  0  0  0  0  0  0
   -1.9172   -1.7500    0.0000 C   0  0  0  0  0  0  0  0  0  0  0  0
   -1.9283   -0.1115    0.0000 C   0  0  0  0  0  0  0  0  0  0  0  0
    0.2453   -0.5017    0.0000 C   0  0  0  0  0  0  0  0  0  0  0  0
   -0.4905    0.7245    0.0000 C   0  0  0  0  0  0  0  0  0  0  0  0
   -2.6418   -0.5239    0.0000 C   0  0  0  0  0  0  0  0  0  0  0  0
    0.9363    0.7356    0.0000 C   0  0  0  0  0  0  0  0  0  0  0  0
    0.9363   -0.0781    0.0000 C   0  0  0  0  0  0  0  0  0  0  0  0
    0.2007    1.1370    0.0000 C   0  0  0  0  0  0  0  0  0  0  0  0
   -3.3551   -1.7611    0.0000 C   0  0  0  0  0  0  0  0  0  0  0  0
   -0.4905   -1.7611    0.0000 C   0  0  0  0  0  0  0  0  0  0  0  0
    1.6386    1.1481    0.0000 C   0  0  0  0  0  0  0  0  0  0  0  0
   -4.7707   -1.8280    0.0000 C   0  0  0  0  0  0  0  0  0  0  0  0
   -4.0239   -0.5463    0.0000 C   0  0  0  0  0  0  0  0  0  0  0  0
   -5.5733   -1.5829    0.0000 C   0  0  0  0  0  0  0  0  0  0  0  0
   -4.6482    0.0223    0.0000 C   0  0  0  0  0  0  0  0  0  0  0  0
   -5.4618   -0.1003    0.0000 C   0  0  0  0  0  0  0  0  0  0  0  0
    3.2659    1.2708    0.0000 C   0  0  0  0  0  0  0  0  0  0  0  0
   -6.6991   -0.8248    0.0000 C   0  0  0  0  0  0  0  0  0  0  0  0
    4.1688    0.7580    0.0000 C   0  0  0  0  0  0  0  0  0  0  0  0
    5.0605    1.2819    0.0000 C   0  0  0  0  0  0  0  0  0  0  0  0
    6.0080   -0.1003    0.0000 C   0  0  0  0  0  0  0  0  0  0  0  0
    6.6991    1.1704    0.0000 C   0  0  0  0  0  0  0  0  0  0  0  0
  1 21  2  0  0  0  0
  2 19  1  0  0  0  0
  2 22  1  0  0  0  0
  2 23  1  0  0  0  0
  3 21  1  0  0  0  0
  3 27  1  0  0  0  0
  4 20  3  0  0  0  0
  5 24  1  0  0  0  0
  5 26  1  0  0  0  0
  5 28  1  0  0  0  0
  6 30  1  0  0  0  0
  6 31  1  0  0  0  0
  6 32  1  0  0  0  0
  7  8  1  0  0  0  0
  7  9  1  0  0  0  0
  7 12  2  0  0  0  0
  8 13  2  0  0  0  0
  8 14  1  0  0  0  0
  9 11  2  0  0  0  0
  9 20  1  0  0  0  0
 10 11  1  0  0  0  0
 10 15  2  0  0  0  0
 10 19  1  0  0  0  0
 12 15  1  0  0  0  0
 13 17  1  0  0  0  0
 14 18  2  0  0  0  0
 16 17  2  0  0  0  0
 16 18  1  0  0  0  0
 16 21  1  0  0  0  0
 22 24  1  0  0  0  0
 23 25  1  0  0  0  0
 25 26  1  0  0  0  0
 27 29  1  0  0  0  0
 29 30  1  0  0  0  0
M  END
> <PUBCHEM_COMPOUND_ID_TYPE>
0

> <PUBCHEM_TOTAL_CHARGE>
0

> <PUBCHEM_SUBSTANCE_ID>
310943662

> <PUBCHEM_SUBSTANCE_VERSION>
1

> <PUBCHEM_EXT_DATASOURCE_NAME>
4488

> <PUBCHEM_EXT_DATASOURCE_REGID>
SCHEMBL16121730

> <PUBCHEM_SUBSTANCE_COMMENT>
InChI=1S/C26H35N5O/c1-29(2)13-4-12-28-26(32)23-9-7-22(8-10-23)25-11-6-21(18-24(25)19-27)20-31-15-5-14-30(3)16-17-31/h6-11,18H,4-5,12-17,20H2,1-3H3,(H,28,32)
InChIKey=QZLOYSVXNVSRDN-UHFFFAOYSA-N

> <PUBCHEM_SUBSTANCE_SYNONYM>
SCHEMBL16121730

> <PUBCHEM_XREF_EXT_ID>
SCHEMBL16121730

> <PUBCHEM_EXT_DATASOURCE_URL>
https://www.surechembl.org/

> <PUBCHEM_EXT_SUBSTANCE_URL>
https://www.surechembl.org/chemical/SCHEMBL16121730

> <PUBCHEM_CID_ASSOCIATIONS>
117610052  1

> <PUBCHEM_COORDINATE_TYPE>
1
3

$$$$
