310945568
  -OEChem-07211613022D

 25 28  0     1  0  0  0  0  0999 V2000
   -2.1613    1.7070    0.0000 O   0  0  0  0  0  0  0  0  0  0  0  0
    0.6814    0.9598    0.0000 N   0  0  0  0  0  0  0  0  0  0  0  0
    2.7181    1.8975    0.0000 N   0  0  0  0  0  0  0  0  0  0  0  0
   -0.0513   -1.2088    0.0000 N   0  0  0  0  0  0  0  0  0  0  0  0
    1.3554    1.4580    0.0000 C   0  0  0  0  0  0  0  0  0  0  0  0
   -0.0073    1.4580    0.0000 C   0  0  0  0  0  0  0  0  0  0  0  0
    1.0916    2.2199    0.0000 C   0  0  0  0  0  0  0  0  0  0  0  0
    0.2565    2.2492    0.0000 C   0  0  0  0  0  0  0  0  0  0  0  0
    2.1613    1.2821    0.0000 C   0  0  0  0  0  0  0  0  0  0  0  0
    0.6667    0.0366    0.0000 C   0  0  3  0  0  0  0  0  0  0  0  0
   -0.8132    1.2967    0.0000 C   0  0  0  0  0  0  0  0  0  0  0  0
   -0.2857    2.8353    0.0000 C   0  0  0  0  0  0  0  0  0  0  0  0
    1.6484    2.8500    0.0000 C   0  0  0  0  0  0  0  0  0  0  0  0
   -1.3700    1.8975    0.0000 C   0  0  0  0  0  0  0  0  0  0  0  0
   -1.0916    2.6741    0.0000 C   0  0  0  0  0  0  0  0  0  0  0  0
    2.4690    2.6741    0.0000 C   0  0  0  0  0  0  0  0  0  0  0  0
   -0.0366   -0.3737    0.0000 C   0  0  0  0  0  0  0  0  0  0  0  0
    2.4836    0.3883    0.0000 C   0  0  0  0  0  0  0  0  0  0  0  0
    1.3993   -0.3883    0.0000 C   0  0  0  0  0  0  0  0  0  0  0  0
   -0.7546   -1.6192    0.0000 C   0  0  0  0  0  0  0  0  0  0  0  0
    0.6814   -1.6338    0.0000 C   0  0  0  0  0  0  0  0  0  0  0  0
   -2.7181    2.3518    0.0000 C   0  0  0  0  0  0  0  0  0  0  0  0
   -0.7693   -2.4543    0.0000 C   0  0  0  0  0  0  0  0  0  0  0  0
    0.6667   -2.4543    0.0000 C   0  0  0  0  0  0  0  0  0  0  0  0
   -0.0220   -2.8500    0.0000 C   0  0  0  0  0  0  0  0  0  0  0  0
  1 14  1  0  0  0  0
  1 22  1  0  0  0  0
  2  5  1  0  0  0  0
  2  6  1  0  0  0  0
  2 10  1  0  0  0  0
  3  9  2  0  0  0  0
  3 16  1  0  0  0  0
  4 17  1  0  0  0  0
  4 20  1  0  0  0  0
  4 21  1  0  0  0  0
  5  7  2  0  0  0  0
  5  9  1  0  0  0  0
  6  8  2  0  0  0  0
  6 11  1  0  0  0  0
  7  8  1  0  0  0  0
  7 13  1  0  0  0  0
  8 12  1  0  0  0  0
  9 18  1  0  0  0  0
 10 17  1  0  0  0  0
 10 19  1  0  0  0  0
 11 14  2  0  0  0  0
 12 15  2  0  0  0  0
 13 16  2  0  0  0  0
 14 15  1  0  0  0  0
 20 23  1  0  0  0  0
 21 24  1  0  0  0  0
 23 25  1  0  0  0  0
 24 25  1  0  0  0  0
M  END
> <PUBCHEM_COMPOUND_ID_TYPE>
0

> <PUBCHEM_TOTAL_CHARGE>
0

> <PUBCHEM_SUBSTANCE_ID>
310945568

> <PUBCHEM_SUBSTANCE_VERSION>
1

> <PUBCHEM_EXT_DATASOURCE_NAME>
4488

> <PUBCHEM_EXT_DATASOURCE_REGID>
SCHEMBL16123666

> <PUBCHEM_SUBSTANCE_COMMENT>
InChI=1S/C21H27N3O/c1-15(14-23-11-5-4-6-12-23)24-20-13-17(25-3)7-8-18(20)19-9-10-22-16(2)21(19)24/h7-10,13,15H,4-6,11-12,14H2,1-3H3
InChIKey=XLCYHDXHLSBKSZ-UHFFFAOYSA-N

> <PUBCHEM_SUBSTANCE_SYNONYM>
SCHEMBL16123666

> <PUBCHEM_XREF_EXT_ID>
SCHEMBL16123666

> <PUBCHEM_EXT_DATASOURCE_URL>
https://www.surechembl.org/

> <PUBCHEM_EXT_SUBSTANCE_URL>
https://www.surechembl.org/chemical/SCHEMBL16123666

> <PUBCHEM_CID_ASSOCIATIONS>
86298687  1

> <PUBCHEM_COORDINATE_TYPE>
1
3

$$$$
