310939496
  -OEChem-07211613022D

 26 29  0     1  0  0  0  0  0999 V2000
    3.1850   -0.0115    0.0000 O   0  0  0  0  0  0  0  0  0  0  0  0
    1.4442   -2.1533    0.0000 O   0  0  0  0  0  0  0  0  0  0  0  0
   -2.3691   -0.0246    0.0000 O   0  0  0  0  0  0  0  0  0  0  0  0
    1.2032    1.2129    0.0000 N   0  0  0  0  0  0  0  0  0  0  0  0
    0.4888    0.8004    0.0000 N   0  0  0  0  0  0  0  0  0  0  0  0
    1.9879    2.2928    0.0000 N   0  0  0  0  0  0  0  0  0  0  0  0
    2.8419   -2.4504    0.0000 N   0  0  0  0  0  0  0  0  0  0  0  0
   -0.9402    0.8004    0.0000 N   0  0  0  0  0  0  0  0  0  0  0  0
    1.9879    0.9580    0.0000 C   0  0  0  0  0  0  0  0  0  0  0  0
    2.4004    0.2435    0.0000 C   0  0  0  0  0  0  0  0  0  0  0  0
    2.4004   -1.0914    0.0000 C   0  0  0  0  0  0  0  0  0  0  0  0
    3.1850   -0.8365    0.0000 C   0  0  0  0  0  0  0  0  0  0  0  0
    1.2032    2.0379    0.0000 C   0  0  0  0  0  0  0  0  0  0  0  0
    1.9154   -0.4240    0.0000 C   0  0  0  0  0  0  0  0  0  0  0  0
    2.4728    1.6254    0.0000 C   0  0  0  0  0  0  0  0  0  0  0  0
    2.2288   -1.8984    0.0000 C   0  0  0  0  0  0  0  0  0  0  0  0
   -0.2257    1.2129    0.0000 C   0  0  0  0  0  0  0  0  0  0  0  0
    0.4888    2.4504    0.0000 C   0  0  0  0  0  0  0  0  0  0  0  0
    3.7981   -1.3885    0.0000 C   0  0  0  0  0  0  0  0  0  0  0  0
   -0.2257    2.0379    0.0000 C   0  0  0  0  0  0  0  0  0  0  0  0
    3.6265   -2.1955    0.0000 C   0  0  0  0  0  0  0  0  0  0  0  0
   -1.6547    1.2129    0.0000 C   0  0  0  0  0  0  0  0  0  0  0  0
    0.8311   -1.6013    0.0000 C   0  0  0  0  0  0  0  0  0  0  0  0
   -2.3691    0.8004    0.0000 C   0  0  3  0  0  0  0  0  0  0  0  0
   -3.0836    1.2129    0.0000 C   0  0  0  0  0  0  0  0  0  0  0  0
   -3.7981    0.8004    0.0000 C   0  0  0  0  0  0  0  0  0  0  0  0
  1 10  1  0  0  0  0
  1 12  1  0  0  0  0
  2 16  1  0  0  0  0
  2 23  1  0  0  0  0
  3 24  1  0  0  0  0
  4  5  1  0  0  0  0
  4  9  1  0  0  0  0
  4 13  1  0  0  0  0
  5 17  2  0  0  0  0
  6 13  2  0  0  0  0
  6 15  1  0  0  0  0
  7 16  2  0  0  0  0
  7 21  1  0  0  0  0
  8 17  1  0  0  0  0
  8 22  1  0  0  0  0
  9 10  1  0  0  0  0
  9 15  2  0  0  0  0
 10 14  2  0  0  0  0
 11 12  2  0  0  0  0
 11 14  1  0  0  0  0
 11 16  1  0  0  0  0
 12 19  1  0  0  0  0
 13 18  1  0  0  0  0
 17 20  1  0  0  0  0
 18 20  2  0  0  0  0
 19 21  2  0  0  0  0
 22 24  1  0  0  0  0
 24 25  1  0  0  0  0
 25 26  1  0  0  0  0
M  END
> <PUBCHEM_COMPOUND_ID_TYPE>
0

> <PUBCHEM_TOTAL_CHARGE>
0

> <PUBCHEM_SUBSTANCE_ID>
310939496

> <PUBCHEM_SUBSTANCE_VERSION>
1

> <PUBCHEM_EXT_DATASOURCE_NAME>
4488

> <PUBCHEM_EXT_DATASOURCE_REGID>
SCHEMBL16117425

> <PUBCHEM_SUBSTANCE_COMMENT>
InChI=1S/C18H19N5O3/c1-3-11(24)9-20-16-4-5-17-21-10-13(23(17)22-16)15-8-12-14(26-15)6-7-19-18(12)25-2/h4-8,10-11,24H,3,9H2,1-2H3,(H,20,22)
InChIKey=HODSRCMIWTUXOT-UHFFFAOYSA-N

> <PUBCHEM_SUBSTANCE_SYNONYM>
SCHEMBL16117425

> <PUBCHEM_XREF_EXT_ID>
SCHEMBL16117425

> <PUBCHEM_EXT_DATASOURCE_URL>
https://www.surechembl.org/

> <PUBCHEM_EXT_SUBSTANCE_URL>
https://www.surechembl.org/chemical/SCHEMBL16117425

> <PUBCHEM_CID_ASSOCIATIONS>
71014846  1

> <PUBCHEM_COORDINATE_TYPE>
1
3

> <PUBCHEM_BONDANNOTATIONS>
24  3  3

$$$$
