310932931
  -OEChem-07211613022D

 30 33  0     1  0  0  0  0  0999 V2000
    4.0206   -2.1419    0.0000 O   0  0  0  0  0  0  0  0  0  0  0  0
    8.4922   -2.2170    0.0000 O   0  0  0  0  0  0  0  0  0  0  0  0
   11.2729   -4.1334    0.0000 O   0  0  0  0  0  0  0  0  0  0  0  0
    4.9225   -0.9770    0.0000 N   0  0  0  0  0  0  0  0  0  0  0  0
    4.8474   -0.1503    0.0000 N   0  0  0  0  0  0  0  0  0  0  0  0
    6.3504   -0.9770    0.0000 N   0  0  0  0  0  0  0  0  0  0  0  0
    7.7783   -3.4570    0.0000 N   0  0  0  0  0  0  0  0  0  0  0  0
    0.0000   -1.8412    0.0000 N   0  0  0  0  0  0  0  0  0  0  0  0
    3.6073   -0.7140    0.0000 C   0  0  0  0  0  0  0  0  0  0  0  0
    4.1710   -1.3152    0.0000 C   0  0  0  0  0  0  0  0  0  0  0  0
    5.6364   -1.3903    0.0000 C   0  0  0  0  0  0  0  0  0  0  0  0
    2.7807   -0.8267    0.0000 C   0  0  0  0  0  0  0  0  0  0  0  0
    4.0206    0.0000    0.0000 C   0  0  0  0  0  0  0  0  0  0  0  0
    5.6364   -2.2170    0.0000 C   0  0  0  0  0  0  0  0  0  0  0  0
    7.0643   -2.2170    0.0000 C   0  0  0  0  0  0  0  0  0  0  0  0
    2.4800   -1.5782    0.0000 C   0  0  0  0  0  0  0  0  0  0  0  0
    2.2922   -0.1503    0.0000 C   0  0  0  0  0  0  0  0  0  0  0  0
    7.0643   -1.3903    0.0000 C   0  0  0  0  0  0  0  0  0  0  0  0
    6.3504   -2.6304    0.0000 C   0  0  0  0  0  0  0  0  0  0  0  0
    7.7783   -2.6304    0.0000 C   0  0  0  0  0  0  0  0  0  0  0  0
    1.1649   -1.0146    0.0000 C   0  0  0  0  0  0  0  0  0  0  0  0
    1.6534   -1.6534    0.0000 C   0  0  0  0  0  0  0  0  0  0  0  0
    1.4655   -0.2630    0.0000 C   0  0  0  0  0  0  0  0  0  0  0  0
    0.3382   -1.0897    0.0000 C   0  0  0  0  0  0  0  0  0  0  0  0
    8.5298   -3.8704    0.0000 C   0  0  0  0  0  0  0  0  0  0  0  0
    9.9577   -3.8704    0.0000 C   0  0  3  0  0  0  0  0  0  0  0  0
    9.2438   -3.4570    0.0000 C   0  0  0  0  0  0  0  0  0  0  0  0
   10.7092   -3.5322    0.0000 C   0  0  0  0  0  0  0  0  0  0  0  0
   10.0704   -4.6970    0.0000 C   0  0  0  0  0  0  0  0  0  0  0  0
   10.8596   -4.8474    0.0000 C   0  0  0  0  0  0  0  0  0  0  0  0
  1 10  1  0  0  0  0
  2 20  2  0  0  0  0
  3 28  1  0  0  0  0
  3 30  1  0  0  0  0
  4  5  1  0  0  0  0
  4 10  1  0  0  0  0
  4 11  1  0  0  0  0
  5 13  2  0  0  0  0
  6 11  2  0  0  0  0
  6 18  1  0  0  0  0
  7 20  1  0  0  0  0
  7 25  1  0  0  0  0
  8 24  3  0  0  0  0
  9 10  2  0  0  0  0
  9 12  1  0  0  0  0
  9 13  1  0  0  0  0
 11 14  1  0  0  0  0
 12 16  2  0  0  0  0
 12 17  1  0  0  0  0
 14 19  2  0  0  0  0
 15 18  2  0  0  0  0
 15 19  1  0  0  0  0
 15 20  1  0  0  0  0
 16 22  1  0  0  0  0
 17 23  2  0  0  0  0
 21 22  2  0  0  0  0
 21 23  1  0  0  0  0
 21 24  1  0  0  0  0
 25 27  1  0  0  0  0
 26 27  1  0  0  0  0
 26 28  1  0  0  0  0
 26 29  1  0  0  0  0
 29 30  1  0  0  0  0
M  END
> <PUBCHEM_COMPOUND_ID_TYPE>
0

> <PUBCHEM_TOTAL_CHARGE>
0

> <PUBCHEM_SUBSTANCE_ID>
310932931

> <PUBCHEM_SUBSTANCE_VERSION>
1

> <PUBCHEM_EXT_DATASOURCE_NAME>
4488

> <PUBCHEM_EXT_DATASOURCE_REGID>
SCHEMBL16110326

> <PUBCHEM_SUBSTANCE_COMMENT>
InChI=1S/C22H21N5O3/c23-11-15-1-3-17(4-2-15)19-13-26-27(22(19)29)20-6-5-18(12-25-20)21(28)24-9-7-16-8-10-30-14-16/h1-6,12-13,16,29H,7-10,14H2,(H,24,28)
InChIKey=CSHOBMHGPLCVGU-UHFFFAOYSA-N

> <PUBCHEM_SUBSTANCE_SYNONYM>
SCHEMBL16110326

> <PUBCHEM_XREF_EXT_ID>
SCHEMBL16110326

> <PUBCHEM_EXT_DATASOURCE_URL>
https://www.surechembl.org/

> <PUBCHEM_EXT_SUBSTANCE_URL>
https://www.surechembl.org/chemical/SCHEMBL16110326

> <PUBCHEM_CID_ASSOCIATIONS>
117601412  1

> <PUBCHEM_COORDINATE_TYPE>
1
3

$$$$
