310937617
  -OEChem-07211613022D

 28 31  0     1  0  0  0  0  0999 V2000
    2.1434    4.3952    0.0000 O   0  0  0  0  0  0  0  0  0  0  0  0
    1.1270    0.6507    0.0000 O   0  0  0  0  0  0  0  0  0  0  0  0
    3.2234    3.6106    0.0000 N   0  0  0  0  0  0  0  0  0  0  0  0
    3.2704    1.8882    0.0000 N   0  0  0  0  0  0  0  0  0  0  0  0
    1.8885    3.6106    0.0000 N   0  0  0  0  0  0  0  0  0  0  0  0
    0.4125   -1.4118    0.0000 N   0  0  0  0  0  0  0  0  0  0  0  0
    2.5559    0.6507    0.0000 C   0  0  0  0  0  0  0  0  0  0  0  0
    2.5559    2.3007    0.0000 C   0  0  0  0  0  0  0  0  0  0  0  0
    1.8414    1.0632    0.0000 C   0  0  0  0  0  0  0  0  0  0  0  0
    2.5559    3.1257    0.0000 C   0  0  0  0  0  0  0  0  0  0  0  0
    2.5559   -0.1743    0.0000 C   0  0  0  0  0  0  0  0  0  0  0  0
    2.9684    4.3952    0.0000 C   0  0  0  0  0  0  0  0  0  0  0  0
    1.8414    1.8882    0.0000 C   0  0  0  0  0  0  0  0  0  0  0  0
    3.2704    1.0632    0.0000 C   0  0  0  0  0  0  0  0  0  0  0  0
    3.4533    5.0626    0.0000 C   0  0  0  0  0  0  0  0  0  0  0  0
    2.9684   -0.8888    0.0000 C   0  0  0  0  0  0  0  0  0  0  0  0
    2.1434   -0.8888    0.0000 C   0  0  0  0  0  0  0  0  0  0  0  0
    1.1270   -0.1743    0.0000 C   0  0  3  0  0  0  0  0  0  0  0  0
    3.9383    5.7301    0.0000 C   0  0  0  0  0  0  0  0  0  0  0  0
    4.1208    4.5777    0.0000 C   0  0  0  0  0  0  0  0  0  0  0  0
    2.7859    5.5476    0.0000 C   0  0  0  0  0  0  0  0  0  0  0  0
    0.4125   -0.5868    0.0000 C   0  0  0  0  0  0  0  0  0  0  0  0
    1.8414   -0.5868    0.0000 C   0  0  0  0  0  0  0  0  0  0  0  0
    1.1270   -1.8243    0.0000 C   0  0  0  0  0  0  0  0  0  0  0  0
   -0.3020   -1.8243    0.0000 C   0  0  0  0  0  0  0  0  0  0  0  0
    1.1270   -2.6493    0.0000 C   0  0  0  0  0  0  0  0  0  0  0  0
   -0.3020   -2.6493    0.0000 C   0  0  0  0  0  0  0  0  0  0  0  0
    0.4125   -3.0618    0.0000 C   0  0  0  0  0  0  0  0  0  0  0  0
  1  5  1  0  0  0  0
  1 12  1  0  0  0  0
  2  9  1  0  0  0  0
  2 18  1  0  0  0  0
  3 10  1  0  0  0  0
  3 12  2  0  0  0  0
  4  8  2  0  0  0  0
  4 14  1  0  0  0  0
  5 10  2  0  0  0  0
  6 22  1  0  0  0  0
  6 24  1  0  0  0  0
  6 25  1  0  0  0  0
  7  9  1  0  0  0  0
  7 11  1  0  0  0  0
  7 14  2  0  0  0  0
  8 10  1  0  0  0  0
  8 13  1  0  0  0  0
  9 13  2  0  0  0  0
 11 16  1  0  0  0  0
 11 17  1  0  0  0  0
 12 15  1  0  0  0  0
 15 19  1  0  0  0  0
 15 20  1  0  0  0  0
 15 21  1  0  0  0  0
 16 17  1  0  0  0  0
 18 22  1  0  0  0  0
 18 23  1  0  0  0  0
 24 26  1  0  0  0  0
 25 27  1  0  0  0  0
 26 28  1  0  0  0  0
 27 28  1  0  0  0  0
M  END
> <PUBCHEM_COMPOUND_ID_TYPE>
0

> <PUBCHEM_TOTAL_CHARGE>
0

> <PUBCHEM_SUBSTANCE_ID>
310937617

> <PUBCHEM_SUBSTANCE_VERSION>
1

> <PUBCHEM_EXT_DATASOURCE_NAME>
4488

> <PUBCHEM_EXT_DATASOURCE_REGID>
SCHEMBL16115399

> <PUBCHEM_SUBSTANCE_COMMENT>
InChI=1S/C22H32N4O2/c1-15(14-26-10-6-5-7-11-26)27-19-12-18(23-13-17(19)16-8-9-16)20-24-21(28-25-20)22(2,3)4/h12-13,15-16H,5-11,14H2,1-4H3
InChIKey=MUJCJCLTFMHDQA-UHFFFAOYSA-N

> <PUBCHEM_SUBSTANCE_SYNONYM>
SCHEMBL16115399

> <PUBCHEM_XREF_EXT_ID>
SCHEMBL16115399

> <PUBCHEM_EXT_DATASOURCE_URL>
https://www.surechembl.org/

> <PUBCHEM_EXT_SUBSTANCE_URL>
https://www.surechembl.org/chemical/SCHEMBL16115399

> <PUBCHEM_CID_ASSOCIATIONS>
86276089  1

> <PUBCHEM_COORDINATE_TYPE>
1
3

$$$$
