310939083
  -OEChem-07211613022D

 18 18  0     1  0  0  0  0  0999 V2000
    4.5360    0.2075    0.0000 O   0  0  0  0  0  0  0  0  0  0  0  0
    3.1071    0.2075    0.0000 O   0  0  0  0  0  0  0  0  0  0  0  0
    5.2505   -1.8550    0.0000 O   0  0  0  0  0  0  0  0  0  0  0  0
    1.0815    0.2075    0.0000 N   0  0  0  0  0  0  0  0  0  0  0  0
    1.7605    1.4450    0.0000 C   0  0  3  0  0  0  0  0  0  0  0  0
    1.7605    0.6200    0.0000 C   0  0  0  0  0  0  0  0  0  0  0  0
    3.8216    1.4450    0.0000 C   0  0  3  0  0  0  0  0  0  0  0  0
    3.1071    1.8575    0.0000 C   0  0  0  0  0  0  0  0  0  0  0  0
    3.8216    0.6200    0.0000 C   0  0  0  0  0  0  0  0  0  0  0  0
    2.4750    0.2075    0.0000 C   0  0  0  0  0  0  0  0  0  0  0  0
    1.0461    1.8575    0.0000 C   0  0  0  0  0  0  0  0  0  0  0  0
    1.0465   -0.6170    0.0000 C   0  0  0  0  0  0  0  0  0  0  0  0
    2.4750   -0.6170    0.0000 C   0  0  0  0  0  0  0  0  0  0  0  0
    4.5360    1.8575    0.0000 C   0  0  0  0  0  0  0  0  0  0  0  0
    1.7605   -1.0291    0.0000 C   0  0  0  0  0  0  0  0  0  0  0  0
    4.5360   -0.6175    0.0000 C   0  0  0  0  0  0  0  0  0  0  0  0
    0.3316    1.4450    0.0000 C   0  0  0  0  0  0  0  0  0  0  0  0
    5.2505   -1.0300    0.0000 C   0  0  0  0  0  0  0  0  0  0  0  0
  1  9  1  0  0  0  0
  1 16  1  0  0  0  0
  2  9  2  0  0  0  0
  3 18  1  0  0  0  0
  4  6  2  0  0  0  0
  4 12  1  0  0  0  0
  5  6  1  0  0  0  0
  5  8  1  0  0  0  0
  5 11  1  0  0  0  0
  6 10  1  0  0  0  0
  7  8  1  0  0  0  0
  7  9  1  0  0  0  0
  7 14  1  0  0  0  0
 10 13  2  0  0  0  0
 11 17  1  0  0  0  0
 12 15  2  0  0  0  0
 13 15  1  0  0  0  0
 16 18  1  0  0  0  0
M  END
> <PUBCHEM_COMPOUND_ID_TYPE>
0

> <PUBCHEM_TOTAL_CHARGE>
0

> <PUBCHEM_SUBSTANCE_ID>
310939083

> <PUBCHEM_SUBSTANCE_VERSION>
1

> <PUBCHEM_EXT_DATASOURCE_NAME>
4488

> <PUBCHEM_EXT_DATASOURCE_REGID>
SCHEMBL16117002

> <PUBCHEM_SUBSTANCE_COMMENT>
InChI=1S/C14H21NO3/c1-3-12(13-6-4-5-7-15-13)10-11(2)14(17)18-9-8-16/h4-7,11-12,16H,3,8-10H2,1-2H3
InChIKey=WYCXKZMZGLHLRE-UHFFFAOYSA-N

> <PUBCHEM_SUBSTANCE_SYNONYM>
SCHEMBL16117002

> <PUBCHEM_XREF_EXT_ID>
SCHEMBL16117002

> <PUBCHEM_EXT_DATASOURCE_URL>
https://www.surechembl.org/

> <PUBCHEM_EXT_SUBSTANCE_URL>
https://www.surechembl.org/chemical/SCHEMBL16117002

> <PUBCHEM_CID_ASSOCIATIONS>
60052864  1

> <PUBCHEM_COORDINATE_TYPE>
1
3

$$$$
