310945978
  -OEChem-07211613022D

 35 36  0     1  0  0  0  0  0999 V2000
    1.6664   -3.0690    0.0000 F   0  0  0  0  0  0  0  0  0  0  0  0
    1.3747   -4.1660    0.0000 F   0  0  0  0  0  0  0  0  0  0  0  0
    0.2778   -3.8605    0.0000 F   0  0  0  0  0  0  0  0  0  0  0  0
    0.9582   -0.5416    0.0000 O   0  0  0  0  0  0  0  0  0  0  0  0
    0.1250    2.8468    0.0000 O   0  0  0  0  0  0  0  0  0  0  0  0
    0.3194    1.4165    0.0000 O   0  0  0  0  0  0  0  0  0  0  0  0
    2.9995   -1.2637    0.0000 O   0  0  0  0  0  0  0  0  0  0  0  0
   -1.9719   -2.6663    0.0000 N   0  0  0  0  0  0  0  0  0  0  0  0
   -2.7496   -2.4163    0.0000 N   0  0  0  0  0  0  0  0  0  0  0  0
   -2.2774    0.1111    0.0000 N   0  0  3  0  0  0  0  0  0  0  0  0
   -0.9721    1.8747    0.0000 N   0  0  0  0  0  0  0  0  0  0  0  0
   -1.4998   -1.9719    0.0000 C   0  0  0  0  0  0  0  0  0  0  0  0
   -0.6804   -1.9858    0.0000 C   0  0  0  0  0  0  0  0  0  0  0  0
   -1.9858   -1.3053    0.0000 C   0  0  0  0  0  0  0  0  0  0  0  0
    0.5416   -2.7218    0.0000 C   0  0  0  0  0  0  0  0  0  0  0  0
   -0.2638   -2.7079    0.0000 C   0  0  0  0  0  0  0  0  0  0  0  0
   -2.7496   -1.5553    0.0000 C   0  0  0  0  0  0  0  0  0  0  0  0
   -0.2638   -1.2637    0.0000 C   0  0  0  0  0  0  0  0  0  0  0  0
    0.9582   -3.4578    0.0000 C   0  0  0  0  0  0  0  0  0  0  0  0
    0.5416   -1.2637    0.0000 C   0  0  0  0  0  0  0  0  0  0  0  0
    0.9582   -1.9858    0.0000 C   0  0  0  0  0  0  0  0  0  0  0  0
   -1.7358   -0.4999    0.0000 C   0  0  0  0  0  0  0  0  0  0  0  0
   -3.4300   -1.0693    0.0000 C   0  0  0  0  0  0  0  0  0  0  0  0
   -2.0136    0.9165    0.0000 C   0  0  0  0  0  0  0  0  0  0  0  0
    1.7914   -0.5416    0.0000 C   0  0  0  0  0  0  0  0  0  0  0  0
   -1.2359    1.0832    0.0000 C   0  0  0  0  0  0  0  0  0  0  0  0
   -3.0829   -0.0555    0.0000 C   0  0  0  0  0  0  0  0  0  0  0  0
   -0.1944    2.0553    0.0000 C   0  0  0  0  0  0  0  0  0  0  0  0
   -0.3611    3.5133    0.0000 C   0  0  0  0  0  0  0  0  0  0  0  0
    2.1802   -1.2498    0.0000 C   0  0  0  0  0  0  0  0  0  0  0  0
   -1.5137    2.4857    0.0000 C   0  0  0  0  0  0  0  0  0  0  0  0
    0.1805    4.0271    0.0000 C   0  0  0  0  0  0  0  0  0  0  0  0
   -0.9860    3.0273    0.0000 C   0  0  0  0  0  0  0  0  0  0  0  0
   -0.9165    4.1660    0.0000 C   0  0  0  0  0  0  0  0  0  0  0  0
    3.4300   -2.0136    0.0000 C   0  0  0  0  0  0  0  0  0  0  0  0
  1 19  1  0  0  0  0
  2 19  1  0  0  0  0
  3 19  1  0  0  0  0
  4 20  1  0  0  0  0
  4 25  1  0  0  0  0
  5 28  1  0  0  0  0
  5 29  1  0  0  0  0
  6 28  2  0  0  0  0
  7 30  1  0  0  0  0
  7 35  1  0  0  0  0
  8  9  1  0  0  0  0
  8 12  1  0  0  0  0
  9 17  2  0  0  0  0
 10 22  1  0  0  0  0
 10 24  1  0  0  0  0
 10 27  1  0  0  0  0
 11 26  1  0  0  0  0
 11 28  1  0  0  0  0
 11 31  1  0  0  0  0
 12 13  1  0  0  0  0
 12 14  2  0  0  0  0
 13 16  2  0  0  0  0
 13 18  1  0  0  0  0
 14 17  1  0  0  0  0
 14 22  1  0  0  0  0
 15 16  1  0  0  0  0
 15 19  1  0  0  0  0
 15 21  2  0  0  0  0
 17 23  1  0  0  0  0
 18 20  2  0  0  0  0
 20 21  1  0  0  0  0
 24 26  1  0  0  0  0
 25 30  1  0  0  0  0
 29 32  1  0  0  0  0
 29 33  1  0  0  0  0
 29 34  1  0  0  0  0
M  END
> <PUBCHEM_COMPOUND_ID_TYPE>
0

> <PUBCHEM_TOTAL_CHARGE>
0

> <PUBCHEM_SUBSTANCE_ID>
310945978

> <PUBCHEM_SUBSTANCE_VERSION>
1

> <PUBCHEM_EXT_DATASOURCE_NAME>
4488

> <PUBCHEM_EXT_DATASOURCE_REGID>
SCHEMBL16124083

> <PUBCHEM_SUBSTANCE_COMMENT>
InChI=1S/C24H35F3N4O4/c1-16-20(15-30(5)8-9-31(6)22(32)35-23(2,3)4)21(29-28-16)17-12-18(24(25,26)27)14-19(13-17)34-11-10-33-7/h12-14H,8-11,15H2,1-7H3,(H,28,29)
InChIKey=TVGQECJPGDRTGS-UHFFFAOYSA-N

> <PUBCHEM_SUBSTANCE_SYNONYM>
SCHEMBL16124083

> <PUBCHEM_XREF_EXT_ID>
SCHEMBL16124083

> <PUBCHEM_EXT_DATASOURCE_URL>
https://www.surechembl.org/

> <PUBCHEM_EXT_SUBSTANCE_URL>
https://www.surechembl.org/chemical/SCHEMBL16124083

> <PUBCHEM_CID_ASSOCIATIONS>
117611953  1

> <PUBCHEM_COORDINATE_TYPE>
1
3

$$$$
