310941973
  -OEChem-07211613022D

 22 24  0     1  0  0  0  0  0999 V2000
   -3.3894    0.0619    0.0000 O   0  0  0  0  0  0  0  0  0  0  0  0
    0.9968   -2.2618    0.0000 N   0  0  0  0  0  0  0  0  0  0  0  0
    1.4781   -1.5881    0.0000 N   0  0  0  0  0  0  0  0  0  0  0  0
    2.0694    0.0344    0.0000 N   0  0  3  0  0  0  0  0  0  0  0  0
    3.3894    1.7806    0.0000 N   0  0  0  0  0  0  0  0  0  0  0  0
    0.2131   -1.1481    0.0000 C   0  0  0  0  0  0  0  0  0  0  0  0
    0.2131   -1.9731    0.0000 C   0  0  0  0  0  0  0  0  0  0  0  0
    0.9831   -0.9006    0.0000 C   0  0  0  0  0  0  0  0  0  0  0  0
   -1.2168   -1.1481    0.0000 C   0  0  0  0  0  0  0  0  0  0  0  0
   -0.5019   -0.7494    0.0000 C   0  0  0  0  0  0  0  0  0  0  0  0
   -0.5019   -2.3855    0.0000 C   0  0  0  0  0  0  0  0  0  0  0  0
   -1.9593   -0.7356    0.0000 C   0  0  0  0  0  0  0  0  0  0  0  0
   -1.2030   -1.9869    0.0000 C   0  0  0  0  0  0  0  0  0  0  0  0
    1.2581   -0.1169    0.0000 C   0  0  0  0  0  0  0  0  0  0  0  0
   -2.6469   -1.1481    0.0000 C   0  0  0  0  0  0  0  0  0  0  0  0
   -1.9456    0.0893    0.0000 C   0  0  0  0  0  0  0  0  0  0  0  0
   -3.3757   -0.7494    0.0000 C   0  0  0  0  0  0  0  0  0  0  0  0
   -2.6743    0.5019    0.0000 C   0  0  0  0  0  0  0  0  0  0  0  0
    2.3305    0.8456    0.0000 C   0  0  0  0  0  0  0  0  0  0  0  0
    2.6469   -0.5707    0.0000 C   0  0  0  0  0  0  0  0  0  0  0  0
    3.1280    1.0106    0.0000 C   0  0  0  0  0  0  0  0  0  0  0  0
    2.7843    2.3855    0.0000 C   0  0  0  0  0  0  0  0  0  0  0  0
  1 17  1  0  0  0  0
  1 18  1  0  0  0  0
  2  3  1  0  0  0  0
  2  7  1  0  0  0  0
  3  8  2  0  0  0  0
  4 14  1  0  0  0  0
  4 19  1  0  0  0  0
  4 20  1  0  0  0  0
  5 21  1  0  0  0  0
  5 22  1  0  0  0  0
  6  7  1  0  0  0  0
  6  8  1  0  0  0  0
  6 10  2  0  0  0  0
  7 11  2  0  0  0  0
  8 14  1  0  0  0  0
  9 10  1  0  0  0  0
  9 12  1  0  0  0  0
  9 13  2  0  0  0  0
 11 13  1  0  0  0  0
 12 15  1  0  0  0  0
 12 16  1  0  0  0  0
 15 17  1  0  0  0  0
 16 18  1  0  0  0  0
 19 21  1  0  0  0  0
M  END
> <PUBCHEM_COMPOUND_ID_TYPE>
0

> <PUBCHEM_TOTAL_CHARGE>
0

> <PUBCHEM_SUBSTANCE_ID>
310941973

> <PUBCHEM_SUBSTANCE_VERSION>
1

> <PUBCHEM_EXT_DATASOURCE_NAME>
4488

> <PUBCHEM_EXT_DATASOURCE_REGID>
SCHEMBL16120007

> <PUBCHEM_SUBSTANCE_COMMENT>
InChI=1S/C17H26N4O/c1-18-7-8-21(2)12-17-15-11-14(3-4-16(15)19-20-17)13-5-9-22-10-6-13/h3-4,11,13,18H,5-10,12H2,1-2H3,(H,19,20)
InChIKey=RHKOZVNTKODXJB-UHFFFAOYSA-N

> <PUBCHEM_SUBSTANCE_SYNONYM>
SCHEMBL16120007

> <PUBCHEM_XREF_EXT_ID>
SCHEMBL16120007

> <PUBCHEM_EXT_DATASOURCE_URL>
https://www.surechembl.org/

> <PUBCHEM_EXT_SUBSTANCE_URL>
https://www.surechembl.org/chemical/SCHEMBL16120007

> <PUBCHEM_CID_ASSOCIATIONS>
117608679  1

> <PUBCHEM_COORDINATE_TYPE>
1
3

$$$$
