310933009
  -OEChem-07211613022D

 29 31  0     1  0  0  0  0  0999 V2000
    2.8516   -2.1228    0.0000 O   0  0  0  0  0  0  0  0  0  0  0  0
    0.1267   -2.3763    0.0000 O   0  0  0  0  0  0  0  0  0  0  0  0
    7.3507   -2.2179    0.0000 O   0  0  0  0  0  0  0  0  0  0  0  0
    6.6536   -5.9249    0.0000 O   0  0  0  0  0  0  0  0  0  0  0  0
    3.7704   -0.9822    0.0000 N   0  0  0  0  0  0  0  0  0  0  0  0
    3.6754   -0.1584    0.0000 N   0  0  0  0  0  0  0  0  0  0  0  0
    5.1962   -0.9822    0.0000 N   0  0  0  0  0  0  0  0  0  0  0  0
    0.0000   -0.9822    0.0000 N   0  0  0  0  0  0  0  0  0  0  0  0
    6.6219   -3.4536    0.0000 N   0  0  0  0  0  0  0  0  0  0  0  0
    2.4397   -0.6970    0.0000 C   0  0  0  0  0  0  0  0  0  0  0  0
    3.0099   -1.2990    0.0000 C   0  0  0  0  0  0  0  0  0  0  0  0
    4.4675   -1.3941    0.0000 C   0  0  0  0  0  0  0  0  0  0  0  0
    1.6159   -0.7921    0.0000 C   0  0  0  0  0  0  0  0  0  0  0  0
    2.8516    0.0000    0.0000 C   0  0  0  0  0  0  0  0  0  0  0  0
    4.4675   -2.2179    0.0000 C   0  0  0  0  0  0  0  0  0  0  0  0
    1.2990   -1.5842    0.0000 C   0  0  0  0  0  0  0  0  0  0  0  0
    5.8932   -2.2179    0.0000 C   0  0  0  0  0  0  0  0  0  0  0  0
    1.1723   -0.1584    0.0000 C   0  0  0  0  0  0  0  0  0  0  0  0
    5.8932   -1.3941    0.0000 C   0  0  0  0  0  0  0  0  0  0  0  0
    5.1962   -2.6298    0.0000 C   0  0  0  0  0  0  0  0  0  0  0  0
    0.4752   -1.6476    0.0000 C   0  0  0  0  0  0  0  0  0  0  0  0
    6.6219   -2.6298    0.0000 C   0  0  0  0  0  0  0  0  0  0  0  0
    0.3169   -0.2218    0.0000 C   0  0  0  0  0  0  0  0  0  0  0  0
    7.3507   -3.8654    0.0000 C   0  0  3  0  0  0  0  0  0  0  0  0
    7.3507   -4.6892    0.0000 C   0  0  0  0  0  0  0  0  0  0  0  0
    0.6020   -3.0416    0.0000 C   0  0  0  0  0  0  0  0  0  0  0  0
    8.0794   -3.4536    0.0000 C   0  0  0  0  0  0  0  0  0  0  0  0
    6.6536   -5.1011    0.0000 C   0  0  0  0  0  0  0  0  0  0  0  0
    7.3507   -6.3368    0.0000 C   0  0  0  0  0  0  0  0  0  0  0  0
  1 11  1  0  0  0  0
  2 21  1  0  0  0  0
  2 26  1  0  0  0  0
  3 22  2  0  0  0  0
  4 28  1  0  0  0  0
  4 29  1  0  0  0  0
  5  6  1  0  0  0  0
  5 11  1  0  0  0  0
  5 12  1  0  0  0  0
  6 14  2  0  0  0  0
  7 12  2  0  0  0  0
  7 19  1  0  0  0  0
  8 21  1  0  0  0  0
  8 23  2  0  0  0  0
  9 22  1  0  0  0  0
  9 24  1  0  0  0  0
 10 11  2  0  0  0  0
 10 13  1  0  0  0  0
 10 14  1  0  0  0  0
 12 15  1  0  0  0  0
 13 16  1  0  0  0  0
 13 18  2  0  0  0  0
 15 20  2  0  0  0  0
 16 21  2  0  0  0  0
 17 19  2  0  0  0  0
 17 20  1  0  0  0  0
 17 22  1  0  0  0  0
 18 23  1  0  0  0  0
 24 25  1  0  0  0  0
 24 27  1  0  0  0  0
 25 28  1  0  0  0  0
M  END
> <PUBCHEM_COMPOUND_ID_TYPE>
0

> <PUBCHEM_TOTAL_CHARGE>
0

> <PUBCHEM_SUBSTANCE_ID>
310933009

> <PUBCHEM_SUBSTANCE_VERSION>
1

> <PUBCHEM_EXT_DATASOURCE_NAME>
4488

> <PUBCHEM_EXT_DATASOURCE_REGID>
SCHEMBL16110408

> <PUBCHEM_SUBSTANCE_COMMENT>
InChI=1S/C20H23N5O4/c1-13(7-9-28-2)24-19(26)15-4-5-17(22-11-15)25-20(27)16(12-23-25)14-6-8-21-18(10-14)29-3/h4-6,8,10-13,27H,7,9H2,1-3H3,(H,24,26)
InChIKey=RAJROFSKAJCLAF-UHFFFAOYSA-N

> <PUBCHEM_SUBSTANCE_SYNONYM>
SCHEMBL16110408

> <PUBCHEM_XREF_EXT_ID>
SCHEMBL16110408

> <PUBCHEM_EXT_DATASOURCE_URL>
https://www.surechembl.org/

> <PUBCHEM_EXT_SUBSTANCE_URL>
https://www.surechembl.org/chemical/SCHEMBL16110408

> <PUBCHEM_CID_ASSOCIATIONS>
117601479  1

> <PUBCHEM_COORDINATE_TYPE>
1
3

$$$$
