310934949
  -OEChem-07211613022D

 28 30  0     1  0  0  0  0  0999 V2000
    3.1895    1.8414    0.0000 F   0  0  0  0  0  0  0  0  0  0  0  0
    2.3645   -6.1875    0.0000 F   0  0  0  0  0  0  0  0  0  0  0  0
    3.1895   -5.3625    0.0000 F   0  0  0  0  0  0  0  0  0  0  0  0
    1.5395   -5.3625    0.0000 F   0  0  0  0  0  0  0  0  0  0  0  0
    1.1270    1.1270    0.0000 O   0  0  0  0  0  0  0  0  0  0  0  0
    1.1270   -0.3020    0.0000 O   0  0  0  0  0  0  0  0  0  0  0  0
    3.0789   -3.3000    0.0000 N   0  0  0  0  0  0  0  0  0  0  0  0
    1.6500   -3.3000    0.0000 N   0  0  0  0  0  0  0  0  0  0  0  0
    2.3645    0.4125    0.0000 C   0  0  3  0  0  0  0  0  0  0  0  0
    2.3645   -0.4125    0.0000 C   0  0  0  0  0  0  0  0  0  0  0  0
    3.1895    0.4125    0.0000 C   0  0  0  0  0  0  0  0  0  0  0  0
    1.5395    0.4125    0.0000 C   0  0  0  0  0  0  0  0  0  0  0  0
    3.6020    1.1270    0.0000 C   0  0  0  0  0  0  0  0  0  0  0  0
    2.3645   -2.0625    0.0000 C   0  0  0  0  0  0  0  0  0  0  0  0
    3.0789   -0.8250    0.0000 C   0  0  0  0  0  0  0  0  0  0  0  0
    1.6500   -0.8250    0.0000 C   0  0  0  0  0  0  0  0  0  0  0  0
    2.3645   -2.8875    0.0000 C   0  0  0  0  0  0  0  0  0  0  0  0
    2.3645    1.2375    0.0000 C   0  0  0  0  0  0  0  0  0  0  0  0
    3.6020   -0.3020    0.0000 C   0  0  0  0  0  0  0  0  0  0  0  0
    3.0789   -1.6500    0.0000 C   0  0  0  0  0  0  0  0  0  0  0  0
    1.6500   -1.6500    0.0000 C   0  0  0  0  0  0  0  0  0  0  0  0
    2.3645   -4.5375    0.0000 C   0  0  0  0  0  0  0  0  0  0  0  0
    2.3645   -5.3625    0.0000 C   0  0  0  0  0  0  0  0  0  0  0  0
    4.4270    1.1270    0.0000 C   0  0  0  0  0  0  0  0  0  0  0  0
    3.0789   -4.1250    0.0000 C   0  0  0  0  0  0  0  0  0  0  0  0
    1.6500   -4.1250    0.0000 C   0  0  0  0  0  0  0  0  0  0  0  0
    4.4270   -0.3020    0.0000 C   0  0  0  0  0  0  0  0  0  0  0  0
    4.8395    0.4125    0.0000 C   0  0  0  0  0  0  0  0  0  0  0  0
  1 13  1  0  0  0  0
  2 23  1  0  0  0  0
  3 23  1  0  0  0  0
  4 23  1  0  0  0  0
  5 12  2  0  0  0  0
  6 12  1  0  0  0  0
  7 17  2  0  0  0  0
  7 25  1  0  0  0  0
  8 17  1  0  0  0  0
  8 26  2  0  0  0  0
  9 10  1  0  0  0  0
  9 11  1  0  0  0  0
  9 12  1  0  0  0  0
  9 18  1  0  0  0  0
 10 15  2  0  0  0  0
 10 16  1  0  0  0  0
 11 13  2  0  0  0  0
 11 19  1  0  0  0  0
 13 24  1  0  0  0  0
 14 17  1  0  0  0  0
 14 20  2  0  0  0  0
 14 21  1  0  0  0  0
 15 20  1  0  0  0  0
 16 21  2  0  0  0  0
 19 27  2  0  0  0  0
 22 23  1  0  0  0  0
 22 25  2  0  0  0  0
 22 26  1  0  0  0  0
 24 28  2  0  0  0  0
 27 28  1  0  0  0  0
M  END
> <PUBCHEM_COMPOUND_ID_TYPE>
0

> <PUBCHEM_TOTAL_CHARGE>
0

> <PUBCHEM_SUBSTANCE_ID>
310934949

> <PUBCHEM_SUBSTANCE_VERSION>
1

> <PUBCHEM_EXT_DATASOURCE_NAME>
4488

> <PUBCHEM_EXT_DATASOURCE_REGID>
SCHEMBL16112464

> <PUBCHEM_SUBSTANCE_COMMENT>
InChI=1S/C20H14F4N2O2/c1-19(18(27)28,15-4-2-3-5-16(15)21)13-8-6-12(7-9-13)17-25-10-14(11-26-17)20(22,23)24/h2-11H,1H3,(H,27,28)
InChIKey=MWMVHFIALCRRNN-UHFFFAOYSA-N

> <PUBCHEM_SUBSTANCE_SYNONYM>
SCHEMBL16112464

> <PUBCHEM_XREF_EXT_ID>
SCHEMBL16112464

> <PUBCHEM_EXT_DATASOURCE_URL>
https://www.surechembl.org/

> <PUBCHEM_EXT_SUBSTANCE_URL>
https://www.surechembl.org/chemical/SCHEMBL16112464

> <PUBCHEM_CID_ASSOCIATIONS>
117603071  1

> <PUBCHEM_COORDINATE_TYPE>
1
3

$$$$
