310947728
  -OEChem-07211613022D

 19 20  0     1  0  0  0  0  0999 V2000
   -2.5398    2.2367    0.0000 Cl  0  0  0  0  0  0  0  0  0  0  0  0
   -2.0050   -1.5692    0.0000 N   0  0  0  0  0  0  0  0  0  0  0  0
   -1.5201   -2.2367    0.0000 N   0  0  0  0  0  0  0  0  0  0  0  0
   -2.8369    0.8390    0.0000 N   0  0  0  0  0  0  0  0  0  0  0  0
    0.6935   -1.1567    0.0000 N   0  0  3  0  0  0  0  0  0  0  0  0
    2.8369   -0.7442    0.0000 N   0  0  0  0  0  0  0  0  0  0  0  0
   -1.5201   -0.9018    0.0000 C   0  0  0  0  0  0  0  0  0  0  0  0
   -1.7750   -0.1172    0.0000 C   0  0  0  0  0  0  0  0  0  0  0  0
   -0.7354   -1.1567    0.0000 C   0  0  0  0  0  0  0  0  0  0  0  0
   -1.2230    0.4959    0.0000 C   0  0  0  0  0  0  0  0  0  0  0  0
   -1.4779    1.2805    0.0000 C   0  0  0  0  0  0  0  0  0  0  0  0
   -0.7354   -1.9817    0.0000 C   0  0  0  0  0  0  0  0  0  0  0  0
   -2.5820    0.0543    0.0000 C   0  0  0  0  0  0  0  0  0  0  0  0
   -0.0210   -0.7442    0.0000 C   0  0  0  0  0  0  0  0  0  0  0  0
   -2.2849    1.4521    0.0000 C   0  0  0  0  0  0  0  0  0  0  0  0
   -0.9259    1.8936    0.0000 C   0  0  0  0  0  0  0  0  0  0  0  0
    1.4080   -0.7442    0.0000 C   0  0  0  0  0  0  0  0  0  0  0  0
    0.6935   -1.9817    0.0000 C   0  0  0  0  0  0  0  0  0  0  0  0
    2.1224   -1.1567    0.0000 C   0  0  0  0  0  0  0  0  0  0  0  0
  1 15  1  0  0  0  0
  2  3  1  0  0  0  0
  2  7  2  0  0  0  0
  3 12  1  0  0  0  0
  4 13  1  0  0  0  0
  4 15  2  0  0  0  0
  5 14  1  0  0  0  0
  5 17  1  0  0  0  0
  5 18  1  0  0  0  0
  6 19  1  0  0  0  0
  7  8  1  0  0  0  0
  7  9  1  0  0  0  0
  8 10  1  0  0  0  0
  8 13  2  0  0  0  0
  9 12  2  0  0  0  0
  9 14  1  0  0  0  0
 10 11  2  0  0  0  0
 11 15  1  0  0  0  0
 11 16  1  0  0  0  0
 17 19  1  0  0  0  0
M  END
> <PUBCHEM_COMPOUND_ID_TYPE>
0

> <PUBCHEM_TOTAL_CHARGE>
0

> <PUBCHEM_SUBSTANCE_ID>
310947728

> <PUBCHEM_SUBSTANCE_VERSION>
1

> <PUBCHEM_EXT_DATASOURCE_NAME>
4488

> <PUBCHEM_EXT_DATASOURCE_REGID>
SCHEMBL16125900

> <PUBCHEM_SUBSTANCE_COMMENT>
InChI=1S/C13H18ClN5/c1-9-5-10(6-16-13(9)14)12-11(7-17-18-12)8-19(2)4-3-15/h5-7H,3-4,8,15H2,1-2H3,(H,17,18)
InChIKey=NNLWXOVVYHXYHB-UHFFFAOYSA-N

> <PUBCHEM_SUBSTANCE_SYNONYM>
SCHEMBL16125900

> <PUBCHEM_XREF_EXT_ID>
SCHEMBL16125900

> <PUBCHEM_EXT_DATASOURCE_URL>
https://www.surechembl.org/

> <PUBCHEM_EXT_SUBSTANCE_URL>
https://www.surechembl.org/chemical/SCHEMBL16125900

> <PUBCHEM_CID_ASSOCIATIONS>
85470865  1

> <PUBCHEM_COORDINATE_TYPE>
1
3

$$$$
