310942951
  -OEChem-07211613022D

 19 20  0     1  0  0  0  0  0999 V2000
   -2.5390   -1.1579    0.0000 Br  0  0  0  0  0  0  0  0  0  0  0  0
   -0.3767    0.6278    0.0000 F   0  0  0  0  0  0  0  0  0  0  0  0
   -0.1116    1.7439    0.0000 F   0  0  0  0  0  0  0  0  0  0  0  0
    1.0323    1.4509    0.0000 F   0  0  0  0  0  0  0  0  0  0  0  0
    1.3253    0.9208    0.0000 O   0  0  0  0  0  0  0  0  0  0  0  0
    2.0508   -0.2372    0.0000 N   0  0  0  0  0  0  0  0  0  0  0  0
    0.7254    0.3627    0.0000 C   0  0  3  0  0  0  0  0  0  0  0  0
    0.3209    1.0602    0.0000 C   0  0  0  0  0  0  0  0  0  0  0  0
   -0.0558    0.0976    0.0000 C   0  0  0  0  0  0  0  0  0  0  0  0
    1.2137   -0.3209    0.0000 C   0  0  0  0  0  0  0  0  0  0  0  0
   -0.7813    0.4883    0.0000 C   0  0  0  0  0  0  0  0  0  0  0  0
   -0.0697   -0.7394    0.0000 C   0  0  0  0  0  0  0  0  0  0  0  0
    0.8789   -1.0742    0.0000 C   0  0  0  0  0  0  0  0  0  0  0  0
   -1.4928    0.0976    0.0000 C   0  0  0  0  0  0  0  0  0  0  0  0
   -0.7673   -1.1440    0.0000 C   0  0  0  0  0  0  0  0  0  0  0  0
   -1.5067   -0.7394    0.0000 C   0  0  0  0  0  0  0  0  0  0  0  0
    2.5390   -0.9208    0.0000 C   0  0  0  0  0  0  0  0  0  0  0  0
    1.3672   -1.7439    0.0000 C   0  0  0  0  0  0  0  0  0  0  0  0
    2.2042   -1.6601    0.0000 C   0  0  0  0  0  0  0  0  0  0  0  0
  1 16  1  0  0  0  0
  2  8  1  0  0  0  0
  3  8  1  0  0  0  0
  4  8  1  0  0  0  0
  5  7  1  0  0  0  0
  6 10  1  0  0  0  0
  6 17  2  0  0  0  0
  7  8  1  0  0  0  0
  7  9  1  0  0  0  0
  7 10  1  0  0  0  0
  9 11  2  0  0  0  0
  9 12  1  0  0  0  0
 10 13  2  0  0  0  0
 11 14  1  0  0  0  0
 12 15  2  0  0  0  0
 13 18  1  0  0  0  0
 14 16  2  0  0  0  0
 15 16  1  0  0  0  0
 17 19  1  0  0  0  0
 18 19  2  0  0  0  0
M  END
> <PUBCHEM_COMPOUND_ID_TYPE>
0

> <PUBCHEM_TOTAL_CHARGE>
0

> <PUBCHEM_SUBSTANCE_ID>
310942951

> <PUBCHEM_SUBSTANCE_VERSION>
1

> <PUBCHEM_EXT_DATASOURCE_NAME>
4488

> <PUBCHEM_EXT_DATASOURCE_REGID>
SCHEMBL16121010

> <PUBCHEM_SUBSTANCE_COMMENT>
InChI=1S/C13H9BrF3NO/c14-10-6-4-9(5-7-10)12(19,13(15,16)17)11-3-1-2-8-18-11/h1-8,19H
InChIKey=DUNFPLPIGYDYAH-UHFFFAOYSA-N

> <PUBCHEM_SUBSTANCE_SYNONYM>
SCHEMBL16121010

> <PUBCHEM_XREF_EXT_ID>
SCHEMBL16121010

> <PUBCHEM_EXT_DATASOURCE_URL>
https://www.surechembl.org/

> <PUBCHEM_EXT_SUBSTANCE_URL>
https://www.surechembl.org/chemical/SCHEMBL16121010

> <PUBCHEM_CID_ASSOCIATIONS>
117609413  1

> <PUBCHEM_COORDINATE_TYPE>
1
3

$$$$
