310946483
  -OEChem-07211613022D

 22 22  0     1  0  0  0  0  0999 V2000
   -5.9435    4.8836    0.0000 O   0  0  0  0  0  0  0  0  0  0  0  0
   -7.3724    1.5836    0.0000 O   0  0  0  0  0  0  0  0  0  0  0  0
   -8.0869    2.8211    0.0000 O   0  0  0  0  0  0  0  0  0  0  0  0
   -7.3724    4.8836    0.0000 O   0  0  0  0  0  0  0  0  0  0  0  0
   -6.6579    3.6461    0.0000 N   0  0  0  0  0  0  0  0  0  0  0  0
   -6.6579    2.8211    0.0000 C   0  0  3  0  0  0  0  0  0  0  0  0
   -5.1185    2.4086    0.0000 C   0  0  0  0  0  0  0  0  0  0  0  0
   -5.9435    2.4086    0.0000 C   0  0  0  0  0  0  0  0  0  0  0  0
   -7.3724    2.4086    0.0000 C   0  0  0  0  0  0  0  0  0  0  0  0
   -6.6579    4.4711    0.0000 C   0  0  0  0  0  0  0  0  0  0  0  0
   -4.7060    1.6941    0.0000 C   0  0  0  0  0  0  0  0  0  0  0  0
   -4.7060    3.1231    0.0000 C   0  0  0  0  0  0  0  0  0  0  0  0
   -3.8810    1.6941    0.0000 C   0  0  0  0  0  0  0  0  0  0  0  0
   -3.8810    3.1231    0.0000 C   0  0  0  0  0  0  0  0  0  0  0  0
   -3.4685    2.4086    0.0000 C   0  0  0  0  0  0  0  0  0  0  0  0
   -5.7299    5.6805    0.0000 C   0  0  0  0  0  0  0  0  0  0  0  0
   -4.9331    5.8940    0.0000 C   0  0  0  0  0  0  0  0  0  0  0  0
   -4.7195    6.6909    0.0000 C   0  0  0  0  0  0  0  0  0  0  0  0
   -3.9226    6.9044    0.0000 C   0  0  0  0  0  0  0  0  0  0  0  0
   -3.7091    7.7013    0.0000 C   0  0  0  0  0  0  0  0  0  0  0  0
   -2.9122    7.9148    0.0000 C   0  0  0  0  0  0  0  0  0  0  0  0
   -2.6987    8.7117    0.0000 C   0  0  0  0  0  0  0  0  0  0  0  0
  1 10  1  0  0  0  0
  1 16  1  0  0  0  0
  2  9  2  0  0  0  0
  3  9  1  0  0  0  0
  4 10  2  0  0  0  0
  5  6  1  0  0  0  0
  5 10  1  0  0  0  0
  6  8  1  0  0  0  0
  6  9  1  0  0  0  0
  7  8  1  0  0  0  0
  7 11  2  0  0  0  0
  7 12  1  0  0  0  0
 11 13  1  0  0  0  0
 12 14  2  0  0  0  0
 13 15  2  0  0  0  0
 14 15  1  0  0  0  0
 16 17  1  0  0  0  0
 17 18  1  0  0  0  0
 18 19  1  0  0  0  0
 19 20  1  0  0  0  0
 20 21  1  0  0  0  0
 21 22  1  0  0  0  0
M  END
> <PUBCHEM_COMPOUND_ID_TYPE>
0

> <PUBCHEM_TOTAL_CHARGE>
0

> <PUBCHEM_SUBSTANCE_ID>
310946483

> <PUBCHEM_SUBSTANCE_VERSION>
1

> <PUBCHEM_EXT_DATASOURCE_NAME>
4488

> <PUBCHEM_EXT_DATASOURCE_REGID>
SCHEMBL16124604

> <PUBCHEM_SUBSTANCE_COMMENT>
InChI=1S/C17H25NO4/c1-2-3-4-5-9-12-22-17(21)18-15(16(19)20)13-14-10-7-6-8-11-14/h6-8,10-11,15H,2-5,9,12-13H2,1H3,(H,18,21)(H,19,20)
InChIKey=SOVHMIGZKWJEKZ-UHFFFAOYSA-N

> <PUBCHEM_SUBSTANCE_SYNONYM>
SCHEMBL16124604

> <PUBCHEM_XREF_EXT_ID>
SCHEMBL16124604

> <PUBCHEM_EXT_DATASOURCE_URL>
https://www.surechembl.org/

> <PUBCHEM_EXT_SUBSTANCE_URL>
https://www.surechembl.org/chemical/SCHEMBL16124604

> <PUBCHEM_CID_ASSOCIATIONS>
117612390  1

> <PUBCHEM_COORDINATE_TYPE>
1
3

$$$$
