310945678
  -OEChem-07211613022D

 38 41  0     1  0  0  0  0  0999 V2000
   -4.8240   -0.3252    0.0000 S   0  0  0  0  0  0  0  0  0  0  0  0
   -6.2765    0.4986    0.0000 F   0  0  0  0  0  0  0  0  0  0  0  0
   -5.1492    0.7805    0.0000 F   0  0  0  0  0  0  0  0  0  0  0  0
   -5.9730   -0.6288    0.0000 F   0  0  0  0  0  0  0  0  0  0  0  0
   -4.1735   -0.6938    0.0000 O   0  0  0  0  0  0  0  0  0  0  0  0
    4.6505    0.8239    0.0000 O   0  0  0  0  0  0  0  0  0  0  0  0
   -4.4120    0.3686    0.0000 O   0  0  0  0  0  0  0  0  0  0  0  0
   -5.2576   -1.0190    0.0000 O   0  0  0  0  0  0  0  0  0  0  0  0
    1.7236    0.9756    0.0000 O   0  0  0  0  0  0  0  0  0  0  0  0
    6.2765   -0.8889    0.0000 O   0  0  0  0  0  0  0  0  0  0  0  0
    5.9730   -2.2765    0.0000 O   0  0  0  0  0  0  0  0  0  0  0  0
   -1.9404    0.6504    0.0000 C   0  0  0  0  0  0  0  0  0  0  0  0
   -3.3930   -0.1951    0.0000 C   0  0  0  0  0  0  0  0  0  0  0  0
   -5.5611    0.0650    0.0000 C   0  0  0  0  0  0  0  0  0  0  0  0
   -2.6559    1.0407    0.0000 C   0  0  0  0  0  0  0  0  0  0  0  0
   -1.9621   -0.1951    0.0000 C   0  0  0  0  0  0  0  0  0  0  0  0
   -1.2466    1.0407    0.0000 C   0  0  0  0  0  0  0  0  0  0  0  0
    3.7833   -0.1735    0.0000 C   0  0  0  0  0  0  0  0  0  0  0  0
    3.8050    0.6288    0.0000 C   0  0  0  0  0  0  0  0  0  0  0  0
   -3.3497    0.6288    0.0000 C   0  0  0  0  0  0  0  0  0  0  0  0
   -2.6776   -0.6071    0.0000 C   0  0  0  0  0  0  0  0  0  0  0  0
    4.5638   -0.4553    0.0000 C   0  0  3  0  0  0  0  0  0  0  0  0
    2.3523    0.6288    0.0000 C   0  0  0  0  0  0  0  0  0  0  0  0
    3.0678    1.0407    0.0000 C   0  0  0  0  0  0  0  0  0  0  0  0
   -0.4878    0.6504    0.0000 C   0  0  0  0  0  0  0  0  0  0  0  0
    3.0895   -0.6071    0.0000 C   0  0  0  0  0  0  0  0  0  0  0  0
    5.0624    0.1951    0.0000 C   0  0  0  0  0  0  0  0  0  0  0  0
    0.1843    1.0624    0.0000 C   0  0  0  0  0  0  0  0  0  0  0  0
   -1.2033    1.8645    0.0000 C   0  0  0  0  0  0  0  0  0  0  0  0
    2.3740   -0.2168    0.0000 C   0  0  0  0  0  0  0  0  0  0  0  0
    4.8240   -1.2358    0.0000 C   0  0  0  0  0  0  0  0  0  0  0  0
    0.9431    0.6288    0.0000 C   0  0  0  0  0  0  0  0  0  0  0  0
   -2.6776    1.8862    0.0000 C   0  0  0  0  0  0  0  0  0  0  0  0
   -1.2249   -0.6288    0.0000 C   0  0  0  0  0  0  0  0  0  0  0  0
    0.2060    1.8645    0.0000 C   0  0  0  0  0  0  0  0  0  0  0  0
   -0.5311    2.2765    0.0000 C   0  0  0  0  0  0  0  0  0  0  0  0
    5.6262   -1.4092    0.0000 C   0  0  0  0  0  0  0  0  0  0  0  0
    5.9297    0.0000    0.0000 C   0  0  0  0  0  0  0  0  0  0  0  0
  1  5  1  0  0  0  0
  1  7  2  0  0  0  0
  1  8  2  0  0  0  0
  1 14  1  0  0  0  0
  2 14  1  0  0  0  0
  3 14  1  0  0  0  0
  4 14  1  0  0  0  0
  5 13  1  0  0  0  0
  6 19  1  0  0  0  0
  6 27  1  0  0  0  0
  9 23  1  0  0  0  0
  9 32  1  0  0  0  0
 10 37  1  0  0  0  0
 10 38  1  0  0  0  0
 11 37  2  0  0  0  0
 12 15  2  0  0  0  0
 12 16  1  0  0  0  0
 12 17  1  0  0  0  0
 13 20  2  0  0  0  0
 13 21  1  0  0  0  0
 15 20  1  0  0  0  0
 15 33  1  0  0  0  0
 16 21  2  0  0  0  0
 16 34  1  0  0  0  0
 17 25  2  0  0  0  0
 17 29  1  0  0  0  0
 18 19  1  0  0  0  0
 18 22  1  0  0  0  0
 18 26  2  0  0  0  0
 19 24  2  0  0  0  0
 22 27  1  0  0  0  0
 22 31  1  0  0  0  0
 23 24  1  0  0  0  0
 23 30  2  0  0  0  0
 25 28  1  0  0  0  0
 26 30  1  0  0  0  0
 28 32  1  0  0  0  0
 28 35  2  0  0  0  0
 29 36  2  0  0  0  0
 31 37  1  0  0  0  0
 35 36  1  0  0  0  0
M  END
> <PUBCHEM_COMPOUND_ID_TYPE>
0

> <PUBCHEM_TOTAL_CHARGE>
0

> <PUBCHEM_SUBSTANCE_ID>
310945678

> <PUBCHEM_SUBSTANCE_VERSION>
1

> <PUBCHEM_EXT_DATASOURCE_NAME>
4488

> <PUBCHEM_EXT_DATASOURCE_REGID>
SCHEMBL16123779

> <PUBCHEM_SUBSTANCE_COMMENT>
InChI=1S/C27H25F3O7S/c1-16-9-22(37-38(32,33)27(28,29)30)10-17(2)26(16)19-6-4-5-18(11-19)14-35-21-7-8-23-20(12-25(31)34-3)15-36-24(23)13-21/h4-11,13,20H,12,14-15H2,1-3H3
InChIKey=GARMETVNECKNON-UHFFFAOYSA-N

> <PUBCHEM_SUBSTANCE_SYNONYM>
SCHEMBL16123779

> <PUBCHEM_XREF_EXT_ID>
SCHEMBL16123779

> <PUBCHEM_EXT_DATASOURCE_URL>
https://www.surechembl.org/

> <PUBCHEM_EXT_SUBSTANCE_URL>
https://www.surechembl.org/chemical/SCHEMBL16123779

> <PUBCHEM_CID_ASSOCIATIONS>
117611677  1

> <PUBCHEM_COORDINATE_TYPE>
1
3

$$$$
