310936548
  -OEChem-07211613022D

 28 31  0     1  0  0  0  0  0999 V2000
    1.6731    0.0000    0.0000 F   0  0  0  0  0  0  0  0  0  0  0  0
    0.4183   -0.7110    0.0000 F   0  0  0  0  0  0  0  0  0  0  0  0
    2.4259   -4.3081    0.0000 O   0  0  0  0  0  0  0  0  0  0  0  0
    1.6312   -1.4221    0.0000 O   0  0  0  0  0  0  0  0  0  0  0  0
    5.3538   -6.4413    0.0000 N   0  0  0  0  0  0  0  0  0  0  0  0
    6.1485   -6.5249    0.0000 N   0  0  0  0  0  0  0  0  0  0  0  0
    5.6048   -7.7379    0.0000 N   0  0  0  0  0  0  0  0  0  0  0  0
    3.6389   -5.0192    0.0000 N   0  0  0  0  0  0  0  0  0  0  0  0
    2.8442   -6.4413    0.0000 N   0  0  0  0  0  0  0  0  0  0  0  0
    6.3158   -7.3614    0.0000 C   0  0  0  0  0  0  0  0  0  0  0  0
    7.0687   -7.6960    0.0000 C   0  0  0  0  0  0  0  0  0  0  0  0
    4.0990   -5.7302    0.0000 C   0  0  0  0  0  0  0  0  0  0  0  0
    7.9052   -7.6124    0.0000 C   0  0  0  0  0  0  0  0  0  0  0  0
    7.5706   -8.3653    0.0000 C   0  0  0  0  0  0  0  0  0  0  0  0
    4.9355   -5.7302    0.0000 C   0  0  0  0  0  0  0  0  0  0  0  0
    4.9773   -7.1941    0.0000 C   0  0  0  0  0  0  0  0  0  0  0  0
    2.8442   -5.0192    0.0000 C   0  0  0  0  0  0  0  0  0  0  0  0
    1.2129   -3.5970    0.0000 C   0  0  0  0  0  0  0  0  0  0  0  0
    1.6312   -4.3081    0.0000 C   0  0  3  0  0  0  0  0  0  0  0  0
    3.6389   -6.4413    0.0000 C   0  0  0  0  0  0  0  0  0  0  0  0
    1.6312   -2.8442    0.0000 C   0  0  0  0  0  0  0  0  0  0  0  0
    1.2129   -2.1331    0.0000 C   0  0  0  0  0  0  0  0  0  0  0  0
    2.4259   -5.7302    0.0000 C   0  0  0  0  0  0  0  0  0  0  0  0
    0.3764   -3.5553    0.0000 C   0  0  0  0  0  0  0  0  0  0  0  0
    0.4183   -2.1331    0.0000 C   0  0  0  0  0  0  0  0  0  0  0  0
    0.0000   -2.8442    0.0000 C   0  0  0  0  0  0  0  0  0  0  0  0
    1.2129   -5.0192    0.0000 C   0  0  0  0  0  0  0  0  0  0  0  0
    1.2548   -0.7110    0.0000 C   0  0  0  0  0  0  0  0  0  0  0  0
  1 28  1  0  0  0  0
  2 28  1  0  0  0  0
  3 17  1  0  0  0  0
  3 19  1  0  0  0  0
  4 22  1  0  0  0  0
  4 28  1  0  0  0  0
  5  6  1  0  0  0  0
  5 15  1  0  0  0  0
  5 16  1  0  0  0  0
  6 10  2  0  0  0  0
  7 10  1  0  0  0  0
  7 16  2  0  0  0  0
  8 12  1  0  0  0  0
  8 17  2  0  0  0  0
  9 20  1  0  0  0  0
  9 23  2  0  0  0  0
 10 11  1  0  0  0  0
 11 13  1  0  0  0  0
 11 14  1  0  0  0  0
 12 15  1  0  0  0  0
 12 20  2  0  0  0  0
 13 14  1  0  0  0  0
 17 23  1  0  0  0  0
 18 19  1  0  0  0  0
 18 21  1  0  0  0  0
 18 24  2  0  0  0  0
 19 27  1  0  0  0  0
 21 22  2  0  0  0  0
 22 25  1  0  0  0  0
 24 26  1  0  0  0  0
 25 26  2  0  0  0  0
M  END
> <PUBCHEM_COMPOUND_ID_TYPE>
0

> <PUBCHEM_TOTAL_CHARGE>
0

> <PUBCHEM_SUBSTANCE_ID>
310936548

> <PUBCHEM_SUBSTANCE_VERSION>
1

> <PUBCHEM_EXT_DATASOURCE_NAME>
4488

> <PUBCHEM_EXT_DATASOURCE_REGID>
SCHEMBL16114202

> <PUBCHEM_SUBSTANCE_COMMENT>
InChI=1S/C19H19F2N5O2/c1-12(14-3-2-4-16(7-14)28-19(20)21)27-17-9-22-8-15(24-17)10-26-11-23-18(25-26)13-5-6-13/h2-4,7-9,11-13,19H,5-6,10H2,1H3
InChIKey=BHBVVWTVRDFHHX-UHFFFAOYSA-N

> <PUBCHEM_SUBSTANCE_SYNONYM>
SCHEMBL16114202

> <PUBCHEM_XREF_EXT_ID>
SCHEMBL16114202

> <PUBCHEM_EXT_DATASOURCE_URL>
https://www.surechembl.org/

> <PUBCHEM_EXT_SUBSTANCE_URL>
https://www.surechembl.org/chemical/SCHEMBL16114202

> <PUBCHEM_CID_ASSOCIATIONS>
117604468  1

> <PUBCHEM_COORDINATE_TYPE>
1
3

$$$$
