310942389
  -OEChem-07211613022D

 32 35  0     1  0  0  0  0  0999 V2000
    0.6998   -2.3293    0.0000 O   0  0  0  0  0  0  0  0  0  0  0  0
   -2.2016   -2.4315    0.0000 O   0  0  0  0  0  0  0  0  0  0  0  0
   -0.8531    0.1022    0.0000 O   0  0  0  0  0  0  0  0  0  0  0  0
    2.6307   -0.7356    0.0000 N   0  0  0  0  0  0  0  0  0  0  0  0
    3.4379   -0.8786    0.0000 N   0  0  0  0  0  0  0  0  0  0  0  0
   -0.0971   -1.1136    0.0000 N   0  0  0  0  0  0  0  0  0  0  0  0
   -2.2834    0.0613    0.0000 N   0  0  0  0  0  0  0  0  0  0  0  0
    2.1812   -0.0306    0.0000 C   0  0  0  0  0  0  0  0  0  0  0  0
    1.3333   -1.0523    0.0000 C   0  0  0  0  0  0  0  0  0  0  0  0
    2.0995   -1.3691    0.0000 C   0  0  0  0  0  0  0  0  0  0  0  0
    1.3946   -0.2247    0.0000 C   0  0  0  0  0  0  0  0  0  0  0  0
    2.5082    0.7458    0.0000 C   0  0  3  0  0  0  0  0  0  0  0  0
    0.6386   -1.4711    0.0000 C   0  0  0  0  0  0  0  0  0  0  0  0
    2.3753   -2.1352    0.0000 C   0  0  0  0  0  0  0  0  0  0  0  0
    1.9973    1.3997    0.0000 C   0  0  0  0  0  0  0  0  0  0  0  0
    0.7509    0.3065    0.0000 C   0  0  0  0  0  0  0  0  0  0  0  0
    3.7239   -1.6551    0.0000 C   0  0  0  0  0  0  0  0  0  0  0  0
    3.2029   -2.2885    0.0000 C   0  0  0  0  0  0  0  0  0  0  0  0
   -1.5274   -1.1545    0.0000 C   0  0  0  0  0  0  0  0  0  0  0  0
   -0.7815   -1.5427    0.0000 C   0  0  0  0  0  0  0  0  0  0  0  0
    3.3357    0.8582    0.0000 C   0  0  0  0  0  0  0  0  0  0  0  0
   -2.2221   -1.5938    0.0000 C   0  0  0  0  0  0  0  0  0  0  0  0
   -1.5682   -0.3372    0.0000 C   0  0  0  0  0  0  0  0  0  0  0  0
    2.2936    2.1659    0.0000 C   0  0  0  0  0  0  0  0  0  0  0  0
    1.1800    1.2873    0.0000 C   0  0  0  0  0  0  0  0  0  0  0  0
   -2.9475   -1.2055    0.0000 C   0  0  0  0  0  0  0  0  0  0  0  0
   -2.9781   -0.3780    0.0000 C   0  0  0  0  0  0  0  0  0  0  0  0
    1.8032    2.8096    0.0000 C   0  0  0  0  0  0  0  0  0  0  0  0
    0.6794    1.9309    0.0000 C   0  0  0  0  0  0  0  0  0  0  0  0
    0.9756    2.6870    0.0000 C   0  0  0  0  0  0  0  0  0  0  0  0
   -3.7239    0.0102    0.0000 C   0  0  0  0  0  0  0  0  0  0  0  0
   -1.4456   -2.8096    0.0000 C   0  0  0  0  0  0  0  0  0  0  0  0
  1 13  2  0  0  0  0
  2 22  1  0  0  0  0
  2 32  1  0  0  0  0
  3 23  2  0  0  0  0
  4  5  1  0  0  0  0
  4  8  1  0  0  0  0
  4 10  1  0  0  0  0
  5 17  2  0  0  0  0
  6 13  1  0  0  0  0
  6 20  1  0  0  0  0
  7 23  1  0  0  0  0
  7 27  1  0  0  0  0
  8 11  2  0  0  0  0
  8 12  1  0  0  0  0
  9 10  2  0  0  0  0
  9 11  1  0  0  0  0
  9 13  1  0  0  0  0
 10 14  1  0  0  0  0
 11 16  1  0  0  0  0
 12 15  1  0  0  0  0
 12 21  1  0  0  0  0
 14 18  2  0  0  0  0
 15 24  2  0  0  0  0
 15 25  1  0  0  0  0
 17 18  1  0  0  0  0
 19 20  1  0  0  0  0
 19 22  2  0  0  0  0
 19 23  1  0  0  0  0
 22 26  1  0  0  0  0
 24 28  1  0  0  0  0
 25 29  2  0  0  0  0
 26 27  2  0  0  0  0
 27 31  1  0  0  0  0
 28 30  2  0  0  0  0
 29 30  1  0  0  0  0
M  END
> <PUBCHEM_COMPOUND_ID_TYPE>
0

> <PUBCHEM_TOTAL_CHARGE>
0

> <PUBCHEM_SUBSTANCE_ID>
310942389

> <PUBCHEM_SUBSTANCE_VERSION>
1

> <PUBCHEM_EXT_DATASOURCE_NAME>
4488

> <PUBCHEM_EXT_DATASOURCE_REGID>
SCHEMBL16120425

> <PUBCHEM_SUBSTANCE_COMMENT>
InChI=1S/C25H26N4O3/c1-15-13-21(32-4)19(24(30)28-15)14-26-25(31)22-17(3)23(29-20(22)11-8-12-27-29)16(2)18-9-6-5-7-10-18/h5-13,16H,14H2,1-4H3,(H,26,31)(H,28,30)
InChIKey=LKDMOXPPBBZFTE-UHFFFAOYSA-N

> <PUBCHEM_SUBSTANCE_SYNONYM>
SCHEMBL16120425

> <PUBCHEM_XREF_EXT_ID>
SCHEMBL16120425

> <PUBCHEM_EXT_DATASOURCE_URL>
https://www.surechembl.org/

> <PUBCHEM_EXT_SUBSTANCE_URL>
https://www.surechembl.org/chemical/SCHEMBL16120425

> <PUBCHEM_CID_ASSOCIATIONS>
78425835  1

> <PUBCHEM_COORDINATE_TYPE>
1
3

$$$$
