310935031
  -OEChem-07211613022D

 39 44  0     1  0  0  0  0  0999 V2000
    5.7050   -3.4537    0.0000 S   0  0  0  0  0  0  0  0  0  0  0  0
    2.9420   -0.1791    0.0000 S   0  0  0  0  0  0  0  0  0  0  0  0
    6.1398   -4.2467    0.0000 O   0  0  0  0  0  0  0  0  0  0  0  0
    5.2956   -2.7629    0.0000 O   0  0  0  0  0  0  0  0  0  0  0  0
    2.1234   -3.8885    0.0000 N   0  0  3  0  0  0  0  0  0  0  0  0
    0.7163   -3.8885    0.0000 N   0  0  0  0  0  0  0  0  0  0  0  0
    0.0000   -2.6350    0.0000 N   0  0  0  0  0  0  0  0  0  0  0  0
    6.3957   -3.0699    0.0000 N   0  0  3  0  0  0  0  0  0  0  0  0
    4.1700   -0.7163    0.0000 N   0  0  0  0  0  0  0  0  0  0  0  0
    4.2723   -0.9977    0.0000 N   0  0  0  0  0  0  0  0  0  0  0  0
    1.4326   -2.6350    0.0000 C   0  0  0  0  0  0  0  0  0  0  0  0
    1.4326   -3.4537    0.0000 C   0  0  0  0  0  0  0  0  0  0  0  0
    0.7163   -2.2257    0.0000 C   0  0  0  0  0  0  0  0  0  0  0  0
    3.5816   -3.8885    0.0000 C   0  0  0  0  0  0  0  0  0  0  0  0
    4.9886   -3.8885    0.0000 C   0  0  0  0  0  0  0  0  0  0  0  0
    3.5816   -4.7072    0.0000 C   0  0  0  0  0  0  0  0  0  0  0  0
    2.1234   -1.4070    0.0000 C   0  0  0  0  0  0  0  0  0  0  0  0
    0.7163   -1.4070    0.0000 C   0  0  0  0  0  0  0  0  0  0  0  0
    2.1234   -2.2513    0.0000 C   0  0  0  0  0  0  0  0  0  0  0  0
    2.8652   -3.4537    0.0000 C   0  0  0  0  0  0  0  0  0  0  0  0
    4.2723   -3.4537    0.0000 C   0  0  0  0  0  0  0  0  0  0  0  0
    2.1234   -4.7072    0.0000 C   0  0  0  0  0  0  0  0  0  0  0  0
    1.4326   -0.9977    0.0000 C   0  0  0  0  0  0  0  0  0  0  0  0
    2.8652   -5.1165    0.0000 C   0  0  0  0  0  0  0  0  0  0  0  0
    4.9886   -4.7072    0.0000 C   0  0  0  0  0  0  0  0  0  0  0  0
    4.2723   -5.1165    0.0000 C   0  0  0  0  0  0  0  0  0  0  0  0
    2.8397   -0.9977    0.0000 C   0  0  0  0  0  0  0  0  0  0  0  0
    0.0000   -3.4792    0.0000 C   0  0  0  0  0  0  0  0  0  0  0  0
    6.3957   -2.2513    0.0000 C   0  0  0  0  0  0  0  0  0  0  0  0
    0.0000   -0.9977    0.0000 C   0  0  0  0  0  0  0  0  0  0  0  0
    3.6072   -1.3303    0.0000 C   0  0  0  0  0  0  0  0  0  0  0  0
    5.6794   -1.8163    0.0000 C   0  0  0  0  0  0  0  0  0  0  0  0
    7.1120   -3.4792    0.0000 C   0  0  0  0  0  0  0  0  0  0  0  0
    3.7607    0.0000    0.0000 C   0  0  0  0  0  0  0  0  0  0  0  0
    5.6794   -0.9977    0.0000 C   0  0  0  0  0  0  0  0  0  0  0  0
    4.9631   -2.2257    0.0000 C   0  0  0  0  0  0  0  0  0  0  0  0
    4.9631   -0.5884    0.0000 C   0  0  0  0  0  0  0  0  0  0  0  0
    4.2723   -1.8163    0.0000 C   0  0  0  0  0  0  0  0  0  0  0  0
    3.5560   -0.5884    0.0000 C   0  0  0  0  0  0  0  0  0  0  0  0
  1  3  2  0  0  0  0
  1  4  2  0  0  0  0
  1  8  1  0  0  0  0
  1 15  1  0  0  0  0
  2 27  1  0  0  0  0
  2 34  1  0  0  0  0
  5 12  1  0  0  0  0
  5 20  1  0  0  0  0
  5 22  1  0  0  0  0
  6 12  1  0  0  0  0
  6 28  2  0  0  0  0
  7 13  2  0  0  0  0
  7 28  1  0  0  0  0
  8 29  1  0  0  0  0
  8 33  1  0  0  0  0
  9 31  1  0  0  0  0
  9 34  2  0  0  0  0
 10 37  1  0  0  0  0
 10 38  1  0  0  0  0
 10 39  1  0  0  0  0
 11 12  2  0  0  0  0
 11 13  1  0  0  0  0
 11 19  1  0  0  0  0
 13 18  1  0  0  0  0
 14 16  2  0  0  0  0
 14 20  1  0  0  0  0
 14 21  1  0  0  0  0
 15 21  2  0  0  0  0
 15 25  1  0  0  0  0
 16 24  1  0  0  0  0
 16 26  1  0  0  0  0
 17 19  2  0  0  0  0
 17 23  1  0  0  0  0
 17 27  1  0  0  0  0
 18 23  2  0  0  0  0
 18 30  1  0  0  0  0
 22 24  1  0  0  0  0
 25 26  2  0  0  0  0
 27 31  2  0  0  0  0
 29 32  1  0  0  0  0
 32 35  1  0  0  0  0
 32 36  1  0  0  0  0
 35 37  1  0  0  0  0
 36 38  1  0  0  0  0
M  END
> <PUBCHEM_COMPOUND_ID_TYPE>
0

> <PUBCHEM_TOTAL_CHARGE>
0

> <PUBCHEM_SUBSTANCE_ID>
310935031

> <PUBCHEM_SUBSTANCE_VERSION>
1

> <PUBCHEM_EXT_DATASOURCE_NAME>
4488

> <PUBCHEM_EXT_DATASOURCE_REGID>
SCHEMBL16112550

> <PUBCHEM_SUBSTANCE_COMMENT>
InChI=1S/C29H34N6O2S2/c1-20-12-23(27-15-30-19-38-27)14-26-28(20)31-18-32-29(26)35-11-8-22-4-5-25(13-24(22)17-35)39(36,37)34(3)16-21-6-9-33(2)10-7-21/h4-5,12-15,18-19,21H,6-11,16-17H2,1-3H3
InChIKey=CKORTXGQUYWZQM-UHFFFAOYSA-N

> <PUBCHEM_SUBSTANCE_SYNONYM>
SCHEMBL16112550

> <PUBCHEM_XREF_EXT_ID>
SCHEMBL16112550

> <PUBCHEM_EXT_DATASOURCE_URL>
https://www.surechembl.org/

> <PUBCHEM_EXT_SUBSTANCE_URL>
https://www.surechembl.org/chemical/SCHEMBL16112550

> <PUBCHEM_CID_ASSOCIATIONS>
86300910  1

> <PUBCHEM_COORDINATE_TYPE>
1
3

$$$$
