310936260
  -OEChem-07211613022D

 26 27  0     1  0  0  0  0  0999 V2000
   -2.8579    0.8250    0.0000 Cl  0  0  0  0  0  0  0  0  0  0  0  0
   -4.2869    1.6500    0.0000 Cl  0  0  0  0  0  0  0  0  0  0  0  0
   -5.0014   -2.8876    0.0000 O   0  0  0  0  0  0  0  0  0  0  0  0
   -6.4304   -2.8876    0.0000 O   0  0  0  0  0  0  0  0  0  0  0  0
   -2.1435   -2.8876    0.0000 O   0  0  0  0  0  0  0  0  0  0  0  0
   -1.4290   -1.6500    0.0000 O   0  0  0  0  0  0  0  0  0  0  0  0
   -2.8579   -1.6500    0.0000 N   0  0  0  0  0  0  0  0  0  0  0  0
   -7.1449   -1.6500    0.0000 N   0  0  0  0  0  0  0  0  0  0  0  0
   -4.2869   -1.6500    0.0000 C   0  0  3  0  0  0  0  0  0  0  0  0
   -5.0014   -2.0625    0.0000 C   0  0  3  0  0  0  0  0  0  0  0  0
   -4.2869   -0.8250    0.0000 C   0  0  0  0  0  0  0  0  0  0  0  0
   -5.7159   -1.6500    0.0000 C   0  0  0  0  0  0  0  0  0  0  0  0
   -6.4304   -2.0625    0.0000 C   0  0  0  0  0  0  0  0  0  0  0  0
   -3.5724   -2.0625    0.0000 C   0  0  0  0  0  0  0  0  0  0  0  0
   -3.5724   -0.4125    0.0000 C   0  0  0  0  0  0  0  0  0  0  0  0
   -5.0014   -0.4125    0.0000 C   0  0  0  0  0  0  0  0  0  0  0  0
   -3.5724    0.4125    0.0000 C   0  0  0  0  0  0  0  0  0  0  0  0
   -5.7159   -0.8250    0.0000 C   0  0  0  0  0  0  0  0  0  0  0  0
   -4.2869    0.8250    0.0000 C   0  0  0  0  0  0  0  0  0  0  0  0
   -5.0014    0.4125    0.0000 C   0  0  0  0  0  0  0  0  0  0  0  0
   -6.4304   -0.4125    0.0000 C   0  0  0  0  0  0  0  0  0  0  0  0
   -2.1435   -2.0625    0.0000 C   0  0  0  0  0  0  0  0  0  0  0  0
   -7.1449   -0.8250    0.0000 C   0  0  0  0  0  0  0  0  0  0  0  0
   -2.8579   -0.8250    0.0000 C   0  0  0  0  0  0  0  0  0  0  0  0
   -7.1449   -3.3001    0.0000 C   0  0  0  0  0  0  0  0  0  0  0  0
   -2.1435   -0.4125    0.0000 C   0  0  0  0  0  0  0  0  0  0  0  0
  1 17  1  0  0  0  0
  2 19  1  0  0  0  0
  3 10  1  0  0  0  0
  4 13  1  0  0  0  0
  4 25  1  0  0  0  0
  5 22  2  0  0  0  0
  6 22  1  0  0  0  0
  7 14  1  0  0  0  0
  7 22  1  0  0  0  0
  7 24  1  0  0  0  0
  8 13  2  0  0  0  0
  8 23  1  0  0  0  0
  9 10  1  0  0  0  0
  9 11  1  0  0  0  0
  9 14  1  0  0  0  0
 10 12  1  0  0  0  0
 11 15  1  0  0  0  0
 11 16  2  0  0  0  0
 12 13  1  0  0  0  0
 12 18  2  0  0  0  0
 15 17  2  0  0  0  0
 16 20  1  0  0  0  0
 17 19  1  0  0  0  0
 18 21  1  0  0  0  0
 19 20  2  0  0  0  0
 21 23  2  0  0  0  0
 24 26  1  0  0  0  0
M  END
> <PUBCHEM_COMPOUND_ID_TYPE>
0

> <PUBCHEM_TOTAL_CHARGE>
0

> <PUBCHEM_SUBSTANCE_ID>
310936260

> <PUBCHEM_SUBSTANCE_VERSION>
1

> <PUBCHEM_EXT_DATASOURCE_NAME>
4488

> <PUBCHEM_EXT_DATASOURCE_REGID>
SCHEMBL16113877

> <PUBCHEM_SUBSTANCE_COMMENT>
InChI=1S/C18H20Cl2N2O4/c1-3-22(18(24)25)10-13(11-6-7-14(19)15(20)9-11)16(23)12-5-4-8-21-17(12)26-2/h4-9,13,16,23H,3,10H2,1-2H3,(H,24,25)
InChIKey=JHCQMGFEACTJLE-UHFFFAOYSA-N

> <PUBCHEM_SUBSTANCE_SYNONYM>
SCHEMBL16113877

> <PUBCHEM_XREF_EXT_ID>
SCHEMBL16113877

> <PUBCHEM_EXT_DATASOURCE_URL>
https://www.surechembl.org/

> <PUBCHEM_EXT_SUBSTANCE_URL>
https://www.surechembl.org/chemical/SCHEMBL16113877

> <PUBCHEM_CID_ASSOCIATIONS>
117604209  1

> <PUBCHEM_COORDINATE_TYPE>
1
3

$$$$
