310943433
  -OEChem-07211613022D

  9  8  0     1  0  0  0  0  0999 V2000
   -0.0541   -1.0414    0.0000 I   0  0  0  0  0  0  0  0  0  0  0  0
    0.6897    0.9197    0.0000 O   0  0  0  0  0  0  0  0  0  0  0  0
    1.4742   -0.2434    0.0000 O   0  0  0  0  0  0  0  0  0  0  0  0
   -0.7709    1.0414    0.0000 O   0  0  0  0  0  0  0  0  0  0  0  0
   -0.0405   -0.1758    0.0000 C   0  0  3  0  0  0  0  0  0  0  0  0
    0.6897    0.2029    0.0000 C   0  0  0  0  0  0  0  0  0  0  0  0
   -0.7845    0.2029    0.0000 C   0  0  0  0  0  0  0  0  0  0  0  0
   -0.0405    0.6492    0.0000 C   0  0  0  0  0  0  0  0  0  0  0  0
   -1.4742   -0.2164    0.0000 C   0  0  0  0  0  0  0  0  0  0  0  0
  1  5  1  0  0  0  0
  2  6  2  0  0  0  0
  3  6  1  0  0  0  0
  4  7  2  0  0  0  0
  5  6  1  0  0  0  0
  5  7  1  0  0  0  0
  5  8  1  0  0  0  0
  7  9  1  0  0  0  0
M  END
> <PUBCHEM_COMPOUND_ID_TYPE>
0

> <PUBCHEM_TOTAL_CHARGE>
0

> <PUBCHEM_SUBSTANCE_ID>
310943433

> <PUBCHEM_SUBSTANCE_VERSION>
1

> <PUBCHEM_EXT_DATASOURCE_NAME>
4488

> <PUBCHEM_EXT_DATASOURCE_REGID>
SCHEMBL16121497

> <PUBCHEM_SUBSTANCE_COMMENT>
InChI=1S/C5H7IO3/c1-3(7)5(2,6)4(8)9/h1-2H3,(H,8,9)
InChIKey=FWFASVNLBAOGJS-UHFFFAOYSA-N

> <PUBCHEM_SUBSTANCE_SYNONYM>
SCHEMBL16121497

> <PUBCHEM_XREF_EXT_ID>
SCHEMBL16121497

> <PUBCHEM_EXT_DATASOURCE_URL>
https://www.surechembl.org/

> <PUBCHEM_EXT_SUBSTANCE_URL>
https://www.surechembl.org/chemical/SCHEMBL16121497

> <PUBCHEM_CID_ASSOCIATIONS>
117609857  1

> <PUBCHEM_COORDINATE_TYPE>
1
3

$$$$
