310932392
  -OEChem-07211613022D

 28 31  0     1  0  0  0  0  0999 V2000
    3.1069   -0.0460    0.0000 O   0  0  0  0  0  0  0  0  0  0  0  0
    0.0000   -3.5211    0.0000 O   0  0  0  0  0  0  0  0  0  0  0  0
    5.5233   -2.3934    0.0000 O   0  0  0  0  0  0  0  0  0  0  0  0
    4.2115   -1.7490    0.0000 N   0  0  0  0  0  0  0  0  0  0  0  0
    4.2115   -3.0608    0.0000 N   0  0  0  0  0  0  0  0  0  0  0  0
    3.9123   -0.0460    0.0000 N   0  0  0  0  0  0  0  0  0  0  0  0
    0.4143   -4.2345    0.0000 N   0  0  0  0  0  0  0  0  0  0  0  0
    2.6926   -0.7594    0.0000 C   0  0  3  0  0  0  0  0  0  0  0  0
    2.7156   -1.5879    0.0000 C   0  0  0  0  0  0  0  0  0  0  0  0
    3.4290   -1.9792    0.0000 C   0  0  0  0  0  0  0  0  0  0  0  0
    3.4290   -2.8307    0.0000 C   0  0  0  0  0  0  0  0  0  0  0  0
    2.0252   -2.8307    0.0000 C   0  0  0  0  0  0  0  0  0  0  0  0
    2.0252   -1.9792    0.0000 C   0  0  0  0  0  0  0  0  0  0  0  0
    3.5211   -0.7364    0.0000 C   0  0  0  0  0  0  0  0  0  0  0  0
    1.3118   -3.2450    0.0000 C   0  0  0  0  0  0  0  0  0  0  0  0
    2.7156   -3.2219    0.0000 C   0  0  0  0  0  0  0  0  0  0  0  0
    1.8871   -0.7594    0.0000 C   0  0  0  0  0  0  0  0  0  0  0  0
    4.6948   -2.3934    0.0000 C   0  0  0  0  0  0  0  0  0  0  0  0
    0.5523   -2.9227    0.0000 C   0  0  0  0  0  0  0  0  0  0  0  0
    1.2197   -4.0504    0.0000 C   0  0  0  0  0  0  0  0  0  0  0  0
    3.9354   -1.4729    0.0000 C   0  0  0  0  0  0  0  0  0  0  0  0
    1.4729   -1.4729    0.0000 C   0  0  0  0  0  0  0  0  0  0  0  0
    1.4499   -0.0460    0.0000 C   0  0  0  0  0  0  0  0  0  0  0  0
    4.7408    0.0000    0.0000 C   0  0  0  0  0  0  0  0  0  0  0  0
    4.7638   -1.4268    0.0000 C   0  0  0  0  0  0  0  0  0  0  0  0
    0.3682   -2.1173    0.0000 C   0  0  0  0  0  0  0  0  0  0  0  0
    1.8411   -4.6027    0.0000 C   0  0  0  0  0  0  0  0  0  0  0  0
    5.1551   -0.7135    0.0000 C   0  0  0  0  0  0  0  0  0  0  0  0
  1  8  1  0  0  0  0
  2  7  1  0  0  0  0
  2 19  1  0  0  0  0
  3 18  2  0  0  0  0
  4 10  1  0  0  0  0
  4 18  1  0  0  0  0
  5 11  1  0  0  0  0
  5 18  1  0  0  0  0
  6 14  1  0  0  0  0
  6 24  2  0  0  0  0
  7 20  2  0  0  0  0
  8  9  1  0  0  0  0
  8 14  1  0  0  0  0
  8 17  1  0  0  0  0
  9 10  1  0  0  0  0
  9 13  2  0  0  0  0
 10 11  2  0  0  0  0
 11 16  1  0  0  0  0
 12 13  1  0  0  0  0
 12 15  1  0  0  0  0
 12 16  2  0  0  0  0
 14 21  2  0  0  0  0
 15 19  2  0  0  0  0
 15 20  1  0  0  0  0
 17 22  1  0  0  0  0
 17 23  1  0  0  0  0
 19 26  1  0  0  0  0
 20 27  1  0  0  0  0
 21 25  1  0  0  0  0
 24 28  1  0  0  0  0
 25 28  2  0  0  0  0
M  END
> <PUBCHEM_COMPOUND_ID_TYPE>
0

> <PUBCHEM_TOTAL_CHARGE>
0

> <PUBCHEM_SUBSTANCE_ID>
310932392

> <PUBCHEM_SUBSTANCE_VERSION>
1

> <PUBCHEM_EXT_DATASOURCE_NAME>
4488

> <PUBCHEM_EXT_DATASOURCE_REGID>
SCHEMBL16109760

> <PUBCHEM_SUBSTANCE_COMMENT>
InChI=1S/C21H22N4O3/c1-11(2)21(27,17-7-5-6-8-22-17)15-9-14(18-12(3)25-28-13(18)4)10-16-19(15)24-20(26)23-16/h5-11,27H,1-4H3,(H2,23,24,26)
InChIKey=RLBYTUXLSAVAFD-UHFFFAOYSA-N

> <PUBCHEM_SUBSTANCE_SYNONYM>
SCHEMBL16109760

> <PUBCHEM_XREF_EXT_ID>
SCHEMBL16109760

> <PUBCHEM_EXT_DATASOURCE_URL>
https://www.surechembl.org/

> <PUBCHEM_EXT_SUBSTANCE_URL>
https://www.surechembl.org/chemical/SCHEMBL16109760

> <PUBCHEM_CID_ASSOCIATIONS>
117600947  1

> <PUBCHEM_COORDINATE_TYPE>
1
3

$$$$
