310941897
  -OEChem-07211613022D

 25 24  0     1  0  0  0  0  0999 V2000
    1.4249    0.0000    0.0000 O   0  0  0  0  0  0  0  0  0  0  0  0
   -1.4624    0.0000    0.0000 O   0  0  0  0  0  0  0  0  0  0  0  0
    2.1374   -1.2499    0.0000 O   0  0  0  0  0  0  0  0  0  0  0  0
   -2.1874    1.2499    0.0000 O   0  0  0  0  0  0  0  0  0  0  0  0
    2.1874    2.0874    0.0000 O   0  0  0  0  0  0  0  0  0  0  0  0
   -2.1874   -2.0874    0.0000 O   0  0  0  0  0  0  0  0  0  0  0  0
    3.0123    0.8374    0.0000 N   0  0  0  0  0  0  0  0  0  0  0  0
   -2.7623   -0.8250    0.0000 N   0  0  0  0  0  0  0  0  0  0  0  0
    2.8748    0.0000    0.0000 C   0  0  3  0  0  0  0  0  0  0  0  0
   -2.8998    0.0125    0.0000 C   0  0  3  0  0  0  0  0  0  0  0  0
    2.1498   -0.3875    0.0000 C   0  0  0  0  0  0  0  0  0  0  0  0
   -2.1874    0.4125    0.0000 C   0  0  0  0  0  0  0  0  0  0  0  0
    3.5998   -0.4125    0.0000 C   0  0  0  0  0  0  0  0  0  0  0  0
   -3.6248    0.4249    0.0000 C   0  0  0  0  0  0  0  0  0  0  0  0
    2.1498    1.2499    0.0000 C   0  0  0  0  0  0  0  0  0  0  0  0
   -2.1749   -1.2249    0.0000 C   0  0  0  0  0  0  0  0  0  0  0  0
   -0.7374   -0.4125    0.0000 C   0  0  0  0  0  0  0  0  0  0  0  0
    0.7250   -0.4125    0.0000 C   0  0  0  0  0  0  0  0  0  0  0  0
   -0.0250    0.0000    0.0000 C   0  0  0  0  0  0  0  0  0  0  0  0
    4.3247    0.0000    0.0000 C   0  0  0  0  0  0  0  0  0  0  0  0
    3.6123   -1.2374    0.0000 C   0  0  0  0  0  0  0  0  0  0  0  0
   -4.3247    0.0000    0.0000 C   0  0  0  0  0  0  0  0  0  0  0  0
   -3.6248    1.2499    0.0000 C   0  0  0  0  0  0  0  0  0  0  0  0
    1.4249    0.8374    0.0000 C   0  0  0  0  0  0  0  0  0  0  0  0
   -1.5874   -0.9124    0.0000 C   0  0  0  0  0  0  0  0  0  0  0  0
  1 11  1  0  0  0  0
  1 18  1  0  0  0  0
  2 12  1  0  0  0  0
  2 17  1  0  0  0  0
  3 11  2  0  0  0  0
  4 12  2  0  0  0  0
  5 15  2  0  0  0  0
  6 16  2  0  0  0  0
  7  9  1  0  0  0  0
  7 15  1  0  0  0  0
  8 10  1  0  0  0  0
  8 16  1  0  0  0  0
  9 11  1  0  0  0  0
  9 13  1  0  0  0  0
 10 12  1  0  0  0  0
 10 14  1  0  0  0  0
 13 20  1  0  0  0  0
 13 21  1  0  0  0  0
 14 22  1  0  0  0  0
 14 23  1  0  0  0  0
 15 24  1  0  0  0  0
 16 25  1  0  0  0  0
 17 19  1  0  0  0  0
 18 19  1  0  0  0  0
M  END
> <PUBCHEM_COMPOUND_ID_TYPE>
0

> <PUBCHEM_TOTAL_CHARGE>
0

> <PUBCHEM_SUBSTANCE_ID>
310941897

> <PUBCHEM_SUBSTANCE_VERSION>
1

> <PUBCHEM_EXT_DATASOURCE_NAME>
4488

> <PUBCHEM_EXT_DATASOURCE_REGID>
SCHEMBL16119929

> <PUBCHEM_SUBSTANCE_COMMENT>
InChI=1S/C17H30N2O6/c1-10(2)14(18-12(5)20)16(22)24-8-7-9-25-17(23)15(11(3)4)19-13(6)21/h10-11,14-15H,7-9H2,1-6H3,(H,18,20)(H,19,21)
InChIKey=IIYJJYOFHBGASE-UHFFFAOYSA-N

> <PUBCHEM_SUBSTANCE_SYNONYM>
SCHEMBL16119929

> <PUBCHEM_XREF_EXT_ID>
SCHEMBL16119929

> <PUBCHEM_EXT_DATASOURCE_URL>
https://www.surechembl.org/

> <PUBCHEM_EXT_SUBSTANCE_URL>
https://www.surechembl.org/chemical/SCHEMBL16119929

> <PUBCHEM_CID_ASSOCIATIONS>
117608629  1

> <PUBCHEM_COORDINATE_TYPE>
1
3

$$$$
