310933407
  -OEChem-07211613022D

 27 30  0     1  0  0  0  0  0999 V2000
    3.4168   -2.0248    0.0000 O   0  0  0  0  0  0  0  0  0  0  0  0
    0.0000   -5.2516    0.0000 O   0  0  0  0  0  0  0  0  0  0  0  0
    5.5680   -4.1127    0.0000 O   0  0  0  0  0  0  0  0  0  0  0  0
    4.2393   -3.4484    0.0000 N   0  0  0  0  0  0  0  0  0  0  0  0
    4.2393   -4.7771    0.0000 N   0  0  0  0  0  0  0  0  0  0  0  0
    1.9931   -1.2338    0.0000 N   0  0  0  0  0  0  0  0  0  0  0  0
    0.4113   -5.9793    0.0000 N   0  0  0  0  0  0  0  0  0  0  0  0
    2.7207   -3.2902    0.0000 C   0  0  0  0  0  0  0  0  0  0  0  0
    2.7207   -2.4676    0.0000 C   0  0  3  0  0  0  0  0  0  0  0  0
    3.4484   -3.6698    0.0000 C   0  0  0  0  0  0  0  0  0  0  0  0
    3.4484   -4.5557    0.0000 C   0  0  0  0  0  0  0  0  0  0  0  0
    2.0248   -4.5557    0.0000 C   0  0  0  0  0  0  0  0  0  0  0  0
    2.0248   -3.6698    0.0000 C   0  0  0  0  0  0  0  0  0  0  0  0
    1.2971   -4.9669    0.0000 C   0  0  0  0  0  0  0  0  0  0  0  0
    2.6891   -1.6451    0.0000 C   0  0  0  0  0  0  0  0  0  0  0  0
    2.7207   -4.9353    0.0000 C   0  0  0  0  0  0  0  0  0  0  0  0
    4.7455   -4.1127    0.0000 C   0  0  0  0  0  0  0  0  0  0  0  0
    1.9931   -2.0564    0.0000 C   0  0  0  0  0  0  0  0  0  0  0  0
    0.5378   -4.6189    0.0000 C   0  0  0  0  0  0  0  0  0  0  0  0
    1.2338   -5.7895    0.0000 C   0  0  0  0  0  0  0  0  0  0  0  0
    3.4168   -1.2338    0.0000 C   0  0  0  0  0  0  0  0  0  0  0  0
    1.9615   -0.4113    0.0000 C   0  0  0  0  0  0  0  0  0  0  0  0
    3.3851   -0.3796    0.0000 C   0  0  0  0  0  0  0  0  0  0  0  0
    1.2655   -2.4676    0.0000 C   0  0  0  0  0  0  0  0  0  0  0  0
    0.3796   -3.8280    0.0000 C   0  0  0  0  0  0  0  0  0  0  0  0
    1.8349   -6.3273    0.0000 C   0  0  0  0  0  0  0  0  0  0  0  0
    2.6891    0.0000    0.0000 C   0  0  0  0  0  0  0  0  0  0  0  0
  1  9  1  0  0  0  0
  2  7  1  0  0  0  0
  2 19  1  0  0  0  0
  3 17  2  0  0  0  0
  4 10  1  0  0  0  0
  4 17  1  0  0  0  0
  5 11  1  0  0  0  0
  5 17  1  0  0  0  0
  6 15  1  0  0  0  0
  6 22  2  0  0  0  0
  7 20  2  0  0  0  0
  8  9  1  0  0  0  0
  8 10  1  0  0  0  0
  8 13  2  0  0  0  0
  9 15  1  0  0  0  0
  9 18  1  0  0  0  0
 10 11  2  0  0  0  0
 11 16  1  0  0  0  0
 12 13  1  0  0  0  0
 12 14  1  0  0  0  0
 12 16  2  0  0  0  0
 14 19  2  0  0  0  0
 14 20  1  0  0  0  0
 15 21  2  0  0  0  0
 18 24  1  0  0  0  0
 19 25  1  0  0  0  0
 20 26  1  0  0  0  0
 21 23  1  0  0  0  0
 22 27  1  0  0  0  0
 23 27  2  0  0  0  0
M  END
> <PUBCHEM_COMPOUND_ID_TYPE>
0

> <PUBCHEM_TOTAL_CHARGE>
0

> <PUBCHEM_SUBSTANCE_ID>
310933407

> <PUBCHEM_SUBSTANCE_VERSION>
1

> <PUBCHEM_EXT_DATASOURCE_NAME>
4488

> <PUBCHEM_EXT_DATASOURCE_REGID>
SCHEMBL16110823

> <PUBCHEM_SUBSTANCE_COMMENT>
InChI=1S/C20H20N4O3/c1-4-20(26,16-7-5-6-8-21-16)14-9-13(17-11(2)24-27-12(17)3)10-15-18(14)23-19(25)22-15/h5-10,26H,4H2,1-3H3,(H2,22,23,25)
InChIKey=AMQXFAHQTBACHU-UHFFFAOYSA-N

> <PUBCHEM_SUBSTANCE_SYNONYM>
SCHEMBL16110823

> <PUBCHEM_XREF_EXT_ID>
SCHEMBL16110823

> <PUBCHEM_EXT_DATASOURCE_URL>
https://www.surechembl.org/

> <PUBCHEM_EXT_SUBSTANCE_URL>
https://www.surechembl.org/chemical/SCHEMBL16110823

> <PUBCHEM_CID_ASSOCIATIONS>
117601817  1

> <PUBCHEM_COORDINATE_TYPE>
1
3

$$$$
