310935765
  -OEChem-07211613022D

 21 20  0     1  0  0  0  0  0999 V2000
    3.2999   -2.0976    0.0000 P   0  0  3  0  0  0  0  0  0  0  0  0
    2.4557   -2.0976    0.0000 O   0  0  0  0  0  0  0  0  0  0  0  0
    4.1441   -2.0976    0.0000 O   0  0  0  0  0  0  0  0  0  0  0  0
    4.7580   -1.2535    0.0000 O   0  0  0  0  0  0  0  0  0  0  0  0
    4.0418    0.0000    0.0000 O   0  0  0  0  0  0  0  0  0  0  0  0
    3.2999   -1.2535    0.0000 C   0  0  0  0  0  0  0  0  0  0  0  0
    4.0418   -0.8441    0.0000 C   0  0  0  0  0  0  0  0  0  0  0  0
    3.2999   -2.9418    0.0000 C   0  0  0  0  0  0  0  0  0  0  0  0
    2.5837   -0.8441    0.0000 C   0  0  0  0  0  0  0  0  0  0  0  0
    3.2999   -0.4349    0.0000 C   0  0  0  0  0  0  0  0  0  0  0  0
    2.0465   -2.8395    0.0000 C   0  0  0  0  0  0  0  0  0  0  0  0
    4.0418   -3.3511    0.0000 C   0  0  0  0  0  0  0  0  0  0  0  0
    5.4999   -0.8441    0.0000 C   0  0  0  0  0  0  0  0  0  0  0  0
    1.2279   -2.8651    0.0000 C   0  0  0  0  0  0  0  0  0  0  0  0
    6.2162   -1.2535    0.0000 C   0  0  0  0  0  0  0  0  0  0  0  0
    0.8186   -3.5813    0.0000 C   0  0  0  0  0  0  0  0  0  0  0  0
    6.9324   -0.8441    0.0000 C   0  0  0  0  0  0  0  0  0  0  0  0
    0.0000   -3.6069    0.0000 C   0  0  0  0  0  0  0  0  0  0  0  0
    1.2535   -4.2976    0.0000 C   0  0  0  0  0  0  0  0  0  0  0  0
    7.6743   -1.2535    0.0000 C   0  0  0  0  0  0  0  0  0  0  0  0
    6.9324    0.0000    0.0000 C   0  0  0  0  0  0  0  0  0  0  0  0
  1  2  1  0  0  0  0
  1  3  2  0  0  0  0
  1  6  1  0  0  0  0
  1  8  1  0  0  0  0
  2 11  1  0  0  0  0
  4  7  1  0  0  0  0
  4 13  1  0  0  0  0
  5  7  2  0  0  0  0
  6  7  1  0  0  0  0
  6  9  1  0  0  0  0
  6 10  1  0  0  0  0
  8 12  1  0  0  0  0
 11 14  1  0  0  0  0
 13 15  1  0  0  0  0
 14 16  1  0  0  0  0
 15 17  1  0  0  0  0
 16 18  1  0  0  0  0
 16 19  1  0  0  0  0
 17 20  1  0  0  0  0
 17 21  1  0  0  0  0
M  END
> <PUBCHEM_COMPOUND_ID_TYPE>
0

> <PUBCHEM_TOTAL_CHARGE>
0

> <PUBCHEM_SUBSTANCE_ID>
310935765

> <PUBCHEM_SUBSTANCE_VERSION>
1

> <PUBCHEM_EXT_DATASOURCE_NAME>
4488

> <PUBCHEM_EXT_DATASOURCE_REGID>
SCHEMBL16113349

> <PUBCHEM_SUBSTANCE_COMMENT>
InChI=1S/C16H33O4P/c1-8-21(18,20-12-10-14(4)5)16(6,7)15(17)19-11-9-13(2)3/h13-14H,8-12H2,1-7H3
InChIKey=PZXKTLRVJNRVDQ-UHFFFAOYSA-N

> <PUBCHEM_SUBSTANCE_SYNONYM>
SCHEMBL16113349

> <PUBCHEM_XREF_EXT_ID>
SCHEMBL16113349

> <PUBCHEM_EXT_DATASOURCE_URL>
https://www.surechembl.org/

> <PUBCHEM_EXT_SUBSTANCE_URL>
https://www.surechembl.org/chemical/SCHEMBL16113349

> <PUBCHEM_CID_ASSOCIATIONS>
117603764  1

> <PUBCHEM_COORDINATE_TYPE>
1
3

$$$$
