310946633
  -OEChem-07211613022D

 43 43  0     1  0  0  0  0  0999 V2000
    1.1909   12.7176    0.0000 O   0  0  0  0  0  0  0  0  0  0  0  0
    5.3466   10.4135    0.0000 O   0  0  0  0  0  0  0  0  0  0  0  0
    4.7633    9.0051    0.0000 O   0  0  0  0  0  0  0  0  0  0  0  0
    2.6199    8.5926    0.0000 O   0  0  0  0  0  0  0  0  0  0  0  0
    1.9054   13.9551    0.0000 O   0  0  0  0  0  0  0  0  0  0  0  0
    4.0488    8.5926    0.0000 O   0  0  0  0  0  0  0  0  0  0  0  0
    0.4765   13.9551    0.0000 O   0  0  0  0  0  0  0  0  0  0  0  0
    7.5238   10.5698    0.0000 O   0  0  0  0  0  0  0  0  0  0  0  0
    1.9054    6.5301    0.0000 O   0  0  0  0  0  0  0  0  0  0  0  0
    4.0488   13.5426    0.0000 O   0  0  0  0  0  0  0  0  0  0  0  0
    1.9054    4.8801    0.0000 O   0  0  0  0  0  0  0  0  0  0  0  0
    6.1922   13.9551    0.0000 O   0  0  0  0  0  0  0  0  0  0  0  0
    3.3343    4.8801    0.0000 O   0  5  0  0  0  0  0  0  0  0  0  0
    2.6199    6.1176    0.0000 O   0  0  0  0  0  0  0  0  0  0  0  0
    6.9067   15.1926    0.0000 O   0  5  0  0  0  0  0  0  0  0  0  0
    5.4778   15.1926    0.0000 O   0  0  0  0  0  0  0  0  0  0  0  0
    3.3343    9.8301    0.0000 N   0  0  0  0  0  0  0  0  0  0  0  0
    2.6199    5.2926    0.0000 N   0  3  0  0  0  0  0  0  0  0  0  0
    6.1922   14.7801    0.0000 N   0  3  0  0  0  0  0  0  0  0  0  0
    4.0488   10.2426    0.0000 C   0  0  3  0  0  0  0  0  0  0  0  0
    3.3343   11.4801    0.0000 C   0  0  0  0  0  0  0  0  0  0  0  0
    4.0488   11.0676    0.0000 C   0  0  0  0  0  0  0  0  0  0  0  0
    4.7633    9.8301    0.0000 C   0  0  0  0  0  0  0  0  0  0  0  0
    1.9054   12.3051    0.0000 C   0  0  0  0  0  0  0  0  0  0  0  0
    3.3343   12.3051    0.0000 C   0  0  0  0  0  0  0  0  0  0  0  0
    2.6199   11.0676    0.0000 C   0  0  0  0  0  0  0  0  0  0  0  0
    2.6199   12.7176    0.0000 C   0  0  0  0  0  0  0  0  0  0  0  0
    1.9054   11.4801    0.0000 C   0  0  0  0  0  0  0  0  0  0  0  0
    3.3343    9.0051    0.0000 C   0  0  0  0  0  0  0  0  0  0  0  0
    1.1909   13.5426    0.0000 C   0  0  0  0  0  0  0  0  0  0  0  0
    6.1435   10.1999    0.0000 C   0  0  0  0  0  0  0  0  0  0  0  0
    2.6199    7.7676    0.0000 C   0  0  0  0  0  0  0  0  0  0  0  0
    6.7269   10.7833    0.0000 C   0  0  0  0  0  0  0  0  0  0  0  0
    2.6199   13.5426    0.0000 C   0  0  0  0  0  0  0  0  0  0  0  0
    1.9054    7.3551    0.0000 C   0  0  0  0  0  0  0  0  0  0  0  0
    3.3343   13.9551    0.0000 C   0  0  0  0  0  0  0  0  0  0  0  0
    8.1071   11.1531    0.0000 C   0  0  0  0  0  0  0  0  0  0  0  0
    1.1909    6.1176    0.0000 C   0  0  0  0  0  0  0  0  0  0  0  0
    4.7633   13.9551    0.0000 C   0  0  0  0  0  0  0  0  0  0  0  0
    1.1909    5.2926    0.0000 C   0  0  0  0  0  0  0  0  0  0  0  0
    5.4778   13.5426    0.0000 C   0  0  0  0  0  0  0  0  0  0  0  0
    8.9040   10.9396    0.0000 C   0  0  0  0  0  0  0  0  0  0  0  0
    9.4874   11.5230    0.0000 C   0  0  0  0  0  0  0  0  0  0  0  0
  1 24  1  0  0  0  0
  1 30  1  0  0  0  0
  2 23  1  0  0  0  0
  2 31  1  0  0  0  0
  3 23  2  0  0  0  0
  4 29  1  0  0  0  0
  4 32  1  0  0  0  0
  5 30  1  0  0  0  0
  5 34  1  0  0  0  0
  6 29  2  0  0  0  0
  7 30  2  0  0  0  0
  8 33  1  0  0  0  0
  8 37  1  0  0  0  0
  9 35  1  0  0  0  0
  9 38  1  0  0  0  0
 10 36  1  0  0  0  0
 10 39  1  0  0  0  0
 11 18  1  0  0  0  0
 11 40  1  0  0  0  0
 12 19  1  0  0  0  0
 12 41  1  0  0  0  0
 13 18  1  0  0  0  0
 14 18  2  0  0  0  0
 15 19  1  0  0  0  0
 16 19  2  0  0  0  0
 17 20  1  0  0  0  0
 17 29  1  0  0  0  0
 20 22  1  0  0  0  0
 20 23  1  0  0  0  0
 21 22  1  0  0  0  0
 21 25  2  0  0  0  0
 21 26  1  0  0  0  0
 24 27  2  0  0  0  0
 24 28  1  0  0  0  0
 25 27  1  0  0  0  0
 26 28  2  0  0  0  0
 31 33  1  0  0  0  0
 32 35  1  0  0  0  0
 34 36  1  0  0  0  0
 37 42  1  0  0  0  0
 38 40  1  0  0  0  0
 39 41  1  0  0  0  0
 42 43  1  0  0  0  0
M  CHG  4  13  -1  15  -1  18   1  19   1
M  END
> <PUBCHEM_COMPOUND_ID_TYPE>
0

> <PUBCHEM_TOTAL_CHARGE>
0

> <PUBCHEM_SUBSTANCE_ID>
310946633

> <PUBCHEM_SUBSTANCE_VERSION>
1

> <PUBCHEM_EXT_DATASOURCE_NAME>
4488

> <PUBCHEM_EXT_DATASOURCE_REGID>
SCHEMBL16124754

> <PUBCHEM_SUBSTANCE_COMMENT>
InChI=1S/C24H35N3O16/c1-2-7-35-8-13-38-22(28)21(25-23(29)39-14-9-36-11-16-41-26(31)32)18-19-3-5-20(6-4-19)43-24(30)40-15-10-37-12-17-42-27(33)34/h3-6,21H,2,7-18H2,1H3,(H,25,29)
InChIKey=CPODZYCGMIAYDF-UHFFFAOYSA-N

> <PUBCHEM_SUBSTANCE_SYNONYM>
SCHEMBL16124754

> <PUBCHEM_XREF_EXT_ID>
SCHEMBL16124754

> <PUBCHEM_EXT_DATASOURCE_URL>
https://www.surechembl.org/

> <PUBCHEM_EXT_SUBSTANCE_URL>
https://www.surechembl.org/chemical/SCHEMBL16124754

> <PUBCHEM_CID_ASSOCIATIONS>
117612533  1

> <PUBCHEM_COORDINATE_TYPE>
1
3

$$$$
