310948180
  -OEChem-07211613022D

 38 41  0     1  0  0  0  0  0999 V2000
    2.2838   -1.4029    0.0000 Br  0  0  0  0  0  0  0  0  0  0  0  0
    4.3882   -0.0652    0.0000 F   0  0  0  0  0  0  0  0  0  0  0  0
    3.8499   -1.0277    0.0000 F   0  0  0  0  0  0  0  0  0  0  0  0
    2.8221   -0.5709    0.0000 O   0  0  0  0  0  0  0  0  0  0  0  0
    3.4910    0.5873    0.0000 O   0  0  0  0  0  0  0  0  0  0  0  0
   -0.1957    1.4845    0.0000 O   0  0  0  0  0  0  0  0  0  0  0  0
   -1.0277    0.0490    0.0000 O   0  0  0  0  0  0  0  0  0  0  0  0
   -4.3882   -0.3426    0.0000 O   0  0  0  0  0  0  0  0  0  0  0  0
   -3.8009   -1.6639    0.0000 O   0  0  0  0  0  0  0  0  0  0  0  0
    0.9461    2.2675    0.0000 O   0  0  0  0  0  0  0  0  0  0  0  0
   -1.5008   -2.0717    0.0000 N   0  0  0  0  0  0  0  0  0  0  0  0
   -2.3001   -1.8108    0.0000 N   0  0  0  0  0  0  0  0  0  0  0  0
   -1.0277   -1.3866    0.0000 C   0  0  0  0  0  0  0  0  0  0  0  0
   -0.1957   -1.4029    0.0000 C   0  0  0  0  0  0  0  0  0  0  0  0
    0.2121   -0.6688    0.0000 C   0  0  0  0  0  0  0  0  0  0  0  0
   -2.2838   -0.9788    0.0000 C   0  0  0  0  0  0  0  0  0  0  0  0
    2.2838    0.0490    0.0000 C   0  0  0  0  0  0  0  0  0  0  0  0
   -0.1795    0.0490    0.0000 C   0  0  0  0  0  0  0  0  0  0  0  0
    0.2121    0.7830    0.0000 C   0  0  3  0  0  0  0  0  0  0  0  0
    1.0440    0.7830    0.0000 C   0  0  0  0  0  0  0  0  0  0  0  0
    2.6753    0.7830    0.0000 C   0  0  0  0  0  0  0  0  0  0  0  0
   -2.9526   -0.4731    0.0000 C   0  0  0  0  0  0  0  0  0  0  0  0
    3.5888   -0.2121    0.0000 C   0  0  0  0  0  0  0  0  0  0  0  0
   -1.5171   -0.7178    0.0000 C   0  0  0  0  0  0  0  0  0  0  0  0
    1.4518    0.0652    0.0000 C   0  0  0  0  0  0  0  0  0  0  0  0
    1.0440   -0.7014    0.0000 C   0  0  0  0  0  0  0  0  0  0  0  0
    0.2284   -2.1044    0.0000 C   0  0  0  0  0  0  0  0  0  0  0  0
    1.4518    1.4682    0.0000 C   0  0  0  0  0  0  0  0  0  0  0  0
    2.2838    1.4845    0.0000 C   0  0  0  0  0  0  0  0  0  0  0  0
   -3.7030   -0.7993    0.0000 C   0  0  0  0  0  0  0  0  0  0  0  0
    1.4356   -1.3866    0.0000 C   0  0  0  0  0  0  0  0  0  0  0  0
    1.0440   -2.1044    0.0000 C   0  0  0  0  0  0  0  0  0  0  0  0
   -3.3931    0.2121    0.0000 C   0  0  0  0  0  0  0  0  0  0  0  0
   -2.3491    0.0652    0.0000 C   0  0  0  0  0  0  0  0  0  0  0  0
   -1.2398   -2.8711    0.0000 C   0  0  0  0  0  0  0  0  0  0  0  0
    0.1795    2.2186    0.0000 C   0  0  0  0  0  0  0  0  0  0  0  0
   -0.2773    2.8711    0.0000 C   0  0  0  0  0  0  0  0  0  0  0  0
   -4.2903    0.5057    0.0000 C   0  0  0  0  0  0  0  0  0  0  0  0
  1 31  1  0  0  0  0
  2 23  1  0  0  0  0
  3 23  1  0  0  0  0
  4 17  1  0  0  0  0
  4 23  1  0  0  0  0
  5 21  1  0  0  0  0
  5 23  1  0  0  0  0
  6 19  1  0  0  0  0
  6 36  1  0  0  0  0
  7 18  2  0  0  0  0
  8 30  1  0  0  0  0
  8 38  1  0  0  0  0
  9 30  2  0  0  0  0
 10 36  2  0  0  0  0
 11 12  1  0  0  0  0
 11 13  1  0  0  0  0
 11 35  1  0  0  0  0
 12 16  2  0  0  0  0
 13 14  1  0  0  0  0
 13 24  2  0  0  0  0
 14 15  1  0  0  0  0
 14 27  2  0  0  0  0
 15 18  1  0  0  0  0
 15 26  2  0  0  0  0
 16 22  1  0  0  0  0
 16 24  1  0  0  0  0
 17 21  1  0  0  0  0
 17 25  2  0  0  0  0
 18 19  1  0  0  0  0
 19 20  1  0  0  0  0
 20 25  1  0  0  0  0
 20 28  2  0  0  0  0
 21 29  2  0  0  0  0
 22 30  1  0  0  0  0
 22 33  1  0  0  0  0
 22 34  1  0  0  0  0
 26 31  1  0  0  0  0
 27 32  1  0  0  0  0
 28 29  1  0  0  0  0
 31 32  2  0  0  0  0
 36 37  1  0  0  0  0
M  END
> <PUBCHEM_COMPOUND_ID_TYPE>
0

> <PUBCHEM_TOTAL_CHARGE>
0

> <PUBCHEM_SUBSTANCE_ID>
310948180

> <PUBCHEM_SUBSTANCE_VERSION>
1

> <PUBCHEM_EXT_DATASOURCE_NAME>
4488

> <PUBCHEM_EXT_DATASOURCE_REGID>
SCHEMBL16126357

> <PUBCHEM_SUBSTANCE_COMMENT>
InChI=1S/C26H23BrF2N2O7/c1-13(32)36-23(14-6-9-19-20(10-14)38-26(28,29)37-19)22(33)17-11-15(27)7-8-16(17)18-12-21(30-31(18)4)25(2,3)24(34)35-5/h6-12,23H,1-5H3
InChIKey=XDMKXEZCCYGDLB-UHFFFAOYSA-N

> <PUBCHEM_SUBSTANCE_SYNONYM>
SCHEMBL16126357

> <PUBCHEM_XREF_EXT_ID>
SCHEMBL16126357

> <PUBCHEM_EXT_DATASOURCE_URL>
https://www.surechembl.org/

> <PUBCHEM_EXT_SUBSTANCE_URL>
https://www.surechembl.org/chemical/SCHEMBL16126357

> <PUBCHEM_CID_ASSOCIATIONS>
117613767  1

> <PUBCHEM_COORDINATE_TYPE>
1
3

$$$$
