310938159
  -OEChem-07211613022D

 23 22  0     1  0  0  0  0  0999 V2000
   11.7192   -3.0492    0.0000 O   0  0  0  0  0  0  0  0  0  0  0  0
   11.2514   -1.6990    0.0000 O   0  0  0  0  0  0  0  0  0  0  0  0
    9.2246   -0.8889    0.0000 O   0  0  0  0  0  0  0  0  0  0  0  0
   10.6278   -1.1589    0.0000 O   0  0  0  0  0  0  0  0  0  0  0  0
    4.7032   -1.6990    0.0000 O   0  0  0  0  0  0  0  0  0  0  0  0
    5.6387   -0.6188    0.0000 O   0  0  0  0  0  0  0  0  0  0  0  0
   10.3160   -2.7792    0.0000 N   0  0  0  0  0  0  0  0  0  0  0  0
    6.1064   -1.9690    0.0000 N   0  0  0  0  0  0  0  0  0  0  0  0
    9.6923   -2.2391    0.0000 C   0  0  3  0  0  0  0  0  0  0  0  0
   11.0955   -2.5091    0.0000 C   0  0  0  0  0  0  0  0  0  0  0  0
   12.4987   -2.7792    0.0000 C   0  0  0  0  0  0  0  0  0  0  0  0
    9.8482   -1.4289    0.0000 C   0  0  0  0  0  0  0  0  0  0  0  0
    8.9128   -2.5091    0.0000 C   0  0  0  0  0  0  0  0  0  0  0  0
    8.2891   -1.9690    0.0000 C   0  0  0  0  0  0  0  0  0  0  0  0
   13.2783   -2.5091    0.0000 C   0  0  0  0  0  0  0  0  0  0  0  0
   12.7688   -3.5587    0.0000 C   0  0  0  0  0  0  0  0  0  0  0  0
   12.2287   -1.9996    0.0000 C   0  0  0  0  0  0  0  0  0  0  0  0
    7.5096   -2.2391    0.0000 C   0  0  0  0  0  0  0  0  0  0  0  0
    5.4827   -1.4289    0.0000 C   0  0  0  0  0  0  0  0  0  0  0  0
    6.8859   -1.6990    0.0000 C   0  0  0  0  0  0  0  0  0  0  0  0
    4.0796   -1.1589    0.0000 C   0  0  0  0  0  0  0  0  0  0  0  0
    3.3000   -1.4289    0.0000 C   0  0  0  0  0  0  0  0  0  0  0  0
    2.6764   -0.8889    0.0000 C   0  0  0  0  0  0  0  0  0  0  0  0
  1 10  1  0  0  0  0
  1 11  1  0  0  0  0
  2 10  2  0  0  0  0
  3 12  2  0  0  0  0
  4 12  1  0  0  0  0
  5 19  1  0  0  0  0
  5 21  1  0  0  0  0
  6 19  2  0  0  0  0
  7  9  1  0  0  0  0
  7 10  1  0  0  0  0
  8 19  1  0  0  0  0
  8 20  1  0  0  0  0
  9 12  1  0  0  0  0
  9 13  1  0  0  0  0
 11 15  1  0  0  0  0
 11 16  1  0  0  0  0
 11 17  1  0  0  0  0
 13 14  1  0  0  0  0
 14 18  1  0  0  0  0
 18 20  1  0  0  0  0
 21 22  1  0  0  0  0
 22 23  2  0  0  0  0
M  END
> <PUBCHEM_COMPOUND_ID_TYPE>
0

> <PUBCHEM_TOTAL_CHARGE>
0

> <PUBCHEM_SUBSTANCE_ID>
310938159

> <PUBCHEM_SUBSTANCE_VERSION>
1

> <PUBCHEM_EXT_DATASOURCE_NAME>
4488

> <PUBCHEM_EXT_DATASOURCE_REGID>
SCHEMBL16116011

> <PUBCHEM_SUBSTANCE_COMMENT>
InChI=1S/C15H26N2O6/c1-5-10-22-13(20)16-9-7-6-8-11(12(18)19)17-14(21)23-15(2,3)4/h5,11H,1,6-10H2,2-4H3,(H,16,20)(H,17,21)(H,18,19)
InChIKey=WSUYYYMWIGBPJO-UHFFFAOYSA-N

> <PUBCHEM_SUBSTANCE_SYNONYM>
SCHEMBL16116011

> <PUBCHEM_XREF_EXT_ID>
SCHEMBL16116011

> <PUBCHEM_EXT_DATASOURCE_URL>
https://www.surechembl.org/

> <PUBCHEM_EXT_SUBSTANCE_URL>
https://www.surechembl.org/chemical/SCHEMBL16116011

> <PUBCHEM_CID_ASSOCIATIONS>
5045950  1

> <PUBCHEM_COORDINATE_TYPE>
1
3

$$$$
