310933642
  -OEChem-07211613022D

 31 34  0     1  0  0  0  0  0999 V2000
    2.7286    0.0000    0.0000 F   0  0  0  0  0  0  0  0  0  0  0  0
    3.9565   -0.7162    0.0000 F   0  0  0  0  0  0  0  0  0  0  0  0
    2.2852   -0.7162    0.0000 F   0  0  0  0  0  0  0  0  0  0  0  0
    1.9100   -2.8992    0.0000 O   0  0  0  0  0  0  0  0  0  0  0  0
    0.0000   -5.6960    0.0000 O   0  0  0  0  0  0  0  0  0  0  0  0
    5.6278   -4.5705    0.0000 O   0  0  0  0  0  0  0  0  0  0  0  0
    4.2635   -3.8883    0.0000 N   0  0  0  0  0  0  0  0  0  0  0  0
    4.2635   -5.2526    0.0000 N   0  0  0  0  0  0  0  0  0  0  0  0
    3.9565   -2.1829    0.0000 N   0  0  0  0  0  0  0  0  0  0  0  0
    0.4093   -6.4464    0.0000 N   0  0  0  0  0  0  0  0  0  0  0  0
    2.7628   -3.7519    0.0000 C   0  0  0  0  0  0  0  0  0  0  0  0
    2.7286   -2.8992    0.0000 C   0  0  3  0  0  0  0  0  0  0  0  0
    3.4790   -4.1270    0.0000 C   0  0  0  0  0  0  0  0  0  0  0  0
    3.4790   -5.0138    0.0000 C   0  0  0  0  0  0  0  0  0  0  0  0
    2.0464   -5.0138    0.0000 C   0  0  0  0  0  0  0  0  0  0  0  0
    2.0464   -4.1270    0.0000 C   0  0  0  0  0  0  0  0  0  0  0  0
    3.5814   -2.8992    0.0000 C   0  0  0  0  0  0  0  0  0  0  0  0
    1.3302   -5.4231    0.0000 C   0  0  0  0  0  0  0  0  0  0  0  0
    2.7628   -5.4231    0.0000 C   0  0  0  0  0  0  0  0  0  0  0  0
    3.1379   -2.1829    0.0000 C   0  0  0  0  0  0  0  0  0  0  0  0
    4.7751   -4.5705    0.0000 C   0  0  0  0  0  0  0  0  0  0  0  0
    0.5457   -5.1162    0.0000 C   0  0  0  0  0  0  0  0  0  0  0  0
    1.2279   -6.2417    0.0000 C   0  0  0  0  0  0  0  0  0  0  0  0
    3.9906   -3.6154    0.0000 C   0  0  0  0  0  0  0  0  0  0  0  0
    2.7286   -1.4666    0.0000 C   0  0  0  0  0  0  0  0  0  0  0  0
    3.1379   -0.7162    0.0000 C   0  0  0  0  0  0  0  0  0  0  0  0
    4.8092   -2.1488    0.0000 C   0  0  0  0  0  0  0  0  0  0  0  0
    4.8433   -3.5814    0.0000 C   0  0  0  0  0  0  0  0  0  0  0  0
    0.3752   -4.2976    0.0000 C   0  0  0  0  0  0  0  0  0  0  0  0
    1.8759   -6.8216    0.0000 C   0  0  0  0  0  0  0  0  0  0  0  0
    5.2185   -2.8650    0.0000 C   0  0  0  0  0  0  0  0  0  0  0  0
  1 26  1  0  0  0  0
  2 26  1  0  0  0  0
  3 26  1  0  0  0  0
  4 12  1  0  0  0  0
  5 10  1  0  0  0  0
  5 22  1  0  0  0  0
  6 21  2  0  0  0  0
  7 13  1  0  0  0  0
  7 21  1  0  0  0  0
  8 14  1  0  0  0  0
  8 21  1  0  0  0  0
  9 17  1  0  0  0  0
  9 27  2  0  0  0  0
 10 23  2  0  0  0  0
 11 12  1  0  0  0  0
 11 13  1  0  0  0  0
 11 16  2  0  0  0  0
 12 17  1  0  0  0  0
 12 20  1  0  0  0  0
 13 14  2  0  0  0  0
 14 19  1  0  0  0  0
 15 16  1  0  0  0  0
 15 18  1  0  0  0  0
 15 19  2  0  0  0  0
 17 24  2  0  0  0  0
 18 22  2  0  0  0  0
 18 23  1  0  0  0  0
 20 25  1  0  0  0  0
 22 29  1  0  0  0  0
 23 30  1  0  0  0  0
 24 28  1  0  0  0  0
 25 26  1  0  0  0  0
 27 31  1  0  0  0  0
 28 31  2  0  0  0  0
M  END
> <PUBCHEM_COMPOUND_ID_TYPE>
0

> <PUBCHEM_TOTAL_CHARGE>
0

> <PUBCHEM_SUBSTANCE_ID>
310933642

> <PUBCHEM_SUBSTANCE_VERSION>
1

> <PUBCHEM_EXT_DATASOURCE_NAME>
4488

> <PUBCHEM_EXT_DATASOURCE_REGID>
SCHEMBL16111073

> <PUBCHEM_SUBSTANCE_COMMENT>
InChI=1S/C21H19F3N4O3/c1-11-17(12(2)31-28-11)13-9-14(18-15(10-13)26-19(29)27-18)20(30,6-7-21(22,23)24)16-5-3-4-8-25-16/h3-5,8-10,30H,6-7H2,1-2H3,(H2,26,27,29)
InChIKey=DEYCKSXAMKJVPC-UHFFFAOYSA-N

> <PUBCHEM_SUBSTANCE_SYNONYM>
SCHEMBL16111073

> <PUBCHEM_XREF_EXT_ID>
SCHEMBL16111073

> <PUBCHEM_EXT_DATASOURCE_URL>
https://www.surechembl.org/

> <PUBCHEM_EXT_SUBSTANCE_URL>
https://www.surechembl.org/chemical/SCHEMBL16111073

> <PUBCHEM_CID_ASSOCIATIONS>
86297158  1

> <PUBCHEM_COORDINATE_TYPE>
1
3

$$$$
