310938613
  -OEChem-07211613022D

 14 14  0     1  0  0  0  0  0999 V2000
    0.8431  -11.0743    0.0000 O   0  0  0  0  0  0  0  0  0  0  0  0
    0.1287  -13.1368    0.0000 N   0  0  3  0  0  0  0  0  0  0  0  0
    1.5576  -12.3118    0.0000 N   0  0  0  0  0  0  0  0  0  0  0  0
    0.8431  -11.8993    0.0000 C   0  0  0  0  0  0  0  0  0  0  0  0
    0.1287  -12.3118    0.0000 C   0  0  0  0  0  0  0  0  0  0  0  0
    0.8431  -13.5493    0.0000 C   0  0  0  0  0  0  0  0  0  0  0  0
    1.5576  -13.1368    0.0000 C   0  0  0  0  0  0  0  0  0  0  0  0
   -0.5858  -13.5493    0.0000 C   0  0  0  0  0  0  0  0  0  0  0  0
   -2.0148  -13.5493    0.0000 C   0  0  0  0  0  0  0  0  0  0  0  0
   -1.3003  -13.1368    0.0000 C   0  0  0  0  0  0  0  0  0  0  0  0
    2.2721  -11.8993    0.0000 C   0  0  0  0  0  0  0  0  0  0  0  0
   -2.4273  -12.8349    0.0000 C   0  0  0  0  0  0  0  0  0  0  0  0
   -1.6023  -14.2638    0.0000 C   0  0  0  0  0  0  0  0  0  0  0  0
   -2.7292  -13.9618    0.0000 C   0  0  0  0  0  0  0  0  0  0  0  0
  1  4  2  0  0  0  0
  2  5  1  0  0  0  0
  2  6  1  0  0  0  0
  2  8  1  0  0  0  0
  3  4  1  0  0  0  0
  3  7  1  0  0  0  0
  3 11  1  0  0  0  0
  4  5  1  0  0  0  0
  6  7  1  0  0  0  0
  8 10  1  0  0  0  0
  9 10  1  0  0  0  0
  9 12  1  0  0  0  0
  9 13  1  0  0  0  0
  9 14  1  0  0  0  0
M  END
> <PUBCHEM_COMPOUND_ID_TYPE>
0

> <PUBCHEM_TOTAL_CHARGE>
0

> <PUBCHEM_SUBSTANCE_ID>
310938613

> <PUBCHEM_SUBSTANCE_VERSION>
1

> <PUBCHEM_EXT_DATASOURCE_NAME>
4488

> <PUBCHEM_EXT_DATASOURCE_REGID>
SCHEMBL16116527

> <PUBCHEM_SUBSTANCE_COMMENT>
InChI=1S/C11H22N2O/c1-11(2,3)5-6-13-8-7-12(4)10(14)9-13/h5-9H2,1-4H3
InChIKey=PHLNECVCCBZZBM-UHFFFAOYSA-N

> <PUBCHEM_SUBSTANCE_SYNONYM>
SCHEMBL16116527

> <PUBCHEM_XREF_EXT_ID>
SCHEMBL16116527

> <PUBCHEM_EXT_DATASOURCE_URL>
https://www.surechembl.org/

> <PUBCHEM_EXT_SUBSTANCE_URL>
https://www.surechembl.org/chemical/SCHEMBL16116527

> <PUBCHEM_CID_ASSOCIATIONS>
117606046  1

> <PUBCHEM_COORDINATE_TYPE>
1
3

> <PUBCHEM_BONDANNOTATIONS>
9  12  3
9  13  3

$$$$
