310946973
  -OEChem-07211613022D

 34 38  0     1  0  0  0  0  0999 V2000
    3.1052   -0.4740    0.0000 F   0  0  0  0  0  0  0  0  0  0  0  0
    3.9178   -1.2672    0.0000 F   0  0  0  0  0  0  0  0  0  0  0  0
    3.1052   -2.0605    0.0000 F   0  0  0  0  0  0  0  0  0  0  0  0
    2.4860   -2.0605    0.0000 O   0  0  0  0  0  0  0  0  0  0  0  0
   -2.6021   -2.6021    0.0000 O   0  0  0  0  0  0  0  0  0  0  0  0
   -1.8863    0.1064    0.0000 N   0  0  0  0  0  0  0  0  0  0  0  0
   -1.2092   -0.3967    0.0000 N   0  0  0  0  0  0  0  0  0  0  0  0
   -0.9770   -1.8477    0.0000 N   0  0  0  0  0  0  0  0  0  0  0  0
   -3.6663   -1.6349    0.0000 N   0  0  0  0  0  0  0  0  0  0  0  0
   -1.8863    2.6021    0.0000 N   0  0  0  0  0  0  0  0  0  0  0  0
    0.2806    1.2865    0.0000 N   0  0  0  0  0  0  0  0  0  0  0  0
    2.2540   -1.2672    0.0000 C   0  0  3  0  0  0  0  0  0  0  0  0
   -2.5634   -0.3967    0.0000 C   0  0  0  0  0  0  0  0  0  0  0  0
   -2.2927   -1.1705    0.0000 C   0  0  0  0  0  0  0  0  0  0  0  0
   -1.8477    0.9189    0.0000 C   0  0  0  0  0  0  0  0  0  0  0  0
   -1.4606   -1.1898    0.0000 C   0  0  0  0  0  0  0  0  0  0  0  0
    1.4801   -1.5381    0.0000 C   0  0  0  0  0  0  0  0  0  0  0  0
    0.9770   -0.8803    0.0000 C   0  0  0  0  0  0  0  0  0  0  0  0
    3.1052   -1.2672    0.0000 C   0  0  0  0  0  0  0  0  0  0  0  0
   -2.8536   -1.8090    0.0000 C   0  0  0  0  0  0  0  0  0  0  0  0
    2.2733   -0.4353    0.0000 C   0  0  0  0  0  0  0  0  0  0  0  0
   -0.1645   -1.7702    0.0000 C   0  0  0  0  0  0  0  0  0  0  0  0
    1.4994   -0.2031    0.0000 C   0  0  0  0  0  0  0  0  0  0  0  0
    0.1645   -1.0157    0.0000 C   0  0  0  0  0  0  0  0  0  0  0  0
   -3.3567   -0.2225    0.0000 C   0  0  0  0  0  0  0  0  0  0  0  0
    1.1898   -2.2927    0.0000 C   0  0  0  0  0  0  0  0  0  0  0  0
   -2.6021    1.3446    0.0000 C   0  0  0  0  0  0  0  0  0  0  0  0
   -1.1705    1.3446    0.0000 C   0  0  0  0  0  0  0  0  0  0  0  0
   -1.1705    0.5127    0.0000 C   0  0  0  0  0  0  0  0  0  0  0  0
    0.3579   -2.4087    0.0000 C   0  0  0  0  0  0  0  0  0  0  0  0
   -3.9178   -0.8803    0.0000 C   0  0  0  0  0  0  0  0  0  0  0  0
   -2.5828    2.1766    0.0000 C   0  0  0  0  0  0  0  0  0  0  0  0
   -1.1511    2.1572    0.0000 C   0  0  0  0  0  0  0  0  0  0  0  0
   -0.4353    0.9189    0.0000 C   0  0  0  0  0  0  0  0  0  0  0  0
  1 19  1  0  0  0  0
  2 19  1  0  0  0  0
  3 19  1  0  0  0  0
  4 12  1  0  0  0  0
  5 20  2  0  0  0  0
  6  7  1  0  0  0  0
  6 13  1  0  0  0  0
  6 15  1  0  0  0  0
  7 16  2  0  0  0  0
  8 16  1  0  0  0  0
  8 22  1  0  0  0  0
  9 20  1  0  0  0  0
  9 31  1  0  0  0  0
 10 32  1  0  0  0  0
 10 33  1  0  0  0  0
 11 34  3  0  0  0  0
 12 17  1  0  0  0  0
 12 19  1  0  0  0  0
 12 21  1  0  0  0  0
 13 14  2  0  0  0  0
 13 25  1  0  0  0  0
 14 16  1  0  0  0  0
 14 20  1  0  0  0  0
 15 27  1  0  0  0  0
 15 28  1  0  0  0  0
 15 29  1  0  0  0  0
 17 18  1  0  0  0  0
 17 26  2  0  0  0  0
 18 23  1  0  0  0  0
 18 24  2  0  0  0  0
 21 23  1  0  0  0  0
 22 24  1  0  0  0  0
 22 30  2  0  0  0  0
 25 31  2  0  0  0  0
 26 30  1  0  0  0  0
 27 32  1  0  0  0  0
 28 33  1  0  0  0  0
 29 34  1  0  0  0  0
M  END
> <PUBCHEM_COMPOUND_ID_TYPE>
0

> <PUBCHEM_TOTAL_CHARGE>
0

> <PUBCHEM_SUBSTANCE_ID>
310946973

> <PUBCHEM_SUBSTANCE_VERSION>
1

> <PUBCHEM_EXT_DATASOURCE_NAME>
4488

> <PUBCHEM_EXT_DATASOURCE_REGID>
SCHEMBL16125111

> <PUBCHEM_SUBSTANCE_COMMENT>
InChI=1S/C23H23F3N6O2/c24-23(25,26)22(34)5-3-14-13-15(1-2-16(14)22)30-19-18-17(4-10-29-20(18)33)32(31-19)21(6-9-27)7-11-28-12-8-21/h1-2,4,10,13,28,34H,3,5-8,11-12H2,(H,29,33)(H,30,31)
InChIKey=CTGNTHUWDYGMHN-UHFFFAOYSA-N

> <PUBCHEM_SUBSTANCE_SYNONYM>
SCHEMBL16125111

> <PUBCHEM_XREF_EXT_ID>
SCHEMBL16125111

> <PUBCHEM_EXT_DATASOURCE_URL>
https://www.surechembl.org/

> <PUBCHEM_EXT_SUBSTANCE_URL>
https://www.surechembl.org/chemical/SCHEMBL16125111

> <PUBCHEM_CID_ASSOCIATIONS>
117612826  1

> <PUBCHEM_COORDINATE_TYPE>
1
3

$$$$
