310936695
  -OEChem-07211613022D

 48 52  0     1  0  0  0  0  0999 V2000
    6.1304   -8.2836    0.0000 F   0  0  0  0  0  0  0  0  0  0  0  0
    5.3155   -8.4126    0.0000 F   0  0  0  0  0  0  0  0  0  0  0  0
    4.7963   -7.7715    0.0000 F   0  0  0  0  0  0  0  0  0  0  0  0
    4.6449   -4.1787    0.0000 F   0  0  0  0  0  0  0  0  0  0  0  0
    5.4598   -4.0496    0.0000 F   0  0  0  0  0  0  0  0  0  0  0  0
    4.3493   -4.9488    0.0000 F   0  0  0  0  0  0  0  0  0  0  0  0
    8.4155   -6.4273    0.0000 O   0  0  0  0  0  0  0  0  0  0  0  0
   12.1846   -7.9344    0.0000 O   0  0  0  0  0  0  0  0  0  0  0  0
    9.8856   -6.4273    0.0000 O   0  0  0  0  0  0  0  0  0  0  0  0
   13.6997   -7.1139    0.0000 O   0  0  0  0  0  0  0  0  0  0  0  0
   12.9853   -5.8764    0.0000 O   0  0  0  0  0  0  0  0  0  0  0  0
    9.0215   -5.2379    0.0000 N   0  0  0  0  0  0  0  0  0  0  0  0
   10.8311   -3.5505    0.0000 N   0  0  3  0  0  0  0  0  0  0  0  0
   11.7872   -4.6124    0.0000 N   0  0  0  0  0  0  0  0  0  0  0  0
   11.3776   -8.1059    0.0000 N   0  0  0  0  0  0  0  0  0  0  0  0
    7.8321   -5.8440    0.0000 C   0  0  0  0  0  0  0  0  0  0  0  0
    8.2067   -5.1089    0.0000 C   0  0  0  0  0  0  0  0  0  0  0  0
    7.0173   -5.9730    0.0000 C   0  0  0  0  0  0  0  0  0  0  0  0
   10.3895   -4.9095    0.0000 C   0  0  0  0  0  0  0  0  0  0  0  0
    9.1505   -6.0528    0.0000 C   0  0  0  0  0  0  0  0  0  0  0  0
   11.5172   -6.7784    0.0000 C   0  0  0  0  0  0  0  0  0  0  0  0
   11.3456   -5.9714    0.0000 C   0  0  0  0  0  0  0  0  0  0  0  0
   11.0026   -4.3575    0.0000 C   0  0  0  0  0  0  0  0  0  0  0  0
    9.6049   -4.6546    0.0000 C   0  0  0  0  0  0  0  0  0  0  0  0
    5.9068   -6.8723    0.0000 C   0  0  0  0  0  0  0  0  0  0  0  0
    5.6833   -5.4609    0.0000 C   0  0  0  0  0  0  0  0  0  0  0  0
   10.5610   -5.7165    0.0000 C   0  0  0  0  0  0  0  0  0  0  0  0
    6.4981   -5.3319    0.0000 C   0  0  0  0  0  0  0  0  0  0  0  0
    6.7216   -6.7432    0.0000 C   0  0  0  0  0  0  0  0  0  0  0  0
   12.2708   -7.1139    0.0000 C   0  0  0  0  0  0  0  0  0  0  0  0
   10.9651   -7.3915    0.0000 C   0  0  0  0  0  0  0  0  0  0  0  0
    5.3876   -6.2311    0.0000 C   0  0  0  0  0  0  0  0  0  0  0  0
    5.6111   -7.6425    0.0000 C   0  0  0  0  0  0  0  0  0  0  0  0
    5.1641   -4.8198    0.0000 C   0  0  0  0  0  0  0  0  0  0  0  0
   11.9587   -5.4194    0.0000 C   0  0  0  0  0  0  0  0  0  0  0  0
   12.9853   -6.7014    0.0000 C   0  0  0  0  0  0  0  0  0  0  0  0
    7.8711   -4.3552    0.0000 C   0  0  0  0  0  0  0  0  0  0  0  0
   11.4441   -2.9985    0.0000 C   0  0  0  0  0  0  0  0  0  0  0  0
   10.0464   -3.2956    0.0000 C   0  0  0  0  0  0  0  0  0  0  0  0
   10.1447   -7.3053    0.0000 C   0  0  0  0  0  0  0  0  0  0  0  0
   11.2726   -2.1915    0.0000 C   0  0  0  0  0  0  0  0  0  0  0  0
   12.2288   -3.2534    0.0000 C   0  0  0  0  0  0  0  0  0  0  0  0
   11.8857   -1.6395    0.0000 C   0  0  0  0  0  0  0  0  0  0  0  0
   12.8419   -2.7014    0.0000 C   0  0  0  0  0  0  0  0  0  0  0  0
    9.9174   -2.4808    0.0000 C   0  0  0  0  0  0  0  0  0  0  0  0
   12.6703   -1.8944    0.0000 C   0  0  0  0  0  0  0  0  0  0  0  0
   14.4142   -6.7014    0.0000 C   0  0  0  0  0  0  0  0  0  0  0  0
   15.1287   -7.1139    0.0000 C   0  0  0  0  0  0  0  0  0  0  0  0
  1 33  1  0  0  0  0
  2 33  1  0  0  0  0
  3 33  1  0  0  0  0
  4 34  1  0  0  0  0
  5 34  1  0  0  0  0
  6 34  1  0  0  0  0
  7 16  1  0  0  0  0
  7 20  1  0  0  0  0
  8 15  1  0  0  0  0
  8 30  1  0  0  0  0
  9 20  2  0  0  0  0
 10 36  1  0  0  0  0
 10 47  1  0  0  0  0
 11 36  2  0  0  0  0
 12 17  1  0  0  0  0
 12 20  1  0  0  0  0
 12 24  1  0  0  0  0
 13 23  1  0  0  0  0
 13 38  1  0  0  0  0
 13 39  1  0  0  0  0
 14 23  1  0  0  0  0
 14 35  2  0  0  0  0
 15 31  2  0  0  0  0
 16 17  2  0  0  0  0
 16 18  1  0  0  0  0
 17 37  1  0  0  0  0
 18 28  2  0  0  0  0
 18 29  1  0  0  0  0
 19 23  2  0  0  0  0
 19 24  1  0  0  0  0
 19 27  1  0  0  0  0
 21 22  1  0  0  0  0
 21 30  2  0  0  0  0
 21 31  1  0  0  0  0
 22 27  2  0  0  0  0
 22 35  1  0  0  0  0
 25 29  2  0  0  0  0
 25 32  1  0  0  0  0
 25 33  1  0  0  0  0
 26 28  1  0  0  0  0
 26 32  2  0  0  0  0
 26 34  1  0  0  0  0
 30 36  1  0  0  0  0
 31 40  1  0  0  0  0
 38 41  1  0  0  0  0
 38 42  1  0  0  0  0
 39 45  1  0  0  0  0
 41 43  1  0  0  0  0
 42 44  1  0  0  0  0
 43 46  1  0  0  0  0
 44 46  1  0  0  0  0
 47 48  1  0  0  0  0
M  END
> <PUBCHEM_COMPOUND_ID_TYPE>
0

> <PUBCHEM_TOTAL_CHARGE>
0

> <PUBCHEM_SUBSTANCE_ID>
310936695

> <PUBCHEM_SUBSTANCE_VERSION>
1

> <PUBCHEM_EXT_DATASOURCE_NAME>
4488

> <PUBCHEM_EXT_DATASOURCE_REGID>
SCHEMBL16114370

> <PUBCHEM_SUBSTANCE_COMMENT>
InChI=1S/C33H34F6N4O5/c1-5-42(25-10-8-7-9-11-25)29-22(12-21(16-40-29)26-18(3)41-48-28(26)30(44)46-6-2)17-43-19(4)27(47-31(43)45)20-13-23(32(34,35)36)15-24(14-20)33(37,38)39/h12-16,25H,5-11,17H2,1-4H3
InChIKey=PQCPHGGDIYYTBA-UHFFFAOYSA-N

> <PUBCHEM_SUBSTANCE_SYNONYM>
SCHEMBL16114370

> <PUBCHEM_XREF_EXT_ID>
SCHEMBL16114370

> <PUBCHEM_EXT_DATASOURCE_URL>
https://www.surechembl.org/

> <PUBCHEM_EXT_SUBSTANCE_URL>
https://www.surechembl.org/chemical/SCHEMBL16114370

> <PUBCHEM_CID_ASSOCIATIONS>
117604598  1

> <PUBCHEM_COORDINATE_TYPE>
1
3

$$$$
