310938720
  -OEChem-07211613022D

 21 20  0     1  0  0  0  0  0999 V2000
    1.8978    8.9664    0.0000 S   0  0  0  0  0  0  0  0  0  0  0  0
    1.1833    9.3789    0.0000 S   0  0  0  0  0  0  0  0  0  0  0  0
    1.8978    8.1414    0.0000 O   0  0  0  0  0  0  0  0  0  0  0  0
    2.6122    6.9039    0.0000 O   0  0  0  0  0  0  0  0  0  0  0  0
    4.0412   10.2039    0.0000 O   0  0  0  0  0  0  0  0  0  0  0  0
   -0.9601    8.1414    0.0000 O   0  0  0  0  0  0  0  0  0  0  0  0
   -1.6746    9.3789    0.0000 O   0  0  0  0  0  0  0  0  0  0  0  0
    3.3267    8.1414    0.0000 N   0  0  0  0  0  0  0  0  0  0  0  0
   -0.2456   10.2039    0.0000 N   0  0  0  0  0  0  0  0  0  0  0  0
    3.3267    8.9664    0.0000 C   0  0  3  0  0  0  0  0  0  0  0  0
    2.6122    7.7289    0.0000 C   0  0  0  0  0  0  0  0  0  0  0  0
    1.1833    7.7289    0.0000 C   0  0  0  0  0  0  0  0  0  0  0  0
    4.0412    9.3789    0.0000 C   0  0  0  0  0  0  0  0  0  0  0  0
    2.6122    9.3789    0.0000 C   0  0  0  0  0  0  0  0  0  0  0  0
   -0.2456    9.3789    0.0000 C   0  0  3  0  0  0  0  0  0  0  0  0
    0.4688    8.9664    0.0000 C   0  0  0  0  0  0  0  0  0  0  0  0
   -0.9601    8.9664    0.0000 C   0  0  0  0  0  0  0  0  0  0  0  0
    0.4688    7.3164    0.0000 C   0  0  0  0  0  0  0  0  0  0  0  0
    1.1833    6.9039    0.0000 C   0  0  0  0  0  0  0  0  0  0  0  0
    0.4688    8.1414    0.0000 C   0  0  0  0  0  0  0  0  0  0  0  0
    4.7556    8.9664    0.0000 C   0  0  0  0  0  0  0  0  0  0  0  0
  1  2  1  0  0  0  0
  1 14  1  0  0  0  0
  2 16  1  0  0  0  0
  3 11  1  0  0  0  0
  3 12  1  0  0  0  0
  4 11  2  0  0  0  0
  5 13  2  0  0  0  0
  6 17  2  0  0  0  0
  7 17  1  0  0  0  0
  8 10  1  0  0  0  0
  8 11  1  0  0  0  0
  9 15  1  0  0  0  0
 10 13  1  0  0  0  0
 10 14  1  0  0  0  0
 12 18  1  0  0  0  0
 12 19  1  0  0  0  0
 12 20  1  0  0  0  0
 13 21  1  0  0  0  0
 15 16  1  0  0  0  0
 15 17  1  0  0  0  0
M  END
> <PUBCHEM_COMPOUND_ID_TYPE>
0

> <PUBCHEM_TOTAL_CHARGE>
0

> <PUBCHEM_SUBSTANCE_ID>
310938720

> <PUBCHEM_SUBSTANCE_VERSION>
1

> <PUBCHEM_EXT_DATASOURCE_NAME>
4488

> <PUBCHEM_EXT_DATASOURCE_REGID>
SCHEMBL16116634

> <PUBCHEM_SUBSTANCE_COMMENT>
InChI=1S/C12H22N2O5S2/c1-7(15)9(14-11(18)19-12(2,3)4)6-21-20-5-8(13)10(16)17/h8-9H,5-6,13H2,1-4H3,(H,14,18)(H,16,17)
InChIKey=OIHGFJPQYYMEOW-UHFFFAOYSA-N

> <PUBCHEM_SUBSTANCE_SYNONYM>
SCHEMBL16116634

> <PUBCHEM_XREF_EXT_ID>
SCHEMBL16116634

> <PUBCHEM_EXT_DATASOURCE_URL>
https://www.surechembl.org/

> <PUBCHEM_EXT_SUBSTANCE_URL>
https://www.surechembl.org/chemical/SCHEMBL16116634

> <PUBCHEM_CID_ASSOCIATIONS>
117606148  1

> <PUBCHEM_COORDINATE_TYPE>
1
3

$$$$
