310937300
  -OEChem-07211613022D

 37 41  0     1  0  0  0  0  0999 V2000
   -6.0342    0.2626    0.0000 O   0  0  0  0  0  0  0  0  0  0  0  0
   -7.1534    3.0187    0.0000 O   0  0  0  0  0  0  0  0  0  0  0  0
   -8.3095    2.1787    0.0000 O   0  0  0  0  0  0  0  0  0  0  0  0
   -3.8714    3.3636    0.0000 N   0  0  0  0  0  0  0  0  0  0  0  0
   -4.8781    1.1026    0.0000 N   0  0  0  0  0  0  0  0  0  0  0  0
   -3.3194    2.7505    0.0000 N   0  0  0  0  0  0  0  0  0  0  0  0
   -0.7145    0.8250    0.0000 N   0  0  0  0  0  0  0  0  0  0  0  0
    0.7145    0.8250    0.0000 N   0  0  0  0  0  0  0  0  0  0  0  0
   -6.1836    1.6838    0.0000 C   0  0  3  0  0  0  0  0  0  0  0  0
   -5.8480    2.4374    0.0000 C   0  0  0  0  0  0  0  0  0  0  0  0
   -4.6920    3.2774    0.0000 C   0  0  0  0  0  0  0  0  0  0  0  0
   -5.6986    1.0163    0.0000 C   0  0  0  0  0  0  0  0  0  0  0  0
   -5.0275    2.5237    0.0000 C   0  0  0  0  0  0  0  0  0  0  0  0
   -3.4589    4.0781    0.0000 C   0  0  0  0  0  0  0  0  0  0  0  0
   -6.3329    3.1049    0.0000 C   0  0  0  0  0  0  0  0  0  0  0  0
   -5.1769    3.9448    0.0000 C   0  0  0  0  0  0  0  0  0  0  0  0
   -2.5657    3.0861    0.0000 C   0  0  0  0  0  0  0  0  0  0  0  0
   -3.5724    0.8250    0.0000 C   0  0  3  0  0  0  0  0  0  0  0  0
   -4.3261    0.4895    0.0000 C   0  0  0  0  0  0  0  0  0  0  0  0
   -7.0040    1.5975    0.0000 C   0  0  0  0  0  0  0  0  0  0  0  0
   -2.6519    3.9065    0.0000 C   0  0  0  0  0  0  0  0  0  0  0  0
   -4.4656    1.8170    0.0000 C   0  0  0  0  0  0  0  0  0  0  0  0
   -5.9974    3.8586    0.0000 C   0  0  0  0  0  0  0  0  0  0  0  0
   -3.6586    1.6455    0.0000 C   0  0  0  0  0  0  0  0  0  0  0  0
    0.0000    0.4125    0.0000 C   0  0  0  0  0  0  0  0  0  0  0  0
   -1.4290    0.4125    0.0000 C   0  0  0  0  0  0  0  0  0  0  0  0
    0.0000   -0.4125    0.0000 C   0  0  0  0  0  0  0  0  0  0  0  0
   -2.8579    0.4125    0.0000 C   0  0  0  0  0  0  0  0  0  0  0  0
   -7.4890    2.2650    0.0000 C   0  0  0  0  0  0  0  0  0  0  0  0
   -2.1434    0.8250    0.0000 C   0  0  0  0  0  0  0  0  0  0  0  0
   -3.7945    4.8318    0.0000 C   0  0  0  0  0  0  0  0  0  0  0  0
   -0.7145   -0.8250    0.0000 C   0  0  0  0  0  0  0  0  0  0  0  0
   -1.4290   -0.4125    0.0000 C   0  0  0  0  0  0  0  0  0  0  0  0
    0.7145   -0.8250    0.0000 C   0  0  0  0  0  0  0  0  0  0  0  0
   -1.8512    2.6736    0.0000 C   0  0  0  0  0  0  0  0  0  0  0  0
    1.4290    0.4125    0.0000 C   0  0  0  0  0  0  0  0  0  0  0  0
    1.4290   -0.4125    0.0000 C   0  0  0  0  0  0  0  0  0  0  0  0
  1 12  2  0  0  0  0
  2 29  2  0  0  0  0
  3 29  1  0  0  0  0
  4  6  1  0  0  0  0
  4 11  1  0  0  0  0
  4 14  1  0  0  0  0
  5 12  1  0  0  0  0
  5 19  1  0  0  0  0
  5 22  1  0  0  0  0
  6 17  2  0  0  0  0
  7 25  1  0  0  0  0
  7 26  2  0  0  0  0
  8 25  1  0  0  0  0
  8 36  1  0  0  0  0
  9 10  1  0  0  0  0
  9 12  1  0  0  0  0
  9 20  1  0  0  0  0
 10 13  1  0  0  0  0
 10 15  2  0  0  0  0
 11 13  2  0  0  0  0
 11 16  1  0  0  0  0
 14 21  2  0  0  0  0
 14 31  1  0  0  0  0
 15 23  1  0  0  0  0
 16 23  2  0  0  0  0
 17 21  1  0  0  0  0
 17 35  1  0  0  0  0
 18 19  1  0  0  0  0
 18 24  1  0  0  0  0
 18 28  1  0  0  0  0
 20 29  1  0  0  0  0
 22 24  1  0  0  0  0
 25 27  2  0  0  0  0
 26 30  1  0  0  0  0
 26 33  1  0  0  0  0
 27 32  1  0  0  0  0
 27 34  1  0  0  0  0
 28 30  1  0  0  0  0
 32 33  2  0  0  0  0
 34 37  1  0  0  0  0
 36 37  1  0  0  0  0
M  END
> <PUBCHEM_COMPOUND_ID_TYPE>
0

> <PUBCHEM_TOTAL_CHARGE>
0

> <PUBCHEM_SUBSTANCE_ID>
310937300

> <PUBCHEM_SUBSTANCE_VERSION>
1

> <PUBCHEM_EXT_DATASOURCE_NAME>
4488

> <PUBCHEM_EXT_DATASOURCE_REGID>
SCHEMBL16115048

> <PUBCHEM_SUBSTANCE_COMMENT>
InChI=1S/C29H35N5O3/c1-19-15-20(2)34(32-19)25-7-3-5-23(16-25)26(17-27(35)36)29(37)33-14-12-21(18-33)8-10-24-11-9-22-6-4-13-30-28(22)31-24/h3,5,7,9,11,15-16,21,26H,4,6,8,10,12-14,17-18H2,1-2H3,(H,30,31)(H,35,36)
InChIKey=KCLYJUXDBUAMJS-UHFFFAOYSA-N

> <PUBCHEM_SUBSTANCE_SYNONYM>
SCHEMBL16115048

> <PUBCHEM_XREF_EXT_ID>
SCHEMBL16115048

> <PUBCHEM_EXT_DATASOURCE_URL>
https://www.surechembl.org/

> <PUBCHEM_EXT_SUBSTANCE_URL>
https://www.surechembl.org/chemical/SCHEMBL16115048

> <PUBCHEM_CID_ASSOCIATIONS>
117605083  1

> <PUBCHEM_COORDINATE_TYPE>
1
3

$$$$
