310941128
  -OEChem-07211613022D

 44 47  0     1  0  0  0  0  0999 V2000
    3.9464   -3.0342    0.0000 O   0  0  0  0  0  0  0  0  0  0  0  0
    1.6795   -3.0480    0.0000 O   0  0  0  0  0  0  0  0  0  0  0  0
    2.3845    0.1175    0.0000 O   0  0  0  0  0  0  0  0  0  0  0  0
    2.3845    3.4212    0.0000 O   0  0  0  0  0  0  0  0  0  0  0  0
    3.8221    0.9331    0.0000 O   0  0  0  0  0  0  0  0  0  0  0  0
   -0.4769    0.9192    0.0000 O   0  0  0  0  0  0  0  0  0  0  0  0
   -2.6194   -1.1404    0.0000 O   0  0  0  0  0  0  0  0  0  0  0  0
   -5.4946   -1.1542    0.0000 O   0  0  0  0  0  0  0  0  0  0  0  0
    1.6933   -1.1266    0.0000 N   0  0  0  0  0  0  0  0  0  0  0  0
    0.2419   -0.2972    0.0000 N   0  0  0  0  0  0  0  0  0  0  0  0
   -1.9145    0.1036    0.0000 N   0  0  0  0  0  0  0  0  0  0  0  0
   -4.0709   -0.3110    0.0000 N   0  0  0  0  0  0  0  0  0  0  0  0
    3.1309   -3.0065    0.0000 C   0  0  3  0  0  0  0  0  0  0  0  0
    2.4121   -2.5780    0.0000 C   0  0  0  0  0  0  0  0  0  0  0  0
    3.5318   -2.3153    0.0000 C   0  0  0  0  0  0  0  0  0  0  0  0
    2.4121   -1.5274    0.0000 C   0  0  3  0  0  0  0  0  0  0  0  0
    3.1448   -3.8635    0.0000 C   0  0  0  0  0  0  0  0  0  0  0  0
    3.3245   -1.0022    0.0000 C   0  0  0  0  0  0  0  0  0  0  0  0
    1.6657   -0.3110    0.0000 C   0  0  0  0  0  0  0  0  0  0  0  0
    0.9469    0.1175    0.0000 C   0  0  3  0  0  0  0  0  0  0  0  0
    4.0709   -1.4031    0.0000 C   0  0  0  0  0  0  0  0  0  0  0  0
    0.9745    0.9469    0.0000 C   0  0  0  0  0  0  0  0  0  0  0  0
    1.6795    1.3477    0.0000 C   0  0  0  0  0  0  0  0  0  0  0  0
   -0.4907    0.0899    0.0000 C   0  0  0  0  0  0  0  0  0  0  0  0
    2.3845    0.9607    0.0000 C   0  0  0  0  0  0  0  0  0  0  0  0
    1.6795    2.1771    0.0000 C   0  0  0  0  0  0  0  0  0  0  0  0
    4.0709   -2.2324    0.0000 C   0  0  0  0  0  0  0  0  0  0  0  0
    4.7896   -1.0022    0.0000 C   0  0  0  0  0  0  0  0  0  0  0  0
    2.3845    2.6056    0.0000 C   0  0  0  0  0  0  0  0  0  0  0  0
    3.1033    1.3754    0.0000 C   0  0  0  0  0  0  0  0  0  0  0  0
   -1.1957   -0.2972    0.0000 C   0  0  3  0  0  0  0  0  0  0  0  0
    3.1033    2.1910    0.0000 C   0  0  0  0  0  0  0  0  0  0  0  0
    4.7759   -2.6333    0.0000 C   0  0  0  0  0  0  0  0  0  0  0  0
    5.4946   -1.4169    0.0000 C   0  0  0  0  0  0  0  0  0  0  0  0
    5.4946   -2.2324    0.0000 C   0  0  0  0  0  0  0  0  0  0  0  0
   -2.6333   -0.2834    0.0000 C   0  0  0  0  0  0  0  0  0  0  0  0
   -1.1819   -1.1404    0.0000 C   0  0  0  0  0  0  0  0  0  0  0  0
   -3.3659    0.0899    0.0000 C   0  0  0  0  0  0  0  0  0  0  0  0
    3.1309    3.8635    0.0000 C   0  0  0  0  0  0  0  0  0  0  0  0
    4.5408    1.3754    0.0000 C   0  0  0  0  0  0  0  0  0  0  0  0
   -4.0570   -1.1542    0.0000 C   0  0  0  0  0  0  0  0  0  0  0  0
   -4.8035    0.0899    0.0000 C   0  0  0  0  0  0  0  0  0  0  0  0
   -4.7620   -1.5551    0.0000 C   0  0  0  0  0  0  0  0  0  0  0  0
   -5.4808   -0.3110    0.0000 C   0  0  0  0  0  0  0  0  0  0  0  0
  1 13  1  0  0  0  0
  1 15  1  0  0  0  0
  2 14  2  0  0  0  0
  3 19  2  0  0  0  0
  4 29  1  0  0  0  0
  4 39  1  0  0  0  0
  5 30  1  0  0  0  0
  5 40  1  0  0  0  0
  6 24  2  0  0  0  0
  7 36  2  0  0  0  0
  8 43  1  0  0  0  0
  8 44  1  0  0  0  0
  9 16  1  0  0  0  0
  9 19  1  0  0  0  0
 10 20  1  0  0  0  0
 10 24  1  0  0  0  0
 11 31  1  0  0  0  0
 11 36  1  0  0  0  0
 12 38  1  0  0  0  0
 12 41  1  0  0  0  0
 12 42  1  0  0  0  0
 13 14  1  0  0  0  0
 13 15  1  0  0  0  0
 13 17  1  0  0  0  0
 14 16  1  0  0  0  0
 16 18  1  0  0  0  0
 18 21  1  0  0  0  0
 19 20  1  0  0  0  0
 20 22  1  0  0  0  0
 21 27  2  0  0  0  0
 21 28  1  0  0  0  0
 22 23  1  0  0  0  0
 23 25  2  0  0  0  0
 23 26  1  0  0  0  0
 24 31  1  0  0  0  0
 25 30  1  0  0  0  0
 26 29  2  0  0  0  0
 27 33  1  0  0  0  0
 28 34  2  0  0  0  0
 29 32  1  0  0  0  0
 30 32  2  0  0  0  0
 31 37  1  0  0  0  0
 33 35  2  0  0  0  0
 34 35  1  0  0  0  0
 36 38  1  0  0  0  0
 41 43  1  0  0  0  0
 42 44  1  0  0  0  0
M  END
> <PUBCHEM_COMPOUND_ID_TYPE>
0

> <PUBCHEM_TOTAL_CHARGE>
0

> <PUBCHEM_SUBSTANCE_ID>
310941128

> <PUBCHEM_SUBSTANCE_VERSION>
1

> <PUBCHEM_EXT_DATASOURCE_NAME>
4488

> <PUBCHEM_EXT_DATASOURCE_REGID>
SCHEMBL16119088

> <PUBCHEM_SUBSTANCE_COMMENT>
InChI=1S/C32H42N4O8/c1-21(33-28(37)19-36-10-12-43-13-11-36)30(39)35-27(17-23-14-24(41-3)18-25(15-23)42-4)31(40)34-26(29(38)32(2)20-44-32)16-22-8-6-5-7-9-22/h5-9,14-15,18,21,26-27H,10-13,16-17,19-20H2,1-4H3,(H,33,37)(H,34,40)(H,35,39)
InChIKey=OQVUHQAJKHJFMK-UHFFFAOYSA-N

> <PUBCHEM_SUBSTANCE_SYNONYM>
SCHEMBL16119088

> <PUBCHEM_XREF_EXT_ID>
SCHEMBL16119088

> <PUBCHEM_EXT_DATASOURCE_URL>
https://www.surechembl.org/

> <PUBCHEM_EXT_SUBSTANCE_URL>
https://www.surechembl.org/chemical/SCHEMBL16119088

> <PUBCHEM_CID_ASSOCIATIONS>
117608011  1

> <PUBCHEM_COORDINATE_TYPE>
1
3

$$$$
