310934021
  -OEChem-07211613022D

 26 30  0     1  0  0  0  0  0999 V2000
    0.9436    0.0000    0.0000 Br  0  0  0  0  0  0  0  0  0  0  0  0
    4.5892   -8.5779    0.0000 O   0  0  0  0  0  0  0  0  0  0  0  0
    5.8330   -7.8488    0.0000 O   0  0  0  0  0  0  0  0  0  0  0  0
    3.7743   -5.7472    0.0000 N   0  0  3  0  0  0  0  0  0  0  0  0
    4.5892   -7.1625    0.0000 N   0  0  0  0  0  0  0  0  0  0  0  0
    0.9007   -2.1445    0.0000 N   0  0  0  0  0  0  0  0  0  0  0  0
    2.1445   -1.4154    0.0000 N   0  0  0  0  0  0  0  0  0  0  0  0
    0.0858   -1.9729    0.0000 N   0  0  0  0  0  0  0  0  0  0  0  0
    3.3883   -6.4334    0.0000 C   0  0  3  0  0  0  0  0  0  0  0  0
    4.9752   -6.4334    0.0000 C   0  0  3  0  0  0  0  0  0  0  0  0
    4.5892   -5.7472    0.0000 C   0  0  0  0  0  0  0  0  0  0  0  0
    4.1603   -6.9053    0.0000 C   0  0  0  0  0  0  0  0  0  0  0  0
    3.3454   -5.0181    0.0000 C   0  0  0  0  0  0  0  0  0  0  0  0
    3.7743   -7.1625    0.0000 C   0  0  0  0  0  0  0  0  0  0  0  0
    1.3296   -1.4154    0.0000 C   0  0  0  0  0  0  0  0  0  0  0  0
    2.1016   -2.8736    0.0000 C   0  0  0  0  0  0  0  0  0  0  0  0
    2.5305   -3.6027    0.0000 C   0  0  0  0  0  0  0  0  0  0  0  0
    4.9752   -7.8488    0.0000 C   0  0  0  0  0  0  0  0  0  0  0  0
    1.3296   -2.8736    0.0000 C   0  0  0  0  0  0  0  0  0  0  0  0
    0.7720   -0.8149    0.0000 C   0  0  0  0  0  0  0  0  0  0  0  0
    2.5305   -5.0181    0.0000 C   0  0  0  0  0  0  0  0  0  0  0  0
    3.7743   -4.3318    0.0000 C   0  0  0  0  0  0  0  0  0  0  0  0
    2.1016   -4.3318    0.0000 C   0  0  0  0  0  0  0  0  0  0  0  0
    3.3454   -3.6027    0.0000 C   0  0  0  0  0  0  0  0  0  0  0  0
    2.5734   -2.1445    0.0000 C   0  0  0  0  0  0  0  0  0  0  0  0
    0.0000   -1.1151    0.0000 C   0  0  0  0  0  0  0  0  0  0  0  0
  1 20  1  0  0  0  0
  2 18  2  0  0  0  0
  3 18  1  0  0  0  0
  4  9  1  0  0  0  0
  4 11  1  0  0  0  0
  4 13  1  0  0  0  0
  5 10  1  0  0  0  0
  5 14  1  0  0  0  0
  5 18  1  0  0  0  0
  6  8  1  0  0  0  0
  6 15  1  0  0  0  0
  6 19  1  0  0  0  0
  7 15  1  0  0  0  0
  7 25  2  0  0  0  0
  8 26  2  0  0  0  0
  9 12  1  0  0  0  0
  9 14  1  0  0  0  0
 10 11  1  0  0  0  0
 10 12  1  0  0  0  0
 13 21  2  0  0  0  0
 13 22  1  0  0  0  0
 15 20  2  0  0  0  0
 16 17  1  0  0  0  0
 16 19  2  0  0  0  0
 16 25  1  0  0  0  0
 17 23  2  0  0  0  0
 17 24  1  0  0  0  0
 20 26  1  0  0  0  0
 21 23  1  0  0  0  0
 22 24  2  0  0  0  0
M  END
> <PUBCHEM_COMPOUND_ID_TYPE>
0

> <PUBCHEM_TOTAL_CHARGE>
0

> <PUBCHEM_SUBSTANCE_ID>
310934021

> <PUBCHEM_SUBSTANCE_VERSION>
1

> <PUBCHEM_EXT_DATASOURCE_NAME>
4488

> <PUBCHEM_EXT_DATASOURCE_REGID>
SCHEMBL16111465

> <PUBCHEM_SUBSTANCE_COMMENT>
InChI=1S/C18H16BrN5O2/c19-16-7-21-24-8-12(6-20-17(16)24)11-1-3-13(4-2-11)22-9-15-5-14(22)10-23(15)18(25)26/h1-4,6-8,14-15H,5,9-10H2,(H,25,26)
InChIKey=MPRUPEKHIPKXTI-UHFFFAOYSA-N

> <PUBCHEM_SUBSTANCE_SYNONYM>
SCHEMBL16111465

> <PUBCHEM_XREF_EXT_ID>
SCHEMBL16111465

> <PUBCHEM_EXT_DATASOURCE_URL>
https://www.surechembl.org/

> <PUBCHEM_EXT_SUBSTANCE_URL>
https://www.surechembl.org/chemical/SCHEMBL16111465

> <PUBCHEM_CID_ASSOCIATIONS>
117602322  1

> <PUBCHEM_COORDINATE_TYPE>
1
3

$$$$
