310946804
  -OEChem-07211613022D

 19 20  0     1  0  0  0  0  0999 V2000
   -1.5397  -13.9633    0.0000 N   0  0  0  0  0  0  0  0  0  0  0  0
   -2.3243  -14.2182    0.0000 N   0  0  0  0  0  0  0  0  0  0  0  0
   -1.8111  -16.7625    0.0000 N   0  0  0  0  0  0  0  0  0  0  0  0
   -1.3261  -17.4299    0.0000 N   0  0  0  0  0  0  0  0  0  0  0  0
    0.8874  -16.3500    0.0000 N   0  0  3  0  0  0  0  0  0  0  0  0
   -1.5397  -15.2982    0.0000 C   0  0  0  0  0  0  0  0  0  0  0  0
   -1.3261  -16.0950    0.0000 C   0  0  0  0  0  0  0  0  0  0  0  0
   -1.0547  -14.6307    0.0000 C   0  0  0  0  0  0  0  0  0  0  0  0
   -2.3243  -15.0432    0.0000 C   0  0  0  0  0  0  0  0  0  0  0  0
   -0.5415  -16.3500    0.0000 C   0  0  0  0  0  0  0  0  0  0  0  0
   -0.5415  -17.1750    0.0000 C   0  0  0  0  0  0  0  0  0  0  0  0
    0.1729  -15.9375    0.0000 C   0  0  0  0  0  0  0  0  0  0  0  0
   -0.2297  -14.6307    0.0000 C   0  0  0  0  0  0  0  0  0  0  0  0
   -3.0388  -15.4557    0.0000 C   0  0  0  0  0  0  0  0  0  0  0  0
   -1.3261  -13.1664    0.0000 C   0  0  0  0  0  0  0  0  0  0  0  0
    1.6019  -15.9375    0.0000 C   0  0  0  0  0  0  0  0  0  0  0  0
    0.8874  -17.1750    0.0000 C   0  0  0  0  0  0  0  0  0  0  0  0
    2.3164  -16.3500    0.0000 C   0  0  0  0  0  0  0  0  0  0  0  0
    3.0308  -15.9375    0.0000 C   0  0  0  0  0  0  0  0  0  0  0  0
  1  2  1  0  0  0  0
  1  8  1  0  0  0  0
  1 15  1  0  0  0  0
  2  9  2  0  0  0  0
  3  4  1  0  0  0  0
  3  7  2  0  0  0  0
  4 11  1  0  0  0  0
  5 12  1  0  0  0  0
  5 16  1  0  0  0  0
  5 17  1  0  0  0  0
  6  7  1  0  0  0  0
  6  8  2  0  0  0  0
  6  9  1  0  0  0  0
  7 10  1  0  0  0  0
  8 13  1  0  0  0  0
  9 14  1  0  0  0  0
 10 11  2  0  0  0  0
 10 12  1  0  0  0  0
 16 18  1  0  0  0  0
 18 19  1  0  0  0  0
M  END
> <PUBCHEM_COMPOUND_ID_TYPE>
0

> <PUBCHEM_TOTAL_CHARGE>
0

> <PUBCHEM_SUBSTANCE_ID>
310946804

> <PUBCHEM_SUBSTANCE_VERSION>
1

> <PUBCHEM_EXT_DATASOURCE_NAME>
4488

> <PUBCHEM_EXT_DATASOURCE_REGID>
SCHEMBL16124928

> <PUBCHEM_SUBSTANCE_COMMENT>
InChI=1S/C14H23N5/c1-6-7-18(4)9-12-8-15-16-14(12)13-10(2)17-19(5)11(13)3/h8H,6-7,9H2,1-5H3,(H,15,16)
InChIKey=LRIOAZAXANFJII-UHFFFAOYSA-N

> <PUBCHEM_SUBSTANCE_SYNONYM>
SCHEMBL16124928

> <PUBCHEM_XREF_EXT_ID>
SCHEMBL16124928

> <PUBCHEM_EXT_DATASOURCE_URL>
https://www.surechembl.org/

> <PUBCHEM_EXT_SUBSTANCE_URL>
https://www.surechembl.org/chemical/SCHEMBL16124928

> <PUBCHEM_CID_ASSOCIATIONS>
117612665  1

> <PUBCHEM_COORDINATE_TYPE>
1
3

$$$$
