310946272
  -OEChem-07211613022D

 25 28  0     1  0  0  0  0  0999 V2000
    3.6504   -1.4437    0.0000 S   0  0  0  0  0  0  0  0  0  0  0  0
    2.8254   -1.4437    0.0000 O   0  0  0  0  0  0  0  0  0  0  0  0
    0.5714   -1.4437    0.0000 O   0  0  0  0  0  0  0  0  0  0  0  0
   -1.1595    1.3332    0.0000 O   0  0  0  0  0  0  0  0  0  0  0  0
    0.2694    2.1582    0.0000 O   0  0  0  0  0  0  0  0  0  0  0  0
    4.0629   -0.7293    0.0000 O   0  0  0  0  0  0  0  0  0  0  0  0
    4.0629   -2.1582    0.0000 O   0  0  0  0  0  0  0  0  0  0  0  0
    0.9839    0.0957    0.0000 N   0  0  0  0  0  0  0  0  0  0  0  0
    2.4129   -0.7293    0.0000 N   0  0  0  0  0  0  0  0  0  0  0  0
   -2.8434    2.1178    0.0000 N   0  0  0  0  0  0  0  0  0  0  0  0
   -0.4450    0.9207    0.0000 N   0  0  0  0  0  0  0  0  0  0  0  0
    0.9839   -0.7293    0.0000 C   0  0  0  0  0  0  0  0  0  0  0  0
    2.4129    0.0957    0.0000 C   0  0  3  0  0  0  0  0  0  0  0  0
    0.9839    0.9207    0.0000 C   0  0  3  0  0  0  0  0  0  0  0  0
    1.6984   -0.3168    0.0000 C   0  0  0  0  0  0  0  0  0  0  0  0
    2.4129    0.9207    0.0000 C   0  0  0  0  0  0  0  0  0  0  0  0
    1.6984    1.3332    0.0000 C   0  0  0  0  0  0  0  0  0  0  0  0
    0.2694    1.3332    0.0000 C   0  0  0  0  0  0  0  0  0  0  0  0
   -3.6684    2.1178    0.0000 C   0  0  3  0  0  0  0  0  0  0  0  0
   -3.9233    1.3332    0.0000 C   0  0  3  0  0  0  0  0  0  0  0  0
   -4.4754    1.9463    0.0000 C   0  0  0  0  0  0  0  0  0  0  0  0
   -2.5884    1.3332    0.0000 C   0  0  3  0  0  0  0  0  0  0  0  0
   -3.2559    0.8483    0.0000 C   0  0  0  0  0  0  0  0  0  0  0  0
   -1.8740    0.9207    0.0000 C   0  0  0  0  0  0  0  0  0  0  0  0
    4.4754   -1.4437    0.0000 C   0  0  0  0  0  0  0  0  0  0  0  0
  1  2  1  0  0  0  0
  1  6  2  0  0  0  0
  1  7  2  0  0  0  0
  1 25  1  0  0  0  0
  2  9  1  0  0  0  0
  3 12  2  0  0  0  0
  4 11  1  0  0  0  0
  4 24  1  0  0  0  0
  5 18  2  0  0  0  0
  8 12  1  0  0  0  0
  8 14  1  0  0  0  0
  8 15  1  0  0  0  0
  9 12  1  0  0  0  0
  9 13  1  0  0  0  0
 10 19  1  0  0  0  0
 10 22  1  0  0  0  0
 11 18  1  0  0  0  0
 13 15  1  6  0  0  0
 13 16  1  0  0  0  0
 14 17  1  0  0  0  0
 14 18  1  6  0  0  0
 16 17  1  0  0  0  0
 19 20  1  0  0  0  0
 19 21  1  0  0  0  0
 20 21  1  0  0  0  0
 20 23  1  0  0  0  0
 22 23  1  0  0  0  0
 22 24  1  0  0  0  0
M  END
> <PUBCHEM_COMPOUND_ID_TYPE>
0

> <PUBCHEM_TOTAL_CHARGE>
0

> <PUBCHEM_SUBSTANCE_ID>
310946272

> <PUBCHEM_SUBSTANCE_VERSION>
1

> <PUBCHEM_EXT_DATASOURCE_NAME>
4488

> <PUBCHEM_EXT_DATASOURCE_REGID>
SCHEMBL16124390

> <PUBCHEM_SUBSTANCE_COMMENT>
InChI=1S/C14H22N4O6S/c1-25(21,22)24-18-10-2-3-12(17(6-10)14(18)20)13(19)16-23-7-9-4-8-5-11(8)15-9/h8-12,15H,2-7H2,1H3,(H,16,19)/t8?,9?,10-,11?,12+/m1/s1
InChIKey=MRORPKXZDUMHIY-HCZNEQIXSA-N

> <PUBCHEM_SUBSTANCE_SYNONYM>
SCHEMBL16124390

> <PUBCHEM_XREF_EXT_ID>
SCHEMBL16124390

> <PUBCHEM_EXT_DATASOURCE_URL>
https://www.surechembl.org/

> <PUBCHEM_EXT_SUBSTANCE_URL>
https://www.surechembl.org/chemical/SCHEMBL16124390

> <PUBCHEM_CID_ASSOCIATIONS>
117612220  1

> <PUBCHEM_COORDINATE_TYPE>
1
3

> <PUBCHEM_BONDANNOTATIONS>
13  15  6
14  18  6

$$$$
