310935366
  -OEChem-07211613022D

 25 26  0     1  0  0  0  0  0999 V2000
   -4.7052   -0.6181    0.0000 S   0  0  0  0  0  0  0  0  0  0  0  0
   -6.1342   -1.4431    0.0000 F   0  0  0  0  0  0  0  0  0  0  0  0
   -5.4198   -1.8556    0.0000 F   0  0  0  0  0  0  0  0  0  0  0  0
   -6.1342   -0.6181    0.0000 F   0  0  0  0  0  0  0  0  0  0  0  0
   -1.1073    2.0554    0.0000 F   0  0  0  0  0  0  0  0  0  0  0  0
   -3.9908   -0.2056    0.0000 O   0  0  0  0  0  0  0  0  0  0  0  0
   -5.1178    0.0963    0.0000 O   0  0  0  0  0  0  0  0  0  0  0  0
   -4.2927   -1.3326    0.0000 O   0  0  0  0  0  0  0  0  0  0  0  0
   -1.2561   -2.1332    0.0000 O   0  0  0  0  0  0  0  0  0  0  0  0
   -0.5416   -0.8957    0.0000 O   0  0  0  0  0  0  0  0  0  0  0  0
   -1.9706   -0.8957    0.0000 C   0  0  3  0  0  0  0  0  0  0  0  0
   -1.2255   -0.1242    0.0000 C   0  0  0  0  0  0  0  0  0  0  0  0
   -2.3831   -1.6101    0.0000 C   0  0  3  0  0  0  0  0  0  0  0  0
   -2.5226   -0.2826    0.0000 C   0  0  0  0  0  0  0  0  0  0  0  0
   -3.2763   -0.6181    0.0000 C   0  0  0  0  0  0  0  0  0  0  0  0
   -1.2561   -1.3082    0.0000 C   0  0  0  0  0  0  0  0  0  0  0  0
   -3.1901   -1.4386    0.0000 C   0  0  0  0  0  0  0  0  0  0  0  0
   -1.4530    0.6689    0.0000 C   0  0  0  0  0  0  0  0  0  0  0  0
   -5.4198   -1.0306    0.0000 C   0  0  0  0  0  0  0  0  0  0  0  0
   -0.4251   -0.3238    0.0000 C   0  0  0  0  0  0  0  0  0  0  0  0
   -0.8799    1.2623    0.0000 C   0  0  0  0  0  0  0  0  0  0  0  0
   -2.0475   -2.3638    0.0000 C   0  0  0  0  0  0  0  0  0  0  0  0
    0.1480    0.2697    0.0000 C   0  0  0  0  0  0  0  0  0  0  0  0
   -0.0794    1.0627    0.0000 C   0  0  0  0  0  0  0  0  0  0  0  0
   -2.2534    0.8685    0.0000 C   0  0  0  0  0  0  0  0  0  0  0  0
  1  6  1  0  0  0  0
  1  7  2  0  0  0  0
  1  8  2  0  0  0  0
  1 19  1  0  0  0  0
  2 19  1  0  0  0  0
  3 19  1  0  0  0  0
  4 19  1  0  0  0  0
  5 21  1  0  0  0  0
  6 15  1  0  0  0  0
  9 16  2  0  0  0  0
 10 16  1  0  0  0  0
 11 12  1  0  0  0  0
 11 13  1  0  0  0  0
 11 14  1  0  0  0  0
 11 16  1  0  0  0  0
 12 18  1  0  0  0  0
 12 20  2  0  0  0  0
 13 17  1  0  0  0  0
 13 22  1  0  0  0  0
 14 15  2  0  0  0  0
 15 17  1  0  0  0  0
 18 21  2  0  0  0  0
 18 25  1  0  0  0  0
 20 23  1  0  0  0  0
 21 24  1  0  0  0  0
 23 24  2  0  0  0  0
M  END
> <PUBCHEM_COMPOUND_ID_TYPE>
0

> <PUBCHEM_TOTAL_CHARGE>
0

> <PUBCHEM_SUBSTANCE_ID>
310935366

> <PUBCHEM_SUBSTANCE_VERSION>
1

> <PUBCHEM_EXT_DATASOURCE_NAME>
4488

> <PUBCHEM_EXT_DATASOURCE_REGID>
SCHEMBL16112906

> <PUBCHEM_SUBSTANCE_COMMENT>
InChI=1S/C15H14F4O5S/c1-8-6-10(24-25(22,23)15(17,18)19)7-14(8,13(20)21)11-4-3-5-12(16)9(11)2/h3-5,7-8H,6H2,1-2H3,(H,20,21)
InChIKey=IQPUPDUQJKYTGR-UHFFFAOYSA-N

> <PUBCHEM_SUBSTANCE_SYNONYM>
SCHEMBL16112906

> <PUBCHEM_XREF_EXT_ID>
SCHEMBL16112906

> <PUBCHEM_EXT_DATASOURCE_URL>
https://www.surechembl.org/

> <PUBCHEM_EXT_SUBSTANCE_URL>
https://www.surechembl.org/chemical/SCHEMBL16112906

> <PUBCHEM_CID_ASSOCIATIONS>
117603419  1

> <PUBCHEM_COORDINATE_TYPE>
1
3

$$$$
