310938997
  -OEChem-07211613022D

 24 27  0     1  0  0  0  0  0999 V2000
   -0.9447    2.1360    0.0000 S   0  0  0  0  0  0  0  0  0  0  0  0
   -0.5322    2.8505    0.0000 O   0  0  0  0  0  0  0  0  0  0  0  0
   -1.3572    2.8505    0.0000 O   0  0  0  0  0  0  0  0  0  0  0  0
    1.7603   -2.1739    0.0000 O   0  0  0  0  0  0  0  0  0  0  0  0
   -0.4598    1.4686    0.0000 N   0  0  3  0  0  0  0  0  0  0  0  0
    2.8402   -1.3893    0.0000 N   0  0  0  0  0  0  0  0  0  0  0  0
   -1.7293    1.8811    0.0000 C   0  0  0  0  0  0  0  0  0  0  0  0
   -1.7293    1.0561    0.0000 C   0  0  0  0  0  0  0  0  0  0  0  0
   -0.9447    0.8011    0.0000 C   0  0  0  0  0  0  0  0  0  0  0  0
    0.3652    1.4686    0.0000 C   0  0  0  0  0  0  0  0  0  0  0  0
   -2.4438    2.2936    0.0000 C   0  0  0  0  0  0  0  0  0  0  0  0
   -2.4438    0.6436    0.0000 C   0  0  0  0  0  0  0  0  0  0  0  0
    0.7777    0.7541    0.0000 C   0  0  0  0  0  0  0  0  0  0  0  0
    1.6027   -0.6749    0.0000 C   0  0  0  0  0  0  0  0  0  0  0  0
   -3.1583    1.8811    0.0000 C   0  0  0  0  0  0  0  0  0  0  0  0
    2.0152   -1.3893    0.0000 C   0  0  0  0  0  0  0  0  0  0  0  0
   -3.1583    1.0561    0.0000 C   0  0  0  0  0  0  0  0  0  0  0  0
    0.3652    0.0396    0.0000 C   0  0  0  0  0  0  0  0  0  0  0  0
    1.6027    0.7541    0.0000 C   0  0  0  0  0  0  0  0  0  0  0  0
    0.7777   -0.6749    0.0000 C   0  0  0  0  0  0  0  0  0  0  0  0
    2.0152    0.0396    0.0000 C   0  0  0  0  0  0  0  0  0  0  0  0
    2.4277   -2.6589    0.0000 C   0  0  0  0  0  0  0  0  0  0  0  0
    3.0951   -2.1739    0.0000 C   0  0  0  0  0  0  0  0  0  0  0  0
    2.4277   -3.4839    0.0000 C   0  0  0  0  0  0  0  0  0  0  0  0
  1  2  2  0  0  0  0
  1  3  2  0  0  0  0
  1  5  1  0  0  0  0
  1  7  1  0  0  0  0
  4 16  1  0  0  0  0
  4 22  1  0  0  0  0
  5  9  1  0  0  0  0
  5 10  1  0  0  0  0
  6 16  2  0  0  0  0
  6 23  1  0  0  0  0
  7  8  1  0  0  0  0
  7 11  2  0  0  0  0
  8  9  1  0  0  0  0
  8 12  2  0  0  0  0
 10 13  1  0  0  0  0
 11 15  1  0  0  0  0
 12 17  1  0  0  0  0
 13 18  2  0  0  0  0
 13 19  1  0  0  0  0
 14 16  1  0  0  0  0
 14 20  2  0  0  0  0
 14 21  1  0  0  0  0
 15 17  2  0  0  0  0
 18 20  1  0  0  0  0
 19 21  2  0  0  0  0
 22 23  2  0  0  0  0
 22 24  1  0  0  0  0
M  END
> <PUBCHEM_COMPOUND_ID_TYPE>
0

> <PUBCHEM_TOTAL_CHARGE>
0

> <PUBCHEM_SUBSTANCE_ID>
310938997

> <PUBCHEM_SUBSTANCE_VERSION>
1

> <PUBCHEM_EXT_DATASOURCE_NAME>
4488

> <PUBCHEM_EXT_DATASOURCE_REGID>
SCHEMBL16116916

> <PUBCHEM_SUBSTANCE_COMMENT>
InChI=1S/C18H16N2O3S/c1-13-10-19-18(23-13)15-8-6-14(7-9-15)11-20-12-16-4-2-3-5-17(16)24(20,21)22/h2-10H,11-12H2,1H3
InChIKey=BBEHOAAHOOPBPE-UHFFFAOYSA-N

> <PUBCHEM_SUBSTANCE_SYNONYM>
SCHEMBL16116916

> <PUBCHEM_XREF_EXT_ID>
SCHEMBL16116916

> <PUBCHEM_EXT_DATASOURCE_URL>
https://www.surechembl.org/

> <PUBCHEM_EXT_SUBSTANCE_URL>
https://www.surechembl.org/chemical/SCHEMBL16116916

> <PUBCHEM_CID_ASSOCIATIONS>
117606381  1

> <PUBCHEM_COORDINATE_TYPE>
1
3

$$$$
