310947846
  -OEChem-07211613022D

 13 13  0     1  0  0  0  0  0999 V2000
   -3.2089   -0.8437    0.0000 O   0  0  0  0  0  0  0  0  0  0  0  0
   -3.2178    0.8218    0.0000 N   0  0  0  0  0  0  0  0  0  0  0  0
   -3.2178    1.6468    0.0000 C   0  0  3  0  0  0  0  0  0  0  0  0
   -2.5034    2.8843    0.0000 C   0  0  0  0  0  0  0  0  0  0  0  0
   -2.5034    2.0593    0.0000 C   0  0  0  0  0  0  0  0  0  0  0  0
   -2.5034    0.4093    0.0000 C   0  0  0  0  0  0  0  0  0  0  0  0
   -3.9323    0.4093    0.0000 C   0  0  0  0  0  0  0  0  0  0  0  0
   -3.9323   -0.4235    0.0000 C   0  0  0  0  0  0  0  0  0  0  0  0
   -2.4855   -0.4235    0.0000 C   0  0  0  0  0  0  0  0  0  0  0  0
   -3.9323    2.0593    0.0000 C   0  0  0  0  0  0  0  0  0  0  0  0
   -1.6784    2.8843    0.0000 C   0  0  0  0  0  0  0  0  0  0  0  0
   -3.3284    2.8843    0.0000 C   0  0  0  0  0  0  0  0  0  0  0  0
   -2.5034    3.7093    0.0000 C   0  0  0  0  0  0  0  0  0  0  0  0
  1  8  1  0  0  0  0
  1  9  1  0  0  0  0
  2  3  1  0  0  0  0
  2  6  1  0  0  0  0
  2  7  1  0  0  0  0
  3  5  1  0  0  0  0
  3 10  1  0  0  0  0
  4  5  1  0  0  0  0
  4 11  1  0  0  0  0
  4 12  1  0  0  0  0
  4 13  1  0  0  0  0
  6  9  1  0  0  0  0
  7  8  1  0  0  0  0
M  END
> <PUBCHEM_COMPOUND_ID_TYPE>
0

> <PUBCHEM_TOTAL_CHARGE>
0

> <PUBCHEM_SUBSTANCE_ID>
310947846

> <PUBCHEM_SUBSTANCE_VERSION>
1

> <PUBCHEM_EXT_DATASOURCE_NAME>
4488

> <PUBCHEM_EXT_DATASOURCE_REGID>
SCHEMBL16126020

> <PUBCHEM_SUBSTANCE_COMMENT>
InChI=1S/C11H23NO/c1-10(9-11(2,3)4)12-5-7-13-8-6-12/h10H,5-9H2,1-4H3
InChIKey=SUWVXASGQQFCID-UHFFFAOYSA-N

> <PUBCHEM_SUBSTANCE_SYNONYM>
SCHEMBL16126020

> <PUBCHEM_XREF_EXT_ID>
SCHEMBL16126020

> <PUBCHEM_EXT_DATASOURCE_URL>
https://www.surechembl.org/

> <PUBCHEM_EXT_SUBSTANCE_URL>
https://www.surechembl.org/chemical/SCHEMBL16126020

> <PUBCHEM_CID_ASSOCIATIONS>
117613511  1

> <PUBCHEM_COORDINATE_TYPE>
1
3

> <PUBCHEM_BONDANNOTATIONS>
4  11  3
4  12  3

$$$$
