310931996
  -OEChem-07211613022D

 29 31  0     1  0  0  0  0  0999 V2000
    0.7301   -2.7665    0.0000 Cl  0  0  0  0  0  0  0  0  0  0  0  0
    4.2266   -1.4601    0.0000 O   0  0  0  0  0  0  0  0  0  0  0  0
    0.6916   -5.2256    0.0000 O   0  0  0  0  0  0  0  0  0  0  0  0
    3.5350   -5.2256    0.0000 O   0  0  0  0  0  0  0  0  0  0  0  0
    4.9567   -1.9212    0.0000 O   0  0  0  0  0  0  0  0  0  0  0  0
    5.6867   -3.1507    0.0000 O   0  0  0  0  0  0  0  0  0  0  0  0
    2.8818   -1.4601    0.0000 N   0  0  0  0  0  0  0  0  0  0  0  0
    3.1507   -0.6916    0.0000 N   0  0  0  0  0  0  0  0  0  0  0  0
    2.1517   -5.2256    0.0000 C   0  0  0  0  0  0  0  0  0  0  0  0
    2.1133   -4.4187    0.0000 C   0  0  0  0  0  0  0  0  0  0  0  0
    2.8433   -3.1507    0.0000 C   0  0  0  0  0  0  0  0  0  0  0  0
    3.5350   -2.7665    0.0000 C   0  0  3  0  0  0  0  0  0  0  0  0
    2.8433   -3.9961    0.0000 C   0  0  0  0  0  0  0  0  0  0  0  0
    1.4217   -5.6099    0.0000 C   0  0  0  0  0  0  0  0  0  0  0  0
    2.8433   -5.6099    0.0000 C   0  0  0  0  0  0  0  0  0  0  0  0
    3.5350   -1.9212    0.0000 C   0  0  0  0  0  0  0  0  0  0  0  0
    1.4217   -3.9961    0.0000 C   0  0  0  0  0  0  0  0  0  0  0  0
    2.1517   -2.7665    0.0000 C   0  0  0  0  0  0  0  0  0  0  0  0
    1.4217   -3.1507    0.0000 C   0  0  0  0  0  0  0  0  0  0  0  0
    1.4217   -6.4552    0.0000 C   0  0  0  0  0  0  0  0  0  0  0  0
    2.8433   -6.4552    0.0000 C   0  0  0  0  0  0  0  0  0  0  0  0
    2.1517   -6.8778    0.0000 C   0  0  0  0  0  0  0  0  0  0  0  0
    4.2650   -3.1507    0.0000 C   0  0  0  0  0  0  0  0  0  0  0  0
    3.9576   -0.6532    0.0000 C   0  0  0  0  0  0  0  0  0  0  0  0
    4.9567   -2.7665    0.0000 C   0  0  0  0  0  0  0  0  0  0  0  0
    2.1517   -7.6847    0.0000 C   0  0  0  0  0  0  0  0  0  0  0  0
    4.4572    0.0000    0.0000 C   0  0  0  0  0  0  0  0  0  0  0  0
    0.0000   -5.6483    0.0000 C   0  0  0  0  0  0  0  0  0  0  0  0
    3.5350   -4.3803    0.0000 C   0  0  0  0  0  0  0  0  0  0  0  0
  1 19  1  0  0  0  0
  2 16  1  0  0  0  0
  2 24  1  0  0  0  0
  3 14  1  0  0  0  0
  3 28  1  0  0  0  0
  4 15  1  0  0  0  0
  4 29  1  0  0  0  0
  5 25  2  0  0  0  0
  6 25  1  0  0  0  0
  7  8  1  0  0  0  0
  7 16  2  0  0  0  0
  8 24  2  0  0  0  0
  9 10  1  0  0  0  0
  9 14  2  0  0  0  0
  9 15  1  0  0  0  0
 10 13  2  0  0  0  0
 10 17  1  0  0  0  0
 11 12  1  0  0  0  0
 11 13  1  0  0  0  0
 11 18  2  0  0  0  0
 12 16  1  0  0  0  0
 12 23  1  0  0  0  0
 14 20  1  0  0  0  0
 15 21  2  0  0  0  0
 17 19  2  0  0  0  0
 18 19  1  0  0  0  0
 20 22  2  0  0  0  0
 21 22  1  0  0  0  0
 22 26  1  0  0  0  0
 23 25  1  0  0  0  0
 24 27  1  0  0  0  0
M  END
> <PUBCHEM_COMPOUND_ID_TYPE>
0

> <PUBCHEM_TOTAL_CHARGE>
0

> <PUBCHEM_SUBSTANCE_ID>
310931996

> <PUBCHEM_SUBSTANCE_VERSION>
1

> <PUBCHEM_EXT_DATASOURCE_NAME>
4488

> <PUBCHEM_EXT_DATASOURCE_REGID>
SCHEMBL16109337

> <PUBCHEM_SUBSTANCE_COMMENT>
InChI=1S/C21H21ClN2O5/c1-11-5-17(27-3)20(18(6-11)28-4)14-7-13(8-15(22)9-14)16(10-19(25)26)21-24-23-12(2)29-21/h5-9,16H,10H2,1-4H3,(H,25,26)
InChIKey=OYWDYVMHSSTKHM-UHFFFAOYSA-N

> <PUBCHEM_SUBSTANCE_SYNONYM>
SCHEMBL16109337

> <PUBCHEM_XREF_EXT_ID>
SCHEMBL16109337

> <PUBCHEM_EXT_DATASOURCE_URL>
https://www.surechembl.org/

> <PUBCHEM_EXT_SUBSTANCE_URL>
https://www.surechembl.org/chemical/SCHEMBL16109337

> <PUBCHEM_CID_ASSOCIATIONS>
86281942  1

> <PUBCHEM_COORDINATE_TYPE>
1
3

$$$$
