310941936
  -OEChem-07211613022D

 47 51  0     1  0  0  0  0  0999 V2000
   -6.3429   -2.3713    0.0000 Cl  0  0  0  0  0  0  0  0  0  0  0  0
    4.9451   -2.1593    0.0000 O   0  0  0  0  0  0  0  0  0  0  0  0
    2.5256   -0.4338    0.0000 O   0  0  0  0  0  0  0  0  0  0  0  0
    3.1522    1.3496    0.0000 O   0  0  0  0  0  0  0  0  0  0  0  0
    1.3303   -2.9305    0.0000 O   0  0  0  0  0  0  0  0  0  0  0  0
    3.8077    2.9305    0.0000 O   0  0  0  0  0  0  0  0  0  0  0  0
    1.8123    1.3881    0.0000 O   0  0  0  0  0  0  0  0  0  0  0  0
    2.4967    2.9305    0.0000 O   0  0  0  0  0  0  0  0  0  0  0  0
    3.9716   -1.1278    0.0000 N   0  0  0  0  0  0  0  0  0  0  0  0
    4.6560    1.2820    0.0000 N   0  0  0  0  0  0  0  0  0  0  0  0
    1.9376   -1.6870    0.0000 N   0  0  0  0  0  0  0  0  0  0  0  0
   -3.2582   -2.3713    0.0000 N   0  0  0  0  0  0  0  0  0  0  0  0
   -3.2582    0.1349    0.0000 N   0  0  0  0  0  0  0  0  0  0  0  0
    0.3663    0.5494    0.0000 N   0  0  3  0  0  0  0  0  0  0  0  0
    4.7620   -0.0771    0.0000 C   0  0  0  0  0  0  0  0  0  0  0  0
    5.2054   -0.7326    0.0000 C   0  0  0  0  0  0  0  0  0  0  0  0
    4.7138   -1.3688    0.0000 C   0  0  0  0  0  0  0  0  0  0  0  0
    4.0005   -0.3084    0.0000 C   0  0  0  0  0  0  0  0  0  0  0  0
    3.3064   -1.5616    0.0000 C   0  0  3  0  0  0  0  0  0  0  0  0
    5.0994    0.6458    0.0000 C   0  0  0  0  0  0  0  0  0  0  0  0
    5.9959   -0.6748    0.0000 C   0  0  0  0  0  0  0  0  0  0  0  0
    2.5835   -1.2242    0.0000 C   0  0  0  0  0  0  0  0  0  0  0  0
    5.8899    0.6941    0.0000 C   0  0  0  0  0  0  0  0  0  0  0  0
    3.3642   -2.3617    0.0000 C   0  0  0  0  0  0  0  0  0  0  0  0
    6.3429    0.0386    0.0000 C   0  0  0  0  0  0  0  0  0  0  0  0
    1.9954   -2.4581    0.0000 C   0  0  0  0  0  0  0  0  0  0  0  0
    2.7184   -2.8051    0.0000 C   0  0  0  0  0  0  0  0  0  0  0  0
    3.7980    1.9954    0.0000 C   0  0  0  0  0  0  0  0  0  0  0  0
   -3.9812   -1.0989    0.0000 C   0  0  0  0  0  0  0  0  0  0  0  0
   -3.9909   -1.9376    0.0000 C   0  0  0  0  0  0  0  0  0  0  0  0
   -3.2678   -0.6844    0.0000 C   0  0  0  0  0  0  0  0  0  0  0  0
   -4.7138   -0.6941    0.0000 C   0  0  0  0  0  0  0  0  0  0  0  0
   -4.7042   -2.3521    0.0000 C   0  0  0  0  0  0  0  0  0  0  0  0
   -5.4368   -1.9376    0.0000 C   0  0  0  0  0  0  0  0  0  0  0  0
   -2.5352   -1.0989    0.0000 C   0  0  0  0  0  0  0  0  0  0  0  0
   -5.4271   -1.0989    0.0000 C   0  0  0  0  0  0  0  0  0  0  0  0
   -2.5449   -1.9472    0.0000 C   0  0  0  0  0  0  0  0  0  0  0  0
    2.4967    1.9954    0.0000 C   0  0  0  0  0  0  0  0  0  0  0  0
   -2.5449    0.5687    0.0000 C   0  0  3  0  0  0  0  0  0  0  0  0
   -1.8123    0.1542    0.0000 C   0  0  0  0  0  0  0  0  0  0  0  0
   -2.5352    1.4170    0.0000 C   0  0  0  0  0  0  0  0  0  0  0  0
    1.0797    1.8219    0.0000 C   0  0  0  0  0  0  0  0  0  0  0  0
   -1.0893    0.5687    0.0000 C   0  0  0  0  0  0  0  0  0  0  0  0
    0.3663    1.4074    0.0000 C   0  0  0  0  0  0  0  0  0  0  0  0
   -0.3567    0.1542    0.0000 C   0  0  0  0  0  0  0  0  0  0  0  0
    0.9639   -0.0193    0.0000 C   0  0  0  0  0  0  0  0  0  0  0  0
    1.7833    0.1832    0.0000 C   0  0  0  0  0  0  0  0  0  0  0  0
  1 34  1  0  0  0  0
  2 17  2  0  0  0  0
  3 22  2  0  0  0  0
  4 28  1  0  0  0  0
  4 38  1  0  0  0  0
  5 26  2  0  0  0  0
  6 28  2  0  0  0  0
  7 38  1  0  0  0  0
  7 42  1  0  0  0  0
  8 38  2  0  0  0  0
  9 17  1  0  0  0  0
  9 18  1  0  0  0  0
  9 19  1  0  0  0  0
 10 20  1  0  0  0  0
 10 28  1  0  0  0  0
 11 22  1  0  0  0  0
 11 26  1  0  0  0  0
 12 30  1  0  0  0  0
 12 37  2  0  0  0  0
 13 31  1  0  0  0  0
 13 39  1  0  0  0  0
 14 44  1  0  0  0  0
 14 45  1  0  0  0  0
 14 46  1  0  0  0  0
 15 16  2  0  0  0  0
 15 18  1  0  0  0  0
 15 20  1  0  0  0  0
 16 17  1  0  0  0  0
 16 21  1  0  0  0  0
 19 22  1  0  0  0  0
 19 24  1  0  0  0  0
 20 23  2  0  0  0  0
 21 25  2  0  0  0  0
 23 25  1  0  0  0  0
 24 27  1  0  0  0  0
 26 27  1  0  0  0  0
 29 30  1  0  0  0  0
 29 31  1  0  0  0  0
 29 32  2  0  0  0  0
 30 33  2  0  0  0  0
 31 35  2  0  0  0  0
 32 36  1  0  0  0  0
 33 34  1  0  0  0  0
 34 36  2  0  0  0  0
 35 37  1  0  0  0  0
 39 40  1  0  0  0  0
 39 41  1  0  0  0  0
 40 43  1  0  0  0  0
 42 44  1  0  0  0  0
 43 45  1  0  0  0  0
 46 47  1  0  0  0  0
M  END
> <PUBCHEM_COMPOUND_ID_TYPE>
0

> <PUBCHEM_TOTAL_CHARGE>
0

> <PUBCHEM_SUBSTANCE_ID>
310941936

> <PUBCHEM_SUBSTANCE_VERSION>
1

> <PUBCHEM_EXT_DATASOURCE_NAME>
4488

> <PUBCHEM_EXT_DATASOURCE_REGID>
SCHEMBL16119969

> <PUBCHEM_SUBSTANCE_COMMENT>
InChI=1S/C33H37ClN6O7/c1-3-39(15-5-6-20(2)36-26-13-14-35-27-18-21(34)9-10-23(26)27)16-17-46-33(45)47-32(44)37-25-8-4-7-22-24(25)19-40(31(22)43)28-11-12-29(41)38-30(28)42/h4,7-10,13-14,18,20,28H,3,5-6,11-12,15-17,19H2,1-2H3,(H,35,36)(H,37,44)(H,38,41,42)
InChIKey=AKABRZRKYQGALW-UHFFFAOYSA-N

> <PUBCHEM_SUBSTANCE_SYNONYM>
SCHEMBL16119969

> <PUBCHEM_XREF_EXT_ID>
SCHEMBL16119969

> <PUBCHEM_EXT_DATASOURCE_URL>
https://www.surechembl.org/

> <PUBCHEM_EXT_SUBSTANCE_URL>
https://www.surechembl.org/chemical/SCHEMBL16119969

> <PUBCHEM_CID_ASSOCIATIONS>
117608660  1

> <PUBCHEM_COORDINATE_TYPE>
1
3

$$$$
