310933046
  -OEChem-07211613022D

 34 37  0     1  0  0  0  0  0999 V2000
    7.0647   -1.2025    0.0000 O   0  0  0  0  0  0  0  0  0  0  0  0
    2.8183   -6.0126    0.0000 O   0  0  0  0  0  0  0  0  0  0  0  0
   10.5595    0.0000    0.0000 O   0  0  0  0  0  0  0  0  0  0  0  0
   11.2735   -1.2025    0.0000 O   0  0  0  0  0  0  0  0  0  0  0  0
    4.9228   -4.8100    0.0000 N   0  0  0  0  0  0  0  0  0  0  0  0
    5.6368   -1.9917    0.0000 N   0  0  0  0  0  0  0  0  0  0  0  0
    7.7411   -2.4050    0.0000 N   0  0  0  0  0  0  0  0  0  0  0  0
    0.7140   -5.5616    0.0000 N   0  0  0  0  0  0  0  0  0  0  0  0
    5.6368   -3.6451    0.0000 C   0  0  0  0  0  0  0  0  0  0  0  0
    6.3508   -3.2317    0.0000 C   0  0  0  0  0  0  0  0  0  0  0  0
    5.6368   -4.4342    0.0000 C   0  0  0  0  0  0  0  0  0  0  0  0
    6.3508   -2.4050    0.0000 C   0  0  3  0  0  0  0  0  0  0  0  0
    7.0647   -2.0292    0.0000 C   0  0  0  0  0  0  0  0  0  0  0  0
    4.9228   -3.2317    0.0000 C   0  0  0  0  0  0  0  0  0  0  0  0
    7.0647   -3.6075    0.0000 C   0  0  0  0  0  0  0  0  0  0  0  0
    6.3508   -4.8476    0.0000 C   0  0  0  0  0  0  0  0  0  0  0  0
    7.0647   -4.4342    0.0000 C   0  0  0  0  0  0  0  0  0  0  0  0
    4.9603   -2.4050    0.0000 C   0  0  0  0  0  0  0  0  0  0  0  0
    4.9228   -5.6368    0.0000 C   0  0  0  0  0  0  0  0  0  0  0  0
    4.2463   -4.3967    0.0000 C   0  0  0  0  0  0  0  0  0  0  0  0
    8.4551   -2.0292    0.0000 C   0  0  0  0  0  0  0  0  0  0  0  0
    3.5323   -5.5992    0.0000 C   0  0  0  0  0  0  0  0  0  0  0  0
    4.2088   -6.0501    0.0000 C   0  0  0  0  0  0  0  0  0  0  0  0
    3.5323   -4.8100    0.0000 C   0  0  0  0  0  0  0  0  0  0  0  0
    8.4551   -1.2025    0.0000 C   0  0  0  0  0  0  0  0  0  0  0  0
    9.1691   -2.4050    0.0000 C   0  0  0  0  0  0  0  0  0  0  0  0
    9.8831   -1.2025    0.0000 C   0  0  0  0  0  0  0  0  0  0  0  0
    9.1691   -0.7892    0.0000 C   0  0  0  0  0  0  0  0  0  0  0  0
    9.8831   -2.0292    0.0000 C   0  0  0  0  0  0  0  0  0  0  0  0
   10.5595   -0.7892    0.0000 C   0  0  0  0  0  0  0  0  0  0  0  0
    2.1044   -5.5992    0.0000 C   0  0  0  0  0  0  0  0  0  0  0  0
    1.4280   -5.9750    0.0000 C   0  0  0  0  0  0  0  0  0  0  0  0
    0.7140   -4.7724    0.0000 C   0  0  0  0  0  0  0  0  0  0  0  0
    0.0000   -5.9750    0.0000 C   0  0  0  0  0  0  0  0  0  0  0  0
  1 13  2  0  0  0  0
  2 22  1  0  0  0  0
  2 31  1  0  0  0  0
  3 30  2  0  0  0  0
  4 30  1  0  0  0  0
  5 11  1  0  0  0  0
  5 19  1  0  0  0  0
  5 20  1  0  0  0  0
  6 12  1  0  0  0  0
  6 18  1  0  0  0  0
  7 13  1  0  0  0  0
  7 21  1  0  0  0  0
  8 32  1  0  0  0  0
  8 33  1  0  0  0  0
  8 34  1  0  0  0  0
  9 10  2  0  0  0  0
  9 11  1  0  0  0  0
  9 14  1  0  0  0  0
 10 12  1  0  0  0  0
 10 15  1  0  0  0  0
 11 16  2  0  0  0  0
 12 13  1  0  0  0  0
 14 18  1  0  0  0  0
 15 17  2  0  0  0  0
 16 17  1  0  0  0  0
 19 23  1  0  0  0  0
 20 24  1  0  0  0  0
 21 25  2  0  0  0  0
 21 26  1  0  0  0  0
 22 23  1  0  0  0  0
 22 24  1  0  0  0  0
 25 28  1  0  0  0  0
 26 29  2  0  0  0  0
 27 28  2  0  0  0  0
 27 29  1  0  0  0  0
 27 30  1  0  0  0  0
 31 32  1  0  0  0  0
M  END
> <PUBCHEM_COMPOUND_ID_TYPE>
0

> <PUBCHEM_TOTAL_CHARGE>
0

> <PUBCHEM_SUBSTANCE_ID>
310933046

> <PUBCHEM_SUBSTANCE_VERSION>
1

> <PUBCHEM_EXT_DATASOURCE_NAME>
4488

> <PUBCHEM_EXT_DATASOURCE_REGID>
SCHEMBL16110447

> <PUBCHEM_SUBSTANCE_COMMENT>
InChI=1S/C26H34N4O4/c1-29(2)16-17-34-20-11-14-30(15-12-20)23-5-3-4-22-21(23)10-13-27-24(22)25(31)28-19-8-6-18(7-9-19)26(32)33/h3-9,20,24,27H,10-17H2,1-2H3,(H,28,31)(H,32,33)
InChIKey=WNJWKGZKYFPBKM-UHFFFAOYSA-N

> <PUBCHEM_SUBSTANCE_SYNONYM>
SCHEMBL16110447

> <PUBCHEM_XREF_EXT_ID>
SCHEMBL16110447

> <PUBCHEM_EXT_DATASOURCE_URL>
https://www.surechembl.org/

> <PUBCHEM_EXT_SUBSTANCE_URL>
https://www.surechembl.org/chemical/SCHEMBL16110447

> <PUBCHEM_CID_ASSOCIATIONS>
117601507  1

> <PUBCHEM_COORDINATE_TYPE>
1
3

$$$$
