310934080
  -OEChem-07211613022D

 42 47  0     1  0  0  0  0  0999 V2000
    0.0000   -3.0624    0.0000 Cl  0  0  0  0  0  0  0  0  0  0  0  0
    1.6250   -2.9062    0.0000 F   0  0  0  0  0  0  0  0  0  0  0  0
    4.5623   -5.7498    0.0000 O   0  0  0  0  0  0  0  0  0  0  0  0
    3.8749   -3.6874    0.0000 O   0  0  0  0  0  0  0  0  0  0  0  0
    7.4373    0.0000    0.0000 O   0  0  0  0  0  0  0  0  0  0  0  0
    8.1247   -1.2500    0.0000 O   0  0  0  0  0  0  0  0  0  0  0  0
    5.2811   -4.4999    0.0000 N   0  0  0  0  0  0  0  0  0  0  0  0
    8.0935   -3.7186    0.0000 N   0  0  0  0  0  0  0  0  0  0  0  0
    2.5937   -4.2186    0.0000 N   0  0  0  0  0  0  0  0  0  0  0  0
    3.9686   -3.8436    0.0000 N   0  0  0  0  0  0  0  0  0  0  0  0
    4.5936   -2.4687    0.0000 N   0  0  0  0  0  0  0  0  0  0  0  0
    2.9999   -3.4999    0.0000 N   0  0  0  0  0  0  0  0  0  0  0  0
    9.3747   -3.9999    0.0000 N   0  0  0  0  0  0  0  0  0  0  0  0
    8.9684   -4.7186    0.0000 N   0  0  0  0  0  0  0  0  0  0  0  0
    5.2811   -3.6874    0.0000 C   0  0  3  0  0  0  0  0  0  0  0  0
    5.9998   -3.2811    0.0000 C   0  0  0  0  0  0  0  0  0  0  0  0
    6.6873   -3.6874    0.0000 C   0  0  0  0  0  0  0  0  0  0  0  0
    7.4060   -3.3124    0.0000 C   0  0  0  0  0  0  0  0  0  0  0  0
    4.5623   -4.9373    0.0000 C   0  0  0  0  0  0  0  0  0  0  0  0
    4.5936   -3.2811    0.0000 C   0  0  0  0  0  0  0  0  0  0  0  0
    3.8436   -4.4999    0.0000 C   0  0  0  0  0  0  0  0  0  0  0  0
    5.9686   -4.9373    0.0000 C   0  0  0  0  0  0  0  0  0  0  0  0
    6.6873   -4.5311    0.0000 C   0  0  0  0  0  0  0  0  0  0  0  0
    6.1560   -2.6249    0.0000 C   0  0  0  0  0  0  0  0  0  0  0  0
    7.4060   -2.4687    0.0000 C   0  0  0  0  0  0  0  0  0  0  0  0
    3.1249   -4.8436    0.0000 C   0  0  0  0  0  0  0  0  0  0  0  0
    1.7499   -4.3123    0.0000 C   0  0  0  0  0  0  0  0  0  0  0  0
    6.8748   -2.2187    0.0000 C   0  0  0  0  0  0  0  0  0  0  0  0
    1.2812   -3.6561    0.0000 C   0  0  0  0  0  0  0  0  0  0  0  0
    8.1873   -4.5311    0.0000 C   0  0  0  0  0  0  0  0  0  0  0  0
    8.8747   -3.4061    0.0000 C   0  0  0  0  0  0  0  0  0  0  0  0
    5.2811   -2.0624    0.0000 C   0  0  0  0  0  0  0  0  0  0  0  0
    1.4062   -5.0624    0.0000 C   0  0  0  0  0  0  0  0  0  0  0  0
    0.4687   -3.7186    0.0000 C   0  0  0  0  0  0  0  0  0  0  0  0
    0.6250   -5.1248    0.0000 C   0  0  0  0  0  0  0  0  0  0  0  0
    0.1250   -4.4686    0.0000 C   0  0  0  0  0  0  0  0  0  0  0  0
    5.2811   -1.2500    0.0000 C   0  0  0  0  0  0  0  0  0  0  0  0
    5.9998   -2.4687    0.0000 C   0  0  0  0  0  0  0  0  0  0  0  0
    6.7185   -1.2500    0.0000 C   0  0  0  0  0  0  0  0  0  0  0  0
    5.9998   -0.8125    0.0000 C   0  0  0  0  0  0  0  0  0  0  0  0
    6.7185   -2.0624    0.0000 C   0  0  0  0  0  0  0  0  0  0  0  0
    7.4373   -0.8125    0.0000 C   0  0  0  0  0  0  0  0  0  0  0  0
  1 34  1  0  0  0  0
  2 29  1  0  0  0  0
  3 19  2  0  0  0  0
  4 20  2  0  0  0  0
  5 42  2  0  0  0  0
  6 42  1  0  0  0  0
  7 15  1  0  0  0  0
  7 19  1  0  0  0  0
  7 22  1  0  0  0  0
  8 18  1  0  0  0  0
  8 30  1  0  0  0  0
  8 31  1  0  0  0  0
  9 12  1  0  0  0  0
  9 26  1  0  0  0  0
  9 27  1  0  0  0  0
 10 12  2  0  0  0  0
 10 21  1  0  0  0  0
 11 20  1  0  0  0  0
 11 32  1  0  0  0  0
 13 14  1  0  0  0  0
 13 31  2  0  0  0  0
 14 30  2  0  0  0  0
 15 16  1  0  0  0  0
 15 20  1  0  0  0  0
 16 17  2  0  0  0  0
 16 24  1  0  0  0  0
 17 18  1  0  0  0  0
 17 23  1  0  0  0  0
 18 25  2  0  0  0  0
 19 21  1  0  0  0  0
 21 26  2  0  0  0  0
 22 23  1  0  0  0  0
 24 28  2  0  0  0  0
 25 28  1  0  0  0  0
 27 29  1  0  0  0  0
 27 33  2  0  0  0  0
 29 34  2  0  0  0  0
 32 37  2  0  0  0  0
 32 38  1  0  0  0  0
 33 35  1  0  0  0  0
 34 36  1  0  0  0  0
 35 36  2  0  0  0  0
 37 40  1  0  0  0  0
 38 41  2  0  0  0  0
 39 40  2  0  0  0  0
 39 41  1  0  0  0  0
 39 42  1  0  0  0  0
M  END
> <PUBCHEM_COMPOUND_ID_TYPE>
0

> <PUBCHEM_TOTAL_CHARGE>
0

> <PUBCHEM_SUBSTANCE_ID>
310934080

> <PUBCHEM_SUBSTANCE_VERSION>
1

> <PUBCHEM_EXT_DATASOURCE_NAME>
4488

> <PUBCHEM_EXT_DATASOURCE_REGID>
SCHEMBL16111526

> <PUBCHEM_SUBSTANCE_COMMENT>
InChI=1S/C28H20ClFN8O4/c29-20-4-2-6-23(24(20)30)38-13-21(34-35-38)27(40)37-12-11-18-19(3-1-5-22(18)36-14-31-32-15-36)25(37)26(39)33-17-9-7-16(8-10-17)28(41)42/h1-10,13-15,25H,11-12H2,(H,33,39)(H,41,42)
InChIKey=DVVGYZRXNJAFET-UHFFFAOYSA-N

> <PUBCHEM_SUBSTANCE_SYNONYM>
SCHEMBL16111526

> <PUBCHEM_XREF_EXT_ID>
SCHEMBL16111526

> <PUBCHEM_EXT_DATASOURCE_URL>
https://www.surechembl.org/

> <PUBCHEM_EXT_SUBSTANCE_URL>
https://www.surechembl.org/chemical/SCHEMBL16111526

> <PUBCHEM_CID_ASSOCIATIONS>
117602366  1

> <PUBCHEM_COORDINATE_TYPE>
1
3

$$$$
