310941907
  -OEChem-07211613022D

 23 23  0     1  0  0  0  0  0999 V2000
    0.6559    0.3498    0.0000 O   0  0  0  0  0  0  0  0  0  0  0  0
    0.6559    1.7052    0.0000 O   0  0  0  0  0  0  0  0  0  0  0  0
    0.6121   -1.0494    0.0000 N   0  0  3  0  0  0  0  0  0  0  0  0
   -1.0057   -1.0494    0.0000 N   0  0  3  0  0  0  0  0  0  0  0  0
    3.0170    0.3935    0.0000 C   0  0  0  0  0  0  0  0  0  0  0  0
    1.8364   -0.3060    0.0000 C   0  0  0  0  0  0  0  0  0  0  0  0
    1.4429    0.3498    0.0000 C   0  0  0  0  0  0  0  0  0  0  0  0
    1.8364    1.0931    0.0000 C   0  0  0  0  0  0  0  0  0  0  0  0
    3.8477    0.3498    0.0000 C   0  0  0  0  0  0  0  0  0  0  0  0
    2.6671   -0.3060    0.0000 C   0  0  0  0  0  0  0  0  0  0  0  0
    2.6671    1.0057    0.0000 C   0  0  0  0  0  0  0  0  0  0  0  0
    1.4429   -1.0494    0.0000 C   0  0  0  0  0  0  0  0  0  0  0  0
    1.4866    1.7490    0.0000 C   0  0  0  0  0  0  0  0  0  0  0  0
    4.2849    1.0494    0.0000 C   0  0  0  0  0  0  0  0  0  0  0  0
    4.6785    0.3498    0.0000 C   0  0  0  0  0  0  0  0  0  0  0  0
    4.2849   -0.3498    0.0000 C   0  0  0  0  0  0  0  0  0  0  0  0
    0.2186   -1.7490    0.0000 C   0  0  0  0  0  0  0  0  0  0  0  0
    1.0494   -1.7052    0.0000 C   0  0  0  0  0  0  0  0  0  0  0  0
   -0.5684   -1.7052    0.0000 C   0  0  0  0  0  0  0  0  0  0  0  0
    1.8801   -1.7490    0.0000 C   0  0  0  0  0  0  0  0  0  0  0  0
   -1.3992   -1.7490    0.0000 C   0  0  0  0  0  0  0  0  0  0  0  0
   -4.6785    0.8745    0.0000 C   0  0  0  0  0  0  0  0  0  0  0  0
   -2.1862   -1.7490    0.0000 C   0  0  0  0  0  0  0  0  0  0  0  0
  1  7  1  0  0  0  0
  2 13  2  0  0  0  0
  3 12  1  0  0  0  0
  3 17  1  0  0  0  0
  3 18  1  0  0  0  0
  4 19  1  0  0  0  0
  4 21  1  0  0  0  0
  4 22  1  0  0  0  0
  5  9  1  0  0  0  0
  5 10  1  0  0  0  0
  5 11  2  0  0  0  0
  6  7  1  0  0  0  0
  6 10  2  0  0  0  0
  6 12  1  0  0  0  0
  7  8  2  0  0  0  0
  8 11  1  0  0  0  0
  8 13  1  0  0  0  0
  9 14  1  0  0  0  0
  9 15  1  0  0  0  0
  9 16  1  0  0  0  0
 17 19  1  0  0  0  0
 18 20  1  0  0  0  0
 21 23  1  0  0  0  0
M  END
> <PUBCHEM_COMPOUND_ID_TYPE>
0

> <PUBCHEM_TOTAL_CHARGE>
0

> <PUBCHEM_SUBSTANCE_ID>
310941907

> <PUBCHEM_SUBSTANCE_VERSION>
1

> <PUBCHEM_EXT_DATASOURCE_NAME>
4488

> <PUBCHEM_EXT_DATASOURCE_REGID>
SCHEMBL16119939

> <PUBCHEM_SUBSTANCE_COMMENT>
InChI=1S/C19H32N2O2/c1-7-20(6)9-10-21(8-2)13-15-11-17(19(3,4)5)12-16(14-22)18(15)23/h11-12,14,23H,7-10,13H2,1-6H3
InChIKey=OYRYXGZNGZPWRQ-UHFFFAOYSA-N

> <PUBCHEM_SUBSTANCE_SYNONYM>
SCHEMBL16119939

> <PUBCHEM_XREF_EXT_ID>
SCHEMBL16119939

> <PUBCHEM_EXT_DATASOURCE_URL>
https://www.surechembl.org/

> <PUBCHEM_EXT_SUBSTANCE_URL>
https://www.surechembl.org/chemical/SCHEMBL16119939

> <PUBCHEM_CID_ASSOCIATIONS>
117608639  1

> <PUBCHEM_COORDINATE_TYPE>
1
3

> <PUBCHEM_BONDANNOTATIONS>
4  22  3

$$$$
