310946453
  -OEChem-07211613022D

 17 17  0     1  0  0  0  0  0999 V2000
   -1.4289   -7.8904    0.0000 O   0  0  0  0  0  0  0  0  0  0  0  0
   -2.1434   -9.1279    0.0000 O   0  0  0  0  0  0  0  0  0  0  0  0
   -3.5724   -6.6529    0.0000 O   0  0  0  0  0  0  0  0  0  0  0  0
   -3.5724   -8.3029    0.0000 N   0  0  0  0  0  0  0  0  0  0  0  0
   -0.7145   -8.3029    0.0000 C   0  0  0  0  0  0  0  0  0  0  0  0
   -2.1434   -8.3029    0.0000 C   0  0  0  0  0  0  0  0  0  0  0  0
   -2.8579   -7.8904    0.0000 C   0  0  3  0  0  0  0  0  0  0  0  0
    0.0000   -7.8904    0.0000 C   0  0  0  0  0  0  0  0  0  0  0  0
    0.7145   -8.3029    0.0000 C   0  0  0  0  0  0  0  0  0  0  0  0
   -2.8579   -7.0654    0.0000 C   0  0  3  0  0  0  0  0  0  0  0  0
   -0.7145   -9.1279    0.0000 C   0  0  0  0  0  0  0  0  0  0  0  0
    0.7145   -9.1279    0.0000 C   0  0  0  0  0  0  0  0  0  0  0  0
    0.0000   -9.5404    0.0000 C   0  0  0  0  0  0  0  0  0  0  0  0
    1.4289   -7.8904    0.0000 C   0  0  0  0  0  0  0  0  0  0  0  0
   -2.1434   -6.6529    0.0000 C   0  0  0  0  0  0  0  0  0  0  0  0
    2.1434   -8.3029    0.0000 C   0  0  0  0  0  0  0  0  0  0  0  0
    2.8579   -7.8904    0.0000 C   0  0  0  0  0  0  0  0  0  0  0  0
  1  5  1  0  0  0  0
  1  6  1  0  0  0  0
  2  6  2  0  0  0  0
  3 10  1  0  0  0  0
  4  7  1  0  0  0  0
  5  8  1  0  0  0  0
  5 11  2  0  0  0  0
  6  7  1  0  0  0  0
  7 10  1  0  0  0  0
  8  9  2  0  0  0  0
  9 12  1  0  0  0  0
  9 14  1  0  0  0  0
 10 15  1  0  0  0  0
 11 13  1  0  0  0  0
 12 13  2  0  0  0  0
 14 16  1  0  0  0  0
 16 17  1  0  0  0  0
M  END
> <PUBCHEM_COMPOUND_ID_TYPE>
0

> <PUBCHEM_TOTAL_CHARGE>
0

> <PUBCHEM_SUBSTANCE_ID>
310946453

> <PUBCHEM_SUBSTANCE_VERSION>
1

> <PUBCHEM_EXT_DATASOURCE_NAME>
4488

> <PUBCHEM_EXT_DATASOURCE_REGID>
SCHEMBL16124574

> <PUBCHEM_SUBSTANCE_COMMENT>
InChI=1S/C13H19NO3/c1-3-5-10-6-4-7-11(8-10)17-13(16)12(14)9(2)15/h4,6-9,12,15H,3,5,14H2,1-2H3
InChIKey=NMAKEOOPPLGFGY-UHFFFAOYSA-N

> <PUBCHEM_SUBSTANCE_SYNONYM>
SCHEMBL16124574

> <PUBCHEM_XREF_EXT_ID>
SCHEMBL16124574

> <PUBCHEM_EXT_DATASOURCE_URL>
https://www.surechembl.org/

> <PUBCHEM_EXT_SUBSTANCE_URL>
https://www.surechembl.org/chemical/SCHEMBL16124574

> <PUBCHEM_CID_ASSOCIATIONS>
117612364  1

> <PUBCHEM_COORDINATE_TYPE>
1
3

$$$$
