310944014
  -OEChem-07211613022D

 41 47  0     1  0  0  0  0  0999 V2000
    1.4523    2.1206    0.0000 N   0  0  0  0  0  0  0  0  0  0  0  0
   -0.0128   -1.1695    0.0000 N   0  0  0  0  0  0  0  0  0  0  0  0
   -0.7454    0.0642    0.0000 N   0  0  0  0  0  0  0  0  0  0  0  0
    3.6114    1.6579    0.0000 N   0  0  0  0  0  0  0  0  0  0  0  0
    1.4523   -1.9920    0.0000 N   0  0  0  0  0  0  0  0  0  0  0  0
    2.1206    2.6603    0.0000 C   0  0  0  0  0  0  0  0  0  0  0  0
    0.7582    2.6346    0.0000 C   0  0  0  0  0  0  0  0  0  0  0  0
    1.4394    1.3109    0.0000 C   0  0  0  0  0  0  0  0  0  0  0  0
    1.8506    3.4186    0.0000 C   0  0  0  0  0  0  0  0  0  0  0  0
    1.0153    3.4186    0.0000 C   0  0  0  0  0  0  0  0  0  0  0  0
    2.1848    0.9125    0.0000 C   0  0  0  0  0  0  0  0  0  0  0  0
    0.7069    0.0771    0.0000 C   0  0  0  0  0  0  0  0  0  0  0  0
    0.7326    0.8868    0.0000 C   0  0  0  0  0  0  0  0  0  0  0  0
    1.4523   -0.3470    0.0000 C   0  0  0  0  0  0  0  0  0  0  0  0
   -0.0642    2.4676    0.0000 C   0  0  0  0  0  0  0  0  0  0  0  0
    2.9174    2.4804    0.0000 C   0  0  0  0  0  0  0  0  0  0  0  0
    0.0000   -0.3342    0.0000 C   0  0  0  0  0  0  0  0  0  0  0  0
    0.4369    4.0226    0.0000 C   0  0  0  0  0  0  0  0  0  0  0  0
    2.4033    4.0098    0.0000 C   0  0  0  0  0  0  0  0  0  0  0  0
    2.1720    0.0771    0.0000 C   0  0  0  0  0  0  0  0  0  0  0  0
   -0.6297    3.0716    0.0000 C   0  0  0  0  0  0  0  0  0  0  0  0
    3.4700    3.0844    0.0000 C   0  0  0  0  0  0  0  0  0  0  0  0
   -0.3727    3.8427    0.0000 C   0  0  0  0  0  0  0  0  0  0  0  0
    3.2130    3.8684    0.0000 C   0  0  0  0  0  0  0  0  0  0  0  0
    2.8917    1.2980    0.0000 C   0  0  0  0  0  0  0  0  0  0  0  0
   -0.7326   -1.5551    0.0000 C   0  0  0  0  0  0  0  0  0  0  0  0
   -1.4651   -0.3213    0.0000 C   0  0  0  0  0  0  0  0  0  0  0  0
    1.4523   -1.1824    0.0000 C   0  0  0  0  0  0  0  0  0  0  0  0
   -1.4651   -1.1438    0.0000 C   0  0  0  0  0  0  0  0  0  0  0  0
   -0.7454   -2.3904    0.0000 C   0  0  0  0  0  0  0  0  0  0  0  0
   -2.1977    0.0900    0.0000 C   0  0  3  0  0  0  0  0  0  0  0  0
   -1.4394   -2.8145    0.0000 C   0  0  0  0  0  0  0  0  0  0  0  0
    0.0000   -2.7888    0.0000 C   0  0  0  0  0  0  0  0  0  0  0  0
   -2.9174   -0.3213    0.0000 C   0  0  0  0  0  0  0  0  0  0  0  0
   -2.1977    0.8996    0.0000 C   0  0  0  0  0  0  0  0  0  0  0  0
   -1.4266   -3.6371    0.0000 C   0  0  0  0  0  0  0  0  0  0  0  0
   -0.0128   -3.6242    0.0000 C   0  0  0  0  0  0  0  0  0  0  0  0
   -3.6114    0.0771    0.0000 C   0  0  0  0  0  0  0  0  0  0  0  0
   -2.9174    1.3109    0.0000 C   0  0  0  0  0  0  0  0  0  0  0  0
   -0.7197   -4.0226    0.0000 C   0  0  0  0  0  0  0  0  0  0  0  0
   -3.6114    0.9125    0.0000 C   0  0  0  0  0  0  0  0  0  0  0  0
  1  6  1  0  0  0  0
  1  7  1  0  0  0  0
  1  8  1  0  0  0  0
  2 17  1  0  0  0  0
  2 26  2  0  0  0  0
  3 17  2  0  0  0  0
  3 27  1  0  0  0  0
  4 25  3  0  0  0  0
  5 28  3  0  0  0  0
  6  9  2  0  0  0  0
  6 16  1  0  0  0  0
  7 10  2  0  0  0  0
  7 15  1  0  0  0  0
  8 11  2  0  0  0  0
  8 13  1  0  0  0  0
  9 10  1  0  0  0  0
  9 19  1  0  0  0  0
 10 18  1  0  0  0  0
 11 20  1  0  0  0  0
 11 25  1  0  0  0  0
 12 13  2  0  0  0  0
 12 14  1  0  0  0  0
 12 17  1  0  0  0  0
 14 20  2  0  0  0  0
 14 28  1  0  0  0  0
 15 21  2  0  0  0  0
 16 22  2  0  0  0  0
 18 23  2  0  0  0  0
 19 24  2  0  0  0  0
 21 23  1  0  0  0  0
 22 24  1  0  0  0  0
 26 29  1  0  0  0  0
 26 30  1  0  0  0  0
 27 29  2  0  0  0  0
 27 31  1  0  0  0  0
 30 32  2  0  0  0  0
 30 33  1  0  0  0  0
 31 34  1  0  0  0  0
 31 35  1  0  0  0  0
 32 36  1  0  0  0  0
 33 37  2  0  0  0  0
 34 38  2  0  0  0  0
 35 39  1  0  0  0  0
 36 40  2  0  0  0  0
 37 40  1  0  0  0  0
 38 41  1  0  0  0  0
 39 41  2  0  0  0  0
M  END
> <PUBCHEM_COMPOUND_ID_TYPE>
0

> <PUBCHEM_TOTAL_CHARGE>
0

> <PUBCHEM_SUBSTANCE_ID>
310944014

> <PUBCHEM_SUBSTANCE_VERSION>
1

> <PUBCHEM_EXT_DATASOURCE_NAME>
4488

> <PUBCHEM_EXT_DATASOURCE_REGID>
SCHEMBL16122085

> <PUBCHEM_SUBSTANCE_COMMENT>
InChI=1S/C36H23N5/c37-22-26-19-27(23-38)35(41-33-17-9-7-15-28(33)29-16-8-10-18-34(29)41)20-30(26)36-39-31(24-11-3-1-4-12-24)21-32(40-36)25-13-5-2-6-14-25/h1-13,15-21,25H,14H2
InChIKey=CWEUHVJRTBAVFU-UHFFFAOYSA-N

> <PUBCHEM_SUBSTANCE_SYNONYM>
SCHEMBL16122085

> <PUBCHEM_XREF_EXT_ID>
SCHEMBL16122085

> <PUBCHEM_EXT_DATASOURCE_URL>
https://www.surechembl.org/

> <PUBCHEM_EXT_SUBSTANCE_URL>
https://www.surechembl.org/chemical/SCHEMBL16122085

> <PUBCHEM_CID_ASSOCIATIONS>
117610318  1

> <PUBCHEM_COORDINATE_TYPE>
1
3

$$$$
