310943469
  -OEChem-07211613022D

 24 26  0     1  0  0  0  0  0999 V2000
   -0.3163    2.9221    0.0000 O   0  0  0  0  0  0  0  0  0  0  0  0
   -1.7601   -2.9221    0.0000 O   0  0  0  0  0  0  0  0  0  0  0  0
    0.3987    1.6707    0.0000 N   0  0  0  0  0  0  0  0  0  0  0  0
    2.2138    1.2719    0.0000 N   0  0  3  0  0  0  0  0  0  0  0  0
   -1.7464    0.4469    0.0000 C   0  0  0  0  0  0  0  0  0  0  0  0
   -1.0313    1.6983    0.0000 C   0  0  0  0  0  0  0  0  0  0  0  0
   -0.3300    2.0970    0.0000 C   0  0  0  0  0  0  0  0  0  0  0  0
   -1.0451    0.8594    0.0000 C   0  0  0  0  0  0  0  0  0  0  0  0
   -1.7601   -0.4194    0.0000 C   0  0  0  0  0  0  0  0  0  0  0  0
   -2.4752    0.8456    0.0000 C   0  0  0  0  0  0  0  0  0  0  0  0
   -1.7464    2.0832    0.0000 C   0  0  0  0  0  0  0  0  0  0  0  0
   -2.4614    1.6845    0.0000 C   0  0  0  0  0  0  0  0  0  0  0  0
   -2.4614   -0.8320    0.0000 C   0  0  0  0  0  0  0  0  0  0  0  0
   -1.0451   -0.8182    0.0000 C   0  0  0  0  0  0  0  0  0  0  0  0
    1.0313    2.1933    0.0000 C   0  0  0  0  0  0  0  0  0  0  0  0
    0.3987    0.8594    0.0000 C   0  0  0  0  0  0  0  0  0  0  0  0
   -1.7464   -2.0695    0.0000 C   0  0  0  0  0  0  0  0  0  0  0  0
   -2.4614   -1.6570    0.0000 C   0  0  0  0  0  0  0  0  0  0  0  0
   -1.0451   -1.6707    0.0000 C   0  0  0  0  0  0  0  0  0  0  0  0
   -3.0114    0.5157    0.0000 C   0  0  0  0  0  0  0  0  0  0  0  0
    1.8563    2.0145    0.0000 C   0  0  0  0  0  0  0  0  0  0  0  0
    1.0725    0.3232    0.0000 C   0  0  0  0  0  0  0  0  0  0  0  0
    1.8563    0.5157    0.0000 C   0  0  0  0  0  0  0  0  0  0  0  0
    3.0114    1.0519    0.0000 C   0  0  0  0  0  0  0  0  0  0  0  0
  1  7  2  0  0  0  0
  2 17  1  0  0  0  0
  3  7  1  0  0  0  0
  3 15  1  0  0  0  0
  3 16  1  0  0  0  0
  4 21  1  0  0  0  0
  4 23  1  0  0  0  0
  4 24  1  0  0  0  0
  5  8  2  0  0  0  0
  5  9  1  0  0  0  0
  5 10  1  0  0  0  0
  6  7  1  0  0  0  0
  6  8  1  0  0  0  0
  6 11  2  0  0  0  0
  9 13  2  0  0  0  0
  9 14  1  0  0  0  0
 10 12  2  0  0  0  0
 10 20  1  0  0  0  0
 11 12  1  0  0  0  0
 13 18  1  0  0  0  0
 14 19  2  0  0  0  0
 15 21  1  0  0  0  0
 16 22  1  0  0  0  0
 17 18  2  0  0  0  0
 17 19  1  0  0  0  0
 22 23  1  0  0  0  0
M  END
> <PUBCHEM_COMPOUND_ID_TYPE>
0

> <PUBCHEM_TOTAL_CHARGE>
0

> <PUBCHEM_SUBSTANCE_ID>
310943469

> <PUBCHEM_SUBSTANCE_VERSION>
1

> <PUBCHEM_EXT_DATASOURCE_NAME>
4488

> <PUBCHEM_EXT_DATASOURCE_REGID>
SCHEMBL16121534

> <PUBCHEM_SUBSTANCE_COMMENT>
InChI=1S/C20H24N2O2/c1-15-4-5-17(14-19(15)16-6-8-18(23)9-7-16)20(24)22-11-3-10-21(2)12-13-22/h4-9,14,23H,3,10-13H2,1-2H3
InChIKey=DQHKLIXQTWXBLG-UHFFFAOYSA-N

> <PUBCHEM_SUBSTANCE_SYNONYM>
SCHEMBL16121534

> <PUBCHEM_XREF_EXT_ID>
SCHEMBL16121534

> <PUBCHEM_EXT_DATASOURCE_URL>
https://www.surechembl.org/

> <PUBCHEM_EXT_SUBSTANCE_URL>
https://www.surechembl.org/chemical/SCHEMBL16121534

> <PUBCHEM_CID_ASSOCIATIONS>
117609892  1

> <PUBCHEM_COORDINATE_TYPE>
1
3

$$$$
