310946673
  -OEChem-07211613022D

 29 33  0     1  0  0  0  0  0999 V2000
    1.9773    2.0324    0.0000 Cl  0  0  0  0  0  0  0  0  0  0  0  0
   -1.8800    2.7469    0.0000 O   0  0  0  0  0  0  0  0  0  0  0  0
    0.6674   -1.4929    0.0000 O   0  0  0  0  0  0  0  0  0  0  0  0
    0.6674    1.3650    0.0000 N   0  0  0  0  0  0  0  0  0  0  0  0
   -0.5701    0.6505    0.0000 N   0  0  0  0  0  0  0  0  0  0  0  0
   -0.5701    2.0795    0.0000 N   0  0  0  0  0  0  0  0  0  0  0  0
    2.3898   -0.0169    0.0000 N   0  0  0  0  0  0  0  0  0  0  0  0
   -1.8800    1.4120    0.0000 N   0  0  0  0  0  0  0  0  0  0  0  0
    1.9049   -0.7784    0.0000 N   0  0  0  0  0  0  0  0  0  0  0  0
    1.0799    0.6505    0.0000 C   0  0  3  0  0  0  0  0  0  0  0  0
    0.6674   -0.0640    0.0000 C   0  0  0  0  0  0  0  0  0  0  0  0
    1.9049    0.6505    0.0000 C   0  0  0  0  0  0  0  0  0  0  0  0
   -0.1576   -0.0640    0.0000 C   0  0  0  0  0  0  0  0  0  0  0  0
   -0.1576    1.3650    0.0000 C   0  0  0  0  0  0  0  0  0  0  0  0
    1.0799   -0.7784    0.0000 C   0  0  0  0  0  0  0  0  0  0  0  0
   -1.3951    2.0795    0.0000 C   0  0  0  0  0  0  0  0  0  0  0  0
    2.3898    1.3180    0.0000 C   0  0  0  0  0  0  0  0  0  0  0  0
   -2.6646    2.4920    0.0000 C   0  0  0  0  0  0  0  0  0  0  0  0
   -2.6646    1.6670    0.0000 C   0  0  0  0  0  0  0  0  0  0  0  0
    2.3174   -1.4929    0.0000 C   0  0  0  0  0  0  0  0  0  0  0  0
    3.1745    1.0630    0.0000 C   0  0  0  0  0  0  0  0  0  0  0  0
    3.1745    0.2380    0.0000 C   0  0  0  0  0  0  0  0  0  0  0  0
   -0.5701   -0.7784    0.0000 C   0  0  0  0  0  0  0  0  0  0  0  0
   -3.3791    2.9045    0.0000 C   0  0  0  0  0  0  0  0  0  0  0  0
   -3.3791    1.2545    0.0000 C   0  0  0  0  0  0  0  0  0  0  0  0
    2.3174   -2.3179    0.0000 C   0  0  0  0  0  0  0  0  0  0  0  0
    3.0319   -1.9054    0.0000 C   0  0  0  0  0  0  0  0  0  0  0  0
   -4.0936    2.4920    0.0000 C   0  0  0  0  0  0  0  0  0  0  0  0
   -4.0936    1.6670    0.0000 C   0  0  0  0  0  0  0  0  0  0  0  0
  1 17  1  0  0  0  0
  2 16  1  0  0  0  0
  2 18  1  0  0  0  0
  3 15  2  0  0  0  0
  4 10  1  0  0  0  0
  4 14  2  0  0  0  0
  5 13  1  0  0  0  0
  5 14  1  0  0  0  0
  6 14  1  0  0  0  0
  6 16  1  0  0  0  0
  7 12  2  0  0  0  0
  7 22  1  0  0  0  0
  8 16  2  0  0  0  0
  8 19  1  0  0  0  0
  9 15  1  0  0  0  0
  9 20  1  0  0  0  0
 10 11  1  0  0  0  0
 10 12  1  0  0  0  0
 11 13  2  0  0  0  0
 11 15  1  0  0  0  0
 12 17  1  0  0  0  0
 13 23  1  0  0  0  0
 17 21  2  0  0  0  0
 18 19  1  0  0  0  0
 18 24  2  0  0  0  0
 19 25  2  0  0  0  0
 20 26  1  0  0  0  0
 20 27  1  0  0  0  0
 21 22  1  0  0  0  0
 24 28  1  0  0  0  0
 25 29  1  0  0  0  0
 26 27  1  0  0  0  0
 28 29  2  0  0  0  0
M  END
> <PUBCHEM_COMPOUND_ID_TYPE>
0

> <PUBCHEM_TOTAL_CHARGE>
0

> <PUBCHEM_SUBSTANCE_ID>
310946673

> <PUBCHEM_SUBSTANCE_VERSION>
1

> <PUBCHEM_EXT_DATASOURCE_NAME>
4488

> <PUBCHEM_EXT_DATASOURCE_REGID>
SCHEMBL16124794

> <PUBCHEM_SUBSTANCE_COMMENT>
InChI=1S/C20H19ClN6O2/c1-10-15(18(28)24-11-6-7-11)17(16-12(21)8-9-22-16)26-19(23-10)27-20-25-13-4-2-3-5-14(13)29-20/h2-5,8,11,17H,6-7,9H2,1H3,(H,24,28)(H2,23,25,26,27)
InChIKey=HDLSPTQKJJLEGA-UHFFFAOYSA-N

> <PUBCHEM_SUBSTANCE_SYNONYM>
SCHEMBL16124794

> <PUBCHEM_XREF_EXT_ID>
SCHEMBL16124794

> <PUBCHEM_EXT_DATASOURCE_URL>
https://www.surechembl.org/

> <PUBCHEM_EXT_SUBSTANCE_URL>
https://www.surechembl.org/chemical/SCHEMBL16124794

> <PUBCHEM_CID_ASSOCIATIONS>
117612571  1

> <PUBCHEM_COORDINATE_TYPE>
1
3

$$$$
