310947730
  -OEChem-07211613022D

 20 21  0     1  0  0  0  0  0999 V2000
   -2.9855   -0.7795    0.0000 Cl  0  0  0  0  0  0  0  0  0  0  0  0
   -0.7773    1.6728    0.0000 O   0  0  0  0  0  0  0  0  0  0  0  0
   -1.8564   -1.7900    0.0000 N   0  0  0  0  0  0  0  0  0  0  0  0
   -1.3715   -2.4575    0.0000 N   0  0  0  0  0  0  0  0  0  0  0  0
   -2.1363    1.2313    0.0000 N   0  0  0  0  0  0  0  0  0  0  0  0
    0.8420   -1.3775    0.0000 N   0  0  3  0  0  0  0  0  0  0  0  0
    2.9855   -0.9650    0.0000 N   0  0  0  0  0  0  0  0  0  0  0  0
   -1.3715   -1.1226    0.0000 C   0  0  0  0  0  0  0  0  0  0  0  0
   -1.6265   -0.3380    0.0000 C   0  0  0  0  0  0  0  0  0  0  0  0
   -0.5869   -1.3775    0.0000 C   0  0  0  0  0  0  0  0  0  0  0  0
   -2.4334   -0.1664    0.0000 C   0  0  0  0  0  0  0  0  0  0  0  0
   -1.0744    0.2751    0.0000 C   0  0  0  0  0  0  0  0  0  0  0  0
   -1.3294    1.0597    0.0000 C   0  0  0  0  0  0  0  0  0  0  0  0
   -0.5869   -2.2025    0.0000 C   0  0  0  0  0  0  0  0  0  0  0  0
    0.1276   -0.9650    0.0000 C   0  0  0  0  0  0  0  0  0  0  0  0
   -2.6884    0.6182    0.0000 C   0  0  0  0  0  0  0  0  0  0  0  0
    1.5565   -0.9650    0.0000 C   0  0  0  0  0  0  0  0  0  0  0  0
    0.8420   -2.2025    0.0000 C   0  0  0  0  0  0  0  0  0  0  0  0
   -1.0323    2.4575    0.0000 C   0  0  0  0  0  0  0  0  0  0  0  0
    2.2710   -1.3775    0.0000 C   0  0  0  0  0  0  0  0  0  0  0  0
  1 11  1  0  0  0  0
  2 13  1  0  0  0  0
  2 19  1  0  0  0  0
  3  4  1  0  0  0  0
  3  8  2  0  0  0  0
  4 14  1  0  0  0  0
  5 13  1  0  0  0  0
  5 16  2  0  0  0  0
  6 15  1  0  0  0  0
  6 17  1  0  0  0  0
  6 18  1  0  0  0  0
  7 20  1  0  0  0  0
  8  9  1  0  0  0  0
  8 10  1  0  0  0  0
  9 11  2  0  0  0  0
  9 12  1  0  0  0  0
 10 14  2  0  0  0  0
 10 15  1  0  0  0  0
 11 16  1  0  0  0  0
 12 13  2  0  0  0  0
 17 20  1  0  0  0  0
M  END
> <PUBCHEM_COMPOUND_ID_TYPE>
0

> <PUBCHEM_TOTAL_CHARGE>
0

> <PUBCHEM_SUBSTANCE_ID>
310947730

> <PUBCHEM_SUBSTANCE_VERSION>
1

> <PUBCHEM_EXT_DATASOURCE_NAME>
4488

> <PUBCHEM_EXT_DATASOURCE_REGID>
SCHEMBL16125902

> <PUBCHEM_SUBSTANCE_COMMENT>
InChI=1S/C13H18ClN5O/c1-19(4-3-15)8-9-6-17-18-13(9)10-5-12(20-2)16-7-11(10)14/h5-7H,3-4,8,15H2,1-2H3,(H,17,18)
InChIKey=NYWVZJOWSKHVBG-UHFFFAOYSA-N

> <PUBCHEM_SUBSTANCE_SYNONYM>
SCHEMBL16125902

> <PUBCHEM_XREF_EXT_ID>
SCHEMBL16125902

> <PUBCHEM_EXT_DATASOURCE_URL>
https://www.surechembl.org/

> <PUBCHEM_EXT_SUBSTANCE_URL>
https://www.surechembl.org/chemical/SCHEMBL16125902

> <PUBCHEM_CID_ASSOCIATIONS>
86301525  1

> <PUBCHEM_COORDINATE_TYPE>
1
3

$$$$
