310946543
  -OEChem-07211613022D

 15 14  0     1  0  0  0  0  0999 V2000
   -7.8153   15.9214    0.0000 O   0  0  0  0  0  0  0  0  0  0  0  0
   -7.8153   13.4464    0.0000 O   0  0  0  0  0  0  0  0  0  0  0  0
   -7.1008   14.6839    0.0000 O   0  0  0  0  0  0  0  0  0  0  0  0
   -8.5298   17.1589    0.0000 O   0  0  0  0  0  0  0  0  0  0  0  0
   -9.2442   14.2714    0.0000 N   0  0  0  0  0  0  0  0  0  0  0  0
   -8.5298   14.6839    0.0000 C   0  0  3  0  0  0  0  0  0  0  0  0
   -7.8153   14.2714    0.0000 C   0  0  0  0  0  0  0  0  0  0  0  0
   -8.5298   15.5089    0.0000 C   0  0  0  0  0  0  0  0  0  0  0  0
   -7.8153   16.7464    0.0000 C   0  0  0  0  0  0  0  0  0  0  0  0
   -7.1008   17.1589    0.0000 C   0  0  0  0  0  0  0  0  0  0  0  0
   -6.3863   16.7464    0.0000 C   0  0  0  0  0  0  0  0  0  0  0  0
   -5.6719   17.1589    0.0000 C   0  0  0  0  0  0  0  0  0  0  0  0
   -4.9574   16.7464    0.0000 C   0  0  0  0  0  0  0  0  0  0  0  0
   -4.2429   17.1589    0.0000 C   0  0  0  0  0  0  0  0  0  0  0  0
   -3.5285   16.7464    0.0000 C   0  0  0  0  0  0  0  0  0  0  0  0
  1  8  1  0  0  0  0
  1  9  1  0  0  0  0
  2  7  2  0  0  0  0
  3  7  1  0  0  0  0
  4  9  2  0  0  0  0
  5  6  1  0  0  0  0
  6  7  1  0  0  0  0
  6  8  1  0  0  0  0
  9 10  1  0  0  0  0
 10 11  1  0  0  0  0
 11 12  1  0  0  0  0
 12 13  1  0  0  0  0
 13 14  1  0  0  0  0
 14 15  1  0  0  0  0
M  END
> <PUBCHEM_COMPOUND_ID_TYPE>
0

> <PUBCHEM_TOTAL_CHARGE>
0

> <PUBCHEM_SUBSTANCE_ID>
310946543

> <PUBCHEM_SUBSTANCE_VERSION>
1

> <PUBCHEM_EXT_DATASOURCE_NAME>
4488

> <PUBCHEM_EXT_DATASOURCE_REGID>
SCHEMBL16124664

> <PUBCHEM_SUBSTANCE_COMMENT>
InChI=1S/C10H19NO4/c1-2-3-4-5-6-9(12)15-7-8(11)10(13)14/h8H,2-7,11H2,1H3,(H,13,14)
InChIKey=GVRUWNWFHCZBLW-UHFFFAOYSA-N

> <PUBCHEM_SUBSTANCE_SYNONYM>
SCHEMBL16124664

> <PUBCHEM_XREF_EXT_ID>
SCHEMBL16124664

> <PUBCHEM_EXT_DATASOURCE_URL>
https://www.surechembl.org/

> <PUBCHEM_EXT_SUBSTANCE_URL>
https://www.surechembl.org/chemical/SCHEMBL16124664

> <PUBCHEM_CID_ASSOCIATIONS>
117612448  1

> <PUBCHEM_COORDINATE_TYPE>
1
3

$$$$
