310939638
  -OEChem-07211613022D

 38 41  0     1  0  0  0  0  0999 V2000
    3.5707    2.3977    0.0000 O   0  0  0  0  0  0  0  0  0  0  0  0
    2.1417    1.5727    0.0000 O   0  0  0  0  0  0  0  0  0  0  0  0
   -1.4306    6.1102    0.0000 O   0  0  0  0  0  0  0  0  0  0  0  0
    2.8562    8.5852    0.0000 O   0  0  0  0  0  0  0  0  0  0  0  0
   -2.8596    5.2852    0.0000 O   0  0  0  0  0  0  0  0  0  0  0  0
    1.4273    5.2852    0.0000 N   0  0  0  0  0  0  0  0  0  0  0  0
    2.1417    6.5227    0.0000 N   0  0  0  0  0  0  0  0  0  0  0  0
    3.5707    6.5227    0.0000 N   0  0  0  0  0  0  0  0  0  0  0  0
   -4.2885    6.1102    0.0000 N   0  0  0  0  0  0  0  0  0  0  0  0
    2.1417    4.8727    0.0000 C   0  0  0  0  0  0  0  0  0  0  0  0
    2.1417    4.0477    0.0000 C   0  0  0  0  0  0  0  0  0  0  0  0
    1.4273    6.1102    0.0000 C   0  0  0  0  0  0  0  0  0  0  0  0
    2.8562    6.1102    0.0000 C   0  0  0  0  0  0  0  0  0  0  0  0
    2.8562    5.2852    0.0000 C   0  0  0  0  0  0  0  0  0  0  0  0
    0.7128    6.5227    0.0000 C   0  0  0  0  0  0  0  0  0  0  0  0
    2.8562    2.8102    0.0000 C   0  0  0  0  0  0  0  0  0  0  0  0
    2.8562    3.6352    0.0000 C   0  0  0  0  0  0  0  0  0  0  0  0
    2.1417    2.3977    0.0000 C   0  0  0  0  0  0  0  0  0  0  0  0
    1.4273    3.6352    0.0000 C   0  0  0  0  0  0  0  0  0  0  0  0
    1.4273    2.8102    0.0000 C   0  0  0  0  0  0  0  0  0  0  0  0
   -0.0017    6.1102    0.0000 C   0  0  0  0  0  0  0  0  0  0  0  0
    0.7128    7.3477    0.0000 C   0  0  0  0  0  0  0  0  0  0  0  0
   -0.7162    6.5227    0.0000 C   0  0  0  0  0  0  0  0  0  0  0  0
    3.5707    7.3477    0.0000 C   0  0  0  0  0  0  0  0  0  0  0  0
    4.2851    6.1102    0.0000 C   0  0  0  0  0  0  0  0  0  0  0  0
   -0.0017    7.7602    0.0000 C   0  0  0  0  0  0  0  0  0  0  0  0
   -0.7162    7.3477    0.0000 C   0  0  0  0  0  0  0  0  0  0  0  0
    3.5707    1.5727    0.0000 C   0  0  0  0  0  0  0  0  0  0  0  0
    2.8562    1.1602    0.0000 C   0  0  0  0  0  0  0  0  0  0  0  0
    2.8562    7.7602    0.0000 C   0  0  0  0  0  0  0  0  0  0  0  0
    4.2851    5.2852    0.0000 C   0  0  0  0  0  0  0  0  0  0  0  0
   -2.1451    6.5227    0.0000 C   0  0  0  0  0  0  0  0  0  0  0  0
   -2.8596    6.1102    0.0000 C   0  0  3  0  0  0  0  0  0  0  0  0
    4.9996    4.8727    0.0000 C   0  0  0  0  0  0  0  0  0  0  0  0
   -3.5740    6.5227    0.0000 C   0  0  0  0  0  0  0  0  0  0  0  0
    2.1417    8.9977    0.0000 C   0  0  0  0  0  0  0  0  0  0  0  0
    4.9996    4.0477    0.0000 C   0  0  0  0  0  0  0  0  0  0  0  0
   -5.0030    6.5227    0.0000 C   0  0  0  0  0  0  0  0  0  0  0  0
  1 16  1  0  0  0  0
  1 28  1  0  0  0  0
  2 18  1  0  0  0  0
  2 29  1  0  0  0  0
  3 23  1  0  0  0  0
  3 32  1  0  0  0  0
  4 30  1  0  0  0  0
  4 36  1  0  0  0  0
  5 33  1  0  0  0  0
  6 10  1  0  0  0  0
  6 12  2  0  0  0  0
  7 12  1  0  0  0  0
  7 13  2  0  0  0  0
  8 13  1  0  0  0  0
  8 24  1  0  0  0  0
  8 25  1  0  0  0  0
  9 35  1  0  0  0  0
  9 38  1  0  0  0  0
 10 11  1  0  0  0  0
 10 14  2  0  0  0  0
 11 17  1  0  0  0  0
 11 19  2  0  0  0  0
 12 15  1  0  0  0  0
 13 14  1  0  0  0  0
 15 21  2  0  0  0  0
 15 22  1  0  0  0  0
 16 17  2  0  0  0  0
 16 18  1  0  0  0  0
 18 20  2  0  0  0  0
 19 20  1  0  0  0  0
 21 23  1  0  0  0  0
 22 26  2  0  0  0  0
 23 27  2  0  0  0  0
 24 30  1  0  0  0  0
 25 31  1  0  0  0  0
 26 27  1  0  0  0  0
 28 29  1  0  0  0  0
 31 34  1  0  0  0  0
 32 33  1  0  0  0  0
 33 35  1  0  0  0  0
 34 37  1  0  0  0  0
M  END
> <PUBCHEM_COMPOUND_ID_TYPE>
0

> <PUBCHEM_TOTAL_CHARGE>
0

> <PUBCHEM_SUBSTANCE_ID>
310939638

> <PUBCHEM_SUBSTANCE_VERSION>
1

> <PUBCHEM_EXT_DATASOURCE_NAME>
4488

> <PUBCHEM_EXT_DATASOURCE_REGID>
SCHEMBL16117568

> <PUBCHEM_SUBSTANCE_COMMENT>
InChI=1S/C29H38N4O5/c1-4-5-11-33(12-13-35-3)28-18-25(21-9-10-26-27(17-21)37-15-14-36-26)31-29(32-28)22-7-6-8-24(16-22)38-20-23(34)19-30-2/h6-10,16-18,23,30,34H,4-5,11-15,19-20H2,1-3H3
InChIKey=LZSTUORGUWBMMN-UHFFFAOYSA-N

> <PUBCHEM_SUBSTANCE_SYNONYM>
SCHEMBL16117568

> <PUBCHEM_XREF_EXT_ID>
SCHEMBL16117568

> <PUBCHEM_EXT_DATASOURCE_URL>
https://www.surechembl.org/

> <PUBCHEM_EXT_SUBSTANCE_URL>
https://www.surechembl.org/chemical/SCHEMBL16117568

> <PUBCHEM_CID_ASSOCIATIONS>
117606877  1

> <PUBCHEM_COORDINATE_TYPE>
1
3

$$$$
