310935097
  -OEChem-07211613022D

 44 50  0     1  0  0  0  0  0999 V2000
    7.7752   -2.2744    0.0000 F   0  0  0  0  0  0  0  0  0  0  0  0
    7.6889   -3.0949    0.0000 F   0  0  0  0  0  0  0  0  0  0  0  0
    2.8579   -5.3625    0.0000 O   0  0  0  0  0  0  0  0  0  0  0  0
   -4.2868   -2.0625    0.0000 O   0  0  0  0  0  0  0  0  0  0  0  0
    0.7144   -1.6500    0.0000 N   0  0  3  0  0  0  0  0  0  0  0  0
    1.4290   -0.4125    0.0000 N   0  0  0  0  0  0  0  0  0  0  0  0
    0.7144    0.8250    0.0000 N   0  0  0  0  0  0  0  0  0  0  0  0
    3.5724   -4.1250    0.0000 N   0  0  0  0  0  0  0  0  0  0  0  0
    5.7158   -2.8875    0.0000 N   0  0  3  0  0  0  0  0  0  0  0  0
   -3.5724   -0.8250    0.0000 N   0  0  0  0  0  0  0  0  0  0  0  0
    0.0000   -0.4125    0.0000 C   0  0  0  0  0  0  0  0  0  0  0  0
    0.7144   -0.8250    0.0000 C   0  0  0  0  0  0  0  0  0  0  0  0
    0.0000    0.4125    0.0000 C   0  0  0  0  0  0  0  0  0  0  0  0
   -1.4290   -0.4125    0.0000 C   0  0  0  0  0  0  0  0  0  0  0  0
   -0.7144    0.8250    0.0000 C   0  0  0  0  0  0  0  0  0  0  0  0
   -0.7144   -0.8250    0.0000 C   0  0  0  0  0  0  0  0  0  0  0  0
    1.4290   -2.8875    0.0000 C   0  0  0  0  0  0  0  0  0  0  0  0
    0.7144   -3.3000    0.0000 C   0  0  0  0  0  0  0  0  0  0  0  0
    1.4290   -2.0625    0.0000 C   0  0  0  0  0  0  0  0  0  0  0  0
   -1.4290    0.4125    0.0000 C   0  0  0  0  0  0  0  0  0  0  0  0
    2.1434   -4.1250    0.0000 C   0  0  0  0  0  0  0  0  0  0  0  0
    0.0000   -2.0625    0.0000 C   0  0  0  0  0  0  0  0  0  0  0  0
   -2.1434   -0.8250    0.0000 C   0  0  0  0  0  0  0  0  0  0  0  0
    2.1434   -3.3000    0.0000 C   0  0  0  0  0  0  0  0  0  0  0  0
    0.0000   -2.8875    0.0000 C   0  0  0  0  0  0  0  0  0  0  0  0
    2.8579   -4.5375    0.0000 C   0  0  0  0  0  0  0  0  0  0  0  0
    1.4290    0.4125    0.0000 C   0  0  0  0  0  0  0  0  0  0  0  0
    0.7144   -4.1250    0.0000 C   0  0  0  0  0  0  0  0  0  0  0  0
    1.4290   -4.5375    0.0000 C   0  0  0  0  0  0  0  0  0  0  0  0
    5.0013   -3.3000    0.0000 C   0  0  0  0  0  0  0  0  0  0  0  0
    7.0215   -2.6099    0.0000 C   0  0  0  0  0  0  0  0  0  0  0  0
    6.4694   -3.2230    0.0000 C   0  0  0  0  0  0  0  0  0  0  0  0
   -0.7144    1.6500    0.0000 C   0  0  0  0  0  0  0  0  0  0  0  0
   -2.8579   -0.4125    0.0000 C   0  0  0  0  0  0  0  0  0  0  0  0
   -2.1434   -1.6500    0.0000 C   0  0  0  0  0  0  0  0  0  0  0  0
    4.2868   -4.5375    0.0000 C   0  0  0  0  0  0  0  0  0  0  0  0
    3.5724   -3.3000    0.0000 C   0  0  0  0  0  0  0  0  0  0  0  0
    5.0013   -4.1250    0.0000 C   0  0  0  0  0  0  0  0  0  0  0  0
    4.2868   -2.8875    0.0000 C   0  0  0  0  0  0  0  0  0  0  0  0
    5.8020   -2.0670    0.0000 C   0  0  0  0  0  0  0  0  0  0  0  0
    6.6090   -1.8955    0.0000 C   0  0  0  0  0  0  0  0  0  0  0  0
   -2.8579   -2.0625    0.0000 C   0  0  0  0  0  0  0  0  0  0  0  0
   -3.5724   -1.6500    0.0000 C   0  0  0  0  0  0  0  0  0  0  0  0
   -5.0013   -1.6500    0.0000 C   0  0  0  0  0  0  0  0  0  0  0  0
  1 31  1  0  0  0  0
  2 31  1  0  0  0  0
  3 26  2  0  0  0  0
  4 43  1  0  0  0  0
  4 44  1  0  0  0  0
  5 12  1  0  0  0  0
  5 19  1  0  0  0  0
  5 22  1  0  0  0  0
  6 12  1  0  0  0  0
  6 27  2  0  0  0  0
  7 13  2  0  0  0  0
  7 27  1  0  0  0  0
  8 26  1  0  0  0  0
  8 36  1  0  0  0  0
  8 37  1  0  0  0  0
  9 30  1  0  0  0  0
  9 32  1  0  0  0  0
  9 40  1  0  0  0  0
 10 34  2  0  0  0  0
 10 43  1  0  0  0  0
 11 12  2  0  0  0  0
 11 13  1  0  0  0  0
 11 16  1  0  0  0  0
 13 15  1  0  0  0  0
 14 16  2  0  0  0  0
 14 20  1  0  0  0  0
 14 23  1  0  0  0  0
 15 20  2  0  0  0  0
 15 33  1  0  0  0  0
 17 18  2  0  0  0  0
 17 19  1  0  0  0  0
 17 24  1  0  0  0  0
 18 25  1  0  0  0  0
 18 28  1  0  0  0  0
 21 24  2  0  0  0  0
 21 26  1  0  0  0  0
 21 29  1  0  0  0  0
 22 25  1  0  0  0  0
 23 34  1  0  0  0  0
 23 35  2  0  0  0  0
 28 29  2  0  0  0  0
 30 38  1  0  0  0  0
 30 39  1  0  0  0  0
 31 32  1  0  0  0  0
 31 41  1  0  0  0  0
 35 42  1  0  0  0  0
 36 38  1  0  0  0  0
 37 39  1  0  0  0  0
 40 41  1  0  0  0  0
 42 43  2  0  0  0  0
M  END
> <PUBCHEM_COMPOUND_ID_TYPE>
0

> <PUBCHEM_TOTAL_CHARGE>
0

> <PUBCHEM_SUBSTANCE_ID>
310935097

> <PUBCHEM_SUBSTANCE_VERSION>
1

> <PUBCHEM_EXT_DATASOURCE_NAME>
4488

> <PUBCHEM_EXT_DATASOURCE_REGID>
SCHEMBL16112624

> <PUBCHEM_SUBSTANCE_COMMENT>
InChI=1S/C34H36F2N6O2/c1-22-15-26(25-5-6-30(44-2)37-18-25)17-29-31(22)38-21-39-32(29)41-11-7-23-3-4-24(16-27(23)19-41)33(43)40-12-8-28(9-13-40)42-14-10-34(35,36)20-42/h3-6,15-18,21,28H,7-14,19-20H2,1-2H3
InChIKey=BRLGEYJTEPWUDV-UHFFFAOYSA-N

> <PUBCHEM_SUBSTANCE_SYNONYM>
SCHEMBL16112624

> <PUBCHEM_XREF_EXT_ID>
SCHEMBL16112624

> <PUBCHEM_EXT_DATASOURCE_URL>
https://www.surechembl.org/

> <PUBCHEM_EXT_SUBSTANCE_URL>
https://www.surechembl.org/chemical/SCHEMBL16112624

> <PUBCHEM_CID_ASSOCIATIONS>
117603190  1

> <PUBCHEM_COORDINATE_TYPE>
1
3

$$$$
