310947878
  -OEChem-07211613022D

 27 30  0     1  0  0  0  0  0999 V2000
    1.0603    0.2179    0.0000 F   0  0  0  0  0  0  0  0  0  0  0  0
    2.0707   -0.3655    0.0000 F   0  0  0  0  0  0  0  0  0  0  0  0
    2.6541    0.6450    0.0000 F   0  0  0  0  0  0  0  0  0  0  0  0
   -0.5452   -2.7976    0.0000 O   0  0  0  0  0  0  0  0  0  0  0  0
    0.1693    0.9149    0.0000 N   0  0  0  0  0  0  0  0  0  0  0  0
    2.1957    1.8414    0.0000 N   0  0  0  0  0  0  0  0  0  0  0  0
   -0.5452   -1.1476    0.0000 N   0  0  0  0  0  0  0  0  0  0  0  0
    0.8367    1.3999    0.0000 C   0  0  0  0  0  0  0  0  0  0  0  0
    0.5818    2.1845    0.0000 C   0  0  0  0  0  0  0  0  0  0  0  0
   -0.4982    1.3999    0.0000 C   0  0  0  0  0  0  0  0  0  0  0  0
   -0.2432    2.1845    0.0000 C   0  0  0  0  0  0  0  0  0  0  0  0
    1.6437    1.2283    0.0000 C   0  0  0  0  0  0  0  0  0  0  0  0
    1.8572    0.4314    0.0000 C   0  0  0  0  0  0  0  0  0  0  0  0
    1.1338    2.7976    0.0000 C   0  0  0  0  0  0  0  0  0  0  0  0
    0.1693    0.0899    0.0000 C   0  0  0  0  0  0  0  0  0  0  0  0
   -1.3052    1.2283    0.0000 C   0  0  0  0  0  0  0  0  0  0  0  0
   -0.7953    2.7976    0.0000 C   0  0  0  0  0  0  0  0  0  0  0  0
    1.9408    2.6260    0.0000 C   0  0  0  0  0  0  0  0  0  0  0  0
   -1.8572    1.8414    0.0000 C   0  0  0  0  0  0  0  0  0  0  0  0
   -0.5452   -0.3226    0.0000 C   0  0  3  0  0  0  0  0  0  0  0  0
   -1.6023    2.6260    0.0000 C   0  0  0  0  0  0  0  0  0  0  0  0
   -2.6541    1.6279    0.0000 C   0  0  0  0  0  0  0  0  0  0  0  0
   -1.2597    0.0899    0.0000 C   0  0  0  0  0  0  0  0  0  0  0  0
   -1.2597   -1.5601    0.0000 C   0  0  0  0  0  0  0  0  0  0  0  0
    0.1693   -1.5601    0.0000 C   0  0  0  0  0  0  0  0  0  0  0  0
   -1.2597   -2.3851    0.0000 C   0  0  0  0  0  0  0  0  0  0  0  0
    0.1693   -2.3851    0.0000 C   0  0  0  0  0  0  0  0  0  0  0  0
  1 13  1  0  0  0  0
  2 13  1  0  0  0  0
  3 13  1  0  0  0  0
  4 26  1  0  0  0  0
  4 27  1  0  0  0  0
  5  8  1  0  0  0  0
  5 10  1  0  0  0  0
  5 15  1  0  0  0  0
  6 12  2  0  0  0  0
  6 18  1  0  0  0  0
  7 20  1  0  0  0  0
  7 24  1  0  0  0  0
  7 25  1  0  0  0  0
  8  9  2  0  0  0  0
  8 12  1  0  0  0  0
  9 11  1  0  0  0  0
  9 14  1  0  0  0  0
 10 11  1  0  0  0  0
 10 16  2  0  0  0  0
 11 17  2  0  0  0  0
 12 13  1  0  0  0  0
 14 18  2  0  0  0  0
 15 20  1  0  0  0  0
 16 19  1  0  0  0  0
 17 21  1  0  0  0  0
 19 21  2  0  0  0  0
 19 22  1  0  0  0  0
 20 23  1  0  0  0  0
 24 26  1  0  0  0  0
 25 27  1  0  0  0  0
M  END
> <PUBCHEM_COMPOUND_ID_TYPE>
0

> <PUBCHEM_TOTAL_CHARGE>
0

> <PUBCHEM_SUBSTANCE_ID>
310947878

> <PUBCHEM_SUBSTANCE_VERSION>
1

> <PUBCHEM_EXT_DATASOURCE_NAME>
4488

> <PUBCHEM_EXT_DATASOURCE_REGID>
SCHEMBL16126052

> <PUBCHEM_SUBSTANCE_COMMENT>
InChI=1S/C20H22F3N3O/c1-13-3-4-15-16-5-6-24-19(20(21,22)23)18(16)26(17(15)11-13)12-14(2)25-7-9-27-10-8-25/h3-6,11,14H,7-10,12H2,1-2H3
InChIKey=FSHZCTLKJDDISU-UHFFFAOYSA-N

> <PUBCHEM_SUBSTANCE_SYNONYM>
SCHEMBL16126052

> <PUBCHEM_XREF_EXT_ID>
SCHEMBL16126052

> <PUBCHEM_EXT_DATASOURCE_URL>
https://www.surechembl.org/

> <PUBCHEM_EXT_SUBSTANCE_URL>
https://www.surechembl.org/chemical/SCHEMBL16126052

> <PUBCHEM_CID_ASSOCIATIONS>
117613542  1

> <PUBCHEM_COORDINATE_TYPE>
1
3

$$$$
