310941885
  -OEChem-07211613022D

 19 22  0     1  0  0  0  0  0999 V2000
    0.2200    0.9487    0.0000 Br  0  0  0  0  0  0  0  0  0  0  0  0
    3.5750   -0.3437    0.0000 Cl  0  0  0  0  0  0  0  0  0  0  0  0
    0.7425   -0.7150    0.0000 O   0  0  0  0  0  0  0  0  0  0  0  0
    2.7224    0.8113    0.0000 N   0  0  0  0  0  0  0  0  0  0  0  0
   -3.0387   -0.5775    0.0000 C   0  0  3  0  0  0  0  0  0  0  0  0
   -2.8187   -0.9350    0.0000 C   0  0  3  0  0  0  0  0  0  0  0  0
   -2.1450   -0.9625    0.0000 C   0  0  0  0  0  0  0  0  0  0  0  0
   -2.9150    0.0825    0.0000 C   0  0  0  0  0  0  0  0  0  0  0  0
   -3.5750   -1.1275    0.0000 C   0  0  0  0  0  0  0  0  0  0  0  0
   -1.4575   -0.5775    0.0000 C   0  0  0  0  0  0  0  0  0  0  0  0
   -2.2550    0.4675    0.0000 C   0  0  0  0  0  0  0  0  0  0  0  0
   -1.4438    0.2612    0.0000 C   0  0  0  0  0  0  0  0  0  0  0  0
   -0.6600   -0.8800    0.0000 C   0  0  0  0  0  0  0  0  0  0  0  0
    1.3887   -0.1925    0.0000 C   0  0  0  0  0  0  0  0  0  0  0  0
    1.2925    0.6325    0.0000 C   0  0  0  0  0  0  0  0  0  0  0  0
   -0.0138   -0.3850    0.0000 C   0  0  0  0  0  0  0  0  0  0  0  0
    2.1725   -0.5225    0.0000 C   0  0  0  0  0  0  0  0  0  0  0  0
    2.8049    0.0000    0.0000 C   0  0  0  0  0  0  0  0  0  0  0  0
    1.9525    1.1275    0.0000 C   0  0  0  0  0  0  0  0  0  0  0  0
  1 15  1  0  0  0  0
  2 18  1  0  0  0  0
  3 14  1  0  0  0  0
  3 16  1  0  0  0  0
  4 18  2  0  0  0  0
  4 19  1  0  0  0  0
  5  7  1  0  0  0  0
  5  8  1  0  0  0  0
  5  9  1  0  0  0  0
  6  7  1  0  0  0  0
  6  8  1  0  0  0  0
  6  9  1  0  0  0  0
  7 10  2  0  0  0  0
  8 11  2  0  0  0  0
 10 12  1  0  0  0  0
 10 13  1  0  0  0  0
 11 12  1  0  0  0  0
 13 16  1  0  0  0  0
 14 15  1  0  0  0  0
 14 17  2  0  0  0  0
 15 19  2  0  0  0  0
 17 18  1  0  0  0  0
M  END
> <PUBCHEM_COMPOUND_ID_TYPE>
0

> <PUBCHEM_TOTAL_CHARGE>
0

> <PUBCHEM_SUBSTANCE_ID>
310941885

> <PUBCHEM_SUBSTANCE_VERSION>
1

> <PUBCHEM_EXT_DATASOURCE_NAME>
4488

> <PUBCHEM_EXT_DATASOURCE_REGID>
SCHEMBL16119917

> <PUBCHEM_SUBSTANCE_COMMENT>
InChI=1S/C15H13BrClNO/c16-12-7-18-14(17)6-13(12)19-4-3-8-1-2-9-10-5-11(9)15(8)10/h2,6-7,10-11H,1,3-5H2
InChIKey=YRBCBDBCHZPDIO-UHFFFAOYSA-N

> <PUBCHEM_SUBSTANCE_SYNONYM>
SCHEMBL16119917

> <PUBCHEM_XREF_EXT_ID>
SCHEMBL16119917

> <PUBCHEM_EXT_DATASOURCE_URL>
https://www.surechembl.org/

> <PUBCHEM_EXT_SUBSTANCE_URL>
https://www.surechembl.org/chemical/SCHEMBL16119917

> <PUBCHEM_CID_ASSOCIATIONS>
117608621  1

> <PUBCHEM_COORDINATE_TYPE>
1
3

$$$$
