310946559
  -OEChem-07211613022D

 21 21  0     1  0  0  0  0  0999 V2000
    4.9552  -11.7708    0.0000 O   0  0  0  0  0  0  0  0  0  0  0  0
    3.5263  -11.7708    0.0000 O   0  0  0  0  0  0  0  0  0  0  0  0
    3.8709  -15.2135    0.0000 O   0  0  0  0  0  0  0  0  0  0  0  0
    3.1564  -13.9760    0.0000 O   0  0  0  0  0  0  0  0  0  0  0  0
    4.2407  -13.0083    0.0000 N   0  0  0  0  0  0  0  0  0  0  0  0
    5.1687  -10.9739    0.0000 C   0  0  0  0  0  0  0  0  0  0  0  0
    4.4543  -13.8051    0.0000 C   0  0  3  0  0  0  0  0  0  0  0  0
    4.2407  -12.1833    0.0000 C   0  0  0  0  0  0  0  0  0  0  0  0
    6.1791   -9.9635    0.0000 C   0  0  0  0  0  0  0  0  0  0  0  0
    5.9656  -10.7603    0.0000 C   0  0  0  0  0  0  0  0  0  0  0  0
    3.8709  -14.3885    0.0000 C   0  0  0  0  0  0  0  0  0  0  0  0
    4.5854  -10.3905    0.0000 C   0  0  0  0  0  0  0  0  0  0  0  0
    5.2511  -14.0187    0.0000 C   0  0  0  0  0  0  0  0  0  0  0  0
    5.5958   -9.3801    0.0000 C   0  0  0  0  0  0  0  0  0  0  0  0
    4.7989   -9.5936    0.0000 C   0  0  0  0  0  0  0  0  0  0  0  0
    5.8345  -13.4353    0.0000 C   0  0  0  0  0  0  0  0  0  0  0  0
    6.9760   -9.7499    0.0000 C   0  0  0  0  0  0  0  0  0  0  0  0
    7.1896   -8.9530    0.0000 C   0  0  0  0  0  0  0  0  0  0  0  0
    5.8345  -12.6103    0.0000 C   0  0  0  0  0  0  0  0  0  0  0  0
    6.5490  -13.8478    0.0000 C   0  0  0  0  0  0  0  0  0  0  0  0
    7.9864   -8.7395    0.0000 C   0  0  0  0  0  0  0  0  0  0  0  0
  1  6  1  0  0  0  0
  1  8  1  0  0  0  0
  2  8  2  0  0  0  0
  3 11  2  0  0  0  0
  4 11  1  0  0  0  0
  5  7  1  0  0  0  0
  5  8  1  0  0  0  0
  6 10  2  0  0  0  0
  6 12  1  0  0  0  0
  7 11  1  0  0  0  0
  7 13  1  0  0  0  0
  9 10  1  0  0  0  0
  9 14  2  0  0  0  0
  9 17  1  0  0  0  0
 12 15  2  0  0  0  0
 13 16  1  0  0  0  0
 14 15  1  0  0  0  0
 16 19  1  0  0  0  0
 16 20  1  0  0  0  0
 17 18  1  0  0  0  0
 18 21  1  0  0  0  0
M  END
> <PUBCHEM_COMPOUND_ID_TYPE>
0

> <PUBCHEM_TOTAL_CHARGE>
0

> <PUBCHEM_SUBSTANCE_ID>
310946559

> <PUBCHEM_SUBSTANCE_VERSION>
1

> <PUBCHEM_EXT_DATASOURCE_NAME>
4488

> <PUBCHEM_EXT_DATASOURCE_REGID>
SCHEMBL16124680

> <PUBCHEM_SUBSTANCE_COMMENT>
InChI=1S/C16H23NO4/c1-4-6-12-7-5-8-13(10-12)21-16(20)17-14(15(18)19)9-11(2)3/h5,7-8,10-11,14H,4,6,9H2,1-3H3,(H,17,20)(H,18,19)
InChIKey=DIYCLIHRSXCXSA-UHFFFAOYSA-N

> <PUBCHEM_SUBSTANCE_SYNONYM>
SCHEMBL16124680

> <PUBCHEM_XREF_EXT_ID>
SCHEMBL16124680

> <PUBCHEM_EXT_DATASOURCE_URL>
https://www.surechembl.org/

> <PUBCHEM_EXT_SUBSTANCE_URL>
https://www.surechembl.org/chemical/SCHEMBL16124680

> <PUBCHEM_CID_ASSOCIATIONS>
117612461  1

> <PUBCHEM_COORDINATE_TYPE>
1
3

$$$$
