310934718
  -OEChem-07211613022D

 23 26  0     1  0  0  0  0  0999 V2000
    1.4977    0.0000    0.0000 O   0  0  0  0  0  0  0  0  0  0  0  0
    0.0000   -0.6682    0.0000 O   0  0  0  0  0  0  0  0  0  0  0  0
    2.0738   -2.1199    0.0000 N   0  0  0  0  0  0  0  0  0  0  0  0
    2.8572   -2.3734    0.0000 N   0  0  0  0  0  0  0  0  0  0  0  0
    5.4380   -2.1199    0.0000 N   0  0  3  0  0  0  0  0  0  0  0  0
    0.6451   -1.1521    0.0000 N   0  0  0  0  0  0  0  0  0  0  0  0
    3.3411   -1.7051    0.0000 C   0  0  0  0  0  0  0  0  0  0  0  0
    2.0738   -1.2904    0.0000 C   0  0  0  0  0  0  0  0  0  0  0  0
    4.1476   -1.7051    0.0000 C   0  0  3  0  0  0  0  0  0  0  0  0
    2.8572   -1.0369    0.0000 C   0  0  0  0  0  0  0  0  0  0  0  0
    1.4056   -2.5807    0.0000 C   0  0  0  0  0  0  0  0  0  0  0  0
    4.6545   -2.3734    0.0000 C   0  0  0  0  0  0  0  0  0  0  0  0
    6.0831   -2.6038    0.0000 C   0  0  0  0  0  0  0  0  0  0  0  0
    1.4056   -0.8065    0.0000 C   0  0  0  0  0  0  0  0  0  0  0  0
    4.6545   -1.0369    0.0000 C   0  0  0  0  0  0  0  0  0  0  0  0
    5.4380   -1.2904    0.0000 C   0  0  0  0  0  0  0  0  0  0  0  0
    6.9126   -2.6960    0.0000 C   0  0  0  0  0  0  0  0  0  0  0  0
    6.4288   -3.3642    0.0000 C   0  0  0  0  0  0  0  0  0  0  0  0
    1.4977   -3.4103    0.0000 C   0  0  0  0  0  0  0  0  0  0  0  0
    0.6451   -2.2581    0.0000 C   0  0  0  0  0  0  0  0  0  0  0  0
    0.8295   -3.8941    0.0000 C   0  0  0  0  0  0  0  0  0  0  0  0
    0.0000   -2.7189    0.0000 C   0  0  0  0  0  0  0  0  0  0  0  0
    0.0691   -3.5485    0.0000 C   0  0  0  0  0  0  0  0  0  0  0  0
  1 14  2  0  0  0  0
  2  6  1  0  0  0  0
  3  4  1  0  0  0  0
  3  8  1  0  0  0  0
  3 11  1  0  0  0  0
  4  7  2  0  0  0  0
  5 12  1  0  0  0  0
  5 13  1  0  0  0  0
  5 16  1  0  0  0  0
  6 14  1  0  0  0  0
  7  9  1  0  0  0  0
  7 10  1  0  0  0  0
  8 10  2  0  0  0  0
  8 14  1  0  0  0  0
  9 12  1  0  0  0  0
  9 15  1  0  0  0  0
 11 19  2  0  0  0  0
 11 20  1  0  0  0  0
 13 17  1  0  0  0  0
 13 18  1  0  0  0  0
 15 16  1  0  0  0  0
 17 18  1  0  0  0  0
 19 21  1  0  0  0  0
 20 22  2  0  0  0  0
 21 23  2  0  0  0  0
 22 23  1  0  0  0  0
M  END
> <PUBCHEM_COMPOUND_ID_TYPE>
0

> <PUBCHEM_TOTAL_CHARGE>
0

> <PUBCHEM_SUBSTANCE_ID>
310934718

> <PUBCHEM_SUBSTANCE_VERSION>
1

> <PUBCHEM_EXT_DATASOURCE_NAME>
4488

> <PUBCHEM_EXT_DATASOURCE_REGID>
SCHEMBL16112219

> <PUBCHEM_SUBSTANCE_COMMENT>
InChI=1S/C17H20N4O2/c22-17(19-23)16-10-15(12-8-9-20(11-12)13-6-7-13)18-21(16)14-4-2-1-3-5-14/h1-5,10,12-13,23H,6-9,11H2,(H,19,22)
InChIKey=VLRQHMJYBKDATI-UHFFFAOYSA-N

> <PUBCHEM_SUBSTANCE_SYNONYM>
SCHEMBL16112219

> <PUBCHEM_XREF_EXT_ID>
SCHEMBL16112219

> <PUBCHEM_EXT_DATASOURCE_URL>
https://www.surechembl.org/

> <PUBCHEM_EXT_SUBSTANCE_URL>
https://www.surechembl.org/chemical/SCHEMBL16112219

> <PUBCHEM_CID_ASSOCIATIONS>
86292052  1

> <PUBCHEM_COORDINATE_TYPE>
1
3

$$$$
