310935428
  -OEChem-07211613022D

 38 43  0     1  0  0  0  0  0999 V2000
    1.3873  -11.0985    0.0000 F   0  0  0  0  0  0  0  0  0  0  0  0
    3.5515   -5.7712    0.0000 O   0  0  0  0  0  0  0  0  0  0  0  0
    0.7214   -3.2741    0.0000 N   0  0  3  0  0  0  0  0  0  0  0  0
    0.0000   -2.0532    0.0000 N   0  0  0  0  0  0  0  0  0  0  0  0
    0.7214   -0.8324    0.0000 N   0  0  0  0  0  0  0  0  0  0  0  0
    2.8301   -6.9921    0.0000 N   0  0  0  0  0  0  0  0  0  0  0  0
    3.6070   -3.2741    0.0000 N   0  0  0  0  0  0  0  0  0  0  0  0
    4.4394   -3.4960    0.0000 N   0  0  0  0  0  0  0  0  0  0  0  0
    2.8301   -9.4337    0.0000 N   0  0  0  0  0  0  0  0  0  0  0  0
    1.4428   -2.0532    0.0000 C   0  0  0  0  0  0  0  0  0  0  0  0
    0.7214   -2.4972    0.0000 C   0  0  0  0  0  0  0  0  0  0  0  0
    1.4428   -1.2208    0.0000 C   0  0  0  0  0  0  0  0  0  0  0  0
    2.8301   -2.0532    0.0000 C   0  0  0  0  0  0  0  0  0  0  0  0
    2.1087   -0.8324    0.0000 C   0  0  0  0  0  0  0  0  0  0  0  0
    2.1087   -2.4972    0.0000 C   0  0  0  0  0  0  0  0  0  0  0  0
    1.4428   -4.5504    0.0000 C   0  0  0  0  0  0  0  0  0  0  0  0
    1.4428   -3.7180    0.0000 C   0  0  0  0  0  0  0  0  0  0  0  0
    0.7214   -4.9388    0.0000 C   0  0  0  0  0  0  0  0  0  0  0  0
    2.8301   -1.2208    0.0000 C   0  0  0  0  0  0  0  0  0  0  0  0
    0.0000   -3.7180    0.0000 C   0  0  0  0  0  0  0  0  0  0  0  0
    3.5515   -2.4972    0.0000 C   0  0  0  0  0  0  0  0  0  0  0  0
    2.1087   -5.7712    0.0000 C   0  0  0  0  0  0  0  0  0  0  0  0
    2.1087   -4.9388    0.0000 C   0  0  0  0  0  0  0  0  0  0  0  0
    0.0000   -4.5504    0.0000 C   0  0  0  0  0  0  0  0  0  0  0  0
    0.0000   -1.2208    0.0000 C   0  0  0  0  0  0  0  0  0  0  0  0
    0.7214   -5.7712    0.0000 C   0  0  0  0  0  0  0  0  0  0  0  0
    2.8301   -6.1597    0.0000 C   0  0  0  0  0  0  0  0  0  0  0  0
    1.3873   -6.1597    0.0000 C   0  0  0  0  0  0  0  0  0  0  0  0
    2.1087    0.0000    0.0000 C   0  0  0  0  0  0  0  0  0  0  0  0
    4.2729   -2.1642    0.0000 C   0  0  0  0  0  0  0  0  0  0  0  0
    4.8279   -2.7746    0.0000 C   0  0  0  0  0  0  0  0  0  0  0  0
    3.5515   -7.3805    0.0000 C   0  0  0  0  0  0  0  0  0  0  0  0
    2.1087   -7.3805    0.0000 C   0  0  0  0  0  0  0  0  0  0  0  0
    2.8301   -8.6014    0.0000 C   0  0  0  0  0  0  0  0  0  0  0  0
    3.5515   -8.2129    0.0000 C   0  0  0  0  0  0  0  0  0  0  0  0
    2.1087   -8.2129    0.0000 C   0  0  0  0  0  0  0  0  0  0  0  0
    2.1087   -9.8777    0.0000 C   0  0  0  0  0  0  0  0  0  0  0  0
    2.1087  -10.7101    0.0000 C   0  0  0  0  0  0  0  0  0  0  0  0
  1 38  1  0  0  0  0
  2 27  2  0  0  0  0
  3 11  1  0  0  0  0
  3 17  1  0  0  0  0
  3 20  1  0  0  0  0
  4 11  1  0  0  0  0
  4 25  2  0  0  0  0
  5 12  2  0  0  0  0
  5 25  1  0  0  0  0
  6 27  1  0  0  0  0
  6 32  1  0  0  0  0
  6 33  1  0  0  0  0
  7  8  1  0  0  0  0
  7 21  1  0  0  0  0
  8 31  2  0  0  0  0
  9 34  1  0  0  0  0
  9 37  1  0  0  0  0
 10 11  2  0  0  0  0
 10 12  1  0  0  0  0
 10 15  1  0  0  0  0
 12 14  1  0  0  0  0
 13 15  2  0  0  0  0
 13 19  1  0  0  0  0
 13 21  1  0  0  0  0
 14 19  2  0  0  0  0
 14 29  1  0  0  0  0
 16 17  1  0  0  0  0
 16 18  2  0  0  0  0
 16 23  1  0  0  0  0
 18 24  1  0  0  0  0
 18 26  1  0  0  0  0
 20 24  1  0  0  0  0
 21 30  2  0  0  0  0
 22 23  2  0  0  0  0
 22 27  1  0  0  0  0
 22 28  1  0  0  0  0
 26 28  2  0  0  0  0
 30 31  1  0  0  0  0
 32 35  1  0  0  0  0
 33 36  1  0  0  0  0
 34 35  1  0  0  0  0
 34 36  1  0  0  0  0
 37 38  1  0  0  0  0
M  END
> <PUBCHEM_COMPOUND_ID_TYPE>
0

> <PUBCHEM_TOTAL_CHARGE>
0

> <PUBCHEM_SUBSTANCE_ID>
310935428

> <PUBCHEM_SUBSTANCE_VERSION>
1

> <PUBCHEM_EXT_DATASOURCE_NAME>
4488

> <PUBCHEM_EXT_DATASOURCE_REGID>
SCHEMBL16112971

> <PUBCHEM_SUBSTANCE_COMMENT>
InChI=1S/C29H32FN7O/c1-19-14-22(26-4-9-34-35-26)16-25-27(19)32-18-33-28(25)37-11-5-20-2-3-21(15-23(20)17-37)29(38)36-12-6-24(7-13-36)31-10-8-30/h2-4,9,14-16,18,24,31H,5-8,10-13,17H2,1H3,(H,34,35)
InChIKey=DAPBEMGTBCVMFI-UHFFFAOYSA-N

> <PUBCHEM_SUBSTANCE_SYNONYM>
SCHEMBL16112971

> <PUBCHEM_XREF_EXT_ID>
SCHEMBL16112971

> <PUBCHEM_EXT_DATASOURCE_URL>
https://www.surechembl.org/

> <PUBCHEM_EXT_SUBSTANCE_URL>
https://www.surechembl.org/chemical/SCHEMBL16112971

> <PUBCHEM_CID_ASSOCIATIONS>
117603470  1

> <PUBCHEM_COORDINATE_TYPE>
1
3

$$$$
