310941320
  -OEChem-07211613022D

 42 45  0     1  0  0  0  0  0999 V2000
    5.0972    0.6767    0.0000 O   0  0  0  0  0  0  0  0  0  0  0  0
    3.9646   -1.2946    0.0000 O   0  0  0  0  0  0  0  0  0  0  0  0
    1.8020    0.7796    0.0000 O   0  0  0  0  0  0  0  0  0  0  0  0
   -0.3752   -1.2946    0.0000 O   0  0  0  0  0  0  0  0  0  0  0  0
   -2.5376    0.7796    0.0000 O   0  0  0  0  0  0  0  0  0  0  0  0
    3.9646   -2.9568    0.0000 O   0  0  0  0  0  0  0  0  0  0  0  0
   -5.4356   -1.7211    0.0000 O   0  0  0  0  0  0  0  0  0  0  0  0
    2.5229   -0.4707    0.0000 N   0  0  0  0  0  0  0  0  0  0  0  0
    0.3457   -0.0441    0.0000 N   0  0  0  0  0  0  0  0  0  0  0  0
   -1.8168   -0.4707    0.0000 N   0  0  0  0  0  0  0  0  0  0  0  0
    4.6853   -0.0147    0.0000 C   0  0  3  0  0  0  0  0  0  0  0  0
    3.9792   -0.4119    0.0000 C   0  0  0  0  0  0  0  0  0  0  0  0
    4.3029    0.6767    0.0000 C   0  0  0  0  0  0  0  0  0  0  0  0
    3.2437   -0.0294    0.0000 C   0  0  3  0  0  0  0  0  0  0  0  0
    5.4356   -0.4266    0.0000 C   0  0  0  0  0  0  0  0  0  0  0  0
    3.2437    1.2946    0.0000 C   0  0  0  0  0  0  0  0  0  0  0  0
    1.7874   -0.0441    0.0000 C   0  0  0  0  0  0  0  0  0  0  0  0
    1.0959   -0.4413    0.0000 C   0  0  3  0  0  0  0  0  0  0  0  0
    2.5229    1.7359    0.0000 C   0  0  0  0  0  0  0  0  0  0  0  0
    1.0813   -1.2798    0.0000 C   0  0  0  0  0  0  0  0  0  0  0  0
   -0.3604   -0.4119    0.0000 C   0  0  0  0  0  0  0  0  0  0  0  0
    1.8168   -1.6770    0.0000 C   0  0  0  0  0  0  0  0  0  0  0  0
    2.5229    2.5450    0.0000 C   0  0  0  0  0  0  0  0  0  0  0  0
    1.8168    1.3092    0.0000 C   0  0  0  0  0  0  0  0  0  0  0  0
   -1.0813   -0.0294    0.0000 C   0  0  3  0  0  0  0  0  0  0  0  0
   -2.5523   -0.0441    0.0000 C   0  0  0  0  0  0  0  0  0  0  0  0
   -3.2585   -0.4266    0.0000 C   0  0  0  0  0  0  0  0  0  0  0  0
    1.8168   -2.5155    0.0000 C   0  0  0  0  0  0  0  0  0  0  0  0
    2.5082   -1.2946    0.0000 C   0  0  0  0  0  0  0  0  0  0  0  0
    1.7874    2.9568    0.0000 C   0  0  0  0  0  0  0  0  0  0  0  0
    1.0959    1.7211    0.0000 C   0  0  0  0  0  0  0  0  0  0  0  0
    3.2290   -2.5155    0.0000 C   0  0  0  0  0  0  0  0  0  0  0  0
    2.5229   -2.9274    0.0000 C   0  0  0  0  0  0  0  0  0  0  0  0
    3.2437   -1.6917    0.0000 C   0  0  0  0  0  0  0  0  0  0  0  0
    1.0959    2.5450    0.0000 C   0  0  0  0  0  0  0  0  0  0  0  0
   -3.9940   -0.0441    0.0000 C   0  0  0  0  0  0  0  0  0  0  0  0
   -3.2585   -1.2798    0.0000 C   0  0  0  0  0  0  0  0  0  0  0  0
   -1.0665    0.8238    0.0000 C   0  0  0  0  0  0  0  0  0  0  0  0
   -4.7001   -1.2798    0.0000 C   0  0  0  0  0  0  0  0  0  0  0  0
   -4.6853   -0.4413    0.0000 C   0  0  0  0  0  0  0  0  0  0  0  0
   -3.9792   -1.6770    0.0000 C   0  0  0  0  0  0  0  0  0  0  0  0
    4.6853   -2.5155    0.0000 C   0  0  0  0  0  0  0  0  0  0  0  0
  1 11  1  0  0  0  0
  1 13  1  0  0  0  0
  2 12  2  0  0  0  0
  3 17  2  0  0  0  0
  4 21  2  0  0  0  0
  5 26  2  0  0  0  0
  6 32  1  0  0  0  0
  6 42  1  0  0  0  0
  7 39  1  0  0  0  0
  8 14  1  0  0  0  0
  8 17  1  0  0  0  0
  9 18  1  0  0  0  0
  9 21  1  0  0  0  0
 10 25  1  0  0  0  0
 10 26  1  0  0  0  0
 11 12  1  0  0  0  0
 11 13  1  0  0  0  0
 11 15  1  0  0  0  0
 12 14  1  0  0  0  0
 14 16  1  0  0  0  0
 16 19  1  0  0  0  0
 17 18  1  0  0  0  0
 18 20  1  0  0  0  0
 19 23  2  0  0  0  0
 19 24  1  0  0  0  0
 20 22  1  0  0  0  0
 21 25  1  0  0  0  0
 22 28  2  0  0  0  0
 22 29  1  0  0  0  0
 23 30  1  0  0  0  0
 24 31  2  0  0  0  0
 25 38  1  0  0  0  0
 26 27  1  0  0  0  0
 27 36  1  0  0  0  0
 27 37  1  0  0  0  0
 28 33  1  0  0  0  0
 29 34  2  0  0  0  0
 30 35  2  0  0  0  0
 31 35  1  0  0  0  0
 32 33  2  0  0  0  0
 32 34  1  0  0  0  0
 36 40  1  0  0  0  0
 37 41  1  0  0  0  0
 39 40  1  0  0  0  0
 39 41  1  0  0  0  0
M  END
> <PUBCHEM_COMPOUND_ID_TYPE>
0

> <PUBCHEM_TOTAL_CHARGE>
0

> <PUBCHEM_SUBSTANCE_ID>
310941320

> <PUBCHEM_SUBSTANCE_VERSION>
1

> <PUBCHEM_EXT_DATASOURCE_NAME>
4488

> <PUBCHEM_EXT_DATASOURCE_REGID>
SCHEMBL16119280

> <PUBCHEM_SUBSTANCE_COMMENT>
InChI=1S/C32H41N3O7/c1-20(33-30(39)23-11-13-24(36)14-12-23)29(38)35-27(18-22-9-15-25(41-3)16-10-22)31(40)34-26(28(37)32(2)19-42-32)17-21-7-5-4-6-8-21/h4-10,15-16,20,23-24,26-27,36H,11-14,17-19H2,1-3H3,(H,33,39)(H,34,40)(H,35,38)
InChIKey=DMAYUUDCUFRNPK-UHFFFAOYSA-N

> <PUBCHEM_SUBSTANCE_SYNONYM>
SCHEMBL16119280

> <PUBCHEM_XREF_EXT_ID>
SCHEMBL16119280

> <PUBCHEM_EXT_DATASOURCE_URL>
https://www.surechembl.org/

> <PUBCHEM_EXT_SUBSTANCE_URL>
https://www.surechembl.org/chemical/SCHEMBL16119280

> <PUBCHEM_CID_ASSOCIATIONS>
117608168  1

> <PUBCHEM_COORDINATE_TYPE>
1
3

$$$$
