310932024
  -OEChem-07211613022D

 27 29  0     1  0  0  0  0  0999 V2000
    0.0000   -2.7476    0.0000 Cl  0  0  0  0  0  0  0  0  0  0  0  0
    2.1981   -1.4425    0.0000 S   0  0  0  0  0  0  0  0  0  0  0  0
    0.0000   -5.2205    0.0000 F   0  0  0  0  0  0  0  0  0  0  0  0
    2.8507   -5.2205    0.0000 O   0  0  0  0  0  0  0  0  0  0  0  0
    4.2932   -1.9234    0.0000 O   0  0  0  0  0  0  0  0  0  0  0  0
    5.0144   -3.1597    0.0000 O   0  0  0  0  0  0  0  0  0  0  0  0
    3.5376   -1.4425    0.0000 N   0  0  0  0  0  0  0  0  0  0  0  0
    1.4081   -4.3962    0.0000 C   0  0  0  0  0  0  0  0  0  0  0  0
    2.1294   -3.1597    0.0000 C   0  0  0  0  0  0  0  0  0  0  0  0
    1.4425   -5.2205    0.0000 C   0  0  0  0  0  0  0  0  0  0  0  0
    2.8507   -2.7476    0.0000 C   0  0  3  0  0  0  0  0  0  0  0  0
    2.1294   -3.9840    0.0000 C   0  0  0  0  0  0  0  0  0  0  0  0
    2.8507   -1.9234    0.0000 C   0  0  0  0  0  0  0  0  0  0  0  0
    2.1294   -5.6326    0.0000 C   0  0  0  0  0  0  0  0  0  0  0  0
    0.7212   -5.6326    0.0000 C   0  0  0  0  0  0  0  0  0  0  0  0
    0.7212   -3.9840    0.0000 C   0  0  0  0  0  0  0  0  0  0  0  0
    1.4425   -2.7476    0.0000 C   0  0  0  0  0  0  0  0  0  0  0  0
    0.7212   -3.1597    0.0000 C   0  0  0  0  0  0  0  0  0  0  0  0
    3.5719   -3.1597    0.0000 C   0  0  0  0  0  0  0  0  0  0  0  0
    2.4385   -0.6525    0.0000 C   0  0  0  0  0  0  0  0  0  0  0  0
    2.1637   -6.4569    0.0000 C   0  0  0  0  0  0  0  0  0  0  0  0
    0.7212   -6.4569    0.0000 C   0  0  0  0  0  0  0  0  0  0  0  0
    3.2628   -0.6525    0.0000 C   0  0  0  0  0  0  0  0  0  0  0  0
    1.4425   -6.8691    0.0000 C   0  0  0  0  0  0  0  0  0  0  0  0
    4.2932   -2.7476    0.0000 C   0  0  0  0  0  0  0  0  0  0  0  0
    1.9577    0.0000    0.0000 C   0  0  0  0  0  0  0  0  0  0  0  0
    2.8507   -4.3962    0.0000 C   0  0  0  0  0  0  0  0  0  0  0  0
  1 18  1  0  0  0  0
  2 13  1  0  0  0  0
  2 20  1  0  0  0  0
  3 15  1  0  0  0  0
  4 14  1  0  0  0  0
  4 27  1  0  0  0  0
  5 25  2  0  0  0  0
  6 25  1  0  0  0  0
  7 13  2  0  0  0  0
  7 23  1  0  0  0  0
  8 10  1  0  0  0  0
  8 12  2  0  0  0  0
  8 16  1  0  0  0  0
  9 11  1  0  0  0  0
  9 12  1  0  0  0  0
  9 17  2  0  0  0  0
 10 14  1  0  0  0  0
 10 15  2  0  0  0  0
 11 13  1  0  0  0  0
 11 19  1  0  0  0  0
 14 21  2  0  0  0  0
 15 22  1  0  0  0  0
 16 18  2  0  0  0  0
 17 18  1  0  0  0  0
 19 25  1  0  0  0  0
 20 23  2  0  0  0  0
 20 26  1  0  0  0  0
 21 24  1  0  0  0  0
 22 24  2  0  0  0  0
M  END
> <PUBCHEM_COMPOUND_ID_TYPE>
0

> <PUBCHEM_TOTAL_CHARGE>
0

> <PUBCHEM_SUBSTANCE_ID>
310932024

> <PUBCHEM_SUBSTANCE_VERSION>
1

> <PUBCHEM_EXT_DATASOURCE_NAME>
4488

> <PUBCHEM_EXT_DATASOURCE_REGID>
SCHEMBL16109366

> <PUBCHEM_SUBSTANCE_COMMENT>
InChI=1S/C20H17ClFNO3S/c1-11-10-23-20(27-11)15(9-18(24)25)12-6-13(8-14(21)7-12)19-16(22)4-3-5-17(19)26-2/h3-8,10,15H,9H2,1-2H3,(H,24,25)
InChIKey=IZRIGZGQJXEOTP-UHFFFAOYSA-N

> <PUBCHEM_SUBSTANCE_SYNONYM>
SCHEMBL16109366

> <PUBCHEM_XREF_EXT_ID>
SCHEMBL16109366

> <PUBCHEM_EXT_DATASOURCE_URL>
https://www.surechembl.org/

> <PUBCHEM_EXT_SUBSTANCE_URL>
https://www.surechembl.org/chemical/SCHEMBL16109366

> <PUBCHEM_CID_ASSOCIATIONS>
86281810  1

> <PUBCHEM_COORDINATE_TYPE>
1
3

$$$$
