310938928
  -OEChem-07211613022D

 12 12  0     1  0  0  0  0  0999 V2000
   -0.7200    3.4897    0.0000 Cl  0  0  0  0  0  0  0  0  0  0  0  0
    0.4070    1.5377    0.0000 N   0  0  0  0  0  0  0  0  0  0  0  0
   -0.3075    1.9502    0.0000 C   0  0  3  0  0  0  0  0  0  0  0  0
   -0.7200    2.6647    0.0000 C   0  0  3  0  0  0  0  0  0  0  0  0
   -1.1325    1.9502    0.0000 C   0  0  3  0  0  0  0  0  0  0  0  0
    0.4070    0.7127    0.0000 C   0  0  0  0  0  0  0  0  0  0  0  0
    1.1215    1.9502    0.0000 C   0  0  0  0  0  0  0  0  0  0  0  0
   -1.8469    1.5377    0.0000 C   0  0  0  0  0  0  0  0  0  0  0  0
    1.1215    0.3002    0.0000 C   0  0  0  0  0  0  0  0  0  0  0  0
   -0.3075    0.3002    0.0000 C   0  0  0  0  0  0  0  0  0  0  0  0
    1.1215    2.7752    0.0000 C   0  0  0  0  0  0  0  0  0  0  0  0
    1.8359    1.5377    0.0000 C   0  0  0  0  0  0  0  0  0  0  0  0
  1  4  1  0  0  0  0
  2  3  1  0  0  0  0
  2  6  1  0  0  0  0
  2  7  1  0  0  0  0
  3  4  1  0  0  0  0
  3  5  1  0  0  0  0
  4  5  1  0  0  0  0
  5  8  1  0  0  0  0
  6  9  1  0  0  0  0
  6 10  1  0  0  0  0
  7 11  1  0  0  0  0
  7 12  1  0  0  0  0
M  END
> <PUBCHEM_COMPOUND_ID_TYPE>
0

> <PUBCHEM_TOTAL_CHARGE>
0

> <PUBCHEM_SUBSTANCE_ID>
310938928

> <PUBCHEM_SUBSTANCE_VERSION>
1

> <PUBCHEM_EXT_DATASOURCE_NAME>
4488

> <PUBCHEM_EXT_DATASOURCE_REGID>
SCHEMBL16116847

> <PUBCHEM_SUBSTANCE_COMMENT>
InChI=1S/C10H20ClN/c1-6(2)12(7(3)4)10-8(5)9(10)11/h6-10H,1-5H3
InChIKey=ODRRUZMQHKVEAU-UHFFFAOYSA-N

> <PUBCHEM_SUBSTANCE_SYNONYM>
SCHEMBL16116847

> <PUBCHEM_XREF_EXT_ID>
SCHEMBL16116847

> <PUBCHEM_EXT_DATASOURCE_URL>
https://www.surechembl.org/

> <PUBCHEM_EXT_SUBSTANCE_URL>
https://www.surechembl.org/chemical/SCHEMBL16116847

> <PUBCHEM_CID_ASSOCIATIONS>
117606325  1

> <PUBCHEM_COORDINATE_TYPE>
1
3

$$$$
