310940593
  -OEChem-07211613022D

 30 34  0     1  0  0  0  0  0999 V2000
    2.7396   -0.2693    0.0000 O   0  0  0  0  0  0  0  0  0  0  0  0
   -1.4468   -0.4541    0.0000 O   0  0  0  0  0  0  0  0  0  0  0  0
   -2.7704   -2.3626    0.0000 O   0  0  0  0  0  0  0  0  0  0  0  0
    2.7704    1.2236    0.0000 O   0  0  0  0  0  0  0  0  0  0  0  0
    1.5699    0.4079    0.0000 N   0  0  0  0  0  0  0  0  0  0  0  0
    1.4314   -2.0702    0.0000 N   0  0  0  0  0  0  0  0  0  0  0  0
   -2.3703   -3.0859    0.0000 N   0  0  0  0  0  0  0  0  0  0  0  0
    0.2924    2.1625    0.0000 N   0  0  0  0  0  0  0  0  0  0  0  0
    1.4006   -0.3463    0.0000 C   0  0  0  0  0  0  0  0  0  0  0  0
    0.6927   -0.7619    0.0000 C   0  0  0  0  0  0  0  0  0  0  0  0
    2.1240   -0.7465    0.0000 C   0  0  0  0  0  0  0  0  0  0  0  0
    0.6927   -1.5776    0.0000 C   0  0  0  0  0  0  0  0  0  0  0  0
   -0.7235   -1.6084    0.0000 C   0  0  0  0  0  0  0  0  0  0  0  0
    2.3857    0.5311    0.0000 C   0  0  0  0  0  0  0  0  0  0  0  0
   -0.7080   -0.7773    0.0000 C   0  0  0  0  0  0  0  0  0  0  0  0
   -0.0154   -0.3771    0.0000 C   0  0  0  0  0  0  0  0  0  0  0  0
   -0.0154   -2.0086    0.0000 C   0  0  0  0  0  0  0  0  0  0  0  0
   -1.4468   -2.0086    0.0000 C   0  0  0  0  0  0  0  0  0  0  0  0
    2.1240   -1.5930    0.0000 C   0  0  0  0  0  0  0  0  0  0  0  0
    0.9080    0.9311    0.0000 C   0  0  0  0  0  0  0  0  0  0  0  0
   -2.2010   -1.6546    0.0000 C   0  0  0  0  0  0  0  0  0  0  0  0
   -1.5391   -2.8397    0.0000 C   0  0  0  0  0  0  0  0  0  0  0  0
    0.9542    1.7469    0.0000 C   0  0  3  0  0  0  0  0  0  0  0  0
   -2.3549   -0.8542    0.0000 C   0  0  0  0  0  0  0  0  0  0  0  0
   -0.9080   -3.3938    0.0000 C   0  0  0  0  0  0  0  0  0  0  0  0
    1.6931    2.1010    0.0000 C   0  0  0  0  0  0  0  0  0  0  0  0
   -1.4468    0.4848    0.0000 C   0  0  0  0  0  0  0  0  0  0  0  0
    0.3540    3.0398    0.0000 C   0  0  0  0  0  0  0  0  0  0  0  0
    1.7546    2.9166    0.0000 C   0  0  0  0  0  0  0  0  0  0  0  0
    1.0774    3.3938    0.0000 C   0  0  0  0  0  0  0  0  0  0  0  0
  1 11  1  0  0  0  0
  1 14  1  0  0  0  0
  2 15  1  0  0  0  0
  2 27  1  0  0  0  0
  3  7  1  0  0  0  0
  3 21  1  0  0  0  0
  4 14  2  0  0  0  0
  5  9  1  0  0  0  0
  5 14  1  0  0  0  0
  5 20  1  0  0  0  0
  6 12  1  0  0  0  0
  6 19  2  0  0  0  0
  7 22  2  0  0  0  0
  8 23  1  0  0  0  0
  8 28  1  0  0  0  0
  9 10  1  0  0  0  0
  9 11  2  0  0  0  0
 10 12  1  0  0  0  0
 10 16  2  0  0  0  0
 11 19  1  0  0  0  0
 12 17  2  0  0  0  0
 13 15  2  0  0  0  0
 13 17  1  0  0  0  0
 13 18  1  0  0  0  0
 15 16  1  0  0  0  0
 18 21  2  0  0  0  0
 18 22  1  0  0  0  0
 20 23  1  0  0  0  0
 21 24  1  0  0  0  0
 22 25  1  0  0  0  0
 23 26  1  0  0  0  0
 26 29  1  0  0  0  0
 28 30  1  0  0  0  0
 29 30  1  0  0  0  0
M  END
> <PUBCHEM_COMPOUND_ID_TYPE>
0

> <PUBCHEM_TOTAL_CHARGE>
0

> <PUBCHEM_SUBSTANCE_ID>
310940593

> <PUBCHEM_SUBSTANCE_VERSION>
1

> <PUBCHEM_EXT_DATASOURCE_NAME>
4488

> <PUBCHEM_EXT_DATASOURCE_REGID>
SCHEMBL16118547

> <PUBCHEM_SUBSTANCE_COMMENT>
InChI=1S/C22H24N4O4/c1-12-20(13(2)30-25-12)16-8-17-15(9-18(16)28-3)21-19(10-24-17)29-22(27)26(21)11-14-6-4-5-7-23-14/h8-10,14,23H,4-7,11H2,1-3H3
InChIKey=IZWFHSAJRBWQDJ-UHFFFAOYSA-N

> <PUBCHEM_SUBSTANCE_SYNONYM>
SCHEMBL16118547

> <PUBCHEM_XREF_EXT_ID>
SCHEMBL16118547

> <PUBCHEM_EXT_DATASOURCE_URL>
https://www.surechembl.org/

> <PUBCHEM_EXT_SUBSTANCE_URL>
https://www.surechembl.org/chemical/SCHEMBL16118547

> <PUBCHEM_CID_ASSOCIATIONS>
86305176  1

> <PUBCHEM_COORDINATE_TYPE>
1
3

$$$$
