310946580
  -OEChem-07211613022D

 21 20  0     1  0  0  0  0  0999 V2000
  -11.2389   17.6768    0.0000 O   0  0  0  0  0  0  0  0  0  0  0  0
   -9.8099   17.6768    0.0000 O   0  0  0  0  0  0  0  0  0  0  0  0
   -8.3810   17.6768    0.0000 O   0  0  0  0  0  0  0  0  0  0  0  0
  -11.9533   18.9142    0.0000 O   0  0  0  0  0  0  0  0  0  0  0  0
   -9.0954   18.9142    0.0000 O   0  0  0  0  0  0  0  0  0  0  0  0
  -11.2389   16.8518    0.0000 O   0  0  0  0  0  0  0  0  0  0  0  0
  -11.9533   15.6143    0.0000 O   0  0  0  0  0  0  0  0  0  0  0  0
   -6.2376   18.0892    0.0000 O   0  0  0  0  0  0  0  0  0  0  0  0
  -13.3822   18.0892    0.0000 N   0  0  0  0  0  0  0  0  0  0  0  0
  -11.9533   18.0892    0.0000 C   0  0  0  0  0  0  0  0  0  0  0  0
  -10.5244   18.0892    0.0000 C   0  0  3  0  0  0  0  0  0  0  0  0
  -12.6678   17.6768    0.0000 C   0  0  3  0  0  0  0  0  0  0  0  0
   -9.0954   18.0892    0.0000 C   0  0  0  0  0  0  0  0  0  0  0  0
  -12.6678   16.8518    0.0000 C   0  0  0  0  0  0  0  0  0  0  0  0
  -11.9533   16.4393    0.0000 C   0  0  0  0  0  0  0  0  0  0  0  0
  -10.5244   18.9142    0.0000 C   0  0  0  0  0  0  0  0  0  0  0  0
   -7.6665   18.0892    0.0000 C   0  0  0  0  0  0  0  0  0  0  0  0
   -6.9521   17.6768    0.0000 C   0  0  0  0  0  0  0  0  0  0  0  0
   -5.5232   17.6768    0.0000 C   0  0  0  0  0  0  0  0  0  0  0  0
   -4.8088   18.0892    0.0000 C   0  0  0  0  0  0  0  0  0  0  0  0
   -4.0943   17.6768    0.0000 C   0  0  0  0  0  0  0  0  0  0  0  0
  1 10  1  0  0  0  0
  1 11  1  0  0  0  0
  2 11  1  0  0  0  0
  2 13  1  0  0  0  0
  3 13  1  0  0  0  0
  3 17  1  0  0  0  0
  4 10  2  0  0  0  0
  5 13  2  0  0  0  0
  6 15  2  0  0  0  0
  7 15  1  0  0  0  0
  8 18  1  0  0  0  0
  8 19  1  0  0  0  0
  9 12  1  0  0  0  0
 10 12  1  0  0  0  0
 11 16  1  0  0  0  0
 12 14  1  0  0  0  0
 14 15  1  0  0  0  0
 17 18  1  0  0  0  0
 19 20  1  0  0  0  0
 20 21  1  0  0  0  0
M  END
> <PUBCHEM_COMPOUND_ID_TYPE>
0

> <PUBCHEM_TOTAL_CHARGE>
0

> <PUBCHEM_SUBSTANCE_ID>
310946580

> <PUBCHEM_SUBSTANCE_VERSION>
1

> <PUBCHEM_EXT_DATASOURCE_NAME>
4488

> <PUBCHEM_EXT_DATASOURCE_REGID>
SCHEMBL16124701

> <PUBCHEM_SUBSTANCE_COMMENT>
InChI=1S/C12H21NO8/c1-3-4-18-5-6-19-12(17)21-8(2)20-11(16)9(13)7-10(14)15/h8-9H,3-7,13H2,1-2H3,(H,14,15)
InChIKey=LJISQIZLOWKYQF-UHFFFAOYSA-N

> <PUBCHEM_SUBSTANCE_SYNONYM>
SCHEMBL16124701

> <PUBCHEM_XREF_EXT_ID>
SCHEMBL16124701

> <PUBCHEM_EXT_DATASOURCE_URL>
https://www.surechembl.org/

> <PUBCHEM_EXT_SUBSTANCE_URL>
https://www.surechembl.org/chemical/SCHEMBL16124701

> <PUBCHEM_CID_ASSOCIATIONS>
117612480  1

> <PUBCHEM_COORDINATE_TYPE>
1
3

$$$$
