310949545
  -OEChem-07211613022D

 30 33  0     1  0  0  0  0  0999 V2000
   -1.9297   -2.3928    0.0000 Cl  0  0  0  0  0  0  0  0  0  0  0  0
   -4.0716   -2.4314    0.0000 F   0  0  0  0  0  0  0  0  0  0  0  0
   -2.9331   -2.4893    0.0000 F   0  0  0  0  0  0  0  0  0  0  0  0
   -4.0137   -1.2543    0.0000 F   0  0  0  0  0  0  0  0  0  0  0  0
   -0.5403   -2.0840    0.0000 O   0  0  0  0  0  0  0  0  0  0  0  0
   -0.0965   -0.7140    0.0000 N   0  0  0  0  0  0  0  0  0  0  0  0
    1.5823    1.0613    0.0000 N   0  0  0  0  0  0  0  0  0  0  0  0
    0.3281    1.4666    0.0000 N   0  0  0  0  0  0  0  0  0  0  0  0
    1.0999    1.7175    0.0000 N   0  0  0  0  0  0  0  0  0  0  0  0
   -3.0296   -0.5017    0.0000 N   0  0  0  0  0  0  0  0  0  0  0  0
    2.8174    0.3473    0.0000 N   0  0  0  0  0  0  0  0  0  0  0  0
    4.0330    1.0613    0.0000 N   0  0  0  0  0  0  0  0  0  0  0  0
    0.3473    0.6561    0.0000 C   0  0  0  0  0  0  0  0  0  0  0  0
    1.0999    0.3859    0.0000 C   0  0  0  0  0  0  0  0  0  0  0  0
   -0.2509    0.0965    0.0000 C   0  0  3  0  0  0  0  0  0  0  0  0
   -0.7140   -1.2736    0.0000 C   0  0  0  0  0  0  0  0  0  0  0  0
   -1.4858   -1.0227    0.0000 C   0  0  0  0  0  0  0  0  0  0  0  0
   -2.0840   -1.5630    0.0000 C   0  0  0  0  0  0  0  0  0  0  0  0
    1.2929   -0.4245    0.0000 C   0  0  0  0  0  0  0  0  0  0  0  0
    0.6754   -0.9841    0.0000 C   0  0  0  0  0  0  0  0  0  0  0  0
   -2.8752   -1.2929    0.0000 C   0  0  0  0  0  0  0  0  0  0  0  0
    2.4121    1.0421    0.0000 C   0  0  0  0  0  0  0  0  0  0  0  0
   -3.4542   -1.8718    0.0000 C   0  0  0  0  0  0  0  0  0  0  0  0
   -1.6402   -0.2123    0.0000 C   0  0  0  0  0  0  0  0  0  0  0  0
   -1.0613    0.3281    0.0000 C   0  0  0  0  0  0  0  0  0  0  0  0
    2.8366    1.7753    0.0000 C   0  0  0  0  0  0  0  0  0  0  0  0
   -2.4314    0.0386    0.0000 C   0  0  0  0  0  0  0  0  0  0  0  0
    3.6278    1.7753    0.0000 C   0  0  0  0  0  0  0  0  0  0  0  0
    3.6278    0.3473    0.0000 C   0  0  0  0  0  0  0  0  0  0  0  0
    4.0716    2.4893    0.0000 C   0  0  0  0  0  0  0  0  0  0  0  0
  1 18  1  0  0  0  0
  2 23  1  0  0  0  0
  3 23  1  0  0  0  0
  4 23  1  0  0  0  0
  5 16  2  0  0  0  0
  6 15  1  0  0  0  0
  6 16  1  0  0  0  0
  6 20  1  0  0  0  0
  7  9  1  0  0  0  0
  7 14  1  0  0  0  0
  7 22  1  0  0  0  0
  8  9  2  0  0  0  0
  8 13  1  0  0  0  0
 10 21  1  0  0  0  0
 10 27  2  0  0  0  0
 11 22  2  0  0  0  0
 11 29  1  0  0  0  0
 12 28  1  0  0  0  0
 12 29  2  0  0  0  0
 13 14  2  0  0  0  0
 13 15  1  0  0  0  0
 14 19  1  0  0  0  0
 15 25  1  0  0  0  0
 16 17  1  0  0  0  0
 17 18  1  0  0  0  0
 17 24  2  0  0  0  0
 18 21  2  0  0  0  0
 19 20  1  0  0  0  0
 21 23  1  0  0  0  0
 22 26  1  0  0  0  0
 24 27  1  0  0  0  0
 26 28  2  0  0  0  0
 28 30  1  0  0  0  0
M  END
> <PUBCHEM_COMPOUND_ID_TYPE>
0

> <PUBCHEM_TOTAL_CHARGE>
0

> <PUBCHEM_SUBSTANCE_ID>
310949545

> <PUBCHEM_SUBSTANCE_VERSION>
1

> <PUBCHEM_EXT_DATASOURCE_NAME>
4488

> <PUBCHEM_EXT_DATASOURCE_REGID>
SCHEMBL16127740

> <PUBCHEM_SUBSTANCE_COMMENT>
InChI=1S/C18H15ClF3N7O/c1-9-7-13(25-8-24-9)29-12-4-6-28(10(2)15(12)26-27-29)17(30)11-3-5-23-16(14(11)19)18(20,21)22/h3,5,7-8,10H,4,6H2,1-2H3
InChIKey=GUDZLSDQANDCDM-UHFFFAOYSA-N

> <PUBCHEM_SUBSTANCE_SYNONYM>
SCHEMBL16127740

> <PUBCHEM_XREF_EXT_ID>
SCHEMBL16127740

> <PUBCHEM_EXT_DATASOURCE_URL>
https://www.surechembl.org/

> <PUBCHEM_EXT_SUBSTANCE_URL>
https://www.surechembl.org/chemical/SCHEMBL16127740

> <PUBCHEM_CID_ASSOCIATIONS>
117614968  1

> <PUBCHEM_COORDINATE_TYPE>
1
3

$$$$
