310931530
  -OEChem-07211613022D

 27 30  0     1  0  0  0  0  0999 V2000
    0.6637   -0.2184    0.0000 O   0  0  0  0  0  0  0  0  0  0  0  0
    3.6124   -1.1696    0.0000 O   0  0  0  0  0  0  0  0  0  0  0  0
   -2.1434   -0.4125    0.0000 O   0  0  0  0  0  0  0  0  0  0  0  0
    1.8931    0.6108    0.0000 N   0  0  0  0  0  0  0  0  0  0  0  0
    1.3079    1.8106    0.0000 N   0  0  0  0  0  0  0  0  0  0  0  0
   -0.9479    2.5769    0.0000 N   0  0  0  0  0  0  0  0  0  0  0  0
   -0.3159    3.1072    0.0000 N   0  0  0  0  0  0  0  0  0  0  0  0
    2.7508    1.8358    0.0000 N   0  0  0  0  0  0  0  0  0  0  0  0
    0.7144    1.2375    0.0000 C   0  0  3  0  0  0  0  0  0  0  0  0
    1.0762    0.4960    0.0000 C   0  0  0  0  0  0  0  0  0  0  0  0
    0.1842    1.8695    0.0000 C   0  0  0  0  0  0  0  0  0  0  0  0
    0.0000    0.8250    0.0000 C   0  0  0  0  0  0  0  0  0  0  0  0
    2.0363    1.4233    0.0000 C   0  0  0  0  0  0  0  0  0  0  0  0
    2.4662    0.0174    0.0000 C   0  0  0  0  0  0  0  0  0  0  0  0
   -0.6388    1.8119    0.0000 C   0  0  0  0  0  0  0  0  0  0  0  0
    0.3837    2.6700    0.0000 C   0  0  0  0  0  0  0  0  0  0  0  0
   -0.7144    1.2375    0.0000 C   0  0  0  0  0  0  0  0  0  0  0  0
    0.0000    0.0000    0.0000 C   0  0  0  0  0  0  0  0  0  0  0  0
    2.2388   -0.7757    0.0000 C   0  0  0  0  0  0  0  0  0  0  0  0
    3.2667    0.2169    0.0000 C   0  0  0  0  0  0  0  0  0  0  0  0
   -1.4290    0.8250    0.0000 C   0  0  0  0  0  0  0  0  0  0  0  0
   -0.7144   -0.4125    0.0000 C   0  0  0  0  0  0  0  0  0  0  0  0
   -1.4290    0.0000    0.0000 C   0  0  0  0  0  0  0  0  0  0  0  0
    2.8119   -1.3691    0.0000 C   0  0  0  0  0  0  0  0  0  0  0  0
    3.8398   -0.3765    0.0000 C   0  0  0  0  0  0  0  0  0  0  0  0
   -1.7484    2.7765    0.0000 C   0  0  0  0  0  0  0  0  0  0  0  0
   -2.8579    0.0000    0.0000 C   0  0  0  0  0  0  0  0  0  0  0  0
  1 10  2  0  0  0  0
  2 24  1  0  0  0  0
  2 25  1  0  0  0  0
  3 23  1  0  0  0  0
  3 27  1  0  0  0  0
  4 10  1  0  0  0  0
  4 13  1  0  0  0  0
  4 14  1  0  0  0  0
  5  9  1  0  0  0  0
  5 13  1  0  0  0  0
  6  7  1  0  0  0  0
  6 15  1  0  0  0  0
  6 26  1  0  0  0  0
  7 16  2  0  0  0  0
  8 13  2  3  0  0  0
  9 10  1  0  0  0  0
  9 11  1  0  0  0  0
  9 12  1  0  0  0  0
 11 15  2  0  0  0  0
 11 16  1  0  0  0  0
 12 17  2  0  0  0  0
 12 18  1  0  0  0  0
 14 19  1  0  0  0  0
 14 20  1  0  0  0  0
 17 21  1  0  0  0  0
 18 22  2  0  0  0  0
 19 24  1  0  0  0  0
 20 25  1  0  0  0  0
 21 23  2  0  0  0  0
 22 23  1  0  0  0  0
M  END
> <PUBCHEM_COMPOUND_ID_TYPE>
0

> <PUBCHEM_TOTAL_CHARGE>
0

> <PUBCHEM_SUBSTANCE_ID>
310931530

> <PUBCHEM_SUBSTANCE_VERSION>
1

> <PUBCHEM_EXT_DATASOURCE_NAME>
4488

> <PUBCHEM_EXT_DATASOURCE_REGID>
SCHEMBL16108856

> <PUBCHEM_SUBSTANCE_COMMENT>
InChI=1S/C19H23N5O3/c1-23-12-14(11-21-23)19(13-3-5-16(26-2)6-4-13)17(25)24(18(20)22-19)15-7-9-27-10-8-15/h3-6,11-12,15H,7-10H2,1-2H3,(H2,20,22)
InChIKey=XXMPUAUQXHMTFQ-UHFFFAOYSA-N

> <PUBCHEM_SUBSTANCE_SYNONYM>
SCHEMBL16108856

> <PUBCHEM_XREF_EXT_ID>
SCHEMBL16108856

> <PUBCHEM_EXT_DATASOURCE_URL>
https://www.surechembl.org/

> <PUBCHEM_EXT_SUBSTANCE_URL>
https://www.surechembl.org/chemical/SCHEMBL16108856

> <PUBCHEM_CID_ASSOCIATIONS>
117600284  1

> <PUBCHEM_COORDINATE_TYPE>
1
3

$$$$
