310940472
  -OEChem-07211613022D

 30 32  0     1  0  0  0  0  0999 V2000
    0.6029    2.6287    0.0000 F   0  0  0  0  0  0  0  0  0  0  0  0
    0.9566    1.5193    0.0000 F   0  0  0  0  0  0  0  0  0  0  0  0
   -0.1527    1.1816    0.0000 F   0  0  0  0  0  0  0  0  0  0  0  0
   -2.0178   -1.7926    0.0000 O   0  0  0  0  0  0  0  0  0  0  0  0
   -1.2781   -0.5547    0.0000 N   0  0  0  0  0  0  0  0  0  0  0  0
   -0.5065   -2.6448    0.0000 N   0  0  0  0  0  0  0  0  0  0  0  0
   -0.5065   -2.6448    0.0000 N   0  0  0  0  0  0  0  0  0  0  0  0
    1.5997   -2.1303    0.0000 N   0  0  0  0  0  0  0  0  0  0  0  0
   -1.2460    1.1173    0.0000 C   0  0  3  0  0  0  0  0  0  0  0  0
   -1.2138    1.9374    0.0000 C   0  0  0  0  0  0  0  0  0  0  0  0
   -0.5225    0.6512    0.0000 C   0  0  0  0  0  0  0  0  0  0  0  0
   -0.5065    2.3232    0.0000 C   0  0  0  0  0  0  0  0  0  0  0  0
   -0.5225   -0.1527    0.0000 C   0  0  0  0  0  0  0  0  0  0  0  0
   -1.2942   -1.3746    0.0000 C   0  0  0  0  0  0  0  0  0  0  0  0
   -1.9695    0.6833    0.0000 C   0  0  0  0  0  0  0  0  0  0  0  0
    0.2171    1.9052    0.0000 C   0  0  0  0  0  0  0  0  0  0  0  0
   -1.9213    2.3393    0.0000 C   0  0  0  0  0  0  0  0  0  0  0  0
   -0.5869   -1.8409    0.0000 C   0  0  0  0  0  0  0  0  0  0  0  0
   -0.4743    3.1271    0.0000 C   0  0  0  0  0  0  0  0  0  0  0  0
   -1.9052    3.1753    0.0000 C   0  0  0  0  0  0  0  0  0  0  0  0
   -1.9856   -0.1367    0.0000 C   0  0  0  0  0  0  0  0  0  0  0  0
    0.3135   -2.8216    0.0000 C   0  0  0  0  0  0  0  0  0  0  0  0
   -1.1977    3.5773    0.0000 C   0  0  0  0  0  0  0  0  0  0  0  0
    0.0724   -1.6158    0.0000 C   0  0  0  0  0  0  0  0  0  0  0  0
    0.7637   -2.1303    0.0000 C   0  0  0  0  0  0  0  0  0  0  0  0
    0.7316   -3.5612    0.0000 C   0  0  0  0  0  0  0  0  0  0  0  0
   -1.4389   -0.4743    0.0000 C   0  0  0  0  0  0  0  0  0  0  0  0
    1.5514   -3.5773    0.0000 C   0  0  0  0  0  0  0  0  0  0  0  0
    2.0178   -2.8859    0.0000 C   0  0  0  0  0  0  0  0  0  0  0  0
    0.1367   -1.4067    0.0000 C   0  0  0  0  0  0  0  0  0  0  0  0
  1 16  1  0  0  0  0
  2 16  1  0  0  0  0
  3 16  1  0  0  0  0
  4 14  2  0  0  0  0
  5  9  1  0  0  0  0
  5 13  1  0  0  0  0
  5 14  1  0  0  0  0
  6  7  1  0  0  0  0
  6 18  1  0  0  0  0
  6 22  1  0  0  0  0
  8 25  1  0  0  0  0
  8 29  2  0  0  0  0
  9 10  1  0  0  0  0
  9 11  1  0  0  0  0
  9 15  1  0  0  0  0
 10 12  2  0  0  0  0
 10 17  1  0  0  0  0
 11 13  1  0  0  0  0
 12 16  1  0  0  0  0
 12 19  1  0  0  0  0
 14 18  1  0  0  0  0
 15 21  1  0  0  0  0
 17 20  2  0  0  0  0
 18 24  2  0  0  0  0
 19 23  2  0  0  0  0
 20 23  1  0  0  0  0
 21 27  1  0  0  0  0
 22 25  2  0  0  0  0
 22 26  1  0  0  0  0
 25 30  1  0  0  0  0
 26 28  2  0  0  0  0
 28 29  1  0  0  0  0
M  END
> <PUBCHEM_COMPOUND_ID_TYPE>
0

> <PUBCHEM_TOTAL_CHARGE>
0

> <PUBCHEM_SUBSTANCE_ID>
310940472

> <PUBCHEM_SUBSTANCE_VERSION>
1

> <PUBCHEM_EXT_DATASOURCE_NAME>
4488

> <PUBCHEM_EXT_DATASOURCE_REGID>
SCHEMBL16118425

> <PUBCHEM_SUBSTANCE_COMMENT>
InChI=1S/C22H25F3N4O/c1-4-11-21(17-8-5-6-9-18(17)22(23,24)25)12-14-28(21)20(30)16(3)29(26)19-10-7-13-27-15(19)2/h5-10,13H,3-4,11-12,14,26H2,1-2H3
InChIKey=OHRHRTVSSKSSGG-UHFFFAOYSA-N

> <PUBCHEM_SUBSTANCE_SYNONYM>
SCHEMBL16118425

> <PUBCHEM_XREF_EXT_ID>
SCHEMBL16118425

> <PUBCHEM_EXT_DATASOURCE_URL>
https://www.surechembl.org/

> <PUBCHEM_EXT_SUBSTANCE_URL>
https://www.surechembl.org/chemical/SCHEMBL16118425

> <PUBCHEM_CID_ASSOCIATIONS>
117607490  1

> <PUBCHEM_COORDINATE_TYPE>
1
3

$$$$
