310949444
  -OEChem-07211613022D

 31 33  0     1  0  0  0  0  0999 V2000
   -1.7087    1.2815    0.0000 Cl  0  0  0  0  0  0  0  0  0  0  0  0
   -3.8592    0.0442    0.0000 F   0  0  0  0  0  0  0  0  0  0  0  0
   -3.8592    0.8691    0.0000 F   0  0  0  0  0  0  0  0  0  0  0  0
   -3.1374    1.2815    0.0000 F   0  0  0  0  0  0  0  0  0  0  0  0
   -0.2798    1.2815    0.0000 O   0  0  0  0  0  0  0  0  0  0  0  0
    0.4419    1.6939    0.0000 O   0  0  0  0  0  0  0  0  0  0  0  0
    0.4419    0.0442    0.0000 N   0  0  0  0  0  0  0  0  0  0  0  0
    2.6661   -1.0458    0.0000 N   0  0  0  0  0  0  0  0  0  0  0  0
    2.6661    0.3094    0.0000 N   0  0  0  0  0  0  0  0  0  0  0  0
    1.8855    1.7087    0.0000 N   0  0  0  0  0  0  0  0  0  0  0  0
    3.7414   -2.0033    0.0000 N   0  0  0  0  0  0  0  0  0  0  0  0
    1.1489    0.4566    0.0000 C   0  0  3  0  0  0  0  0  0  0  0  0
    1.8855    0.0442    0.0000 C   0  0  0  0  0  0  0  0  0  0  0  0
    1.8707   -0.7807    0.0000 C   0  0  0  0  0  0  0  0  0  0  0  0
   -0.2798    0.4419    0.0000 C   0  0  0  0  0  0  0  0  0  0  0  0
   -0.9869    0.0442    0.0000 C   0  0  0  0  0  0  0  0  0  0  0  0
    1.1784    1.2815    0.0000 C   0  0  0  0  0  0  0  0  0  0  0  0
    0.4419   -0.7807    0.0000 C   0  0  0  0  0  0  0  0  0  0  0  0
    1.1784   -1.1931    0.0000 C   0  0  0  0  0  0  0  0  0  0  0  0
   -1.7234    0.4566    0.0000 C   0  0  0  0  0  0  0  0  0  0  0  0
    3.1522   -0.3830    0.0000 C   0  0  0  0  0  0  0  0  0  0  0  0
   -2.4304    0.0442    0.0000 C   0  0  0  0  0  0  0  0  0  0  0  0
    2.9312   -1.8265    0.0000 C   0  0  0  0  0  0  0  0  0  0  0  0
   -3.1670    0.4566    0.0000 C   0  0  0  0  0  0  0  0  0  0  0  0
   -1.0016   -0.7807    0.0000 C   0  0  0  0  0  0  0  0  0  0  0  0
   -2.4304   -0.7807    0.0000 C   0  0  0  0  0  0  0  0  0  0  0  0
   -1.7087   -1.1931    0.0000 C   0  0  0  0  0  0  0  0  0  0  0  0
    2.4599   -2.4894    0.0000 C   0  0  0  0  0  0  0  0  0  0  0  0
    1.8707    2.5483    0.0000 C   0  0  0  0  0  0  0  0  0  0  0  0
    2.6219    1.2667    0.0000 C   0  0  0  0  0  0  0  0  0  0  0  0
    3.8592   -2.5483    0.0000 C   0  0  0  0  0  0  0  0  0  0  0  0
  1 20  1  0  0  0  0
  2 24  1  0  0  0  0
  3 24  1  0  0  0  0
  4 24  1  0  0  0  0
  5 15  2  0  0  0  0
  6 17  2  0  0  0  0
  7 12  1  0  0  0  0
  7 15  1  0  0  0  0
  7 18  1  0  0  0  0
  8 14  1  0  0  0  0
  8 21  1  0  0  0  0
  8 23  1  0  0  0  0
  9 13  1  0  0  0  0
  9 21  2  0  0  0  0
 10 17  1  0  0  0  0
 10 29  1  0  0  0  0
 10 30  1  0  0  0  0
 11 23  1  0  0  0  0
 11 31  2  0  0  0  0
 12 13  1  0  0  0  0
 12 17  1  0  0  0  0
 13 14  2  0  0  0  0
 14 19  1  0  0  0  0
 15 16  1  0  0  0  0
 16 20  2  0  0  0  0
 16 25  1  0  0  0  0
 18 19  1  0  0  0  0
 20 22  1  0  0  0  0
 22 24  1  0  0  0  0
 22 26  2  0  0  0  0
 23 28  2  0  0  0  0
 25 27  2  0  0  0  0
 26 27  1  0  0  0  0
M  END
> <PUBCHEM_COMPOUND_ID_TYPE>
0

> <PUBCHEM_TOTAL_CHARGE>
0

> <PUBCHEM_SUBSTANCE_ID>
310949444

> <PUBCHEM_SUBSTANCE_VERSION>
1

> <PUBCHEM_EXT_DATASOURCE_NAME>
4488

> <PUBCHEM_EXT_DATASOURCE_REGID>
SCHEMBL16127638

> <PUBCHEM_SUBSTANCE_COMMENT>
InChI=1S/C20H19ClF3N5O2/c1-11(25-2)29-10-26-16-14(29)8-9-28(17(16)19(31)27(3)4)18(30)12-6-5-7-13(15(12)21)20(22,23)24/h5-7,10,17H,1-2,8-9H2,3-4H3
InChIKey=SZDNQVVBDSGUOH-UHFFFAOYSA-N

> <PUBCHEM_SUBSTANCE_SYNONYM>
SCHEMBL16127638

> <PUBCHEM_XREF_EXT_ID>
SCHEMBL16127638

> <PUBCHEM_EXT_DATASOURCE_URL>
https://www.surechembl.org/

> <PUBCHEM_EXT_SUBSTANCE_URL>
https://www.surechembl.org/chemical/SCHEMBL16127638

> <PUBCHEM_CID_ASSOCIATIONS>
117614891  1

> <PUBCHEM_COORDINATE_TYPE>
1
3

$$$$
