310935057
  -OEChem-07211613022D

 21 22  0     1  0  0  0  0  0999 V2000
    0.8489   -1.6624    0.0000 O   0  0  0  0  0  0  0  0  0  0  0  0
    2.2637   -1.6624    0.0000 O   0  0  0  0  0  0  0  0  0  0  0  0
    1.5563   -2.9004    0.0000 N   0  0  0  0  0  0  0  0  0  0  0  0
    1.5563   -4.5628    0.0000 C   0  0  3  0  0  0  0  0  0  0  0  0
    2.2990   -4.1383    0.0000 C   0  0  3  0  0  0  0  0  0  0  0  0
    1.5563   -2.0515    0.0000 C   0  0  0  0  0  0  0  0  0  0  0  0
    2.2990   -3.3248    0.0000 C   0  0  0  0  0  0  0  0  0  0  0  0
    0.8489   -3.3248    0.0000 C   0  0  0  0  0  0  0  0  0  0  0  0
    0.8489   -4.1383    0.0000 C   0  0  0  0  0  0  0  0  0  0  0  0
    1.5563   -5.4117    0.0000 C   0  0  0  0  0  0  0  0  0  0  0  0
    0.8489   -0.8135    0.0000 C   0  0  0  0  0  0  0  0  0  0  0  0
    2.2637   -5.8361    0.0000 C   0  0  0  0  0  0  0  0  0  0  0  0
    3.0065   -4.5628    0.0000 C   0  0  0  0  0  0  0  0  0  0  0  0
    2.2637   -6.6496    0.0000 C   0  0  0  0  0  0  0  0  0  0  0  0
    3.0065   -5.4117    0.0000 C   0  0  0  0  0  0  0  0  0  0  0  0
    1.6978   -0.8135    0.0000 C   0  0  0  0  0  0  0  0  0  0  0  0
    0.8489    0.0000    0.0000 C   0  0  0  0  0  0  0  0  0  0  0  0
    0.0000   -0.8135    0.0000 C   0  0  0  0  0  0  0  0  0  0  0  0
    3.0065   -7.0740    0.0000 C   0  0  0  0  0  0  0  0  0  0  0  0
    3.7139   -5.8007    0.0000 C   0  0  0  0  0  0  0  0  0  0  0  0
    3.7139   -6.6496    0.0000 C   0  0  0  0  0  0  0  0  0  0  0  0
  1  6  1  0  0  0  0
  1 11  1  0  0  0  0
  2  6  2  0  0  0  0
  3  6  1  0  0  0  0
  3  7  1  0  0  0  0
  3  8  1  0  0  0  0
  4  5  1  0  0  0  0
  4  9  1  0  0  0  0
  4 10  1  0  0  0  0
  5  7  1  0  0  0  0
  5 13  1  0  0  0  0
  8  9  1  0  0  0  0
 10 12  1  0  0  0  0
 11 16  1  0  0  0  0
 11 17  1  0  0  0  0
 11 18  1  0  0  0  0
 12 14  2  0  0  0  0
 12 15  1  0  0  0  0
 14 19  1  0  0  0  0
 15 20  2  0  0  0  0
 19 21  2  0  0  0  0
 20 21  1  0  0  0  0
M  END
> <PUBCHEM_COMPOUND_ID_TYPE>
0

> <PUBCHEM_TOTAL_CHARGE>
0

> <PUBCHEM_SUBSTANCE_ID>
310935057

> <PUBCHEM_SUBSTANCE_VERSION>
1

> <PUBCHEM_EXT_DATASOURCE_NAME>
4488

> <PUBCHEM_EXT_DATASOURCE_REGID>
SCHEMBL16112577

> <PUBCHEM_SUBSTANCE_COMMENT>
InChI=1S/C18H27NO2/c1-14-13-19(17(20)21-18(2,3)4)11-10-16(14)12-15-8-6-5-7-9-15/h5-9,14,16H,10-13H2,1-4H3
InChIKey=LAAUDIBPCYCPDK-UHFFFAOYSA-N

> <PUBCHEM_SUBSTANCE_SYNONYM>
SCHEMBL16112577

> <PUBCHEM_XREF_EXT_ID>
SCHEMBL16112577

> <PUBCHEM_EXT_DATASOURCE_URL>
https://www.surechembl.org/

> <PUBCHEM_EXT_SUBSTANCE_URL>
https://www.surechembl.org/chemical/SCHEMBL16112577

> <PUBCHEM_CID_ASSOCIATIONS>
117603157  1

> <PUBCHEM_COORDINATE_TYPE>
1
3

$$$$
