310939649
  -OEChem-07211613022D

 33 36  0     1  0  0  0  0  0999 V2000
   -1.7862    4.7566    0.0000 O   0  0  0  0  0  0  0  0  0  0  0  0
   -3.2151    3.9316    0.0000 O   0  0  0  0  0  0  0  0  0  0  0  0
    1.0717    3.9316    0.0000 N   0  0  0  0  0  0  0  0  0  0  0  0
    2.5006    3.9316    0.0000 N   0  0  0  0  0  0  0  0  0  0  0  0
    3.2151    5.1691    0.0000 N   0  0  3  0  0  0  0  0  0  0  0  0
    1.7862    1.0441    0.0000 N   0  0  0  0  0  0  0  0  0  0  0  0
   -4.6441    4.7566    0.0000 N   0  0  0  0  0  0  0  0  0  0  0  0
    1.0717    4.7566    0.0000 C   0  0  0  0  0  0  0  0  0  0  0  0
    2.5006    4.7566    0.0000 C   0  0  0  0  0  0  0  0  0  0  0  0
    1.7862    3.5191    0.0000 C   0  0  0  0  0  0  0  0  0  0  0  0
    0.3572    5.1691    0.0000 C   0  0  0  0  0  0  0  0  0  0  0  0
    1.7862    5.1691    0.0000 C   0  0  0  0  0  0  0  0  0  0  0  0
    1.7862    2.6941    0.0000 C   0  0  0  0  0  0  0  0  0  0  0  0
    3.9296    4.7566    0.0000 C   0  0  0  0  0  0  0  0  0  0  0  0
   -0.3572    4.7566    0.0000 C   0  0  0  0  0  0  0  0  0  0  0  0
    0.3572    5.9941    0.0000 C   0  0  0  0  0  0  0  0  0  0  0  0
   -1.0717    5.1691    0.0000 C   0  0  0  0  0  0  0  0  0  0  0  0
    1.0717    2.2816    0.0000 C   0  0  0  0  0  0  0  0  0  0  0  0
    2.5006    2.2816    0.0000 C   0  0  0  0  0  0  0  0  0  0  0  0
   -0.3572    6.4066    0.0000 C   0  0  0  0  0  0  0  0  0  0  0  0
   -1.0717    5.9941    0.0000 C   0  0  0  0  0  0  0  0  0  0  0  0
    3.9296    3.9316    0.0000 C   0  0  0  0  0  0  0  0  0  0  0  0
    4.6441    5.1691    0.0000 C   0  0  0  0  0  0  0  0  0  0  0  0
    3.2151    5.9941    0.0000 C   0  0  0  0  0  0  0  0  0  0  0  0
    1.0717    1.4566    0.0000 C   0  0  0  0  0  0  0  0  0  0  0  0
    2.5006    1.4566    0.0000 C   0  0  0  0  0  0  0  0  0  0  0  0
    4.6441    3.5191    0.0000 C   0  0  0  0  0  0  0  0  0  0  0  0
    5.3585    4.7566    0.0000 C   0  0  0  0  0  0  0  0  0  0  0  0
    5.3585    3.9316    0.0000 C   0  0  0  0  0  0  0  0  0  0  0  0
   -2.5006    5.1691    0.0000 C   0  0  0  0  0  0  0  0  0  0  0  0
   -3.2151    4.7566    0.0000 C   0  0  3  0  0  0  0  0  0  0  0  0
   -3.9296    5.1691    0.0000 C   0  0  0  0  0  0  0  0  0  0  0  0
   -5.3585    5.1691    0.0000 C   0  0  0  0  0  0  0  0  0  0  0  0
  1 17  1  0  0  0  0
  1 30  1  0  0  0  0
  2 31  1  0  0  0  0
  3  8  2  0  0  0  0
  3 10  1  0  0  0  0
  4  9  1  0  0  0  0
  4 10  2  0  0  0  0
  5  9  1  0  0  0  0
  5 14  1  0  0  0  0
  5 24  1  0  0  0  0
  6 25  2  0  0  0  0
  6 26  1  0  0  0  0
  7 32  1  0  0  0  0
  7 33  1  0  0  0  0
  8 11  1  0  0  0  0
  8 12  1  0  0  0  0
  9 12  2  0  0  0  0
 10 13  1  0  0  0  0
 11 15  2  0  0  0  0
 11 16  1  0  0  0  0
 13 18  2  0  0  0  0
 13 19  1  0  0  0  0
 14 22  1  0  0  0  0
 14 23  1  0  0  0  0
 15 17  1  0  0  0  0
 16 20  2  0  0  0  0
 17 21  2  0  0  0  0
 18 25  1  0  0  0  0
 19 26  2  0  0  0  0
 20 21  1  0  0  0  0
 22 27  1  0  0  0  0
 23 28  1  0  0  0  0
 27 29  1  0  0  0  0
 28 29  1  0  0  0  0
 30 31  1  0  0  0  0
 31 32  1  0  0  0  0
M  END
> <PUBCHEM_COMPOUND_ID_TYPE>
0

> <PUBCHEM_TOTAL_CHARGE>
0

> <PUBCHEM_SUBSTANCE_ID>
310939649

> <PUBCHEM_SUBSTANCE_VERSION>
1

> <PUBCHEM_EXT_DATASOURCE_NAME>
4488

> <PUBCHEM_EXT_DATASOURCE_REGID>
SCHEMBL16117579

> <PUBCHEM_SUBSTANCE_COMMENT>
InChI=1S/C26H33N5O2/c1-27-17-22(32)18-33-23-10-6-7-20(15-23)24-16-25(31(2)21-8-4-3-5-9-21)30-26(29-24)19-11-13-28-14-12-19/h6-7,10-16,21-22,27,32H,3-5,8-9,17-18H2,1-2H3
InChIKey=KNIGAXPHJVTJSM-UHFFFAOYSA-N

> <PUBCHEM_SUBSTANCE_SYNONYM>
SCHEMBL16117579

> <PUBCHEM_XREF_EXT_ID>
SCHEMBL16117579

> <PUBCHEM_EXT_DATASOURCE_URL>
https://www.surechembl.org/

> <PUBCHEM_EXT_SUBSTANCE_URL>
https://www.surechembl.org/chemical/SCHEMBL16117579

> <PUBCHEM_CID_ASSOCIATIONS>
117606884  1

> <PUBCHEM_COORDINATE_TYPE>
1
3

$$$$
