310945658
  -OEChem-07211613022D

 31 34  0     1  0  0  0  0  0999 V2000
    3.5740    0.8142    0.0000 O   0  0  0  0  0  0  0  0  0  0  0  0
   -5.1813   -0.6661    0.0000 O   0  0  0  0  0  0  0  0  0  0  0  0
    5.1813   -0.8565    0.0000 O   0  0  0  0  0  0  0  0  0  0  0  0
    4.8852   -2.2523    0.0000 O   0  0  0  0  0  0  0  0  0  0  0  0
    0.6556    0.9411    0.0000 N   0  0  0  0  0  0  0  0  0  0  0  0
    2.7069   -0.1798    0.0000 C   0  0  0  0  0  0  0  0  0  0  0  0
    2.7281    0.6238    0.0000 C   0  0  0  0  0  0  0  0  0  0  0  0
    3.4894   -0.4546    0.0000 C   0  0  3  0  0  0  0  0  0  0  0  0
   -2.9607    0.6238    0.0000 C   0  0  0  0  0  0  0  0  0  0  0  0
   -2.2628    1.0468    0.0000 C   0  0  0  0  0  0  0  0  0  0  0  0
    1.2900    0.6238    0.0000 C   0  0  0  0  0  0  0  0  0  0  0  0
    1.9879    1.0257    0.0000 C   0  0  0  0  0  0  0  0  0  0  0  0
    1.9879   -0.6027    0.0000 C   0  0  0  0  0  0  0  0  0  0  0  0
    3.9758    0.2221    0.0000 C   0  0  0  0  0  0  0  0  0  0  0  0
   -3.7009    1.0257    0.0000 C   0  0  0  0  0  0  0  0  0  0  0  0
   -2.9819   -0.1798    0.0000 C   0  0  0  0  0  0  0  0  0  0  0  0
    1.3111   -0.2009    0.0000 C   0  0  0  0  0  0  0  0  0  0  0  0
   -0.8459    1.0468    0.0000 C   0  0  0  0  0  0  0  0  0  0  0  0
    3.7643   -1.2372    0.0000 C   0  0  0  0  0  0  0  0  0  0  0  0
   -1.5438    0.6450    0.0000 C   0  0  0  0  0  0  0  0  0  0  0  0
   -4.3776    0.6238    0.0000 C   0  0  0  0  0  0  0  0  0  0  0  0
   -3.7009   -0.6027    0.0000 C   0  0  0  0  0  0  0  0  0  0  0  0
   -4.4199   -0.2009    0.0000 C   0  0  0  0  0  0  0  0  0  0  0  0
   -2.2417    1.8504    0.0000 C   0  0  0  0  0  0  0  0  0  0  0  0
   -0.1057    0.6238    0.0000 C   0  0  0  0  0  0  0  0  0  0  0  0
   -0.8459    1.8504    0.0000 C   0  0  0  0  0  0  0  0  0  0  0  0
    4.5468   -1.4064    0.0000 C   0  0  0  0  0  0  0  0  0  0  0  0
   -1.5861    2.2523    0.0000 C   0  0  0  0  0  0  0  0  0  0  0  0
   -3.6798    1.8716    0.0000 C   0  0  0  0  0  0  0  0  0  0  0  0
   -2.2417   -0.6238    0.0000 C   0  0  0  0  0  0  0  0  0  0  0  0
    4.8429   -0.0106    0.0000 C   0  0  0  0  0  0  0  0  0  0  0  0
  1  7  1  0  0  0  0
  1 14  1  0  0  0  0
  2 23  1  0  0  0  0
  3 27  1  0  0  0  0
  3 31  1  0  0  0  0
  4 27  2  0  0  0  0
  5 11  1  0  0  0  0
  5 25  1  0  0  0  0
  6  7  1  0  0  0  0
  6  8  1  0  0  0  0
  6 13  2  0  0  0  0
  7 12  2  0  0  0  0
  8 14  1  0  0  0  0
  8 19  1  0  0  0  0
  9 10  1  0  0  0  0
  9 15  2  0  0  0  0
  9 16  1  0  0  0  0
 10 20  2  0  0  0  0
 10 24  1  0  0  0  0
 11 12  1  0  0  0  0
 11 17  2  0  0  0  0
 13 17  1  0  0  0  0
 15 21  1  0  0  0  0
 15 29  1  0  0  0  0
 16 22  2  0  0  0  0
 16 30  1  0  0  0  0
 18 20  1  0  0  0  0
 18 25  1  0  0  0  0
 18 26  2  0  0  0  0
 19 27  1  0  0  0  0
 21 23  2  0  0  0  0
 22 23  1  0  0  0  0
 24 28  2  0  0  0  0
 26 28  1  0  0  0  0
M  END
> <PUBCHEM_COMPOUND_ID_TYPE>
0

> <PUBCHEM_TOTAL_CHARGE>
0

> <PUBCHEM_SUBSTANCE_ID>
310945658

> <PUBCHEM_SUBSTANCE_VERSION>
1

> <PUBCHEM_EXT_DATASOURCE_NAME>
4488

> <PUBCHEM_EXT_DATASOURCE_REGID>
SCHEMBL16123757

> <PUBCHEM_SUBSTANCE_COMMENT>
InChI=1S/C26H27NO4/c1-16-9-22(28)10-17(2)26(16)19-6-4-5-18(11-19)14-27-21-7-8-23-20(12-25(29)30-3)15-31-24(23)13-21/h4-11,13,20,27-28H,12,14-15H2,1-3H3
InChIKey=VCYRIUDRYFENIT-UHFFFAOYSA-N

> <PUBCHEM_SUBSTANCE_SYNONYM>
SCHEMBL16123757

> <PUBCHEM_XREF_EXT_ID>
SCHEMBL16123757

> <PUBCHEM_EXT_DATASOURCE_URL>
https://www.surechembl.org/

> <PUBCHEM_EXT_SUBSTANCE_URL>
https://www.surechembl.org/chemical/SCHEMBL16123757

> <PUBCHEM_CID_ASSOCIATIONS>
117611659  1

> <PUBCHEM_COORDINATE_TYPE>
1
3

$$$$
