310932652
  -OEChem-07211613022D

 10 11  0     1  0  0  0  0  0999 V2000
    0.7961   -1.9074    0.0000 N   0  0  3  0  0  0  0  0  0  0  0  0
    2.1728   -3.3173    0.0000 N   0  0  0  0  0  0  0  0  0  0  0  0
    1.3766   -2.4879    0.0000 C   0  0  0  0  0  0  0  0  0  0  0  0
    0.9952   -1.1113    0.0000 C   0  0  0  0  0  0  0  0  0  0  0  0
    1.3766   -3.3173    0.0000 C   0  0  0  0  0  0  0  0  0  0  0  0
    2.1894   -2.4879    0.0000 C   0  0  0  0  0  0  0  0  0  0  0  0
    0.5971   -0.4146    0.0000 C   0  0  0  0  0  0  0  0  0  0  0  0
    1.7250   -0.7132    0.0000 C   0  0  0  0  0  0  0  0  0  0  0  0
    1.3103    0.0000    0.0000 C   0  0  0  0  0  0  0  0  0  0  0  0
    0.0000   -2.1230    0.0000 C   0  0  0  0  0  0  0  0  0  0  0  0
  1  3  1  0  0  0  0
  1  4  1  0  0  0  0
  1 10  1  0  0  0  0
  2  5  1  0  0  0  0
  2  6  1  0  0  0  0
  3  5  1  0  0  0  0
  3  6  1  0  0  0  0
  4  7  1  0  0  0  0
  4  8  1  0  0  0  0
  7  9  1  0  0  0  0
  8  9  1  0  0  0  0
M  END
> <PUBCHEM_COMPOUND_ID_TYPE>
0

> <PUBCHEM_TOTAL_CHARGE>
0

> <PUBCHEM_SUBSTANCE_ID>
310932652

> <PUBCHEM_SUBSTANCE_VERSION>
1

> <PUBCHEM_EXT_DATASOURCE_NAME>
4488

> <PUBCHEM_EXT_DATASOURCE_REGID>
SCHEMBL16110031

> <PUBCHEM_SUBSTANCE_COMMENT>
InChI=1S/C8H16N2/c1-10(7-3-2-4-7)8-5-9-6-8/h7-9H,2-6H2,1H3
InChIKey=NMVXAWCEPLDEFP-UHFFFAOYSA-N

> <PUBCHEM_SUBSTANCE_SYNONYM>
SCHEMBL16110031

> <PUBCHEM_XREF_EXT_ID>
SCHEMBL16110031

> <PUBCHEM_EXT_DATASOURCE_URL>
https://www.surechembl.org/

> <PUBCHEM_EXT_SUBSTANCE_URL>
https://www.surechembl.org/chemical/SCHEMBL16110031

> <PUBCHEM_CID_ASSOCIATIONS>
66186802  1

> <PUBCHEM_COORDINATE_TYPE>
1
3

$$$$
