310931226
  -OEChem-07211613022D

 39 43  0     1  0  0  0  0  0999 V2000
    0.0000   -5.4086    0.0000 Br  0  0  0  0  0  0  0  0  0  0  0  0
    4.3085   -6.2795    0.0000 O   0  0  0  0  0  0  0  0  0  0  0  0
    2.2001   -6.6462    0.0000 O   0  0  0  0  0  0  0  0  0  0  0  0
    2.8877   -7.9296    0.0000 O   0  0  0  0  0  0  0  0  0  0  0  0
    5.0419   -4.9961    0.0000 O   0  0  0  0  0  0  0  0  0  0  0  0
    2.3376   -5.1794    0.0000 O   0  0  0  0  0  0  0  0  0  0  0  0
    2.8877   -2.9335    0.0000 O   0  0  0  0  0  0  0  0  0  0  0  0
    3.6210   -2.5209    0.0000 O   0  0  0  0  0  0  0  0  0  0  0  0
    3.6210   -4.1711    0.0000 N   0  0  0  0  0  0  0  0  0  0  0  0
    5.0419   -2.5209    0.0000 N   0  0  0  0  0  0  0  0  0  0  0  0
    3.6210   -4.9961    0.0000 C   0  0  3  0  0  0  0  0  0  0  0  0
    2.8877   -6.2336    0.0000 C   0  0  3  0  0  0  0  0  0  0  0  0
    2.8877   -5.4545    0.0000 C   0  0  3  0  0  0  0  0  0  0  0  0
    3.6210   -6.6462    0.0000 C   0  0  3  0  0  0  0  0  0  0  0  0
    4.3085   -5.4086    0.0000 C   0  0  3  0  0  0  0  0  0  0  0  0
    2.8877   -3.7585    0.0000 C   0  0  0  0  0  0  0  0  0  0  0  0
    2.2001   -7.5171    0.0000 C   0  0  3  0  0  0  0  0  0  0  0  0
    3.6210   -7.4712    0.0000 C   0  0  0  0  0  0  0  0  0  0  0  0
    4.3085   -3.7585    0.0000 C   0  0  0  0  0  0  0  0  0  0  0  0
    2.1543   -4.1711    0.0000 C   0  0  0  0  0  0  0  0  0  0  0  0
    1.4668   -7.9296    0.0000 C   0  0  0  0  0  0  0  0  0  0  0  0
    4.3085   -2.9335    0.0000 C   0  0  0  0  0  0  0  0  0  0  0  0
    1.4668   -3.7585    0.0000 C   0  0  0  0  0  0  0  0  0  0  0  0
    2.1543   -4.9961    0.0000 C   0  0  0  0  0  0  0  0  0  0  0  0
    1.4668   -8.7546    0.0000 C   0  0  0  0  0  0  0  0  0  0  0  0
    0.7334   -7.5171    0.0000 C   0  0  0  0  0  0  0  0  0  0  0  0
    5.0419   -4.1711    0.0000 C   0  0  0  0  0  0  0  0  0  0  0  0
    0.7334   -4.1711    0.0000 C   0  0  0  0  0  0  0  0  0  0  0  0
    1.4668   -5.4086    0.0000 C   0  0  0  0  0  0  0  0  0  0  0  0
    0.7334   -4.9961    0.0000 C   0  0  0  0  0  0  0  0  0  0  0  0
    0.7334   -9.1671    0.0000 C   0  0  0  0  0  0  0  0  0  0  0  0
    0.0458   -7.9296    0.0000 C   0  0  0  0  0  0  0  0  0  0  0  0
    5.0419   -1.6959    0.0000 C   0  0  0  0  0  0  0  0  0  0  0  0
    0.0458   -8.7546    0.0000 C   0  0  0  0  0  0  0  0  0  0  0  0
    4.3544   -1.2375    0.0000 C   0  0  0  0  0  0  0  0  0  0  0  0
    5.7753   -1.2375    0.0000 C   0  0  0  0  0  0  0  0  0  0  0  0
    4.3544   -0.4583    0.0000 C   0  0  0  0  0  0  0  0  0  0  0  0
    5.7753   -0.4583    0.0000 C   0  0  0  0  0  0  0  0  0  0  0  0
    5.0419    0.0000    0.0000 C   0  0  0  0  0  0  0  0  0  0  0  0
  1 30  1  0  0  0  0
  2 14  1  0  0  0  0
  2 15  1  0  0  0  0
  3 12  1  0  0  0  0
  3 17  1  0  0  0  0
  4 17  1  0  0  0  0
  4 18  1  0  0  0  0
  5 15  1  0  0  0  0
  5 27  1  0  0  0  0
  6 13  1  0  0  0  0
  7 16  2  0  0  0  0
  8 22  2  0  0  0  0
  9 11  1  0  0  0  0
  9 16  1  0  0  0  0
  9 19  1  0  0  0  0
 10 22  1  0  0  0  0
 10 33  1  0  0  0  0
 11 13  1  0  0  0  0
 11 15  1  0  0  0  0
 12 13  1  0  0  0  0
 12 14  1  0  0  0  0
 14 18  1  0  0  0  0
 16 20  1  0  0  0  0
 17 21  1  0  0  0  0
 19 22  1  0  0  0  0
 20 23  2  0  0  0  0
 20 24  1  0  0  0  0
 21 25  2  0  0  0  0
 21 26  1  0  0  0  0
 23 28  1  0  0  0  0
 24 29  2  0  0  0  0
 25 31  1  0  0  0  0
 26 32  2  0  0  0  0
 28 30  2  0  0  0  0
 29 30  1  0  0  0  0
 31 34  2  0  0  0  0
 32 34  1  0  0  0  0
 33 35  1  0  0  0  0
 33 36  1  0  0  0  0
 35 37  1  0  0  0  0
 36 38  1  0  0  0  0
 37 39  1  0  0  0  0
 38 39  1  0  0  0  0
M  END
> <PUBCHEM_COMPOUND_ID_TYPE>
0

> <PUBCHEM_TOTAL_CHARGE>
0

> <PUBCHEM_SUBSTANCE_ID>
310931226

> <PUBCHEM_SUBSTANCE_VERSION>
1

> <PUBCHEM_EXT_DATASOURCE_NAME>
4488

> <PUBCHEM_EXT_DATASOURCE_REGID>
SCHEMBL16108535

> <PUBCHEM_SUBSTANCE_COMMENT>
InChI=1S/C29H35BrN2O7/c1-36-29-24(25(34)26-22(38-29)17-37-28(39-26)19-8-4-2-5-9-19)32(27(35)18-12-14-20(30)15-13-18)16-23(33)31-21-10-6-3-7-11-21/h2,4-5,8-9,12-15,21-22,24-26,28-29,34H,3,6-7,10-11,16-17H2,1H3,(H,31,33)
InChIKey=FDMLXKRATWCGKL-UHFFFAOYSA-N

> <PUBCHEM_SUBSTANCE_SYNONYM>
SCHEMBL16108535

> <PUBCHEM_XREF_EXT_ID>
SCHEMBL16108535

> <PUBCHEM_EXT_DATASOURCE_URL>
https://www.surechembl.org/

> <PUBCHEM_EXT_SUBSTANCE_URL>
https://www.surechembl.org/chemical/SCHEMBL16108535

> <PUBCHEM_CID_ASSOCIATIONS>
117600068  1

> <PUBCHEM_COORDINATE_TYPE>
1
3

$$$$
