310937497
  -OEChem-07211613022D

 13 13  0     1  0  0  0  0  0999 V2000
    1.5746   -2.1290    0.0000 O   0  0  0  0  0  0  0  0  0  0  0  0
    1.7964   -3.5705    0.0000 O   0  0  0  0  0  0  0  0  0  0  0  0
    0.3327   -4.3467    0.0000 O   0  0  0  0  0  0  0  0  0  0  0  0
    0.2439   -2.1290    0.0000 N   0  0  0  0  0  0  0  0  0  0  0  0
    0.9093   -1.6411    0.0000 C   0  0  3  0  0  0  0  0  0  0  0  0
    0.4879   -2.9052    0.0000 C   0  0  3  0  0  0  0  0  0  0  0  0
    0.9093   -0.8205    0.0000 C   0  0  0  0  0  0  0  0  0  0  0  0
    1.3307   -2.9052    0.0000 C   0  0  0  0  0  0  0  0  0  0  0  0
    0.0000   -3.5705    0.0000 C   0  0  0  0  0  0  0  0  0  0  0  0
    1.7520   -0.8205    0.0000 C   0  0  0  0  0  0  0  0  0  0  0  0
    0.9093    0.0000    0.0000 C   0  0  0  0  0  0  0  0  0  0  0  0
    0.0887   -0.8205    0.0000 C   0  0  0  0  0  0  0  0  0  0  0  0
    1.1754   -4.4354    0.0000 C   0  0  0  0  0  0  0  0  0  0  0  0
  1  5  1  0  0  0  0
  1  8  1  0  0  0  0
  2  8  2  0  0  0  0
  3  9  1  0  0  0  0
  3 13  1  0  0  0  0
  4  5  1  0  0  0  0
  4  6  1  0  0  0  0
  5  7  1  0  0  0  0
  6  8  1  0  0  0  0
  6  9  1  0  0  0  0
  7 10  1  0  0  0  0
  7 11  1  0  0  0  0
  7 12  1  0  0  0  0
M  END
> <PUBCHEM_COMPOUND_ID_TYPE>
0

> <PUBCHEM_TOTAL_CHARGE>
0

> <PUBCHEM_SUBSTANCE_ID>
310937497

> <PUBCHEM_SUBSTANCE_VERSION>
1

> <PUBCHEM_EXT_DATASOURCE_NAME>
4488

> <PUBCHEM_EXT_DATASOURCE_REGID>
SCHEMBL16115268

> <PUBCHEM_SUBSTANCE_COMMENT>
InChI=1S/C9H17NO3/c1-9(2,3)8-10-6(5-12-4)7(11)13-8/h6,8,10H,5H2,1-4H3
InChIKey=FKLSWUXSJYRQJM-UHFFFAOYSA-N

> <PUBCHEM_SUBSTANCE_SYNONYM>
SCHEMBL16115268

> <PUBCHEM_XREF_EXT_ID>
SCHEMBL16115268

> <PUBCHEM_EXT_DATASOURCE_URL>
https://www.surechembl.org/

> <PUBCHEM_EXT_SUBSTANCE_URL>
https://www.surechembl.org/chemical/SCHEMBL16115268

> <PUBCHEM_CID_ASSOCIATIONS>
117605232  1

> <PUBCHEM_COORDINATE_TYPE>
1
3

$$$$
