310945887
  -OEChem-07211613022D

 39 41  0     1  0  0  0  0  0999 V2000
    5.0713    0.6858    0.0000 O   0  0  0  0  0  0  0  0  0  0  0  0
    3.9490   -1.2817    0.0000 O   0  0  0  0  0  0  0  0  0  0  0  0
    1.7874    0.7967    0.0000 O   0  0  0  0  0  0  0  0  0  0  0  0
   -0.3603   -1.2817    0.0000 O   0  0  0  0  0  0  0  0  0  0  0  0
    3.9490   -2.9444    0.0000 O   0  0  0  0  0  0  0  0  0  0  0  0
   -2.5079    0.7967    0.0000 O   0  0  0  0  0  0  0  0  0  0  0  0
   -3.9490   -0.0346    0.0000 O   0  0  0  0  0  0  0  0  0  0  0  0
    2.5079   -0.4503    0.0000 N   0  0  0  0  0  0  0  0  0  0  0  0
    0.3464   -0.0346    0.0000 N   0  0  0  0  0  0  0  0  0  0  0  0
   -1.8013   -0.4503    0.0000 N   0  0  0  0  0  0  0  0  0  0  0  0
    4.6556   -0.0070    0.0000 C   0  0  3  0  0  0  0  0  0  0  0  0
    3.9351   -0.4088    0.0000 C   0  0  0  0  0  0  0  0  0  0  0  0
    4.2538    0.6858    0.0000 C   0  0  0  0  0  0  0  0  0  0  0  0
    3.2146   -0.0208    0.0000 C   0  0  3  0  0  0  0  0  0  0  0  0
    5.3900   -0.4364    0.0000 C   0  0  0  0  0  0  0  0  0  0  0  0
    3.2285    1.2956    0.0000 C   0  0  0  0  0  0  0  0  0  0  0  0
    1.7736   -0.0485    0.0000 C   0  0  0  0  0  0  0  0  0  0  0  0
    1.0669   -0.4364    0.0000 C   0  0  3  0  0  0  0  0  0  0  0  0
    2.4941    1.7251    0.0000 C   0  0  0  0  0  0  0  0  0  0  0  0
    1.0669   -1.2678    0.0000 C   0  0  0  0  0  0  0  0  0  0  0  0
    1.7874   -1.6835    0.0000 C   0  0  0  0  0  0  0  0  0  0  0  0
   -0.3741   -0.4088    0.0000 C   0  0  0  0  0  0  0  0  0  0  0  0
    1.7736    1.3094    0.0000 C   0  0  0  0  0  0  0  0  0  0  0  0
    2.4941    2.5425    0.0000 C   0  0  0  0  0  0  0  0  0  0  0  0
   -1.0946   -0.0208    0.0000 C   0  0  3  0  0  0  0  0  0  0  0  0
    2.4941   -1.2817    0.0000 C   0  0  0  0  0  0  0  0  0  0  0  0
    1.7874   -2.5149    0.0000 C   0  0  0  0  0  0  0  0  0  0  0  0
    1.0669    1.7251    0.0000 C   0  0  0  0  0  0  0  0  0  0  0  0
    1.8013    2.9444    0.0000 C   0  0  0  0  0  0  0  0  0  0  0  0
    3.2007   -2.5149    0.0000 C   0  0  0  0  0  0  0  0  0  0  0  0
    3.2146   -1.6974    0.0000 C   0  0  0  0  0  0  0  0  0  0  0  0
    2.5079   -2.9305    0.0000 C   0  0  0  0  0  0  0  0  0  0  0  0
    1.0669    2.5287    0.0000 C   0  0  0  0  0  0  0  0  0  0  0  0
   -2.5218   -0.0485    0.0000 C   0  0  0  0  0  0  0  0  0  0  0  0
   -1.0946    0.8106    0.0000 C   0  0  0  0  0  0  0  0  0  0  0  0
   -3.2285   -0.4364    0.0000 C   0  0  0  0  0  0  0  0  0  0  0  0
    4.6556   -2.5149    0.0000 C   0  0  0  0  0  0  0  0  0  0  0  0
   -4.6556   -0.4364    0.0000 C   0  0  0  0  0  0  0  0  0  0  0  0
   -5.3900   -0.0485    0.0000 C   0  0  0  0  0  0  0  0  0  0  0  0
  1 11  1  0  0  0  0
  1 13  1  0  0  0  0
  2 12  2  0  0  0  0
  3 17  2  0  0  0  0
  4 22  2  0  0  0  0
  5 30  1  0  0  0  0
  5 37  1  0  0  0  0
  6 34  2  0  0  0  0
  7 36  1  0  0  0  0
  7 38  1  0  0  0  0
  8 14  1  0  0  0  0
  8 17  1  0  0  0  0
  9 18  1  0  0  0  0
  9 22  1  0  0  0  0
 10 25  1  0  0  0  0
 10 34  1  0  0  0  0
 11 12  1  0  0  0  0
 11 13  1  0  0  0  0
 11 15  1  0  0  0  0
 12 14  1  0  0  0  0
 14 16  1  0  0  0  0
 16 19  1  0  0  0  0
 17 18  1  0  0  0  0
 18 20  1  0  0  0  0
 19 23  2  0  0  0  0
 19 24  1  0  0  0  0
 20 21  1  0  0  0  0
 21 26  2  0  0  0  0
 21 27  1  0  0  0  0
 22 25  1  0  0  0  0
 23 28  1  0  0  0  0
 24 29  2  0  0  0  0
 25 35  1  0  0  0  0
 26 31  1  0  0  0  0
 27 32  2  0  0  0  0
 28 33  2  0  0  0  0
 29 33  1  0  0  0  0
 30 31  2  0  0  0  0
 30 32  1  0  0  0  0
 34 36  1  0  0  0  0
 38 39  1  0  0  0  0
M  END
> <PUBCHEM_COMPOUND_ID_TYPE>
0

> <PUBCHEM_TOTAL_CHARGE>
0

> <PUBCHEM_SUBSTANCE_ID>
310945887

> <PUBCHEM_SUBSTANCE_VERSION>
1

> <PUBCHEM_EXT_DATASOURCE_NAME>
4488

> <PUBCHEM_EXT_DATASOURCE_REGID>
SCHEMBL16123992

> <PUBCHEM_SUBSTANCE_COMMENT>
InChI=1S/C29H37N3O7/c1-5-38-17-25(33)30-19(2)27(35)32-24(16-21-11-13-22(37-4)14-12-21)28(36)31-23(26(34)29(3)18-39-29)15-20-9-7-6-8-10-20/h6-14,19,23-24H,5,15-18H2,1-4H3,(H,30,33)(H,31,36)(H,32,35)
InChIKey=ANFLBCVDNZWCRE-UHFFFAOYSA-N

> <PUBCHEM_SUBSTANCE_SYNONYM>
SCHEMBL16123992

> <PUBCHEM_XREF_EXT_ID>
SCHEMBL16123992

> <PUBCHEM_EXT_DATASOURCE_URL>
https://www.surechembl.org/

> <PUBCHEM_EXT_SUBSTANCE_URL>
https://www.surechembl.org/chemical/SCHEMBL16123992

> <PUBCHEM_CID_ASSOCIATIONS>
117611871  1

> <PUBCHEM_COORDINATE_TYPE>
1
3

$$$$
