310946240
  -OEChem-07211613022D

 22 23  0     1  0  0  0  0  0999 V2000
    3.5724   13.3059    0.0000 S   0  0  0  0  0  0  0  0  0  0  0  0
    2.7474   13.3059    0.0000 O   0  0  0  0  0  0  0  0  0  0  0  0
   -0.1105   13.3059    0.0000 O   0  0  0  0  0  0  0  0  0  0  0  0
   -0.1105   16.6059    0.0000 O   0  0  0  0  0  0  0  0  0  0  0  0
    3.9849   12.5914    0.0000 O   0  0  0  0  0  0  0  0  0  0  0  0
    3.9849   14.0203    0.0000 O   0  0  0  0  0  0  0  0  0  0  0  0
    4.3974   13.3059    0.0000 O   0  0  0  0  0  0  0  0  0  0  0  0
   -1.5395   15.7809    0.0000 O   0  0  0  0  0  0  0  0  0  0  0  0
    0.6039   14.5434    0.0000 N   0  0  0  0  0  0  0  0  0  0  0  0
    2.0329   13.7184    0.0000 N   0  0  0  0  0  0  0  0  0  0  0  0
   -0.8250   15.3684    0.0000 N   0  0  0  0  0  0  0  0  0  0  0  0
   -3.6829   15.3684    0.0000 N   0  0  0  0  0  0  0  0  0  0  0  0
    0.6039   13.7184    0.0000 C   0  0  0  0  0  0  0  0  0  0  0  0
    2.0329   14.5434    0.0000 C   0  0  3  0  0  0  0  0  0  0  0  0
    0.6039   15.3684    0.0000 C   0  0  3  0  0  0  0  0  0  0  0  0
    1.3184   14.1309    0.0000 C   0  0  0  0  0  0  0  0  0  0  0  0
    2.0329   15.3684    0.0000 C   0  0  0  0  0  0  0  0  0  0  0  0
    1.3184   15.7809    0.0000 C   0  0  0  0  0  0  0  0  0  0  0  0
   -0.1105   15.7809    0.0000 C   0  0  0  0  0  0  0  0  0  0  0  0
   -2.2539   15.3684    0.0000 C   0  0  0  0  0  0  0  0  0  0  0  0
   -2.9684   15.7809    0.0000 C   0  0  0  0  0  0  0  0  0  0  0  0
   -4.3974   15.7809    0.0000 C   0  0  0  0  0  0  0  0  0  0  0  0
  1  2  1  0  0  0  0
  1  5  2  0  0  0  0
  1  6  2  0  0  0  0
  1  7  1  0  0  0  0
  2 10  1  0  0  0  0
  3 13  2  0  0  0  0
  4 19  2  0  0  0  0
  8 11  1  0  0  0  0
  8 20  1  0  0  0  0
  9 13  1  0  0  0  0
  9 15  1  0  0  0  0
  9 16  1  0  0  0  0
 10 13  1  0  0  0  0
 10 14  1  0  0  0  0
 11 19  1  0  0  0  0
 12 21  1  0  0  0  0
 12 22  1  0  0  0  0
 14 16  1  6  0  0  0
 14 17  1  0  0  0  0
 15 18  1  0  0  0  0
 15 19  1  6  0  0  0
 17 18  1  0  0  0  0
 20 21  1  0  0  0  0
M  END
> <PUBCHEM_COMPOUND_ID_TYPE>
0

> <PUBCHEM_TOTAL_CHARGE>
0

> <PUBCHEM_SUBSTANCE_ID>
310946240

> <PUBCHEM_SUBSTANCE_VERSION>
1

> <PUBCHEM_EXT_DATASOURCE_NAME>
4488

> <PUBCHEM_EXT_DATASOURCE_REGID>
SCHEMBL16124358

> <PUBCHEM_SUBSTANCE_COMMENT>
InChI=1S/C10H18N4O7S/c1-11-4-5-20-12-9(15)8-3-2-7-6-13(8)10(16)14(7)21-22(17,18)19/h7-8,11H,2-6H2,1H3,(H,12,15)(H,17,18,19)/t7-,8+/m1/s1
InChIKey=DQHXQJYMUGCQOA-SFYZADRCSA-N

> <PUBCHEM_SUBSTANCE_SYNONYM>
SCHEMBL16124358

> <PUBCHEM_XREF_EXT_ID>
SCHEMBL16124358

> <PUBCHEM_EXT_DATASOURCE_URL>
https://www.surechembl.org/

> <PUBCHEM_EXT_SUBSTANCE_URL>
https://www.surechembl.org/chemical/SCHEMBL16124358

> <PUBCHEM_CID_ASSOCIATIONS>
117612188  1

> <PUBCHEM_COORDINATE_TYPE>
1
3

> <PUBCHEM_BONDANNOTATIONS>
14  16  6
15  19  6

$$$$
