310937031
  -OEChem-07211613022D

 33 37  0     1  0  0  0  0  0999 V2000
    2.1670    0.0000    0.0000 Br  0  0  0  0  0  0  0  0  0  0  0  0
    2.0922   -3.0138    0.0000 O   0  0  0  0  0  0  0  0  0  0  0  0
    4.6079   -3.0138    0.0000 O   0  0  0  0  0  0  0  0  0  0  0  0
    3.3376   -3.7361    0.0000 N   0  0  0  0  0  0  0  0  0  0  0  0
    2.1670   -3.3127    0.0000 N   0  0  0  0  0  0  0  0  0  0  0  0
    2.9391   -1.5941    0.0000 N   0  0  0  0  0  0  0  0  0  0  0  0
    1.4446   -2.0922    0.0000 N   0  0  0  0  0  0  0  0  0  0  0  0
    2.8893   -4.5332    0.0000 C   0  0  3  0  0  0  0  0  0  0  0  0
    2.8893   -3.7361    0.0000 C   0  0  3  0  0  0  0  0  0  0  0  0
    4.2592   -3.7361    0.0000 C   0  0  3  0  0  0  0  0  0  0  0  0
    3.5867   -3.3376    0.0000 C   0  0  0  0  0  0  0  0  0  0  0  0
    2.9391   -3.0138    0.0000 C   0  0  0  0  0  0  0  0  0  0  0  0
    3.5867   -4.9317    0.0000 C   0  0  0  0  0  0  0  0  0  0  0  0
    4.2592   -4.5332    0.0000 C   0  0  0  0  0  0  0  0  0  0  0  0
    3.3376   -2.2915    0.0000 C   0  0  0  0  0  0  0  0  0  0  0  0
    2.1670   -2.4908    0.0000 C   0  0  0  0  0  0  0  0  0  0  0  0
    1.4446   -3.7113    0.0000 C   0  0  0  0  0  0  0  0  0  0  0  0
    4.1845   -2.2915    0.0000 C   0  0  0  0  0  0  0  0  0  0  0  0
    2.9142   -2.0673    0.0000 C   0  0  0  0  0  0  0  0  0  0  0  0
    0.7223   -3.3127    0.0000 C   0  0  0  0  0  0  0  0  0  0  0  0
    1.4446   -4.5581    0.0000 C   0  0  0  0  0  0  0  0  0  0  0  0
    3.3127   -0.8219    0.0000 C   0  0  0  0  0  0  0  0  0  0  0  0
    4.5830   -1.5443    0.0000 C   0  0  0  0  0  0  0  0  0  0  0  0
    4.1596   -0.8469    0.0000 C   0  0  0  0  0  0  0  0  0  0  0  0
    1.4197   -1.2454    0.0000 C   0  0  0  0  0  0  0  0  0  0  0  0
    2.8644   -1.2205    0.0000 C   0  0  0  0  0  0  0  0  0  0  0  0
    2.1670   -0.8219    0.0000 C   0  0  0  0  0  0  0  0  0  0  0  0
    0.0000   -3.7113    0.0000 C   0  0  0  0  0  0  0  0  0  0  0  0
    0.6974   -4.9815    0.0000 C   0  0  0  0  0  0  0  0  0  0  0  0
    0.0000   -4.5332    0.0000 C   0  0  0  0  0  0  0  0  0  0  0  0
    2.8893   -0.1246    0.0000 C   0  0  0  0  0  0  0  0  0  0  0  0
    5.4299   -3.0138    0.0000 C   0  0  0  0  0  0  0  0  0  0  0  0
    5.8533   -2.2666    0.0000 C   0  0  0  0  0  0  0  0  0  0  0  0
  1 27  1  0  0  0  0
  2 12  2  0  0  0  0
  3 18  1  0  0  0  0
  3 32  1  0  0  0  0
  4  8  1  0  0  0  0
  4 10  1  0  0  0  0
  4 12  1  0  0  0  0
  5  9  1  0  0  0  0
  5 16  1  0  0  0  0
  5 17  1  0  0  0  0
  6 15  1  0  0  0  0
  6 22  2  0  0  0  0
  7 16  1  0  0  0  0
  7 25  2  0  0  0  0
  8  9  1  0  0  0  0
  8 13  1  0  0  0  0
  9 11  1  0  0  0  0
 10 11  1  0  0  0  0
 10 14  1  0  0  0  0
 12 15  1  0  0  0  0
 13 14  1  0  0  0  0
 15 18  2  0  0  0  0
 16 19  2  0  0  0  0
 17 20  2  0  0  0  0
 17 21  1  0  0  0  0
 18 23  1  0  0  0  0
 19 26  1  0  0  0  0
 20 28  1  0  0  0  0
 21 29  2  0  0  0  0
 22 24  1  0  0  0  0
 22 31  1  0  0  0  0
 23 24  2  0  0  0  0
 25 27  1  0  0  0  0
 26 27  2  0  0  0  0
 28 30  2  0  0  0  0
 29 30  1  0  0  0  0
 32 33  1  0  0  0  0
M  END
> <PUBCHEM_COMPOUND_ID_TYPE>
0

> <PUBCHEM_TOTAL_CHARGE>
0

> <PUBCHEM_SUBSTANCE_ID>
310937031

> <PUBCHEM_SUBSTANCE_VERSION>
1

> <PUBCHEM_EXT_DATASOURCE_NAME>
4488

> <PUBCHEM_EXT_DATASOURCE_REGID>
SCHEMBL16114741

> <PUBCHEM_SUBSTANCE_COMMENT>
InChI=1S/C26H27BrN4O2/c1-3-33-23-13-9-17(2)29-25(23)26(32)31-20-11-12-21(31)22(15-20)30(19-7-5-4-6-8-19)24-14-10-18(27)16-28-24/h4-10,13-14,16,20-22H,3,11-12,15H2,1-2H3
InChIKey=AFVXSAQYVGHHMN-UHFFFAOYSA-N

> <PUBCHEM_SUBSTANCE_SYNONYM>
SCHEMBL16114741

> <PUBCHEM_XREF_EXT_ID>
SCHEMBL16114741

> <PUBCHEM_EXT_DATASOURCE_URL>
https://www.surechembl.org/

> <PUBCHEM_EXT_SUBSTANCE_URL>
https://www.surechembl.org/chemical/SCHEMBL16114741

> <PUBCHEM_CID_ASSOCIATIONS>
117604881  1

> <PUBCHEM_COORDINATE_TYPE>
1
3

$$$$
