310944159
  -OEChem-07211613022D

 36 39  0     1  0  0  0  0  0999 V2000
    0.5224   -2.7357    0.0000 O   0  0  0  0  0  0  0  0  0  0  0  0
   -4.1792    3.3268    0.0000 O   0  0  0  0  0  0  0  0  0  0  0  0
    4.1379    2.5432    0.0000 O   0  0  0  0  0  0  0  0  0  0  0  0
    4.0005    1.1136    0.0000 O   0  0  0  0  0  0  0  0  0  0  0  0
   -0.3299   -1.6222    0.0000 N   0  0  0  0  0  0  0  0  0  0  0  0
   -1.0448   -1.2098    0.0000 N   0  0  0  0  0  0  0  0  0  0  0  0
   -3.0794    2.0758    0.0000 N   0  0  0  0  0  0  0  0  0  0  0  0
    1.1823    0.4124    0.0000 N   0  0  3  0  0  0  0  0  0  0  0  0
    2.8182    1.8422    0.0000 N   0  0  0  0  0  0  0  0  0  0  0  0
   -0.8936   -0.3712    0.0000 C   0  0  0  0  0  0  0  0  0  0  0  0
   -0.0687   -0.3025    0.0000 C   0  0  0  0  0  0  0  0  0  0  0  0
   -1.4434    0.2337    0.0000 C   0  0  0  0  0  0  0  0  0  0  0  0
    0.2612   -1.0448    0.0000 C   0  0  0  0  0  0  0  0  0  0  0  0
   -0.2749   -2.4195    0.0000 C   0  0  3  0  0  0  0  0  0  0  0  0
    0.3437    0.4261    0.0000 C   0  0  0  0  0  0  0  0  0  0  0  0
   -2.2545    0.0687    0.0000 C   0  0  0  0  0  0  0  0  0  0  0  0
   -1.1960    1.0311    0.0000 C   0  0  0  0  0  0  0  0  0  0  0  0
   -2.5432    1.4710    0.0000 C   0  0  0  0  0  0  0  0  0  0  0  0
   -2.7907    0.6736    0.0000 C   0  0  0  0  0  0  0  0  0  0  0  0
   -1.7322    1.6222    0.0000 C   0  0  0  0  0  0  0  0  0  0  0  0
   -0.8936   -2.9282    0.0000 C   0  0  0  0  0  0  0  0  0  0  0  0
    0.6186   -3.5606    0.0000 C   0  0  0  0  0  0  0  0  0  0  0  0
   -0.7836   -3.7530    0.0000 C   0  0  0  0  0  0  0  0  0  0  0  0
   -2.8457    2.9007    0.0000 C   0  0  0  0  0  0  0  0  0  0  0  0
   -3.8905    1.9384    0.0000 C   0  0  0  0  0  0  0  0  0  0  0  0
    1.5809    1.1410    0.0000 C   0  0  0  0  0  0  0  0  0  0  0  0
   -0.0138   -4.0554    0.0000 C   0  0  0  0  0  0  0  0  0  0  0  0
    1.5946   -0.3025    0.0000 C   0  0  0  0  0  0  0  0  0  0  0  0
   -3.3955    3.5055    0.0000 C   0  0  0  0  0  0  0  0  0  0  0  0
   -4.4541    2.5570    0.0000 C   0  0  0  0  0  0  0  0  0  0  0  0
    2.3920    1.1410    0.0000 C   0  0  0  0  0  0  0  0  0  0  0  0
    3.6430    1.8422    0.0000 C   0  0  0  0  0  0  0  0  0  0  0  0
    3.7942    3.3130    0.0000 C   0  0  0  0  0  0  0  0  0  0  0  0
    4.4541    3.6705    0.0000 C   0  0  0  0  0  0  0  0  0  0  0  0
    3.1069    2.9694    0.0000 C   0  0  0  0  0  0  0  0  0  0  0  0
    3.4230    4.0554    0.0000 C   0  0  0  0  0  0  0  0  0  0  0  0
  1 14  1  0  0  0  0
  1 22  1  0  0  0  0
  2 29  1  0  0  0  0
  2 30  1  0  0  0  0
  3 32  1  0  0  0  0
  3 33  1  0  0  0  0
  4 32  2  0  0  0  0
  5  6  1  0  0  0  0
  5 13  1  0  0  0  0
  5 14  1  0  0  0  0
  6 10  2  0  0  0  0
  7 18  1  0  0  0  0
  7 24  1  0  0  0  0
  7 25  1  0  0  0  0
  8 15  1  0  0  0  0
  8 26  1  0  0  0  0
  8 28  1  0  0  0  0
  9 31  1  0  0  0  0
  9 32  1  0  0  0  0
 10 11  1  0  0  0  0
 10 12  1  0  0  0  0
 11 13  2  0  0  0  0
 11 15  1  0  0  0  0
 12 16  1  0  0  0  0
 12 17  1  0  0  0  0
 14 21  1  0  0  0  0
 16 19  1  0  0  0  0
 17 20  1  0  0  0  0
 18 19  1  0  0  0  0
 18 20  1  0  0  0  0
 21 23  1  0  0  0  0
 22 27  1  0  0  0  0
 23 27  1  0  0  0  0
 24 29  1  0  0  0  0
 25 30  1  0  0  0  0
 26 31  1  0  0  0  0
 33 34  1  0  0  0  0
 33 35  1  0  0  0  0
 33 36  1  0  0  0  0
M  END
> <PUBCHEM_COMPOUND_ID_TYPE>
0

> <PUBCHEM_TOTAL_CHARGE>
0

> <PUBCHEM_SUBSTANCE_ID>
310944159

> <PUBCHEM_SUBSTANCE_VERSION>
1

> <PUBCHEM_EXT_DATASOURCE_NAME>
4488

> <PUBCHEM_EXT_DATASOURCE_REGID>
SCHEMBL16122234

> <PUBCHEM_SUBSTANCE_COMMENT>
InChI=1S/C27H47N5O4/c1-27(2,3)36-26(33)28-12-13-30(4)19-22-20-32(24-7-5-6-16-35-24)29-25(22)21-8-10-23(11-9-21)31-14-17-34-18-15-31/h20-21,23-24H,5-19H2,1-4H3,(H,28,33)
InChIKey=ZOYARSNVJOCOHB-UHFFFAOYSA-N

> <PUBCHEM_SUBSTANCE_SYNONYM>
SCHEMBL16122234

> <PUBCHEM_XREF_EXT_ID>
SCHEMBL16122234

> <PUBCHEM_EXT_DATASOURCE_URL>
https://www.surechembl.org/

> <PUBCHEM_EXT_SUBSTANCE_URL>
https://www.surechembl.org/chemical/SCHEMBL16122234

> <PUBCHEM_CID_ASSOCIATIONS>
117610440  1

> <PUBCHEM_COORDINATE_TYPE>
1
3

$$$$
