310941171
  -OEChem-07211613022D

  8  8  0     1  0  0  0  0  0999 V2000
    1.7837    0.2825    0.0000 O   0  0  0  0  0  0  0  0  0  0  0  0
    0.3470    0.2825    0.0000 C   0  0  0  0  0  0  0  0  0  0  0  0
   -0.9443    0.0081    0.0000 C   0  0  3  0  0  0  0  0  0  0  0  0
   -0.4116    0.6053    0.0000 C   0  0  0  0  0  0  0  0  0  0  0  0
    0.2502   -0.5408    0.0000 C   0  0  0  0  0  0  0  0  0  0  0  0
   -0.5246   -0.7022    0.0000 C   0  0  0  0  0  0  0  0  0  0  0  0
    1.0573    0.7022    0.0000 C   0  0  0  0  0  0  0  0  0  0  0  0
   -1.7837    0.0726    0.0000 C   0  0  0  0  0  0  0  0  0  0  0  0
  1  7  1  0  0  0  0
  2  4  2  0  0  0  0
  2  5  1  0  0  0  0
  2  7  1  0  0  0  0
  3  4  1  0  0  0  0
  3  6  1  0  0  0  0
  3  8  1  0  0  0  0
  5  6  1  0  0  0  0
M  END
> <PUBCHEM_COMPOUND_ID_TYPE>
0

> <PUBCHEM_TOTAL_CHARGE>
0

> <PUBCHEM_SUBSTANCE_ID>
310941171

> <PUBCHEM_SUBSTANCE_VERSION>
1

> <PUBCHEM_EXT_DATASOURCE_NAME>
4488

> <PUBCHEM_EXT_DATASOURCE_REGID>
SCHEMBL16119131

> <PUBCHEM_SUBSTANCE_COMMENT>
InChI=1S/C7H12O/c1-6-2-3-7(4-6)5-8/h4,6,8H,2-3,5H2,1H3
InChIKey=LAEUAIQGUIVNGY-UHFFFAOYSA-N

> <PUBCHEM_SUBSTANCE_SYNONYM>
SCHEMBL16119131

> <PUBCHEM_XREF_EXT_ID>
SCHEMBL16119131

> <PUBCHEM_EXT_DATASOURCE_URL>
https://www.surechembl.org/

> <PUBCHEM_EXT_SUBSTANCE_URL>
https://www.surechembl.org/chemical/SCHEMBL16119131

> <PUBCHEM_CID_ASSOCIATIONS>
14140758  1

> <PUBCHEM_COORDINATE_TYPE>
1
3

$$$$
