310933138
  -OEChem-07211613022D

 28 26  0     1  0  0  0  0  0999 V2000
    4.0536   -9.9989    0.0000 S   0  0  0  0  0  0  0  0  0  0  0  0
    7.7829   -5.4048    0.0000 Na  0  4  0  0  0  0  0  0  0  0  0  0
    3.2429   -9.9989    0.0000 O   0  0  0  0  0  0  0  0  0  0  0  0
    4.0536   -9.1881    0.0000 O   0  0  0  0  0  0  0  0  0  0  0  0
    4.0536  -10.8095    0.0000 O   0  0  0  0  0  0  0  0  0  0  0  0
    6.1615   -9.2962    0.0000 O   0  0  0  0  0  0  0  0  0  0  0  0
    6.1074  -10.7015    0.0000 N   0  0  0  0  0  0  0  0  0  0  0  0
    4.8643   -9.9989    0.0000 C   0  0  3  0  0  0  0  0  0  0  0  0
    5.2967   -9.2962    0.0000 C   0  0  0  0  0  0  0  0  0  0  0  0
    5.2967  -10.7015    0.0000 C   0  0  0  0  0  0  0  0  0  0  0  0
    4.9184   -8.5396    0.0000 C   0  0  0  0  0  0  0  0  0  0  0  0
    4.1076   -8.5396    0.0000 C   0  0  0  0  0  0  0  0  0  0  0  0
    2.8105  -10.7015    0.0000 C   0  0  0  0  0  0  0  0  0  0  0  0
    3.6753   -7.8369    0.0000 C   0  0  0  0  0  0  0  0  0  0  0  0
    2.8645   -7.8369    0.0000 C   0  0  0  0  0  0  0  0  0  0  0  0
    2.4862   -7.1343    0.0000 C   0  0  0  0  0  0  0  0  0  0  0  0
    1.6214   -7.1343    0.0000 C   0  0  0  0  0  0  0  0  0  0  0  0
    1.2431   -6.3777    0.0000 C   0  0  0  0  0  0  0  0  0  0  0  0
    0.4324   -6.3777    0.0000 C   0  0  0  0  0  0  0  0  0  0  0  0
    0.0000   -5.6751    0.0000 C   0  0  0  0  0  0  0  0  0  0  0  0
    0.4324   -4.9724    0.0000 C   0  0  0  0  0  0  0  0  0  0  0  0
    0.0541   -4.2698    0.0000 C   0  0  0  0  0  0  0  0  0  0  0  0
    0.4324   -3.5671    0.0000 C   0  0  0  0  0  0  0  0  0  0  0  0
    0.0541   -2.8105    0.0000 C   0  0  0  0  0  0  0  0  0  0  0  0
    0.4864   -2.1079    0.0000 C   0  0  0  0  0  0  0  0  0  0  0  0
    0.0541   -1.4053    0.0000 C   0  0  0  0  0  0  0  0  0  0  0  0
    0.4864   -0.7026    0.0000 C   0  0  0  0  0  0  0  0  0  0  0  0
    0.1081    0.0000    0.0000 C   0  0  0  0  0  0  0  0  0  0  0  0
  1  3  1  0  0  0  0
  1  4  2  0  0  0  0
  1  5  2  0  0  0  0
  1  8  1  0  0  0  0
  3 13  1  0  0  0  0
  6  9  2  0  0  0  0
  7 10  1  0  0  0  0
  8  9  1  0  0  0  0
  8 10  1  0  0  0  0
  9 11  1  0  0  0  0
 11 12  1  0  0  0  0
 12 14  1  0  0  0  0
 14 15  1  0  0  0  0
 15 16  1  0  0  0  0
 16 17  1  0  0  0  0
 17 18  1  0  0  0  0
 18 19  1  0  0  0  0
 19 20  2  0  0  0  0
 20 21  1  0  0  0  0
 21 22  1  0  0  0  0
 22 23  1  0  0  0  0
 23 24  1  0  0  0  0
 24 25  1  0  0  0  0
 25 26  1  0  0  0  0
 26 27  1  0  0  0  0
 27 28  1  0  0  0  0
M  RAD  1   2   2
M  END
> <PUBCHEM_COMPOUND_ID_TYPE>
0

> <PUBCHEM_TOTAL_CHARGE>
0

> <PUBCHEM_SUBSTANCE_ID>
310933138

> <PUBCHEM_SUBSTANCE_VERSION>
1

> <PUBCHEM_EXT_DATASOURCE_NAME>
4488

> <PUBCHEM_EXT_DATASOURCE_REGID>
SCHEMBL16110545

> <PUBCHEM_SUBSTANCE_COMMENT>
InChI=1S/C21H41NO4S.Na/c1-3-4-5-6-7-8-9-10-11-12-13-14-15-16-17-18-20(23)21(19-22)27(24,25)26-2;/h10-11,21H,3-9,12-19,22H2,1-2H3;/b11-10-;
InChIKey=QWTBHPFSBYYNSD-GMFCBQQYSA-N

> <PUBCHEM_SUBSTANCE_SYNONYM>
SCHEMBL16110545

> <PUBCHEM_XREF_EXT_ID>
SCHEMBL16110545

> <PUBCHEM_EXT_DATASOURCE_URL>
https://www.surechembl.org/

> <PUBCHEM_EXT_SUBSTANCE_URL>
https://www.surechembl.org/chemical/SCHEMBL16110545

> <PUBCHEM_CID_ASSOCIATIONS>
117601591  1
5360545  2
117601592  2

> <PUBCHEM_COORDINATE_TYPE>
1
3

$$$$
