310936215
  -OEChem-07211613022D

 23 25  0     1  0  0  0  0  0999 V2000
    5.7721   -0.6584    0.0000 F   0  0  0  0  0  0  0  0  0  0  0  0
    4.5869   -2.9190    0.0000 O   0  0  0  0  0  0  0  0  0  0  0  0
    4.5869   -1.4924    0.0000 O   0  0  0  0  0  0  0  0  0  0  0  0
    3.3579   -2.1947    0.0000 C   0  0  3  0  0  0  0  0  0  0  0  0
    3.7310   -1.4705    0.0000 C   0  0  0  0  0  0  0  0  0  0  0  0
    2.8750   -2.8750    0.0000 C   0  0  0  0  0  0  0  0  0  0  0  0
    2.1069   -2.6117    0.0000 C   0  0  0  0  0  0  0  0  0  0  0  0
    2.8750   -1.5363    0.0000 C   0  0  0  0  0  0  0  0  0  0  0  0
    4.1919   -2.1947    0.0000 C   0  0  0  0  0  0  0  0  0  0  0  0
    4.7406   -1.6021    0.0000 C   0  0  0  0  0  0  0  0  0  0  0  0
    2.1069   -1.7996    0.0000 C   0  0  0  0  0  0  0  0  0  0  0  0
    1.4265   -3.0945    0.0000 C   0  0  0  0  0  0  0  0  0  0  0  0
    3.2921   -0.7681    0.0000 C   0  0  0  0  0  0  0  0  0  0  0  0
    4.9381   -0.7023    0.0000 C   0  0  0  0  0  0  0  0  0  0  0  0
    0.6804   -2.7434    0.0000 C   0  0  0  0  0  0  0  0  0  0  0  0
    3.6652   -0.0439    0.0000 C   0  0  0  0  0  0  0  0  0  0  0  0
    4.4991    0.0000    0.0000 C   0  0  0  0  0  0  0  0  0  0  0  0
    1.5143   -3.9066    0.0000 C   0  0  0  0  0  0  0  0  0  0  0  0
    5.0039   -2.1069    0.0000 C   0  0  0  0  0  0  0  0  0  0  0  0
    0.0000   -3.2262    0.0000 C   0  0  0  0  0  0  0  0  0  0  0  0
    0.8340   -4.3894    0.0000 C   0  0  0  0  0  0  0  0  0  0  0  0
    0.0878   -4.0602    0.0000 C   0  0  0  0  0  0  0  0  0  0  0  0
    0.5926   -1.9313    0.0000 C   0  0  0  0  0  0  0  0  0  0  0  0
  1 14  1  0  0  0  0
  2  9  2  0  0  0  0
  3  9  1  0  0  0  0
  4  5  1  0  0  0  0
  4  6  1  0  0  0  0
  4  8  1  0  0  0  0
  4  9  1  0  0  0  0
  5 10  1  0  0  0  0
  5 13  2  0  0  0  0
  6  7  2  0  0  0  0
  7 11  1  0  0  0  0
  7 12  1  0  0  0  0
  8 11  1  0  0  0  0
 10 14  2  0  0  0  0
 10 19  1  0  0  0  0
 12 15  2  0  0  0  0
 12 18  1  0  0  0  0
 13 16  1  0  0  0  0
 14 17  1  0  0  0  0
 15 20  1  0  0  0  0
 15 23  1  0  0  0  0
 16 17  2  0  0  0  0
 18 21  2  0  0  0  0
 20 22  2  0  0  0  0
 21 22  1  0  0  0  0
M  END
> <PUBCHEM_COMPOUND_ID_TYPE>
0

> <PUBCHEM_TOTAL_CHARGE>
0

> <PUBCHEM_SUBSTANCE_ID>
310936215

> <PUBCHEM_SUBSTANCE_VERSION>
1

> <PUBCHEM_EXT_DATASOURCE_NAME>
4488

> <PUBCHEM_EXT_DATASOURCE_REGID>
SCHEMBL16113827

> <PUBCHEM_SUBSTANCE_COMMENT>
InChI=1S/C20H19FO2/c1-13-6-3-4-7-16(13)15-10-11-20(12-15,19(22)23)17-8-5-9-18(21)14(17)2/h3-9,12H,10-11H2,1-2H3,(H,22,23)
InChIKey=QFGREAOQRGDVAB-UHFFFAOYSA-N

> <PUBCHEM_SUBSTANCE_SYNONYM>
SCHEMBL16113827

> <PUBCHEM_XREF_EXT_ID>
SCHEMBL16113827

> <PUBCHEM_EXT_DATASOURCE_URL>
https://www.surechembl.org/

> <PUBCHEM_EXT_SUBSTANCE_URL>
https://www.surechembl.org/chemical/SCHEMBL16113827

> <PUBCHEM_CID_ASSOCIATIONS>
117604168  1

> <PUBCHEM_COORDINATE_TYPE>
1
3

$$$$
