310935042
  -OEChem-07211613022D

 16 16  0     1  0  0  0  0  0999 V2000
    1.2622   -1.4222    0.0000 S   0  0  0  0  0  0  0  0  0  0  0  0
    1.1911    0.0000    0.0000 F   0  0  0  0  0  0  0  0  0  0  0  0
    0.0000   -0.7822    0.0000 F   0  0  0  0  0  0  0  0  0  0  0  0
    1.6356   -0.6933    0.0000 F   0  0  0  0  0  0  0  0  0  0  0  0
    1.7066   -2.1155    0.0000 O   0  0  0  0  0  0  0  0  0  0  0  0
    1.9555   -0.9600    0.0000 O   0  0  0  0  0  0  0  0  0  0  0  0
    0.5689   -1.8666    0.0000 O   0  0  0  0  0  0  0  0  0  0  0  0
    2.5600   -3.5555    0.0000 O   0  0  0  0  0  0  0  0  0  0  0  0
    2.5600   -2.1333    0.0000 O   0  0  0  0  0  0  0  0  0  0  0  0
    1.3333   -2.8444    0.0000 C   0  0  3  0  0  0  0  0  0  0  0  0
    0.8177   -0.7289    0.0000 C   0  0  0  0  0  0  0  0  0  0  0  0
    2.1511   -2.8444    0.0000 C   0  0  0  0  0  0  0  0  0  0  0  0
    0.8533   -3.5199    0.0000 C   0  0  0  0  0  0  0  0  0  0  0  0
    0.8533   -2.1689    0.0000 C   0  0  0  0  0  0  0  0  0  0  0  0
    0.0711   -3.2533    0.0000 C   0  0  0  0  0  0  0  0  0  0  0  0
    0.0711   -2.4355    0.0000 C   0  0  0  0  0  0  0  0  0  0  0  0
  1  5  1  0  0  0  0
  1  6  2  0  0  0  0
  1  7  2  0  0  0  0
  1 11  1  0  0  0  0
  2 11  1  0  0  0  0
  3 11  1  0  0  0  0
  4 11  1  0  0  0  0
  5 10  1  0  0  0  0
  8 12  2  0  0  0  0
  9 12  1  0  0  0  0
 10 12  1  0  0  0  0
 10 13  1  0  0  0  0
 10 14  1  0  0  0  0
 13 15  2  0  0  0  0
 14 16  1  0  0  0  0
 15 16  1  0  0  0  0
M  END
> <PUBCHEM_COMPOUND_ID_TYPE>
0

> <PUBCHEM_TOTAL_CHARGE>
0

> <PUBCHEM_SUBSTANCE_ID>
310935042

> <PUBCHEM_SUBSTANCE_VERSION>
1

> <PUBCHEM_EXT_DATASOURCE_NAME>
4488

> <PUBCHEM_EXT_DATASOURCE_REGID>
SCHEMBL16112561

> <PUBCHEM_SUBSTANCE_COMMENT>
InChI=1S/C7H7F3O5S/c8-7(9,10)16(13,14)15-6(5(11)12)3-1-2-4-6/h1,3H,2,4H2,(H,11,12)
InChIKey=PRMNGEPLIFNYGS-UHFFFAOYSA-N

> <PUBCHEM_SUBSTANCE_SYNONYM>
SCHEMBL16112561

> <PUBCHEM_XREF_EXT_ID>
SCHEMBL16112561

> <PUBCHEM_EXT_DATASOURCE_URL>
https://www.surechembl.org/

> <PUBCHEM_EXT_SUBSTANCE_URL>
https://www.surechembl.org/chemical/SCHEMBL16112561

> <PUBCHEM_CID_ASSOCIATIONS>
117603146  1

> <PUBCHEM_COORDINATE_TYPE>
1
3

$$$$
