310946245
  -OEChem-07211613022D

 25 27  0     1  0  0  0  0  0999 V2000
    3.7348    8.2179    0.0000 S   0  0  0  0  0  0  0  0  0  0  0  0
    2.9098    8.2179    0.0000 O   0  0  0  0  0  0  0  0  0  0  0  0
    0.0519    8.2179    0.0000 O   0  0  0  0  0  0  0  0  0  0  0  0
   -1.3771   10.6929    0.0000 O   0  0  0  0  0  0  0  0  0  0  0  0
    0.0519   11.5179    0.0000 O   0  0  0  0  0  0  0  0  0  0  0  0
    4.1473    7.5034    0.0000 O   0  0  0  0  0  0  0  0  0  0  0  0
    4.1473    8.9323    0.0000 O   0  0  0  0  0  0  0  0  0  0  0  0
    4.5598    8.2179    0.0000 O   0  0  0  0  0  0  0  0  0  0  0  0
    0.7663    9.4554    0.0000 N   0  0  0  0  0  0  0  0  0  0  0  0
    2.1953    8.6304    0.0000 N   0  0  0  0  0  0  0  0  0  0  0  0
   -0.6626   10.2804    0.0000 N   0  0  0  0  0  0  0  0  0  0  0  0
   -4.1863   10.3230    0.0000 N   0  0  0  0  0  0  0  0  0  0  0  0
    0.7663    8.6304    0.0000 C   0  0  0  0  0  0  0  0  0  0  0  0
    2.1953    9.4554    0.0000 C   0  0  3  0  0  0  0  0  0  0  0  0
    0.7663   10.2804    0.0000 C   0  0  3  0  0  0  0  0  0  0  0  0
    1.4808    9.0429    0.0000 C   0  0  0  0  0  0  0  0  0  0  0  0
    2.1953   10.2804    0.0000 C   0  0  0  0  0  0  0  0  0  0  0  0
    1.4808   10.6929    0.0000 C   0  0  0  0  0  0  0  0  0  0  0  0
    0.0519   10.6929    0.0000 C   0  0  0  0  0  0  0  0  0  0  0  0
   -2.8060   10.6929    0.0000 C   0  0  0  0  0  0  0  0  0  0  0  0
   -2.5925   11.4898    0.0000 C   0  0  0  0  0  0  0  0  0  0  0  0
   -3.3894   11.2762    0.0000 C   0  0  0  0  0  0  0  0  0  0  0  0
   -2.0915   10.2804    0.0000 C   0  0  0  0  0  0  0  0  0  0  0  0
   -3.3894   10.1095    0.0000 C   0  0  0  0  0  0  0  0  0  0  0  0
   -4.3998   11.1199    0.0000 C   0  0  0  0  0  0  0  0  0  0  0  0
  1  2  1  0  0  0  0
  1  6  2  0  0  0  0
  1  7  2  0  0  0  0
  1  8  1  0  0  0  0
  2 10  1  0  0  0  0
  3 13  2  0  0  0  0
  4 11  1  0  0  0  0
  4 23  1  0  0  0  0
  5 19  2  0  0  0  0
  9 13  1  0  0  0  0
  9 15  1  0  0  0  0
  9 16  1  0  0  0  0
 10 13  1  0  0  0  0
 10 14  1  0  0  0  0
 11 19  1  0  0  0  0
 12 24  1  0  0  0  0
 12 25  1  0  0  0  0
 14 16  1  6  0  0  0
 14 17  1  0  0  0  0
 15 18  1  0  0  0  0
 15 19  1  6  0  0  0
 17 18  1  0  0  0  0
 20 21  1  0  0  0  0
 20 22  1  0  0  0  0
 20 23  1  0  0  0  0
 20 24  1  0  0  0  0
 21 22  1  0  0  0  0
M  END
> <PUBCHEM_COMPOUND_ID_TYPE>
0

> <PUBCHEM_TOTAL_CHARGE>
0

> <PUBCHEM_SUBSTANCE_ID>
310946245

> <PUBCHEM_SUBSTANCE_VERSION>
1

> <PUBCHEM_EXT_DATASOURCE_NAME>
4488

> <PUBCHEM_EXT_DATASOURCE_REGID>
SCHEMBL16124363

> <PUBCHEM_SUBSTANCE_COMMENT>
InChI=1S/C13H22N4O7S/c1-14-7-13(4-5-13)8-23-15-11(18)10-3-2-9-6-16(10)12(19)17(9)24-25(20,21)22/h9-10,14H,2-8H2,1H3,(H,15,18)(H,20,21,22)/t9-,10+/m1/s1
InChIKey=JIIPIAPZNVURSK-ZJUUUORDSA-N

> <PUBCHEM_SUBSTANCE_SYNONYM>
SCHEMBL16124363

> <PUBCHEM_XREF_EXT_ID>
SCHEMBL16124363

> <PUBCHEM_EXT_DATASOURCE_URL>
https://www.surechembl.org/

> <PUBCHEM_EXT_SUBSTANCE_URL>
https://www.surechembl.org/chemical/SCHEMBL16124363

> <PUBCHEM_CID_ASSOCIATIONS>
117612193  1

> <PUBCHEM_COORDINATE_TYPE>
1
3

> <PUBCHEM_BONDANNOTATIONS>
14  16  6
15  19  6

$$$$
