310934174
  -OEChem-07211613022D

 39 44  0     1  0  0  0  0  0999 V2000
    5.4201    0.0000    0.0000 Cl  0  0  0  0  0  0  0  0  0  0  0  0
    3.0352   -8.6721    0.0000 F   0  0  0  0  0  0  0  0  0  0  0  0
    5.8970   -5.0298    0.0000 O   0  0  0  0  0  0  0  0  0  0  0  0
    4.6396   -4.3361    0.0000 N   0  0  0  0  0  0  0  0  0  0  0  0
    7.1111   -2.8618    0.0000 N   0  0  0  0  0  0  0  0  0  0  0  0
    2.9052   -4.3795    0.0000 N   0  0  0  0  0  0  0  0  0  0  0  0
    2.9486   -5.7236    0.0000 N   0  0  0  0  0  0  0  0  0  0  0  0
    7.9784   -2.9052    0.0000 N   0  0  0  0  0  0  0  0  0  0  0  0
    8.1518   -3.7290    0.0000 N   0  0  0  0  0  0  0  0  0  0  0  0
    7.4580   -4.1626    0.0000 N   0  0  0  0  0  0  0  0  0  0  0  0
    0.0000   -4.0326    0.0000 N   0  0  0  0  0  0  0  0  0  0  0  0
    4.2493   -5.0298    0.0000 C   0  0  3  0  0  0  0  0  0  0  0  0
    5.8970   -2.1680    0.0000 C   0  0  0  0  0  0  0  0  0  0  0  0
    5.4635   -2.9052    0.0000 C   0  0  0  0  0  0  0  0  0  0  0  0
    6.7209   -2.1680    0.0000 C   0  0  0  0  0  0  0  0  0  0  0  0
    3.4255   -5.0732    0.0000 C   0  0  0  0  0  0  0  0  0  0  0  0
    5.4635   -4.3361    0.0000 C   0  0  0  0  0  0  0  0  0  0  0  0
    5.8970   -3.5989    0.0000 C   0  0  0  0  0  0  0  0  0  0  0  0
    4.2060   -3.5989    0.0000 C   0  0  0  0  0  0  0  0  0  0  0  0
    4.6396   -2.9052    0.0000 C   0  0  0  0  0  0  0  0  0  0  0  0
    2.1247   -4.6396    0.0000 C   0  0  0  0  0  0  0  0  0  0  0  0
    5.4635   -1.4309    0.0000 C   0  0  0  0  0  0  0  0  0  0  0  0
    4.6830   -5.7670    0.0000 C   0  0  0  0  0  0  0  0  0  0  0  0
    7.1111   -1.4309    0.0000 C   0  0  0  0  0  0  0  0  0  0  0  0
    5.8537   -0.7371    0.0000 C   0  0  0  0  0  0  0  0  0  0  0  0
    2.1247   -5.4635    0.0000 C   0  0  0  0  0  0  0  0  0  0  0  0
    1.4743   -4.1626    0.0000 C   0  0  0  0  0  0  0  0  0  0  0  0
    4.2493   -6.5041    0.0000 C   0  0  0  0  0  0  0  0  0  0  0  0
    6.6775   -0.6938    0.0000 C   0  0  0  0  0  0  0  0  0  0  0  0
    6.8076   -3.5989    0.0000 C   0  0  0  0  0  0  0  0  0  0  0  0
    0.6938   -4.5095    0.0000 C   0  0  0  0  0  0  0  0  0  0  0  0
    1.5176   -3.3388    0.0000 C   0  0  0  0  0  0  0  0  0  0  0  0
    4.6830   -7.1979    0.0000 C   0  0  0  0  0  0  0  0  0  0  0  0
    3.4255   -6.5041    0.0000 C   0  0  0  0  0  0  0  0  0  0  0  0
    4.2927   -7.9350    0.0000 C   0  0  0  0  0  0  0  0  0  0  0  0
    3.0352   -7.2412    0.0000 C   0  0  0  0  0  0  0  0  0  0  0  0
    3.4255   -7.9350    0.0000 C   0  0  0  0  0  0  0  0  0  0  0  0
    0.8239   -2.8618    0.0000 C   0  0  0  0  0  0  0  0  0  0  0  0
    0.0867   -3.2087    0.0000 C   0  0  0  0  0  0  0  0  0  0  0  0
  1 25  1  0  0  0  0
  2 37  1  0  0  0  0
  3 17  2  0  0  0  0
  4 12  1  0  0  0  0
  4 17  1  0  0  0  0
  4 19  1  0  0  0  0
  5  8  1  0  0  0  0
  5 15  1  0  0  0  0
  5 30  1  0  0  0  0
  6 16  2  0  0  0  0
  6 21  1  0  0  0  0
  7 16  1  0  0  0  0
  7 26  1  0  0  0  0
  8  9  2  0  0  0  0
  9 10  1  0  0  0  0
 10 30  2  0  0  0  0
 11 31  1  0  0  0  0
 11 39  2  0  0  0  0
 12 16  1  0  0  0  0
 12 23  1  0  0  0  0
 13 14  1  0  0  0  0
 13 15  1  0  0  0  0
 13 22  2  0  0  0  0
 14 18  2  0  0  0  0
 14 20  1  0  0  0  0
 15 24  2  0  0  0  0
 17 18  1  0  0  0  0
 19 20  2  0  0  0  0
 21 26  2  0  0  0  0
 21 27  1  0  0  0  0
 22 25  1  0  0  0  0
 23 28  1  0  0  0  0
 24 29  1  0  0  0  0
 25 29  2  0  0  0  0
 27 31  2  0  0  0  0
 27 32  1  0  0  0  0
 28 33  2  0  0  0  0
 28 34  1  0  0  0  0
 32 38  2  0  0  0  0
 33 35  1  0  0  0  0
 34 36  2  0  0  0  0
 35 37  2  0  0  0  0
 36 37  1  0  0  0  0
 38 39  1  0  0  0  0
M  END
> <PUBCHEM_COMPOUND_ID_TYPE>
0

> <PUBCHEM_TOTAL_CHARGE>
0

> <PUBCHEM_SUBSTANCE_ID>
310934174

> <PUBCHEM_SUBSTANCE_VERSION>
1

> <PUBCHEM_EXT_DATASOURCE_NAME>
4488

> <PUBCHEM_EXT_DATASOURCE_REGID>
SCHEMBL16111625

> <PUBCHEM_SUBSTANCE_COMMENT>
InChI=1S/C28H20ClFN8O/c29-21-5-8-25(38-17-33-35-36-38)23(14-21)19-9-11-37(27(39)13-19)26(12-18-3-6-22(30)7-4-18)28-32-16-24(34-28)20-2-1-10-31-15-20/h1-11,13-17,26H,12H2,(H,32,34)
InChIKey=OTDIRVUVVHREMB-UHFFFAOYSA-N

> <PUBCHEM_SUBSTANCE_SYNONYM>
SCHEMBL16111625

> <PUBCHEM_XREF_EXT_ID>
SCHEMBL16111625

> <PUBCHEM_EXT_DATASOURCE_URL>
https://www.surechembl.org/

> <PUBCHEM_EXT_SUBSTANCE_URL>
https://www.surechembl.org/chemical/SCHEMBL16111625

> <PUBCHEM_CID_ASSOCIATIONS>
117602448  1

> <PUBCHEM_COORDINATE_TYPE>
1
3

$$$$
