310943040
  -OEChem-07211613022D

 13 13  0     1  0  0  0  0  0999 V2000
    0.8097   -0.9024    0.0000 I   0  0  0  0  0  0  0  0  0  0  0  0
    1.0446   -0.0371    0.0000 C   0  0  3  0  0  0  0  0  0  0  0  0
   -0.3029   -0.0371    0.0000 C   0  0  3  0  0  0  0  0  0  0  0  0
   -0.3029   -0.8653    0.0000 C   0  0  0  0  0  0  0  0  0  0  0  0
    1.1312    0.9889    0.0000 C   0  0  0  0  0  0  0  0  0  0  0  0
   -0.9951   -1.2733    0.0000 C   0  0  0  0  0  0  0  0  0  0  0  0
    0.4141   -1.2733    0.0000 C   0  0  0  0  0  0  0  0  0  0  0  0
    1.5391   -0.0494    0.0000 C   0  0  0  0  0  0  0  0  0  0  0  0
   -0.6737    0.6057    0.0000 C   0  0  0  0  0  0  0  0  0  0  0  0
   -0.9951   -2.1016    0.0000 C   0  0  0  0  0  0  0  0  0  0  0  0
    0.4141   -2.0892    0.0000 C   0  0  0  0  0  0  0  0  0  0  0  0
   -0.2904   -2.5095    0.0000 C   0  0  0  0  0  0  0  0  0  0  0  0
    0.7356    2.2746    0.0000 C   0  0  0  0  0  0  0  0  0  0  0  0
  1  2  1  0  0  0  0
  2  3  1  0  0  0  0
  2  5  1  0  0  0  0
  2  8  1  0  0  0  0
  3  4  1  0  0  0  0
  3  9  1  0  0  0  0
  4  6  2  0  0  0  0
  4  7  1  0  0  0  0
  5 13  1  0  0  0  0
  6 10  1  0  0  0  0
  7 11  2  0  0  0  0
 10 12  2  0  0  0  0
 11 12  1  0  0  0  0
M  END
> <PUBCHEM_COMPOUND_ID_TYPE>
0

> <PUBCHEM_TOTAL_CHARGE>
0

> <PUBCHEM_SUBSTANCE_ID>
310943040

> <PUBCHEM_SUBSTANCE_VERSION>
1

> <PUBCHEM_EXT_DATASOURCE_NAME>
4488

> <PUBCHEM_EXT_DATASOURCE_REGID>
SCHEMBL16121099

> <PUBCHEM_SUBSTANCE_COMMENT>
InChI=1S/C12H17I/c1-4-12(3,13)10(2)11-8-6-5-7-9-11/h5-10H,4H2,1-3H3
InChIKey=JTRWUYSKEVEAPP-UHFFFAOYSA-N

> <PUBCHEM_SUBSTANCE_SYNONYM>
SCHEMBL16121099

> <PUBCHEM_XREF_EXT_ID>
SCHEMBL16121099

> <PUBCHEM_EXT_DATASOURCE_URL>
https://www.surechembl.org/

> <PUBCHEM_EXT_SUBSTANCE_URL>
https://www.surechembl.org/chemical/SCHEMBL16121099

> <PUBCHEM_CID_ASSOCIATIONS>
117609485  1

> <PUBCHEM_COORDINATE_TYPE>
1
3

$$$$
