310947210
  -OEChem-07211613022D

 26 27  0     1  0  0  0  0  0999 V2000
    3.2151   -1.6719    0.0000 F   0  0  0  0  0  0  0  0  0  0  0  0
    2.5006   -0.4344    0.0000 F   0  0  0  0  0  0  0  0  0  0  0  0
    3.2151   -0.8469    0.0000 F   0  0  0  0  0  0  0  0  0  0  0  0
   -0.3572   -2.9094    0.0000 O   0  0  0  0  0  0  0  0  0  0  0  0
   -2.5006   -2.4969    0.0000 O   0  0  0  0  0  0  0  0  0  0  0  0
   -1.1419   -0.1795    0.0000 N   0  0  0  0  0  0  0  0  0  0  0  0
   -1.6268   -0.8469    0.0000 N   0  0  0  0  0  0  0  0  0  0  0  0
    0.0126    0.9458    0.0000 N   0  0  3  0  0  0  0  0  0  0  0  0
    0.9658    2.9094    0.0000 N   0  0  0  0  0  0  0  0  0  0  0  0
    0.3572   -1.6719    0.0000 C   0  0  0  0  0  0  0  0  0  0  0  0
   -0.3572   -1.2594    0.0000 C   0  0  0  0  0  0  0  0  0  0  0  0
    0.3572   -2.4969    0.0000 C   0  0  0  0  0  0  0  0  0  0  0  0
    1.7862   -1.6719    0.0000 C   0  0  0  0  0  0  0  0  0  0  0  0
   -0.3572   -0.4344    0.0000 C   0  0  0  0  0  0  0  0  0  0  0  0
    1.0717   -1.2594    0.0000 C   0  0  0  0  0  0  0  0  0  0  0  0
    2.5006   -1.2594    0.0000 C   0  0  0  0  0  0  0  0  0  0  0  0
   -1.1419   -1.5144    0.0000 C   0  0  0  0  0  0  0  0  0  0  0  0
    1.0717   -2.9094    0.0000 C   0  0  0  0  0  0  0  0  0  0  0  0
    1.7862   -2.4969    0.0000 C   0  0  0  0  0  0  0  0  0  0  0  0
    0.2261    0.1489    0.0000 C   0  0  0  0  0  0  0  0  0  0  0  0
   -1.0717   -2.4969    0.0000 C   0  0  0  0  0  0  0  0  0  0  0  0
    0.5960    1.5292    0.0000 C   0  0  0  0  0  0  0  0  0  0  0  0
   -0.7843    1.1593    0.0000 C   0  0  0  0  0  0  0  0  0  0  0  0
   -1.7862   -2.9094    0.0000 C   0  0  0  0  0  0  0  0  0  0  0  0
    0.3824    2.3261    0.0000 C   0  0  0  0  0  0  0  0  0  0  0  0
   -3.2151   -2.9094    0.0000 C   0  0  0  0  0  0  0  0  0  0  0  0
  1 16  1  0  0  0  0
  2 16  1  0  0  0  0
  3 16  1  0  0  0  0
  4 12  1  0  0  0  0
  4 21  1  0  0  0  0
  5 24  1  0  0  0  0
  5 26  1  0  0  0  0
  6  7  1  0  0  0  0
  6 14  2  0  0  0  0
  7 17  1  0  0  0  0
  8 20  1  0  0  0  0
  8 22  1  0  0  0  0
  8 23  1  0  0  0  0
  9 25  1  0  0  0  0
 10 11  1  0  0  0  0
 10 12  2  0  0  0  0
 10 15  1  0  0  0  0
 11 14  1  0  0  0  0
 11 17  2  0  0  0  0
 12 18  1  0  0  0  0
 13 15  2  0  0  0  0
 13 16  1  0  0  0  0
 13 19  1  0  0  0  0
 14 20  1  0  0  0  0
 18 19  2  0  0  0  0
 21 24  1  0  0  0  0
 22 25  1  0  0  0  0
M  END
> <PUBCHEM_COMPOUND_ID_TYPE>
0

> <PUBCHEM_TOTAL_CHARGE>
0

> <PUBCHEM_SUBSTANCE_ID>
310947210

> <PUBCHEM_SUBSTANCE_VERSION>
1

> <PUBCHEM_EXT_DATASOURCE_NAME>
4488

> <PUBCHEM_EXT_DATASOURCE_REGID>
SCHEMBL16125365

> <PUBCHEM_SUBSTANCE_COMMENT>
InChI=1S/C17H23F3N4O2/c1-24(6-5-21)11-15-14(10-22-23-15)13-9-12(17(18,19)20)3-4-16(13)26-8-7-25-2/h3-4,9-10H,5-8,11,21H2,1-2H3,(H,22,23)
InChIKey=YDWNNSXZSWXMGF-UHFFFAOYSA-N

> <PUBCHEM_SUBSTANCE_SYNONYM>
SCHEMBL16125365

> <PUBCHEM_XREF_EXT_ID>
SCHEMBL16125365

> <PUBCHEM_EXT_DATASOURCE_URL>
https://www.surechembl.org/

> <PUBCHEM_EXT_SUBSTANCE_URL>
https://www.surechembl.org/chemical/SCHEMBL16125365

> <PUBCHEM_CID_ASSOCIATIONS>
117613031  1

> <PUBCHEM_COORDINATE_TYPE>
1
3

$$$$
