310934119
  -OEChem-07211613022D

 43 48  0     1  0  0  0  0  0999 V2000
    6.7768    0.0000    0.0000 Cl  0  0  0  0  0  0  0  0  0  0  0  0
    0.0000   -7.4202    0.0000 F   0  0  0  0  0  0  0  0  0  0  0  0
    1.3296   -8.0206    0.0000 F   0  0  0  0  0  0  0  0  0  0  0  0
    0.3431   -6.6910    0.0000 F   0  0  0  0  0  0  0  0  0  0  0  0
    4.3749   -8.5782    0.0000 F   0  0  0  0  0  0  0  0  0  0  0  0
    7.2057   -4.9754    0.0000 O   0  0  0  0  0  0  0  0  0  0  0  0
    6.0048   -4.2891    0.0000 N   0  0  0  0  0  0  0  0  0  0  0  0
    4.2891   -5.6616    0.0000 N   0  0  0  0  0  0  0  0  0  0  0  0
    8.4496   -2.8308    0.0000 N   0  0  0  0  0  0  0  0  0  0  0  0
    4.2462   -4.3320    0.0000 N   0  0  0  0  0  0  0  0  0  0  0  0
    9.2645   -2.8737    0.0000 N   0  0  0  0  0  0  0  0  0  0  0  0
    9.4360   -3.6886    0.0000 N   0  0  0  0  0  0  0  0  0  0  0  0
    8.7498   -4.1175    0.0000 N   0  0  0  0  0  0  0  0  0  0  0  0
    5.5759   -4.9754    0.0000 C   0  0  3  0  0  0  0  0  0  0  0  0
    7.2057   -2.1446    0.0000 C   0  0  0  0  0  0  0  0  0  0  0  0
    6.7768   -2.8737    0.0000 C   0  0  0  0  0  0  0  0  0  0  0  0
    4.7609   -5.0183    0.0000 C   0  0  0  0  0  0  0  0  0  0  0  0
    8.0206   -2.1446    0.0000 C   0  0  0  0  0  0  0  0  0  0  0  0
    6.7768   -4.2891    0.0000 C   0  0  0  0  0  0  0  0  0  0  0  0
    7.2486   -3.5599    0.0000 C   0  0  0  0  0  0  0  0  0  0  0  0
    3.5171   -5.4043    0.0000 C   0  0  0  0  0  0  0  0  0  0  0  0
    5.5330   -3.5599    0.0000 C   0  0  0  0  0  0  0  0  0  0  0  0
    6.0048   -2.8737    0.0000 C   0  0  0  0  0  0  0  0  0  0  0  0
    2.8308   -5.9189    0.0000 C   0  0  0  0  0  0  0  0  0  0  0  0
    6.0048   -5.7045    0.0000 C   0  0  0  0  0  0  0  0  0  0  0  0
    6.7768   -1.4154    0.0000 C   0  0  0  0  0  0  0  0  0  0  0  0
    3.4742   -4.5893    0.0000 C   0  0  0  0  0  0  0  0  0  0  0  0
    8.4067   -1.4154    0.0000 C   0  0  0  0  0  0  0  0  0  0  0  0
    7.1628   -0.7291    0.0000 C   0  0  0  0  0  0  0  0  0  0  0  0
    5.6188   -6.4336    0.0000 C   0  0  0  0  0  0  0  0  0  0  0  0
    8.0206   -0.6862    0.0000 C   0  0  0  0  0  0  0  0  0  0  0  0
    1.5012   -6.8626    0.0000 C   0  0  0  0  0  0  0  0  0  0  0  0
    2.9166   -6.7339    0.0000 C   0  0  0  0  0  0  0  0  0  0  0  0
    2.1017   -5.5759    0.0000 C   0  0  0  0  0  0  0  0  0  0  0  0
    8.1064   -3.5599    0.0000 C   0  0  0  0  0  0  0  0  0  0  0  0
    0.8149   -7.3773    0.0000 C   0  0  0  0  0  0  0  0  0  0  0  0
    2.2732   -7.2057    0.0000 C   0  0  0  0  0  0  0  0  0  0  0  0
    1.4154   -6.0477    0.0000 C   0  0  0  0  0  0  0  0  0  0  0  0
    6.0048   -7.1199    0.0000 C   0  0  0  0  0  0  0  0  0  0  0  0
    4.7609   -6.4336    0.0000 C   0  0  0  0  0  0  0  0  0  0  0  0
    5.6188   -7.8491    0.0000 C   0  0  0  0  0  0  0  0  0  0  0  0
    4.3749   -7.1628    0.0000 C   0  0  0  0  0  0  0  0  0  0  0  0
    4.8038   -7.8491    0.0000 C   0  0  0  0  0  0  0  0  0  0  0  0
  1 29  1  0  0  0  0
  2 36  1  0  0  0  0
  3 36  1  0  0  0  0
  4 36  1  0  0  0  0
  5 43  1  0  0  0  0
  6 19  2  0  0  0  0
  7 14  1  0  0  0  0
  7 19  1  0  0  0  0
  7 22  1  0  0  0  0
  8 17  1  0  0  0  0
  8 21  1  0  0  0  0
  9 11  1  0  0  0  0
  9 18  1  0  0  0  0
  9 35  1  0  0  0  0
 10 17  2  0  0  0  0
 10 27  1  0  0  0  0
 11 12  2  0  0  0  0
 12 13  1  0  0  0  0
 13 35  2  0  0  0  0
 14 17  1  0  0  0  0
 14 25  1  0  0  0  0
 15 16  1  0  0  0  0
 15 18  1  0  0  0  0
 15 26  2  0  0  0  0
 16 20  2  0  0  0  0
 16 23  1  0  0  0  0
 18 28  2  0  0  0  0
 19 20  1  0  0  0  0
 21 24  1  0  0  0  0
 21 27  2  0  0  0  0
 22 23  2  0  0  0  0
 24 33  2  0  0  0  0
 24 34  1  0  0  0  0
 25 30  1  0  0  0  0
 26 29  1  0  0  0  0
 28 31  1  0  0  0  0
 29 31  2  0  0  0  0
 30 39  2  0  0  0  0
 30 40  1  0  0  0  0
 32 36  1  0  0  0  0
 32 37  2  0  0  0  0
 32 38  1  0  0  0  0
 33 37  1  0  0  0  0
 34 38  2  0  0  0  0
 39 41  1  0  0  0  0
 40 42  2  0  0  0  0
 41 43  2  0  0  0  0
 42 43  1  0  0  0  0
M  END
> <PUBCHEM_COMPOUND_ID_TYPE>
0

> <PUBCHEM_TOTAL_CHARGE>
0

> <PUBCHEM_SUBSTANCE_ID>
310934119

> <PUBCHEM_SUBSTANCE_VERSION>
1

> <PUBCHEM_EXT_DATASOURCE_NAME>
4488

> <PUBCHEM_EXT_DATASOURCE_REGID>
SCHEMBL16111565

> <PUBCHEM_SUBSTANCE_COMMENT>
InChI=1S/C30H20ClF4N7O/c31-22-7-10-26(42-17-37-39-40-42)24(15-22)20-11-12-41(28(43)14-20)27(13-18-1-8-23(32)9-2-18)29-36-16-25(38-29)19-3-5-21(6-4-19)30(33,34)35/h1-12,14-17,27H,13H2,(H,36,38)
InChIKey=DGNGOCIAXPYXMT-UHFFFAOYSA-N

> <PUBCHEM_SUBSTANCE_SYNONYM>
SCHEMBL16111565

> <PUBCHEM_XREF_EXT_ID>
SCHEMBL16111565

> <PUBCHEM_EXT_DATASOURCE_URL>
https://www.surechembl.org/

> <PUBCHEM_EXT_SUBSTANCE_URL>
https://www.surechembl.org/chemical/SCHEMBL16111565

> <PUBCHEM_CID_ASSOCIATIONS>
86301706  1

> <PUBCHEM_COORDINATE_TYPE>
1
3

$$$$
