310937148
  -OEChem-07211613022D

 33 36  0     1  0  0  0  0  0999 V2000
    1.4358   -2.7631    0.0000 O   0  0  0  0  0  0  0  0  0  0  0  0
   -0.5837   -1.4124    0.0000 O   0  0  0  0  0  0  0  0  0  0  0  0
    1.1809   -3.5477    0.0000 O   0  0  0  0  0  0  0  0  0  0  0  0
   -1.2159   -5.4737    0.0000 O   0  0  0  0  0  0  0  0  0  0  0  0
   -2.0558   -4.3177    0.0000 O   0  0  0  0  0  0  0  0  0  0  0  0
    1.1387   -0.0305    0.0000 N   0  0  0  0  0  0  0  0  0  0  0  0
   -0.1781   -3.1062    0.0000 N   0  0  0  0  0  0  0  0  0  0  0  0
   -0.6347   -4.1683    0.0000 N   0  0  0  0  0  0  0  0  0  0  0  0
   -0.5837    0.0165    0.0000 N   0  0  0  0  0  0  0  0  0  0  0  0
   -1.4856    1.4847    0.0000 N   0  0  0  0  0  0  0  0  0  0  0  0
   -2.6417    0.8172    0.0000 N   0  0  0  0  0  0  0  0  0  0  0  0
   -2.0987    2.0367    0.0000 N   0  0  0  0  0  0  0  0  0  0  0  0
   -2.8132    1.6242    0.0000 N   0  0  0  0  0  0  0  0  0  0  0  0
    1.1387   -1.3654    0.0000 C   0  0  3  0  0  0  0  0  0  0  0  0
    1.9233   -1.1104    0.0000 C   0  0  0  0  0  0  0  0  0  0  0  0
    0.6538   -0.6979    0.0000 C   0  0  3  0  0  0  0  0  0  0  0  0
    1.9233   -0.2854    0.0000 C   0  0  0  0  0  0  0  0  0  0  0  0
    0.8838   -2.1500    0.0000 C   0  0  0  0  0  0  0  0  0  0  0  0
    0.1190   -4.5039    0.0000 C   0  0  0  0  0  0  0  0  0  0  0  0
   -0.1712   -0.6979    0.0000 C   0  0  0  0  0  0  0  0  0  0  0  0
    0.3739   -3.7192    0.0000 C   0  0  0  0  0  0  0  0  0  0  0  0
    2.6378   -1.5229    0.0000 C   0  0  0  0  0  0  0  0  0  0  0  0
    2.6378    0.1271    0.0000 C   0  0  0  0  0  0  0  0  0  0  0  0
    0.0768   -2.3215    0.0000 C   0  0  0  0  0  0  0  0  0  0  0  0
    0.9259   -4.6754    0.0000 C   0  0  0  0  0  0  0  0  0  0  0  0
   -0.2935   -5.2183    0.0000 C   0  0  0  0  0  0  0  0  0  0  0  0
    3.3523   -1.1104    0.0000 C   0  0  0  0  0  0  0  0  0  0  0  0
    3.3523   -0.2854    0.0000 C   0  0  0  0  0  0  0  0  0  0  0  0
    1.0122   -5.4959    0.0000 C   0  0  0  0  0  0  0  0  0  0  0  0
    0.2585   -5.8314    0.0000 C   0  0  0  0  0  0  0  0  0  0  0  0
   -1.3021   -4.6532    0.0000 C   0  0  0  0  0  0  0  0  0  0  0  0
   -1.4087    0.0165    0.0000 C   0  0  0  0  0  0  0  0  0  0  0  0
   -1.8212    0.7310    0.0000 C   0  0  0  0  0  0  0  0  0  0  0  0
  1 18  2  0  0  0  0
  2 20  2  0  0  0  0
  3 21  2  0  0  0  0
  4 31  2  0  0  0  0
  5 31  1  0  0  0  0
  6 16  1  0  0  0  0
  6 17  1  0  0  0  0
  7 21  1  0  0  0  0
  7 24  1  0  0  0  0
  8 19  1  0  0  0  0
  8 31  1  0  0  0  0
  9 20  1  0  0  0  0
  9 32  1  0  0  0  0
 10 12  2  0  0  0  0
 10 33  1  0  0  0  0
 11 13  1  0  0  0  0
 11 33  2  0  0  0  0
 12 13  1  0  0  0  0
 14 15  1  0  0  0  0
 14 16  1  0  0  0  0
 14 18  1  0  0  0  0
 15 17  1  0  0  0  0
 15 22  2  0  0  0  0
 16 20  1  0  0  0  0
 17 23  2  0  0  0  0
 18 24  1  0  0  0  0
 19 21  1  0  0  0  0
 19 25  1  0  0  0  0
 19 26  1  0  0  0  0
 22 27  1  0  0  0  0
 23 28  1  0  0  0  0
 25 29  1  0  0  0  0
 26 30  1  0  0  0  0
 27 28  2  0  0  0  0
 29 30  1  0  0  0  0
 32 33  1  0  0  0  0
M  END
> <PUBCHEM_COMPOUND_ID_TYPE>
0

> <PUBCHEM_TOTAL_CHARGE>
0

> <PUBCHEM_SUBSTANCE_ID>
310937148

> <PUBCHEM_SUBSTANCE_VERSION>
1

> <PUBCHEM_EXT_DATASOURCE_NAME>
4488

> <PUBCHEM_EXT_DATASOURCE_REGID>
SCHEMBL16114871

> <PUBCHEM_SUBSTANCE_COMMENT>
InChI=1S/C20H24N8O5/c29-13(9-22-18(31)20(24-19(32)33)7-3-4-8-20)15-11-5-1-2-6-12(11)23-16(15)17(30)21-10-14-25-27-28-26-14/h1-2,5-6,15-16,23-24H,3-4,7-10H2,(H,21,30)(H,22,31)(H,32,33)(H,25,26,27,28)
InChIKey=XJSYURYQCAMVCG-UHFFFAOYSA-N

> <PUBCHEM_SUBSTANCE_SYNONYM>
SCHEMBL16114871

> <PUBCHEM_XREF_EXT_ID>
SCHEMBL16114871

> <PUBCHEM_EXT_DATASOURCE_URL>
https://www.surechembl.org/

> <PUBCHEM_EXT_SUBSTANCE_URL>
https://www.surechembl.org/chemical/SCHEMBL16114871

> <PUBCHEM_CID_ASSOCIATIONS>
117604972  1

> <PUBCHEM_COORDINATE_TYPE>
1
3

$$$$
