310941905
  -OEChem-07211613022D

 12 12  0     1  0  0  0  0  0999 V2000
    2.0570   -0.3577    0.0000 O   0  0  0  0  0  0  0  0  0  0  0  0
    2.0570    0.9838    0.0000 O   0  0  0  0  0  0  0  0  0  0  0  0
    0.8049    0.3577    0.0000 C   0  0  0  0  0  0  0  0  0  0  0  0
   -0.4472   -0.3577    0.0000 C   0  0  3  0  0  0  0  0  0  0  0  0
    1.1627   -0.3130    0.0000 C   0  0  0  0  0  0  0  0  0  0  0  0
    0.0000    0.3130    0.0000 C   0  0  0  0  0  0  0  0  0  0  0  0
   -0.0447   -1.0285    0.0000 C   0  0  0  0  0  0  0  0  0  0  0  0
    0.8049   -1.0732    0.0000 C   0  0  0  0  0  0  0  0  0  0  0  0
   -1.2968   -0.3130    0.0000 C   0  0  0  0  0  0  0  0  0  0  0  0
    1.2521    1.0732    0.0000 C   0  0  0  0  0  0  0  0  0  0  0  0
   -1.6545   -1.0732    0.0000 C   0  0  0  0  0  0  0  0  0  0  0  0
   -2.0570   -0.3577    0.0000 C   0  0  0  0  0  0  0  0  0  0  0  0
  1  5  1  0  0  0  0
  2 10  2  0  0  0  0
  3  5  1  0  0  0  0
  3  6  2  0  0  0  0
  3 10  1  0  0  0  0
  4  6  1  0  0  0  0
  4  7  1  0  0  0  0
  4  9  1  0  0  0  0
  5  8  2  0  0  0  0
  7  8  1  0  0  0  0
  9 11  1  0  0  0  0
  9 12  1  0  0  0  0
M  END
> <PUBCHEM_COMPOUND_ID_TYPE>
0

> <PUBCHEM_TOTAL_CHARGE>
0

> <PUBCHEM_SUBSTANCE_ID>
310941905

> <PUBCHEM_SUBSTANCE_VERSION>
1

> <PUBCHEM_EXT_DATASOURCE_NAME>
4488

> <PUBCHEM_EXT_DATASOURCE_REGID>
SCHEMBL16119937

> <PUBCHEM_SUBSTANCE_COMMENT>
InChI=1S/C10H14O2/c1-7(2)8-3-4-10(12)9(5-8)6-11/h4-8,12H,3H2,1-2H3
InChIKey=OTNWSTITASBHHP-UHFFFAOYSA-N

> <PUBCHEM_SUBSTANCE_SYNONYM>
SCHEMBL16119937

> <PUBCHEM_XREF_EXT_ID>
SCHEMBL16119937

> <PUBCHEM_EXT_DATASOURCE_URL>
https://www.surechembl.org/

> <PUBCHEM_EXT_SUBSTANCE_URL>
https://www.surechembl.org/chemical/SCHEMBL16119937

> <PUBCHEM_CID_ASSOCIATIONS>
117608637  1

> <PUBCHEM_COORDINATE_TYPE>
1
3

$$$$
