310929601
  -OEChem-07211613022D

 48 51  0     1  0  0  0  0  0999 V2000
    4.7872   -7.8479    0.0000 O   0  0  0  0  0  0  0  0  0  0  0  0
    3.9632   -7.8479    0.0000 O   0  0  0  0  0  0  0  0  0  0  0  0
    6.0429   -4.2379    0.0000 O   0  0  0  0  0  0  0  0  0  0  0  0
    5.6113   -4.9442    0.0000 O   0  0  0  0  0  0  0  0  0  0  0  0
    2.3544   -0.7063    0.0000 O   0  0  0  0  0  0  0  0  0  0  0  0
    2.7468   -1.4519    0.0000 O   0  0  0  0  0  0  0  0  0  0  0  0
    2.3151   -4.9834    0.0000 C   0  0  0  0  0  0  0  0  0  0  0  0
    4.7872   -6.3961    0.0000 C   0  0  0  0  0  0  0  0  0  0  0  0
    4.7872   -3.5315    0.0000 C   0  0  0  0  0  0  0  0  0  0  0  0
    3.5708   -5.6897    0.0000 C   0  0  3  0  0  0  0  0  0  0  0  0
    3.5708   -4.2771    0.0000 C   0  0  3  0  0  0  0  0  0  0  0  0
    4.3948   -7.1416    0.0000 C   0  0  0  0  0  0  0  0  0  0  0  0
    5.2189   -4.2379    0.0000 C   0  0  0  0  0  0  0  0  0  0  0  0
    3.1391   -4.9834    0.0000 C   0  0  0  0  0  0  0  0  0  0  0  0
    2.7468   -4.2771    0.0000 C   0  0  0  0  0  0  0  0  0  0  0  0
    1.8835   -4.2771    0.0000 C   0  0  0  0  0  0  0  0  0  0  0  0
    1.1379   -1.4126    0.0000 C   0  0  0  0  0  0  0  0  0  0  0  0
    3.1391   -6.3961    0.0000 C   0  0  0  0  0  0  0  0  0  0  0  0
    3.9632   -4.9834    0.0000 C   0  0  0  0  0  0  0  0  0  0  0  0
    1.9620   -1.4519    0.0000 C   0  0  0  0  0  0  0  0  0  0  0  0
    4.3948   -5.6897    0.0000 C   0  0  0  0  0  0  0  0  0  0  0  0
    3.9632   -3.5315    0.0000 C   0  0  0  0  0  0  0  0  0  0  0  0
    5.6113   -6.3961    0.0000 C   0  0  0  0  0  0  0  0  0  0  0  0
    5.1796   -2.8253    0.0000 C   0  0  0  0  0  0  0  0  0  0  0  0
    1.0987   -4.2771    0.0000 C   0  0  0  0  0  0  0  0  0  0  0  0
    1.8835   -5.6897    0.0000 C   0  0  0  0  0  0  0  0  0  0  0  0
    1.0987   -2.8645    0.0000 C   0  0  3  0  0  0  0  0  0  0  0  0
    3.5708   -7.1416    0.0000 C   0  0  0  0  0  0  0  0  0  0  0  0
    4.7872   -4.9442    0.0000 C   0  0  0  0  0  0  0  0  0  0  0  0
    0.7063   -0.7063    0.0000 C   0  0  0  0  0  0  0  0  0  0  0  0
    0.7063   -2.1189    0.0000 C   0  0  0  0  0  0  0  0  0  0  0  0
    1.9227   -2.8645    0.0000 C   0  0  0  0  0  0  0  0  0  0  0  0
    0.6671   -3.5708    0.0000 C   0  0  0  0  0  0  0  0  0  0  0  0
    2.3544   -2.1582    0.0000 C   0  0  0  0  0  0  0  0  0  0  0  0
    0.6671   -4.9834    0.0000 C   0  0  0  0  0  0  0  0  0  0  0  0
    1.0987   -5.6897    0.0000 C   0  0  0  0  0  0  0  0  0  0  0  0
    2.3151   -6.3961    0.0000 C   0  0  0  0  0  0  0  0  0  0  0  0
    3.7277   -5.8467    0.0000 C   0  0  0  0  0  0  0  0  0  0  0  0
    5.6113   -7.2593    0.0000 C   0  0  0  0  0  0  0  0  0  0  0  0
    6.4353   -6.3961    0.0000 C   0  0  0  0  0  0  0  0  0  0  0  0
    5.6113   -5.6113    0.0000 C   0  0  0  0  0  0  0  0  0  0  0  0
    5.9252   -3.2177    0.0000 C   0  0  0  0  0  0  0  0  0  0  0  0
    5.5720   -2.1189    0.0000 C   0  0  0  0  0  0  0  0  0  0  0  0
    4.4733   -2.4329    0.0000 C   0  0  0  0  0  0  0  0  0  0  0  0
    1.4519   -0.3139    0.0000 C   0  0  0  0  0  0  0  0  0  0  0  0
    0.3139    0.0000    0.0000 C   0  0  0  0  0  0  0  0  0  0  0  0
    0.0000   -1.0987    0.0000 C   0  0  0  0  0  0  0  0  0  0  0  0
    2.3151   -3.5708    0.0000 C   0  0  0  0  0  0  0  0  0  0  0  0
  1 12  1  0  0  0  0
  2 12  1  0  0  0  0
  3 13  1  0  0  0  0
  4 13  1  0  0  0  0
  5 20  1  0  0  0  0
  6 20  1  0  0  0  0
  7 14  1  0  0  0  0
  7 15  1  0  0  0  0
  7 16  1  0  0  0  0
  7 26  1  0  0  0  0
  8 12  1  0  0  0  0
  8 21  2  0  0  0  0
  8 23  1  0  0  0  0
  9 13  1  0  0  0  0
  9 22  2  0  0  0  0
  9 24  1  0  0  0  0
 10 14  1  0  0  0  0
 10 18  1  0  0  0  0
 10 21  1  0  0  0  0
 11 15  1  0  0  0  0
 11 19  1  0  0  0  0
 11 22  1  0  0  0  0
 12 28  1  0  0  0  0
 13 29  1  0  0  0  0
 16 25  1  0  0  0  0
 17 20  1  0  0  0  0
 17 30  1  0  0  0  0
 17 31  2  0  0  0  0
 18 28  2  0  0  0  0
 18 37  1  0  0  0  0
 19 29  2  0  0  0  0
 19 38  1  0  0  0  0
 20 34  1  0  0  0  0
 23 39  1  0  0  0  0
 23 40  1  0  0  0  0
 23 41  1  0  0  0  0
 24 42  1  0  0  0  0
 24 43  1  0  0  0  0
 24 44  1  0  0  0  0
 25 33  1  0  0  0  0
 25 35  2  0  0  0  0
 26 36  2  0  0  0  0
 27 31  1  0  0  0  0
 27 32  1  0  0  0  0
 27 33  1  0  0  0  0
 30 45  1  0  0  0  0
 30 46  1  0  0  0  0
 30 47  1  0  0  0  0
 32 34  2  0  0  0  0
 32 48  1  0  0  0  0
 35 36  1  0  0  0  0
M  END
> <PUBCHEM_COMPOUND_ID_TYPE>
0

> <PUBCHEM_TOTAL_CHARGE>
0

> <PUBCHEM_SUBSTANCE_ID>
310929601

> <PUBCHEM_SUBSTANCE_VERSION>
1

> <PUBCHEM_EXT_DATASOURCE_NAME>
4488

> <PUBCHEM_EXT_DATASOURCE_REGID>
SCHEMBL16106788

> <PUBCHEM_SUBSTANCE_COMMENT>
InChI=1S/C42H62O6/c1-26-20-40(43,44)33(36(4,5)6)17-30(26)16-29-14-13-15-39(23-29,24-31-18-34(37(7,8)9)41(45,46)21-27(31)2)25-32-19-35(38(10,11)12)42(47,48)22-28(32)3/h13-15,17-22,30-32,43-48H,16,23-25H2,1-12H3
InChIKey=IJOWRJURVHTTIR-UHFFFAOYSA-N

> <PUBCHEM_SUBSTANCE_SYNONYM>
SCHEMBL16106788

> <PUBCHEM_XREF_EXT_ID>
SCHEMBL16106788

> <PUBCHEM_EXT_DATASOURCE_URL>
https://www.surechembl.org/

> <PUBCHEM_EXT_SUBSTANCE_URL>
https://www.surechembl.org/chemical/SCHEMBL16106788

> <PUBCHEM_CID_ASSOCIATIONS>
117598909  1

> <PUBCHEM_COORDINATE_TYPE>
1
3

$$$$
