310949184
  -OEChem-07211613022D

 17 17  0     1  0  0  0  0  0999 V2000
   -2.0857   -2.1585    0.0000 O   0  0  0  0  0  0  0  0  0  0  0  0
   -2.0615   -0.7033    0.0000 N   0  0  0  0  0  0  0  0  0  0  0  0
    1.6734   -1.4308    0.0000 N   0  0  0  0  0  0  0  0  0  0  0  0
   -2.0615    2.1585    0.0000 N   0  0  0  0  0  0  0  0  0  0  0  0
   -0.8245   -1.4066    0.0000 C   0  0  0  0  0  0  0  0  0  0  0  0
   -1.6492   -1.3824    0.0000 C   0  0  0  0  0  0  0  0  0  0  0  0
    0.8245   -1.4066    0.0000 C   0  0  0  0  0  0  0  0  0  0  0  0
   -0.3880   -2.1343    0.0000 C   0  0  0  0  0  0  0  0  0  0  0  0
   -0.4123   -0.7276    0.0000 C   0  0  0  0  0  0  0  0  0  0  0  0
    0.4366   -2.1343    0.0000 C   0  0  0  0  0  0  0  0  0  0  0  0
    0.4366   -0.7276    0.0000 C   0  0  0  0  0  0  0  0  0  0  0  0
   -1.7219    0.1941    0.0000 C   0  0  3  0  0  0  0  0  0  0  0  0
   -2.0372    0.7033    0.0000 C   0  0  0  0  0  0  0  0  0  0  0  0
    2.0857   -0.7033    0.0000 C   0  0  0  0  0  0  0  0  0  0  0  0
    2.0857   -2.1585    0.0000 C   0  0  0  0  0  0  0  0  0  0  0  0
   -1.7461    1.0428    0.0000 C   0  0  0  0  0  0  0  0  0  0  0  0
   -1.6492    1.4551    0.0000 C   0  0  0  0  0  0  0  0  0  0  0  0
  1  6  2  0  0  0  0
  2  6  1  0  0  0  0
  2 12  1  0  0  0  0
  3  7  1  0  0  0  0
  3 14  1  0  0  0  0
  3 15  1  0  0  0  0
  4 17  1  0  0  0  0
  5  6  1  0  0  0  0
  5  8  2  0  0  0  0
  5  9  1  0  0  0  0
  7 10  2  0  0  0  0
  7 11  1  0  0  0  0
  8 10  1  0  0  0  0
  9 11  2  0  0  0  0
 12 13  1  0  0  0  0
 12 16  1  0  0  0  0
 13 17  1  0  0  0  0
M  END
> <PUBCHEM_COMPOUND_ID_TYPE>
0

> <PUBCHEM_TOTAL_CHARGE>
0

> <PUBCHEM_SUBSTANCE_ID>
310949184

> <PUBCHEM_SUBSTANCE_VERSION>
1

> <PUBCHEM_EXT_DATASOURCE_NAME>
4488

> <PUBCHEM_EXT_DATASOURCE_REGID>
SCHEMBL16127374

> <PUBCHEM_SUBSTANCE_COMMENT>
InChI=1S/C13H21N3O/c1-10(8-9-14)15-13(17)11-4-6-12(7-5-11)16(2)3/h4-7,10H,8-9,14H2,1-3H3,(H,15,17)
InChIKey=BNBYBDQTMBRUEC-UHFFFAOYSA-N

> <PUBCHEM_SUBSTANCE_SYNONYM>
SCHEMBL16127374

> <PUBCHEM_XREF_EXT_ID>
SCHEMBL16127374

> <PUBCHEM_EXT_DATASOURCE_URL>
https://www.surechembl.org/

> <PUBCHEM_EXT_SUBSTANCE_URL>
https://www.surechembl.org/chemical/SCHEMBL16127374

> <PUBCHEM_CID_ASSOCIATIONS>
62087217  1

> <PUBCHEM_COORDINATE_TYPE>
1
3

$$$$
