310935998
  -OEChem-07211613022D

 30 32  0     1  0  0  0  0  0999 V2000
   -8.2879   -2.4750    0.0000 F   0  0  0  0  0  0  0  0  0  0  0  0
   -6.8589   -4.9500    0.0000 F   0  0  0  0  0  0  0  0  0  0  0  0
   -4.7155   -2.8875    0.0000 O   0  0  0  0  0  0  0  0  0  0  0  0
   -2.8579   -0.1650    0.0000 O   0  0  0  0  0  0  0  0  0  0  0  0
   -2.1434   -1.4025    0.0000 O   0  0  0  0  0  0  0  0  0  0  0  0
   -3.5724   -1.4025    0.0000 N   0  0  0  0  0  0  0  0  0  0  0  0
   -5.4300   -1.6500    0.0000 C   0  0  3  0  0  0  0  0  0  0  0  0
   -6.1444   -1.2375    0.0000 C   0  0  0  0  0  0  0  0  0  0  0  0
   -5.4300   -2.4750    0.0000 C   0  0  3  0  0  0  0  0  0  0  0  0
   -6.1444   -2.8875    0.0000 C   0  0  0  0  0  0  0  0  0  0  0  0
   -4.2868   -0.9900    0.0000 C   0  0  0  0  0  0  0  0  0  0  0  0
   -7.5734   -1.2375    0.0000 C   0  0  0  0  0  0  0  0  0  0  0  0
   -6.8589   -1.6500    0.0000 C   0  0  0  0  0  0  0  0  0  0  0  0
   -3.5724   -2.2275    0.0000 C   0  0  0  0  0  0  0  0  0  0  0  0
   -7.5734   -0.4125    0.0000 C   0  0  0  0  0  0  0  0  0  0  0  0
   -6.1444   -0.4125    0.0000 C   0  0  0  0  0  0  0  0  0  0  0  0
   -6.1444   -3.7125    0.0000 C   0  0  0  0  0  0  0  0  0  0  0  0
   -6.8589   -2.4750    0.0000 C   0  0  0  0  0  0  0  0  0  0  0  0
   -6.8589    0.0000    0.0000 C   0  0  0  0  0  0  0  0  0  0  0  0
   -2.8579   -0.9900    0.0000 C   0  0  0  0  0  0  0  0  0  0  0  0
   -7.5734   -2.8875    0.0000 C   0  0  0  0  0  0  0  0  0  0  0  0
   -6.8589   -4.1250    0.0000 C   0  0  0  0  0  0  0  0  0  0  0  0
   -8.2879   -1.6500    0.0000 C   0  0  0  0  0  0  0  0  0  0  0  0
   -7.5734   -3.7125    0.0000 C   0  0  0  0  0  0  0  0  0  0  0  0
   -8.2879    0.0000    0.0000 C   0  0  0  0  0  0  0  0  0  0  0  0
   -2.8579   -2.6400    0.0000 C   0  0  0  0  0  0  0  0  0  0  0  0
   -3.5724   -3.0525    0.0000 C   0  0  0  0  0  0  0  0  0  0  0  0
   -4.2868   -2.6400    0.0000 C   0  0  0  0  0  0  0  0  0  0  0  0
   -9.0023   -1.2375    0.0000 C   0  0  0  0  0  0  0  0  0  0  0  0
   -9.0023   -0.4125    0.0000 C   0  0  0  0  0  0  0  0  0  0  0  0
  1 21  1  0  0  0  0
  2 22  1  0  0  0  0
  3  9  1  0  0  0  0
  4 20  2  0  0  0  0
  5 20  1  0  0  0  0
  6 11  1  0  0  0  0
  6 14  1  0  0  0  0
  6 20  1  0  0  0  0
  7  8  1  0  0  0  0
  7  9  1  0  0  0  0
  7 11  1  0  0  0  0
  8 13  1  0  0  0  0
  8 16  2  0  0  0  0
  9 10  1  0  0  0  0
 10 17  2  0  0  0  0
 10 18  1  0  0  0  0
 12 13  2  0  0  0  0
 12 15  1  0  0  0  0
 12 23  1  0  0  0  0
 14 26  1  0  0  0  0
 14 27  1  0  0  0  0
 14 28  1  0  0  0  0
 15 19  2  0  0  0  0
 15 25  1  0  0  0  0
 16 19  1  0  0  0  0
 17 22  1  0  0  0  0
 18 21  2  0  0  0  0
 21 24  1  0  0  0  0
 22 24  2  0  0  0  0
 23 29  2  0  0  0  0
 25 30  2  0  0  0  0
 29 30  1  0  0  0  0
M  END
> <PUBCHEM_COMPOUND_ID_TYPE>
0

> <PUBCHEM_TOTAL_CHARGE>
0

> <PUBCHEM_SUBSTANCE_ID>
310935998

> <PUBCHEM_SUBSTANCE_VERSION>
1

> <PUBCHEM_EXT_DATASOURCE_NAME>
4488

> <PUBCHEM_EXT_DATASOURCE_REGID>
SCHEMBL16113599

> <PUBCHEM_SUBSTANCE_COMMENT>
InChI=1S/C24H25F2NO3/c1-24(2,3)27(23(29)30)14-21(22(28)18-11-19(25)13-20(26)12-18)17-9-8-15-6-4-5-7-16(15)10-17/h4-13,21-22,28H,14H2,1-3H3,(H,29,30)
InChIKey=ZDICSVWUOMRPGL-UHFFFAOYSA-N

> <PUBCHEM_SUBSTANCE_SYNONYM>
SCHEMBL16113599

> <PUBCHEM_XREF_EXT_ID>
SCHEMBL16113599

> <PUBCHEM_EXT_DATASOURCE_URL>
https://www.surechembl.org/

> <PUBCHEM_EXT_SUBSTANCE_URL>
https://www.surechembl.org/chemical/SCHEMBL16113599

> <PUBCHEM_CID_ASSOCIATIONS>
117603971  1

> <PUBCHEM_COORDINATE_TYPE>
1
3

$$$$
