310939508
  -OEChem-07211613022D

 12 13  0     1  0  0  0  0  0999 V2000
    0.8159    1.5735    0.0000 S   0  0  0  0  0  0  0  0  0  0  0  0
    0.8159    0.7485    0.0000 O   0  0  0  0  0  0  0  0  0  0  0  0
    1.5304    1.1610    0.0000 O   0  0  0  0  0  0  0  0  0  0  0  0
    1.0295    2.3704    0.0000 C   0  0  3  0  0  0  0  0  0  0  0  0
    0.3150    1.9579    0.0000 C   0  0  3  0  0  0  0  0  0  0  0  0
   -0.3995    2.3704    0.0000 C   0  0  3  0  0  0  0  0  0  0  0  0
   -0.1860    1.5735    0.0000 C   0  0  0  0  0  0  0  0  0  0  0  0
    1.0295    3.1954    0.0000 C   0  0  0  0  0  0  0  0  0  0  0  0
   -0.3995    3.1954    0.0000 C   0  0  0  0  0  0  0  0  0  0  0  0
    0.3150    3.6079    0.0000 C   0  0  3  0  0  0  0  0  0  0  0  0
    0.4894    2.6088    0.0000 C   0  0  0  0  0  0  0  0  0  0  0  0
    0.4673    3.0396    0.0000 C   0  0  0  0  0  0  0  0  0  0  0  0
  1  2  2  0  0  0  0
  1  3  2  0  0  0  0
  1  4  1  0  0  0  0
  1  7  1  0  0  0  0
  4  5  1  0  0  0  0
  4  8  1  0  0  0  0
  5  6  1  0  0  0  0
  5 11  1  0  0  0  0
  6  7  1  0  0  0  0
  6  9  1  0  0  0  0
  8 10  1  0  0  0  0
  9 10  1  0  0  0  0
 10 12  1  0  0  0  0
M  END
> <PUBCHEM_COMPOUND_ID_TYPE>
0

> <PUBCHEM_TOTAL_CHARGE>
0

> <PUBCHEM_SUBSTANCE_ID>
310939508

> <PUBCHEM_SUBSTANCE_VERSION>
1

> <PUBCHEM_EXT_DATASOURCE_NAME>
4488

> <PUBCHEM_EXT_DATASOURCE_REGID>
SCHEMBL16117437

> <PUBCHEM_SUBSTANCE_COMMENT>
InChI=1S/C9H16O2S/c1-6-3-8-5-12(10,11)9(4-6)7(8)2/h6-9H,3-5H2,1-2H3
InChIKey=GWEPEXNAWPIINI-UHFFFAOYSA-N

> <PUBCHEM_SUBSTANCE_SYNONYM>
SCHEMBL16117437

> <PUBCHEM_XREF_EXT_ID>
SCHEMBL16117437

> <PUBCHEM_EXT_DATASOURCE_URL>
https://www.surechembl.org/

> <PUBCHEM_EXT_SUBSTANCE_URL>
https://www.surechembl.org/chemical/SCHEMBL16117437

> <PUBCHEM_CID_ASSOCIATIONS>
117606808  1

> <PUBCHEM_COORDINATE_TYPE>
1
3

$$$$
