310945860
  -OEChem-07211613022D

 12 13  0     1  0  0  0  0  0999 V2000
    1.6677   -1.6774    0.0000 F   0  0  0  0  0  0  0  0  0  0  0  0
   -0.8921   -0.0097    0.0000 N   0  0  0  0  0  0  0  0  0  0  0  0
    1.2411    0.4945    0.0000 N   0  0  0  0  0  0  0  0  0  0  0  0
   -0.0582   -0.2036    0.0000 C   0  0  3  0  0  0  0  0  0  0  0  0
    0.3491    0.5139    0.0000 C   0  0  3  0  0  0  0  0  0  0  0  0
   -0.9502    0.8435    0.0000 C   0  0  0  0  0  0  0  0  0  0  0  0
   -0.2133    1.1732    0.0000 C   0  0  0  0  0  0  0  0  0  0  0  0
    0.3685   -0.9599    0.0000 C   0  0  0  0  0  0  0  0  0  0  0  0
    1.1829   -0.9599    0.0000 C   0  0  0  0  0  0  0  0  0  0  0  0
    1.6289   -0.1842    0.0000 C   0  0  0  0  0  0  0  0  0  0  0  0
   -1.6677    1.1926    0.0000 C   0  0  0  0  0  0  0  0  0  0  0  0
   -1.5320    1.6774    0.0000 C   0  0  0  0  0  0  0  0  0  0  0  0
  1  9  1  0  0  0  0
  2  4  1  0  0  0  0
  2  6  1  0  0  0  0
  3  5  1  0  0  0  0
  3 10  2  0  0  0  0
  4  5  1  0  0  0  0
  4  8  1  0  0  0  0
  5  7  1  0  0  0  0
  6  7  2  0  0  0  0
  6 11  1  0  0  0  0
  8  9  2  0  0  0  0
  9 10  1  0  0  0  0
 11 12  1  0  0  0  0
M  END
> <PUBCHEM_COMPOUND_ID_TYPE>
0

> <PUBCHEM_TOTAL_CHARGE>
0

> <PUBCHEM_SUBSTANCE_ID>
310945860

> <PUBCHEM_SUBSTANCE_VERSION>
1

> <PUBCHEM_EXT_DATASOURCE_NAME>
4488

> <PUBCHEM_EXT_DATASOURCE_REGID>
SCHEMBL16123965

> <PUBCHEM_SUBSTANCE_COMMENT>
InChI=1S/C9H11FN2/c1-2-7-4-8-9(12-7)3-6(10)5-11-8/h3-5,8-9,12H,2H2,1H3
InChIKey=ZWWOHCHQPLCZGD-UHFFFAOYSA-N

> <PUBCHEM_SUBSTANCE_SYNONYM>
SCHEMBL16123965

> <PUBCHEM_XREF_EXT_ID>
SCHEMBL16123965

> <PUBCHEM_EXT_DATASOURCE_URL>
https://www.surechembl.org/

> <PUBCHEM_EXT_SUBSTANCE_URL>
https://www.surechembl.org/chemical/SCHEMBL16123965

> <PUBCHEM_CID_ASSOCIATIONS>
117611844  1

> <PUBCHEM_COORDINATE_TYPE>
1
3

$$$$
