310946490
  -OEChem-07211613022D

 18 17  0     1  0  0  0  0  0999 V2000
   -5.8229    6.3927    0.0000 O   0  0  0  0  0  0  0  0  0  0  0  0
   -8.1873    3.7263    0.0000 O   0  0  0  0  0  0  0  0  0  0  0  0
   -8.1873    5.1552    0.0000 O   0  0  0  0  0  0  0  0  0  0  0  0
   -7.2518    6.3927    0.0000 O   0  0  0  0  0  0  0  0  0  0  0  0
   -6.5373    5.1552    0.0000 N   0  0  0  0  0  0  0  0  0  0  0  0
   -6.9498    4.4407    0.0000 C   0  0  3  0  0  0  0  0  0  0  0  0
   -7.7748    4.4407    0.0000 C   0  0  0  0  0  0  0  0  0  0  0  0
   -6.5373    5.9802    0.0000 C   0  0  0  0  0  0  0  0  0  0  0  0
   -6.5373    3.7263    0.0000 C   0  0  0  0  0  0  0  0  0  0  0  0
   -5.7123    3.7263    0.0000 C   0  0  0  0  0  0  0  0  0  0  0  0
   -5.6093    7.1896    0.0000 C   0  0  0  0  0  0  0  0  0  0  0  0
   -4.8124    7.4031    0.0000 C   0  0  0  0  0  0  0  0  0  0  0  0
   -5.2998    3.0118    0.0000 C   0  0  0  0  0  0  0  0  0  0  0  0
   -5.2998    4.4407    0.0000 C   0  0  0  0  0  0  0  0  0  0  0  0
   -4.5989    8.2000    0.0000 C   0  0  0  0  0  0  0  0  0  0  0  0
   -3.8020    8.4135    0.0000 C   0  0  0  0  0  0  0  0  0  0  0  0
   -3.5885    9.2104    0.0000 C   0  0  0  0  0  0  0  0  0  0  0  0
   -2.7916    9.4239    0.0000 C   0  0  0  0  0  0  0  0  0  0  0  0
  1  8  1  0  0  0  0
  1 11  1  0  0  0  0
  2  7  2  0  0  0  0
  3  7  1  0  0  0  0
  4  8  2  0  0  0  0
  5  6  1  0  0  0  0
  5  8  1  0  0  0  0
  6  7  1  0  0  0  0
  6  9  1  0  0  0  0
  9 10  1  0  0  0  0
 10 13  1  0  0  0  0
 10 14  1  0  0  0  0
 11 12  1  0  0  0  0
 12 15  1  0  0  0  0
 15 16  1  0  0  0  0
 16 17  1  0  0  0  0
 17 18  1  0  0  0  0
M  END
> <PUBCHEM_COMPOUND_ID_TYPE>
0

> <PUBCHEM_TOTAL_CHARGE>
0

> <PUBCHEM_SUBSTANCE_ID>
310946490

> <PUBCHEM_SUBSTANCE_VERSION>
1

> <PUBCHEM_EXT_DATASOURCE_NAME>
4488

> <PUBCHEM_EXT_DATASOURCE_REGID>
SCHEMBL16124611

> <PUBCHEM_SUBSTANCE_COMMENT>
InChI=1S/C13H25NO4/c1-4-5-6-7-8-18-13(17)14-11(12(15)16)9-10(2)3/h10-11H,4-9H2,1-3H3,(H,14,17)(H,15,16)
InChIKey=MDKPYFDWWTWLKX-UHFFFAOYSA-N

> <PUBCHEM_SUBSTANCE_SYNONYM>
SCHEMBL16124611

> <PUBCHEM_XREF_EXT_ID>
SCHEMBL16124611

> <PUBCHEM_EXT_DATASOURCE_URL>
https://www.surechembl.org/

> <PUBCHEM_EXT_SUBSTANCE_URL>
https://www.surechembl.org/chemical/SCHEMBL16124611

> <PUBCHEM_CID_ASSOCIATIONS>
117612396  1

> <PUBCHEM_COORDINATE_TYPE>
1
3

$$$$
