310949405
  -OEChem-07211613022D

 32 34  0     1  0  0  0  0  0999 V2000
   -0.5215   -2.2725    0.0000 O   0  0  0  0  0  0  0  0  0  0  0  0
    3.6033    1.1363    0.0000 O   0  0  0  0  0  0  0  0  0  0  0  0
    3.1831   -0.2334    0.0000 O   0  0  0  0  0  0  0  0  0  0  0  0
   -1.2530   -1.0429    0.0000 N   0  0  0  0  0  0  0  0  0  0  0  0
   -1.9379   -0.5603    0.0000 N   0  0  0  0  0  0  0  0  0  0  0  0
    0.4903    0.8094    0.0000 N   0  0  3  0  0  0  0  0  0  0  0  0
   -3.4944    1.4632    0.0000 N   0  0  0  0  0  0  0  0  0  0  0  0
    2.1557    0.6226    0.0000 N   0  0  0  0  0  0  0  0  0  0  0  0
   -4.1325    3.4866    0.0000 N   0  0  0  0  0  0  0  0  0  0  0  0
   -1.6888    0.2490    0.0000 C   0  0  0  0  0  0  0  0  0  0  0  0
   -0.8638    0.2334    0.0000 C   0  0  0  0  0  0  0  0  0  0  0  0
   -2.1713    0.9028    0.0000 C   0  0  0  0  0  0  0  0  0  0  0  0
   -0.5992   -0.5448    0.0000 C   0  0  0  0  0  0  0  0  0  0  0  0
   -1.2686   -1.8523    0.0000 C   0  0  3  0  0  0  0  0  0  0  0  0
   -0.3502    0.9028    0.0000 C   0  0  0  0  0  0  0  0  0  0  0  0
   -3.0118    0.8249    0.0000 C   0  0  0  0  0  0  0  0  0  0  0  0
   -1.8444    1.6499    0.0000 C   0  0  0  0  0  0  0  0  0  0  0  0
   -1.9845   -2.2569    0.0000 C   0  0  0  0  0  0  0  0  0  0  0  0
   -3.1675    2.2414    0.0000 C   0  0  0  0  0  0  0  0  0  0  0  0
   -2.3270    2.3192    0.0000 C   0  0  0  0  0  0  0  0  0  0  0  0
   -0.5526   -3.0819    0.0000 C   0  0  0  0  0  0  0  0  0  0  0  0
   -1.9845   -3.0819    0.0000 C   0  0  0  0  0  0  0  0  0  0  0  0
    0.8172    0.0778    0.0000 C   0  0  0  0  0  0  0  0  0  0  0  0
   -1.2530   -3.4866    0.0000 C   0  0  0  0  0  0  0  0  0  0  0  0
   -3.6500    2.8796    0.0000 C   0  0  0  0  0  0  0  0  0  0  0  0
    0.9729    1.5098    0.0000 C   0  0  0  0  0  0  0  0  0  0  0  0
    1.6577   -0.0156    0.0000 C   0  0  0  0  0  0  0  0  0  0  0  0
    2.9807    0.5448    0.0000 C   0  0  0  0  0  0  0  0  0  0  0  0
    3.4165    1.9456    0.0000 C   0  0  0  0  0  0  0  0  0  0  0  0
    4.1325    2.1791    0.0000 C   0  0  0  0  0  0  0  0  0  0  0  0
    2.6694    1.7433    0.0000 C   0  0  0  0  0  0  0  0  0  0  0  0
    3.1831    2.7395    0.0000 C   0  0  0  0  0  0  0  0  0  0  0  0
  1 14  1  0  0  0  0
  1 21  1  0  0  0  0
  2 28  1  0  0  0  0
  2 29  1  0  0  0  0
  3 28  2  0  0  0  0
  4  5  1  0  0  0  0
  4 13  1  0  0  0  0
  4 14  1  0  0  0  0
  5 10  2  0  0  0  0
  6 15  1  0  0  0  0
  6 23  1  0  0  0  0
  6 26  1  0  0  0  0
  7 16  2  0  0  0  0
  7 19  1  0  0  0  0
  8 27  1  0  0  0  0
  8 28  1  0  0  0  0
  9 25  3  0  0  0  0
 10 11  1  0  0  0  0
 10 12  1  0  0  0  0
 11 13  2  0  0  0  0
 11 15  1  0  0  0  0
 12 16  1  0  0  0  0
 12 17  2  0  0  0  0
 14 18  1  0  0  0  0
 17 20  1  0  0  0  0
 18 22  1  0  0  0  0
 19 20  2  0  0  0  0
 19 25  1  0  0  0  0
 21 24  1  0  0  0  0
 22 24  1  0  0  0  0
 23 27  1  0  0  0  0
 29 30  1  0  0  0  0
 29 31  1  0  0  0  0
 29 32  1  0  0  0  0
M  END
> <PUBCHEM_COMPOUND_ID_TYPE>
0

> <PUBCHEM_TOTAL_CHARGE>
0

> <PUBCHEM_SUBSTANCE_ID>
310949405

> <PUBCHEM_SUBSTANCE_VERSION>
1

> <PUBCHEM_EXT_DATASOURCE_NAME>
4488

> <PUBCHEM_EXT_DATASOURCE_REGID>
SCHEMBL16127598

> <PUBCHEM_SUBSTANCE_COMMENT>
InChI=1S/C23H32N6O3/c1-23(2,3)32-22(30)25-10-11-28(4)15-18-16-29(20-7-5-6-12-31-20)27-21(18)17-8-9-19(13-24)26-14-17/h8-9,14,16,20H,5-7,10-12,15H2,1-4H3,(H,25,30)
InChIKey=ZUTUBVZSFIDXBD-UHFFFAOYSA-N

> <PUBCHEM_SUBSTANCE_SYNONYM>
SCHEMBL16127598

> <PUBCHEM_XREF_EXT_ID>
SCHEMBL16127598

> <PUBCHEM_EXT_DATASOURCE_URL>
https://www.surechembl.org/

> <PUBCHEM_EXT_SUBSTANCE_URL>
https://www.surechembl.org/chemical/SCHEMBL16127598

> <PUBCHEM_CID_ASSOCIATIONS>
117614857  1

> <PUBCHEM_COORDINATE_TYPE>
1
3

$$$$
