310931281
  -OEChem-07211613022D

 25 28  0     1  0  0  0  0  0999 V2000
    4.4740   -2.2818    0.0000 O   0  0  0  0  0  0  0  0  0  0  0  0
    5.5478   -0.8277    0.0000 O   0  0  0  0  0  0  0  0  0  0  0  0
    0.0000   -1.9686    0.0000 O   0  0  0  0  0  0  0  0  0  0  0  0
    4.2280   -0.1790    0.0000 N   0  0  0  0  0  0  0  0  0  0  0  0
    0.4027   -2.6844    0.0000 N   0  0  0  0  0  0  0  0  0  0  0  0
    6.3979   -1.1185    0.0000 N   0  0  0  0  0  0  0  0  0  0  0  0
    4.2280   -1.4988    0.0000 C   0  0  3  0  0  0  0  0  0  0  0  0
    3.4450   -1.2751    0.0000 C   0  0  0  0  0  0  0  0  0  0  0  0
    3.4450   -0.4027    0.0000 C   0  0  0  0  0  0  0  0  0  0  0  0
    4.7201   -0.8277    0.0000 C   0  0  0  0  0  0  0  0  0  0  0  0
    5.0556   -1.6330    0.0000 C   0  0  0  0  0  0  0  0  0  0  0  0
    2.7068   -1.6554    0.0000 C   0  0  0  0  0  0  0  0  0  0  0  0
    2.0133   -1.2751    0.0000 C   0  0  0  0  0  0  0  0  0  0  0  0
    1.2975   -1.6777    0.0000 C   0  0  0  0  0  0  0  0  0  0  0  0
    2.7068    0.0000    0.0000 C   0  0  0  0  0  0  0  0  0  0  0  0
    2.0133   -0.4027    0.0000 C   0  0  0  0  0  0  0  0  0  0  0  0
    5.3688   -2.3936    0.0000 C   0  0  0  0  0  0  0  0  0  0  0  0
    5.5925   -1.0066    0.0000 C   0  0  0  0  0  0  0  0  0  0  0  0
    0.5369   -1.3646    0.0000 C   0  0  0  0  0  0  0  0  0  0  0  0
    1.2080   -2.5054    0.0000 C   0  0  0  0  0  0  0  0  0  0  0  0
    6.1742   -2.5278    0.0000 C   0  0  0  0  0  0  0  0  0  0  0  0
    6.7110   -1.9015    0.0000 C   0  0  0  0  0  0  0  0  0  0  0  0
    0.3579   -0.5369    0.0000 C   0  0  0  0  0  0  0  0  0  0  0  0
    1.8343   -3.0647    0.0000 C   0  0  0  0  0  0  0  0  0  0  0  0
    6.4650   -3.3108    0.0000 C   0  0  0  0  0  0  0  0  0  0  0  0
  1  7  1  0  0  0  0
  2 10  2  0  0  0  0
  3  5  1  0  0  0  0
  3 19  1  0  0  0  0
  4  9  1  0  0  0  0
  4 10  1  0  0  0  0
  5 20  2  0  0  0  0
  6 18  1  0  0  0  0
  6 22  2  0  0  0  0
  7  8  1  0  0  0  0
  7 10  1  0  0  0  0
  7 11  1  0  0  0  0
  8  9  2  0  0  0  0
  8 12  1  0  0  0  0
  9 15  1  0  0  0  0
 11 17  1  0  0  0  0
 11 18  2  0  0  0  0
 12 13  2  0  0  0  0
 13 14  1  0  0  0  0
 13 16  1  0  0  0  0
 14 19  2  0  0  0  0
 14 20  1  0  0  0  0
 15 16  2  0  0  0  0
 17 21  2  0  0  0  0
 19 23  1  0  0  0  0
 20 24  1  0  0  0  0
 21 22  1  0  0  0  0
 21 25  1  0  0  0  0
M  END
> <PUBCHEM_COMPOUND_ID_TYPE>
0

> <PUBCHEM_TOTAL_CHARGE>
0

> <PUBCHEM_SUBSTANCE_ID>
310931281

> <PUBCHEM_SUBSTANCE_VERSION>
1

> <PUBCHEM_EXT_DATASOURCE_NAME>
4488

> <PUBCHEM_EXT_DATASOURCE_REGID>
SCHEMBL16108596

> <PUBCHEM_SUBSTANCE_COMMENT>
InChI=1S/C19H17N3O3/c1-10-6-14(9-20-8-10)19(24)15-7-13(4-5-16(15)21-18(19)23)17-11(2)22-25-12(17)3/h4-9,24H,1-3H3,(H,21,23)
InChIKey=NGOPKLURYRFIIV-UHFFFAOYSA-N

> <PUBCHEM_SUBSTANCE_SYNONYM>
SCHEMBL16108596

> <PUBCHEM_XREF_EXT_ID>
SCHEMBL16108596

> <PUBCHEM_EXT_DATASOURCE_URL>
https://www.surechembl.org/

> <PUBCHEM_EXT_SUBSTANCE_URL>
https://www.surechembl.org/chemical/SCHEMBL16108596

> <PUBCHEM_CID_ASSOCIATIONS>
86296315  1

> <PUBCHEM_COORDINATE_TYPE>
1
3

$$$$
