310942034
  -OEChem-07211613022D

 26 29  0     1  0  0  0  0  0999 V2000
    1.1814   -0.4726    0.0000 N   0  0  0  0  0  0  0  0  0  0  0  0
   -1.7930   -1.9876    0.0000 N   0  0  0  0  0  0  0  0  0  0  0  0
   -2.2655   -1.3065    0.0000 N   0  0  0  0  0  0  0  0  0  0  0  0
   -2.8494    0.3336    0.0000 N   0  0  3  0  0  0  0  0  0  0  0  0
   -3.9891    2.0987    0.0000 N   0  0  0  0  0  0  0  0  0  0  0  0
   -0.9729   -0.8618    0.0000 C   0  0  0  0  0  0  0  0  0  0  0  0
   -0.9869   -1.6818    0.0000 C   0  0  0  0  0  0  0  0  0  0  0  0
    0.4726   -0.8618    0.0000 C   0  0  0  0  0  0  0  0  0  0  0  0
   -1.7791   -0.5837    0.0000 C   0  0  0  0  0  0  0  0  0  0  0  0
   -0.2502   -0.4448    0.0000 C   0  0  0  0  0  0  0  0  0  0  0  0
    2.6408    0.4031    0.0000 C   0  0  0  0  0  0  0  0  0  0  0  0
   -0.2641   -2.0987    0.0000 C   0  0  0  0  0  0  0  0  0  0  0  0
    0.4726   -1.6818    0.0000 C   0  0  0  0  0  0  0  0  0  0  0  0
    1.9459   -0.8479    0.0000 C   0  0  0  0  0  0  0  0  0  0  0  0
    1.2092    0.4031    0.0000 C   0  0  0  0  0  0  0  0  0  0  0  0
    2.6408   -0.4448    0.0000 C   0  0  0  0  0  0  0  0  0  0  0  0
    1.9181    0.8062    0.0000 C   0  0  0  0  0  0  0  0  0  0  0  0
   -2.0293    0.1945    0.0000 C   0  0  0  0  0  0  0  0  0  0  0  0
    2.5574    1.1675    0.0000 C   0  0  0  0  0  0  0  0  0  0  0  0
    3.2802   -0.0556    0.0000 C   0  0  0  0  0  0  0  0  0  0  0  0
    3.2663    1.5845    0.0000 C   0  0  0  0  0  0  0  0  0  0  0  0
    3.9891    0.3475    0.0000 C   0  0  0  0  0  0  0  0  0  0  0  0
    3.9891    1.1675    0.0000 C   0  0  0  0  0  0  0  0  0  0  0  0
   -3.0996    1.1537    0.0000 C   0  0  0  0  0  0  0  0  0  0  0  0
   -3.4053   -0.2641    0.0000 C   0  0  0  0  0  0  0  0  0  0  0  0
   -3.9196    1.3482    0.0000 C   0  0  0  0  0  0  0  0  0  0  0  0
  1  8  1  0  0  0  0
  1 14  1  0  0  0  0
  1 15  1  0  0  0  0
  2  3  1  0  0  0  0
  2  7  1  0  0  0  0
  3  9  2  0  0  0  0
  4 18  1  0  0  0  0
  4 24  1  0  0  0  0
  4 25  1  0  0  0  0
  5 26  1  0  0  0  0
  6  7  1  0  0  0  0
  6  9  1  0  0  0  0
  6 10  2  0  0  0  0
  7 12  2  0  0  0  0
  8 10  1  0  0  0  0
  8 13  2  0  0  0  0
  9 18  1  0  0  0  0
 11 16  1  0  0  0  0
 11 17  1  0  0  0  0
 11 19  1  0  0  0  0
 11 20  1  0  0  0  0
 12 13  1  0  0  0  0
 14 16  1  0  0  0  0
 15 17  1  0  0  0  0
 19 21  1  0  0  0  0
 20 22  1  0  0  0  0
 21 23  1  0  0  0  0
 22 23  1  0  0  0  0
 24 26  1  0  0  0  0
M  END
> <PUBCHEM_COMPOUND_ID_TYPE>
0

> <PUBCHEM_TOTAL_CHARGE>
0

> <PUBCHEM_SUBSTANCE_ID>
310942034

> <PUBCHEM_SUBSTANCE_VERSION>
1

> <PUBCHEM_EXT_DATASOURCE_NAME>
4488

> <PUBCHEM_EXT_DATASOURCE_REGID>
SCHEMBL16120068

> <PUBCHEM_SUBSTANCE_COMMENT>
InChI=1S/C21H33N5/c1-25(14-11-22)16-20-18-15-17(5-6-19(18)23-24-20)26-12-9-21(10-13-26)7-3-2-4-8-21/h5-6,15H,2-4,7-14,16,22H2,1H3,(H,23,24)
InChIKey=VBHLXHCRKHBBFB-UHFFFAOYSA-N

> <PUBCHEM_SUBSTANCE_SYNONYM>
SCHEMBL16120068

> <PUBCHEM_XREF_EXT_ID>
SCHEMBL16120068

> <PUBCHEM_EXT_DATASOURCE_URL>
https://www.surechembl.org/

> <PUBCHEM_EXT_SUBSTANCE_URL>
https://www.surechembl.org/chemical/SCHEMBL16120068

> <PUBCHEM_CID_ASSOCIATIONS>
117608720  1

> <PUBCHEM_COORDINATE_TYPE>
1
3

$$$$
