310938836
  -OEChem-07211613022D

 29 28  0     1  0  0  0  0  0999 V2000
    4.3247    1.4570    0.0000 O   0  0  0  0  0  0  0  0  0  0  0  0
    5.7569    1.4570    0.0000 O   0  0  0  0  0  0  0  0  0  0  0  0
    6.4729    0.2162    0.0000 O   0  0  0  0  0  0  0  0  0  0  0  0
    3.1620   -0.2162    0.0000 O   0  0  0  0  0  0  0  0  0  0  0  0
    5.6222   -0.7267    0.0000 O   0  0  0  0  0  0  0  0  0  0  0  0
    3.8852   -1.4570    0.0000 O   0  0  0  0  0  0  0  0  0  0  0  0
    4.6084   -0.2162    0.0000 N   0  0  0  0  0  0  0  0  0  0  0  0
    5.0408    0.2375    0.0000 C   0  0  3  0  0  0  0  0  0  0  0  0
    4.3177    0.6346    0.0000 C   0  0  0  0  0  0  0  0  0  0  0  0
    5.7569    0.6346    0.0000 C   0  0  0  0  0  0  0  0  0  0  0  0
    5.6150   -0.1028    0.0000 C   0  0  0  0  0  0  0  0  0  0  0  0
    3.8852   -0.5920    0.0000 C   0  0  0  0  0  0  0  0  0  0  0  0
    3.6016    0.2375    0.0000 C   0  0  0  0  0  0  0  0  0  0  0  0
    2.8714    0.6487    0.0000 C   0  0  0  0  0  0  0  0  0  0  0  0
    2.1624    0.2446    0.0000 C   0  0  0  0  0  0  0  0  0  0  0  0
    2.4530   -0.6062    0.0000 C   0  0  0  0  0  0  0  0  0  0  0  0
    1.4463    0.6558    0.0000 C   0  0  0  0  0  0  0  0  0  0  0  0
    1.6165   -0.6274    0.0000 C   0  0  0  0  0  0  0  0  0  0  0  0
    0.7303    0.2446    0.0000 C   0  0  0  0  0  0  0  0  0  0  0  0
   -0.0141    0.6558    0.0000 C   0  0  0  0  0  0  0  0  0  0  0  0
   -0.7160    0.2446    0.0000 C   0  0  0  0  0  0  0  0  0  0  0  0
   -1.4463    0.6558    0.0000 C   0  0  0  0  0  0  0  0  0  0  0  0
   -2.1624    0.2446    0.0000 C   0  0  0  0  0  0  0  0  0  0  0  0
   -2.8855    0.6558    0.0000 C   0  0  0  0  0  0  0  0  0  0  0  0
   -3.5945    0.2446    0.0000 C   0  0  0  0  0  0  0  0  0  0  0  0
   -4.3177    0.6558    0.0000 C   0  0  0  0  0  0  0  0  0  0  0  0
   -5.0266    0.2446    0.0000 C   0  0  0  0  0  0  0  0  0  0  0  0
   -5.7639    0.6558    0.0000 C   0  0  0  0  0  0  0  0  0  0  0  0
   -6.4729    0.2375    0.0000 C   0  0  0  0  0  0  0  0  0  0  0  0
  1  9  2  0  0  0  0
  2 10  2  0  0  0  0
  3 10  1  0  0  0  0
  4 12  1  0  0  0  0
  4 16  1  0  0  0  0
  5 11  1  0  0  0  0
  6 12  2  0  0  0  0
  7  8  1  0  0  0  0
  7 12  1  0  0  0  0
  8  9  1  0  0  0  0
  8 10  1  0  0  0  0
  8 11  1  0  0  0  0
  9 13  1  0  0  0  0
 13 14  2  0  0  0  0
 14 15  1  0  0  0  0
 15 17  1  0  0  0  0
 16 18  1  0  0  0  0
 17 19  1  0  0  0  0
 19 20  1  0  0  0  0
 20 21  1  0  0  0  0
 21 22  1  0  0  0  0
 22 23  1  0  0  0  0
 23 24  1  0  0  0  0
 24 25  1  0  0  0  0
 25 26  1  0  0  0  0
 26 27  1  0  0  0  0
 27 28  1  0  0  0  0
 28 29  1  0  0  0  0
M  END
> <PUBCHEM_COMPOUND_ID_TYPE>
0

> <PUBCHEM_TOTAL_CHARGE>
0

> <PUBCHEM_SUBSTANCE_ID>
310938836

> <PUBCHEM_SUBSTANCE_VERSION>
1

> <PUBCHEM_EXT_DATASOURCE_NAME>
4488

> <PUBCHEM_EXT_DATASOURCE_REGID>
SCHEMBL16116755

> <PUBCHEM_SUBSTANCE_COMMENT>
InChI=1S/C22H39NO6/c1-3-5-6-7-8-9-10-11-12-13-14-15-16-17-19(25)22(18-24,20(26)27)23-21(28)29-4-2/h16-17,24H,3-15,18H2,1-2H3,(H,23,28)(H,26,27)/b17-16+
InChIKey=QJEIDPDWZYKERZ-WUKNDPDISA-N

> <PUBCHEM_SUBSTANCE_SYNONYM>
SCHEMBL16116755

> <PUBCHEM_XREF_EXT_ID>
SCHEMBL16116755

> <PUBCHEM_EXT_DATASOURCE_URL>
https://www.surechembl.org/

> <PUBCHEM_EXT_SUBSTANCE_URL>
https://www.surechembl.org/chemical/SCHEMBL16116755

> <PUBCHEM_CID_ASSOCIATIONS>
117606236  1

> <PUBCHEM_COORDINATE_TYPE>
1
3

$$$$
