310933380
  -OEChem-07211613022D

 33 37  0     1  0  0  0  0  0999 V2000
    2.2668   -1.4810    0.0000 O   0  0  0  0  0  0  0  0  0  0  0  0
    0.0000   -4.9568    0.0000 O   0  0  0  0  0  0  0  0  0  0  0  0
    5.5310   -3.8385    0.0000 O   0  0  0  0  0  0  0  0  0  0  0  0
    4.2012   -3.1736    0.0000 N   0  0  0  0  0  0  0  0  0  0  0  0
    4.2012   -4.5034    0.0000 N   0  0  0  0  0  0  0  0  0  0  0  0
    3.8990   -1.4810    0.0000 N   0  0  0  0  0  0  0  0  0  0  0  0
    1.4810   -2.9015    0.0000 N   0  0  0  0  0  0  0  0  0  0  0  0
    0.3929   -5.6822    0.0000 N   0  0  0  0  0  0  0  0  0  0  0  0
    2.6900   -2.1762    0.0000 C   0  0  3  0  0  0  0  0  0  0  0  0
    2.6900   -3.0224    0.0000 C   0  0  0  0  0  0  0  0  0  0  0  0
    3.4154   -3.4154    0.0000 C   0  0  0  0  0  0  0  0  0  0  0  0
    3.4154   -4.2616    0.0000 C   0  0  0  0  0  0  0  0  0  0  0  0
    3.5060   -2.1762    0.0000 C   0  0  0  0  0  0  0  0  0  0  0  0
    1.8739   -2.2063    0.0000 C   0  0  0  0  0  0  0  0  0  0  0  0
    1.9948   -4.2616    0.0000 C   0  0  0  0  0  0  0  0  0  0  0  0
    1.9948   -3.4154    0.0000 C   0  0  0  0  0  0  0  0  0  0  0  0
    2.6900   -4.6546    0.0000 C   0  0  0  0  0  0  0  0  0  0  0  0
    1.2997   -4.6848    0.0000 C   0  0  0  0  0  0  0  0  0  0  0  0
    4.6848   -3.8385    0.0000 C   0  0  0  0  0  0  0  0  0  0  0  0
    3.9291   -2.9015    0.0000 C   0  0  0  0  0  0  0  0  0  0  0  0
    0.5440   -4.3523    0.0000 C   0  0  0  0  0  0  0  0  0  0  0  0
    1.2090   -5.5008    0.0000 C   0  0  0  0  0  0  0  0  0  0  0  0
    1.4508   -1.4810    0.0000 C   0  0  0  0  0  0  0  0  0  0  0  0
    4.7452   -1.4205    0.0000 C   0  0  0  0  0  0  0  0  0  0  0  0
    4.7452   -2.8713    0.0000 C   0  0  0  0  0  0  0  0  0  0  0  0
    0.6347   -2.9620    0.0000 C   0  0  0  0  0  0  0  0  0  0  0  0
    0.6045   -1.5112    0.0000 C   0  0  0  0  0  0  0  0  0  0  0  0
    5.1382   -2.1459    0.0000 C   0  0  0  0  0  0  0  0  0  0  0  0
    0.2116   -2.2366    0.0000 C   0  0  0  0  0  0  0  0  0  0  0  0
    0.3627   -3.5363    0.0000 C   0  0  0  0  0  0  0  0  0  0  0  0
    1.8135   -6.0449    0.0000 C   0  0  0  0  0  0  0  0  0  0  0  0
    5.1382   -0.6952    0.0000 C   0  0  0  0  0  0  0  0  0  0  0  0
    4.6848    0.0000    0.0000 C   0  0  0  0  0  0  0  0  0  0  0  0
  1  9  1  0  0  0  0
  2  8  1  0  0  0  0
  2 21  1  0  0  0  0
  3 19  2  0  0  0  0
  4 11  1  0  0  0  0
  4 19  1  0  0  0  0
  5 12  1  0  0  0  0
  5 19  1  0  0  0  0
  6 13  1  0  0  0  0
  6 24  2  0  0  0  0
  7 14  1  0  0  0  0
  7 26  2  0  0  0  0
  8 22  2  0  0  0  0
  9 10  1  0  0  0  0
  9 13  1  0  0  0  0
  9 14  1  0  0  0  0
 10 11  1  0  0  0  0
 10 16  2  0  0  0  0
 11 12  2  0  0  0  0
 12 17  1  0  0  0  0
 13 20  2  0  0  0  0
 14 23  2  0  0  0  0
 15 16  1  0  0  0  0
 15 17  2  0  0  0  0
 15 18  1  0  0  0  0
 18 21  2  0  0  0  0
 18 22  1  0  0  0  0
 20 25  1  0  0  0  0
 21 30  1  0  0  0  0
 22 31  1  0  0  0  0
 23 27  1  0  0  0  0
 24 28  1  0  0  0  0
 24 32  1  0  0  0  0
 25 28  2  0  0  0  0
 26 29  1  0  0  0  0
 27 29  2  0  0  0  0
 32 33  1  0  0  0  0
M  END
> <PUBCHEM_COMPOUND_ID_TYPE>
0

> <PUBCHEM_TOTAL_CHARGE>
0

> <PUBCHEM_SUBSTANCE_ID>
310933380

> <PUBCHEM_SUBSTANCE_VERSION>
1

> <PUBCHEM_EXT_DATASOURCE_NAME>
4488

> <PUBCHEM_EXT_DATASOURCE_REGID>
SCHEMBL16110796

> <PUBCHEM_SUBSTANCE_COMMENT>
InChI=1S/C25H23N5O3/c1-4-17-8-7-10-21(27-17)25(32,20-9-5-6-11-26-20)18-12-16(22-14(2)30-33-15(22)3)13-19-23(18)29-24(31)28-19/h5-13,32H,4H2,1-3H3,(H2,28,29,31)
InChIKey=ZQSHSYRHLLMOOC-UHFFFAOYSA-N

> <PUBCHEM_SUBSTANCE_SYNONYM>
SCHEMBL16110796

> <PUBCHEM_XREF_EXT_ID>
SCHEMBL16110796

> <PUBCHEM_EXT_DATASOURCE_URL>
https://www.surechembl.org/

> <PUBCHEM_EXT_SUBSTANCE_URL>
https://www.surechembl.org/chemical/SCHEMBL16110796

> <PUBCHEM_CID_ASSOCIATIONS>
117601791  1

> <PUBCHEM_COORDINATE_TYPE>
1
3

$$$$
