310937174
  -OEChem-07211613022D

 37 40  0     1  0  0  0  0  0999 V2000
    2.8579    0.0000    0.0000 S   0  0  0  0  0  0  0  0  0  0  0  0
   10.7172    1.2375    0.0000 F   0  0  0  0  0  0  0  0  0  0  0  0
   11.4317    0.8250    0.0000 F   0  0  0  0  0  0  0  0  0  0  0  0
   11.4317    0.0000    0.0000 F   0  0  0  0  0  0  0  0  0  0  0  0
    3.5724    0.4125    0.0000 O   0  0  0  0  0  0  0  0  0  0  0  0
    4.5888    2.5071    0.0000 O   0  0  0  0  0  0  0  0  0  0  0  0
    9.2883    0.4125    0.0000 O   0  0  0  0  0  0  0  0  0  0  0  0
    3.2704   -0.7145    0.0000 O   0  0  0  0  0  0  0  0  0  0  0  0
    2.4454    0.7145    0.0000 O   0  0  0  0  0  0  0  0  0  0  0  0
    5.7159    0.0000    0.0000 N   0  0  0  0  0  0  0  0  0  0  0  0
    5.6688    1.7224    0.0000 N   0  0  0  0  0  0  0  0  0  0  0  0
    4.3339    1.7224    0.0000 N   0  0  0  0  0  0  0  0  0  0  0  0
    7.1448   -0.8250    0.0000 N   0  0  0  0  0  0  0  0  0  0  0  0
    5.0013    0.4125    0.0000 C   0  0  3  0  0  0  0  0  0  0  0  0
    5.0013    1.2375    0.0000 C   0  0  0  0  0  0  0  0  0  0  0  0
    8.5738   -0.8250    0.0000 C   0  0  0  0  0  0  0  0  0  0  0  0
    4.2869    0.0000    0.0000 C   0  0  0  0  0  0  0  0  0  0  0  0
    9.2883   -1.2375    0.0000 C   0  0  0  0  0  0  0  0  0  0  0  0
    8.5738    0.0000    0.0000 C   0  0  0  0  0  0  0  0  0  0  0  0
    7.1448    0.0000    0.0000 C   0  0  0  0  0  0  0  0  0  0  0  0
    2.1434   -0.4125    0.0000 C   0  0  0  0  0  0  0  0  0  0  0  0
    6.4303    0.4125    0.0000 C   0  0  0  0  0  0  0  0  0  0  0  0
    7.8593    0.4125    0.0000 C   0  0  0  0  0  0  0  0  0  0  0  0
    5.4138    2.5071    0.0000 C   0  0  0  0  0  0  0  0  0  0  0  0
    7.8593   -1.2375    0.0000 C   0  0  0  0  0  0  0  0  0  0  0  0
    9.7008   -1.9520    0.0000 C   0  0  0  0  0  0  0  0  0  0  0  0
   10.1133   -1.2375    0.0000 C   0  0  0  0  0  0  0  0  0  0  0  0
    5.0013   -0.4125    0.0000 C   0  0  0  0  0  0  0  0  0  0  0  0
    2.1434   -1.2375    0.0000 C   0  0  0  0  0  0  0  0  0  0  0  0
    1.4290    0.0000    0.0000 C   0  0  0  0  0  0  0  0  0  0  0  0
   10.0027    0.0000    0.0000 C   0  0  0  0  0  0  0  0  0  0  0  0
    1.4290   -1.6500    0.0000 C   0  0  0  0  0  0  0  0  0  0  0  0
    0.7145   -0.4125    0.0000 C   0  0  0  0  0  0  0  0  0  0  0  0
    0.7145   -1.2375    0.0000 C   0  0  0  0  0  0  0  0  0  0  0  0
    5.8988    3.1745    0.0000 C   0  0  0  0  0  0  0  0  0  0  0  0
   10.7172    0.4125    0.0000 C   0  0  0  0  0  0  0  0  0  0  0  0
    0.0000   -1.6500    0.0000 C   0  0  0  0  0  0  0  0  0  0  0  0
  1  5  1  0  0  0  0
  1  8  2  0  0  0  0
  1  9  2  0  0  0  0
  1 21  1  0  0  0  0
  2 36  1  0  0  0  0
  3 36  1  0  0  0  0
  4 36  1  0  0  0  0
  5 17  1  0  0  0  0
  6 12  1  0  0  0  0
  6 24  1  0  0  0  0
  7 19  1  0  0  0  0
  7 31  1  0  0  0  0
 10 14  1  0  0  0  0
 10 22  1  0  0  0  0
 11 15  1  0  0  0  0
 11 24  2  0  0  0  0
 12 15  2  0  0  0  0
 13 20  2  0  0  0  0
 13 25  1  0  0  0  0
 14 15  1  0  0  0  0
 14 17  1  0  0  0  0
 14 28  1  0  0  0  0
 16 18  1  0  0  0  0
 16 19  1  0  0  0  0
 16 25  2  0  0  0  0
 18 26  1  0  0  0  0
 18 27  1  0  0  0  0
 19 23  2  0  0  0  0
 20 22  1  0  0  0  0
 20 23  1  0  0  0  0
 21 29  2  0  0  0  0
 21 30  1  0  0  0  0
 24 35  1  0  0  0  0
 26 27  1  0  0  0  0
 29 32  1  0  0  0  0
 30 33  2  0  0  0  0
 31 36  1  0  0  0  0
 32 34  2  0  0  0  0
 33 34  1  0  0  0  0
 34 37  1  0  0  0  0
M  END
> <PUBCHEM_COMPOUND_ID_TYPE>
0

> <PUBCHEM_TOTAL_CHARGE>
0

> <PUBCHEM_SUBSTANCE_ID>
310937174

> <PUBCHEM_SUBSTANCE_VERSION>
1

> <PUBCHEM_EXT_DATASOURCE_NAME>
4488

> <PUBCHEM_EXT_DATASOURCE_REGID>
SCHEMBL16114899

> <PUBCHEM_SUBSTANCE_COMMENT>
InChI=1S/C24H27F3N4O5S/c1-15-4-8-19(9-5-15)37(32,33)35-13-23(3,22-30-16(2)36-31-22)29-11-18-10-21(34-14-24(25,26)27)20(12-28-18)17-6-7-17/h4-5,8-10,12,17,29H,6-7,11,13-14H2,1-3H3
InChIKey=MBQYWMVKPUEXIE-UHFFFAOYSA-N

> <PUBCHEM_SUBSTANCE_SYNONYM>
SCHEMBL16114899

> <PUBCHEM_XREF_EXT_ID>
SCHEMBL16114899

> <PUBCHEM_EXT_DATASOURCE_URL>
https://www.surechembl.org/

> <PUBCHEM_EXT_SUBSTANCE_URL>
https://www.surechembl.org/chemical/SCHEMBL16114899

> <PUBCHEM_CID_ASSOCIATIONS>
117604993  1

> <PUBCHEM_COORDINATE_TYPE>
1
3

$$$$
