310937816
  -OEChem-07211613022D

 19 19  0     1  0  0  0  0  0999 V2000
    2.2495   -3.7491    0.0000 Br  0  0  0  0  0  0  0  0  0  0  0  0
    1.4621   -0.8061    0.0000 O   0  0  0  0  0  0  0  0  0  0  0  0
    4.3490    0.0000    0.0000 O   0  0  0  0  0  0  0  0  0  0  0  0
    5.0613   -1.2372    0.0000 O   0  0  0  0  0  0  0  0  0  0  0  0
    2.1557   -2.0620    0.0000 O   0  0  0  0  0  0  0  0  0  0  0  0
    3.6367   -1.2372    0.0000 C   0  0  3  0  0  0  0  0  0  0  0  0
    3.6554   -2.0620    0.0000 C   0  0  0  0  0  0  0  0  0  0  0  0
    2.8868   -0.8436    0.0000 C   0  0  0  0  0  0  0  0  0  0  0  0
    4.3490   -0.8248    0.0000 C   0  0  0  0  0  0  0  0  0  0  0  0
    2.1745   -1.2372    0.0000 C   0  0  0  0  0  0  0  0  0  0  0  0
    2.9430   -2.4932    0.0000 C   0  0  0  0  0  0  0  0  0  0  0  0
    4.3865   -2.4744    0.0000 C   0  0  0  0  0  0  0  0  0  0  0  0
    2.9618   -3.3180    0.0000 C   0  0  0  0  0  0  0  0  0  0  0  0
    0.7498   -1.1997    0.0000 C   0  0  0  0  0  0  0  0  0  0  0  0
    4.3865   -3.2805    0.0000 C   0  0  0  0  0  0  0  0  0  0  0  0
    3.6929   -3.7116    0.0000 C   0  0  0  0  0  0  0  0  0  0  0  0
    0.0000   -1.5934    0.0000 C   0  0  0  0  0  0  0  0  0  0  0  0
    0.3562   -0.4686    0.0000 C   0  0  0  0  0  0  0  0  0  0  0  0
    1.1247   -1.9308    0.0000 C   0  0  0  0  0  0  0  0  0  0  0  0
  1 13  1  0  0  0  0
  2 10  1  0  0  0  0
  2 14  1  0  0  0  0
  3  9  2  0  0  0  0
  4  9  1  0  0  0  0
  5 10  2  0  0  0  0
  6  7  1  0  0  0  0
  6  8  1  0  0  0  0
  6  9  1  0  0  0  0
  7 11  1  0  0  0  0
  7 12  2  0  0  0  0
  8 10  1  0  0  0  0
 11 13  2  0  0  0  0
 12 15  1  0  0  0  0
 13 16  1  0  0  0  0
 14 17  1  0  0  0  0
 14 18  1  0  0  0  0
 14 19  1  0  0  0  0
 15 16  2  0  0  0  0
M  END
> <PUBCHEM_COMPOUND_ID_TYPE>
0

> <PUBCHEM_TOTAL_CHARGE>
0

> <PUBCHEM_SUBSTANCE_ID>
310937816

> <PUBCHEM_SUBSTANCE_VERSION>
1

> <PUBCHEM_EXT_DATASOURCE_NAME>
4488

> <PUBCHEM_EXT_DATASOURCE_REGID>
SCHEMBL16115633

> <PUBCHEM_SUBSTANCE_COMMENT>
InChI=1S/C14H17BrO4/c1-14(2,3)19-12(16)8-11(13(17)18)9-5-4-6-10(15)7-9/h4-7,11H,8H2,1-3H3,(H,17,18)
InChIKey=AQGGJHUVXHOZEL-UHFFFAOYSA-N

> <PUBCHEM_SUBSTANCE_SYNONYM>
SCHEMBL16115633

> <PUBCHEM_XREF_EXT_ID>
SCHEMBL16115633

> <PUBCHEM_EXT_DATASOURCE_URL>
https://www.surechembl.org/

> <PUBCHEM_EXT_SUBSTANCE_URL>
https://www.surechembl.org/chemical/SCHEMBL16115633

> <PUBCHEM_CID_ASSOCIATIONS>
117605462  1

> <PUBCHEM_COORDINATE_TYPE>
1
3

$$$$
