310946457
  -OEChem-07211613022D

 17 17  0     1  0  0  0  0  0999 V2000
   -1.4233   -2.4267    0.0000 O   0  0  0  0  0  0  0  0  0  0  0  0
   -2.1378   -3.6642    0.0000 O   0  0  0  0  0  0  0  0  0  0  0  0
   -3.5667   -1.1892    0.0000 O   0  0  0  0  0  0  0  0  0  0  0  0
   -3.5667   -2.8392    0.0000 N   0  0  0  0  0  0  0  0  0  0  0  0
   -0.7088   -2.8392    0.0000 C   0  0  0  0  0  0  0  0  0  0  0  0
   -2.1378   -2.8392    0.0000 C   0  0  0  0  0  0  0  0  0  0  0  0
   -2.8522   -2.4267    0.0000 C   0  0  3  0  0  0  0  0  0  0  0  0
    0.7201   -3.6642    0.0000 C   0  0  0  0  0  0  0  0  0  0  0  0
   -0.7088   -3.6642    0.0000 C   0  0  0  0  0  0  0  0  0  0  0  0
    0.0057   -2.4267    0.0000 C   0  0  0  0  0  0  0  0  0  0  0  0
    0.0057   -4.0767    0.0000 C   0  0  0  0  0  0  0  0  0  0  0  0
    0.7201   -2.8392    0.0000 C   0  0  0  0  0  0  0  0  0  0  0  0
   -2.8522   -1.6017    0.0000 C   0  0  0  0  0  0  0  0  0  0  0  0
    1.4346   -4.0767    0.0000 C   0  0  0  0  0  0  0  0  0  0  0  0
    2.1491   -3.6642    0.0000 C   0  0  0  0  0  0  0  0  0  0  0  0
    2.8635   -4.0767    0.0000 C   0  0  0  0  0  0  0  0  0  0  0  0
    3.5780   -3.6642    0.0000 C   0  0  0  0  0  0  0  0  0  0  0  0
  1  5  1  0  0  0  0
  1  6  1  0  0  0  0
  2  6  2  0  0  0  0
  3 13  1  0  0  0  0
  4  7  1  0  0  0  0
  5  9  2  0  0  0  0
  5 10  1  0  0  0  0
  6  7  1  0  0  0  0
  7 13  1  0  0  0  0
  8 11  2  0  0  0  0
  8 12  1  0  0  0  0
  8 14  1  0  0  0  0
  9 11  1  0  0  0  0
 10 12  2  0  0  0  0
 14 15  1  0  0  0  0
 15 16  1  0  0  0  0
 16 17  1  0  0  0  0
M  END
> <PUBCHEM_COMPOUND_ID_TYPE>
0

> <PUBCHEM_TOTAL_CHARGE>
0

> <PUBCHEM_SUBSTANCE_ID>
310946457

> <PUBCHEM_SUBSTANCE_VERSION>
1

> <PUBCHEM_EXT_DATASOURCE_NAME>
4488

> <PUBCHEM_EXT_DATASOURCE_REGID>
SCHEMBL16124578

> <PUBCHEM_SUBSTANCE_COMMENT>
InChI=1S/C13H19NO3/c1-2-3-4-10-5-7-11(8-6-10)17-13(16)12(14)9-15/h5-8,12,15H,2-4,9,14H2,1H3
InChIKey=WVXSCHMIZVKEOI-UHFFFAOYSA-N

> <PUBCHEM_SUBSTANCE_SYNONYM>
SCHEMBL16124578

> <PUBCHEM_XREF_EXT_ID>
SCHEMBL16124578

> <PUBCHEM_EXT_DATASOURCE_URL>
https://www.surechembl.org/

> <PUBCHEM_EXT_SUBSTANCE_URL>
https://www.surechembl.org/chemical/SCHEMBL16124578

> <PUBCHEM_CID_ASSOCIATIONS>
117612368  1

> <PUBCHEM_COORDINATE_TYPE>
1
3

$$$$
