310939979
  -OEChem-07211613022D

 23 24  0     1  0  0  0  0  0999 V2000
   -3.5726    0.8250    0.0000 Cl  0  0  0  0  0  0  0  0  0  0  0  0
   -3.5726   -0.8250    0.0000 Cl  0  0  0  0  0  0  0  0  0  0  0  0
   -0.7148    1.6500    0.0000 O   0  0  0  0  0  0  0  0  0  0  0  0
   -0.7148   -0.8250    0.0000 O   0  0  0  0  0  0  0  0  0  0  0  0
    2.1431   -1.6500    0.0000 O   0  0  0  0  0  0  0  0  0  0  0  0
   -0.0003    0.4125    0.0000 N   0  0  0  0  0  0  0  0  0  0  0  0
    1.4287   -0.4125    0.0000 N   0  0  0  0  0  0  0  0  0  0  0  0
    2.8576    1.2375    0.0000 N   0  0  0  0  0  0  0  0  0  0  0  0
   -1.4292    0.4125    0.0000 C   0  0  0  0  0  0  0  0  0  0  0  0
   -0.7148    0.8250    0.0000 C   0  0  0  0  0  0  0  0  0  0  0  0
   -1.4292   -0.4125    0.0000 C   0  0  0  0  0  0  0  0  0  0  0  0
    1.4287    0.4125    0.0000 C   0  0  3  0  0  0  0  0  0  0  0  0
    0.7142    0.8250    0.0000 C   0  0  0  0  0  0  0  0  0  0  0  0
   -2.1437    0.8250    0.0000 C   0  0  0  0  0  0  0  0  0  0  0  0
   -2.8582    0.4125    0.0000 C   0  0  0  0  0  0  0  0  0  0  0  0
   -0.0003   -0.4125    0.0000 C   0  0  0  0  0  0  0  0  0  0  0  0
   -2.8582   -0.4125    0.0000 C   0  0  0  0  0  0  0  0  0  0  0  0
   -2.1437   -0.8250    0.0000 C   0  0  0  0  0  0  0  0  0  0  0  0
    0.7142   -0.8250    0.0000 C   0  0  0  0  0  0  0  0  0  0  0  0
    2.1431   -0.8250    0.0000 C   0  0  0  0  0  0  0  0  0  0  0  0
    2.1431    0.8250    0.0000 C   0  0  0  0  0  0  0  0  0  0  0  0
    2.8582   -0.4125    0.0000 C   0  0  0  0  0  0  0  0  0  0  0  0
    3.5726   -0.8250    0.0000 C   0  0  0  0  0  0  0  0  0  0  0  0
  1 15  1  0  0  0  0
  2 17  1  0  0  0  0
  3 10  2  0  0  0  0
  4 11  1  0  0  0  0
  5 20  2  0  0  0  0
  6 10  1  0  0  0  0
  6 13  1  0  0  0  0
  6 16  1  0  0  0  0
  7 12  1  0  0  0  0
  7 19  1  0  0  0  0
  7 20  1  0  0  0  0
  8 21  3  0  0  0  0
  9 10  1  0  0  0  0
  9 11  1  0  0  0  0
  9 14  2  0  0  0  0
 11 18  2  0  0  0  0
 12 13  1  0  0  0  0
 12 21  1  0  0  0  0
 14 15  1  0  0  0  0
 15 17  2  0  0  0  0
 16 19  1  0  0  0  0
 17 18  1  0  0  0  0
 20 22  1  0  0  0  0
 22 23  2  0  0  0  0
M  END
> <PUBCHEM_COMPOUND_ID_TYPE>
0

> <PUBCHEM_TOTAL_CHARGE>
0

> <PUBCHEM_SUBSTANCE_ID>
310939979

> <PUBCHEM_SUBSTANCE_VERSION>
1

> <PUBCHEM_EXT_DATASOURCE_NAME>
4488

> <PUBCHEM_EXT_DATASOURCE_REGID>
SCHEMBL16117909

> <PUBCHEM_SUBSTANCE_COMMENT>
InChI=1S/C15H13Cl2N3O3/c1-2-14(22)20-4-3-19(8-9(20)7-18)15(23)10-5-11(16)12(17)6-13(10)21/h2,5-6,9,21H,1,3-4,8H2
InChIKey=YMFFXWFIJBFIRE-UHFFFAOYSA-N

> <PUBCHEM_SUBSTANCE_SYNONYM>
SCHEMBL16117909

> <PUBCHEM_XREF_EXT_ID>
SCHEMBL16117909

> <PUBCHEM_EXT_DATASOURCE_URL>
https://www.surechembl.org/

> <PUBCHEM_EXT_SUBSTANCE_URL>
https://www.surechembl.org/chemical/SCHEMBL16117909

> <PUBCHEM_CID_ASSOCIATIONS>
117607145  1

> <PUBCHEM_COORDINATE_TYPE>
1
3

$$$$
