310939124
  -OEChem-07211613022D

 22 23  0     1  0  0  0  0  0999 V2000
    0.0000    1.0312    0.0000 F   0  0  0  0  0  0  0  0  0  0  0  0
   -1.4289   -1.4438    0.0000 F   0  0  0  0  0  0  0  0  0  0  0  0
   -1.4289    0.2062    0.0000 O   0  0  0  0  0  0  0  0  0  0  0  0
    1.4289    1.0313    0.0000 N   0  0  0  0  0  0  0  0  0  0  0  0
   -0.7145   -0.2063    0.0000 C   0  0  0  0  0  0  0  0  0  0  0  0
    0.0000    0.2062    0.0000 C   0  0  0  0  0  0  0  0  0  0  0  0
    0.7145   -0.2063    0.0000 C   0  0  0  0  0  0  0  0  0  0  0  0
   -0.7145   -1.0313    0.0000 C   0  0  0  0  0  0  0  0  0  0  0  0
    1.4289    0.2063    0.0000 C   0  0  3  0  0  0  0  0  0  0  0  0
    0.7145   -1.0313    0.0000 C   0  0  0  0  0  0  0  0  0  0  0  0
    0.0000   -1.4437    0.0000 C   0  0  0  0  0  0  0  0  0  0  0  0
   -2.1434   -0.2063    0.0000 C   0  0  0  0  0  0  0  0  0  0  0  0
    2.1434   -0.2062    0.0000 C   0  0  0  0  0  0  0  0  0  0  0  0
   -2.1434   -1.0313    0.0000 C   0  0  0  0  0  0  0  0  0  0  0  0
   -2.8579    0.2062    0.0000 C   0  0  0  0  0  0  0  0  0  0  0  0
    2.1434    1.4438    0.0000 C   0  0  0  0  0  0  0  0  0  0  0  0
   -2.8579   -1.4438    0.0000 C   0  0  0  0  0  0  0  0  0  0  0  0
   -3.5724   -0.2063    0.0000 C   0  0  0  0  0  0  0  0  0  0  0  0
   -3.5724   -1.0313    0.0000 C   0  0  0  0  0  0  0  0  0  0  0  0
    2.1434   -1.0312    0.0000 C   0  0  0  0  0  0  0  0  0  0  0  0
    2.8579    1.0313    0.0000 C   0  0  0  0  0  0  0  0  0  0  0  0
    3.5724    1.4438    0.0000 C   0  0  0  0  0  0  0  0  0  0  0  0
  1  6  1  0  0  0  0
  2  8  1  0  0  0  0
  3  5  1  0  0  0  0
  3 12  1  0  0  0  0
  4  9  1  0  0  0  0
  4 16  1  0  0  0  0
  5  6  1  0  0  0  0
  5  8  2  0  0  0  0
  6  7  2  0  0  0  0
  7  9  1  0  0  0  0
  7 10  1  0  0  0  0
  8 11  1  0  0  0  0
  9 13  1  0  0  0  0
 10 11  2  0  0  0  0
 12 14  2  0  0  0  0
 12 15  1  0  0  0  0
 13 20  1  0  0  0  0
 14 17  1  0  0  0  0
 15 18  2  0  0  0  0
 16 21  1  0  0  0  0
 17 19  2  0  0  0  0
 18 19  1  0  0  0  0
 21 22  2  0  0  0  0
M  END
> <PUBCHEM_COMPOUND_ID_TYPE>
0

> <PUBCHEM_TOTAL_CHARGE>
0

> <PUBCHEM_SUBSTANCE_ID>
310939124

> <PUBCHEM_SUBSTANCE_VERSION>
1

> <PUBCHEM_EXT_DATASOURCE_NAME>
4488

> <PUBCHEM_EXT_DATASOURCE_REGID>
SCHEMBL16117045

> <PUBCHEM_SUBSTANCE_COMMENT>
InChI=1S/C18H19F2NO/c1-3-12-21-16(4-2)14-10-11-15(19)18(17(14)20)22-13-8-6-5-7-9-13/h3,5-11,16,21H,1,4,12H2,2H3
InChIKey=VVLZUHZGAAJEFS-UHFFFAOYSA-N

> <PUBCHEM_SUBSTANCE_SYNONYM>
SCHEMBL16117045

> <PUBCHEM_XREF_EXT_ID>
SCHEMBL16117045

> <PUBCHEM_EXT_DATASOURCE_URL>
https://www.surechembl.org/

> <PUBCHEM_EXT_SUBSTANCE_URL>
https://www.surechembl.org/chemical/SCHEMBL16117045

> <PUBCHEM_CID_ASSOCIATIONS>
117606479  1

> <PUBCHEM_COORDINATE_TYPE>
1
3

$$$$
