310939476
  -OEChem-07211613022D

 19 18  0     1  0  0  0  0  0999 V2000
    2.4233    5.5754    0.0000 O   0  0  0  0  0  0  0  0  0  0  0  0
   -1.8635    5.5754    0.0000 O   0  0  0  0  0  0  0  0  0  0  0  0
    1.1303    8.1662    0.0000 O   0  0  0  0  0  0  0  0  0  0  0  0
    1.8727    6.9452    0.0000 O   0  0  0  0  0  0  0  0  0  0  0  0
   -3.1958    5.5270    0.0000 O   0  0  0  0  0  0  0  0  0  0  0  0
    4.6247    5.9782    0.0000 O   0  0  0  0  0  0  0  0  0  0  0  0
    3.9103    4.7407    0.0000 O   0  0  0  0  0  0  0  0  0  0  0  0
   -3.6329    4.1666    0.0000 O   0  0  0  0  0  0  0  0  0  0  0  0
    0.2799    5.9879    0.0000 N   0  0  3  0  0  0  0  0  0  0  0  0
    0.2799    6.8129    0.0000 C   0  0  0  0  0  0  0  0  0  0  0  0
    0.9944    5.5754    0.0000 C   0  0  0  0  0  0  0  0  0  0  0  0
   -0.4346    5.5754    0.0000 C   0  0  0  0  0  0  0  0  0  0  0  0
    1.1490    7.3414    0.0000 C   0  0  0  0  0  0  0  0  0  0  0  0
    1.7088    5.9879    0.0000 C   0  0  0  0  0  0  0  0  0  0  0  0
   -1.1491    5.9879    0.0000 C   0  0  0  0  0  0  0  0  0  0  0  0
    3.1378    5.9879    0.0000 C   0  0  0  0  0  0  0  0  0  0  0  0
    3.9103    5.5657    0.0000 C   0  0  0  0  0  0  0  0  0  0  0  0
   -2.6553    6.0169    0.0000 C   0  0  0  0  0  0  0  0  0  0  0  0
   -3.0216    4.7206    0.0000 C   0  0  0  0  0  0  0  0  0  0  0  0
  1 14  1  0  0  0  0
  1 16  1  0  0  0  0
  2 15  1  0  0  0  0
  2 18  1  0  0  0  0
  3 13  2  0  0  0  0
  4 13  1  0  0  0  0
  5 18  1  0  0  0  0
  5 19  1  0  0  0  0
  6 17  2  0  0  0  0
  7 17  1  0  0  0  0
  8 19  1  0  0  0  0
  9 10  1  0  0  0  0
  9 11  1  0  0  0  0
  9 12  1  0  0  0  0
 10 13  1  0  0  0  0
 11 14  1  0  0  0  0
 12 15  1  0  0  0  0
 16 17  1  0  0  0  0
M  END
> <PUBCHEM_COMPOUND_ID_TYPE>
0

> <PUBCHEM_TOTAL_CHARGE>
0

> <PUBCHEM_SUBSTANCE_ID>
310939476

> <PUBCHEM_SUBSTANCE_VERSION>
1

> <PUBCHEM_EXT_DATASOURCE_NAME>
4488

> <PUBCHEM_EXT_DATASOURCE_REGID>
SCHEMBL16117403

> <PUBCHEM_SUBSTANCE_COMMENT>
InChI=1S/C10H19NO8/c12-7-19-8-18-4-2-11(5-9(13)14)1-3-17-6-10(15)16/h12H,1-8H2,(H,13,14)(H,15,16)
InChIKey=LZAWTCXBOUMDMI-UHFFFAOYSA-N

> <PUBCHEM_SUBSTANCE_SYNONYM>
SCHEMBL16117403

> <PUBCHEM_XREF_EXT_ID>
SCHEMBL16117403

> <PUBCHEM_EXT_DATASOURCE_URL>
https://www.surechembl.org/

> <PUBCHEM_EXT_SUBSTANCE_URL>
https://www.surechembl.org/chemical/SCHEMBL16117403

> <PUBCHEM_CID_ASSOCIATIONS>
117606787  1

> <PUBCHEM_COORDINATE_TYPE>
1
3

$$$$
