310946626
  -OEChem-07211613022D

 26 25  0     1  0  0  0  0  0999 V2000
  -10.4483   -5.6098    0.0000 O   0  0  0  0  0  0  0  0  0  0  0  0
   -8.3049   -3.5474    0.0000 O   0  0  0  0  0  0  0  0  0  0  0  0
  -11.1628   -4.3723    0.0000 O   0  0  0  0  0  0  0  0  0  0  0  0
   -6.3234   -8.4676    0.0000 O   0  0  0  0  0  0  0  0  0  0  0  0
   -5.0859   -9.1821    0.0000 O   0  5  0  0  0  0  0  0  0  0  0  0
   -5.0859   -7.7532    0.0000 O   0  0  0  0  0  0  0  0  0  0  0  0
   -9.0195   -5.6098    0.0000 N   0  0  0  0  0  0  0  0  0  0  0  0
   -5.4984   -8.4676    0.0000 N   0  3  0  0  0  0  0  0  0  0  0  0
   -9.0195   -4.7849    0.0000 C   0  0  3  0  0  0  0  0  0  0  0  0
   -8.3049   -4.3723    0.0000 C   0  0  0  0  0  0  0  0  0  0  0  0
   -9.7338   -4.3723    0.0000 C   0  0  0  0  0  0  0  0  0  0  0  0
  -10.4483   -4.7849    0.0000 C   0  0  0  0  0  0  0  0  0  0  0  0
   -7.5905   -4.7849    0.0000 C   0  0  0  0  0  0  0  0  0  0  0  0
   -6.8760   -4.3723    0.0000 C   0  0  0  0  0  0  0  0  0  0  0  0
  -10.0358   -6.3242    0.0000 C   0  0  0  0  0  0  0  0  0  0  0  0
   -9.2109   -6.3242    0.0000 C   0  0  0  0  0  0  0  0  0  0  0  0
   -6.1616   -4.7849    0.0000 C   0  0  0  0  0  0  0  0  0  0  0  0
   -8.7984   -7.0387    0.0000 C   0  0  0  0  0  0  0  0  0  0  0  0
   -7.9734   -7.0387    0.0000 C   0  0  0  0  0  0  0  0  0  0  0  0
   -7.5609   -7.7532    0.0000 C   0  0  0  0  0  0  0  0  0  0  0  0
   -5.4471   -4.3723    0.0000 C   0  0  0  0  0  0  0  0  0  0  0  0
   -6.7359   -7.7532    0.0000 C   0  0  0  0  0  0  0  0  0  0  0  0
   -4.7327   -4.7849    0.0000 C   0  0  0  0  0  0  0  0  0  0  0  0
   -4.0182   -4.3723    0.0000 C   0  0  0  0  0  0  0  0  0  0  0  0
   -3.3037   -4.7849    0.0000 C   0  0  0  0  0  0  0  0  0  0  0  0
   -2.5893   -4.3723    0.0000 C   0  0  0  0  0  0  0  0  0  0  0  0
  1 12  1  0  0  0  0
  1 15  1  0  0  0  0
  2 10  2  0  0  0  0
  3 12  2  0  0  0  0
  4  8  1  0  0  0  0
  4 22  1  0  0  0  0
  5  8  1  0  0  0  0
  6  8  2  0  0  0  0
  7  9  1  0  0  0  0
  9 10  1  0  0  0  0
  9 11  1  0  0  0  0
 10 13  1  0  0  0  0
 11 12  1  0  0  0  0
 13 14  1  0  0  0  0
 14 17  1  0  0  0  0
 15 16  1  0  0  0  0
 16 18  1  0  0  0  0
 17 21  1  0  0  0  0
 18 19  1  0  0  0  0
 19 20  1  0  0  0  0
 20 22  1  0  0  0  0
 21 23  1  0  0  0  0
 23 24  1  0  0  0  0
 24 25  1  0  0  0  0
 25 26  1  0  0  0  0
M  CHG  2   5  -1   8   1
M  END
> <PUBCHEM_COMPOUND_ID_TYPE>
0

> <PUBCHEM_TOTAL_CHARGE>
0

> <PUBCHEM_SUBSTANCE_ID>
310946626

> <PUBCHEM_SUBSTANCE_VERSION>
1

> <PUBCHEM_EXT_DATASOURCE_NAME>
4488

> <PUBCHEM_EXT_DATASOURCE_REGID>
SCHEMBL16124747

> <PUBCHEM_SUBSTANCE_COMMENT>
InChI=1S/C18H34N2O6/c1-2-3-4-5-6-9-12-17(21)16(19)15-18(22)25-13-10-7-8-11-14-26-20(23)24/h16H,2-15,19H2,1H3
InChIKey=NGFIZZCNLWTFAE-UHFFFAOYSA-N

> <PUBCHEM_SUBSTANCE_SYNONYM>
SCHEMBL16124747

> <PUBCHEM_XREF_EXT_ID>
SCHEMBL16124747

> <PUBCHEM_EXT_DATASOURCE_URL>
https://www.surechembl.org/

> <PUBCHEM_EXT_SUBSTANCE_URL>
https://www.surechembl.org/chemical/SCHEMBL16124747

> <PUBCHEM_CID_ASSOCIATIONS>
117612526  1

> <PUBCHEM_COORDINATE_TYPE>
1
3

$$$$
