310946458
  -OEChem-07211613022D

 21 20  0     1  0  0  0  0  0999 V2000
   -1.2207  -11.9634    0.0000 O   0  0  0  0  0  0  0  0  0  0  0  0
    2.4918  -12.6779    0.0000 O   0  0  0  0  0  0  0  0  0  0  0  0
   -2.4582  -11.2490    0.0000 O   0  0  0  0  0  0  0  0  0  0  0  0
    2.4918  -11.2490    0.0000 O   0  5  0  0  0  0  0  0  0  0  0  0
    1.2543  -11.9634    0.0000 O   0  0  0  0  0  0  0  0  0  0  0  0
    2.0793  -11.9634    0.0000 N   0  3  0  0  0  0  0  0  0  0  0  0
   -0.3957  -10.5345    0.0000 N   0  0  0  0  0  0  0  0  0  0  0  0
   -4.1082   -8.3911    0.0000 N   0  0  0  0  0  0  0  0  0  0  0  0
   -1.6332  -11.2490    0.0000 C   0  0  0  0  0  0  0  0  0  0  0  0
   -1.2207  -10.5345    0.0000 C   0  0  3  0  0  0  0  0  0  0  0  0
    2.0793  -13.3924    0.0000 C   0  0  3  0  0  0  0  0  0  0  0  0
    1.2543  -13.3924    0.0000 C   0  0  0  0  0  0  0  0  0  0  0  0
   -1.6332   -9.8200    0.0000 C   0  0  0  0  0  0  0  0  0  0  0  0
   -0.3957  -11.9634    0.0000 C   0  0  0  0  0  0  0  0  0  0  0  0
    0.8418  -12.6779    0.0000 C   0  0  0  0  0  0  0  0  0  0  0  0
    2.4918  -14.1068    0.0000 C   0  0  0  0  0  0  0  0  0  0  0  0
    0.0168  -12.6779    0.0000 C   0  0  0  0  0  0  0  0  0  0  0  0
   -2.4582   -9.8200    0.0000 C   0  0  0  0  0  0  0  0  0  0  0  0
   -2.8707   -9.1055    0.0000 C   0  0  0  0  0  0  0  0  0  0  0  0
    3.3168  -14.1068    0.0000 C   0  0  0  0  0  0  0  0  0  0  0  0
   -3.6957   -9.1055    0.0000 C   0  0  0  0  0  0  0  0  0  0  0  0
  1  9  1  0  0  0  0
  1 14  1  0  0  0  0
  2  6  1  0  0  0  0
  2 11  1  0  0  0  0
  3  9  2  0  0  0  0
  4  6  1  0  0  0  0
  5  6  2  0  0  0  0
  7 10  1  0  0  0  0
  8 21  1  0  0  0  0
  9 10  1  0  0  0  0
 10 13  1  0  0  0  0
 11 12  1  0  0  0  0
 11 16  1  0  0  0  0
 12 15  1  0  0  0  0
 13 18  1  0  0  0  0
 14 17  1  0  0  0  0
 15 17  1  0  0  0  0
 16 20  1  0  0  0  0
 18 19  1  0  0  0  0
 19 21  1  0  0  0  0
M  CHG  2   4  -1   6   1
M  END
> <PUBCHEM_COMPOUND_ID_TYPE>
0

> <PUBCHEM_TOTAL_CHARGE>
0

> <PUBCHEM_SUBSTANCE_ID>
310946458

> <PUBCHEM_SUBSTANCE_VERSION>
1

> <PUBCHEM_EXT_DATASOURCE_NAME>
4488

> <PUBCHEM_EXT_DATASOURCE_REGID>
SCHEMBL16124579

> <PUBCHEM_SUBSTANCE_COMMENT>
InChI=1S/C13H27N3O5/c1-2-11(21-16(18)19)7-4-6-10-20-13(17)12(15)8-3-5-9-14/h11-12H,2-10,14-15H2,1H3
InChIKey=OPBZYSDMGQIWPC-UHFFFAOYSA-N

> <PUBCHEM_SUBSTANCE_SYNONYM>
SCHEMBL16124579

> <PUBCHEM_XREF_EXT_ID>
SCHEMBL16124579

> <PUBCHEM_EXT_DATASOURCE_URL>
https://www.surechembl.org/

> <PUBCHEM_EXT_SUBSTANCE_URL>
https://www.surechembl.org/chemical/SCHEMBL16124579

> <PUBCHEM_CID_ASSOCIATIONS>
117612369  1

> <PUBCHEM_COORDINATE_TYPE>
1
3

$$$$
