310943521
  -OEChem-07211613022D

 33 36  0     1  0  0  0  0  0999 V2000
    2.7622    0.8359    0.0000 S   0  0  0  0  0  0  0  0  0  0  0  0
    2.3504    1.5507    0.0000 O   0  0  0  0  0  0  0  0  0  0  0  0
    3.1863    0.1091    0.0000 O   0  0  0  0  0  0  0  0  0  0  0  0
    3.4892    1.2600    0.0000 N   0  0  0  0  0  0  0  0  0  0  0  0
    4.9188    2.0959    0.0000 N   0  0  0  0  0  0  0  0  0  0  0  0
   -3.0045   -1.7082    0.0000 N   0  0  3  0  0  0  0  0  0  0  0  0
    1.3327   -2.5079    0.0000 N   0  0  0  0  0  0  0  0  0  0  0  0
   -4.7976   -1.1631    0.0000 N   0  0  3  0  0  0  0  0  0  0  0  0
    2.0475    0.4240    0.0000 C   0  0  0  0  0  0  0  0  0  0  0  0
    0.5936   -0.4240    0.0000 C   0  0  0  0  0  0  0  0  0  0  0  0
   -0.1091   -0.8359    0.0000 C   0  0  0  0  0  0  0  0  0  0  0  0
    2.0354   -0.4240    0.0000 C   0  0  0  0  0  0  0  0  0  0  0  0
    1.3206    0.8117    0.0000 C   0  0  0  0  0  0  0  0  0  0  0  0
   -0.1211   -1.6719    0.0000 C   0  0  0  0  0  0  0  0  0  0  0  0
    1.3448   -0.8359    0.0000 C   0  0  0  0  0  0  0  0  0  0  0  0
    0.6179    0.4119    0.0000 C   0  0  0  0  0  0  0  0  0  0  0  0
    4.2040    0.8481    0.0000 C   0  0  0  0  0  0  0  0  0  0  0  0
    3.4892    2.0959    0.0000 C   0  0  0  0  0  0  0  0  0  0  0  0
   -0.8359   -0.4482    0.0000 C   0  0  0  0  0  0  0  0  0  0  0  0
   -1.5629   -1.6840    0.0000 C   0  0  0  0  0  0  0  0  0  0  0  0
   -0.7996   -2.0838    0.0000 C   0  0  0  0  0  0  0  0  0  0  0  0
   -1.5507   -0.8481    0.0000 C   0  0  0  0  0  0  0  0  0  0  0  0
    4.9067    1.2600    0.0000 C   0  0  0  0  0  0  0  0  0  0  0  0
    4.2040    2.5079    0.0000 C   0  0  0  0  0  0  0  0  0  0  0  0
    0.6179   -2.1081    0.0000 C   0  0  0  0  0  0  0  0  0  0  0  0
   -2.2656   -2.0959    0.0000 C   0  0  0  0  0  0  0  0  0  0  0  0
   -3.6831   -2.1686    0.0000 C   0  0  0  0  0  0  0  0  0  0  0  0
    5.6336    2.5079    0.0000 C   0  0  0  0  0  0  0  0  0  0  0  0
   -2.9440   -0.8602    0.0000 C   0  0  0  0  0  0  0  0  0  0  0  0
   -4.4947   -1.9263    0.0000 C   0  0  0  0  0  0  0  0  0  0  0  0
   -3.5497   -0.3150    0.0000 C   0  0  0  0  0  0  0  0  0  0  0  0
   -4.3736   -0.4361    0.0000 C   0  0  0  0  0  0  0  0  0  0  0  0
   -5.6336   -1.1631    0.0000 C   0  0  0  0  0  0  0  0  0  0  0  0
  1  2  2  0  0  0  0
  1  3  2  0  0  0  0
  1  4  1  0  0  0  0
  1  9  1  0  0  0  0
  4 17  1  0  0  0  0
  4 18  1  0  0  0  0
  5 23  1  0  0  0  0
  5 24  1  0  0  0  0
  5 28  1  0  0  0  0
  6 26  1  0  0  0  0
  6 27  1  0  0  0  0
  6 29  1  0  0  0  0
  7 25  3  0  0  0  0
  8 30  1  0  0  0  0
  8 32  1  0  0  0  0
  8 33  1  0  0  0  0
  9 12  2  0  0  0  0
  9 13  1  0  0  0  0
 10 11  1  0  0  0  0
 10 15  2  0  0  0  0
 10 16  1  0  0  0  0
 11 14  1  0  0  0  0
 11 19  2  0  0  0  0
 12 15  1  0  0  0  0
 13 16  2  0  0  0  0
 14 21  2  0  0  0  0
 14 25  1  0  0  0  0
 17 23  1  0  0  0  0
 18 24  1  0  0  0  0
 19 22  1  0  0  0  0
 20 21  1  0  0  0  0
 20 22  2  0  0  0  0
 20 26  1  0  0  0  0
 27 30  1  0  0  0  0
 29 31  1  0  0  0  0
 31 32  1  0  0  0  0
M  END
> <PUBCHEM_COMPOUND_ID_TYPE>
0

> <PUBCHEM_TOTAL_CHARGE>
0

> <PUBCHEM_SUBSTANCE_ID>
310943521

> <PUBCHEM_SUBSTANCE_VERSION>
1

> <PUBCHEM_EXT_DATASOURCE_NAME>
4488

> <PUBCHEM_EXT_DATASOURCE_REGID>
SCHEMBL16121587

> <PUBCHEM_SUBSTANCE_COMMENT>
InChI=1S/C25H33N5O2S/c1-27-10-3-11-29(15-12-27)20-21-4-9-25(23(18-21)19-26)22-5-7-24(8-6-22)33(31,32)30-16-13-28(2)14-17-30/h4-9,18H,3,10-17,20H2,1-2H3
InChIKey=GIXRXCCTNGEWOI-UHFFFAOYSA-N

> <PUBCHEM_SUBSTANCE_SYNONYM>
SCHEMBL16121587

> <PUBCHEM_XREF_EXT_ID>
SCHEMBL16121587

> <PUBCHEM_EXT_DATASOURCE_URL>
https://www.surechembl.org/

> <PUBCHEM_EXT_SUBSTANCE_URL>
https://www.surechembl.org/chemical/SCHEMBL16121587

> <PUBCHEM_CID_ASSOCIATIONS>
86302002  1

> <PUBCHEM_COORDINATE_TYPE>
1
3

$$$$
