310930646
  -OEChem-07211613022D

 29 32  0     1  0  0  0  0  0999 V2000
    0.9025   -2.4643    0.0000 O   0  0  0  0  0  0  0  0  0  0  0  0
    1.5272   -0.1735    0.0000 O   0  0  0  0  0  0  0  0  0  0  0  0
    0.0000   -6.1781    0.0000 O   0  0  0  0  0  0  0  0  0  0  0  0
    3.4362   -6.4558    0.0000 O   0  0  0  0  0  0  0  0  0  0  0  0
    2.3255   -2.2560    0.0000 N   0  0  0  0  0  0  0  0  0  0  0  0
    2.7420   -3.5056    0.0000 N   0  0  0  0  0  0  0  0  0  0  0  0
    3.7832   -2.4643    0.0000 N   0  0  0  0  0  0  0  0  0  0  0  0
    1.9437   -3.5056    0.0000 C   0  0  0  0  0  0  0  0  0  0  0  0
    1.6660   -2.7420    0.0000 C   0  0  0  0  0  0  0  0  0  0  0  0
    1.4578   -4.1998    0.0000 C   0  0  0  0  0  0  0  0  0  0  0  0
    2.2908   -4.2692    0.0000 C   0  0  0  0  0  0  0  0  0  0  0  0
    3.0196   -2.7420    0.0000 C   0  0  0  0  0  0  0  0  0  0  0  0
    2.3255   -1.4231    0.0000 C   0  0  0  0  0  0  0  0  0  0  0  0
    1.7701   -4.9633    0.0000 C   0  0  0  0  0  0  0  0  0  0  0  0
    3.1238   -4.3039    0.0000 C   0  0  0  0  0  0  0  0  0  0  0  0
    0.6247   -4.0956    0.0000 C   0  0  0  0  0  0  0  0  0  0  0  0
    2.0131   -5.1022    0.0000 C   0  0  0  0  0  0  0  0  0  0  0  0
    1.6313   -1.0065    0.0000 C   0  0  3  0  0  0  0  0  0  0  0  0
    1.2843   -5.6228    0.0000 C   0  0  0  0  0  0  0  0  0  0  0  0
    3.5056   -5.0327    0.0000 C   0  0  0  0  0  0  0  0  0  0  0  0
    0.1389   -4.7898    0.0000 C   0  0  0  0  0  0  0  0  0  0  0  0
    2.2214   -5.6922    0.0000 C   0  0  0  0  0  0  0  0  0  0  0  0
    0.4859   -5.5187    0.0000 C   0  0  0  0  0  0  0  0  0  0  0  0
    3.0544   -5.7269    0.0000 C   0  0  0  0  0  0  0  0  0  0  0  0
    0.8677   -1.3189    0.0000 C   0  0  0  0  0  0  0  0  0  0  0  0
    0.7289    0.0000    0.0000 C   0  0  0  0  0  0  0  0  0  0  0  0
    0.3124   -0.7289    0.0000 C   0  0  0  0  0  0  0  0  0  0  0  0
    0.3124   -6.9417    0.0000 C   0  0  0  0  0  0  0  0  0  0  0  0
    4.2345   -6.5253    0.0000 C   0  0  0  0  0  0  0  0  0  0  0  0
  1  9  2  0  0  0  0
  2 18  1  0  0  0  0
  2 26  1  0  0  0  0
  3 23  1  0  0  0  0
  3 28  1  0  0  0  0
  4 24  1  0  0  0  0
  4 29  1  0  0  0  0
  5  9  1  0  0  0  0
  5 12  1  0  0  0  0
  5 13  1  0  0  0  0
  6  8  1  0  0  0  0
  6 12  1  0  0  0  0
  7 12  2  3  0  0  0
  8  9  1  0  0  0  0
  8 10  1  0  0  0  0
  8 11  1  0  0  0  0
 10 14  2  0  0  0  0
 10 16  1  0  0  0  0
 11 15  2  0  0  0  0
 11 17  1  0  0  0  0
 13 18  1  0  0  0  0
 14 19  1  0  0  0  0
 15 20  1  0  0  0  0
 16 21  2  0  0  0  0
 17 22  2  0  0  0  0
 18 25  1  0  0  0  0
 19 23  2  0  0  0  0
 20 24  2  0  0  0  0
 21 23  1  0  0  0  0
 22 24  1  0  0  0  0
 25 27  1  0  0  0  0
 26 27  1  0  0  0  0
M  END
> <PUBCHEM_COMPOUND_ID_TYPE>
0

> <PUBCHEM_TOTAL_CHARGE>
0

> <PUBCHEM_SUBSTANCE_ID>
310930646

> <PUBCHEM_SUBSTANCE_VERSION>
1

> <PUBCHEM_EXT_DATASOURCE_NAME>
4488

> <PUBCHEM_EXT_DATASOURCE_REGID>
SCHEMBL16107943

> <PUBCHEM_SUBSTANCE_COMMENT>
InChI=1S/C22H25N3O4/c1-27-17-9-5-15(6-10-17)22(16-7-11-18(28-2)12-8-16)20(26)25(21(23)24-22)14-19-4-3-13-29-19/h5-12,19H,3-4,13-14H2,1-2H3,(H2,23,24)
InChIKey=ITXKGDQZHYKUFU-UHFFFAOYSA-N

> <PUBCHEM_SUBSTANCE_SYNONYM>
SCHEMBL16107943

> <PUBCHEM_XREF_EXT_ID>
SCHEMBL16107943

> <PUBCHEM_EXT_DATASOURCE_URL>
https://www.surechembl.org/

> <PUBCHEM_EXT_SUBSTANCE_URL>
https://www.surechembl.org/chemical/SCHEMBL16107943

> <PUBCHEM_CID_ASSOCIATIONS>
86274556  1

> <PUBCHEM_COORDINATE_TYPE>
1
3

$$$$
