310937813
  -OEChem-07211613022D

 27 30  0     1  0  0  0  0  0999 V2000
    3.5064   -2.9586    0.0000 O   0  0  0  0  0  0  0  0  0  0  0  0
    7.6156   -2.2463    0.0000 O   0  0  0  0  0  0  0  0  0  0  0  0
    6.3554   -1.8354    0.0000 N   0  0  0  0  0  0  0  0  0  0  0  0
    5.7802   -3.9448    0.0000 N   0  0  0  0  0  0  0  0  0  0  0  0
    7.1499   -2.9038    0.0000 N   0  0  0  0  0  0  0  0  0  0  0  0
    1.4245   -3.6434    0.0000 N   0  0  3  0  0  0  0  0  0  0  0  0
    4.3556   -4.0817    0.0000 C   0  0  0  0  0  0  0  0  0  0  0  0
    4.2735   -3.2873    0.0000 C   0  0  0  0  0  0  0  0  0  0  0  0
    5.6706   -3.1229    0.0000 C   0  0  0  0  0  0  0  0  0  0  0  0
    6.3554   -2.6572    0.0000 C   0  0  0  0  0  0  0  0  0  0  0  0
    3.6708   -4.5748    0.0000 C   0  0  0  0  0  0  0  0  0  0  0  0
    4.9310   -2.7668    0.0000 C   0  0  0  0  0  0  0  0  0  0  0  0
    7.1499   -1.5615    0.0000 C   0  0  0  0  0  0  0  0  0  0  0  0
    5.1227   -4.4379    0.0000 C   0  0  0  0  0  0  0  0  0  0  0  0
    7.3964   -0.7670    0.0000 C   0  0  0  0  0  0  0  0  0  0  0  0
    3.3421   -5.3145    0.0000 C   0  0  0  0  0  0  0  0  0  0  0  0
    2.8490   -4.6570    0.0000 C   0  0  0  0  0  0  0  0  0  0  0  0
    2.8490   -3.4517    0.0000 C   0  0  3  0  0  0  0  0  0  0  0  0
    2.0819   -3.1503    0.0000 C   0  0  0  0  0  0  0  0  0  0  0  0
    2.9312   -4.3009    0.0000 C   0  0  0  0  0  0  0  0  0  0  0  0
    8.2183   -1.0410    0.0000 C   0  0  0  0  0  0  0  0  0  0  0  0
    7.6704    0.0000    0.0000 C   0  0  0  0  0  0  0  0  0  0  0  0
    6.6294   -0.5205    0.0000 C   0  0  0  0  0  0  0  0  0  0  0  0
    2.2737   -4.7940    0.0000 C   0  0  0  0  0  0  0  0  0  0  0  0
    1.5067   -4.4652    0.0000 C   0  0  0  0  0  0  0  0  0  0  0  0
    0.6575   -3.3421    0.0000 C   0  0  0  0  0  0  0  0  0  0  0  0
    0.0000   -3.8352    0.0000 C   0  0  0  0  0  0  0  0  0  0  0  0
  1  8  1  0  0  0  0
  1 18  1  0  0  0  0
  2  5  1  0  0  0  0
  2 13  1  0  0  0  0
  3 10  1  0  0  0  0
  3 13  2  0  0  0  0
  4  9  1  0  0  0  0
  4 14  2  0  0  0  0
  5 10  2  0  0  0  0
  6 19  1  0  0  0  0
  6 25  1  0  0  0  0
  6 26  1  0  0  0  0
  7  8  2  0  0  0  0
  7 11  1  0  0  0  0
  7 14  1  0  0  0  0
  8 12  1  0  0  0  0
  9 10  1  0  0  0  0
  9 12  2  0  0  0  0
 11 16  1  0  0  0  0
 11 17  1  0  0  0  0
 13 15  1  0  0  0  0
 15 21  1  0  0  0  0
 15 22  1  0  0  0  0
 15 23  1  0  0  0  0
 16 17  1  0  0  0  0
 18 19  1  0  0  0  0
 18 20  1  0  0  0  0
 20 24  1  0  0  0  0
 24 25  1  0  0  0  0
 26 27  1  0  0  0  0
M  END
> <PUBCHEM_COMPOUND_ID_TYPE>
0

> <PUBCHEM_TOTAL_CHARGE>
0

> <PUBCHEM_SUBSTANCE_ID>
310937813

> <PUBCHEM_SUBSTANCE_VERSION>
1

> <PUBCHEM_EXT_DATASOURCE_NAME>
4488

> <PUBCHEM_EXT_DATASOURCE_REGID>
SCHEMBL16115630

> <PUBCHEM_SUBSTANCE_COMMENT>
InChI=1S/C21H30N4O2/c1-5-25-10-6-7-15(13-25)26-18-11-17(22-12-16(18)14-8-9-14)19-23-20(27-24-19)21(2,3)4/h11-12,14-15H,5-10,13H2,1-4H3
InChIKey=AQEKKKCPWNRPKX-UHFFFAOYSA-N

> <PUBCHEM_SUBSTANCE_SYNONYM>
SCHEMBL16115630

> <PUBCHEM_XREF_EXT_ID>
SCHEMBL16115630

> <PUBCHEM_EXT_DATASOURCE_URL>
https://www.surechembl.org/

> <PUBCHEM_EXT_SUBSTANCE_URL>
https://www.surechembl.org/chemical/SCHEMBL16115630

> <PUBCHEM_CID_ASSOCIATIONS>
117605459  1

> <PUBCHEM_COORDINATE_TYPE>
1
3

$$$$
