310934655
  -OEChem-07211613022D

 25 27  0     1  0  0  0  0  0999 V2000
    2.7354    4.7017    0.0000 Cl  0  0  0  0  0  0  0  0  0  0  0  0
    4.5238   -0.7571    0.0000 S   0  0  0  0  0  0  0  0  0  0  0  0
    1.3064    2.2267    0.0000 F   0  0  0  0  0  0  0  0  0  0  0  0
    3.4028    0.9168    0.0000 O   0  0  0  0  0  0  0  0  0  0  0  0
    2.7458   -2.7824    0.0000 O   0  0  0  0  0  0  0  0  0  0  0  0
    5.0591   -2.0820    0.0000 O   0  0  0  0  0  0  0  0  0  0  0  0
    2.1735   -1.2889    0.0000 N   0  0  0  0  0  0  0  0  0  0  0  0
    3.1479    0.1322    0.0000 N   0  0  0  0  0  0  0  0  0  0  0  0
    1.6512   -1.8639    0.0000 N   0  0  0  0  0  0  0  0  0  0  0  0
    2.9940   -1.3752    0.0000 C   0  0  3  0  0  0  0  0  0  0  0  0
    2.7354    1.4017    0.0000 C   0  0  0  0  0  0  0  0  0  0  0  0
    2.4637   -2.0072    0.0000 C   0  0  0  0  0  0  0  0  0  0  0  0
    2.7354    2.2267    0.0000 C   0  0  0  0  0  0  0  0  0  0  0  0
    3.6441   -1.8831    0.0000 C   0  0  0  0  0  0  0  0  0  0  0  0
    2.3229    0.1322    0.0000 C   0  0  0  0  0  0  0  0  0  0  0  0
    3.1088   -0.5582    0.0000 C   0  0  0  0  0  0  0  0  0  0  0  0
    2.0679    0.9168    0.0000 C   0  0  0  0  0  0  0  0  0  0  0  0
    1.8379   -0.5353    0.0000 C   0  0  0  0  0  0  0  0  0  0  0  0
    4.4090   -1.5740    0.0000 C   0  0  3  0  0  0  0  0  0  0  0  0
    2.0209    2.6392    0.0000 C   0  0  0  0  0  0  0  0  0  0  0  0
    3.8737   -0.2492    0.0000 C   0  0  0  0  0  0  0  0  0  0  0  0
    3.4498    2.6392    0.0000 C   0  0  0  0  0  0  0  0  0  0  0  0
    2.0209    3.4642    0.0000 C   0  0  0  0  0  0  0  0  0  0  0  0
    2.7354    3.8767    0.0000 C   0  0  0  0  0  0  0  0  0  0  0  0
    3.4498    3.4642    0.0000 C   0  0  0  0  0  0  0  0  0  0  0  0
  1 24  1  0  0  0  0
  2 19  1  0  0  0  0
  2 21  1  0  0  0  0
  3 20  1  0  0  0  0
  4  8  1  0  0  0  0
  4 11  1  0  0  0  0
  5 12  2  0  0  0  0
  6 19  1  0  0  0  0
  7 10  1  0  0  0  0
  7 18  1  0  0  0  0
  8 15  2  0  0  0  0
  9 12  1  0  0  0  0
 10 12  1  0  0  0  0
 10 14  1  0  0  0  0
 10 16  1  0  0  0  0
 11 13  1  0  0  0  0
 11 17  2  0  0  0  0
 13 20  2  0  0  0  0
 13 22  1  0  0  0  0
 14 19  1  0  0  0  0
 15 17  1  0  0  0  0
 15 18  1  0  0  0  0
 16 21  1  0  0  0  0
 20 23  1  0  0  0  0
 22 25  2  0  0  0  0
 23 24  2  0  0  0  0
 24 25  1  0  0  0  0
M  END
> <PUBCHEM_COMPOUND_ID_TYPE>
0

> <PUBCHEM_TOTAL_CHARGE>
0

> <PUBCHEM_SUBSTANCE_ID>
310934655

> <PUBCHEM_SUBSTANCE_VERSION>
1

> <PUBCHEM_EXT_DATASOURCE_NAME>
4488

> <PUBCHEM_EXT_DATASOURCE_REGID>
SCHEMBL16112153

> <PUBCHEM_SUBSTANCE_COMMENT>
InChI=1S/C16H17ClFN3O3S/c17-9-1-2-11(12(18)5-9)13-6-10(21-24-13)8-20-16(15(19)23)3-4-25-14(22)7-16/h1-2,5-6,14,20,22H,3-4,7-8H2,(H2,19,23)
InChIKey=OIVHQMKLJGBOFB-UHFFFAOYSA-N

> <PUBCHEM_SUBSTANCE_SYNONYM>
SCHEMBL16112153

> <PUBCHEM_XREF_EXT_ID>
SCHEMBL16112153

> <PUBCHEM_EXT_DATASOURCE_URL>
https://www.surechembl.org/

> <PUBCHEM_EXT_SUBSTANCE_URL>
https://www.surechembl.org/chemical/SCHEMBL16112153

> <PUBCHEM_CID_ASSOCIATIONS>
117602822  1

> <PUBCHEM_COORDINATE_TYPE>
1
3

$$$$
