310936893
  -OEChem-07211613022D

 27 30  0     1  0  0  0  0  0999 V2000
    0.0000   -6.5039    0.0000 F   0  0  0  0  0  0  0  0  0  0  0  0
    0.9947   -7.5369    0.0000 F   0  0  0  0  0  0  0  0  0  0  0  0
    0.1913   -7.3073    0.0000 F   0  0  0  0  0  0  0  0  0  0  0  0
    2.2572   -3.3285    0.0000 O   0  0  0  0  0  0  0  0  0  0  0  0
    5.0501   -1.4538    0.0000 O   0  0  0  0  0  0  0  0  0  0  0  0
    2.1807   -6.3892    0.0000 O   0  0  0  0  0  0  0  0  0  0  0  0
    3.5580   -3.0607    0.0000 N   0  0  0  0  0  0  0  0  0  0  0  0
    3.7876   -1.0330    0.0000 N   0  0  0  0  0  0  0  0  0  0  0  0
    3.9406   -4.7058    0.0000 N   0  0  0  0  0  0  0  0  0  0  0  0
    4.5528   -2.1042    0.0000 N   0  0  0  0  0  0  0  0  0  0  0  0
    3.1372   -2.3338    0.0000 C   0  0  3  0  0  0  0  0  0  0  0  0
    3.0224   -3.6346    0.0000 C   0  0  0  0  0  0  0  0  0  0  0  0
    3.7876   -1.8747    0.0000 C   0  0  0  0  0  0  0  0  0  0  0  0
    3.1755   -4.4762    0.0000 C   0  0  0  0  0  0  0  0  0  0  0  0
    2.3338   -2.5251    0.0000 C   0  0  0  0  0  0  0  0  0  0  0  0
    3.5580   -6.0448    0.0000 C   0  0  0  0  0  0  0  0  0  0  0  0
    2.7546   -5.8153    0.0000 C   0  0  0  0  0  0  0  0  0  0  0  0
    2.5633   -5.0119    0.0000 C   0  0  0  0  0  0  0  0  0  0  0  0
    3.7111   -6.8483    0.0000 C   0  0  0  0  0  0  0  0  0  0  0  0
    4.1702   -5.5092    0.0000 C   0  0  0  0  0  0  0  0  0  0  0  0
    2.6016   -1.7216    0.0000 C   0  0  0  0  0  0  0  0  0  0  0  0
    4.5528   -0.7652    0.0000 C   0  0  0  0  0  0  0  0  0  0  0  0
    4.2849   -7.4604    0.0000 C   0  0  0  0  0  0  0  0  0  0  0  0
    3.4815   -7.6517    0.0000 C   0  0  0  0  0  0  0  0  0  0  0  0
    1.3773   -6.1596    0.0000 C   0  0  0  0  0  0  0  0  0  0  0  0
    0.8034   -6.7335    0.0000 C   0  0  0  0  0  0  0  0  0  0  0  0
    4.8206    0.0000    0.0000 C   0  0  0  0  0  0  0  0  0  0  0  0
  1 26  1  0  0  0  0
  2 26  1  0  0  0  0
  3 26  1  0  0  0  0
  4 12  1  0  0  0  0
  4 15  1  0  0  0  0
  5 10  1  0  0  0  0
  5 22  1  0  0  0  0
  6 17  1  0  0  0  0
  6 25  1  0  0  0  0
  7 11  1  0  0  0  0
  7 12  2  0  0  0  0
  8 13  1  0  0  0  0
  8 22  2  0  0  0  0
  9 14  1  0  0  0  0
  9 20  2  0  0  0  0
 10 13  2  0  0  0  0
 11 13  1  0  0  0  0
 11 15  1  0  0  0  0
 11 21  1  0  0  0  0
 12 14  1  0  0  0  0
 14 18  2  0  0  0  0
 16 17  2  0  0  0  0
 16 19  1  0  0  0  0
 16 20  1  0  0  0  0
 17 18  1  0  0  0  0
 19 23  1  0  0  0  0
 19 24  1  0  0  0  0
 22 27  1  0  0  0  0
 23 24  1  0  0  0  0
 25 26  1  0  0  0  0
M  END
> <PUBCHEM_COMPOUND_ID_TYPE>
0

> <PUBCHEM_TOTAL_CHARGE>
0

> <PUBCHEM_SUBSTANCE_ID>
310936893

> <PUBCHEM_SUBSTANCE_VERSION>
1

> <PUBCHEM_EXT_DATASOURCE_NAME>
4488

> <PUBCHEM_EXT_DATASOURCE_REGID>
SCHEMBL16114591

> <PUBCHEM_SUBSTANCE_COMMENT>
InChI=1S/C17H17F3N4O3/c1-9-22-15(24-27-9)16(2)7-26-14(23-16)12-5-13(25-8-17(18,19)20)11(6-21-12)10-3-4-10/h5-6,10H,3-4,7-8H2,1-2H3
InChIKey=UASAFNNTYJHQOD-UHFFFAOYSA-N

> <PUBCHEM_SUBSTANCE_SYNONYM>
SCHEMBL16114591

> <PUBCHEM_XREF_EXT_ID>
SCHEMBL16114591

> <PUBCHEM_EXT_DATASOURCE_URL>
https://www.surechembl.org/

> <PUBCHEM_EXT_SUBSTANCE_URL>
https://www.surechembl.org/chemical/SCHEMBL16114591

> <PUBCHEM_CID_ASSOCIATIONS>
117604779  1

> <PUBCHEM_COORDINATE_TYPE>
1
3

$$$$
