310936766
  -OEChem-07211613022D

 19 20  0     1  0  0  0  0  0999 V2000
    1.4437   -3.7582    0.0000 Cl  0  0  0  0  0  0  0  0  0  0  0  0
    2.8874   -4.5831    0.0000 Cl  0  0  0  0  0  0  0  0  0  0  0  0
    2.1541    0.0000    0.0000 O   0  0  0  0  0  0  0  0  0  0  0  0
    4.3311   -1.2604    0.0000 N   0  0  0  0  0  0  0  0  0  0  0  0
    2.8874   -2.0853    0.0000 C   0  0  0  0  0  0  0  0  0  0  0  0
    2.8874   -1.2604    0.0000 C   0  0  3  0  0  0  0  0  0  0  0  0
    2.1541   -0.8249    0.0000 C   0  0  3  0  0  0  0  0  0  0  0  0
    2.1770   -2.4978    0.0000 C   0  0  0  0  0  0  0  0  0  0  0  0
    2.1770   -3.3228    0.0000 C   0  0  0  0  0  0  0  0  0  0  0  0
    1.4437   -1.2604    0.0000 C   0  0  0  0  0  0  0  0  0  0  0  0
    3.5978   -2.4978    0.0000 C   0  0  0  0  0  0  0  0  0  0  0  0
    2.8874   -3.7582    0.0000 C   0  0  0  0  0  0  0  0  0  0  0  0
    3.5978   -3.3228    0.0000 C   0  0  0  0  0  0  0  0  0  0  0  0
    3.5978   -0.8249    0.0000 C   0  0  0  0  0  0  0  0  0  0  0  0
    1.4208   -2.0853    0.0000 C   0  0  0  0  0  0  0  0  0  0  0  0
    0.7104   -0.8479    0.0000 C   0  0  0  0  0  0  0  0  0  0  0  0
    0.7104   -2.4978    0.0000 C   0  0  0  0  0  0  0  0  0  0  0  0
    0.0000   -1.2604    0.0000 C   0  0  0  0  0  0  0  0  0  0  0  0
    0.0000   -2.0853    0.0000 C   0  0  0  0  0  0  0  0  0  0  0  0
  1  9  1  0  0  0  0
  2 12  1  0  0  0  0
  3  7  1  0  0  0  0
  4 14  1  0  0  0  0
  5  6  1  0  0  0  0
  5  8  1  0  0  0  0
  5 11  2  0  0  0  0
  6  7  1  0  0  0  0
  6 14  1  0  0  0  0
  7 10  1  0  0  0  0
  8  9  2  0  0  0  0
  9 12  1  0  0  0  0
 10 15  2  0  0  0  0
 10 16  1  0  0  0  0
 11 13  1  0  0  0  0
 12 13  2  0  0  0  0
 15 17  1  0  0  0  0
 16 18  2  0  0  0  0
 17 19  2  0  0  0  0
 18 19  1  0  0  0  0
M  END
> <PUBCHEM_COMPOUND_ID_TYPE>
0

> <PUBCHEM_TOTAL_CHARGE>
0

> <PUBCHEM_SUBSTANCE_ID>
310936766

> <PUBCHEM_SUBSTANCE_VERSION>
1

> <PUBCHEM_EXT_DATASOURCE_NAME>
4488

> <PUBCHEM_EXT_DATASOURCE_REGID>
SCHEMBL16114450

> <PUBCHEM_SUBSTANCE_COMMENT>
InChI=1S/C15H15Cl2NO/c16-13-7-6-11(8-14(13)17)12(9-18)15(19)10-4-2-1-3-5-10/h1-8,12,15,19H,9,18H2
InChIKey=LODRQKRYILHUHR-UHFFFAOYSA-N

> <PUBCHEM_SUBSTANCE_SYNONYM>
SCHEMBL16114450

> <PUBCHEM_XREF_EXT_ID>
SCHEMBL16114450

> <PUBCHEM_EXT_DATASOURCE_URL>
https://www.surechembl.org/

> <PUBCHEM_EXT_SUBSTANCE_URL>
https://www.surechembl.org/chemical/SCHEMBL16114450

> <PUBCHEM_CID_ASSOCIATIONS>
65190369  1

> <PUBCHEM_COORDINATE_TYPE>
1
3

$$$$
