310940204
  -OEChem-07211613022D

 41 46  0     1  0  0  0  0  0999 V2000
    1.8931   -2.5773    0.0000 S   0  0  0  0  0  0  0  0  0  0  0  0
    2.6617   -2.9147    0.0000 O   0  0  0  0  0  0  0  0  0  0  0  0
    1.9868   -3.4020    0.0000 O   0  0  0  0  0  0  0  0  0  0  0  0
   -3.1489   -2.2399    0.0000 O   0  0  0  0  0  0  0  0  0  0  0  0
    1.2558    2.3523    0.0000 O   0  0  0  0  0  0  0  0  0  0  0  0
    0.2812    3.4020    0.0000 O   0  0  0  0  0  0  0  0  0  0  0  0
   -1.6307    0.1218    0.0000 N   0  0  0  0  0  0  0  0  0  0  0  0
   -1.1434   -0.5529    0.0000 N   0  0  0  0  0  0  0  0  0  0  0  0
    2.1743   -1.7713    0.0000 N   0  0  3  0  0  0  0  0  0  0  0  0
   -1.3871   -2.0337    0.0000 N   0  0  0  0  0  0  0  0  0  0  0  0
   -3.8800   -0.9841    0.0000 N   0  0  0  0  0  0  0  0  0  0  0  0
   -0.1500    2.0337    0.0000 N   0  0  0  0  0  0  0  0  0  0  0  0
   -3.2989    1.9025    0.0000 N   0  0  0  0  0  0  0  0  0  0  0  0
   -1.3871    0.9091    0.0000 C   0  0  0  0  0  0  0  0  0  0  0  0
   -2.4180   -0.1405    0.0000 C   0  0  0  0  0  0  0  0  0  0  0  0
   -2.4367   -0.9653    0.0000 C   0  0  0  0  0  0  0  0  0  0  0  0
   -1.6495   -1.2277    0.0000 C   0  0  0  0  0  0  0  0  0  0  0  0
    1.0496   -2.5398    0.0000 C   0  0  0  0  0  0  0  0  0  0  0  0
    0.8060   -1.7713    0.0000 C   0  0  0  0  0  0  0  0  0  0  0  0
   -3.1489   -1.3589    0.0000 C   0  0  0  0  0  0  0  0  0  0  0  0
   -0.5624   -2.2024    0.0000 C   0  0  0  0  0  0  0  0  0  0  0  0
    1.4808   -1.2839    0.0000 C   0  0  0  0  0  0  0  0  0  0  0  0
   -3.1677    0.2718    0.0000 C   0  0  0  0  0  0  0  0  0  0  0  0
   -1.5370    1.7151    0.0000 C   0  0  0  0  0  0  0  0  0  0  0  0
   -0.5810    0.6467    0.0000 C   0  0  0  0  0  0  0  0  0  0  0  0
    0.0000   -1.5838    0.0000 C   0  0  0  0  0  0  0  0  0  0  0  0
   -2.1743    0.7404    0.0000 C   0  0  0  0  0  0  0  0  0  0  0  0
    0.5061   -3.1584    0.0000 C   0  0  0  0  0  0  0  0  0  0  0  0
   -0.2999   -2.9897    0.0000 C   0  0  0  0  0  0  0  0  0  0  0  0
    2.9615   -1.5276    0.0000 C   0  0  0  0  0  0  0  0  0  0  0  0
   -3.8613   -0.1405    0.0000 C   0  0  0  0  0  0  0  0  0  0  0  0
   -0.9372    2.2773    0.0000 C   0  0  0  0  0  0  0  0  0  0  0  0
    0.0187    1.1902    0.0000 C   0  0  0  0  0  0  0  0  0  0  0  0
    3.1302   -0.6842    0.0000 C   0  0  0  0  0  0  0  0  0  0  0  0
   -2.7554    1.3402    0.0000 C   0  0  0  0  0  0  0  0  0  0  0  0
    0.4686    2.5960    0.0000 C   0  0  0  0  0  0  0  0  0  0  0  0
    2.5867   -0.0843    0.0000 C   0  0  0  0  0  0  0  0  0  0  0  0
    3.8800   -0.3655    0.0000 C   0  0  0  0  0  0  0  0  0  0  0  0
    2.9990    0.6279    0.0000 C   0  0  0  0  0  0  0  0  0  0  0  0
    3.8050    0.4592    0.0000 C   0  0  0  0  0  0  0  0  0  0  0  0
    1.8744    2.9147    0.0000 C   0  0  0  0  0  0  0  0  0  0  0  0
  1  2  2  0  0  0  0
  1  3  2  0  0  0  0
  1  9  1  0  0  0  0
  1 18  1  0  0  0  0
  4 20  2  0  0  0  0
  5 36  1  0  0  0  0
  5 41  1  0  0  0  0
  6 36  2  0  0  0  0
  7  8  1  0  0  0  0
  7 14  1  0  0  0  0
  7 15  1  0  0  0  0
  8 17  2  0  0  0  0
  9 22  1  0  0  0  0
  9 30  1  0  0  0  0
 10 17  1  0  0  0  0
 10 21  1  0  0  0  0
 11 20  1  0  0  0  0
 11 31  1  0  0  0  0
 12 32  1  0  0  0  0
 12 33  1  0  0  0  0
 12 36  1  0  0  0  0
 13 35  3  0  0  0  0
 14 24  1  0  0  0  0
 14 25  1  0  0  0  0
 14 27  1  0  0  0  0
 15 16  2  0  0  0  0
 15 23  1  0  0  0  0
 16 17  1  0  0  0  0
 16 20  1  0  0  0  0
 18 19  2  0  0  0  0
 18 28  1  0  0  0  0
 19 22  1  0  0  0  0
 19 26  1  0  0  0  0
 21 26  2  0  0  0  0
 21 29  1  0  0  0  0
 23 31  2  0  0  0  0
 24 32  1  0  0  0  0
 25 33  1  0  0  0  0
 27 35  1  0  0  0  0
 28 29  2  0  0  0  0
 30 34  1  0  0  0  0
 34 37  1  0  0  0  0
 34 38  1  0  0  0  0
 37 39  1  0  0  0  0
 38 40  1  0  0  0  0
 39 40  1  0  0  0  0
M  END
> <PUBCHEM_COMPOUND_ID_TYPE>
0

> <PUBCHEM_TOTAL_CHARGE>
0

> <PUBCHEM_SUBSTANCE_ID>
310940204

> <PUBCHEM_SUBSTANCE_VERSION>
1

> <PUBCHEM_EXT_DATASOURCE_NAME>
4488

> <PUBCHEM_EXT_DATASOURCE_REGID>
SCHEMBL16118138

> <PUBCHEM_SUBSTANCE_COMMENT>
InChI=1S/C28H33N7O5S/c1-40-27(37)33-14-10-28(9-12-29,11-15-33)35-22-8-13-30-26(36)24(22)25(32-35)31-21-6-7-23-20(16-21)18-34(41(23,38)39)17-19-4-2-3-5-19/h6-8,13,16,19H,2-5,9-11,14-15,17-18H2,1H3,(H,30,36)(H,31,32)
InChIKey=VJNXRHULTYEOJX-UHFFFAOYSA-N

> <PUBCHEM_SUBSTANCE_SYNONYM>
SCHEMBL16118138

> <PUBCHEM_XREF_EXT_ID>
SCHEMBL16118138

> <PUBCHEM_EXT_DATASOURCE_URL>
https://www.surechembl.org/

> <PUBCHEM_EXT_SUBSTANCE_URL>
https://www.surechembl.org/chemical/SCHEMBL16118138

> <PUBCHEM_CID_ASSOCIATIONS>
86268861  1

> <PUBCHEM_COORDINATE_TYPE>
1
3

$$$$
