310946553
  -OEChem-07211613022D

 17 16  0     1  0  0  0  0  0999 V2000
    4.2429   14.6839    0.0000 O   0  0  0  0  0  0  0  0  0  0  0  0
    3.5285   15.9214    0.0000 O   0  0  0  0  0  0  0  0  0  0  0  0
    3.5285   13.4464    0.0000 O   0  0  0  0  0  0  0  0  0  0  0  0
    2.8140   17.1589    0.0000 O   0  0  0  0  0  0  0  0  0  0  0  0
    2.0995   14.2714    0.0000 N   0  0  0  0  0  0  0  0  0  0  0  0
    3.5285   14.2714    0.0000 C   0  0  0  0  0  0  0  0  0  0  0  0
    2.8140   14.6839    0.0000 C   0  0  3  0  0  0  0  0  0  0  0  0
    4.9574   14.2714    0.0000 C   0  0  0  0  0  0  0  0  0  0  0  0
    2.8140   15.5089    0.0000 C   0  0  0  0  0  0  0  0  0  0  0  0
    3.5285   16.7464    0.0000 C   0  0  0  0  0  0  0  0  0  0  0  0
    4.5449   13.5569    0.0000 C   0  0  0  0  0  0  0  0  0  0  0  0
    5.6719   14.6839    0.0000 C   0  0  0  0  0  0  0  0  0  0  0  0
    4.5449   14.9858    0.0000 C   0  0  0  0  0  0  0  0  0  0  0  0
    4.2429   17.1589    0.0000 C   0  0  0  0  0  0  0  0  0  0  0  0
    4.9574   16.7464    0.0000 C   0  0  0  0  0  0  0  0  0  0  0  0
    5.6719   17.1589    0.0000 C   0  0  0  0  0  0  0  0  0  0  0  0
    6.3863   16.7464    0.0000 C   0  0  0  0  0  0  0  0  0  0  0  0
  1  6  1  0  0  0  0
  1  8  1  0  0  0  0
  2  9  1  0  0  0  0
  2 10  1  0  0  0  0
  3  6  2  0  0  0  0
  4 10  2  0  0  0  0
  5  7  1  0  0  0  0
  6  7  1  0  0  0  0
  7  9  1  0  0  0  0
  8 11  1  0  0  0  0
  8 12  1  0  0  0  0
  8 13  1  0  0  0  0
 10 14  1  0  0  0  0
 14 15  1  0  0  0  0
 15 16  1  0  0  0  0
 16 17  1  0  0  0  0
M  END
> <PUBCHEM_COMPOUND_ID_TYPE>
0

> <PUBCHEM_TOTAL_CHARGE>
0

> <PUBCHEM_SUBSTANCE_ID>
310946553

> <PUBCHEM_SUBSTANCE_VERSION>
1

> <PUBCHEM_EXT_DATASOURCE_NAME>
4488

> <PUBCHEM_EXT_DATASOURCE_REGID>
SCHEMBL16124674

> <PUBCHEM_SUBSTANCE_COMMENT>
InChI=1S/C12H23NO4/c1-5-6-7-10(14)16-8-9(13)11(15)17-12(2,3)4/h9H,5-8,13H2,1-4H3
InChIKey=XIZQYUHQATXVKQ-UHFFFAOYSA-N

> <PUBCHEM_SUBSTANCE_SYNONYM>
SCHEMBL16124674

> <PUBCHEM_XREF_EXT_ID>
SCHEMBL16124674

> <PUBCHEM_EXT_DATASOURCE_URL>
https://www.surechembl.org/

> <PUBCHEM_EXT_SUBSTANCE_URL>
https://www.surechembl.org/chemical/SCHEMBL16124674

> <PUBCHEM_CID_ASSOCIATIONS>
117612455  1

> <PUBCHEM_COORDINATE_TYPE>
1
3

$$$$
