310928992
  -OEChem-07211613022D

 21 23  0     1  0  0  0  0  0999 V2000
   -0.9233    0.6323    0.0000 O   0  0  0  0  0  0  0  0  0  0  0  0
   -0.9233   -1.8427    0.0000 O   0  0  0  0  0  0  0  0  0  0  0  0
    1.6763    1.8427    0.0000 O   0  0  0  0  0  0  0  0  0  0  0  0
    3.0667    1.4309    0.0000 O   0  0  0  0  0  0  0  0  0  0  0  0
    1.2201    0.2198    0.0000 C   0  0  0  0  0  0  0  0  0  0  0  0
    1.2201   -0.6052    0.0000 C   0  0  0  0  0  0  0  0  0  0  0  0
   -0.2088   -0.6052    0.0000 C   0  0  0  0  0  0  0  0  0  0  0  0
    2.0048    0.4747    0.0000 C   0  0  3  0  0  0  0  0  0  0  0  0
   -0.2088    0.2198    0.0000 C   0  0  0  0  0  0  0  0  0  0  0  0
    0.5057   -1.0177    0.0000 C   0  0  0  0  0  0  0  0  0  0  0  0
    0.5057    0.6323    0.0000 C   0  0  0  0  0  0  0  0  0  0  0  0
   -0.9233   -1.0177    0.0000 C   0  0  0  0  0  0  0  0  0  0  0  0
    2.0048   -0.8602    0.0000 C   0  0  0  0  0  0  0  0  0  0  0  0
    2.4897   -0.1927    0.0000 C   0  0  0  0  0  0  0  0  0  0  0  0
    2.2597    1.2593    0.0000 C   0  0  0  0  0  0  0  0  0  0  0  0
   -1.6377   -0.6052    0.0000 C   0  0  0  0  0  0  0  0  0  0  0  0
   -2.3522   -1.0177    0.0000 C   0  0  0  0  0  0  0  0  0  0  0  0
   -1.6377    0.2198    0.0000 C   0  0  0  0  0  0  0  0  0  0  0  0
   -3.0667   -0.6052    0.0000 C   0  0  0  0  0  0  0  0  0  0  0  0
   -2.3522    0.6323    0.0000 C   0  0  0  0  0  0  0  0  0  0  0  0
   -3.0667    0.2198    0.0000 C   0  0  0  0  0  0  0  0  0  0  0  0
  1  9  1  0  0  0  0
  2 12  2  0  0  0  0
  3 15  2  0  0  0  0
  4 15  1  0  0  0  0
  5  6  2  0  0  0  0
  5  8  1  0  0  0  0
  5 11  1  0  0  0  0
  6 10  1  0  0  0  0
  6 13  1  0  0  0  0
  7  9  1  0  0  0  0
  7 10  2  0  0  0  0
  7 12  1  0  0  0  0
  8 14  1  0  0  0  0
  8 15  1  0  0  0  0
  9 11  2  0  0  0  0
 12 16  1  0  0  0  0
 13 14  1  0  0  0  0
 16 17  2  0  0  0  0
 16 18  1  0  0  0  0
 17 19  1  0  0  0  0
 18 20  2  0  0  0  0
 19 21  2  0  0  0  0
 20 21  1  0  0  0  0
M  END
> <PUBCHEM_COMPOUND_ID_TYPE>
0

> <PUBCHEM_TOTAL_CHARGE>
0

> <PUBCHEM_SUBSTANCE_ID>
310928992

> <PUBCHEM_SUBSTANCE_VERSION>
1

> <PUBCHEM_EXT_DATASOURCE_NAME>
11752

> <PUBCHEM_EXT_DATASOURCE_REGID>
BD146504

> <PUBCHEM_SUBSTANCE_SYNONYM>
5-Benzoyl-6-hydroxy-2,3-dihydro-1H-indene-1-carboxylic acid
68548-99-2

> <PUBCHEM_GENERIC_REGISTRY_NAME>
68548-99-2

> <PUBCHEM_XREF_EXT_ID>
BD146504

> <PUBCHEM_EXT_DATASOURCE_URL>
http://www.bidepharmatech.com/en/index.html

> <PUBCHEM_EXT_SUBSTANCE_URL>
http://www.bidepharmatech.com/en/goodsview_goodscode_BD146504.html

> <PUBCHEM_CID_ASSOCIATIONS>
68879  1

> <PUBCHEM_COORDINATE_TYPE>
1
3

$$$$
