310938792
  -OEChem-07211613022D

 30 36  0     1  0  0  0  0  0999 V2000
   -0.7837   10.7611    0.0000 I   0  0  0  0  0  0  0  0  0  0  0  0
   -1.2846   12.7954    0.0000 N   0  0  0  0  0  0  0  0  0  0  0  0
   -1.8680   13.3788    0.0000 N   0  3  0  0  0  0  0  0  0  0  0  0
   -2.4513   13.9622    0.0000 N   0  5  0  0  0  0  0  0  0  0  0  0
   -2.9271   11.1736    0.0000 C   0  0  0  0  0  0  0  0  0  0  0  0
   -2.2126   10.7611    0.0000 C   0  0  0  0  0  0  0  0  0  0  0  0
   -2.9271    9.5236    0.0000 C   0  0  0  0  0  0  0  0  0  0  0  0
   -2.2126    9.9361    0.0000 C   0  0  0  0  0  0  0  0  0  0  0  0
   -3.6415   10.7611    0.0000 C   0  0  0  0  0  0  0  0  0  0  0  0
   -2.9271   11.9986    0.0000 C   0  0  0  0  0  0  0  0  0  0  0  0
   -3.6415    9.9361    0.0000 C   0  0  0  0  0  0  0  0  0  0  0  0
   -2.9271    8.6986    0.0000 C   0  0  0  0  0  0  0  0  0  0  0  0
   -1.4981   11.1736    0.0000 C   0  0  3  0  0  0  0  0  0  0  0  0
   -2.2126   12.4111    0.0000 C   0  0  0  0  0  0  0  0  0  0  0  0
   -1.4981   11.9986    0.0000 C   0  0  3  0  0  0  0  0  0  0  0  0
   -3.6415   12.4111    0.0000 C   0  0  0  0  0  0  0  0  0  0  0  0
   -2.2126    8.2861    0.0000 C   0  0  0  0  0  0  0  0  0  0  0  0
   -3.6415    8.2861    0.0000 C   0  0  0  0  0  0  0  0  0  0  0  0
   -4.3560   11.1736    0.0000 C   0  0  0  0  0  0  0  0  0  0  0  0
   -1.4981    9.5236    0.0000 C   0  0  0  0  0  0  0  0  0  0  0  0
   -4.3560    9.5236    0.0000 C   0  0  0  0  0  0  0  0  0  0  0  0
   -4.3560   11.9986    0.0000 C   0  0  0  0  0  0  0  0  0  0  0  0
   -1.4981    8.6986    0.0000 C   0  0  0  0  0  0  0  0  0  0  0  0
   -2.2126   13.2361    0.0000 C   0  0  0  0  0  0  0  0  0  0  0  0
   -4.3560    8.6986    0.0000 C   0  0  0  0  0  0  0  0  0  0  0  0
   -3.6415   13.2361    0.0000 C   0  0  0  0  0  0  0  0  0  0  0  0
   -2.2126    7.4611    0.0000 C   0  0  0  0  0  0  0  0  0  0  0  0
   -3.6415    7.4611    0.0000 C   0  0  0  0  0  0  0  0  0  0  0  0
   -2.9271   13.6486    0.0000 C   0  0  0  0  0  0  0  0  0  0  0  0
   -2.9271    7.0486    0.0000 C   0  0  0  0  0  0  0  0  0  0  0  0
  1 13  1  0  0  0  0
  2  3  2  0  0  0  0
  2 15  1  0  0  0  0
  3  4  2  0  0  0  0
  5  6  2  0  0  0  0
  5  9  1  0  0  0  0
  5 10  1  0  0  0  0
  6  8  1  0  0  0  0
  6 13  1  0  0  0  0
  7  8  2  0  0  0  0
  7 11  1  0  0  0  0
  7 12  1  0  0  0  0
  8 20  1  0  0  0  0
  9 11  2  0  0  0  0
  9 19  1  0  0  0  0
 10 14  1  0  0  0  0
 10 16  2  0  0  0  0
 11 21  1  0  0  0  0
 12 17  2  0  0  0  0
 12 18  1  0  0  0  0
 13 15  1  0  0  0  0
 14 15  1  0  0  0  0
 14 24  2  0  0  0  0
 16 22  1  0  0  0  0
 16 26  1  0  0  0  0
 17 23  1  0  0  0  0
 17 27  1  0  0  0  0
 18 25  2  0  0  0  0
 18 28  1  0  0  0  0
 19 22  2  0  0  0  0
 20 23  2  0  0  0  0
 21 25  1  0  0  0  0
 24 29  1  0  0  0  0
 26 29  2  0  0  0  0
 27 30  2  0  0  0  0
 28 30  1  0  0  0  0
M  CHG  2   3   1   4  -1
M  END
> <PUBCHEM_COMPOUND_ID_TYPE>
0

> <PUBCHEM_TOTAL_CHARGE>
0

> <PUBCHEM_SUBSTANCE_ID>
310938792

> <PUBCHEM_SUBSTANCE_VERSION>
1

> <PUBCHEM_EXT_DATASOURCE_NAME>
4488

> <PUBCHEM_EXT_DATASOURCE_REGID>
SCHEMBL16116709

> <PUBCHEM_SUBSTANCE_COMMENT>
InChI=1S/C26H16IN3/c27-25-24-18-12-9-14-4-1-3-13-7-10-16(22(18)20(13)14)17-11-8-15-5-2-6-19(21(15)23(17)24)26(25)29-30-28/h1-2,4-9,11-12,25-26H,3,10H2
InChIKey=NFDWLHPTYMWRAZ-UHFFFAOYSA-N

> <PUBCHEM_SUBSTANCE_SYNONYM>
SCHEMBL16116709

> <PUBCHEM_XREF_EXT_ID>
SCHEMBL16116709

> <PUBCHEM_EXT_DATASOURCE_URL>
https://www.surechembl.org/

> <PUBCHEM_EXT_SUBSTANCE_URL>
https://www.surechembl.org/chemical/SCHEMBL16116709

> <PUBCHEM_CID_ASSOCIATIONS>
117606200  1

> <PUBCHEM_COORDINATE_TYPE>
1
3

$$$$
