310945003
  -OEChem-07211613022D

 32 37  0     1  0  0  0  0  0999 V2000
   -3.1587   -1.7872    0.0000 O   0  0  0  0  0  0  0  0  0  0  0  0
    4.5856   -0.1662    0.0000 O   0  0  0  0  0  0  0  0  0  0  0  0
   -2.4383    1.1083    0.0000 O   0  0  0  0  0  0  0  0  0  0  0  0
    2.0503   -1.3439    0.0000 N   0  0  0  0  0  0  0  0  0  0  0  0
   -3.1587   -0.1108    0.0000 N   0  0  0  0  0  0  0  0  0  0  0  0
   -0.2771    0.7204    0.0000 N   0  0  0  0  0  0  0  0  0  0  0  0
    1.8841   -0.5126    0.0000 C   0  0  0  0  0  0  0  0  0  0  0  0
    2.5907   -0.0969    0.0000 C   0  0  0  0  0  0  0  0  0  0  0  0
    3.2141   -0.6650    0.0000 C   0  0  0  0  0  0  0  0  0  0  0  0
    1.1499   -0.1108    0.0000 C   0  0  0  0  0  0  0  0  0  0  0  0
    2.8816   -1.4269    0.0000 C   0  0  0  0  0  0  0  0  0  0  0  0
    1.1637    0.7204    0.0000 C   0  0  0  0  0  0  0  0  0  0  0  0
    4.0176   -0.7758    0.0000 C   0  0  0  0  0  0  0  0  0  0  0  0
   -0.2909   -0.1108    0.0000 C   0  0  0  0  0  0  0  0  0  0  0  0
    0.4572   -0.5265    0.0000 C   0  0  0  0  0  0  0  0  0  0  0  0
    2.5907    0.7204    0.0000 C   0  0  0  0  0  0  0  0  0  0  0  0
   -0.9975   -0.5265    0.0000 C   0  0  0  0  0  0  0  0  0  0  0  0
   -2.4244   -0.5265    0.0000 C   0  0  0  0  0  0  0  0  0  0  0  0
    1.8703    1.1222    0.0000 C   0  0  0  0  0  0  0  0  0  0  0  0
    3.5050   -1.9673    0.0000 C   0  0  0  0  0  0  0  0  0  0  0  0
   -2.4383   -1.3576    0.0000 C   0  0  0  0  0  0  0  0  0  0  0  0
    4.2116   -1.5655    0.0000 C   0  0  0  0  0  0  0  0  0  0  0  0
    0.4295    1.1360    0.0000 C   0  0  0  0  0  0  0  0  0  0  0  0
   -1.7317   -0.1247    0.0000 C   0  0  0  0  0  0  0  0  0  0  0  0
   -0.9975   -1.3576    0.0000 C   0  0  0  0  0  0  0  0  0  0  0  0
   -1.7317   -1.7594    0.0000 C   0  0  0  0  0  0  0  0  0  0  0  0
   -3.8653   -0.5541    0.0000 C   0  0  0  0  0  0  0  0  0  0  0  0
   -3.8791   -1.3576    0.0000 C   0  0  3  0  0  0  0  0  0  0  0  0
   -3.1587    0.7204    0.0000 C   0  0  0  0  0  0  0  0  0  0  0  0
   -3.8653    1.1222    0.0000 C   0  0  0  0  0  0  0  0  0  0  0  0
   -4.5856   -1.7872    0.0000 C   0  0  0  0  0  0  0  0  0  0  0  0
   -3.8098    1.9673    0.0000 C   0  0  0  0  0  0  0  0  0  0  0  0
  1 21  1  0  0  0  0
  1 28  1  0  0  0  0
  2 13  2  0  0  0  0
  3 29  2  0  0  0  0
  4  7  1  0  0  0  0
  4 11  1  0  0  0  0
  5 18  1  0  0  0  0
  5 27  1  0  0  0  0
  5 29  1  0  0  0  0
  6 14  2  0  0  0  0
  6 23  1  0  0  0  0
  7  8  2  0  0  0  0
  7 10  1  0  0  0  0
  8  9  1  0  0  0  0
  8 16  1  0  0  0  0
  9 11  2  0  0  0  0
  9 13  1  0  0  0  0
 10 12  1  0  0  0  0
 10 15  2  0  0  0  0
 11 20  1  0  0  0  0
 12 19  1  0  0  0  0
 12 23  2  0  0  0  0
 13 22  1  0  0  0  0
 14 15  1  0  0  0  0
 14 17  1  0  0  0  0
 16 19  2  0  0  0  0
 17 24  2  0  0  0  0
 17 25  1  0  0  0  0
 18 21  2  0  0  0  0
 18 24  1  0  0  0  0
 20 22  1  0  0  0  0
 21 26  1  0  0  0  0
 25 26  2  0  0  0  0
 27 28  1  0  0  0  0
 28 31  1  0  0  0  0
 29 30  1  0  0  0  0
 30 32  2  0  0  0  0
M  END
> <PUBCHEM_COMPOUND_ID_TYPE>
0

> <PUBCHEM_TOTAL_CHARGE>
0

> <PUBCHEM_SUBSTANCE_ID>
310945003

> <PUBCHEM_SUBSTANCE_VERSION>
1

> <PUBCHEM_EXT_DATASOURCE_NAME>
4488

> <PUBCHEM_EXT_DATASOURCE_REGID>
SCHEMBL16123091

> <PUBCHEM_SUBSTANCE_COMMENT>
InChI=1S/C26H21N3O3/c1-3-24(31)29-13-14(2)32-23-9-5-15(10-21(23)29)20-11-18-16(12-27-20)4-6-17-25-19(28-26(17)18)7-8-22(25)30/h3-6,9-12,14,28H,1,7-8,13H2,2H3
InChIKey=XOJUHGSNNQPTGC-UHFFFAOYSA-N

> <PUBCHEM_SUBSTANCE_SYNONYM>
SCHEMBL16123091

> <PUBCHEM_XREF_EXT_ID>
SCHEMBL16123091

> <PUBCHEM_EXT_DATASOURCE_URL>
https://www.surechembl.org/

> <PUBCHEM_EXT_SUBSTANCE_URL>
https://www.surechembl.org/chemical/SCHEMBL16123091

> <PUBCHEM_CID_ASSOCIATIONS>
117611141  1

> <PUBCHEM_COORDINATE_TYPE>
1
3

$$$$
