310940803
  -OEChem-07211613022D

 42 46  0     1  0  0  0  0  0999 V2000
    5.2052   -1.5939    0.0000 O   0  0  0  0  0  0  0  0  0  0  0  0
    4.0708    0.3734    0.0000 O   0  0  0  0  0  0  0  0  0  0  0  0
    3.0082    1.1918    0.0000 O   0  0  0  0  0  0  0  0  0  0  0  0
    1.7016   -1.5795    0.0000 O   0  0  0  0  0  0  0  0  0  0  0  0
   -0.4667    0.4882    0.0000 O   0  0  0  0  0  0  0  0  0  0  0  0
   -2.6349   -1.5795    0.0000 O   0  0  0  0  0  0  0  0  0  0  0  0
   -5.5067   -1.5795    0.0000 O   0  0  0  0  0  0  0  0  0  0  0  0
    2.4195   -0.3446    0.0000 N   0  0  0  0  0  0  0  0  0  0  0  0
    0.2513   -0.7610    0.0000 N   0  0  0  0  0  0  0  0  0  0  0  0
   -1.9026   -0.3446    0.0000 N   0  0  0  0  0  0  0  0  0  0  0  0
   -4.0708   -0.7610    0.0000 N   0  0  0  0  0  0  0  0  0  0  0  0
    4.8031   -0.8615    0.0000 C   0  0  3  0  0  0  0  0  0  0  0  0
    4.0708   -0.4595    0.0000 C   0  0  0  0  0  0  0  0  0  0  0  0
    4.4010   -1.5652    0.0000 C   0  0  0  0  0  0  0  0  0  0  0  0
    3.3672   -0.8472    0.0000 C   0  0  3  0  0  0  0  0  0  0  0  0
    5.5067   -0.4308    0.0000 C   0  0  0  0  0  0  0  0  0  0  0  0
    1.6872    0.9333    0.0000 C   0  0  0  0  0  0  0  0  0  0  0  0
    1.7877    1.7661    0.0000 C   0  0  0  0  0  0  0  0  0  0  0  0
    1.7016   -0.7036    0.0000 C   0  0  0  0  0  0  0  0  0  0  0  0
    0.9836   -0.3015    0.0000 C   0  0  3  0  0  0  0  0  0  0  0  0
    3.3528   -1.9241    0.0000 C   0  0  0  0  0  0  0  0  0  0  0  0
    2.5918    1.9384    0.0000 C   0  0  0  0  0  0  0  0  0  0  0  0
    0.9980    0.5313    0.0000 C   0  0  0  0  0  0  0  0  0  0  0  0
    2.4626    0.6031    0.0000 C   0  0  0  0  0  0  0  0  0  0  0  0
    2.6349   -2.3405    0.0000 C   0  0  0  0  0  0  0  0  0  0  0  0
    1.2421    2.3692    0.0000 C   0  0  0  0  0  0  0  0  0  0  0  0
    2.8503    2.7282    0.0000 C   0  0  0  0  0  0  0  0  0  0  0  0
   -0.4810   -0.3302    0.0000 C   0  0  0  0  0  0  0  0  0  0  0  0
    1.4861    3.1590    0.0000 C   0  0  0  0  0  0  0  0  0  0  0  0
    1.8739   -2.0103    0.0000 C   0  0  0  0  0  0  0  0  0  0  0  0
    2.5343   -3.1590    0.0000 C   0  0  0  0  0  0  0  0  0  0  0  0
    2.3046    3.3169    0.0000 C   0  0  0  0  0  0  0  0  0  0  0  0
   -1.1703   -0.7180    0.0000 C   0  0  3  0  0  0  0  0  0  0  0  0
    1.3282   -2.6133    0.0000 C   0  0  0  0  0  0  0  0  0  0  0  0
    1.7303   -3.3169    0.0000 C   0  0  0  0  0  0  0  0  0  0  0  0
   -2.6205   -0.7036    0.0000 C   0  0  0  0  0  0  0  0  0  0  0  0
   -1.1846   -1.5652    0.0000 C   0  0  0  0  0  0  0  0  0  0  0  0
   -3.3528   -0.3159    0.0000 C   0  0  0  0  0  0  0  0  0  0  0  0
   -4.0708   -1.5508    0.0000 C   0  0  0  0  0  0  0  0  0  0  0  0
   -4.8174   -0.3159    0.0000 C   0  0  0  0  0  0  0  0  0  0  0  0
   -4.7600   -1.9528    0.0000 C   0  0  0  0  0  0  0  0  0  0  0  0
   -5.4923   -0.7180    0.0000 C   0  0  0  0  0  0  0  0  0  0  0  0
  1 12  1  0  0  0  0
  1 14  1  0  0  0  0
  2 13  2  0  0  0  0
  3 22  1  0  0  0  0
  3 24  1  0  0  0  0
  4 19  2  0  0  0  0
  5 28  2  0  0  0  0
  6 36  2  0  0  0  0
  7 41  1  0  0  0  0
  7 42  1  0  0  0  0
  8 15  1  0  0  0  0
  8 19  1  0  0  0  0
  9 20  1  0  0  0  0
  9 28  1  0  0  0  0
 10 33  1  0  0  0  0
 10 36  1  0  0  0  0
 11 38  1  0  0  0  0
 11 39  1  0  0  0  0
 11 40  1  0  0  0  0
 12 13  1  0  0  0  0
 12 14  1  0  0  0  0
 12 16  1  0  0  0  0
 13 15  1  0  0  0  0
 15 21  1  0  0  0  0
 17 18  1  0  0  0  0
 17 23  1  0  0  0  0
 17 24  2  0  0  0  0
 18 22  1  0  0  0  0
 18 26  2  0  0  0  0
 19 20  1  0  0  0  0
 20 23  1  0  0  0  0
 21 25  1  0  0  0  0
 22 27  2  0  0  0  0
 25 30  1  0  0  0  0
 25 31  1  0  0  0  0
 26 29  1  0  0  0  0
 27 32  1  0  0  0  0
 28 33  1  0  0  0  0
 29 32  2  0  0  0  0
 30 34  1  0  0  0  0
 31 35  1  0  0  0  0
 33 37  1  0  0  0  0
 34 35  1  0  0  0  0
 36 38  1  0  0  0  0
 39 41  1  0  0  0  0
 40 42  1  0  0  0  0
M  END
> <PUBCHEM_COMPOUND_ID_TYPE>
0

> <PUBCHEM_TOTAL_CHARGE>
0

> <PUBCHEM_SUBSTANCE_ID>
310940803

> <PUBCHEM_SUBSTANCE_VERSION>
1

> <PUBCHEM_EXT_DATASOURCE_NAME>
4488

> <PUBCHEM_EXT_DATASOURCE_REGID>
SCHEMBL16118762

> <PUBCHEM_SUBSTANCE_COMMENT>
InChI=1S/C31H42N4O7/c1-20(32-27(36)17-35-11-13-40-14-12-35)29(38)34-25(16-22-18-41-26-10-6-5-9-23(22)26)30(39)33-24(15-21-7-3-4-8-21)28(37)31(2)19-42-31/h5-6,9-10,18,20-21,24-25H,3-4,7-8,11-17,19H2,1-2H3,(H,32,36)(H,33,39)(H,34,38)
InChIKey=IEKZIZCPJXIFNH-UHFFFAOYSA-N

> <PUBCHEM_SUBSTANCE_SYNONYM>
SCHEMBL16118762

> <PUBCHEM_XREF_EXT_ID>
SCHEMBL16118762

> <PUBCHEM_EXT_DATASOURCE_URL>
https://www.surechembl.org/

> <PUBCHEM_EXT_SUBSTANCE_URL>
https://www.surechembl.org/chemical/SCHEMBL16118762

> <PUBCHEM_CID_ASSOCIATIONS>
86296727  1

> <PUBCHEM_COORDINATE_TYPE>
1
3

$$$$
