310947654
  -OEChem-07211613022D

 18 19  0     1  0  0  0  0  0999 V2000
   -2.5374    2.5083    0.0000 N   0  0  0  0  0  0  0  0  0  0  0  0
   -1.8700    2.0234    0.0000 N   0  0  0  0  0  0  0  0  0  0  0  0
   -0.0773    3.6628    0.0000 N   0  0  3  0  0  0  0  0  0  0  0  0
    1.8864    4.6160    0.0000 N   0  0  0  0  0  0  0  0  0  0  0  0
   -2.2825    3.2930    0.0000 C   0  0  0  0  0  0  0  0  0  0  0  0
   -1.4575    3.2930    0.0000 C   0  0  0  0  0  0  0  0  0  0  0  0
   -2.8659    3.8763    0.0000 C   0  0  0  0  0  0  0  0  0  0  0  0
   -1.2026    2.5083    0.0000 C   0  0  0  0  0  0  0  0  0  0  0  0
   -0.8741    3.8763    0.0000 C   0  0  0  0  0  0  0  0  0  0  0  0
   -3.6628    3.6628    0.0000 C   0  0  0  0  0  0  0  0  0  0  0  0
   -2.6523    4.6732    0.0000 C   0  0  0  0  0  0  0  0  0  0  0  0
   -4.2461    4.2462    0.0000 C   0  0  0  0  0  0  0  0  0  0  0  0
   -3.2357    5.2566    0.0000 C   0  0  0  0  0  0  0  0  0  0  0  0
   -4.0326    5.0430    0.0000 C   0  0  0  0  0  0  0  0  0  0  0  0
    0.5061    4.2462    0.0000 C   0  0  0  0  0  0  0  0  0  0  0  0
    0.1363    2.8659    0.0000 C   0  0  0  0  0  0  0  0  0  0  0  0
   -5.0430    4.0326    0.0000 C   0  0  0  0  0  0  0  0  0  0  0  0
    1.3030    4.0326    0.0000 C   0  0  0  0  0  0  0  0  0  0  0  0
  1  2  1  0  0  0  0
  1  5  2  0  0  0  0
  2  8  1  0  0  0  0
  3  9  1  0  0  0  0
  3 15  1  0  0  0  0
  3 16  1  0  0  0  0
  4 18  1  0  0  0  0
  5  6  1  0  0  0  0
  5  7  1  0  0  0  0
  6  8  2  0  0  0  0
  6  9  1  0  0  0  0
  7 10  1  0  0  0  0
  7 11  2  0  0  0  0
 10 12  2  0  0  0  0
 11 13  1  0  0  0  0
 12 14  1  0  0  0  0
 12 17  1  0  0  0  0
 13 14  2  0  0  0  0
 15 18  1  0  0  0  0
M  END
> <PUBCHEM_COMPOUND_ID_TYPE>
0

> <PUBCHEM_TOTAL_CHARGE>
0

> <PUBCHEM_SUBSTANCE_ID>
310947654

> <PUBCHEM_SUBSTANCE_VERSION>
1

> <PUBCHEM_EXT_DATASOURCE_NAME>
4488

> <PUBCHEM_EXT_DATASOURCE_REGID>
SCHEMBL16125821

> <PUBCHEM_SUBSTANCE_COMMENT>
InChI=1S/C14H20N4/c1-11-4-3-5-12(8-11)14-13(9-16-17-14)10-18(2)7-6-15/h3-5,8-9H,6-7,10,15H2,1-2H3,(H,16,17)
InChIKey=XNNHFWISKRKRDU-UHFFFAOYSA-N

> <PUBCHEM_SUBSTANCE_SYNONYM>
SCHEMBL16125821

> <PUBCHEM_XREF_EXT_ID>
SCHEMBL16125821

> <PUBCHEM_EXT_DATASOURCE_URL>
https://www.surechembl.org/

> <PUBCHEM_EXT_SUBSTANCE_URL>
https://www.surechembl.org/chemical/SCHEMBL16125821

> <PUBCHEM_CID_ASSOCIATIONS>
117613369  1

> <PUBCHEM_COORDINATE_TYPE>
1
3

$$$$
