310945919
  -OEChem-07211613022D

 40 43  0     1  0  0  0  0  0999 V2000
    4.0293    0.6832    0.0000 O   0  0  0  0  0  0  0  0  0  0  0  0
    2.8861   -1.2966    0.0000 O   0  0  0  0  0  0  0  0  0  0  0  0
    0.7111    0.7947    0.0000 O   0  0  0  0  0  0  0  0  0  0  0  0
   -1.4640   -1.2966    0.0000 O   0  0  0  0  0  0  0  0  0  0  0  0
    2.8861   -2.9558    0.0000 O   0  0  0  0  0  0  0  0  0  0  0  0
   -2.1750   -2.5514    0.0000 O   0  0  0  0  0  0  0  0  0  0  0  0
    1.4500   -0.4462    0.0000 N   0  0  0  0  0  0  0  0  0  0  0  0
   -0.7250   -0.0279    0.0000 N   0  0  0  0  0  0  0  0  0  0  0  0
   -2.9000   -0.4462    0.0000 N   0  0  3  0  0  0  0  0  0  0  0  0
    3.6110   -0.0139    0.0000 C   0  0  3  0  0  0  0  0  0  0  0  0
    2.8861   -0.4183    0.0000 C   0  0  0  0  0  0  0  0  0  0  0  0
    3.2206    0.6971    0.0000 C   0  0  0  0  0  0  0  0  0  0  0  0
    2.1610   -0.0279    0.0000 C   0  0  3  0  0  0  0  0  0  0  0  0
    4.3500   -0.4740    0.0000 C   0  0  0  0  0  0  0  0  0  0  0  0
    2.1750    1.3106    0.0000 C   0  0  0  0  0  0  0  0  0  0  0  0
    0.7111   -0.0558    0.0000 C   0  0  0  0  0  0  0  0  0  0  0  0
    0.0000   -0.4462    0.0000 C   0  0  3  0  0  0  0  0  0  0  0  0
    1.4360    1.7288    0.0000 C   0  0  0  0  0  0  0  0  0  0  0  0
   -1.4500   -0.4183    0.0000 C   0  0  0  0  0  0  0  0  0  0  0  0
   -2.1889   -0.0279    0.0000 C   0  0  3  0  0  0  0  0  0  0  0  0
    0.0000   -1.2687    0.0000 C   0  0  0  0  0  0  0  0  0  0  0  0
   -2.9000   -1.2827    0.0000 C   0  0  3  0  0  0  0  0  0  0  0  0
    0.7250   -1.7010    0.0000 C   0  0  0  0  0  0  0  0  0  0  0  0
    1.4360    2.5514    0.0000 C   0  0  0  0  0  0  0  0  0  0  0  0
    0.7389    1.3106    0.0000 C   0  0  0  0  0  0  0  0  0  0  0  0
   -3.6389   -0.0419    0.0000 C   0  0  0  0  0  0  0  0  0  0  0  0
   -3.6389   -1.6870    0.0000 C   0  0  0  0  0  0  0  0  0  0  0  0
    0.7250   -2.5236    0.0000 C   0  0  0  0  0  0  0  0  0  0  0  0
    1.4360   -1.2966    0.0000 C   0  0  0  0  0  0  0  0  0  0  0  0
   -2.1750    0.8226    0.0000 C   0  0  0  0  0  0  0  0  0  0  0  0
   -2.1889   -1.7010    0.0000 C   0  0  0  0  0  0  0  0  0  0  0  0
   -4.3500   -0.4462    0.0000 C   0  0  0  0  0  0  0  0  0  0  0  0
   -4.3500   -1.2687    0.0000 C   0  0  0  0  0  0  0  0  0  0  0  0
    2.1610   -2.5096    0.0000 C   0  0  0  0  0  0  0  0  0  0  0  0
    0.7111    2.9558    0.0000 C   0  0  0  0  0  0  0  0  0  0  0  0
    0.0000    1.7288    0.0000 C   0  0  0  0  0  0  0  0  0  0  0  0
    1.4640   -2.9418    0.0000 C   0  0  0  0  0  0  0  0  0  0  0  0
    2.1610   -1.7010    0.0000 C   0  0  0  0  0  0  0  0  0  0  0  0
    0.0000    2.5514    0.0000 C   0  0  0  0  0  0  0  0  0  0  0  0
    3.6389   -2.5236    0.0000 C   0  0  0  0  0  0  0  0  0  0  0  0
  1 10  1  0  0  0  0
  1 12  1  0  0  0  0
  2 11  2  0  0  0  0
  3 16  2  0  0  0  0
  4 19  2  0  0  0  0
  5 34  1  0  0  0  0
  5 40  1  0  0  0  0
  6 31  1  0  0  0  0
  7 13  1  0  0  0  0
  7 16  1  0  0  0  0
  8 17  1  0  0  0  0
  8 19  1  0  0  0  0
  9 20  1  0  0  0  0
  9 22  1  0  0  0  0
  9 26  1  0  0  0  0
 10 11  1  0  0  0  0
 10 12  1  0  0  0  0
 10 14  1  0  0  0  0
 11 13  1  0  0  0  0
 13 15  1  0  0  0  0
 15 18  1  0  0  0  0
 16 17  1  0  0  0  0
 17 21  1  0  0  0  0
 18 24  2  0  0  0  0
 18 25  1  0  0  0  0
 19 20  1  0  0  0  0
 20 30  1  0  0  0  0
 21 23  1  0  0  0  0
 22 27  1  0  0  0  0
 22 31  1  0  0  0  0
 23 28  2  0  0  0  0
 23 29  1  0  0  0  0
 24 35  1  0  0  0  0
 25 36  2  0  0  0  0
 26 32  1  0  0  0  0
 27 33  1  0  0  0  0
 28 37  1  0  0  0  0
 29 38  2  0  0  0  0
 32 33  1  0  0  0  0
 34 37  2  0  0  0  0
 34 38  1  0  0  0  0
 35 39  2  0  0  0  0
 36 39  1  0  0  0  0
M  END
> <PUBCHEM_COMPOUND_ID_TYPE>
0

> <PUBCHEM_TOTAL_CHARGE>
0

> <PUBCHEM_SUBSTANCE_ID>
310945919

> <PUBCHEM_SUBSTANCE_VERSION>
1

> <PUBCHEM_EXT_DATASOURCE_NAME>
4488

> <PUBCHEM_EXT_DATASOURCE_REGID>
SCHEMBL16124024

> <PUBCHEM_SUBSTANCE_COMMENT>
InChI=1S/C31H41N3O6/c1-21(34-16-8-7-11-24(34)19-35)29(37)33-27(18-23-12-14-25(39-3)15-13-23)30(38)32-26(28(36)31(2)20-40-31)17-22-9-5-4-6-10-22/h4-6,9-10,12-15,21,24,26-27,35H,7-8,11,16-20H2,1-3H3,(H,32,38)(H,33,37)
InChIKey=LXXLWOWWQCGGQN-UHFFFAOYSA-N

> <PUBCHEM_SUBSTANCE_SYNONYM>
SCHEMBL16124024

> <PUBCHEM_XREF_EXT_ID>
SCHEMBL16124024

> <PUBCHEM_EXT_DATASOURCE_URL>
https://www.surechembl.org/

> <PUBCHEM_EXT_SUBSTANCE_URL>
https://www.surechembl.org/chemical/SCHEMBL16124024

> <PUBCHEM_CID_ASSOCIATIONS>
117611902  1

> <PUBCHEM_COORDINATE_TYPE>
1
3

$$$$
