310949567
  -OEChem-07211613022D

 10  9  0     1  0  0  0  0  0999 V2000
   -0.7122    0.0092    0.0000 O   0  0  0  0  0  0  0  0  0  0  0  0
    0.7215   -0.8233    0.0000 O   0  0  0  0  0  0  0  0  0  0  0  0
   -1.4338    1.2488    0.0000 O   0  0  0  0  0  0  0  0  0  0  0  0
    0.0000   -1.2488    0.0000 O   0  0  0  0  0  0  0  0  0  0  0  0
    2.1645    0.0092    0.0000 O   0  0  0  0  0  0  0  0  0  0  0  0
    0.7215    0.0185    0.0000 C   0  0  3  0  0  0  0  0  0  0  0  0
   -0.0092    0.4347    0.0000 C   0  0  0  0  0  0  0  0  0  0  0  0
   -1.4523    0.4255    0.0000 C   0  0  0  0  0  0  0  0  0  0  0  0
    1.4338    0.4347    0.0000 C   0  0  0  0  0  0  0  0  0  0  0  0
   -2.1645    0.0277    0.0000 C   0  0  0  0  0  0  0  0  0  0  0  0
  1  7  1  0  0  0  0
  1  8  1  0  0  0  0
  2  4  1  0  0  0  0
  2  6  1  0  0  0  0
  3  8  2  0  0  0  0
  5  9  1  0  0  0  0
  6  7  1  0  0  0  0
  6  9  1  0  0  0  0
  8 10  1  0  0  0  0
M  END
> <PUBCHEM_COMPOUND_ID_TYPE>
0

> <PUBCHEM_TOTAL_CHARGE>
0

> <PUBCHEM_SUBSTANCE_ID>
310949567

> <PUBCHEM_SUBSTANCE_VERSION>
1

> <PUBCHEM_EXT_DATASOURCE_NAME>
4488

> <PUBCHEM_EXT_DATASOURCE_REGID>
SCHEMBL16127762

> <PUBCHEM_SUBSTANCE_COMMENT>
InChI=1S/C5H10O5/c1-4(7)9-3-5(2-6)10-8/h5-6,8H,2-3H2,1H3
InChIKey=RRYIDVIZVDVHLG-UHFFFAOYSA-N

> <PUBCHEM_SUBSTANCE_SYNONYM>
SCHEMBL16127762

> <PUBCHEM_XREF_EXT_ID>
SCHEMBL16127762

> <PUBCHEM_EXT_DATASOURCE_URL>
https://www.surechembl.org/

> <PUBCHEM_EXT_SUBSTANCE_URL>
https://www.surechembl.org/chemical/SCHEMBL16127762

> <PUBCHEM_CID_ASSOCIATIONS>
117614983  1

> <PUBCHEM_COORDINATE_TYPE>
1
3

$$$$
