310931072
  -OEChem-07211613022D

 11 10  0     1  0  0  0  0  0999 V2000
    0.0000   -1.2232    0.0000 O   0  0  0  0  0  0  0  0  0  0  0  0
    2.1336   -2.4465    0.0000 O   0  0  0  0  0  0  0  0  0  0  0  0
    2.8306   -1.2232    0.0000 O   0  0  0  0  0  0  0  0  0  0  0  0
    1.4224   -1.2232    0.0000 C   0  0  3  0  0  0  0  0  0  0  0  0
    0.6970   -1.6215    0.0000 C   0  0  0  0  0  0  0  0  0  0  0  0
    2.1336   -1.6215    0.0000 C   0  0  0  0  0  0  0  0  0  0  0  0
    1.4224   -0.3982    0.0000 C   0  0  0  0  0  0  0  0  0  0  0  0
    0.6970   -2.4465    0.0000 C   0  0  0  0  0  0  0  0  0  0  0  0
    0.6970    0.0000    0.0000 C   0  0  0  0  0  0  0  0  0  0  0  0
    2.1194    0.0000    0.0000 C   0  0  0  0  0  0  0  0  0  0  0  0
    0.0000   -2.8448    0.0000 C   0  0  0  0  0  0  0  0  0  0  0  0
  1  5  2  0  0  0  0
  2  6  2  0  0  0  0
  3  6  1  0  0  0  0
  4  5  1  0  0  0  0
  4  6  1  0  0  0  0
  4  7  1  0  0  0  0
  5  8  1  0  0  0  0
  7  9  1  0  0  0  0
  7 10  1  0  0  0  0
  8 11  1  0  0  0  0
M  END
> <PUBCHEM_COMPOUND_ID_TYPE>
0

> <PUBCHEM_TOTAL_CHARGE>
0

> <PUBCHEM_SUBSTANCE_ID>
310931072

> <PUBCHEM_SUBSTANCE_VERSION>
1

> <PUBCHEM_EXT_DATASOURCE_NAME>
4488

> <PUBCHEM_EXT_DATASOURCE_REGID>
SCHEMBL16108375

> <PUBCHEM_SUBSTANCE_COMMENT>
InChI=1S/C8H14O3/c1-4-6(9)7(5(2)3)8(10)11/h5,7H,4H2,1-3H3,(H,10,11)
InChIKey=KQBFNXVBWBQMLO-UHFFFAOYSA-N

> <PUBCHEM_SUBSTANCE_SYNONYM>
SCHEMBL16108375

> <PUBCHEM_XREF_EXT_ID>
SCHEMBL16108375

> <PUBCHEM_EXT_DATASOURCE_URL>
https://www.surechembl.org/

> <PUBCHEM_EXT_SUBSTANCE_URL>
https://www.surechembl.org/chemical/SCHEMBL16108375

> <PUBCHEM_CID_ASSOCIATIONS>
116922906  1

> <PUBCHEM_COORDINATE_TYPE>
1
3

$$$$
