310941612
  -OEChem-07211613022D

 35 39  0     1  0  0  0  0  0999 V2000
    1.4759    1.8406    0.0000 S   0  0  0  0  0  0  0  0  0  0  0  0
   -0.8856   -0.8508    0.0000 O   0  0  0  0  0  0  0  0  0  0  0  0
    0.5556   -0.8335    0.0000 O   0  0  0  0  0  0  0  0  0  0  0  0
    4.3756    0.8508    0.0000 O   0  0  0  0  0  0  0  0  0  0  0  0
    1.3370    0.5035    0.0000 N   0  0  0  0  0  0  0  0  0  0  0  0
   -3.7679   -0.8335    0.0000 N   0  0  3  0  0  0  0  0  0  0  0  0
    2.7260    1.0245    0.0000 N   0  0  0  0  0  0  0  0  0  0  0  0
   -0.1389    0.4341    0.0000 C   0  0  0  0  0  0  0  0  0  0  0  0
   -1.5974    0.4341    0.0000 C   0  0  0  0  0  0  0  0  0  0  0  0
   -1.6148   -0.4167    0.0000 C   0  0  0  0  0  0  0  0  0  0  0  0
    0.5556    0.8508    0.0000 C   0  0  0  0  0  0  0  0  0  0  0  0
   -0.1737   -0.3994    0.0000 C   0  0  0  0  0  0  0  0  0  0  0  0
   -0.9029    0.8334    0.0000 C   0  0  0  0  0  0  0  0  0  0  0  0
   -3.0734   -0.4341    0.0000 C   0  0  0  0  0  0  0  0  0  0  0  0
   -2.2920   -0.8161    0.0000 C   0  0  0  0  0  0  0  0  0  0  0  0
    1.8753    1.1460    0.0000 C   0  0  0  0  0  0  0  0  0  0  0  0
   -2.3441    0.8161    0.0000 C   0  0  0  0  0  0  0  0  0  0  0  0
    0.6772    1.6669    0.0000 C   0  0  0  0  0  0  0  0  0  0  0  0
   -3.0386    0.4167    0.0000 C   0  0  0  0  0  0  0  0  0  0  0  0
    3.0734    0.2604    0.0000 C   0  0  0  0  0  0  0  0  0  0  0  0
    3.8894    0.1910    0.0000 C   0  0  0  0  0  0  0  0  0  0  0  0
   -4.4972   -0.4341    0.0000 C   0  0  0  0  0  0  0  0  0  0  0  0
   -3.7853   -1.6669    0.0000 C   0  0  0  0  0  0  0  0  0  0  0  0
    2.5871   -0.4167    0.0000 C   0  0  0  0  0  0  0  0  0  0  0  0
   -4.4972    0.4341    0.0000 C   0  0  0  0  0  0  0  0  0  0  0  0
    4.2194   -0.5556    0.0000 C   0  0  0  0  0  0  0  0  0  0  0  0
    2.9171   -1.1460    0.0000 C   0  0  0  0  0  0  0  0  0  0  0  0
    3.7331   -1.2502    0.0000 C   0  0  0  0  0  0  0  0  0  0  0  0
   -3.7853    0.8508    0.0000 C   0  0  0  0  0  0  0  0  0  0  0  0
   -5.1917    0.8334    0.0000 C   0  0  0  0  0  0  0  0  0  0  0  0
   -4.5145   -2.0836    0.0000 C   0  0  0  0  0  0  0  0  0  0  0  0
   -3.7853    1.6669    0.0000 C   0  0  0  0  0  0  0  0  0  0  0  0
   -5.1917    1.6843    0.0000 C   0  0  0  0  0  0  0  0  0  0  0  0
   -4.4972    2.0836    0.0000 C   0  0  0  0  0  0  0  0  0  0  0  0
    5.1917    0.7640    0.0000 C   0  0  0  0  0  0  0  0  0  0  0  0
  1 16  1  0  0  0  0
  1 18  1  0  0  0  0
  2 10  1  0  0  0  0
  2 12  1  0  0  0  0
  3 12  2  0  0  0  0
  4 21  1  0  0  0  0
  4 35  1  0  0  0  0
  5 11  1  0  0  0  0
  5 16  2  0  0  0  0
  6 14  1  0  0  0  0
  6 22  1  0  0  0  0
  6 23  1  0  0  0  0
  7 16  1  0  0  0  0
  7 20  1  0  0  0  0
  8 11  1  0  0  0  0
  8 12  1  0  0  0  0
  8 13  2  0  0  0  0
  9 10  1  0  0  0  0
  9 13  1  0  0  0  0
  9 17  2  0  0  0  0
 10 15  2  0  0  0  0
 11 18  2  0  0  0  0
 14 15  1  0  0  0  0
 14 19  2  0  0  0  0
 17 19  1  0  0  0  0
 20 21  1  0  0  0  0
 20 24  2  0  0  0  0
 21 26  2  0  0  0  0
 22 25  1  0  0  0  0
 23 31  1  0  0  0  0
 24 27  1  0  0  0  0
 25 29  2  0  0  0  0
 25 30  1  0  0  0  0
 26 28  1  0  0  0  0
 27 28  2  0  0  0  0
 29 32  1  0  0  0  0
 30 33  2  0  0  0  0
 32 34  2  0  0  0  0
 33 34  1  0  0  0  0
M  END
> <PUBCHEM_COMPOUND_ID_TYPE>
0

> <PUBCHEM_TOTAL_CHARGE>
0

> <PUBCHEM_SUBSTANCE_ID>
310941612

> <PUBCHEM_SUBSTANCE_VERSION>
1

> <PUBCHEM_EXT_DATASOURCE_NAME>
4488

> <PUBCHEM_EXT_DATASOURCE_REGID>
SCHEMBL16119643

> <PUBCHEM_SUBSTANCE_COMMENT>
InChI=1S/C28H25N3O3S/c1-3-31(17-19-9-5-4-6-10-19)21-14-13-20-15-22(27(32)34-26(20)16-21)24-18-35-28(30-24)29-23-11-7-8-12-25(23)33-2/h4-16,18H,3,17H2,1-2H3,(H,29,30)
InChIKey=LYTXIYRTVRULOA-UHFFFAOYSA-N

> <PUBCHEM_SUBSTANCE_SYNONYM>
SCHEMBL16119643

> <PUBCHEM_XREF_EXT_ID>
SCHEMBL16119643

> <PUBCHEM_EXT_DATASOURCE_URL>
https://www.surechembl.org/

> <PUBCHEM_EXT_SUBSTANCE_URL>
https://www.surechembl.org/chemical/SCHEMBL16119643

> <PUBCHEM_CID_ASSOCIATIONS>
86274504  1

> <PUBCHEM_COORDINATE_TYPE>
1
3

$$$$
