310934315
  -OEChem-07211613022D

 28 31  0     1  0  0  0  0  0999 V2000
    1.0396   -1.4521    0.0000 O   0  0  0  0  0  0  0  0  0  0  0  0
    2.0946    0.0000    0.0000 O   0  0  0  0  0  0  0  0  0  0  0  0
   -0.3195   -1.8936    0.0000 O   0  0  0  0  0  0  0  0  0  0  0  0
    0.7846    0.6674    0.0000 N   0  0  0  0  0  0  0  0  0  0  0  0
    0.0000   -0.4125    0.0000 C   0  0  0  0  0  0  0  0  0  0  0  0
    0.0000    0.4125    0.0000 C   0  0  3  0  0  0  0  0  0  0  0  0
    0.7846   -0.6674    0.0000 C   0  0  0  0  0  0  0  0  0  0  0  0
    1.2696    0.0000    0.0000 C   0  0  0  0  0  0  0  0  0  0  0  0
   -0.7144   -0.8250    0.0000 C   0  0  0  0  0  0  0  0  0  0  0  0
   -0.7144    0.8250    0.0000 C   0  0  0  0  0  0  0  0  0  0  0  0
    1.0396    1.4521    0.0000 C   0  0  0  0  0  0  0  0  0  0  0  0
   -1.4290   -0.4125    0.0000 C   0  0  0  0  0  0  0  0  0  0  0  0
   -1.4290    0.4125    0.0000 C   0  0  0  0  0  0  0  0  0  0  0  0
    0.4875   -2.0652    0.0000 C   0  0  0  0  0  0  0  0  0  0  0  0
    0.7424   -2.8498    0.0000 C   0  0  0  0  0  0  0  0  0  0  0  0
    1.8465    1.6236    0.0000 C   0  0  0  0  0  0  0  0  0  0  0  0
    2.1015    2.4082    0.0000 C   0  0  0  0  0  0  0  0  0  0  0  0
   -2.1434   -0.8250    0.0000 C   0  0  0  0  0  0  0  0  0  0  0  0
    0.1905   -3.4629    0.0000 C   0  0  0  0  0  0  0  0  0  0  0  0
    1.5495   -3.0213    0.0000 C   0  0  0  0  0  0  0  0  0  0  0  0
    2.9084    2.5797    0.0000 C   0  0  0  0  0  0  0  0  0  0  0  0
    1.5495    3.0213    0.0000 C   0  0  0  0  0  0  0  0  0  0  0  0
    0.4454   -4.2475    0.0000 C   0  0  0  0  0  0  0  0  0  0  0  0
    1.8044   -3.8059    0.0000 C   0  0  0  0  0  0  0  0  0  0  0  0
    1.2524   -4.4190    0.0000 C   0  0  0  0  0  0  0  0  0  0  0  0
    3.1634    3.3643    0.0000 C   0  0  0  0  0  0  0  0  0  0  0  0
    1.8044    3.8059    0.0000 C   0  0  0  0  0  0  0  0  0  0  0  0
    2.6114    3.9774    0.0000 C   0  0  0  0  0  0  0  0  0  0  0  0
  1  7  1  0  0  0  0
  1 14  1  0  0  0  0
  2  8  2  0  0  0  0
  3 14  2  0  0  0  0
  4  6  1  0  0  0  0
  4  8  1  0  0  0  0
  4 11  1  0  0  0  0
  5  6  1  0  0  0  0
  5  7  2  0  0  0  0
  5  9  1  0  0  0  0
  6 10  1  0  0  0  0
  7  8  1  0  0  0  0
  9 12  2  0  0  0  0
 10 13  2  0  0  0  0
 11 16  1  0  0  0  0
 12 13  1  0  0  0  0
 12 18  1  0  0  0  0
 14 15  1  0  0  0  0
 15 19  2  0  0  0  0
 15 20  1  0  0  0  0
 16 17  1  0  0  0  0
 17 21  2  0  0  0  0
 17 22  1  0  0  0  0
 19 23  1  0  0  0  0
 20 24  2  0  0  0  0
 21 26  1  0  0  0  0
 22 27  2  0  0  0  0
 23 25  2  0  0  0  0
 24 25  1  0  0  0  0
 26 28  2  0  0  0  0
 27 28  1  0  0  0  0
M  END
> <PUBCHEM_COMPOUND_ID_TYPE>
0

> <PUBCHEM_TOTAL_CHARGE>
0

> <PUBCHEM_SUBSTANCE_ID>
310934315

> <PUBCHEM_SUBSTANCE_VERSION>
1

> <PUBCHEM_EXT_DATASOURCE_NAME>
4488

> <PUBCHEM_EXT_DATASOURCE_REGID>
SCHEMBL16111773

> <PUBCHEM_SUBSTANCE_COMMENT>
InChI=1S/C24H21NO3/c1-17-12-13-21-20(16-17)22(28-24(27)19-10-6-3-7-11-19)23(26)25(21)15-14-18-8-4-2-5-9-18/h2-13,16,21H,14-15H2,1H3
InChIKey=PGZBSHUCBDRIFL-UHFFFAOYSA-N

> <PUBCHEM_SUBSTANCE_SYNONYM>
SCHEMBL16111773

> <PUBCHEM_XREF_EXT_ID>
SCHEMBL16111773

> <PUBCHEM_EXT_DATASOURCE_URL>
https://www.surechembl.org/

> <PUBCHEM_EXT_SUBSTANCE_URL>
https://www.surechembl.org/chemical/SCHEMBL16111773

> <PUBCHEM_CID_ASSOCIATIONS>
117602555  1

> <PUBCHEM_COORDINATE_TYPE>
1
3

$$$$
