310933035
  -OEChem-07211613022D

 24 26  0     1  0  0  0  0  0999 V2000
    1.6310   -0.6990    0.0000 Cl  0  0  0  0  0  0  0  0  0  0  0  0
    2.4994   -2.1182    0.0000 S   0  0  0  0  0  0  0  0  0  0  0  0
    2.4994   -3.0290    0.0000 O   0  0  0  0  0  0  0  0  0  0  0  0
    2.4994   -1.3344    0.0000 O   0  0  0  0  0  0  0  0  0  0  0  0
    3.2831   -2.1182    0.0000 N   0  0  3  0  0  0  0  0  0  0  0  0
    4.4905   -2.8383    0.0000 N   0  0  0  0  0  0  0  0  0  0  0  0
    4.4905    0.0000    0.0000 N   0  0  0  0  0  0  0  0  0  0  0  0
    1.6733   -2.1182    0.0000 C   0  0  0  0  0  0  0  0  0  0  0  0
    3.6856   -2.8383    0.0000 C   0  0  0  0  0  0  0  0  0  0  0  0
    3.6856   -1.4192    0.0000 C   0  0  0  0  0  0  0  0  0  0  0  0
    1.2285   -1.4192    0.0000 C   0  0  0  0  0  0  0  0  0  0  0  0
    1.2285   -2.8383    0.0000 C   0  0  0  0  0  0  0  0  0  0  0  0
    3.2620   -3.5373    0.0000 C   0  0  0  0  0  0  0  0  0  0  0  0
    4.5117   -1.4192    0.0000 C   0  0  0  0  0  0  0  0  0  0  0  0
    3.2831   -0.6990    0.0000 C   0  0  0  0  0  0  0  0  0  0  0  0
    0.4236   -1.4192    0.0000 C   0  0  0  0  0  0  0  0  0  0  0  0
    4.9353   -3.5373    0.0000 C   0  0  0  0  0  0  0  0  0  0  0  0
    0.4236   -2.8383    0.0000 C   0  0  0  0  0  0  0  0  0  0  0  0
    3.7068   -4.2363    0.0000 C   0  0  0  0  0  0  0  0  0  0  0  0
    0.0000   -2.1182    0.0000 C   0  0  0  0  0  0  0  0  0  0  0  0
    4.4905   -4.2363    0.0000 C   0  0  0  0  0  0  0  0  0  0  0  0
    4.9141   -0.6990    0.0000 C   0  0  0  0  0  0  0  0  0  0  0  0
    3.6856    0.0000    0.0000 C   0  0  0  0  0  0  0  0  0  0  0  0
    5.7614   -3.5373    0.0000 C   0  0  0  0  0  0  0  0  0  0  0  0
  1 11  1  0  0  0  0
  2  3  2  0  0  0  0
  2  4  2  0  0  0  0
  2  5  1  0  0  0  0
  2  8  1  0  0  0  0
  5  9  1  0  0  0  0
  5 10  1  0  0  0  0
  6  9  1  0  0  0  0
  6 17  2  0  0  0  0
  7 22  1  0  0  0  0
  7 23  1  0  0  0  0
  8 11  1  0  0  0  0
  8 12  2  0  0  0  0
  9 13  2  0  0  0  0
 10 14  1  0  0  0  0
 10 15  1  0  0  0  0
 11 16  2  0  0  0  0
 12 18  1  0  0  0  0
 13 19  1  0  0  0  0
 14 22  1  0  0  0  0
 15 23  1  0  0  0  0
 16 20  1  0  0  0  0
 17 21  1  0  0  0  0
 17 24  1  0  0  0  0
 18 20  2  0  0  0  0
 19 21  2  0  0  0  0
M  END
> <PUBCHEM_COMPOUND_ID_TYPE>
0

> <PUBCHEM_TOTAL_CHARGE>
0

> <PUBCHEM_SUBSTANCE_ID>
310933035

> <PUBCHEM_SUBSTANCE_VERSION>
1

> <PUBCHEM_EXT_DATASOURCE_NAME>
4488

> <PUBCHEM_EXT_DATASOURCE_REGID>
SCHEMBL16110435

> <PUBCHEM_SUBSTANCE_COMMENT>
InChI=1S/C17H20ClN3O2S/c1-13-5-4-8-17(20-13)21(14-9-11-19-12-10-14)24(22,23)16-7-3-2-6-15(16)18/h2-8,14,19H,9-12H2,1H3
InChIKey=YEVJPNPNZQYMTO-UHFFFAOYSA-N

> <PUBCHEM_SUBSTANCE_SYNONYM>
SCHEMBL16110435

> <PUBCHEM_XREF_EXT_ID>
SCHEMBL16110435

> <PUBCHEM_EXT_DATASOURCE_URL>
https://www.surechembl.org/

> <PUBCHEM_EXT_SUBSTANCE_URL>
https://www.surechembl.org/chemical/SCHEMBL16110435

> <PUBCHEM_CID_ASSOCIATIONS>
117601500  1

> <PUBCHEM_COORDINATE_TYPE>
1
3

$$$$
