310948973
  -OEChem-07211613022D

 13 14  0     1  0  0  0  0  0999 V2000
    1.8157   -0.5926    0.0000 O   0  0  0  0  0  0  0  0  0  0  0  0
   -1.4770   -0.4234    0.0000 N   0  0  0  0  0  0  0  0  0  0  0  0
    0.5739    0.1411    0.0000 N   0  0  0  0  0  0  0  0  0  0  0  0
   -0.2728    0.1411    0.0000 C   0  0  3  0  0  0  0  0  0  0  0  0
   -0.6867   -0.5739    0.0000 C   0  0  3  0  0  0  0  0  0  0  0  0
   -1.5711    0.4045    0.0000 C   0  0  0  0  0  0  0  0  0  0  0  0
   -0.8184    0.7432    0.0000 C   0  0  0  0  0  0  0  0  0  0  0  0
    0.9501   -0.5926    0.0000 C   0  0  0  0  0  0  0  0  0  0  0  0
   -0.2728   -1.2888    0.0000 C   0  0  0  0  0  0  0  0  0  0  0  0
    0.5739   -1.2888    0.0000 C   0  0  0  0  0  0  0  0  0  0  0  0
   -2.2107    0.6867    0.0000 C   0  0  0  0  0  0  0  0  0  0  0  0
    2.2107    0.0659    0.0000 C   0  0  0  0  0  0  0  0  0  0  0  0
   -2.1167    1.2888    0.0000 C   0  0  0  0  0  0  0  0  0  0  0  0
  1  8  1  0  0  0  0
  1 12  1  0  0  0  0
  2  5  1  0  0  0  0
  2  6  1  0  0  0  0
  3  4  1  0  0  0  0
  3  8  2  0  0  0  0
  4  5  1  0  0  0  0
  4  7  1  0  0  0  0
  5  9  1  0  0  0  0
  6  7  2  0  0  0  0
  6 11  1  0  0  0  0
  8 10  1  0  0  0  0
  9 10  2  0  0  0  0
 11 13  1  0  0  0  0
M  END
> <PUBCHEM_COMPOUND_ID_TYPE>
0

> <PUBCHEM_TOTAL_CHARGE>
0

> <PUBCHEM_SUBSTANCE_ID>
310948973

> <PUBCHEM_SUBSTANCE_VERSION>
1

> <PUBCHEM_EXT_DATASOURCE_NAME>
4488

> <PUBCHEM_EXT_DATASOURCE_REGID>
SCHEMBL16127161

> <PUBCHEM_SUBSTANCE_COMMENT>
InChI=1S/C10H14N2O/c1-3-7-6-9-8(11-7)4-5-10(12-9)13-2/h4-6,8-9,11H,3H2,1-2H3
InChIKey=RAGRBVUNVIXCEE-UHFFFAOYSA-N

> <PUBCHEM_SUBSTANCE_SYNONYM>
SCHEMBL16127161

> <PUBCHEM_XREF_EXT_ID>
SCHEMBL16127161

> <PUBCHEM_EXT_DATASOURCE_URL>
https://www.surechembl.org/

> <PUBCHEM_EXT_SUBSTANCE_URL>
https://www.surechembl.org/chemical/SCHEMBL16127161

> <PUBCHEM_CID_ASSOCIATIONS>
117614482  1

> <PUBCHEM_COORDINATE_TYPE>
1
3

$$$$
