310946821
  -OEChem-07211613022D

 18 20  0     1  0  0  0  0  0999 V2000
   -1.5688    2.3321    0.0000 Br  0  0  0  0  0  0  0  0  0  0  0  0
    1.7368   -1.8139    0.0000 O   0  0  0  0  0  0  0  0  0  0  0  0
   -1.3166   -1.4917    0.0000 O   0  0  0  0  0  0  0  0  0  0  0  0
    0.1541   -1.2396    0.0000 N   0  0  0  0  0  0  0  0  0  0  0  0
   -0.6583   -0.9314    0.0000 C   0  0  0  0  0  0  0  0  0  0  0  0
    0.3361   -2.0520    0.0000 C   0  0  3  0  0  0  0  0  0  0  0  0
    0.8124   -0.7213    0.0000 C   0  0  3  0  0  0  0  0  0  0  0  0
   -0.8124   -0.1191    0.0000 C   0  0  0  0  0  0  0  0  0  0  0  0
    0.9805   -1.8979    0.0000 C   0  0  0  0  0  0  0  0  0  0  0  0
    1.2046   -1.2396    0.0000 C   0  0  0  0  0  0  0  0  0  0  0  0
   -0.1821    0.4132    0.0000 C   0  0  0  0  0  0  0  0  0  0  0  0
    1.5967   -0.9875    0.0000 C   0  0  0  0  0  0  0  0  0  0  0  0
    1.1065   -2.3321    0.0000 C   0  0  0  0  0  0  0  0  0  0  0  0
   -1.5967    0.1611    0.0000 C   0  0  0  0  0  0  0  0  0  0  0  0
   -0.3221    1.2256    0.0000 C   0  0  0  0  0  0  0  0  0  0  0  0
   -1.1065    1.5057    0.0000 C   0  0  0  0  0  0  0  0  0  0  0  0
   -1.7368    0.9735    0.0000 C   0  0  0  0  0  0  0  0  0  0  0  0
    0.6443    0.1331    0.0000 C   0  0  0  0  0  0  0  0  0  0  0  0
  1 16  1  0  0  0  0
  2 12  1  0  0  0  0
  2 13  1  0  0  0  0
  3  5  2  0  0  0  0
  4  5  1  0  0  0  0
  4  6  1  0  0  0  0
  4  7  1  0  0  0  0
  5  8  1  0  0  0  0
  6  9  1  0  0  0  0
  6 13  1  0  0  0  0
  7 10  1  0  0  0  0
  7 12  1  0  0  0  0
  8 11  1  0  0  0  0
  8 14  2  0  0  0  0
  9 10  1  0  0  0  0
 11 15  2  0  0  0  0
 11 18  1  0  0  0  0
 14 17  1  0  0  0  0
 15 16  1  0  0  0  0
 16 17  2  0  0  0  0
M  END
> <PUBCHEM_COMPOUND_ID_TYPE>
0

> <PUBCHEM_TOTAL_CHARGE>
0

> <PUBCHEM_SUBSTANCE_ID>
310946821

> <PUBCHEM_SUBSTANCE_VERSION>
1

> <PUBCHEM_EXT_DATASOURCE_NAME>
4488

> <PUBCHEM_EXT_DATASOURCE_REGID>
SCHEMBL16124945

> <PUBCHEM_SUBSTANCE_COMMENT>
InChI=1S/C14H16BrNO2/c1-9-6-10(15)2-5-13(9)14(17)16-11-3-4-12(16)8-18-7-11/h2,5-6,11-12H,3-4,7-8H2,1H3
InChIKey=FVZARWCWGIYCLO-UHFFFAOYSA-N

> <PUBCHEM_SUBSTANCE_SYNONYM>
SCHEMBL16124945

> <PUBCHEM_XREF_EXT_ID>
SCHEMBL16124945

> <PUBCHEM_EXT_DATASOURCE_URL>
https://www.surechembl.org/

> <PUBCHEM_EXT_SUBSTANCE_URL>
https://www.surechembl.org/chemical/SCHEMBL16124945

> <PUBCHEM_CID_ASSOCIATIONS>
117612681  1

> <PUBCHEM_COORDINATE_TYPE>
1
3

$$$$
