310934661
  -OEChem-07211613022D

 22 24  0     1  0  0  0  0  0999 V2000
    3.3808   -5.5209    0.0000 S   0  0  0  0  0  0  0  0  0  0  0  0
    2.9155   -1.8610    0.0000 O   0  0  0  0  0  0  0  0  0  0  0  0
    1.5198   -3.8150    0.0000 O   0  0  0  0  0  0  0  0  0  0  0  0
    0.0000   -4.4974    0.0000 O   0  0  0  0  0  0  0  0  0  0  0  0
    2.2332   -4.2802    0.0000 N   0  0  0  0  0  0  0  0  0  0  0  0
    2.5433   -2.6054    0.0000 N   0  0  0  0  0  0  0  0  0  0  0  0
    0.6823   -4.9626    0.0000 N   0  0  0  0  0  0  0  0  0  0  0  0
    2.1091   -5.1177    0.0000 C   0  0  3  0  0  0  0  0  0  0  0  0
    1.4268   -4.6214    0.0000 C   0  0  0  0  0  0  0  0  0  0  0  0
    2.8845   -4.8385    0.0000 C   0  0  0  0  0  0  0  0  0  0  0  0
    2.1091   -5.9241    0.0000 C   0  0  0  0  0  0  0  0  0  0  0  0
    3.1326   -3.1637    0.0000 C   0  0  0  0  0  0  0  0  0  0  0  0
    3.7219   -1.9850    0.0000 C   0  0  0  0  0  0  0  0  0  0  0  0
    3.0086   -4.0011    0.0000 C   0  0  0  0  0  0  0  0  0  0  0  0
    3.8770   -2.7914    0.0000 C   0  0  0  0  0  0  0  0  0  0  0  0
    2.8845   -6.2032    0.0000 C   0  0  0  0  0  0  0  0  0  0  0  0
    4.3113   -1.3958    0.0000 C   0  0  0  0  0  0  0  0  0  0  0  0
    4.0941   -0.5893    0.0000 C   0  0  0  0  0  0  0  0  0  0  0  0
    5.0866   -1.5818    0.0000 C   0  0  0  0  0  0  0  0  0  0  0  0
    4.6524    0.0000    0.0000 C   0  0  0  0  0  0  0  0  0  0  0  0
    5.6760   -1.0235    0.0000 C   0  0  0  0  0  0  0  0  0  0  0  0
    5.4589   -0.2171    0.0000 C   0  0  0  0  0  0  0  0  0  0  0  0
  1 10  1  0  0  0  0
  1 16  1  0  0  0  0
  2  6  1  0  0  0  0
  2 13  1  0  0  0  0
  3  9  2  0  0  0  0
  4  7  1  0  0  0  0
  5  8  1  0  0  0  0
  5 14  1  0  0  0  0
  6 12  2  0  0  0  0
  7  9  1  0  0  0  0
  8  9  1  0  0  0  0
  8 10  1  0  0  0  0
  8 11  1  0  0  0  0
 11 16  1  0  0  0  0
 12 14  1  0  0  0  0
 12 15  1  0  0  0  0
 13 15  2  0  0  0  0
 13 17  1  0  0  0  0
 17 18  2  0  0  0  0
 17 19  1  0  0  0  0
 18 20  1  0  0  0  0
 19 21  2  0  0  0  0
 20 22  2  0  0  0  0
 21 22  1  0  0  0  0
M  END
> <PUBCHEM_COMPOUND_ID_TYPE>
0

> <PUBCHEM_TOTAL_CHARGE>
0

> <PUBCHEM_SUBSTANCE_ID>
310934661

> <PUBCHEM_SUBSTANCE_VERSION>
1

> <PUBCHEM_EXT_DATASOURCE_NAME>
4488

> <PUBCHEM_EXT_DATASOURCE_REGID>
SCHEMBL16112160

> <PUBCHEM_SUBSTANCE_COMMENT>
InChI=1S/C15H17N3O3S/c19-14(17-20)15(6-7-22-10-15)16-9-12-8-13(21-18-12)11-4-2-1-3-5-11/h1-5,8,16,20H,6-7,9-10H2,(H,17,19)
InChIKey=LXOKOSKDCGSORK-UHFFFAOYSA-N

> <PUBCHEM_SUBSTANCE_SYNONYM>
SCHEMBL16112160

> <PUBCHEM_XREF_EXT_ID>
SCHEMBL16112160

> <PUBCHEM_EXT_DATASOURCE_URL>
https://www.surechembl.org/

> <PUBCHEM_EXT_SUBSTANCE_URL>
https://www.surechembl.org/chemical/SCHEMBL16112160

> <PUBCHEM_CID_ASSOCIATIONS>
117602827  1

> <PUBCHEM_COORDINATE_TYPE>
1
3

$$$$
