310944898
  -OEChem-07211613022D

 23 26  0     1  0  0  0  0  0999 V2000
   -0.1613   -4.1226    0.0000 O   0  0  0  0  0  0  0  0  0  0  0  0
   -0.3226   -2.6887    0.0000 N   0  0  0  0  0  0  0  0  0  0  0  0
   -1.1471   -2.6707    0.0000 N   0  0  0  0  0  0  0  0  0  0  0  0
   -0.7528   -1.3623    0.0000 C   0  0  0  0  0  0  0  0  0  0  0  0
   -0.7349   -0.5198    0.0000 C   0  0  0  0  0  0  0  0  0  0  0  0
   -0.0717   -1.8642    0.0000 C   0  0  0  0  0  0  0  0  0  0  0  0
    0.1434   -3.3519    0.0000 C   0  0  3  0  0  0  0  0  0  0  0  0
   -1.4160   -1.8821    0.0000 C   0  0  0  0  0  0  0  0  0  0  0  0
   -1.4340   -0.1076    0.0000 C   0  0  0  0  0  0  0  0  0  0  0  0
   -0.0179   -0.1076    0.0000 C   0  0  0  0  0  0  0  0  0  0  0  0
   -0.7349    1.1471    0.0000 C   0  0  0  0  0  0  0  0  0  0  0  0
    0.9141   -3.2623    0.0000 C   0  0  0  0  0  0  0  0  0  0  0  0
   -1.4160    0.7349    0.0000 C   0  0  0  0  0  0  0  0  0  0  0  0
   -0.0179    0.6991    0.0000 C   0  0  0  0  0  0  0  0  0  0  0  0
   -0.6991    1.9717    0.0000 C   0  0  0  0  0  0  0  0  0  0  0  0
    0.3226   -4.7858    0.0000 C   0  0  0  0  0  0  0  0  0  0  0  0
    1.4340   -3.8896    0.0000 C   0  0  0  0  0  0  0  0  0  0  0  0
   -0.6991    3.6387    0.0000 C   0  0  0  0  0  0  0  0  0  0  0  0
    1.1471   -4.6425    0.0000 C   0  0  0  0  0  0  0  0  0  0  0  0
   -0.7349    2.7962    0.0000 C   0  0  0  0  0  0  0  0  0  0  0  0
   -1.2547    4.2123    0.0000 C   0  0  0  0  0  0  0  0  0  0  0  0
   -0.1255    4.2302    0.0000 C   0  0  0  0  0  0  0  0  0  0  0  0
   -0.7169    4.7858    0.0000 C   0  0  0  0  0  0  0  0  0  0  0  0
  1  7  1  0  0  0  0
  1 16  1  0  0  0  0
  2  3  1  0  0  0  0
  2  6  1  0  0  0  0
  2  7  1  0  0  0  0
  3  8  2  0  0  0  0
  4  5  1  0  0  0  0
  4  6  2  0  0  0  0
  4  8  1  0  0  0  0
  5  9  2  0  0  0  0
  5 10  1  0  0  0  0
  7 12  1  0  0  0  0
  9 13  1  0  0  0  0
 10 14  2  0  0  0  0
 11 13  2  0  0  0  0
 11 14  1  0  0  0  0
 11 15  1  0  0  0  0
 12 17  1  0  0  0  0
 15 20  3  0  0  0  0
 16 19  1  0  0  0  0
 17 19  1  0  0  0  0
 18 20  1  0  0  0  0
 18 21  1  0  0  0  0
 18 22  1  0  0  0  0
 21 23  1  0  0  0  0
 22 23  1  0  0  0  0
M  END
> <PUBCHEM_COMPOUND_ID_TYPE>
0

> <PUBCHEM_TOTAL_CHARGE>
0

> <PUBCHEM_SUBSTANCE_ID>
310944898

> <PUBCHEM_SUBSTANCE_VERSION>
1

> <PUBCHEM_EXT_DATASOURCE_NAME>
4488

> <PUBCHEM_EXT_DATASOURCE_REGID>
SCHEMBL16122982

> <PUBCHEM_SUBSTANCE_COMMENT>
InChI=1S/C20H22N2O/c1-2-13-23-20(6-1)22-15-19(14-21-22)18-11-9-17(10-12-18)8-7-16-4-3-5-16/h9-12,14-16,20H,1-6,13H2
InChIKey=JMJZZRYTTFCHJM-UHFFFAOYSA-N

> <PUBCHEM_SUBSTANCE_SYNONYM>
SCHEMBL16122982

> <PUBCHEM_XREF_EXT_ID>
SCHEMBL16122982

> <PUBCHEM_EXT_DATASOURCE_URL>
https://www.surechembl.org/

> <PUBCHEM_EXT_SUBSTANCE_URL>
https://www.surechembl.org/chemical/SCHEMBL16122982

> <PUBCHEM_CID_ASSOCIATIONS>
117611077  1

> <PUBCHEM_COORDINATE_TYPE>
1
3

$$$$
