310945644
  -OEChem-07211613022D

 40 44  0     1  0  0  0  0  0999 V2000
   -6.1745   -0.6778    0.0000 S   0  0  0  0  0  0  0  0  0  0  0  0
    5.3273    0.8049    0.0000 O   0  0  0  0  0  0  0  0  0  0  0  0
    2.4042    0.9744    0.0000 O   0  0  0  0  0  0  0  0  0  0  0  0
   -3.2938   -0.6778    0.0000 O   0  0  0  0  0  0  0  0  0  0  0  0
   -5.5603   -1.2709    0.0000 O   0  0  0  0  0  0  0  0  0  0  0  0
   -6.7253   -1.2709    0.0000 O   0  0  0  0  0  0  0  0  0  0  0  0
    6.9371   -0.8684    0.0000 O   0  0  0  0  0  0  0  0  0  0  0  0
    6.6405   -2.2453    0.0000 O   0  0  0  0  0  0  0  0  0  0  0  0
   -5.4544   -0.2753    0.0000 N   0  0  3  0  0  0  0  0  0  0  0  0
    4.4377   -0.1695    0.0000 C   0  0  0  0  0  0  0  0  0  0  0  0
    4.4800    0.6355    0.0000 C   0  0  0  0  0  0  0  0  0  0  0  0
   -1.2391    0.6355    0.0000 C   0  0  0  0  0  0  0  0  0  0  0  0
    5.2426   -0.4660    0.0000 C   0  0  3  0  0  0  0  0  0  0  0  0
   -0.5402    1.0379    0.0000 C   0  0  0  0  0  0  0  0  0  0  0  0
   -1.9594    1.0379    0.0000 C   0  0  0  0  0  0  0  0  0  0  0  0
   -1.2603   -0.1906    0.0000 C   0  0  0  0  0  0  0  0  0  0  0  0
    3.0396    0.6355    0.0000 C   0  0  0  0  0  0  0  0  0  0  0  0
    3.7598    1.0167    0.0000 C   0  0  0  0  0  0  0  0  0  0  0  0
    3.7386   -0.5931    0.0000 C   0  0  0  0  0  0  0  0  0  0  0  0
    5.7297    0.2330    0.0000 C   0  0  0  0  0  0  0  0  0  0  0  0
   -2.6795   -0.1906    0.0000 C   0  0  0  0  0  0  0  0  0  0  0  0
    3.0608   -0.1906    0.0000 C   0  0  0  0  0  0  0  0  0  0  0  0
   -2.6372    0.6355    0.0000 C   0  0  0  0  0  0  0  0  0  0  0  0
   -1.9381   -0.5931    0.0000 C   0  0  0  0  0  0  0  0  0  0  0  0
    0.2224    0.6566    0.0000 C   0  0  0  0  0  0  0  0  0  0  0  0
    0.8790    1.0379    0.0000 C   0  0  0  0  0  0  0  0  0  0  0  0
    5.4968   -1.2074    0.0000 C   0  0  0  0  0  0  0  0  0  0  0  0
   -0.4977    1.8640    0.0000 C   0  0  0  0  0  0  0  0  0  0  0  0
   -6.9371   -0.1906    0.0000 C   0  0  0  0  0  0  0  0  0  0  0  0
    1.6416    0.6355    0.0000 C   0  0  0  0  0  0  0  0  0  0  0  0
   -5.5179    0.6143    0.0000 C   0  0  0  0  0  0  0  0  0  0  0  0
   -4.7765   -0.5931    0.0000 C   0  0  0  0  0  0  0  0  0  0  0  0
    0.9002    1.8428    0.0000 C   0  0  0  0  0  0  0  0  0  0  0  0
    0.2012    2.2453    0.0000 C   0  0  0  0  0  0  0  0  0  0  0  0
   -6.9160    0.6355    0.0000 C   0  0  0  0  0  0  0  0  0  0  0  0
    6.2805   -1.3769    0.0000 C   0  0  0  0  0  0  0  0  0  0  0  0
   -4.1199   -0.2118    0.0000 C   0  0  0  0  0  0  0  0  0  0  0  0
   -1.9381    1.8640    0.0000 C   0  0  0  0  0  0  0  0  0  0  0  0
   -0.5190   -0.6143    0.0000 C   0  0  0  0  0  0  0  0  0  0  0  0
    6.5982    0.0000    0.0000 C   0  0  0  0  0  0  0  0  0  0  0  0
  1  5  2  0  0  0  0
  1  6  2  0  0  0  0
  1  9  1  0  0  0  0
  1 29  1  0  0  0  0
  2 11  1  0  0  0  0
  2 20  1  0  0  0  0
  3 17  1  0  0  0  0
  3 30  1  0  0  0  0
  4 21  1  0  0  0  0
  4 37  1  0  0  0  0
  7 36  1  0  0  0  0
  7 40  1  0  0  0  0
  8 36  2  0  0  0  0
  9 31  1  0  0  0  0
  9 32  1  0  0  0  0
 10 11  1  0  0  0  0
 10 13  1  0  0  0  0
 10 19  2  0  0  0  0
 11 18  2  0  0  0  0
 12 14  1  0  0  0  0
 12 15  2  0  0  0  0
 12 16  1  0  0  0  0
 13 20  1  0  0  0  0
 13 27  1  0  0  0  0
 14 25  2  0  0  0  0
 14 28  1  0  0  0  0
 15 23  1  0  0  0  0
 15 38  1  0  0  0  0
 16 24  2  0  0  0  0
 16 39  1  0  0  0  0
 17 18  1  0  0  0  0
 17 22  2  0  0  0  0
 19 22  1  0  0  0  0
 21 23  2  0  0  0  0
 21 24  1  0  0  0  0
 25 26  1  0  0  0  0
 26 30  1  0  0  0  0
 26 33  2  0  0  0  0
 27 36  1  0  0  0  0
 28 34  2  0  0  0  0
 29 35  1  0  0  0  0
 31 35  1  0  0  0  0
 32 37  1  0  0  0  0
 33 34  1  0  0  0  0
M  END
> <PUBCHEM_COMPOUND_ID_TYPE>
0

> <PUBCHEM_TOTAL_CHARGE>
0

> <PUBCHEM_SUBSTANCE_ID>
310945644

> <PUBCHEM_SUBSTANCE_VERSION>
1

> <PUBCHEM_EXT_DATASOURCE_NAME>
4488

> <PUBCHEM_EXT_DATASOURCE_REGID>
SCHEMBL16123743

> <PUBCHEM_SUBSTANCE_COMMENT>
InChI=1S/C31H35NO7S/c1-21-14-27(37-12-11-32-10-5-13-40(32,34)35)15-22(2)31(21)24-7-4-6-23(16-24)19-38-26-8-9-28-25(17-30(33)36-3)20-39-29(28)18-26/h4,6-9,14-16,18,25H,5,10-13,17,19-20H2,1-3H3
InChIKey=ILZSGWLLVNSTJO-UHFFFAOYSA-N

> <PUBCHEM_SUBSTANCE_SYNONYM>
SCHEMBL16123743

> <PUBCHEM_XREF_EXT_ID>
SCHEMBL16123743

> <PUBCHEM_EXT_DATASOURCE_URL>
https://www.surechembl.org/

> <PUBCHEM_EXT_SUBSTANCE_URL>
https://www.surechembl.org/chemical/SCHEMBL16123743

> <PUBCHEM_CID_ASSOCIATIONS>
117611653  1

> <PUBCHEM_COORDINATE_TYPE>
1
3

$$$$
