310931673
  -OEChem-07211613022D

 34 37  0     1  0  0  0  0  0999 V2000
    7.0556   -2.0249    0.0000 S   0  0  0  0  0  0  0  0  0  0  0  0
    7.9099   -0.5695    0.0000 S   0  0  0  0  0  0  0  0  0  0  0  0
    6.1698   -0.6012    0.0000 F   0  0  0  0  0  0  0  0  0  0  0  0
    4.5561   -3.4487    0.0000 F   0  0  0  0  0  0  0  0  0  0  0  0
    3.6386   -6.3279    0.0000 F   0  0  0  0  0  0  0  0  0  0  0  0
    3.7019   -2.0249    0.0000 O   0  0  0  0  0  0  0  0  0  0  0  0
    7.0556   -2.9425    0.0000 O   0  0  0  0  0  0  0  0  0  0  0  0
    7.0556   -1.2339    0.0000 O   0  0  0  0  0  0  0  0  0  0  0  0
    0.8226   -1.3289    0.0000 O   0  0  0  0  0  0  0  0  0  0  0  0
    7.8466   -2.0249    0.0000 N   0  0  0  0  0  0  0  0  0  0  0  0
    9.0806   -1.2023    0.0000 N   0  0  0  0  0  0  0  0  0  0  0  0
    8.5111    0.0000    0.0000 N   0  0  0  0  0  0  0  0  0  0  0  0
    6.2330   -2.0249    0.0000 C   0  0  0  0  0  0  0  0  0  0  0  0
    5.7901   -1.3289    0.0000 C   0  0  0  0  0  0  0  0  0  0  0  0
    4.5245   -2.0249    0.0000 C   0  0  0  0  0  0  0  0  0  0  0  0
    5.7901   -2.7526    0.0000 C   0  0  0  0  0  0  0  0  0  0  0  0
    4.9675   -2.7526    0.0000 C   0  0  0  0  0  0  0  0  0  0  0  0
    4.9675   -1.3289    0.0000 C   0  0  0  0  0  0  0  0  0  0  0  0
    8.2579   -1.3289    0.0000 C   0  0  0  0  0  0  0  0  0  0  0  0
    2.4679   -2.7526    0.0000 C   0  0  3  0  0  0  0  0  0  0  0  0
    2.0249   -3.4487    0.0000 C   0  0  3  0  0  0  0  0  0  0  0  0
    3.2905   -2.7526    0.0000 C   0  0  0  0  0  0  0  0  0  0  0  0
    2.4362   -4.1765    0.0000 C   0  0  0  0  0  0  0  0  0  0  0  0
    2.0249   -2.0566    0.0000 C   0  0  0  0  0  0  0  0  0  0  0  0
    1.2339   -3.4487    0.0000 C   0  0  0  0  0  0  0  0  0  0  0  0
    1.2339   -2.0566    0.0000 C   0  0  3  0  0  0  0  0  0  0  0  0
    0.7910   -2.7526    0.0000 C   0  0  0  0  0  0  0  0  0  0  0  0
    3.2589   -4.1765    0.0000 C   0  0  0  0  0  0  0  0  0  0  0  0
    2.0249   -4.8725    0.0000 C   0  0  0  0  0  0  0  0  0  0  0  0
    9.2388   -0.4113    0.0000 C   0  0  0  0  0  0  0  0  0  0  0  0
    3.6702   -4.9042    0.0000 C   0  0  0  0  0  0  0  0  0  0  0  0
    2.4362   -5.6002    0.0000 C   0  0  0  0  0  0  0  0  0  0  0  0
    3.2589   -5.6002    0.0000 C   0  0  0  0  0  0  0  0  0  0  0  0
    0.0000   -1.3289    0.0000 C   0  0  0  0  0  0  0  0  0  0  0  0
  1  7  2  0  0  0  0
  1  8  2  0  0  0  0
  1 10  1  0  0  0  0
  1 13  1  0  0  0  0
  2 12  1  0  0  0  0
  2 19  1  0  0  0  0
  3 14  1  0  0  0  0
  4 17  1  0  0  0  0
  5 33  1  0  0  0  0
  6 15  1  0  0  0  0
  6 22  1  0  0  0  0
  9 26  1  0  0  0  0
  9 34  1  0  0  0  0
 10 19  1  0  0  0  0
 11 19  2  0  0  0  0
 11 30  1  0  0  0  0
 12 30  2  0  0  0  0
 13 14  1  0  0  0  0
 13 16  2  0  0  0  0
 14 18  2  0  0  0  0
 15 17  2  0  0  0  0
 15 18  1  0  0  0  0
 16 17  1  0  0  0  0
 20 21  1  0  0  0  0
 20 22  1  0  0  0  0
 20 24  1  0  0  0  0
 21 23  1  0  0  0  0
 21 25  1  0  0  0  0
 23 28  2  0  0  0  0
 23 29  1  0  0  0  0
 24 26  1  0  0  0  0
 25 27  1  0  0  0  0
 26 27  1  0  0  0  0
 28 31  1  0  0  0  0
 29 32  2  0  0  0  0
 31 33  2  0  0  0  0
 32 33  1  0  0  0  0
M  END
> <PUBCHEM_COMPOUND_ID_TYPE>
0

> <PUBCHEM_TOTAL_CHARGE>
0

> <PUBCHEM_SUBSTANCE_ID>
310931673

> <PUBCHEM_SUBSTANCE_VERSION>
1

> <PUBCHEM_EXT_DATASOURCE_NAME>
4488

> <PUBCHEM_EXT_DATASOURCE_REGID>
SCHEMBL16108999

> <PUBCHEM_SUBSTANCE_COMMENT>
InChI=1S/C22H22F3N3O4S2/c1-31-16-6-7-17(13-2-4-15(23)5-3-13)14(8-16)11-32-20-9-19(25)21(10-18(20)24)34(29,30)28-22-26-12-27-33-22/h2-5,9-10,12,14,16-17H,6-8,11H2,1H3,(H,26,27,28)
InChIKey=QGJIZUNVJNIHRO-UHFFFAOYSA-N

> <PUBCHEM_SUBSTANCE_SYNONYM>
SCHEMBL16108999

> <PUBCHEM_XREF_EXT_ID>
SCHEMBL16108999

> <PUBCHEM_EXT_DATASOURCE_URL>
https://www.surechembl.org/

> <PUBCHEM_EXT_SUBSTANCE_URL>
https://www.surechembl.org/chemical/SCHEMBL16108999

> <PUBCHEM_CID_ASSOCIATIONS>
78110894  1

> <PUBCHEM_COORDINATE_TYPE>
1
3

$$$$
