310940830
  -OEChem-07211613022D

 43 46  0     1  0  0  0  0  0999 V2000
    5.1943   -1.0228    0.0000 O   0  0  0  0  0  0  0  0  0  0  0  0
    4.0547    0.9497    0.0000 O   0  0  0  0  0  0  0  0  0  0  0  0
    1.6730   -1.0082    0.0000 O   0  0  0  0  0  0  0  0  0  0  0  0
    0.2265    1.4904    0.0000 O   0  0  0  0  0  0  0  0  0  0  0  0
   -0.4895    1.0667    0.0000 O   0  0  0  0  0  0  0  0  0  0  0  0
    3.8355    2.7324    0.0000 O   0  0  0  0  0  0  0  0  0  0  0  0
   -2.6520   -1.0082    0.0000 O   0  0  0  0  0  0  0  0  0  0  0  0
   -1.9361   -1.4173    0.0000 O   0  0  0  0  0  0  0  0  0  0  0  0
   -5.5304   -1.0082    0.0000 O   0  0  0  0  0  0  0  0  0  0  0  0
    2.3890    0.2484    0.0000 N   0  0  0  0  0  0  0  0  0  0  0  0
    0.2265   -0.1754    0.0000 N   0  0  0  0  0  0  0  0  0  0  0  0
   -1.9361    0.2484    0.0000 N   0  0  0  0  0  0  0  0  0  0  0  0
   -4.0985   -0.1754    0.0000 N   0  0  0  0  0  0  0  0  0  0  0  0
    4.7853   -0.2777    0.0000 C   0  0  3  0  0  0  0  0  0  0  0  0
    4.0400    0.1169    0.0000 C   0  0  0  0  0  0  0  0  0  0  0  0
    4.3761   -0.9790    0.0000 C   0  0  0  0  0  0  0  0  0  0  0  0
    3.3533   -0.2777    0.0000 C   0  0  3  0  0  0  0  0  0  0  0  0
    5.5304    0.1462    0.0000 C   0  0  0  0  0  0  0  0  0  0  0  0
    1.6876   -0.1315    0.0000 C   0  0  0  0  0  0  0  0  0  0  0  0
    0.9570    0.2630    0.0000 C   0  0  3  0  0  0  0  0  0  0  0  0
    3.3387   -1.3589    0.0000 C   0  0  0  0  0  0  0  0  0  0  0  0
    0.9717    1.0959    0.0000 C   0  0  3  0  0  0  0  0  0  0  0  0
    2.6228   -1.7680    0.0000 C   0  0  0  0  0  0  0  0  0  0  0  0
    1.6876    1.5196    0.0000 C   0  0  0  0  0  0  0  0  0  0  0  0
   -0.4895    0.2484    0.0000 C   0  0  0  0  0  0  0  0  0  0  0  0
   -1.1908   -0.1462    0.0000 C   0  0  3  0  0  0  0  0  0  0  0  0
    2.4036    1.1105    0.0000 C   0  0  0  0  0  0  0  0  0  0  0  0
    1.7023    2.3524    0.0000 C   0  0  0  0  0  0  0  0  0  0  0  0
    1.8630   -1.4465    0.0000 C   0  0  0  0  0  0  0  0  0  0  0  0
    2.5205   -2.5862    0.0000 C   0  0  0  0  0  0  0  0  0  0  0  0
    3.1196    2.3524    0.0000 C   0  0  0  0  0  0  0  0  0  0  0  0
    3.1196    1.5196    0.0000 C   0  0  0  0  0  0  0  0  0  0  0  0
    2.3890    2.7469    0.0000 C   0  0  0  0  0  0  0  0  0  0  0  0
    1.3223   -2.0602    0.0000 C   0  0  0  0  0  0  0  0  0  0  0  0
    1.7168   -2.7469    0.0000 C   0  0  0  0  0  0  0  0  0  0  0  0
   -1.2055   -0.9790    0.0000 C   0  0  0  0  0  0  0  0  0  0  0  0
   -2.6373   -0.1315    0.0000 C   0  0  0  0  0  0  0  0  0  0  0  0
   -3.3826    0.2630    0.0000 C   0  0  0  0  0  0  0  0  0  0  0  0
   -4.0839   -0.9790    0.0000 C   0  0  0  0  0  0  0  0  0  0  0  0
   -4.8145    0.2630    0.0000 C   0  0  0  0  0  0  0  0  0  0  0  0
    4.5807    2.3232    0.0000 C   0  0  0  0  0  0  0  0  0  0  0  0
   -4.7998   -1.3881    0.0000 C   0  0  0  0  0  0  0  0  0  0  0  0
   -5.5159   -0.1462    0.0000 C   0  0  0  0  0  0  0  0  0  0  0  0
  1 14  1  0  0  0  0
  1 16  1  0  0  0  0
  2 15  2  0  0  0  0
  3 19  2  0  0  0  0
  4 22  1  0  0  0  0
  5 25  2  0  0  0  0
  6 31  1  0  0  0  0
  6 41  1  0  0  0  0
  7 37  2  0  0  0  0
  8 36  1  0  0  0  0
  9 42  1  0  0  0  0
  9 43  1  0  0  0  0
 10 17  1  0  0  0  0
 10 19  1  0  0  0  0
 11 20  1  0  0  0  0
 11 25  1  0  0  0  0
 12 26  1  0  0  0  0
 12 37  1  0  0  0  0
 13 38  1  0  0  0  0
 13 39  1  0  0  0  0
 13 40  1  0  0  0  0
 14 15  1  0  0  0  0
 14 16  1  0  0  0  0
 14 18  1  0  0  0  0
 15 17  1  0  0  0  0
 17 21  1  0  0  0  0
 19 20  1  0  0  0  0
 20 22  1  0  0  0  0
 21 23  1  0  0  0  0
 22 24  1  0  0  0  0
 23 29  2  0  0  0  0
 23 30  1  0  0  0  0
 24 27  2  0  0  0  0
 24 28  1  0  0  0  0
 25 26  1  0  0  0  0
 26 36  1  0  0  0  0
 27 32  1  0  0  0  0
 28 33  2  0  0  0  0
 29 34  1  0  0  0  0
 30 35  1  0  0  0  0
 31 32  2  0  0  0  0
 31 33  1  0  0  0  0
 34 35  1  0  0  0  0
 37 38  1  0  0  0  0
 39 42  1  0  0  0  0
 40 43  1  0  0  0  0
M  END
> <PUBCHEM_COMPOUND_ID_TYPE>
0

> <PUBCHEM_TOTAL_CHARGE>
0

> <PUBCHEM_SUBSTANCE_ID>
310940830

> <PUBCHEM_SUBSTANCE_VERSION>
1

> <PUBCHEM_EXT_DATASOURCE_NAME>
4488

> <PUBCHEM_EXT_DATASOURCE_REGID>
SCHEMBL16118789

> <PUBCHEM_SUBSTANCE_COMMENT>
InChI=1S/C30H42N4O9/c1-30(18-43-30)27(38)22(15-19-5-3-4-6-19)32-29(40)25(26(37)20-7-9-21(41-2)10-8-20)33-28(39)23(17-35)31-24(36)16-34-11-13-42-14-12-34/h5,7-10,22-23,25-26,35,37H,3-4,6,11-18H2,1-2H3,(H,31,36)(H,32,40)(H,33,39)
InChIKey=HAQDOFTTYADFFI-UHFFFAOYSA-N

> <PUBCHEM_SUBSTANCE_SYNONYM>
SCHEMBL16118789

> <PUBCHEM_XREF_EXT_ID>
SCHEMBL16118789

> <PUBCHEM_EXT_DATASOURCE_URL>
https://www.surechembl.org/

> <PUBCHEM_EXT_SUBSTANCE_URL>
https://www.surechembl.org/chemical/SCHEMBL16118789

> <PUBCHEM_CID_ASSOCIATIONS>
117607752  1

> <PUBCHEM_COORDINATE_TYPE>
1
3

$$$$
