310935761
  -OEChem-07211613022D

 30 33  0     1  0  0  0  0  0999 V2000
    5.0013    0.4125    0.0000 F   0  0  0  0  0  0  0  0  0  0  0  0
    4.6993   -0.7145    0.0000 F   0  0  0  0  0  0  0  0  0  0  0  0
    3.8743    0.7145    0.0000 F   0  0  0  0  0  0  0  0  0  0  0  0
   -3.6178   -0.2477    0.0000 F   0  0  0  0  0  0  0  0  0  0  0  0
   -0.7438   -4.0631    0.0000 O   0  0  0  0  0  0  0  0  0  0  0  0
   -2.0492   -3.4819    0.0000 O   0  0  0  0  0  0  0  0  0  0  0  0
    2.8579    0.0000    0.0000 N   0  0  0  0  0  0  0  0  0  0  0  0
    2.8579   -1.6500    0.0000 N   0  0  0  0  0  0  0  0  0  0  0  0
   -1.3057   -1.9275    0.0000 C   0  0  3  0  0  0  0  0  0  0  0  0
    0.0000   -1.6500    0.0000 C   0  0  0  0  0  0  0  0  0  0  0  0
   -0.8932   -2.6420    0.0000 C   0  0  3  0  0  0  0  0  0  0  0  0
    0.7145   -1.2375    0.0000 C   0  0  0  0  0  0  0  0  0  0  0  0
    2.1434   -1.2375    0.0000 C   0  0  0  0  0  0  0  0  0  0  0  0
   -2.1262   -1.8413    0.0000 C   0  0  0  0  0  0  0  0  0  0  0  0
    2.1434   -0.4125    0.0000 C   0  0  0  0  0  0  0  0  0  0  0  0
   -0.7537   -1.3144    0.0000 C   0  0  0  0  0  0  0  0  0  0  0  0
   -0.0862   -2.4705    0.0000 C   0  0  0  0  0  0  0  0  0  0  0  0
    1.4289   -1.6500    0.0000 C   0  0  0  0  0  0  0  0  0  0  0  0
    3.5724   -0.4125    0.0000 C   0  0  0  0  0  0  0  0  0  0  0  0
    0.7145   -0.4125    0.0000 C   0  0  0  0  0  0  0  0  0  0  0  0
   -2.4617   -1.0876    0.0000 C   0  0  0  0  0  0  0  0  0  0  0  0
    4.2868    0.0000    0.0000 C   0  0  0  0  0  0  0  0  0  0  0  0
    1.4289    0.0000    0.0000 C   0  0  0  0  0  0  0  0  0  0  0  0
   -1.2288   -3.3957    0.0000 C   0  0  0  0  0  0  0  0  0  0  0  0
    3.5724   -1.2375    0.0000 C   0  0  0  0  0  0  0  0  0  0  0  0
   -2.6111   -2.5087    0.0000 C   0  0  0  0  0  0  0  0  0  0  0  0
   -3.2822   -1.0014    0.0000 C   0  0  0  0  0  0  0  0  0  0  0  0
   -3.4316   -2.4225    0.0000 C   0  0  0  0  0  0  0  0  0  0  0  0
   -3.7671   -1.6688    0.0000 C   0  0  0  0  0  0  0  0  0  0  0  0
   -1.9768   -0.4202    0.0000 C   0  0  0  0  0  0  0  0  0  0  0  0
  1 22  1  0  0  0  0
  2 22  1  0  0  0  0
  3 22  1  0  0  0  0
  4 27  1  0  0  0  0
  5 24  2  0  0  0  0
  6 24  1  0  0  0  0
  7 15  1  0  0  0  0
  7 19  2  0  0  0  0
  8 13  1  0  0  0  0
  8 25  2  0  0  0  0
  9 11  1  0  0  0  0
  9 14  1  0  0  0  0
  9 16  1  0  0  0  0
 10 12  1  0  0  0  0
 10 16  1  0  0  0  0
 10 17  2  0  0  0  0
 11 17  1  0  0  0  0
 11 24  1  0  0  0  0
 12 18  1  0  0  0  0
 12 20  2  0  0  0  0
 13 15  1  0  0  0  0
 13 18  2  0  0  0  0
 14 21  2  0  0  0  0
 14 26  1  0  0  0  0
 15 23  2  0  0  0  0
 19 22  1  0  0  0  0
 19 25  1  0  0  0  0
 20 23  1  0  0  0  0
 21 27  1  0  0  0  0
 21 30  1  0  0  0  0
 26 28  2  0  0  0  0
 27 29  2  0  0  0  0
 28 29  1  0  0  0  0
M  END
> <PUBCHEM_COMPOUND_ID_TYPE>
0

> <PUBCHEM_TOTAL_CHARGE>
0

> <PUBCHEM_SUBSTANCE_ID>
310935761

> <PUBCHEM_SUBSTANCE_VERSION>
1

> <PUBCHEM_EXT_DATASOURCE_NAME>
4488

> <PUBCHEM_EXT_DATASOURCE_REGID>
SCHEMBL16113345

> <PUBCHEM_SUBSTANCE_COMMENT>
InChI=1S/C22H16F4N2O2/c1-11-14(3-2-4-17(11)23)15-7-13(8-16(15)21(29)30)12-5-6-18-19(9-12)27-10-20(28-18)22(24,25)26/h2-6,8-10,15-16H,7H2,1H3,(H,29,30)
InChIKey=KHRXEJHZXRODJL-UHFFFAOYSA-N

> <PUBCHEM_SUBSTANCE_SYNONYM>
SCHEMBL16113345

> <PUBCHEM_XREF_EXT_ID>
SCHEMBL16113345

> <PUBCHEM_EXT_DATASOURCE_URL>
https://www.surechembl.org/

> <PUBCHEM_EXT_SUBSTANCE_URL>
https://www.surechembl.org/chemical/SCHEMBL16113345

> <PUBCHEM_CID_ASSOCIATIONS>
117603762  1

> <PUBCHEM_COORDINATE_TYPE>
1
3

$$$$
