310932116
  -OEChem-07211613022D

 15 16  0     1  0  0  0  0  0999 V2000
   -1.3948    0.3529    0.0000 O   0  0  0  0  0  0  0  0  0  0  0  0
   -2.7297    0.3529    0.0000 O   0  0  0  0  0  0  0  0  0  0  0  0
    0.2077   -1.6260    0.0000 O   0  0  0  0  0  0  0  0  0  0  0  0
   -1.5004   -1.8528    0.0000 O   0  0  0  0  0  0  0  0  0  0  0  0
   -1.6497   -0.4317    0.0000 C   0  0  3  0  0  0  0  0  0  0  0  0
   -2.0622    0.8379    0.0000 C   0  0  0  0  0  0  0  0  0  0  0  0
   -1.1648   -1.0991    0.0000 C   0  0  3  0  0  0  0  0  0  0  0  0
   -0.3443   -1.0129    0.0000 C   0  0  0  0  0  0  0  0  0  0  0  0
   -2.4747   -0.4317    0.0000 C   0  0  0  0  0  0  0  0  0  0  0  0
    0.0682   -0.2984    0.0000 C   0  0  0  0  0  0  0  0  0  0  0  0
    0.9614   -1.2904    0.0000 C   0  0  0  0  0  0  0  0  0  0  0  0
    0.8751   -0.4699    0.0000 C   0  0  0  0  0  0  0  0  0  0  0  0
   -1.6572    1.5566    0.0000 C   0  0  0  0  0  0  0  0  0  0  0  0
   -2.4672    1.5566    0.0000 C   0  0  0  0  0  0  0  0  0  0  0  0
    1.6759   -1.7029    0.0000 C   0  0  0  0  0  0  0  0  0  0  0  0
  1  5  1  0  0  0  0
  1  6  1  0  0  0  0
  2  6  1  0  0  0  0
  2  9  1  0  0  0  0
  3  8  1  0  0  0  0
  3 11  1  0  0  0  0
  4  7  1  0  0  0  0
  5  7  1  0  0  0  0
  5  9  1  0  0  0  0
  6 13  1  0  0  0  0
  6 14  1  0  0  0  0
  7  8  1  0  0  0  0
  8 10  2  0  0  0  0
 10 12  1  0  0  0  0
 11 12  2  0  0  0  0
 11 15  1  0  0  0  0
M  END
> <PUBCHEM_COMPOUND_ID_TYPE>
0

> <PUBCHEM_TOTAL_CHARGE>
0

> <PUBCHEM_SUBSTANCE_ID>
310932116

> <PUBCHEM_SUBSTANCE_VERSION>
1

> <PUBCHEM_EXT_DATASOURCE_NAME>
4488

> <PUBCHEM_EXT_DATASOURCE_REGID>
SCHEMBL16109467

> <PUBCHEM_SUBSTANCE_COMMENT>
InChI=1S/C11H16O4/c1-7-4-5-8(14-7)10(12)9-6-13-11(2,3)15-9/h4-5,9-10,12H,6H2,1-3H3
InChIKey=KJLCXMDTFUVRJA-UHFFFAOYSA-N

> <PUBCHEM_SUBSTANCE_SYNONYM>
SCHEMBL16109467

> <PUBCHEM_XREF_EXT_ID>
SCHEMBL16109467

> <PUBCHEM_EXT_DATASOURCE_URL>
https://www.surechembl.org/

> <PUBCHEM_EXT_SUBSTANCE_URL>
https://www.surechembl.org/chemical/SCHEMBL16109467

> <PUBCHEM_CID_ASSOCIATIONS>
117600732  1

> <PUBCHEM_COORDINATE_TYPE>
1
3

$$$$
