310943718
  -OEChem-07211613022D

 24 26  0     1  0  0  0  0  0999 V2000
    2.3755    1.8351    0.0000 Cl  0  0  0  0  0  0  0  0  0  0  0  0
    3.8009    2.0132    0.0000 O   0  0  0  0  0  0  0  0  0  0  0  0
   -1.9123   -1.5501    0.0000 N   0  0  3  0  0  0  0  0  0  0  0  0
   -3.6939   -1.0036    0.0000 N   0  0  3  0  0  0  0  0  0  0  0  0
    1.6510   -0.2672    0.0000 C   0  0  0  0  0  0  0  0  0  0  0  0
    0.9384   -0.6830    0.0000 C   0  0  0  0  0  0  0  0  0  0  0  0
    2.3637    0.9680    0.0000 C   0  0  0  0  0  0  0  0  0  0  0  0
    1.6629    0.5523    0.0000 C   0  0  0  0  0  0  0  0  0  0  0  0
    3.0882    0.5642    0.0000 C   0  0  0  0  0  0  0  0  0  0  0  0
   -0.4989   -1.5381    0.0000 C   0  0  0  0  0  0  0  0  0  0  0  0
    2.3874   -0.6830    0.0000 C   0  0  0  0  0  0  0  0  0  0  0  0
    0.2138   -0.2910    0.0000 C   0  0  0  0  0  0  0  0  0  0  0  0
    0.9502   -1.5263    0.0000 C   0  0  0  0  0  0  0  0  0  0  0  0
    3.0763   -0.2791    0.0000 C   0  0  0  0  0  0  0  0  0  0  0  0
   -0.4751   -0.7067    0.0000 C   0  0  0  0  0  0  0  0  0  0  0  0
    0.2376   -1.9420    0.0000 C   0  0  0  0  0  0  0  0  0  0  0  0
   -1.1996   -1.9539    0.0000 C   0  0  0  0  0  0  0  0  0  0  0  0
    3.7890    0.9680    0.0000 C   0  0  0  0  0  0  0  0  0  0  0  0
   -2.5893   -2.0132    0.0000 C   0  0  0  0  0  0  0  0  0  0  0  0
   -1.8648   -0.7186    0.0000 C   0  0  0  0  0  0  0  0  0  0  0  0
   -3.3970   -1.7638    0.0000 C   0  0  0  0  0  0  0  0  0  0  0  0
   -2.4587   -0.1604    0.0000 C   0  0  0  0  0  0  0  0  0  0  0  0
   -3.2782   -0.2791    0.0000 C   0  0  0  0  0  0  0  0  0  0  0  0
   -4.5135   -1.0036    0.0000 C   0  0  0  0  0  0  0  0  0  0  0  0
  1  7  1  0  0  0  0
  2 18  2  0  0  0  0
  3 17  1  0  0  0  0
  3 19  1  0  0  0  0
  3 20  1  0  0  0  0
  4 21  1  0  0  0  0
  4 23  1  0  0  0  0
  4 24  1  0  0  0  0
  5  6  1  0  0  0  0
  5  8  1  0  0  0  0
  5 11  2  0  0  0  0
  6 12  2  0  0  0  0
  6 13  1  0  0  0  0
  7  8  2  0  0  0  0
  7  9  1  0  0  0  0
  9 14  2  0  0  0  0
  9 18  1  0  0  0  0
 10 15  2  0  0  0  0
 10 16  1  0  0  0  0
 10 17  1  0  0  0  0
 11 14  1  0  0  0  0
 12 15  1  0  0  0  0
 13 16  2  0  0  0  0
 19 21  1  0  0  0  0
 20 22  1  0  0  0  0
 22 23  1  0  0  0  0
M  END
> <PUBCHEM_COMPOUND_ID_TYPE>
0

> <PUBCHEM_TOTAL_CHARGE>
0

> <PUBCHEM_SUBSTANCE_ID>
310943718

> <PUBCHEM_SUBSTANCE_VERSION>
1

> <PUBCHEM_EXT_DATASOURCE_NAME>
4488

> <PUBCHEM_EXT_DATASOURCE_REGID>
SCHEMBL16121786

> <PUBCHEM_SUBSTANCE_COMMENT>
InChI=1S/C20H23ClN2O/c1-22-9-2-10-23(12-11-22)14-16-3-5-17(6-4-16)18-7-8-19(15-24)20(21)13-18/h3-8,13,15H,2,9-12,14H2,1H3
InChIKey=GJOGAQBDQCGDAS-UHFFFAOYSA-N

> <PUBCHEM_SUBSTANCE_SYNONYM>
SCHEMBL16121786

> <PUBCHEM_XREF_EXT_ID>
SCHEMBL16121786

> <PUBCHEM_EXT_DATASOURCE_URL>
https://www.surechembl.org/

> <PUBCHEM_EXT_SUBSTANCE_URL>
https://www.surechembl.org/chemical/SCHEMBL16121786

> <PUBCHEM_CID_ASSOCIATIONS>
86300897  1

> <PUBCHEM_COORDINATE_TYPE>
1
3

$$$$
