310942630
  -OEChem-07211613022D

 28 30  0     1  0  0  0  0  0999 V2000
    0.7130    1.5632    0.0000 S   0  0  0  0  0  0  0  0  0  0  0  0
   -3.6179   -0.0841    0.0000 S   0  0  3  0  0  0  0  0  0  0  0  0
    0.2967    2.2717    0.0000 O   0  0  0  0  0  0  0  0  0  0  0  0
    1.1292    2.2717    0.0000 O   0  0  0  0  0  0  0  0  0  0  0  0
    3.6002   -0.0841    0.0000 O   0  0  0  0  0  0  0  0  0  0  0  0
   -3.6179   -0.9078    0.0000 O   0  0  0  0  0  0  0  0  0  0  0  0
   -2.1743   -0.0841    0.0000 N   0  0  0  0  0  0  0  0  0  0  0  0
   -0.7307   -0.0841    0.0000 N   0  0  0  0  0  0  0  0  0  0  0  0
   -2.8916    1.1469    0.0000 N   0  0  0  0  0  0  0  0  0  0  0  0
   -1.4392    1.1469    0.0000 C   0  0  0  0  0  0  0  0  0  0  0  0
   -1.4480    0.3321    0.0000 C   0  0  0  0  0  0  0  0  0  0  0  0
    1.4480    1.1469    0.0000 C   0  0  0  0  0  0  0  0  0  0  0  0
   -0.0133    1.1558    0.0000 C   0  0  0  0  0  0  0  0  0  0  0  0
   -2.8916    0.3321    0.0000 C   0  0  0  0  0  0  0  0  0  0  0  0
   -0.7307    1.5632    0.0000 C   0  0  0  0  0  0  0  0  0  0  0  0
   -2.1743    1.5632    0.0000 C   0  0  0  0  0  0  0  0  0  0  0  0
    1.4480    0.3321    0.0000 C   0  0  0  0  0  0  0  0  0  0  0  0
    2.1566    1.5544    0.0000 C   0  0  0  0  0  0  0  0  0  0  0  0
   -0.7395   -0.9963    0.0000 C   0  0  0  0  0  0  0  0  0  0  0  0
    2.8828    0.3321    0.0000 C   0  0  0  0  0  0  0  0  0  0  0  0
    2.1654   -0.0841    0.0000 C   0  0  0  0  0  0  0  0  0  0  0  0
    2.8828    1.1469    0.0000 C   0  0  0  0  0  0  0  0  0  0  0  0
   -1.3861   -1.4923    0.0000 C   0  0  0  0  0  0  0  0  0  0  0  0
   -0.0575   -1.5012    0.0000 C   0  0  0  0  0  0  0  0  0  0  0  0
   -1.1027   -2.2717    0.0000 C   0  0  0  0  0  0  0  0  0  0  0  0
   -0.2878   -2.2717    0.0000 C   0  0  0  0  0  0  0  0  0  0  0  0
   -4.3441    0.3144    0.0000 C   0  0  0  0  0  0  0  0  0  0  0  0
    4.3441    0.3321    0.0000 C   0  0  0  0  0  0  0  0  0  0  0  0
  1  3  2  0  0  0  0
  1  4  2  0  0  0  0
  1 12  1  0  0  0  0
  1 13  1  0  0  0  0
  2  6  2  0  0  0  0
  2 14  1  0  0  0  0
  2 27  1  0  0  0  0
  5 20  1  0  0  0  0
  5 28  1  0  0  0  0
  7 11  2  0  0  0  0
  7 14  1  0  0  0  0
  8 11  1  0  0  0  0
  8 19  1  0  0  0  0
  9 14  2  0  0  0  0
  9 16  1  0  0  0  0
 10 11  1  0  0  0  0
 10 15  1  0  0  0  0
 10 16  2  0  0  0  0
 12 17  2  0  0  0  0
 12 18  1  0  0  0  0
 13 15  2  0  0  0  0
 17 21  1  0  0  0  0
 18 22  2  0  0  0  0
 19 23  1  0  0  0  0
 19 24  1  0  0  0  0
 20 21  2  0  0  0  0
 20 22  1  0  0  0  0
 23 25  1  0  0  0  0
 24 26  1  0  0  0  0
 25 26  1  0  0  0  0
M  END
> <PUBCHEM_COMPOUND_ID_TYPE>
0

> <PUBCHEM_TOTAL_CHARGE>
0

> <PUBCHEM_SUBSTANCE_ID>
310942630

> <PUBCHEM_SUBSTANCE_VERSION>
1

> <PUBCHEM_EXT_DATASOURCE_NAME>
4488

> <PUBCHEM_EXT_DATASOURCE_REGID>
SCHEMBL16120676

> <PUBCHEM_SUBSTANCE_COMMENT>
InChI=1S/C19H23N3O4S2/c1-26-16-7-9-17(10-8-16)28(24,25)12-11-14-13-20-19(27(2)23)22-18(14)21-15-5-3-4-6-15/h7-13,15H,3-6H2,1-2H3,(H,20,21,22)/b12-11+
InChIKey=FDESXRFIYDFDIF-VAWYXSNFSA-N

> <PUBCHEM_SUBSTANCE_SYNONYM>
SCHEMBL16120676

> <PUBCHEM_XREF_EXT_ID>
SCHEMBL16120676

> <PUBCHEM_EXT_DATASOURCE_URL>
https://www.surechembl.org/

> <PUBCHEM_EXT_SUBSTANCE_URL>
https://www.surechembl.org/chemical/SCHEMBL16120676

> <PUBCHEM_CID_ASSOCIATIONS>
117609162  1

> <PUBCHEM_COORDINATE_TYPE>
1
3

$$$$
