310931881
  -OEChem-07211613022D

 31 33  0     1  0  0  0  0  0999 V2000
    0.3079   -2.0186    0.0000 F   0  0  0  0  0  0  0  0  0  0  0  0
    0.3079   -3.4555    0.0000 F   0  0  0  0  0  0  0  0  0  0  0  0
    1.1291   -2.0186    0.0000 F   0  0  0  0  0  0  0  0  0  0  0  0
    4.2082   -1.4369    0.0000 O   0  0  0  0  0  0  0  0  0  0  0  0
    0.7185   -5.2004    0.0000 O   0  0  0  0  0  0  0  0  0  0  0  0
    3.5239   -5.2004    0.0000 O   0  0  0  0  0  0  0  0  0  0  0  0
    4.9609   -1.9159    0.0000 O   0  0  0  0  0  0  0  0  0  0  0  0
    5.6794   -3.1476    0.0000 O   0  0  0  0  0  0  0  0  0  0  0  0
    2.9081   -1.4369    0.0000 N   0  0  0  0  0  0  0  0  0  0  0  0
    3.1476   -0.6843    0.0000 N   0  0  0  0  0  0  0  0  0  0  0  0
    2.1212   -4.3793    0.0000 C   0  0  0  0  0  0  0  0  0  0  0  0
    2.8397   -3.1476    0.0000 C   0  0  0  0  0  0  0  0  0  0  0  0
    2.1212   -5.2004    0.0000 C   0  0  0  0  0  0  0  0  0  0  0  0
    1.4027   -3.1476    0.0000 C   0  0  0  0  0  0  0  0  0  0  0  0
    3.5582   -2.7371    0.0000 C   0  0  3  0  0  0  0  0  0  0  0  0
    2.8397   -3.9687    0.0000 C   0  0  0  0  0  0  0  0  0  0  0  0
    1.4027   -3.9687    0.0000 C   0  0  0  0  0  0  0  0  0  0  0  0
    2.1212   -2.7371    0.0000 C   0  0  0  0  0  0  0  0  0  0  0  0
    0.7185   -2.7371    0.0000 C   0  0  0  0  0  0  0  0  0  0  0  0
    3.5582   -1.9159    0.0000 C   0  0  0  0  0  0  0  0  0  0  0  0
    1.4027   -5.6109    0.0000 C   0  0  0  0  0  0  0  0  0  0  0  0
    2.8397   -5.6109    0.0000 C   0  0  0  0  0  0  0  0  0  0  0  0
    4.2424   -3.1476    0.0000 C   0  0  0  0  0  0  0  0  0  0  0  0
    1.4027   -6.4321    0.0000 C   0  0  0  0  0  0  0  0  0  0  0  0
    2.8397   -6.4321    0.0000 C   0  0  0  0  0  0  0  0  0  0  0  0
    3.9687   -0.6500    0.0000 C   0  0  0  0  0  0  0  0  0  0  0  0
    2.1212   -6.8426    0.0000 C   0  0  0  0  0  0  0  0  0  0  0  0
    4.9609   -2.7371    0.0000 C   0  0  0  0  0  0  0  0  0  0  0  0
    4.4477    0.0000    0.0000 C   0  0  0  0  0  0  0  0  0  0  0  0
    0.0000   -5.6109    0.0000 C   0  0  0  0  0  0  0  0  0  0  0  0
    3.5239   -4.3793    0.0000 C   0  0  0  0  0  0  0  0  0  0  0  0
  1 19  1  0  0  0  0
  2 19  1  0  0  0  0
  3 19  1  0  0  0  0
  4 20  1  0  0  0  0
  4 26  1  0  0  0  0
  5 21  1  0  0  0  0
  5 30  1  0  0  0  0
  6 22  1  0  0  0  0
  6 31  1  0  0  0  0
  7 28  2  0  0  0  0
  8 28  1  0  0  0  0
  9 10  1  0  0  0  0
  9 20  2  0  0  0  0
 10 26  2  0  0  0  0
 11 13  1  0  0  0  0
 11 16  2  0  0  0  0
 11 17  1  0  0  0  0
 12 15  1  0  0  0  0
 12 16  1  0  0  0  0
 12 18  2  0  0  0  0
 13 21  2  0  0  0  0
 13 22  1  0  0  0  0
 14 17  2  0  0  0  0
 14 18  1  0  0  0  0
 14 19  1  0  0  0  0
 15 20  1  0  0  0  0
 15 23  1  0  0  0  0
 21 24  1  0  0  0  0
 22 25  2  0  0  0  0
 23 28  1  0  0  0  0
 24 27  2  0  0  0  0
 25 27  1  0  0  0  0
 26 29  1  0  0  0  0
M  END
> <PUBCHEM_COMPOUND_ID_TYPE>
0

> <PUBCHEM_TOTAL_CHARGE>
0

> <PUBCHEM_SUBSTANCE_ID>
310931881

> <PUBCHEM_SUBSTANCE_VERSION>
1

> <PUBCHEM_EXT_DATASOURCE_NAME>
4488

> <PUBCHEM_EXT_DATASOURCE_REGID>
SCHEMBL16109216

> <PUBCHEM_SUBSTANCE_COMMENT>
InChI=1S/C21H19F3N2O5/c1-11-25-26-20(31-11)15(10-18(27)28)12-7-13(9-14(8-12)21(22,23)24)19-16(29-2)5-4-6-17(19)30-3/h4-9,15H,10H2,1-3H3,(H,27,28)
InChIKey=UOBWXOMMEIGGEB-UHFFFAOYSA-N

> <PUBCHEM_SUBSTANCE_SYNONYM>
SCHEMBL16109216

> <PUBCHEM_XREF_EXT_ID>
SCHEMBL16109216

> <PUBCHEM_EXT_DATASOURCE_URL>
https://www.surechembl.org/

> <PUBCHEM_EXT_SUBSTANCE_URL>
https://www.surechembl.org/chemical/SCHEMBL16109216

> <PUBCHEM_CID_ASSOCIATIONS>
78426487  1

> <PUBCHEM_COORDINATE_TYPE>
1
3

$$$$
