310938416
  -OEChem-07211613022D

 17 18  0     1  0  0  0  0  0999 V2000
    4.0428   -1.4160    0.0000 Br  0  0  0  0  0  0  0  0  0  0  0  0
    0.7593    0.0000    0.0000 O   0  0  0  0  0  0  0  0  0  0  0  0
    1.4366   -2.7500    0.0000 N   0  0  3  0  0  0  0  0  0  0  0  0
    1.5802   -1.4366    0.0000 C   0  0  0  0  0  0  0  0  0  0  0  0
    0.7799   -1.6007    0.0000 C   0  0  0  0  0  0  0  0  0  0  0  0
    1.9906   -2.1343    0.0000 C   0  0  0  0  0  0  0  0  0  0  0  0
    1.9906   -0.7183    0.0000 C   0  0  0  0  0  0  0  0  0  0  0  0
    0.6977   -2.4216    0.0000 C   0  0  0  0  0  0  0  0  0  0  0  0
    2.8115   -2.1548    0.0000 C   0  0  0  0  0  0  0  0  0  0  0  0
    3.2219   -1.4366    0.0000 C   0  0  0  0  0  0  0  0  0  0  0  0
    2.8115   -0.7183    0.0000 C   0  0  0  0  0  0  0  0  0  0  0  0
    1.6007   -3.5503    0.0000 C   0  0  0  0  0  0  0  0  0  0  0  0
    0.1642   -1.0466    0.0000 C   0  0  0  0  0  0  0  0  0  0  0  0
    0.0000   -1.8880    0.0000 C   0  0  0  0  0  0  0  0  0  0  0  0
    1.5802    0.0000    0.0000 C   0  0  0  0  0  0  0  0  0  0  0  0
    2.3806   -3.8171    0.0000 C   0  0  0  0  0  0  0  0  0  0  0  0
    1.0056   -4.1044    0.0000 C   0  0  0  0  0  0  0  0  0  0  0  0
  1 10  1  0  0  0  0
  2 15  1  0  0  0  0
  3  6  1  0  0  0  0
  3  8  1  0  0  0  0
  3 12  1  0  0  0  0
  4  5  1  0  0  0  0
  4  6  2  0  0  0  0
  4  7  1  0  0  0  0
  5  8  1  0  0  0  0
  5 13  1  0  0  0  0
  5 14  1  0  0  0  0
  6  9  1  0  0  0  0
  7 11  2  0  0  0  0
  7 15  1  0  0  0  0
  9 10  2  0  0  0  0
 10 11  1  0  0  0  0
 12 16  1  0  0  0  0
 12 17  1  0  0  0  0
M  END
> <PUBCHEM_COMPOUND_ID_TYPE>
0

> <PUBCHEM_TOTAL_CHARGE>
0

> <PUBCHEM_SUBSTANCE_ID>
310938416

> <PUBCHEM_SUBSTANCE_VERSION>
1

> <PUBCHEM_EXT_DATASOURCE_NAME>
4488

> <PUBCHEM_EXT_DATASOURCE_REGID>
SCHEMBL16116309

> <PUBCHEM_SUBSTANCE_COMMENT>
InChI=1S/C14H20BrNO/c1-9(2)16-8-14(3,4)13-10(7-17)5-11(15)6-12(13)16/h5-6,9,17H,7-8H2,1-4H3
InChIKey=SSTIGTMDKWOJFB-UHFFFAOYSA-N

> <PUBCHEM_SUBSTANCE_SYNONYM>
SCHEMBL16116309

> <PUBCHEM_XREF_EXT_ID>
SCHEMBL16116309

> <PUBCHEM_EXT_DATASOURCE_URL>
https://www.surechembl.org/

> <PUBCHEM_EXT_SUBSTANCE_URL>
https://www.surechembl.org/chemical/SCHEMBL16116309

> <PUBCHEM_CID_ASSOCIATIONS>
117605889  1

> <PUBCHEM_COORDINATE_TYPE>
1
3

$$$$
