310932183
  -OEChem-07211613022D

 24 27  0     1  0  0  0  0  0999 V2000
    0.7013   -1.2375    0.0000 O   0  0  0  0  0  0  0  0  0  0  0  0
    5.1975   -2.6400    0.0000 O   0  0  0  0  0  0  0  0  0  0  0  0
    0.0000    0.0000    0.0000 O   0  0  0  0  0  0  0  0  0  0  0  0
    1.4438    0.0000    0.0000 N   0  0  0  0  0  0  0  0  0  0  0  0
    5.6100   -1.9181    0.0000 N   0  0  0  0  0  0  0  0  0  0  0  0
    2.1450   -1.2375    0.0000 C   0  0  0  0  0  0  0  0  0  0  0  0
    1.4438   -1.6500    0.0000 C   0  0  3  0  0  0  0  0  0  0  0  0
    3.5681   -1.2375    0.0000 C   0  0  0  0  0  0  0  0  0  0  0  0
    2.1450   -0.4125    0.0000 C   0  0  0  0  0  0  0  0  0  0  0  0
    4.2900   -1.6500    0.0000 C   0  0  0  0  0  0  0  0  0  0  0  0
    2.8463   -1.6500    0.0000 C   0  0  0  0  0  0  0  0  0  0  0  0
    1.4438   -2.4750    0.0000 C   0  0  0  0  0  0  0  0  0  0  0  0
    4.3931   -2.4750    0.0000 C   0  0  0  0  0  0  0  0  0  0  0  0
    5.0325   -1.3200    0.0000 C   0  0  0  0  0  0  0  0  0  0  0  0
    3.5681   -0.4125    0.0000 C   0  0  0  0  0  0  0  0  0  0  0  0
    2.8463    0.0000    0.0000 C   0  0  0  0  0  0  0  0  0  0  0  0
    0.7013   -0.4125    0.0000 C   0  0  0  0  0  0  0  0  0  0  0  0
    2.1450   -2.8875    0.0000 C   0  0  0  0  0  0  0  0  0  0  0  0
    0.7219   -2.8875    0.0000 C   0  0  0  0  0  0  0  0  0  0  0  0
    3.7950   -3.0319    0.0000 C   0  0  0  0  0  0  0  0  0  0  0  0
    5.2181   -0.5156    0.0000 C   0  0  0  0  0  0  0  0  0  0  0  0
    2.1450   -3.7125    0.0000 C   0  0  0  0  0  0  0  0  0  0  0  0
    0.7219   -3.7125    0.0000 C   0  0  0  0  0  0  0  0  0  0  0  0
    1.4438   -4.1250    0.0000 C   0  0  0  0  0  0  0  0  0  0  0  0
  1  7  1  0  0  0  0
  1 17  1  0  0  0  0
  2  5  1  0  0  0  0
  2 13  1  0  0  0  0
  3 17  2  0  0  0  0
  4  9  1  0  0  0  0
  4 17  1  0  0  0  0
  5 14  2  0  0  0  0
  6  7  1  0  0  0  0
  6  9  2  0  0  0  0
  6 11  1  0  0  0  0
  7 12  1  0  0  0  0
  8 10  1  0  0  0  0
  8 11  2  0  0  0  0
  8 15  1  0  0  0  0
  9 16  1  0  0  0  0
 10 13  2  0  0  0  0
 10 14  1  0  0  0  0
 12 18  2  0  0  0  0
 12 19  1  0  0  0  0
 13 20  1  0  0  0  0
 14 21  1  0  0  0  0
 15 16  2  0  0  0  0
 18 22  1  0  0  0  0
 19 23  2  0  0  0  0
 22 24  2  0  0  0  0
 23 24  1  0  0  0  0
M  END
> <PUBCHEM_COMPOUND_ID_TYPE>
0

> <PUBCHEM_TOTAL_CHARGE>
0

> <PUBCHEM_SUBSTANCE_ID>
310932183

> <PUBCHEM_SUBSTANCE_VERSION>
1

> <PUBCHEM_EXT_DATASOURCE_NAME>
4488

> <PUBCHEM_EXT_DATASOURCE_REGID>
SCHEMBL16109538

> <PUBCHEM_SUBSTANCE_COMMENT>
InChI=1S/C19H16N2O3/c1-11-17(12(2)24-21-11)14-8-9-16-15(10-14)18(23-19(22)20-16)13-6-4-3-5-7-13/h3-10,18H,1-2H3,(H,20,22)
InChIKey=VPKJERBTBMEWNP-UHFFFAOYSA-N

> <PUBCHEM_SUBSTANCE_SYNONYM>
SCHEMBL16109538

> <PUBCHEM_XREF_EXT_ID>
SCHEMBL16109538

> <PUBCHEM_EXT_DATASOURCE_URL>
https://www.surechembl.org/

> <PUBCHEM_EXT_SUBSTANCE_URL>
https://www.surechembl.org/chemical/SCHEMBL16109538

> <PUBCHEM_CID_ASSOCIATIONS>
86273350  1

> <PUBCHEM_COORDINATE_TYPE>
1
3

$$$$
