310929553
  -OEChem-07211613022D

 25 25  0     1  0  0  0  0  0999 V2000
   -0.1915   -0.3020    0.0000 S   0  0  0  0  0  0  0  0  0  0  0  0
    3.4915   -0.7697    0.0000 F   0  0  0  0  0  0  0  0  0  0  0  0
    4.2060   -1.1823    0.0000 F   0  0  0  0  0  0  0  0  0  0  0  0
    3.4915    0.0553    0.0000 F   0  0  0  0  0  0  0  0  0  0  0  0
    0.2210   -1.0165    0.0000 O   0  0  0  0  0  0  0  0  0  0  0  0
   -0.6040    0.4125    0.0000 O   0  0  0  0  0  0  0  0  0  0  0  0
   -1.6204    0.5231    0.0000 O   0  0  0  0  0  0  0  0  0  0  0  0
    1.9520    0.1106    0.0000 O   0  0  0  0  0  0  0  0  0  0  0  0
    4.9205    0.8803    0.0000 O   0  0  0  0  0  0  0  0  0  0  0  0
    5.6350   -0.3572    0.0000 O   0  0  0  0  0  0  0  0  0  0  0  0
   -0.9059   -0.7145    0.0000 N   0  0  0  0  0  0  0  0  0  0  0  0
   -1.6204   -1.1270    0.0000 N   0  0  0  0  0  0  0  0  0  0  0  0
    0.5231    0.1106    0.0000 C   0  0  0  0  0  0  0  0  0  0  0  0
   -2.3349   -0.7145    0.0000 C   0  0  3  0  0  0  0  0  0  0  0  0
   -3.0494   -0.3020    0.0000 C   0  0  3  0  0  0  0  0  0  0  0  0
    0.1106    0.8250    0.0000 C   0  0  0  0  0  0  0  0  0  0  0  0
    0.9356    0.8250    0.0000 C   0  0  0  0  0  0  0  0  0  0  0  0
   -1.6204   -0.3020    0.0000 C   0  0  0  0  0  0  0  0  0  0  0  0
   -3.0494   -1.1270    0.0000 C   0  0  0  0  0  0  0  0  0  0  0  0
    1.2375   -0.3020    0.0000 C   0  0  0  0  0  0  0  0  0  0  0  0
   -3.4619    0.4125    0.0000 C   0  0  0  0  0  0  0  0  0  0  0  0
   -4.2869    0.4125    0.0000 C   0  0  0  0  0  0  0  0  0  0  0  0
    2.6665   -0.3020    0.0000 C   0  0  0  0  0  0  0  0  0  0  0  0
    4.2060   -0.3572    0.0000 C   0  0  0  0  0  0  0  0  0  0  0  0
    4.9205    0.0553    0.0000 C   0  0  0  0  0  0  0  0  0  0  0  0
  1  5  2  0  0  0  0
  1  6  2  0  0  0  0
  1 11  1  0  0  0  0
  1 13  1  0  0  0  0
  2 24  1  0  0  0  0
  3 24  1  0  0  0  0
  4 24  1  0  0  0  0
  7 18  2  0  0  0  0
  8 20  1  0  0  0  0
  8 23  1  0  0  0  0
  9 25  2  0  0  0  0
 10 25  1  0  0  0  0
 11 18  1  0  0  0  0
 14 12  1  6  0  0  0
 13 16  1  0  0  0  0
 13 17  1  0  0  0  0
 13 20  1  0  0  0  0
 14 15  1  0  0  0  0
 14 18  1  1  0  0  0
 14 19  1  0  0  0  0
 15 19  1  0  0  0  0
 15 21  1  1  0  0  0
 16 17  1  0  0  0  0
 21 22  2  0  0  0  0
 24 25  1  0  0  0  0
M  END
> <PUBCHEM_COMPOUND_ID_TYPE>
0

> <PUBCHEM_TOTAL_CHARGE>
0

> <PUBCHEM_SUBSTANCE_ID>
310929553

> <PUBCHEM_SUBSTANCE_VERSION>
1

> <PUBCHEM_EXT_DATASOURCE_NAME>
4488

> <PUBCHEM_EXT_DATASOURCE_REGID>
SCHEMBL16106734

> <PUBCHEM_SUBSTANCE_COMMENT>
InChI=1S/C11H18N2O4S.C2HF3O2/c1-3-8-6-11(8,12)9(14)13-18(15,16)10(4-5-10)7-17-2;3-2(4,5)1(6)7/h3,8H,1,4-7,12H2,2H3,(H,13,14);(H,6,7)/t8-,11-;/m1./s1
InChIKey=OQUTWWHNOSNHAN-JHQAJZDGSA-N

> <PUBCHEM_SUBSTANCE_SYNONYM>
SCHEMBL16106734

> <PUBCHEM_XREF_EXT_ID>
SCHEMBL16106734

> <PUBCHEM_EXT_DATASOURCE_URL>
https://www.surechembl.org/

> <PUBCHEM_EXT_SUBSTANCE_URL>
https://www.surechembl.org/chemical/SCHEMBL16106734

> <PUBCHEM_CID_ASSOCIATIONS>
117598869  1
6422  2
89983304  2

> <PUBCHEM_COORDINATE_TYPE>
1
3

> <PUBCHEM_BONDANNOTATIONS>
14  12  6
14  18  5
15  21  5

$$$$
