310933003
  -OEChem-07211613022D

 35 39  0     1  0  0  0  0  0999 V2000
    7.4853   -1.4670    0.0000 O   0  0  0  0  0  0  0  0  0  0  0  0
    3.4229   -3.1973    0.0000 O   0  0  0  0  0  0  0  0  0  0  0  0
    7.1467   -2.8963    0.0000 N   0  0  0  0  0  0  0  0  0  0  0  0
    7.5229   -3.5734    0.0000 N   0  0  0  0  0  0  0  0  0  0  0  0
    5.8679   -3.4229    0.0000 N   0  0  0  0  0  0  0  0  0  0  0  0
    3.5734   -1.7679    0.0000 N   0  0  0  0  0  0  0  0  0  0  0  0
    1.5798   -0.8652    0.0000 N   0  0  0  0  0  0  0  0  0  0  0  0
   11.2844   -0.1504    0.0000 N   0  0  0  0  0  0  0  0  0  0  0  0
    8.4257   -2.5954    0.0000 C   0  0  0  0  0  0  0  0  0  0  0  0
    7.6733   -2.2569    0.0000 C   0  0  0  0  0  0  0  0  0  0  0  0
    9.1403   -2.1817    0.0000 C   0  0  0  0  0  0  0  0  0  0  0  0
    6.3192   -2.7835    0.0000 C   0  0  0  0  0  0  0  0  0  0  0  0
    8.3505   -3.4229    0.0000 C   0  0  0  0  0  0  0  0  0  0  0  0
    9.1403   -1.3541    0.0000 C   0  0  0  0  0  0  0  0  0  0  0  0
    4.7018   -2.6330    0.0000 C   0  0  0  0  0  0  0  0  0  0  0  0
    3.8743   -2.5201    0.0000 C   0  0  0  0  0  0  0  0  0  0  0  0
    6.0183   -2.0312    0.0000 C   0  0  0  0  0  0  0  0  0  0  0  0
    9.8550   -2.5954    0.0000 C   0  0  0  0  0  0  0  0  0  0  0  0
    5.0404   -3.3853    0.0000 C   0  0  0  0  0  0  0  0  0  0  0  0
    5.1908   -1.9559    0.0000 C   0  0  0  0  0  0  0  0  0  0  0  0
    9.8550   -0.9780    0.0000 C   0  0  0  0  0  0  0  0  0  0  0  0
   10.5697   -1.3541    0.0000 C   0  0  0  0  0  0  0  0  0  0  0  0
    2.4073   -0.9404    0.0000 C   0  0  3  0  0  0  0  0  0  0  0  0
    2.7459   -1.6927    0.0000 C   0  0  0  0  0  0  0  0  0  0  0  0
   10.5697   -2.1817    0.0000 C   0  0  0  0  0  0  0  0  0  0  0  0
    4.0624   -1.1284    0.0000 C   0  0  0  0  0  0  0  0  0  0  0  0
    2.8963   -0.3009    0.0000 C   0  0  0  0  0  0  0  0  0  0  0  0
    8.4257   -0.9780    0.0000 C   0  0  0  0  0  0  0  0  0  0  0  0
    3.7238   -0.3762    0.0000 C   0  0  0  0  0  0  0  0  0  0  0  0
   11.2844   -0.9780    0.0000 C   0  0  0  0  0  0  0  0  0  0  0  0
    1.1284   -1.5046    0.0000 C   0  0  0  0  0  0  0  0  0  0  0  0
    1.2789   -0.1128    0.0000 C   0  0  0  0  0  0  0  0  0  0  0  0
    0.3009   -1.4293    0.0000 C   0  0  0  0  0  0  0  0  0  0  0  0
    0.4890    0.0000    0.0000 C   0  0  0  0  0  0  0  0  0  0  0  0
    0.0000   -0.6771    0.0000 C   0  0  0  0  0  0  0  0  0  0  0  0
  1 10  1  0  0  0  0
  2 16  2  0  0  0  0
  3  4  1  0  0  0  0
  3 10  1  0  0  0  0
  3 12  1  0  0  0  0
  4 13  2  0  0  0  0
  5 12  1  0  0  0  0
  5 19  2  0  0  0  0
  6 16  1  0  0  0  0
  6 24  1  0  0  0  0
  6 26  1  0  0  0  0
  7 23  1  0  0  0  0
  7 31  1  0  0  0  0
  7 32  1  0  0  0  0
  8 30  3  0  0  0  0
  9 10  2  0  0  0  0
  9 11  1  0  0  0  0
  9 13  1  0  0  0  0
 11 14  2  0  0  0  0
 11 18  1  0  0  0  0
 12 17  2  0  0  0  0
 14 21  1  0  0  0  0
 14 28  1  0  0  0  0
 15 16  1  0  0  0  0
 15 19  1  0  0  0  0
 15 20  2  0  0  0  0
 17 20  1  0  0  0  0
 18 25  2  0  0  0  0
 21 22  2  0  0  0  0
 22 25  1  0  0  0  0
 22 30  1  0  0  0  0
 23 24  1  0  0  0  0
 23 27  1  0  0  0  0
 26 29  1  0  0  0  0
 27 29  1  0  0  0  0
 31 33  1  0  0  0  0
 32 34  1  0  0  0  0
 33 35  1  0  0  0  0
 34 35  1  0  0  0  0
M  END
> <PUBCHEM_COMPOUND_ID_TYPE>
0

> <PUBCHEM_TOTAL_CHARGE>
0

> <PUBCHEM_SUBSTANCE_ID>
310933003

> <PUBCHEM_SUBSTANCE_VERSION>
1

> <PUBCHEM_EXT_DATASOURCE_NAME>
4488

> <PUBCHEM_EXT_DATASOURCE_REGID>
SCHEMBL16110402

> <PUBCHEM_SUBSTANCE_COMMENT>
InChI=1S/C27H30N6O2/c1-19-14-20(15-28)7-9-23(19)24-17-30-33(27(24)35)25-10-8-21(16-29-25)26(34)32-13-5-6-22(18-32)31-11-3-2-4-12-31/h7-10,14,16-17,22,35H,2-6,11-13,18H2,1H3
InChIKey=DOSRDDDRQXAIRI-UHFFFAOYSA-N

> <PUBCHEM_SUBSTANCE_SYNONYM>
SCHEMBL16110402

> <PUBCHEM_XREF_EXT_ID>
SCHEMBL16110402

> <PUBCHEM_EXT_DATASOURCE_URL>
https://www.surechembl.org/

> <PUBCHEM_EXT_SUBSTANCE_URL>
https://www.surechembl.org/chemical/SCHEMBL16110402

> <PUBCHEM_CID_ASSOCIATIONS>
117601474  1

> <PUBCHEM_COORDINATE_TYPE>
1
3

$$$$
