310933663
  -OEChem-07211613022D

 44 49  0     1  0  0  0  0  0999 V2000
    0.0000   -1.2196    0.0000 Cl  0  0  0  0  0  0  0  0  0  0  0  0
    5.7390   -1.2554    0.0000 O   0  0  0  0  0  0  0  0  0  0  0  0
    6.4564   -1.6858    0.0000 O   0  0  0  0  0  0  0  0  0  0  0  0
   10.0432   -0.4304    0.0000 O   0  0  0  0  0  0  0  0  0  0  0  0
   10.7606   -1.6858    0.0000 O   0  0  0  0  0  0  0  0  0  0  0  0
    5.0216   -2.4749    0.0000 N   0  0  0  0  0  0  0  0  0  0  0  0
    4.3042   -5.3803    0.0000 N   0  0  0  0  0  0  0  0  0  0  0  0
    7.1737   -2.9054    0.0000 N   0  0  0  0  0  0  0  0  0  0  0  0
    3.5869    0.0000    0.0000 N   0  0  0  0  0  0  0  0  0  0  0  0
    2.8336   -6.1694    0.0000 N   0  0  0  0  0  0  0  0  0  0  0  0
    5.7390   -2.9054    0.0000 C   0  0  3  0  0  0  0  0  0  0  0  0
    5.7390   -3.7303    0.0000 C   0  0  0  0  0  0  0  0  0  0  0  0
    5.0216   -4.1608    0.0000 C   0  0  0  0  0  0  0  0  0  0  0  0
    4.9858   -4.9499    0.0000 C   0  0  0  0  0  0  0  0  0  0  0  0
    5.0216   -1.6858    0.0000 C   0  0  0  0  0  0  0  0  0  0  0  0
    6.4564   -2.5108    0.0000 C   0  0  0  0  0  0  0  0  0  0  0  0
    4.3042   -3.7303    0.0000 C   0  0  0  0  0  0  0  0  0  0  0  0
    4.3042   -2.9054    0.0000 C   0  0  0  0  0  0  0  0  0  0  0  0
    6.4564   -4.1608    0.0000 C   0  0  0  0  0  0  0  0  0  0  0  0
    4.3042   -1.2554    0.0000 C   0  0  0  0  0  0  0  0  0  0  0  0
    5.7390   -5.3803    0.0000 C   0  0  0  0  0  0  0  0  0  0  0  0
    6.4564   -4.9858    0.0000 C   0  0  0  0  0  0  0  0  0  0  0  0
    3.5869   -1.6499    0.0000 C   0  0  0  0  0  0  0  0  0  0  0  0
    2.8695   -1.2196    0.0000 C   0  0  0  0  0  0  0  0  0  0  0  0
    3.5869   -4.9499    0.0000 C   0  0  0  0  0  0  0  0  0  0  0  0
    4.2684   -6.2053    0.0000 C   0  0  0  0  0  0  0  0  0  0  0  0
    4.3042   -0.4304    0.0000 C   0  0  0  0  0  0  0  0  0  0  0  0
    7.8911   -2.5108    0.0000 C   0  0  0  0  0  0  0  0  0  0  0  0
    2.1522   -1.6499    0.0000 C   0  0  0  0  0  0  0  0  0  0  0  0
    2.8695   -0.3946    0.0000 C   0  0  0  0  0  0  0  0  0  0  0  0
    3.5510   -6.5999    0.0000 C   0  0  0  0  0  0  0  0  0  0  0  0
    2.8336   -5.3444    0.0000 C   0  0  0  0  0  0  0  0  0  0  0  0
    7.8911   -1.6858    0.0000 C   0  0  0  0  0  0  0  0  0  0  0  0
    8.6085   -2.9054    0.0000 C   0  0  0  0  0  0  0  0  0  0  0  0
    1.4347   -1.2196    0.0000 C   0  0  0  0  0  0  0  0  0  0  0  0
    2.1522   -2.4749    0.0000 C   0  0  0  0  0  0  0  0  0  0  0  0
    9.3259   -1.6858    0.0000 C   0  0  0  0  0  0  0  0  0  0  0  0
    8.6085   -1.2554    0.0000 C   0  0  0  0  0  0  0  0  0  0  0  0
    9.3259   -2.5108    0.0000 C   0  0  0  0  0  0  0  0  0  0  0  0
    0.7174   -1.6499    0.0000 C   0  0  0  0  0  0  0  0  0  0  0  0
    1.4347   -2.9054    0.0000 C   0  0  0  0  0  0  0  0  0  0  0  0
    0.7174   -2.4749    0.0000 C   0  0  0  0  0  0  0  0  0  0  0  0
   10.0432   -1.2554    0.0000 C   0  0  0  0  0  0  0  0  0  0  0  0
    2.1163   -6.5999    0.0000 C   0  0  0  0  0  0  0  0  0  0  0  0
  1 40  1  0  0  0  0
  2 15  2  0  0  0  0
  3 16  2  0  0  0  0
  4 43  2  0  0  0  0
  5 43  1  0  0  0  0
  6 11  1  0  0  0  0
  6 15  1  0  0  0  0
  6 18  1  0  0  0  0
  7 14  1  0  0  0  0
  7 25  1  0  0  0  0
  7 26  1  0  0  0  0
  8 16  1  0  0  0  0
  8 28  1  0  0  0  0
  9 27  1  0  0  0  0
  9 30  2  0  0  0  0
 10 31  1  0  0  0  0
 10 32  1  0  0  0  0
 10 44  1  0  0  0  0
 11 12  1  0  0  0  0
 11 16  1  0  0  0  0
 12 13  2  0  0  0  0
 12 19  1  0  0  0  0
 13 14  1  0  0  0  0
 13 17  1  0  0  0  0
 14 21  2  0  0  0  0
 15 20  1  0  0  0  0
 17 18  1  0  0  0  0
 19 22  2  0  0  0  0
 20 23  1  0  0  0  0
 20 27  2  0  0  0  0
 21 22  1  0  0  0  0
 23 24  2  0  0  0  0
 24 29  1  0  0  0  0
 24 30  1  0  0  0  0
 25 32  1  0  0  0  0
 26 31  1  0  0  0  0
 28 33  2  0  0  0  0
 28 34  1  0  0  0  0
 29 35  1  0  0  0  0
 29 36  2  0  0  0  0
 33 38  1  0  0  0  0
 34 39  2  0  0  0  0
 35 40  2  0  0  0  0
 36 41  1  0  0  0  0
 37 38  2  0  0  0  0
 37 39  1  0  0  0  0
 37 43  1  0  0  0  0
 40 42  1  0  0  0  0
 41 42  2  0  0  0  0
M  END
> <PUBCHEM_COMPOUND_ID_TYPE>
0

> <PUBCHEM_TOTAL_CHARGE>
0

> <PUBCHEM_SUBSTANCE_ID>
310933663

> <PUBCHEM_SUBSTANCE_VERSION>
1

> <PUBCHEM_EXT_DATASOURCE_NAME>
4488

> <PUBCHEM_EXT_DATASOURCE_REGID>
SCHEMBL16111096

> <PUBCHEM_SUBSTANCE_COMMENT>
InChI=1S/C34H32ClN5O4/c1-38-14-16-39(17-15-38)30-7-3-6-29-28(30)12-13-40(31(29)32(41)37-27-10-8-22(9-11-27)34(43)44)33(42)25-18-24(20-36-21-25)23-4-2-5-26(35)19-23/h2-11,18-21,31H,12-17H2,1H3,(H,37,41)(H,43,44)
InChIKey=HPPADHZZFREPQU-UHFFFAOYSA-N

> <PUBCHEM_SUBSTANCE_SYNONYM>
SCHEMBL16111096

> <PUBCHEM_XREF_EXT_ID>
SCHEMBL16111096

> <PUBCHEM_EXT_DATASOURCE_URL>
https://www.surechembl.org/

> <PUBCHEM_EXT_SUBSTANCE_URL>
https://www.surechembl.org/chemical/SCHEMBL16111096

> <PUBCHEM_CID_ASSOCIATIONS>
117602034  1

> <PUBCHEM_COORDINATE_TYPE>
1
3

$$$$
