310944121
  -OEChem-07211613022D

 15 17  0     1  0  0  0  0  0999 V2000
    2.4623    0.7043    0.0000 O   0  0  0  0  0  0  0  0  0  0  0  0
   -1.1424   -0.5268    0.0000 N   0  0  0  0  0  0  0  0  0  0  0  0
    0.2994    1.1147    0.0000 N   0  0  0  0  0  0  0  0  0  0  0  0
   -1.9077   -0.1941    0.0000 N   0  0  0  0  0  0  0  0  0  0  0  0
   -2.4623   -0.8041    0.0000 N   0  0  0  0  0  0  0  0  0  0  0  0
   -2.0408   -1.5140    0.0000 N   0  0  0  0  0  0  0  0  0  0  0  0
    1.0204    0.7043    0.0000 C   0  0  0  0  0  0  0  0  0  0  0  0
    1.7303    1.1036    0.0000 C   0  0  3  0  0  0  0  0  0  0  0  0
   -0.4326   -0.1165    0.0000 C   0  0  0  0  0  0  0  0  0  0  0  0
    1.0093   -0.1165    0.0000 C   0  0  0  0  0  0  0  0  0  0  0  0
    0.3106   -0.5268    0.0000 C   0  0  0  0  0  0  0  0  0  0  0  0
    2.4513    1.5140    0.0000 C   0  0  0  0  0  0  0  0  0  0  0  0
   -0.4214    0.7043    0.0000 C   0  0  0  0  0  0  0  0  0  0  0  0
   -1.2312   -1.3476    0.0000 C   0  0  0  0  0  0  0  0  0  0  0  0
    1.7525   -0.5379    0.0000 C   0  0  0  0  0  0  0  0  0  0  0  0
  8  1  1  1  0  0  0
  1 12  1  0  0  0  0
  2  4  1  0  0  0  0
  2  9  1  0  0  0  0
  2 14  1  0  0  0  0
  3  7  2  0  0  0  0
  3 13  1  0  0  0  0
  4  5  2  0  0  0  0
  5  6  1  0  0  0  0
  6 14  2  0  0  0  0
  7  8  1  0  0  0  0
  7 10  1  0  0  0  0
  8 12  1  0  0  0  0
  9 11  1  0  0  0  0
  9 13  2  0  0  0  0
 10 11  2  0  0  0  0
 10 15  1  0  0  0  0
M  END
> <PUBCHEM_COMPOUND_ID_TYPE>
0

> <PUBCHEM_TOTAL_CHARGE>
0

> <PUBCHEM_SUBSTANCE_ID>
310944121

> <PUBCHEM_SUBSTANCE_VERSION>
1

> <PUBCHEM_EXT_DATASOURCE_NAME>
4488

> <PUBCHEM_EXT_DATASOURCE_REGID>
SCHEMBL16122196

> <PUBCHEM_SUBSTANCE_COMMENT>
InChI=1S/C9H9N5O/c1-6-2-7(14-5-11-12-13-14)3-10-9(6)8-4-15-8/h2-3,5,8H,4H2,1H3/t8-/m1/s1
InChIKey=FFHRKUNWMJJWPD-MRVPVSSYSA-N

> <PUBCHEM_SUBSTANCE_SYNONYM>
SCHEMBL16122196

> <PUBCHEM_XREF_EXT_ID>
SCHEMBL16122196

> <PUBCHEM_EXT_DATASOURCE_URL>
https://www.surechembl.org/

> <PUBCHEM_EXT_SUBSTANCE_URL>
https://www.surechembl.org/chemical/SCHEMBL16122196

> <PUBCHEM_CID_ASSOCIATIONS>
117610403  1

> <PUBCHEM_COORDINATE_TYPE>
1
3

> <PUBCHEM_BONDANNOTATIONS>
8  1  5

$$$$
