310937291
  -OEChem-07211613022D

 16 17  0     1  0  0  0  0  0999 V2000
    4.6376   -3.6133    0.0000 O   0  0  0  0  0  0  0  0  0  0  0  0
    4.6376   -2.1791    0.0000 O   0  0  0  0  0  0  0  0  0  0  0  0
    0.7078    0.0000    0.0000 O   0  0  0  0  0  0  0  0  0  0  0  0
    2.9427   -2.2350    0.0000 N   0  0  0  0  0  0  0  0  0  0  0  0
    1.4341   -1.2292    0.0000 N   0  0  0  0  0  0  0  0  0  0  0  0
    2.1419   -2.4957    0.0000 C   0  0  0  0  0  0  0  0  0  0  0  0
    2.1419   -3.3152    0.0000 C   0  0  0  0  0  0  0  0  0  0  0  0
    3.4084   -2.8869    0.0000 C   0  0  3  0  0  0  0  0  0  0  0  0
    1.4341   -2.0674    0.0000 C   0  0  0  0  0  0  0  0  0  0  0  0
    2.9427   -3.5574    0.0000 C   0  0  0  0  0  0  0  0  0  0  0  0
    1.4341   -3.7250    0.0000 C   0  0  0  0  0  0  0  0  0  0  0  0
    4.2465   -2.8869    0.0000 C   0  0  0  0  0  0  0  0  0  0  0  0
    0.7078   -2.4957    0.0000 C   0  0  0  0  0  0  0  0  0  0  0  0
    0.7078   -3.3152    0.0000 C   0  0  0  0  0  0  0  0  0  0  0  0
    0.7078   -0.8195    0.0000 C   0  0  0  0  0  0  0  0  0  0  0  0
    0.0000   -1.2292    0.0000 C   0  0  0  0  0  0  0  0  0  0  0  0
  1 12  2  0  0  0  0
  2 12  1  0  0  0  0
  3 15  2  0  0  0  0
  4  6  1  0  0  0  0
  4  8  1  0  0  0  0
  5  9  1  0  0  0  0
  5 15  1  0  0  0  0
  6  7  2  0  0  0  0
  6  9  1  0  0  0  0
  7 10  1  0  0  0  0
  7 11  1  0  0  0  0
  8 10  1  0  0  0  0
  8 12  1  0  0  0  0
  9 13  2  0  0  0  0
 11 14  2  0  0  0  0
 13 14  1  0  0  0  0
 15 16  1  0  0  0  0
M  END
> <PUBCHEM_COMPOUND_ID_TYPE>
0

> <PUBCHEM_TOTAL_CHARGE>
0

> <PUBCHEM_SUBSTANCE_ID>
310937291

> <PUBCHEM_SUBSTANCE_VERSION>
1

> <PUBCHEM_EXT_DATASOURCE_NAME>
4488

> <PUBCHEM_EXT_DATASOURCE_REGID>
SCHEMBL16115036

> <PUBCHEM_SUBSTANCE_COMMENT>
InChI=1S/C11H12N2O3/c1-6(14)12-8-4-2-3-7-5-9(11(15)16)13-10(7)8/h2-4,9,13H,5H2,1H3,(H,12,14)(H,15,16)
InChIKey=MMCIFNOMRPNRSQ-UHFFFAOYSA-N

> <PUBCHEM_SUBSTANCE_SYNONYM>
SCHEMBL16115036

> <PUBCHEM_XREF_EXT_ID>
SCHEMBL16115036

> <PUBCHEM_EXT_DATASOURCE_URL>
https://www.surechembl.org/

> <PUBCHEM_EXT_SUBSTANCE_URL>
https://www.surechembl.org/chemical/SCHEMBL16115036

> <PUBCHEM_CID_ASSOCIATIONS>
117605076  1

> <PUBCHEM_COORDINATE_TYPE>
1
3

$$$$
