310945899
  -OEChem-07211613022D

 44 48  0     1  0  0  0  0  0999 V2000
   -3.8878    0.1562    0.0000 S   0  0  0  0  0  0  0  0  0  0  0  0
    6.1049   -1.0149    0.0000 O   0  0  0  0  0  0  0  0  0  0  0  0
    4.9808    0.9524    0.0000 O   0  0  0  0  0  0  0  0  0  0  0  0
    2.6075   -0.9992    0.0000 O   0  0  0  0  0  0  0  0  0  0  0  0
    0.4528    1.0773    0.0000 O   0  0  0  0  0  0  0  0  0  0  0  0
   -1.7019   -0.9992    0.0000 O   0  0  0  0  0  0  0  0  0  0  0  0
    4.7622    2.7324    0.0000 O   0  0  0  0  0  0  0  0  0  0  0  0
    3.3257    0.2342    0.0000 N   0  0  0  0  0  0  0  0  0  0  0  0
   -5.2774   -0.3591    0.0000 N   0  0  0  0  0  0  0  0  0  0  0  0
    1.1710   -0.1718    0.0000 N   0  0  0  0  0  0  0  0  0  0  0  0
   -4.0284   -1.1710    0.0000 N   0  0  0  0  0  0  0  0  0  0  0  0
   -0.9837    0.2342    0.0000 N   0  0  0  0  0  0  0  0  0  0  0  0
    5.6990   -0.2810    0.0000 C   0  0  3  0  0  0  0  0  0  0  0  0
    4.9652    0.1249    0.0000 C   0  0  0  0  0  0  0  0  0  0  0  0
    5.2930   -0.9837    0.0000 C   0  0  0  0  0  0  0  0  0  0  0  0
    4.2625   -0.2654    0.0000 C   0  0  3  0  0  0  0  0  0  0  0  0
    6.4172    0.1405    0.0000 C   0  0  0  0  0  0  0  0  0  0  0  0
    4.2470   -1.3584    0.0000 C   0  0  0  0  0  0  0  0  0  0  0  0
    2.6075   -0.1249    0.0000 C   0  0  0  0  0  0  0  0  0  0  0  0
    1.8736    0.2654    0.0000 C   0  0  3  0  0  0  0  0  0  0  0  0
    3.5443   -1.7644    0.0000 C   0  0  0  0  0  0  0  0  0  0  0  0
   -4.4343   -0.4372    0.0000 C   0  0  0  0  0  0  0  0  0  0  0  0
   -3.1227   -0.1405    0.0000 C   0  0  0  0  0  0  0  0  0  0  0  0
    1.9205    1.1086    0.0000 C   0  0  0  0  0  0  0  0  0  0  0  0
    0.4528    0.2498    0.0000 C   0  0  0  0  0  0  0  0  0  0  0  0
    2.7793   -1.4364    0.0000 C   0  0  0  0  0  0  0  0  0  0  0  0
    3.4506   -2.5763    0.0000 C   0  0  0  0  0  0  0  0  0  0  0  0
   -3.2164   -0.9837    0.0000 C   0  0  0  0  0  0  0  0  0  0  0  0
    2.6075    1.5145    0.0000 C   0  0  0  0  0  0  0  0  0  0  0  0
   -5.8083    0.2967    0.0000 C   0  0  0  0  0  0  0  0  0  0  0  0
   -5.9020   -0.8587    0.0000 C   0  0  0  0  0  0  0  0  0  0  0  0
   -0.2498   -0.1405    0.0000 C   0  0  3  0  0  0  0  0  0  0  0  0
   -2.4045    0.2654    0.0000 C   0  0  0  0  0  0  0  0  0  0  0  0
   -1.6863   -0.1249    0.0000 C   0  0  0  0  0  0  0  0  0  0  0  0
   -6.4172   -0.2342    0.0000 C   0  0  0  0  0  0  0  0  0  0  0  0
    2.2484   -2.0610    0.0000 C   0  0  0  0  0  0  0  0  0  0  0  0
    2.6543   -2.7480    0.0000 C   0  0  0  0  0  0  0  0  0  0  0  0
    3.3257    1.1086    0.0000 C   0  0  0  0  0  0  0  0  0  0  0  0
    2.6387    2.3577    0.0000 C   0  0  0  0  0  0  0  0  0  0  0  0
    4.0595    2.3421    0.0000 C   0  0  0  0  0  0  0  0  0  0  0  0
    4.0439    1.5145    0.0000 C   0  0  0  0  0  0  0  0  0  0  0  0
    3.3101    2.7480    0.0000 C   0  0  0  0  0  0  0  0  0  0  0  0
   -0.2342   -0.9837    0.0000 C   0  0  0  0  0  0  0  0  0  0  0  0
    5.4960    2.3264    0.0000 C   0  0  0  0  0  0  0  0  0  0  0  0
  1 22  1  0  0  0  0
  1 23  1  0  0  0  0
  2 13  1  0  0  0  0
  2 15  1  0  0  0  0
  3 14  2  0  0  0  0
  4 19  2  0  0  0  0
  5 25  2  0  0  0  0
  6 34  2  0  0  0  0
  7 40  1  0  0  0  0
  7 44  1  0  0  0  0
  8 16  1  0  0  0  0
  8 19  1  0  0  0  0
  9 22  1  0  0  0  0
  9 30  1  0  0  0  0
  9 31  1  0  0  0  0
 10 20  1  0  0  0  0
 10 25  1  0  0  0  0
 11 22  2  0  0  0  0
 11 28  1  0  0  0  0
 12 32  1  0  0  0  0
 12 34  1  0  0  0  0
 13 14  1  0  0  0  0
 13 15  1  0  0  0  0
 13 17  1  0  0  0  0
 14 16  1  0  0  0  0
 16 18  1  0  0  0  0
 18 21  1  0  0  0  0
 19 20  1  0  0  0  0
 20 24  1  0  0  0  0
 21 26  2  0  0  0  0
 21 27  1  0  0  0  0
 23 28  2  0  0  0  0
 23 33  1  0  0  0  0
 24 29  1  0  0  0  0
 25 32  1  0  0  0  0
 26 36  1  0  0  0  0
 27 37  1  0  0  0  0
 29 38  2  0  0  0  0
 29 39  1  0  0  0  0
 30 35  1  0  0  0  0
 31 35  1  0  0  0  0
 32 43  1  0  0  0  0
 33 34  1  0  0  0  0
 36 37  1  0  0  0  0
 38 41  1  0  0  0  0
 39 42  2  0  0  0  0
 40 41  2  0  0  0  0
 40 42  1  0  0  0  0
M  END
> <PUBCHEM_COMPOUND_ID_TYPE>
0

> <PUBCHEM_TOTAL_CHARGE>
0

> <PUBCHEM_SUBSTANCE_ID>
310945899

> <PUBCHEM_SUBSTANCE_VERSION>
1

> <PUBCHEM_EXT_DATASOURCE_NAME>
4488

> <PUBCHEM_EXT_DATASOURCE_REGID>
SCHEMBL16124004

> <PUBCHEM_SUBSTANCE_COMMENT>
InChI=1S/C32H41N5O6S/c1-20(34-27(38)17-24-18-33-31(44-24)37-13-6-14-37)29(40)36-26(16-22-9-11-23(42-3)12-10-22)30(41)35-25(15-21-7-4-5-8-21)28(39)32(2)19-43-32/h7,9-12,18,20,25-26H,4-6,8,13-17,19H2,1-3H3,(H,34,38)(H,35,41)(H,36,40)
InChIKey=JZDOCSUIRSGTGS-UHFFFAOYSA-N

> <PUBCHEM_SUBSTANCE_SYNONYM>
SCHEMBL16124004

> <PUBCHEM_XREF_EXT_ID>
SCHEMBL16124004

> <PUBCHEM_EXT_DATASOURCE_URL>
https://www.surechembl.org/

> <PUBCHEM_EXT_SUBSTANCE_URL>
https://www.surechembl.org/chemical/SCHEMBL16124004

> <PUBCHEM_CID_ASSOCIATIONS>
117611883  1

> <PUBCHEM_COORDINATE_TYPE>
1
3

$$$$
