310946263
  -OEChem-07211613022D

 27 29  0     1  0  0  0  0  0999 V2000
    3.4725   -4.3094    0.0000 S   0  0  0  0  0  0  0  0  0  0  0  0
    2.6475   -4.3094    0.0000 O   0  0  0  0  0  0  0  0  0  0  0  0
   -0.2104   -4.3094    0.0000 O   0  0  0  0  0  0  0  0  0  0  0  0
   -0.2104   -1.0094    0.0000 O   0  0  0  0  0  0  0  0  0  0  0  0
    3.8850   -5.0238    0.0000 O   0  0  0  0  0  0  0  0  0  0  0  0
    3.8850   -3.5949    0.0000 O   0  0  0  0  0  0  0  0  0  0  0  0
    4.2975   -4.3094    0.0000 O   0  0  0  0  0  0  0  0  0  0  0  0
   -1.6393   -1.8344    0.0000 O   0  0  0  0  0  0  0  0  0  0  0  0
    0.5041   -3.0719    0.0000 N   0  0  0  0  0  0  0  0  0  0  0  0
    1.9330   -3.8969    0.0000 N   0  0  0  0  0  0  0  0  0  0  0  0
   -0.9249   -2.2469    0.0000 N   0  0  0  0  0  0  0  0  0  0  0  0
   -3.6516   -2.4177    0.0000 N   0  0  0  0  0  0  0  0  0  0  0  0
    0.5041   -3.8969    0.0000 C   0  0  0  0  0  0  0  0  0  0  0  0
    1.9330   -3.0719    0.0000 C   0  0  3  0  0  0  0  0  0  0  0  0
    0.5041   -2.2469    0.0000 C   0  0  3  0  0  0  0  0  0  0  0  0
    1.2185   -3.4844    0.0000 C   0  0  0  0  0  0  0  0  0  0  0  0
    1.9330   -2.2469    0.0000 C   0  0  0  0  0  0  0  0  0  0  0  0
    1.2185   -1.8344    0.0000 C   0  0  0  0  0  0  0  0  0  0  0  0
   -0.2104   -1.8344    0.0000 C   0  0  0  0  0  0  0  0  0  0  0  0
   -2.3538   -2.2469    0.0000 C   0  0  0  0  0  0  0  0  0  0  0  0
   -3.0683   -1.8344    0.0000 C   0  0  3  0  0  0  0  0  0  0  0  0
   -3.2818   -1.0375    0.0000 C   0  0  0  0  0  0  0  0  0  0  0  0
   -2.6984   -0.4541    0.0000 C   0  0  0  0  0  0  0  0  0  0  0  0
   -4.0787   -0.8240    0.0000 C   0  0  0  0  0  0  0  0  0  0  0  0
   -2.9120    0.3428    0.0000 C   0  0  0  0  0  0  0  0  0  0  0  0
   -4.2922   -0.0271    0.0000 C   0  0  0  0  0  0  0  0  0  0  0  0
   -3.7089    0.5563    0.0000 C   0  0  0  0  0  0  0  0  0  0  0  0
  1  2  1  0  0  0  0
  1  5  2  0  0  0  0
  1  6  2  0  0  0  0
  1  7  1  0  0  0  0
  2 10  1  0  0  0  0
  3 13  2  0  0  0  0
  4 19  2  0  0  0  0
  8 11  1  0  0  0  0
  8 20  1  0  0  0  0
  9 13  1  0  0  0  0
  9 15  1  0  0  0  0
  9 16  1  0  0  0  0
 10 13  1  0  0  0  0
 10 14  1  0  0  0  0
 11 19  1  0  0  0  0
 12 21  1  0  0  0  0
 14 16  1  6  0  0  0
 14 17  1  0  0  0  0
 15 18  1  0  0  0  0
 15 19  1  6  0  0  0
 17 18  1  0  0  0  0
 20 21  1  0  0  0  0
 21 22  1  0  0  0  0
 22 23  2  0  0  0  0
 22 24  1  0  0  0  0
 23 25  1  0  0  0  0
 24 26  2  0  0  0  0
 25 27  2  0  0  0  0
 26 27  1  0  0  0  0
M  END
> <PUBCHEM_COMPOUND_ID_TYPE>
0

> <PUBCHEM_TOTAL_CHARGE>
0

> <PUBCHEM_SUBSTANCE_ID>
310946263

> <PUBCHEM_SUBSTANCE_VERSION>
1

> <PUBCHEM_EXT_DATASOURCE_NAME>
4488

> <PUBCHEM_EXT_DATASOURCE_REGID>
SCHEMBL16124381

> <PUBCHEM_SUBSTANCE_COMMENT>
InChI=1S/C15H20N4O7S/c16-12(10-4-2-1-3-5-10)9-25-17-14(20)13-7-6-11-8-18(13)15(21)19(11)26-27(22,23)24/h1-5,11-13H,6-9,16H2,(H,17,20)(H,22,23,24)/t11-,12?,13+/m1/s1
InChIKey=PWMJHRBIDFGFPH-YPHAAILGSA-N

> <PUBCHEM_SUBSTANCE_SYNONYM>
SCHEMBL16124381

> <PUBCHEM_XREF_EXT_ID>
SCHEMBL16124381

> <PUBCHEM_EXT_DATASOURCE_URL>
https://www.surechembl.org/

> <PUBCHEM_EXT_SUBSTANCE_URL>
https://www.surechembl.org/chemical/SCHEMBL16124381

> <PUBCHEM_CID_ASSOCIATIONS>
117612211  1

> <PUBCHEM_COORDINATE_TYPE>
1
3

> <PUBCHEM_BONDANNOTATIONS>
14  16  6
15  19  6

$$$$
