310942345
  -OEChem-07211613022D

 20 21  0     1  0  0  0  0  0999 V2000
   -1.6173   -0.9676    0.0000 O   0  0  0  0  0  0  0  0  0  0  0  0
    1.7694    1.0782    0.0000 O   0  0  0  0  0  0  0  0  0  0  0  0
   -0.8294   -2.1702    0.0000 O   0  0  0  0  0  0  0  0  0  0  0  0
    1.1197   -0.5253    0.0000 N   0  0  0  0  0  0  0  0  0  0  0  0
    1.9352   -0.6497    0.0000 N   0  0  0  0  0  0  0  0  0  0  0  0
    0.6635    0.1521    0.0000 C   0  0  0  0  0  0  0  0  0  0  0  0
   -0.1797   -0.8847    0.0000 C   0  0  0  0  0  0  0  0  0  0  0  0
    0.5944   -1.1750    0.0000 C   0  0  0  0  0  0  0  0  0  0  0  0
   -0.1244   -0.0553    0.0000 C   0  0  0  0  0  0  0  0  0  0  0  0
    0.9400    0.9400    0.0000 C   0  0  0  0  0  0  0  0  0  0  0  0
   -0.8709   -1.3131    0.0000 C   0  0  0  0  0  0  0  0  0  0  0  0
    0.8985   -1.9490    0.0000 C   0  0  0  0  0  0  0  0  0  0  0  0
    0.4147    1.6034    0.0000 C   0  0  3  0  0  0  0  0  0  0  0  0
   -0.8156    0.4700    0.0000 C   0  0  0  0  0  0  0  0  0  0  0  0
    2.2393   -1.4376    0.0000 C   0  0  0  0  0  0  0  0  0  0  0  0
    1.7141   -2.0735    0.0000 C   0  0  0  0  0  0  0  0  0  0  0  0
   -0.3179    1.8937    0.0000 C   0  0  0  0  0  0  0  0  0  0  0  0
    0.3456    2.1702    0.0000 C   0  0  0  0  0  0  0  0  0  0  0  0
   -2.2393   -1.4376    0.0000 C   0  0  0  0  0  0  0  0  0  0  0  0
    0.0138    2.1702    0.0000 C   0  0  0  0  0  0  0  0  0  0  0  0
  1 11  1  0  0  0  0
  1 19  1  0  0  0  0
  2 10  2  0  0  0  0
  3 11  2  0  0  0  0
  4  5  1  0  0  0  0
  4  6  1  0  0  0  0
  4  8  1  0  0  0  0
  5 15  2  0  0  0  0
  6  9  2  0  0  0  0
  6 10  1  0  0  0  0
  7  8  2  0  0  0  0
  7  9  1  0  0  0  0
  7 11  1  0  0  0  0
  8 12  1  0  0  0  0
  9 14  1  0  0  0  0
 10 13  1  0  0  0  0
 12 16  2  0  0  0  0
 13 17  1  0  0  0  0
 13 18  1  0  0  0  0
 15 16  1  0  0  0  0
 17 20  1  0  0  0  0
M  END
> <PUBCHEM_COMPOUND_ID_TYPE>
0

> <PUBCHEM_TOTAL_CHARGE>
0

> <PUBCHEM_SUBSTANCE_ID>
310942345

> <PUBCHEM_SUBSTANCE_VERSION>
1

> <PUBCHEM_EXT_DATASOURCE_NAME>
4488

> <PUBCHEM_EXT_DATASOURCE_REGID>
SCHEMBL16120381

> <PUBCHEM_SUBSTANCE_COMMENT>
InChI=1S/C15H18N2O3/c1-5-9(2)14(18)13-10(3)12(15(19)20-4)11-7-6-8-16-17(11)13/h6-9H,5H2,1-4H3
InChIKey=UBEDFHBCHADKFT-UHFFFAOYSA-N

> <PUBCHEM_SUBSTANCE_SYNONYM>
SCHEMBL16120381

> <PUBCHEM_XREF_EXT_ID>
SCHEMBL16120381

> <PUBCHEM_EXT_DATASOURCE_URL>
https://www.surechembl.org/

> <PUBCHEM_EXT_SUBSTANCE_URL>
https://www.surechembl.org/chemical/SCHEMBL16120381

> <PUBCHEM_CID_ASSOCIATIONS>
117608969  1

> <PUBCHEM_COORDINATE_TYPE>
1
3

$$$$
