310937809
  -OEChem-07211613022D

 27 28  0     1  0  0  0  0  0999 V2000
    0.8250   -1.4224    0.0000 Cl  0  0  0  0  0  0  0  0  0  0  0  0
    0.0000   -2.8449    0.0000 Cl  0  0  0  0  0  0  0  0  0  0  0  0
    4.4949   -3.5561    0.0000 O   0  0  0  0  0  0  0  0  0  0  0  0
    1.2233   -3.5561    0.0000 O   0  5  0  0  0  0  0  0  0  0  0  0
    2.4465   -2.8449    0.0000 O   0  0  0  0  0  0  0  0  0  0  0  0
    5.7466   -1.4224    0.0000 O   0  0  0  0  0  0  0  0  0  0  0  0
    4.4949   -0.7112    0.0000 O   0  0  0  0  0  0  0  0  0  0  0  0
    2.0483   -3.5561    0.0000 N   0  3  0  0  0  0  0  0  0  0  0  0
    4.4949   -2.1337    0.0000 N   0  0  0  0  0  0  0  0  0  0  0  0
    3.2715   -2.8449    0.0000 C   0  0  3  0  0  0  0  0  0  0  0  0
    3.6983   -3.5561    0.0000 C   0  0  3  0  0  0  0  0  0  0  0  0
    3.2715   -4.2673    0.0000 C   0  0  0  0  0  0  0  0  0  0  0  0
    2.6173   -3.0156    0.0000 C   0  0  0  0  0  0  0  0  0  0  0  0
    2.4465   -4.2673    0.0000 C   0  0  0  0  0  0  0  0  0  0  0  0
    2.0483   -2.1337    0.0000 C   0  0  0  0  0  0  0  0  0  0  0  0
    3.6983   -2.1337    0.0000 C   0  0  0  0  0  0  0  0  0  0  0  0
    2.1906   -3.7268    0.0000 C   0  0  0  0  0  0  0  0  0  0  0  0
    1.2233   -2.1337    0.0000 C   0  0  0  0  0  0  0  0  0  0  0  0
    3.6983   -4.9785    0.0000 C   0  0  0  0  0  0  0  0  0  0  0  0
    0.8250   -2.8449    0.0000 C   0  0  0  0  0  0  0  0  0  0  0  0
    2.0483   -4.9785    0.0000 C   0  0  0  0  0  0  0  0  0  0  0  0
    1.3939   -3.7268    0.0000 C   0  0  0  0  0  0  0  0  0  0  0  0
    3.2715   -5.6897    0.0000 C   0  0  0  0  0  0  0  0  0  0  0  0
    2.4465   -5.6897    0.0000 C   0  0  0  0  0  0  0  0  0  0  0  0
    4.9216   -1.4224    0.0000 C   0  0  0  0  0  0  0  0  0  0  0  0
    6.1449   -0.7112    0.0000 C   0  0  0  0  0  0  0  0  0  0  0  0
    5.7182    0.0000    0.0000 C   0  0  0  0  0  0  0  0  0  0  0  0
  1 18  1  0  0  0  0
  2 20  1  0  0  0  0
  3 11  1  0  0  0  0
  4  8  1  0  0  0  0
  5  8  2  0  0  0  0
  6 25  1  0  0  0  0
  6 26  1  0  0  0  0
  7 25  2  0  0  0  0
  8 14  1  0  0  0  0
  9 16  1  0  0  0  0
  9 25  1  0  0  0  0
 10 11  1  0  0  0  0
 10 13  1  0  0  0  0
 10 16  1  0  0  0  0
 11 12  1  0  0  0  0
 12 14  1  0  0  0  0
 12 19  2  0  0  0  0
 13 15  1  0  0  0  0
 13 17  2  0  0  0  0
 14 21  2  0  0  0  0
 15 18  2  0  0  0  0
 17 22  1  0  0  0  0
 18 20  1  0  0  0  0
 19 23  1  0  0  0  0
 20 22  2  0  0  0  0
 21 24  1  0  0  0  0
 23 24  2  0  0  0  0
 26 27  1  0  0  0  0
M  CHG  2   4  -1   8   1
M  END
> <PUBCHEM_COMPOUND_ID_TYPE>
0

> <PUBCHEM_TOTAL_CHARGE>
0

> <PUBCHEM_SUBSTANCE_ID>
310937809

> <PUBCHEM_SUBSTANCE_VERSION>
1

> <PUBCHEM_EXT_DATASOURCE_NAME>
4488

> <PUBCHEM_EXT_DATASOURCE_REGID>
SCHEMBL16115626

> <PUBCHEM_SUBSTANCE_COMMENT>
InChI=1S/C18H18Cl2N2O5/c1-2-27-18(24)21-10-13(11-7-8-14(19)15(20)9-11)17(23)12-5-3-4-6-16(12)22(25)26/h3-9,13,17,23H,2,10H2,1H3,(H,21,24)
InChIKey=YWMMVSJYIKQODZ-UHFFFAOYSA-N

> <PUBCHEM_SUBSTANCE_SYNONYM>
SCHEMBL16115626

> <PUBCHEM_XREF_EXT_ID>
SCHEMBL16115626

> <PUBCHEM_EXT_DATASOURCE_URL>
https://www.surechembl.org/

> <PUBCHEM_EXT_SUBSTANCE_URL>
https://www.surechembl.org/chemical/SCHEMBL16115626

> <PUBCHEM_CID_ASSOCIATIONS>
117605456  1

> <PUBCHEM_COORDINATE_TYPE>
1
3

$$$$
