310936784
  -OEChem-07211613022D

 21 23  0     1  0  0  0  0  0999 V2000
   -1.8750   -1.0168    0.0000 Cl  0  0  0  0  0  0  0  0  0  0  0  0
   -4.7625    1.1266    0.0000 F   0  0  0  0  0  0  0  0  0  0  0  0
   -5.1750    0.4121    0.0000 F   0  0  0  0  0  0  0  0  0  0  0  0
   -4.7625   -0.3024    0.0000 F   0  0  0  0  0  0  0  0  0  0  0  0
   -1.0500    0.4121    0.0000 N   0  0  0  0  0  0  0  0  0  0  0  0
   -2.2875    1.1266    0.0000 N   0  0  0  0  0  0  0  0  0  0  0  0
    0.7144    1.2375    0.0000 N   0  0  0  0  0  0  0  0  0  0  0  0
   -0.7144    1.2375    0.0000 C   0  0  3  0  0  0  0  0  0  0  0  0
   -0.7144   -0.4125    0.0000 C   0  0  3  0  0  0  0  0  0  0  0  0
    0.0000    0.8250    0.0000 C   0  0  3  0  0  0  0  0  0  0  0  0
   -1.8750    0.4121    0.0000 C   0  0  0  0  0  0  0  0  0  0  0  0
    0.0000    0.0000    0.0000 C   0  0  0  0  0  0  0  0  0  0  0  0
   -1.4290    0.8250    0.0000 C   0  0  0  0  0  0  0  0  0  0  0  0
   -1.4290    0.0000    0.0000 C   0  0  0  0  0  0  0  0  0  0  0  0
   -2.2875   -0.3024    0.0000 C   0  0  0  0  0  0  0  0  0  0  0  0
   -3.5250    0.4121    0.0000 C   0  0  0  0  0  0  0  0  0  0  0  0
   -3.1125   -0.3024    0.0000 C   0  0  0  0  0  0  0  0  0  0  0  0
   -3.1125    1.1266    0.0000 C   0  0  0  0  0  0  0  0  0  0  0  0
   -4.3500    0.4121    0.0000 C   0  0  0  0  0  0  0  0  0  0  0  0
   -0.7144    2.0625    0.0000 H   0  0  0  0  0  0  0  0  0  0  0  0
   -0.7144   -1.2375    0.0000 H   0  0  0  0  0  0  0  0  0  0  0  0
  1 15  1  0  0  0  0
  2 19  1  0  0  0  0
  3 19  1  0  0  0  0
  4 19  1  0  0  0  0
  5  8  1  0  0  0  0
  5  9  1  0  0  0  0
  5 11  1  0  0  0  0
  6 11  2  0  0  0  0
  6 18  1  0  0  0  0
 10  7  1  6  0  0  0
  8 10  1  0  0  0  0
  8 13  1  0  0  0  0
  8 20  1  6  0  0  0
  9 12  1  0  0  0  0
  9 14  1  0  0  0  0
  9 21  1  6  0  0  0
 10 12  1  0  0  0  0
 11 15  1  0  0  0  0
 13 14  1  0  0  0  0
 15 17  2  0  0  0  0
 16 17  1  0  0  0  0
 16 18  2  0  0  0  0
 16 19  1  0  0  0  0
M  END
> <PUBCHEM_COMPOUND_ID_TYPE>
0

> <PUBCHEM_TOTAL_CHARGE>
0

> <PUBCHEM_SUBSTANCE_ID>
310936784

> <PUBCHEM_SUBSTANCE_VERSION>
1

> <PUBCHEM_EXT_DATASOURCE_NAME>
4488

> <PUBCHEM_EXT_DATASOURCE_REGID>
SCHEMBL16114468

> <PUBCHEM_SUBSTANCE_COMMENT>
InChI=1S/C12H13ClF3N3/c13-8-3-6(12(14,15)16)5-18-11(8)19-7-1-2-10(19)9(17)4-7/h3,5,7,9-10H,1-2,4,17H2/t7-,9-,10+/m1/s1
InChIKey=LPIBWEKLXNAMMT-QNSHHTMESA-N

> <PUBCHEM_SUBSTANCE_SYNONYM>
SCHEMBL16114468

> <PUBCHEM_XREF_EXT_ID>
SCHEMBL16114468

> <PUBCHEM_EXT_DATASOURCE_URL>
https://www.surechembl.org/

> <PUBCHEM_EXT_SUBSTANCE_URL>
https://www.surechembl.org/chemical/SCHEMBL16114468

> <PUBCHEM_CID_ASSOCIATIONS>
117604678  1

> <PUBCHEM_COORDINATE_TYPE>
1
3

> <PUBCHEM_BONDANNOTATIONS>
10  7  6
8  20  6
9  21  6

$$$$
