310932201
  -OEChem-07211613022D

 26 29  0     1  0  0  0  0  0999 V2000
    3.5750   -1.6298    0.0000 O   0  0  0  0  0  0  0  0  0  0  0  0
    4.7053   -3.6013    0.0000 O   0  0  0  0  0  0  0  0  0  0  0  0
    5.4414   -2.3658    0.0000 O   0  0  0  0  0  0  0  0  0  0  0  0
    0.8149    0.0000    0.0000 O   0  0  0  0  0  0  0  0  0  0  0  0
    3.1544   -2.3658    0.0000 C   0  0  3  0  0  0  0  0  0  0  0  0
    3.9956   -2.3658    0.0000 C   0  0  3  0  0  0  0  0  0  0  0  0
    2.5761   -1.7612    0.0000 C   0  0  0  0  0  0  0  0  0  0  0  0
    2.4447   -2.7601    0.0000 C   0  0  0  0  0  0  0  0  0  0  0  0
    4.7053   -2.7601    0.0000 C   0  0  0  0  0  0  0  0  0  0  0  0
    1.7612   -1.9715    0.0000 C   0  0  0  0  0  0  0  0  0  0  0  0
    2.7864   -0.9463    0.0000 C   0  0  0  0  0  0  0  0  0  0  0  0
    2.4184   -3.6013    0.0000 C   0  0  0  0  0  0  0  0  0  0  0  0
    1.7086   -2.3658    0.0000 C   0  0  0  0  0  0  0  0  0  0  0  0
    1.1829   -1.3932    0.0000 C   0  0  0  0  0  0  0  0  0  0  0  0
    2.2081   -0.3680    0.0000 C   0  0  0  0  0  0  0  0  0  0  0  0
    1.3932   -0.6046    0.0000 C   0  0  0  0  0  0  0  0  0  0  0  0
    1.7086   -4.0219    0.0000 C   0  0  0  0  0  0  0  0  0  0  0  0
    0.9989   -2.7601    0.0000 C   0  0  0  0  0  0  0  0  0  0  0  0
    5.4414   -4.0219    0.0000 C   0  0  0  0  0  0  0  0  0  0  0  0
    0.9989   -3.6013    0.0000 C   0  0  0  0  0  0  0  0  0  0  0  0
    6.1511   -3.6013    0.0000 C   0  0  0  0  0  0  0  0  0  0  0  0
    5.4414   -4.8368    0.0000 C   0  0  0  0  0  0  0  0  0  0  0  0
    6.8608   -3.9956    0.0000 C   0  0  0  0  0  0  0  0  0  0  0  0
    6.1511   -5.2573    0.0000 C   0  0  0  0  0  0  0  0  0  0  0  0
    6.8608   -4.8368    0.0000 C   0  0  0  0  0  0  0  0  0  0  0  0
    0.0000   -0.2103    0.0000 C   0  0  0  0  0  0  0  0  0  0  0  0
  1  5  1  0  0  0  0
  1  6  1  0  0  0  0
  2  9  1  0  0  0  0
  2 19  1  0  0  0  0
  3  9  2  0  0  0  0
  4 16  1  0  0  0  0
  4 26  1  0  0  0  0
  5  6  1  0  0  0  0
  5  7  1  0  0  0  0
  5  8  1  0  0  0  0
  6  9  1  0  0  0  0
  7 10  2  0  0  0  0
  7 11  1  0  0  0  0
  8 12  2  0  0  0  0
  8 13  1  0  0  0  0
 10 14  1  0  0  0  0
 11 15  2  0  0  0  0
 12 17  1  0  0  0  0
 13 18  2  0  0  0  0
 14 16  2  0  0  0  0
 15 16  1  0  0  0  0
 17 20  2  0  0  0  0
 18 20  1  0  0  0  0
 19 21  2  0  0  0  0
 19 22  1  0  0  0  0
 21 23  1  0  0  0  0
 22 24  2  0  0  0  0
 23 25  2  0  0  0  0
 24 25  1  0  0  0  0
M  END
> <PUBCHEM_COMPOUND_ID_TYPE>
0

> <PUBCHEM_TOTAL_CHARGE>
0

> <PUBCHEM_SUBSTANCE_ID>
310932201

> <PUBCHEM_SUBSTANCE_VERSION>
1

> <PUBCHEM_EXT_DATASOURCE_NAME>
4488

> <PUBCHEM_EXT_DATASOURCE_REGID>
SCHEMBL16109558

> <PUBCHEM_SUBSTANCE_COMMENT>
InChI=1S/C22H18O4/c1-24-18-14-12-17(13-15-18)22(16-8-4-2-5-9-16)20(26-22)21(23)25-19-10-6-3-7-11-19/h2-15,20H,1H3
InChIKey=VCUPDIOJJSLUMQ-UHFFFAOYSA-N

> <PUBCHEM_SUBSTANCE_SYNONYM>
SCHEMBL16109558

> <PUBCHEM_XREF_EXT_ID>
SCHEMBL16109558

> <PUBCHEM_EXT_DATASOURCE_URL>
https://www.surechembl.org/

> <PUBCHEM_EXT_SUBSTANCE_URL>
https://www.surechembl.org/chemical/SCHEMBL16109558

> <PUBCHEM_CID_ASSOCIATIONS>
117600793  1

> <PUBCHEM_COORDINATE_TYPE>
1
3

$$$$
