310928879
  -OEChem-07211613022D

 12 12  0     1  0  0  0  0  0999 V2000
    1.3029    1.0501    0.0000 O   0  0  0  0  0  0  0  0  0  0  0  0
   -1.3143    0.2100    0.0000 N   0  0  0  0  0  0  0  0  0  0  0  0
   -0.7623   -0.4031    0.0000 N   0  0  0  0  0  0  0  0  0  0  0  0
   -0.0086   -0.0675    0.0000 C   0  0  0  0  0  0  0  0  0  0  0  0
   -0.0948    0.7530    0.0000 C   0  0  0  0  0  0  0  0  0  0  0  0
   -0.9018    0.9245    0.0000 C   0  0  0  0  0  0  0  0  0  0  0  0
    0.7059   -0.4800    0.0000 C   0  0  3  0  0  0  0  0  0  0  0  0
    0.5182    1.3050    0.0000 C   0  0  0  0  0  0  0  0  0  0  0  0
    1.4203   -0.0675    0.0000 C   0  0  0  0  0  0  0  0  0  0  0  0
   -2.1348    0.1238    0.0000 C   0  0  0  0  0  0  0  0  0  0  0  0
    0.7059   -1.3050    0.0000 C   0  0  0  0  0  0  0  0  0  0  0  0
    2.1348   -0.4800    0.0000 C   0  0  0  0  0  0  0  0  0  0  0  0
  1  8  2  0  0  0  0
  2  3  1  0  0  0  0
  2  6  1  0  0  0  0
  2 10  1  0  0  0  0
  3  4  2  0  0  0  0
  4  5  1  0  0  0  0
  4  7  1  0  0  0  0
  5  6  2  0  0  0  0
  5  8  1  0  0  0  0
  7  9  1  0  0  0  0
  7 11  1  0  0  0  0
  9 12  1  0  0  0  0
M  END
> <PUBCHEM_COMPOUND_ID_TYPE>
0

> <PUBCHEM_TOTAL_CHARGE>
0

> <PUBCHEM_SUBSTANCE_ID>
310928879

> <PUBCHEM_SUBSTANCE_VERSION>
1

> <PUBCHEM_EXT_DATASOURCE_NAME>
11752

> <PUBCHEM_EXT_DATASOURCE_REGID>
BD209306

> <PUBCHEM_SUBSTANCE_SYNONYM>
1172893-08-1
3-(sec-Butyl)-1-methyl-1H-pyrazole-4-carbaldehyde

> <PUBCHEM_GENERIC_REGISTRY_NAME>
1172893-08-1

> <PUBCHEM_XREF_EXT_ID>
BD209306

> <PUBCHEM_EXT_DATASOURCE_URL>
http://www.bidepharmatech.com/en/index.html

> <PUBCHEM_EXT_SUBSTANCE_URL>
http://www.bidepharmatech.com/en/goodsview_goodscode_BD209306.html

> <PUBCHEM_CID_ASSOCIATIONS>
44118259  1

> <PUBCHEM_COORDINATE_TYPE>
1
3

$$$$
