310949316
  -OEChem-07211613022D

 16 15  0     1  0  0  0  0  0999 V2000
    2.7326   -0.3615    0.0000 S   0  0  0  0  0  0  0  0  0  0  0  0
    1.9086    0.1093    0.0000 O   0  0  0  0  0  0  0  0  0  0  0  0
    3.1530    0.3447    0.0000 O   0  0  0  0  0  0  0  0  0  0  0  0
    2.3290   -1.0678    0.0000 O   0  0  0  0  0  0  0  0  0  0  0  0
    3.4557   -0.7651    0.0000 O   0  0  0  0  0  0  0  0  0  0  0  0
   -1.3705    1.0678    0.0000 O   0  0  0  0  0  0  0  0  0  0  0  0
   -0.5465   -0.3615    0.0000 N   0  0  0  0  0  0  0  0  0  0  0  0
    1.0846   -0.3279    0.0000 C   0  0  0  0  0  0  0  0  0  0  0  0
   -1.4042    0.1261    0.0000 C   0  0  0  0  0  0  0  0  0  0  0  0
    0.2607    0.1429    0.0000 C   0  0  0  0  0  0  0  0  0  0  0  0
   -2.2113   -0.3279    0.0000 C   0  0  0  0  0  0  0  0  0  0  0  0
   -2.6149   -0.0757    0.0000 C   0  0  3  0  0  0  0  0  0  0  0  0
   -3.4053   -0.7819    0.0000 C   0  0  0  0  0  0  0  0  0  0  0  0
   -2.8335    0.5465    0.0000 C   0  0  0  0  0  0  0  0  0  0  0  0
   -3.4557   -0.1093    0.0000 C   0  0  0  0  0  0  0  0  0  0  0  0
   -3.2203    0.5465    0.0000 C   0  0  0  0  0  0  0  0  0  0  0  0
  1  2  1  0  0  0  0
  1  3  2  0  0  0  0
  1  4  2  0  0  0  0
  1  5  1  0  0  0  0
  2  8  1  0  0  0  0
  6  9  2  0  0  0  0
  7  9  1  0  0  0  0
  7 10  1  0  0  0  0
  8 10  1  0  0  0  0
  9 11  1  0  0  0  0
 11 12  1  0  0  0  0
 12 13  1  0  0  0  0
 12 14  1  0  0  0  0
 13 15  1  0  0  0  0
 15 16  1  0  0  0  0
M  END
> <PUBCHEM_COMPOUND_ID_TYPE>
0

> <PUBCHEM_TOTAL_CHARGE>
0

> <PUBCHEM_SUBSTANCE_ID>
310949316

> <PUBCHEM_SUBSTANCE_VERSION>
1

> <PUBCHEM_EXT_DATASOURCE_NAME>
4488

> <PUBCHEM_EXT_DATASOURCE_REGID>
SCHEMBL16127506

> <PUBCHEM_SUBSTANCE_COMMENT>
InChI=1S/C9H19NO5S/c1-3-4-8(2)7-9(11)10-5-6-15-16(12,13)14/h8H,3-7H2,1-2H3,(H,10,11)(H,12,13,14)
InChIKey=ABSQSULRGQTJKO-UHFFFAOYSA-N

> <PUBCHEM_SUBSTANCE_SYNONYM>
SCHEMBL16127506

> <PUBCHEM_XREF_EXT_ID>
SCHEMBL16127506

> <PUBCHEM_EXT_DATASOURCE_URL>
https://www.surechembl.org/

> <PUBCHEM_EXT_SUBSTANCE_URL>
https://www.surechembl.org/chemical/SCHEMBL16127506

> <PUBCHEM_CID_ASSOCIATIONS>
117614796  1

> <PUBCHEM_COORDINATE_TYPE>
1
3

> <PUBCHEM_BONDANNOTATIONS>
13  12  3

$$$$
