310930804
  -OEChem-07211613022D

 31 34  0     1  0  0  0  0  0999 V2000
    1.3222    5.5902    0.0000 S   0  0  0  0  0  0  0  0  0  0  0  0
    1.3693    3.8678    0.0000 S   0  0  0  0  0  0  0  0  0  0  0  0
    1.3222    7.2402    0.0000 F   0  0  0  0  0  0  0  0  0  0  0  0
   -1.5356    5.5902    0.0000 F   0  0  0  0  0  0  0  0  0  0  0  0
   -2.9646   10.5402    0.0000 F   0  0  0  0  0  0  0  0  0  0  0  0
   -1.5356    7.2402    0.0000 O   0  0  0  0  0  0  0  0  0  0  0  0
    0.9097    4.8757    0.0000 O   0  0  0  0  0  0  0  0  0  0  0  0
    1.7347    6.3047    0.0000 O   0  0  0  0  0  0  0  0  0  0  0  0
    2.0367    5.1777    0.0000 N   0  0  0  0  0  0  0  0  0  0  0  0
    2.7041    3.8678    0.0000 N   0  0  0  0  0  0  0  0  0  0  0  0
   -2.9646    5.5902    0.0000 N   0  0  0  0  0  0  0  0  0  0  0  0
    1.6242    3.0831    0.0000 N   0  0  0  0  0  0  0  0  0  0  0  0
    0.6078    6.0027    0.0000 C   0  0  0  0  0  0  0  0  0  0  0  0
    0.6078    6.8277    0.0000 C   0  0  0  0  0  0  0  0  0  0  0  0
   -0.8212    6.8277    0.0000 C   0  0  0  0  0  0  0  0  0  0  0  0
   -0.8212    6.0027    0.0000 C   0  0  0  0  0  0  0  0  0  0  0  0
   -0.1067    5.5902    0.0000 C   0  0  0  0  0  0  0  0  0  0  0  0
   -0.1067    7.2402    0.0000 C   0  0  0  0  0  0  0  0  0  0  0  0
   -2.2501    6.8277    0.0000 C   0  0  3  0  0  0  0  0  0  0  0  0
    2.0367    4.3527    0.0000 C   0  0  0  0  0  0  0  0  0  0  0  0
   -2.9646    7.2402    0.0000 C   0  0  3  0  0  0  0  0  0  0  0  0
   -2.9646    8.0652    0.0000 C   0  0  0  0  0  0  0  0  0  0  0  0
   -2.2501    6.0027    0.0000 C   0  0  0  0  0  0  0  0  0  0  0  0
   -3.6791    6.8277    0.0000 C   0  0  0  0  0  0  0  0  0  0  0  0
   -2.2501    8.4777    0.0000 C   0  0  0  0  0  0  0  0  0  0  0  0
   -3.6791    8.4777    0.0000 C   0  0  0  0  0  0  0  0  0  0  0  0
    2.4492    3.0831    0.0000 C   0  0  0  0  0  0  0  0  0  0  0  0
   -3.6791    6.0027    0.0000 C   0  0  0  0  0  0  0  0  0  0  0  0
   -2.2501    9.3027    0.0000 C   0  0  0  0  0  0  0  0  0  0  0  0
   -3.6791    9.3027    0.0000 C   0  0  0  0  0  0  0  0  0  0  0  0
   -2.9646    9.7152    0.0000 C   0  0  0  0  0  0  0  0  0  0  0  0
  1  7  2  0  0  0  0
  1  8  2  0  0  0  0
  1  9  1  0  0  0  0
  1 13  1  0  0  0  0
  2 12  1  0  0  0  0
  2 20  1  0  0  0  0
  3 14  1  0  0  0  0
  4 16  1  0  0  0  0
  5 31  1  0  0  0  0
  6 15  1  0  0  0  0
  6 19  1  0  0  0  0
  9 20  1  0  0  0  0
 10 20  2  0  0  0  0
 10 27  1  0  0  0  0
 11 23  1  0  0  0  0
 11 28  1  0  0  0  0
 12 27  2  0  0  0  0
 13 14  2  0  0  0  0
 13 17  1  0  0  0  0
 14 18  1  0  0  0  0
 15 16  1  0  0  0  0
 15 18  2  0  0  0  0
 16 17  2  0  0  0  0
 19 21  1  0  0  0  0
 19 23  1  0  0  0  0
 21 22  1  0  0  0  0
 21 24  1  0  0  0  0
 22 25  2  0  0  0  0
 22 26  1  0  0  0  0
 24 28  1  0  0  0  0
 25 29  1  0  0  0  0
 26 30  2  0  0  0  0
 29 31  2  0  0  0  0
 30 31  1  0  0  0  0
M  END
> <PUBCHEM_COMPOUND_ID_TYPE>
0

> <PUBCHEM_TOTAL_CHARGE>
0

> <PUBCHEM_SUBSTANCE_ID>
310930804

> <PUBCHEM_SUBSTANCE_VERSION>
1

> <PUBCHEM_EXT_DATASOURCE_NAME>
4488

> <PUBCHEM_EXT_DATASOURCE_REGID>
SCHEMBL16108101

> <PUBCHEM_SUBSTANCE_COMMENT>
InChI=1S/C19H17F3N4O3S2/c20-12-3-1-11(2-4-12)13-5-6-23-9-17(13)29-16-7-15(22)18(8-14(16)21)31(27,28)26-19-24-10-25-30-19/h1-4,7-8,10,13,17,23H,5-6,9H2,(H,24,25,26)
InChIKey=JPRPSPOHVXPDGZ-UHFFFAOYSA-N

> <PUBCHEM_SUBSTANCE_SYNONYM>
SCHEMBL16108101

> <PUBCHEM_XREF_EXT_ID>
SCHEMBL16108101

> <PUBCHEM_EXT_DATASOURCE_URL>
https://www.surechembl.org/

> <PUBCHEM_EXT_SUBSTANCE_URL>
https://www.surechembl.org/chemical/SCHEMBL16108101

> <PUBCHEM_CID_ASSOCIATIONS>
78110895  1

> <PUBCHEM_COORDINATE_TYPE>
1
3

$$$$
