310934705
  -OEChem-07211613022D

 24 26  0     1  0  0  0  0  0999 V2000
    5.7608   -0.6571    0.0000 F   0  0  0  0  0  0  0  0  0  0  0  0
    4.5780   -1.4895    0.0000 O   0  0  0  0  0  0  0  0  0  0  0  0
    4.5780   -2.9133    0.0000 O   0  0  0  0  0  0  0  0  0  0  0  0
    3.3514   -2.1904    0.0000 C   0  0  3  0  0  0  0  0  0  0  0  0
    3.7237   -1.4676    0.0000 C   0  0  0  0  0  0  0  0  0  0  0  0
    2.8695   -2.8695    0.0000 C   0  0  0  0  0  0  0  0  0  0  0  0
    2.1028   -2.6066    0.0000 C   0  0  3  0  0  0  0  0  0  0  0  0
    4.1837   -2.1904    0.0000 C   0  0  0  0  0  0  0  0  0  0  0  0
    2.8695   -1.5333    0.0000 C   0  0  0  0  0  0  0  0  0  0  0  0
    4.7313   -1.5990    0.0000 C   0  0  0  0  0  0  0  0  0  0  0  0
    2.1028   -1.7961    0.0000 C   0  0  0  0  0  0  0  0  0  0  0  0
    1.4238   -3.0885    0.0000 C   0  0  0  0  0  0  0  0  0  0  0  0
    3.2856   -0.7666    0.0000 C   0  0  0  0  0  0  0  0  0  0  0  0
    4.9285   -0.7009    0.0000 C   0  0  0  0  0  0  0  0  0  0  0  0
    0.6790   -2.7380    0.0000 C   0  0  0  0  0  0  0  0  0  0  0  0
    3.6580   -0.0438    0.0000 C   0  0  0  0  0  0  0  0  0  0  0  0
    4.4904    0.0000    0.0000 C   0  0  0  0  0  0  0  0  0  0  0  0
    1.5114   -3.8990    0.0000 C   0  0  0  0  0  0  0  0  0  0  0  0
    4.9941   -2.1028    0.0000 C   0  0  0  0  0  0  0  0  0  0  0  0
    0.0000   -3.2199    0.0000 C   0  0  0  0  0  0  0  0  0  0  0  0
    0.8324   -4.3808    0.0000 C   0  0  0  0  0  0  0  0  0  0  0  0
    0.0876   -4.0523    0.0000 C   0  0  0  0  0  0  0  0  0  0  0  0
    5.4103   -1.4895    0.0000 C   0  0  0  0  0  0  0  0  0  0  0  0
    0.5914   -1.9276    0.0000 C   0  0  0  0  0  0  0  0  0  0  0  0
  1 14  1  0  0  0  0
  2  8  1  0  0  0  0
  2 23  1  0  0  0  0
  3  8  2  0  0  0  0
  4  5  1  0  0  0  0
  4  6  1  0  0  0  0
  4  8  1  0  0  0  0
  4  9  1  0  0  0  0
  5 10  1  0  0  0  0
  5 13  2  0  0  0  0
  6  7  1  0  0  0  0
  7 11  1  0  0  0  0
  7 12  1  0  0  0  0
  9 11  1  0  0  0  0
 10 14  2  0  0  0  0
 10 19  1  0  0  0  0
 12 15  2  0  0  0  0
 12 18  1  0  0  0  0
 13 16  1  0  0  0  0
 14 17  1  0  0  0  0
 15 20  1  0  0  0  0
 15 24  1  0  0  0  0
 16 17  2  0  0  0  0
 18 21  2  0  0  0  0
 20 22  2  0  0  0  0
 21 22  1  0  0  0  0
M  END
> <PUBCHEM_COMPOUND_ID_TYPE>
0

> <PUBCHEM_TOTAL_CHARGE>
0

> <PUBCHEM_SUBSTANCE_ID>
310934705

> <PUBCHEM_SUBSTANCE_VERSION>
1

> <PUBCHEM_EXT_DATASOURCE_NAME>
4488

> <PUBCHEM_EXT_DATASOURCE_REGID>
SCHEMBL16112206

> <PUBCHEM_SUBSTANCE_COMMENT>
InChI=1S/C21H23FO2/c1-14-7-4-5-8-17(14)16-11-12-21(13-16,20(23)24-3)18-9-6-10-19(22)15(18)2/h4-10,16H,11-13H2,1-3H3
InChIKey=YUUVGVZEUFMVRF-UHFFFAOYSA-N

> <PUBCHEM_SUBSTANCE_SYNONYM>
SCHEMBL16112206

> <PUBCHEM_XREF_EXT_ID>
SCHEMBL16112206

> <PUBCHEM_EXT_DATASOURCE_URL>
https://www.surechembl.org/

> <PUBCHEM_EXT_SUBSTANCE_URL>
https://www.surechembl.org/chemical/SCHEMBL16112206

> <PUBCHEM_CID_ASSOCIATIONS>
117602865  1

> <PUBCHEM_COORDINATE_TYPE>
1
3

$$$$
