310929146
  -OEChem-07211613022D

 21 21  0     1  0  0  0  0  0999 V2000
    2.8654   -2.8917    0.0000 S   0  0  3  0  0  0  0  0  0  0  0  0
    1.4196   -0.4206    0.0000 O   0  0  0  0  0  0  0  0  0  0  0  0
    2.8654   -3.7329    0.0000 O   0  0  0  0  0  0  0  0  0  0  0  0
    4.2850   -1.2618    0.0000 O   0  0  0  0  0  0  0  0  0  0  0  0
    6.4406   -1.6562    0.0000 O   0  0  0  0  0  0  0  0  0  0  0  0
    7.1504   -3.7329    0.0000 O   0  0  0  0  0  0  0  0  0  0  0  0
    0.0000   -2.8917    0.0000 N   0  0  0  0  0  0  0  0  0  0  0  0
    2.1293   -2.4973    0.0000 C   0  0  0  0  0  0  0  0  0  0  0  0
    1.4196   -1.2618    0.0000 C   0  0  0  0  0  0  0  0  0  0  0  0
    2.1293   -1.6562    0.0000 C   0  0  0  0  0  0  0  0  0  0  0  0
    1.4196   -2.8917    0.0000 C   0  0  0  0  0  0  0  0  0  0  0  0
    0.7098   -2.4973    0.0000 C   0  0  0  0  0  0  0  0  0  0  0  0
    0.7098   -1.6562    0.0000 C   0  0  0  0  0  0  0  0  0  0  0  0
    3.5752   -2.4973    0.0000 C   0  0  0  0  0  0  0  0  0  0  0  0
    3.5752   -1.6562    0.0000 C   0  0  0  0  0  0  0  0  0  0  0  0
    0.7098    0.0000    0.0000 C   0  0  0  0  0  0  0  0  0  0  0  0
    4.9948   -1.6562    0.0000 C   0  0  0  0  0  0  0  0  0  0  0  0
    5.7308   -1.2618    0.0000 C   0  0  0  0  0  0  0  0  0  0  0  0
    6.4406   -2.4711    0.0000 C   0  0  0  0  0  0  0  0  0  0  0  0
    7.1504   -2.8917    0.0000 C   0  0  0  0  0  0  0  0  0  0  0  0
    7.8864   -4.1273    0.0000 C   0  0  0  0  0  0  0  0  0  0  0  0
  1  3  2  0  0  0  0
  1  8  1  0  0  0  0
  1 14  1  0  0  0  0
  2  9  1  0  0  0  0
  2 16  1  0  0  0  0
  4 15  1  0  0  0  0
  4 17  1  0  0  0  0
  5 18  1  0  0  0  0
  5 19  1  0  0  0  0
  6 20  1  0  0  0  0
  6 21  1  0  0  0  0
  7 12  1  0  0  0  0
  8 10  1  0  0  0  0
  8 11  2  0  0  0  0
  9 10  2  0  0  0  0
  9 13  1  0  0  0  0
 11 12  1  0  0  0  0
 12 13  2  0  0  0  0
 14 15  1  0  0  0  0
 17 18  1  0  0  0  0
 19 20  1  0  0  0  0
M  END
> <PUBCHEM_COMPOUND_ID_TYPE>
0

> <PUBCHEM_TOTAL_CHARGE>
0

> <PUBCHEM_SUBSTANCE_ID>
310929146

> <PUBCHEM_SUBSTANCE_VERSION>
1

> <PUBCHEM_EXT_DATASOURCE_NAME>
4488

> <PUBCHEM_EXT_DATASOURCE_REGID>
SCHEMBL16106309

> <PUBCHEM_SUBSTANCE_COMMENT>
InChI=1S/C14H23NO5S/c1-17-3-4-19-5-6-20-7-8-21(16)14-10-12(15)9-13(11-14)18-2/h9-11H,3-8,15H2,1-2H3
InChIKey=LUYYUZDNICUJRZ-UHFFFAOYSA-N

> <PUBCHEM_SUBSTANCE_SYNONYM>
SCHEMBL16106309

> <PUBCHEM_XREF_EXT_ID>
SCHEMBL16106309

> <PUBCHEM_EXT_DATASOURCE_URL>
https://www.surechembl.org/

> <PUBCHEM_EXT_SUBSTANCE_URL>
https://www.surechembl.org/chemical/SCHEMBL16106309

> <PUBCHEM_CID_ASSOCIATIONS>
117598618  1

> <PUBCHEM_COORDINATE_TYPE>
1
3

$$$$
