310934165
  -OEChem-07211613022D

 40 43  0     1  0  0  0  0  0999 V2000
    3.5981   -7.8218    0.0000 Cl  0  0  0  0  0  0  0  0  0  0  0  0
    0.7431   -3.6763    0.0000 O   0  0  0  0  0  0  0  0  0  0  0  0
    2.8550   -1.6426    0.0000 O   0  0  0  0  0  0  0  0  0  0  0  0
    0.0000   -6.5703    0.0000 O   0  5  0  0  0  0  0  0  0  0  0  0
    0.7039   -5.3579    0.0000 O   0  0  0  0  0  0  0  0  0  0  0  0
    5.0060   -3.7154    0.0000 O   0  0  0  0  0  0  0  0  0  0  0  0
    7.9001   -0.4302    0.0000 O   0  0  0  0  0  0  0  0  0  0  0  0
    8.6040   -1.6426    0.0000 O   0  0  0  0  0  0  0  0  0  0  0  0
    2.1510   -3.7154    0.0000 N   0  0  0  0  0  0  0  0  0  0  0  0
    0.7039   -6.1792    0.0000 N   0  3  0  0  0  0  0  0  0  0  0  0
    3.5981   -2.8941    0.0000 N   0  0  0  0  0  0  0  0  0  0  0  0
    4.3020   -2.4639    0.0000 N   0  0  0  0  0  0  0  0  0  0  0  0
    2.1510   -5.3579    0.0000 C   0  0  0  0  0  0  0  0  0  0  0  0
    2.1510   -6.1792    0.0000 C   0  0  0  0  0  0  0  0  0  0  0  0
    1.4470   -4.1065    0.0000 C   0  0  0  0  0  0  0  0  0  0  0  0
    2.1510   -2.8941    0.0000 C   0  0  3  0  0  0  0  0  0  0  0  0
    1.4470   -6.6095    0.0000 C   0  0  0  0  0  0  0  0  0  0  0  0
    1.4079   -4.9277    0.0000 C   0  0  0  0  0  0  0  0  0  0  0  0
    2.8550   -4.9669    0.0000 C   0  0  0  0  0  0  0  0  0  0  0  0
    2.8941   -4.1065    0.0000 C   0  0  0  0  0  0  0  0  0  0  0  0
    2.8550   -6.6095    0.0000 C   0  0  0  0  0  0  0  0  0  0  0  0
    2.8550   -2.4639    0.0000 C   0  0  0  0  0  0  0  0  0  0  0  0
    1.4470   -7.3916    0.0000 C   0  0  0  0  0  0  0  0  0  0  0  0
    2.8550   -7.3916    0.0000 C   0  0  0  0  0  0  0  0  0  0  0  0
    1.4470   -2.4639    0.0000 C   0  0  0  0  0  0  0  0  0  0  0  0
    2.1510   -7.8218    0.0000 C   0  0  0  0  0  0  0  0  0  0  0  0
    1.4470   -1.6426    0.0000 C   0  0  0  0  0  0  0  0  0  0  0  0
    5.0060   -2.8941    0.0000 C   0  0  0  0  0  0  0  0  0  0  0  0
    5.7490   -2.4639    0.0000 C   0  0  0  0  0  0  0  0  0  0  0  0
    0.7431   -1.2124    0.0000 C   0  0  0  0  0  0  0  0  0  0  0  0
    2.1510   -1.2124    0.0000 C   0  0  0  0  0  0  0  0  0  0  0  0
    7.1961   -1.6426    0.0000 C   0  0  0  0  0  0  0  0  0  0  0  0
    5.7490   -1.6426    0.0000 C   0  0  0  0  0  0  0  0  0  0  0  0
    6.4530   -2.8941    0.0000 C   0  0  0  0  0  0  0  0  0  0  0  0
    6.4530   -1.2515    0.0000 C   0  0  0  0  0  0  0  0  0  0  0  0
    7.1961   -2.4639    0.0000 C   0  0  0  0  0  0  0  0  0  0  0  0
    0.7431   -0.4302    0.0000 C   0  0  0  0  0  0  0  0  0  0  0  0
    2.1510   -0.4302    0.0000 C   0  0  0  0  0  0  0  0  0  0  0  0
    7.9001   -1.2515    0.0000 C   0  0  0  0  0  0  0  0  0  0  0  0
    1.4470    0.0000    0.0000 C   0  0  0  0  0  0  0  0  0  0  0  0
  1 24  1  0  0  0  0
  2 15  2  0  0  0  0
  3 22  2  0  0  0  0
  4 10  1  0  0  0  0
  5 10  2  0  0  0  0
  6 28  2  0  0  0  0
  7 39  2  0  0  0  0
  8 39  1  0  0  0  0
  9 15  1  0  0  0  0
  9 16  1  0  0  0  0
  9 20  1  0  0  0  0
 10 17  1  0  0  0  0
 11 12  1  0  0  0  0
 11 22  1  0  0  0  0
 12 28  1  0  0  0  0
 13 14  1  0  0  0  0
 13 18  2  0  0  0  0
 13 19  1  0  0  0  0
 14 17  1  0  0  0  0
 14 21  2  0  0  0  0
 15 18  1  0  0  0  0
 16 22  1  0  0  0  0
 16 25  1  0  0  0  0
 17 23  2  0  0  0  0
 19 20  2  0  0  0  0
 21 24  1  0  0  0  0
 23 26  1  0  0  0  0
 24 26  2  0  0  0  0
 25 27  1  0  0  0  0
 27 30  2  0  0  0  0
 27 31  1  0  0  0  0
 28 29  1  0  0  0  0
 29 33  2  0  0  0  0
 29 34  1  0  0  0  0
 30 37  1  0  0  0  0
 31 38  2  0  0  0  0
 32 35  2  0  0  0  0
 32 36  1  0  0  0  0
 32 39  1  0  0  0  0
 33 35  1  0  0  0  0
 34 36  2  0  0  0  0
 37 40  2  0  0  0  0
 38 40  1  0  0  0  0
M  CHG  2   4  -1  10   1
M  END
> <PUBCHEM_COMPOUND_ID_TYPE>
0

> <PUBCHEM_TOTAL_CHARGE>
0

> <PUBCHEM_SUBSTANCE_ID>
310934165

> <PUBCHEM_SUBSTANCE_VERSION>
1

> <PUBCHEM_EXT_DATASOURCE_NAME>
4488

> <PUBCHEM_EXT_DATASOURCE_REGID>
SCHEMBL16111616

> <PUBCHEM_SUBSTANCE_COMMENT>
InChI=1S/C28H21ClN4O7/c29-21-10-11-23(33(39)40)22(16-21)20-12-13-32(25(34)15-20)24(14-17-4-2-1-3-5-17)27(36)31-30-26(35)18-6-8-19(9-7-18)28(37)38/h1-13,15-16,24H,14H2,(H,30,35)(H,31,36)(H,37,38)
InChIKey=OXIGGAGPRUCEBT-UHFFFAOYSA-N

> <PUBCHEM_SUBSTANCE_SYNONYM>
SCHEMBL16111616

> <PUBCHEM_XREF_EXT_ID>
SCHEMBL16111616

> <PUBCHEM_EXT_DATASOURCE_URL>
https://www.surechembl.org/

> <PUBCHEM_EXT_SUBSTANCE_URL>
https://www.surechembl.org/chemical/SCHEMBL16111616

> <PUBCHEM_CID_ASSOCIATIONS>
117602440  1

> <PUBCHEM_COORDINATE_TYPE>
1
3

$$$$
