310931863
  -OEChem-07211613022D

 32 35  0     1  0  0  0  0  0999 V2000
    4.0208   -3.3819    0.0000 O   0  0  0  0  0  0  0  0  0  0  0  0
    2.6304   -0.6388    0.0000 O   0  0  0  0  0  0  0  0  0  0  0  0
    8.5300   -3.4571    0.0000 O   0  0  0  0  0  0  0  0  0  0  0  0
   10.7095   -4.7723    0.0000 O   0  0  0  0  0  0  0  0  0  0  0  0
    4.9226   -2.2171    0.0000 N   0  0  0  0  0  0  0  0  0  0  0  0
    4.8474   -1.3904    0.0000 N   0  0  0  0  0  0  0  0  0  0  0  0
    6.3881   -2.2171    0.0000 N   0  0  0  0  0  0  0  0  0  0  0  0
    7.8161   -4.6971    0.0000 N   0  0  0  0  0  0  0  0  0  0  0  0
    0.0000   -3.0813    0.0000 N   0  0  0  0  0  0  0  0  0  0  0  0
    3.6074   -1.9540    0.0000 C   0  0  0  0  0  0  0  0  0  0  0  0
    4.2086   -2.5553    0.0000 C   0  0  0  0  0  0  0  0  0  0  0  0
    2.8183   -2.0668    0.0000 C   0  0  0  0  0  0  0  0  0  0  0  0
    5.6741   -2.6304    0.0000 C   0  0  0  0  0  0  0  0  0  0  0  0
    4.0208   -1.2401    0.0000 C   0  0  0  0  0  0  0  0  0  0  0  0
    2.2922   -1.3904    0.0000 C   0  0  0  0  0  0  0  0  0  0  0  0
    2.4801   -2.8183    0.0000 C   0  0  0  0  0  0  0  0  0  0  0  0
    5.6741   -3.4571    0.0000 C   0  0  0  0  0  0  0  0  0  0  0  0
    1.5031   -1.5031    0.0000 C   0  0  0  0  0  0  0  0  0  0  0  0
    1.1649   -2.2546    0.0000 C   0  0  0  0  0  0  0  0  0  0  0  0
    7.1021   -3.4571    0.0000 C   0  0  0  0  0  0  0  0  0  0  0  0
    1.6534   -2.8934    0.0000 C   0  0  0  0  0  0  0  0  0  0  0  0
    7.1021   -2.6304    0.0000 C   0  0  0  0  0  0  0  0  0  0  0  0
    6.3881   -3.8704    0.0000 C   0  0  0  0  0  0  0  0  0  0  0  0
    7.8161   -3.8704    0.0000 C   0  0  0  0  0  0  0  0  0  0  0  0
    0.3382   -2.3298    0.0000 C   0  0  0  0  0  0  0  0  0  0  0  0
    2.1419    0.0000    0.0000 C   0  0  0  0  0  0  0  0  0  0  0  0
    8.5300   -5.1105    0.0000 C   0  0  0  0  0  0  0  0  0  0  0  0
    9.9580   -5.1105    0.0000 C   0  0  3  0  0  0  0  0  0  0  0  0
    9.2440   -4.6971    0.0000 C   0  0  0  0  0  0  0  0  0  0  0  0
   10.0331   -5.9372    0.0000 C   0  0  0  0  0  0  0  0  0  0  0  0
   11.2731   -5.4111    0.0000 C   0  0  0  0  0  0  0  0  0  0  0  0
   10.8598   -6.0875    0.0000 C   0  0  0  0  0  0  0  0  0  0  0  0
  1 11  1  0  0  0  0
  2 15  1  0  0  0  0
  2 26  1  0  0  0  0
  3 24  2  0  0  0  0
  4 28  1  0  0  0  0
  4 31  1  0  0  0  0
  5  6  1  0  0  0  0
  5 11  1  0  0  0  0
  5 13  1  0  0  0  0
  6 14  2  0  0  0  0
  7 13  2  0  0  0  0
  7 22  1  0  0  0  0
  8 24  1  0  0  0  0
  8 27  1  0  0  0  0
  9 25  3  0  0  0  0
 10 11  2  0  0  0  0
 10 12  1  0  0  0  0
 10 14  1  0  0  0  0
 12 15  1  0  0  0  0
 12 16  2  0  0  0  0
 13 17  1  0  0  0  0
 15 18  2  0  0  0  0
 16 21  1  0  0  0  0
 17 23  2  0  0  0  0
 18 19  1  0  0  0  0
 19 21  2  0  0  0  0
 19 25  1  0  0  0  0
 20 22  2  0  0  0  0
 20 23  1  0  0  0  0
 20 24  1  0  0  0  0
 27 29  1  0  0  0  0
 28 29  1  0  0  0  0
 28 30  1  0  0  0  0
 30 32  1  0  0  0  0
 31 32  1  0  0  0  0
M  END
> <PUBCHEM_COMPOUND_ID_TYPE>
0

> <PUBCHEM_TOTAL_CHARGE>
0

> <PUBCHEM_SUBSTANCE_ID>
310931863

> <PUBCHEM_SUBSTANCE_VERSION>
1

> <PUBCHEM_EXT_DATASOURCE_NAME>
4488

> <PUBCHEM_EXT_DATASOURCE_REGID>
SCHEMBL16109198

> <PUBCHEM_SUBSTANCE_COMMENT>
InChI=1S/C23H23N5O4/c1-31-20-11-15(12-24)4-6-18(20)19-14-27-28(23(19)30)21-7-5-16(13-26-21)22(29)25-9-8-17-3-2-10-32-17/h4-7,11,13-14,17,30H,2-3,8-10H2,1H3,(H,25,29)
InChIKey=MITBZIRWBMTCEW-UHFFFAOYSA-N

> <PUBCHEM_SUBSTANCE_SYNONYM>
SCHEMBL16109198

> <PUBCHEM_XREF_EXT_ID>
SCHEMBL16109198

> <PUBCHEM_EXT_DATASOURCE_URL>
https://www.surechembl.org/

> <PUBCHEM_EXT_SUBSTANCE_URL>
https://www.surechembl.org/chemical/SCHEMBL16109198

> <PUBCHEM_CID_ASSOCIATIONS>
117600529  1

> <PUBCHEM_COORDINATE_TYPE>
1
3

$$$$
