310947731
  -OEChem-07211613022D

 19 20  0     1  0  0  0  0  0999 V2000
   -2.9855   -0.1664    0.0000 O   0  0  0  0  0  0  0  0  0  0  0  0
   -1.8564   -1.1769    0.0000 N   0  0  0  0  0  0  0  0  0  0  0  0
   -1.3715   -1.8444    0.0000 N   0  0  0  0  0  0  0  0  0  0  0  0
   -2.6884    1.2313    0.0000 N   0  0  0  0  0  0  0  0  0  0  0  0
    0.8420   -0.7644    0.0000 N   0  0  3  0  0  0  0  0  0  0  0  0
    2.9855   -0.3519    0.0000 N   0  0  0  0  0  0  0  0  0  0  0  0
   -1.3715   -0.5095    0.0000 C   0  0  0  0  0  0  0  0  0  0  0  0
   -1.6265    0.2751    0.0000 C   0  0  0  0  0  0  0  0  0  0  0  0
   -0.5869   -0.7644    0.0000 C   0  0  0  0  0  0  0  0  0  0  0  0
   -2.4334    0.4467    0.0000 C   0  0  0  0  0  0  0  0  0  0  0  0
   -0.5869   -1.5894    0.0000 C   0  0  0  0  0  0  0  0  0  0  0  0
   -1.0744    0.8882    0.0000 C   0  0  0  0  0  0  0  0  0  0  0  0
    0.1276   -0.3519    0.0000 C   0  0  0  0  0  0  0  0  0  0  0  0
   -1.3294    1.6728    0.0000 C   0  0  0  0  0  0  0  0  0  0  0  0
   -2.1363    1.8444    0.0000 C   0  0  0  0  0  0  0  0  0  0  0  0
    1.5565   -0.3519    0.0000 C   0  0  0  0  0  0  0  0  0  0  0  0
    0.8420   -1.5894    0.0000 C   0  0  0  0  0  0  0  0  0  0  0  0
   -2.7305   -0.9511    0.0000 C   0  0  0  0  0  0  0  0  0  0  0  0
    2.2710   -0.7644    0.0000 C   0  0  0  0  0  0  0  0  0  0  0  0
  1 10  1  0  0  0  0
  1 18  1  0  0  0  0
  2  3  1  0  0  0  0
  2  7  2  0  0  0  0
  3 11  1  0  0  0  0
  4 10  2  0  0  0  0
  4 15  1  0  0  0  0
  5 13  1  0  0  0  0
  5 16  1  0  0  0  0
  5 17  1  0  0  0  0
  6 19  1  0  0  0  0
  7  8  1  0  0  0  0
  7  9  1  0  0  0  0
  8 10  1  0  0  0  0
  8 12  2  0  0  0  0
  9 11  2  0  0  0  0
  9 13  1  0  0  0  0
 12 14  1  0  0  0  0
 14 15  2  0  0  0  0
 16 19  1  0  0  0  0
M  END
> <PUBCHEM_COMPOUND_ID_TYPE>
0

> <PUBCHEM_TOTAL_CHARGE>
0

> <PUBCHEM_SUBSTANCE_ID>
310947731

> <PUBCHEM_SUBSTANCE_VERSION>
1

> <PUBCHEM_EXT_DATASOURCE_NAME>
4488

> <PUBCHEM_EXT_DATASOURCE_REGID>
SCHEMBL16125903

> <PUBCHEM_SUBSTANCE_COMMENT>
InChI=1S/C13H19N5O/c1-18(7-5-14)9-10-8-16-17-12(10)11-4-3-6-15-13(11)19-2/h3-4,6,8H,5,7,9,14H2,1-2H3,(H,16,17)
InChIKey=GDTDKSRBIPWBFC-UHFFFAOYSA-N

> <PUBCHEM_SUBSTANCE_SYNONYM>
SCHEMBL16125903

> <PUBCHEM_XREF_EXT_ID>
SCHEMBL16125903

> <PUBCHEM_EXT_DATASOURCE_URL>
https://www.surechembl.org/

> <PUBCHEM_EXT_SUBSTANCE_URL>
https://www.surechembl.org/chemical/SCHEMBL16125903

> <PUBCHEM_CID_ASSOCIATIONS>
86301529  1

> <PUBCHEM_COORDINATE_TYPE>
1
3

$$$$
