310941202
  -OEChem-07211613022D

 19 21  0     1  0  0  0  0  0999 V2000
    1.0675    0.7849    0.0000 S   0  0  0  0  0  0  0  0  0  0  0  0
    1.8001    1.2036    0.0000 O   0  0  0  0  0  0  0  0  0  0  0  0
    1.8001    0.3663    0.0000 O   0  0  0  0  0  0  0  0  0  0  0  0
    0.3349    0.3873    0.0000 N   0  0  3  0  0  0  0  0  0  0  0  0
   -0.3977    0.8478    0.0000 C   0  0  0  0  0  0  0  0  0  0  0  0
   -0.3768    1.6850    0.0000 C   0  0  0  0  0  0  0  0  0  0  0  0
    1.0675    1.6850    0.0000 C   0  0  0  0  0  0  0  0  0  0  0  0
    0.3349   -0.4291    0.0000 C   0  0  0  0  0  0  0  0  0  0  0  0
    0.3349    2.0827    0.0000 C   0  0  0  0  0  0  0  0  0  0  0  0
   -1.0885    0.4291    0.0000 C   0  0  0  0  0  0  0  0  0  0  0  0
   -1.1303    2.0827    0.0000 C   0  0  0  0  0  0  0  0  0  0  0  0
   -0.3768   -0.8268    0.0000 C   0  0  0  0  0  0  0  0  0  0  0  0
   -1.8001    0.8268    0.0000 C   0  0  0  0  0  0  0  0  0  0  0  0
   -1.8001    1.6850    0.0000 C   0  0  0  0  0  0  0  0  0  0  0  0
   -1.1303   -0.4291    0.0000 C   0  0  0  0  0  0  0  0  0  0  0  0
   -0.3977   -1.6850    0.0000 C   0  0  0  0  0  0  0  0  0  0  0  0
   -1.8001   -0.8268    0.0000 C   0  0  0  0  0  0  0  0  0  0  0  0
   -1.0885   -2.0827    0.0000 C   0  0  0  0  0  0  0  0  0  0  0  0
   -1.8001   -1.6850    0.0000 C   0  0  0  0  0  0  0  0  0  0  0  0
  1  2  2  0  0  0  0
  1  3  2  0  0  0  0
  1  4  1  0  0  0  0
  1  7  1  0  0  0  0
  4  5  1  0  0  0  0
  4  8  1  0  0  0  0
  5  6  1  0  0  0  0
  5 10  2  0  0  0  0
  6  9  1  0  0  0  0
  6 11  2  0  0  0  0
  7  9  2  0  0  0  0
  8 12  1  0  0  0  0
 10 13  1  0  0  0  0
 11 14  1  0  0  0  0
 12 15  2  0  0  0  0
 12 16  1  0  0  0  0
 13 14  2  0  0  0  0
 15 17  1  0  0  0  0
 16 18  2  0  0  0  0
 17 19  2  0  0  0  0
 18 19  1  0  0  0  0
M  END
> <PUBCHEM_COMPOUND_ID_TYPE>
0

> <PUBCHEM_TOTAL_CHARGE>
0

> <PUBCHEM_SUBSTANCE_ID>
310941202

> <PUBCHEM_SUBSTANCE_VERSION>
1

> <PUBCHEM_EXT_DATASOURCE_NAME>
4488

> <PUBCHEM_EXT_DATASOURCE_REGID>
SCHEMBL16119162

> <PUBCHEM_SUBSTANCE_COMMENT>
InChI=1S/C15H13NO2S/c17-19(18)11-10-14-8-4-5-9-15(14)16(19)12-13-6-2-1-3-7-13/h1-11H,12H2
InChIKey=WVGWMXABLZCRGW-UHFFFAOYSA-N

> <PUBCHEM_SUBSTANCE_SYNONYM>
SCHEMBL16119162

> <PUBCHEM_XREF_EXT_ID>
SCHEMBL16119162

> <PUBCHEM_EXT_DATASOURCE_URL>
https://www.surechembl.org/

> <PUBCHEM_EXT_SUBSTANCE_URL>
https://www.surechembl.org/chemical/SCHEMBL16119162

> <PUBCHEM_CID_ASSOCIATIONS>
101859068  1

> <PUBCHEM_COORDINATE_TYPE>
1
3

$$$$
