310937192
  -OEChem-07211613022D

 17 18  0     1  0  0  0  0  0999 V2000
    0.0000   -1.2744    0.0000 Br  0  0  0  0  0  0  0  0  0  0  0  0
    2.1490   -4.1730    0.0000 O   0  0  0  0  0  0  0  0  0  0  0  0
    0.6997   -4.1730    0.0000 O   0  0  0  0  0  0  0  0  0  0  0  0
    2.9487   -1.4243    0.0000 N   0  0  3  0  0  0  0  0  0  0  0  0
    2.1490   -2.4988    0.0000 C   0  0  0  0  0  0  0  0  0  0  0  0
    2.1490   -1.6742    0.0000 C   0  0  0  0  0  0  0  0  0  0  0  0
    1.4243   -2.9236    0.0000 C   0  0  0  0  0  0  0  0  0  0  0  0
    1.4243   -1.2494    0.0000 C   0  0  0  0  0  0  0  0  0  0  0  0
    2.9487   -2.7737    0.0000 C   0  0  0  0  0  0  0  0  0  0  0  0
    0.7247   -2.4988    0.0000 C   0  0  0  0  0  0  0  0  0  0  0  0
    0.7247   -1.6742    0.0000 C   0  0  0  0  0  0  0  0  0  0  0  0
    1.4243   -3.7483    0.0000 C   0  0  0  0  0  0  0  0  0  0  0  0
    3.4234   -2.0990    0.0000 C   0  0  0  0  0  0  0  0  0  0  0  0
    3.1985   -0.6247    0.0000 C   0  0  0  0  0  0  0  0  0  0  0  0
    2.6488    0.0000    0.0000 C   0  0  0  0  0  0  0  0  0  0  0  0
    2.1490   -4.9977    0.0000 C   0  0  0  0  0  0  0  0  0  0  0  0
    1.8491   -0.1749    0.0000 C   0  0  0  0  0  0  0  0  0  0  0  0
  1 11  1  0  0  0  0
  2 12  1  0  0  0  0
  2 16  1  0  0  0  0
  3 12  2  0  0  0  0
  4  6  1  0  0  0  0
  4 13  1  0  0  0  0
  4 14  1  0  0  0  0
  5  6  2  0  0  0  0
  5  7  1  0  0  0  0
  5  9  1  0  0  0  0
  6  8  1  0  0  0  0
  7 10  2  0  0  0  0
  7 12  1  0  0  0  0
  8 11  2  0  0  0  0
  9 13  1  0  0  0  0
 10 11  1  0  0  0  0
 14 15  1  0  0  0  0
 15 17  1  0  0  0  0
M  END
> <PUBCHEM_COMPOUND_ID_TYPE>
0

> <PUBCHEM_TOTAL_CHARGE>
0

> <PUBCHEM_SUBSTANCE_ID>
310937192

> <PUBCHEM_SUBSTANCE_VERSION>
1

> <PUBCHEM_EXT_DATASOURCE_NAME>
4488

> <PUBCHEM_EXT_DATASOURCE_REGID>
SCHEMBL16114919

> <PUBCHEM_SUBSTANCE_COMMENT>
InChI=1S/C13H16BrNO2/c1-3-5-15-6-4-10-11(13(16)17-2)7-9(14)8-12(10)15/h7-8H,3-6H2,1-2H3
InChIKey=NGYHVZHYUASNRE-UHFFFAOYSA-N

> <PUBCHEM_SUBSTANCE_SYNONYM>
SCHEMBL16114919

> <PUBCHEM_XREF_EXT_ID>
SCHEMBL16114919

> <PUBCHEM_EXT_DATASOURCE_URL>
https://www.surechembl.org/

> <PUBCHEM_EXT_SUBSTANCE_URL>
https://www.surechembl.org/chemical/SCHEMBL16114919

> <PUBCHEM_CID_ASSOCIATIONS>
117605006  1

> <PUBCHEM_COORDINATE_TYPE>
1
3

$$$$
