310932313
  -OEChem-07211613022D

 25 28  0     1  0  0  0  0  0999 V2000
    3.2919    0.0000    0.0000 O   0  0  0  0  0  0  0  0  0  0  0  0
    4.4112   -1.9532    0.0000 O   0  0  0  0  0  0  0  0  0  0  0  0
    5.1355   -0.7023    0.0000 O   0  0  0  0  0  0  0  0  0  0  0  0
    3.7090   -0.7023    0.0000 C   0  0  3  0  0  0  0  0  0  0  0  0
    2.8750   -0.7023    0.0000 C   0  0  3  0  0  0  0  0  0  0  0  0
    3.4895   -1.5143    0.0000 C   0  0  0  0  0  0  0  0  0  0  0  0
    4.4112   -1.1193    0.0000 C   0  0  0  0  0  0  0  0  0  0  0  0
    2.1507   -1.1193    0.0000 C   0  0  0  0  0  0  0  0  0  0  0  0
    4.0821   -2.1068    0.0000 C   0  0  0  0  0  0  0  0  0  0  0  0
    2.6994   -1.7338    0.0000 C   0  0  0  0  0  0  0  0  0  0  0  0
    2.1507   -1.9532    0.0000 C   0  0  0  0  0  0  0  0  0  0  0  0
    1.4485   -0.7242    0.0000 C   0  0  0  0  0  0  0  0  0  0  0  0
    5.1355   -2.3702    0.0000 C   0  0  0  0  0  0  0  0  0  0  0  0
    3.8625   -2.8969    0.0000 C   0  0  0  0  0  0  0  0  0  0  0  0
    2.4799   -2.5238    0.0000 C   0  0  0  0  0  0  0  0  0  0  0  0
    1.4485   -2.3702    0.0000 C   0  0  0  0  0  0  0  0  0  0  0  0
    0.7242   -1.1193    0.0000 C   0  0  0  0  0  0  0  0  0  0  0  0
    0.7242   -1.9532    0.0000 C   0  0  0  0  0  0  0  0  0  0  0  0
    3.0505   -3.1164    0.0000 C   0  0  0  0  0  0  0  0  0  0  0  0
    5.8597   -1.9752    0.0000 C   0  0  0  0  0  0  0  0  0  0  0  0
    5.1574   -3.2042    0.0000 C   0  0  0  0  0  0  0  0  0  0  0  0
    0.0000   -2.3702    0.0000 C   0  0  0  0  0  0  0  0  0  0  0  0
    6.5620   -2.3702    0.0000 C   0  0  0  0  0  0  0  0  0  0  0  0
    5.8597   -3.5992    0.0000 C   0  0  0  0  0  0  0  0  0  0  0  0
    6.5839   -3.2042    0.0000 C   0  0  0  0  0  0  0  0  0  0  0  0
  1  4  1  0  0  0  0
  1  5  1  0  0  0  0
  2  7  1  0  0  0  0
  2 13  1  0  0  0  0
  3  7  2  0  0  0  0
  4  5  1  0  0  0  0
  4  6  1  0  0  0  0
  4  7  1  0  0  0  0
  5  8  1  0  0  0  0
  6  9  2  0  0  0  0
  6 10  1  0  0  0  0
  8 11  2  0  0  0  0
  8 12  1  0  0  0  0
  9 14  1  0  0  0  0
 10 15  2  0  0  0  0
 11 16  1  0  0  0  0
 12 17  2  0  0  0  0
 13 20  1  0  0  0  0
 13 21  1  0  0  0  0
 14 19  2  0  0  0  0
 15 19  1  0  0  0  0
 16 18  2  0  0  0  0
 17 18  1  0  0  0  0
 18 22  1  0  0  0  0
 20 23  1  0  0  0  0
 21 24  1  0  0  0  0
 23 25  1  0  0  0  0
 24 25  1  0  0  0  0
M  END
> <PUBCHEM_COMPOUND_ID_TYPE>
0

> <PUBCHEM_TOTAL_CHARGE>
0

> <PUBCHEM_SUBSTANCE_ID>
310932313

> <PUBCHEM_SUBSTANCE_VERSION>
1

> <PUBCHEM_EXT_DATASOURCE_NAME>
4488

> <PUBCHEM_EXT_DATASOURCE_REGID>
SCHEMBL16109679

> <PUBCHEM_SUBSTANCE_COMMENT>
InChI=1S/C22H24O3/c1-16-12-14-17(15-13-16)20-22(25-20,18-8-4-2-5-9-18)21(23)24-19-10-6-3-7-11-19/h2,4-5,8-9,12-15,19-20H,3,6-7,10-11H2,1H3
InChIKey=XJPUPKAAIIZCIY-UHFFFAOYSA-N

> <PUBCHEM_SUBSTANCE_SYNONYM>
SCHEMBL16109679

> <PUBCHEM_XREF_EXT_ID>
SCHEMBL16109679

> <PUBCHEM_EXT_DATASOURCE_URL>
https://www.surechembl.org/

> <PUBCHEM_EXT_SUBSTANCE_URL>
https://www.surechembl.org/chemical/SCHEMBL16109679

> <PUBCHEM_CID_ASSOCIATIONS>
117600871  1

> <PUBCHEM_COORDINATE_TYPE>
1
3

$$$$
