310937016
  -OEChem-07211613022D

 24 26  0     1  0  0  0  0  0999 V2000
   -1.5099   -1.9520    0.0000 O   0  0  0  0  0  0  0  0  0  0  0  0
   -0.2724   -1.2375    0.0000 O   0  0  0  0  0  0  0  0  0  0  0  0
   -3.9849   -0.5230    0.0000 O   0  0  0  0  0  0  0  0  0  0  0  0
   -1.5099   -0.5230    0.0000 N   0  0  0  0  0  0  0  0  0  0  0  0
   -4.8099   -3.3809    0.0000 N   0  0  0  0  0  0  0  0  0  0  0  0
   -1.0974    0.1914    0.0000 C   0  0  0  0  0  0  0  0  0  0  0  0
   -1.0974    1.6204    0.0000 C   0  0  0  0  0  0  0  0  0  0  0  0
   -0.2724    1.6204    0.0000 C   0  0  0  0  0  0  0  0  0  0  0  0
   -1.5099    0.9059    0.0000 C   0  0  0  0  0  0  0  0  0  0  0  0
   -0.2724    0.1914    0.0000 C   0  0  0  0  0  0  0  0  0  0  0  0
    0.1401    0.9059    0.0000 C   0  0  0  0  0  0  0  0  0  0  0  0
   -1.0974   -1.2375    0.0000 C   0  0  0  0  0  0  0  0  0  0  0  0
   -2.3349   -0.5230    0.0000 C   0  0  0  0  0  0  0  0  0  0  0  0
   -1.5099    2.3349    0.0000 C   0  0  0  0  0  0  0  0  0  0  0  0
    0.1401    2.3349    0.0000 C   0  0  0  0  0  0  0  0  0  0  0  0
   -3.5724   -1.2375    0.0000 C   0  0  3  0  0  0  0  0  0  0  0  0
   -3.9849   -1.9520    0.0000 C   0  0  0  0  0  0  0  0  0  0  0  0
   -2.7474   -1.2375    0.0000 C   0  0  0  0  0  0  0  0  0  0  0  0
   -1.0974    3.0493    0.0000 C   0  0  0  0  0  0  0  0  0  0  0  0
   -0.2724    3.0493    0.0000 C   0  0  0  0  0  0  0  0  0  0  0  0
   -4.8099   -1.9520    0.0000 C   0  0  0  0  0  0  0  0  0  0  0  0
   -3.5724   -2.6664    0.0000 C   0  0  0  0  0  0  0  0  0  0  0  0
   -5.2224   -2.6664    0.0000 C   0  0  0  0  0  0  0  0  0  0  0  0
   -3.9849   -3.3809    0.0000 C   0  0  0  0  0  0  0  0  0  0  0  0
  1 12  2  0  0  0  0
  2 12  1  0  0  0  0
  3 16  1  0  0  0  0
  4  6  1  0  0  0  0
  4 12  1  0  0  0  0
  4 13  1  0  0  0  0
  5 23  2  0  0  0  0
  5 24  1  0  0  0  0
  6  9  2  0  0  0  0
  6 10  1  0  0  0  0
  7  8  2  0  0  0  0
  7  9  1  0  0  0  0
  7 14  1  0  0  0  0
  8 11  1  0  0  0  0
  8 15  1  0  0  0  0
 10 11  2  0  0  0  0
 13 18  1  0  0  0  0
 14 19  2  0  0  0  0
 15 20  2  0  0  0  0
 16 17  1  0  0  0  0
 16 18  1  0  0  0  0
 17 21  2  0  0  0  0
 17 22  1  0  0  0  0
 19 20  1  0  0  0  0
 21 23  1  0  0  0  0
 22 24  2  0  0  0  0
M  END
> <PUBCHEM_COMPOUND_ID_TYPE>
0

> <PUBCHEM_TOTAL_CHARGE>
0

> <PUBCHEM_SUBSTANCE_ID>
310937016

> <PUBCHEM_SUBSTANCE_VERSION>
1

> <PUBCHEM_EXT_DATASOURCE_NAME>
4488

> <PUBCHEM_EXT_DATASOURCE_REGID>
SCHEMBL16114725

> <PUBCHEM_SUBSTANCE_COMMENT>
InChI=1S/C19H18N2O3/c22-18(15-7-10-20-11-8-15)9-12-21(19(23)24)17-6-5-14-3-1-2-4-16(14)13-17/h1-8,10-11,13,18,22H,9,12H2,(H,23,24)
InChIKey=KNBFVLRHGNTPBL-UHFFFAOYSA-N

> <PUBCHEM_SUBSTANCE_SYNONYM>
SCHEMBL16114725

> <PUBCHEM_XREF_EXT_ID>
SCHEMBL16114725

> <PUBCHEM_EXT_DATASOURCE_URL>
https://www.surechembl.org/

> <PUBCHEM_EXT_SUBSTANCE_URL>
https://www.surechembl.org/chemical/SCHEMBL16114725

> <PUBCHEM_CID_ASSOCIATIONS>
117604870  1

> <PUBCHEM_COORDINATE_TYPE>
1
3

$$$$
