310944181
  -OEChem-07211613022D

 36 39  0     1  0  0  0  0  0999 V2000
   -0.4220   -2.6756    0.0000 O   0  0  0  0  0  0  0  0  0  0  0  0
   -4.5608    3.7905    0.0000 O   0  0  0  0  0  0  0  0  0  0  0  0
    4.4010   -0.1397    0.0000 O   0  0  0  0  0  0  0  0  0  0  0  0
    3.9038   -0.9573    0.0000 O   0  0  0  0  0  0  0  0  0  0  0  0
   -1.1466   -1.4493    0.0000 N   0  0  0  0  0  0  0  0  0  0  0  0
   -0.4777   -0.9476    0.0000 N   0  0  0  0  0  0  0  0  0  0  0  0
   -3.5575    2.4666    0.0000 N   0  0  0  0  0  0  0  0  0  0  0  0
    0.5814    0.4180    0.0000 N   0  0  3  0  0  0  0  0  0  0  0  0
    2.3791    1.6722    0.0000 N   0  0  0  0  0  0  0  0  0  0  0  0
   -1.5926   -0.1533    0.0000 C   0  0  0  0  0  0  0  0  0  0  0  0
   -0.7564   -0.1533    0.0000 C   0  0  0  0  0  0  0  0  0  0  0  0
   -2.0942    0.5017    0.0000 C   0  0  0  0  0  0  0  0  0  0  0  0
   -1.8434   -0.9476    0.0000 C   0  0  0  0  0  0  0  0  0  0  0  0
   -1.1466   -2.2436    0.0000 C   0  0  3  0  0  0  0  0  0  0  0  0
   -0.2547    0.5156    0.0000 C   0  0  0  0  0  0  0  0  0  0  0  0
   -2.9164    0.4180    0.0000 C   0  0  0  0  0  0  0  0  0  0  0  0
   -1.7598    1.2542    0.0000 C   0  0  0  0  0  0  0  0  0  0  0  0
   -3.0837    1.8256    0.0000 C   0  0  0  0  0  0  0  0  0  0  0  0
   -3.4042    1.0731    0.0000 C   0  0  0  0  0  0  0  0  0  0  0  0
   -2.2615    1.9091    0.0000 C   0  0  0  0  0  0  0  0  0  0  0  0
   -1.8852   -2.6478    0.0000 C   0  0  0  0  0  0  0  0  0  0  0  0
   -0.4359   -3.4839    0.0000 C   0  0  0  0  0  0  0  0  0  0  0  0
   -1.8852   -3.4700    0.0000 C   0  0  0  0  0  0  0  0  0  0  0  0
   -4.4215    2.3969    0.0000 C   0  0  0  0  0  0  0  0  0  0  0  0
   -3.2509    3.2331    0.0000 C   0  0  0  0  0  0  0  0  0  0  0  0
    1.0413    1.1009    0.0000 C   0  0  0  0  0  0  0  0  0  0  0  0
   -1.1466   -3.8880    0.0000 C   0  0  0  0  0  0  0  0  0  0  0  0
    0.9298   -0.3344    0.0000 C   0  0  0  0  0  0  0  0  0  0  0  0
   -4.9093    3.0519    0.0000 C   0  0  0  0  0  0  0  0  0  0  0  0
   -3.7386    3.8880    0.0000 C   0  0  0  0  0  0  0  0  0  0  0  0
    1.8774    1.0173    0.0000 C   0  0  0  0  0  0  0  0  0  0  0  0
    3.9038   -0.4270    0.0000 C   0  0  0  0  0  0  0  0  0  0  0  0
    4.4120    0.4128    0.0000 C   0  0  0  0  0  0  0  0  0  0  0  0
    4.9093    0.4348    0.0000 C   0  0  0  0  0  0  0  0  0  0  0  0
    3.9038    0.4128    0.0000 C   0  0  0  0  0  0  0  0  0  0  0  0
    4.4010    0.9541    0.0000 C   0  0  0  0  0  0  0  0  0  0  0  0
  1 14  1  0  0  0  0
  1 22  1  0  0  0  0
  2 29  1  0  0  0  0
  2 30  1  0  0  0  0
  3 32  1  0  0  0  0
  3 33  1  0  0  0  0
  4 32  2  0  0  0  0
  5  6  1  0  0  0  0
  5 13  1  0  0  0  0
  5 14  1  0  0  0  0
  6 11  2  0  0  0  0
  7 18  1  0  0  0  0
  7 24  1  0  0  0  0
  7 25  1  0  0  0  0
  8 15  1  0  0  0  0
  8 26  1  0  0  0  0
  8 28  1  0  0  0  0
  9 31  1  0  0  0  0
  9 32  1  0  0  0  0
 10 11  1  0  0  0  0
 10 12  1  0  0  0  0
 10 13  2  0  0  0  0
 11 15  1  0  0  0  0
 12 16  1  0  0  0  0
 12 17  1  0  0  0  0
 14 21  1  0  0  0  0
 16 19  1  0  0  0  0
 17 20  1  0  0  0  0
 18 19  1  0  0  0  0
 18 20  1  0  0  0  0
 21 23  1  0  0  0  0
 22 27  1  0  0  0  0
 23 27  1  0  0  0  0
 24 29  1  0  0  0  0
 25 30  1  0  0  0  0
 26 31  1  0  0  0  0
 33 34  1  0  0  0  0
 33 35  1  0  0  0  0
 33 36  1  0  0  0  0
M  END
> <PUBCHEM_COMPOUND_ID_TYPE>
0

> <PUBCHEM_TOTAL_CHARGE>
0

> <PUBCHEM_SUBSTANCE_ID>
310944181

> <PUBCHEM_SUBSTANCE_VERSION>
1

> <PUBCHEM_EXT_DATASOURCE_NAME>
4488

> <PUBCHEM_EXT_DATASOURCE_REGID>
SCHEMBL16122256

> <PUBCHEM_SUBSTANCE_COMMENT>
InChI=1S/C27H47N5O4/c1-27(2,3)36-26(33)28-12-13-30(4)20-24-23(19-32(29-24)25-7-5-6-16-35-25)21-8-10-22(11-9-21)31-14-17-34-18-15-31/h19,21-22,25H,5-18,20H2,1-4H3,(H,28,33)
InChIKey=TYTOCBTUAXTCJF-UHFFFAOYSA-N

> <PUBCHEM_SUBSTANCE_SYNONYM>
SCHEMBL16122256

> <PUBCHEM_XREF_EXT_ID>
SCHEMBL16122256

> <PUBCHEM_EXT_DATASOURCE_URL>
https://www.surechembl.org/

> <PUBCHEM_EXT_SUBSTANCE_URL>
https://www.surechembl.org/chemical/SCHEMBL16122256

> <PUBCHEM_CID_ASSOCIATIONS>
117610455  1

> <PUBCHEM_COORDINATE_TYPE>
1
3

$$$$
