310938604
  -OEChem-07211613022D

 15 15  0     1  0  0  0  0  0999 V2000
   -2.4166   -1.4145    0.0000 Cl  0  0  0  0  0  0  0  0  0  0  0  0
   -2.4166   -3.8895    0.0000 O   0  0  0  0  0  0  0  0  0  0  0  0
   -0.2732   -1.8270    0.0000 C   0  0  0  0  0  0  0  0  0  0  0  0
    0.4413   -1.4145    0.0000 C   0  0  3  0  0  0  0  0  0  0  0  0
    1.1558   -1.8270    0.0000 C   0  0  0  0  0  0  0  0  0  0  0  0
   -1.7021   -1.8270    0.0000 C   0  0  0  0  0  0  0  0  0  0  0  0
   -1.7021   -2.6520    0.0000 C   0  0  0  0  0  0  0  0  0  0  0  0
   -0.9877   -1.4145    0.0000 C   0  0  0  0  0  0  0  0  0  0  0  0
   -0.2732   -2.6520    0.0000 C   0  0  0  0  0  0  0  0  0  0  0  0
   -0.9877   -3.0645    0.0000 C   0  0  0  0  0  0  0  0  0  0  0  0
   -2.4166   -3.0645    0.0000 C   0  0  0  0  0  0  0  0  0  0  0  0
    0.4413   -0.5895    0.0000 C   0  0  0  0  0  0  0  0  0  0  0  0
    0.7433   -2.5414    0.0000 C   0  0  0  0  0  0  0  0  0  0  0  0
    1.5683   -1.1125    0.0000 C   0  0  0  0  0  0  0  0  0  0  0  0
    1.8702   -2.2395    0.0000 C   0  0  0  0  0  0  0  0  0  0  0  0
  1  6  1  0  0  0  0
  2 11  1  0  0  0  0
  3  4  1  0  0  0  0
  3  8  2  0  0  0  0
  3  9  1  0  0  0  0
  4  5  1  0  0  0  0
  4 12  1  0  0  0  0
  5 13  1  0  0  0  0
  5 14  1  0  0  0  0
  5 15  1  0  0  0  0
  6  7  2  0  0  0  0
  6  8  1  0  0  0  0
  7 10  1  0  0  0  0
  7 11  1  0  0  0  0
  9 10  2  0  0  0  0
M  END
> <PUBCHEM_COMPOUND_ID_TYPE>
0

> <PUBCHEM_TOTAL_CHARGE>
0

> <PUBCHEM_SUBSTANCE_ID>
310938604

> <PUBCHEM_SUBSTANCE_VERSION>
1

> <PUBCHEM_EXT_DATASOURCE_NAME>
4488

> <PUBCHEM_EXT_DATASOURCE_REGID>
SCHEMBL16116518

> <PUBCHEM_SUBSTANCE_COMMENT>
InChI=1S/C13H19ClO/c1-9(13(2,3)4)10-5-6-11(8-15)12(14)7-10/h5-7,9,15H,8H2,1-4H3
InChIKey=SGTNOXRSOZIBHE-UHFFFAOYSA-N

> <PUBCHEM_SUBSTANCE_SYNONYM>
SCHEMBL16116518

> <PUBCHEM_XREF_EXT_ID>
SCHEMBL16116518

> <PUBCHEM_EXT_DATASOURCE_URL>
https://www.surechembl.org/

> <PUBCHEM_EXT_SUBSTANCE_URL>
https://www.surechembl.org/chemical/SCHEMBL16116518

> <PUBCHEM_CID_ASSOCIATIONS>
117606037  1

> <PUBCHEM_COORDINATE_TYPE>
1
3

> <PUBCHEM_BONDANNOTATIONS>
5  13  3
5  14  3

$$$$
