310937227
  -OEChem-07211613022D

 18 19  0     1  0  0  0  0  0999 V2000
    0.8312   -3.5372    0.0000 Br  0  0  0  0  0  0  0  0  0  0  0  0
    0.0000   -0.6897    0.0000 O   0  0  0  0  0  0  0  0  0  0  0  0
    2.4760   -0.7074    0.0000 N   0  0  3  0  0  0  0  0  0  0  0  0
    2.4760   -2.1223    0.0000 N   0  0  0  0  0  0  0  0  0  0  0  0
    2.0693   -1.4149    0.0000 C   0  0  0  0  0  0  0  0  0  0  0  0
    1.2380   -1.3972    0.0000 C   0  0  0  0  0  0  0  0  0  0  0  0
    3.3073   -0.7251    0.0000 C   0  0  0  0  0  0  0  0  0  0  0  0
    0.8312   -2.1223    0.0000 C   0  0  0  0  0  0  0  0  0  0  0  0
    1.2380   -2.8298    0.0000 C   0  0  0  0  0  0  0  0  0  0  0  0
    2.0693   -2.8474    0.0000 C   0  0  0  0  0  0  0  0  0  0  0  0
    2.0693    0.0000    0.0000 C   0  0  0  0  0  0  0  0  0  0  0  0
    0.8312   -0.6897    0.0000 C   0  0  0  0  0  0  0  0  0  0  0  0
    3.7671   -0.0354    0.0000 C   0  0  0  0  0  0  0  0  0  0  0  0
    3.7317   -1.4502    0.0000 C   0  0  0  0  0  0  0  0  0  0  0  0
    4.5630   -0.0354    0.0000 C   0  0  0  0  0  0  0  0  0  0  0  0
    4.5453   -1.4502    0.0000 C   0  0  0  0  0  0  0  0  0  0  0  0
    4.9874   -0.7428    0.0000 C   0  0  0  0  0  0  0  0  0  0  0  0
    1.2557    0.0000    0.0000 C   0  0  0  0  0  0  0  0  0  0  0  0
  1  9  1  0  0  0  0
  2 12  1  0  0  0  0
  3  5  1  0  0  0  0
  3  7  1  0  0  0  0
  3 11  1  0  0  0  0
  4  5  1  0  0  0  0
  4 10  2  0  0  0  0
  5  6  2  0  0  0  0
  6  8  1  0  0  0  0
  6 12  1  0  0  0  0
  7 13  1  0  0  0  0
  7 14  1  0  0  0  0
  8  9  2  0  0  0  0
  9 10  1  0  0  0  0
 11 18  1  0  0  0  0
 13 15  1  0  0  0  0
 14 16  1  0  0  0  0
 15 17  1  0  0  0  0
 16 17  1  0  0  0  0
M  END
> <PUBCHEM_COMPOUND_ID_TYPE>
0

> <PUBCHEM_TOTAL_CHARGE>
0

> <PUBCHEM_SUBSTANCE_ID>
310937227

> <PUBCHEM_SUBSTANCE_VERSION>
1

> <PUBCHEM_EXT_DATASOURCE_NAME>
4488

> <PUBCHEM_EXT_DATASOURCE_REGID>
SCHEMBL16114963

> <PUBCHEM_SUBSTANCE_COMMENT>
InChI=1S/C14H21BrN2O/c1-2-17(13-6-4-3-5-7-13)14-11(10-18)8-12(15)9-16-14/h8-9,13,18H,2-7,10H2,1H3
InChIKey=RBONENKLPBBPJC-UHFFFAOYSA-N

> <PUBCHEM_SUBSTANCE_SYNONYM>
SCHEMBL16114963

> <PUBCHEM_XREF_EXT_ID>
SCHEMBL16114963

> <PUBCHEM_EXT_DATASOURCE_URL>
https://www.surechembl.org/

> <PUBCHEM_EXT_SUBSTANCE_URL>
https://www.surechembl.org/chemical/SCHEMBL16114963

> <PUBCHEM_CID_ASSOCIATIONS>
61995186  1

> <PUBCHEM_COORDINATE_TYPE>
1
3

$$$$
