310944527
  -OEChem-07211613022D

 49 57  0     1  0  0  0  0  0999 V2000
    0.3963    4.0926    0.0000 F   0  0  0  0  0  0  0  0  0  0  0  0
    0.3316    0.7765    0.0000 N   0  0  0  0  0  0  0  0  0  0  0  0
    2.5478    3.5588    0.0000 N   0  0  0  0  0  0  0  0  0  0  0  0
   -1.7551    3.6720    0.0000 N   0  0  0  0  0  0  0  0  0  0  0  0
    1.5125   -1.6823    0.0000 C   0  0  3  0  0  0  0  0  0  0  0  0
    1.6905   -0.8897    0.0000 C   0  0  0  0  0  0  0  0  0  0  0  0
    0.6875   -1.7632    0.0000 C   0  0  0  0  0  0  0  0  0  0  0  0
    1.3022   -2.5235    0.0000 C   0  0  0  0  0  0  0  0  0  0  0  0
    2.3536   -1.7147    0.0000 C   0  0  0  0  0  0  0  0  0  0  0  0
    1.0272   -0.4691    0.0000 C   0  0  0  0  0  0  0  0  0  0  0  0
    0.3801   -1.0029    0.0000 C   0  0  0  0  0  0  0  0  0  0  0  0
    1.9007   -3.0735    0.0000 C   0  0  0  0  0  0  0  0  0  0  0  0
    2.7904   -2.4264    0.0000 C   0  0  0  0  0  0  0  0  0  0  0  0
    1.0272    0.3882    0.0000 C   0  0  0  0  0  0  0  0  0  0  0  0
    2.4507   -0.4691    0.0000 C   0  0  0  0  0  0  0  0  0  0  0  0
    0.1860   -2.4264    0.0000 C   0  0  0  0  0  0  0  0  0  0  0  0
    0.5257   -2.7662    0.0000 C   0  0  0  0  0  0  0  0  0  0  0  0
    2.7904   -0.9706    0.0000 C   0  0  0  0  0  0  0  0  0  0  0  0
   -0.4449   -0.9221    0.0000 C   0  0  0  0  0  0  0  0  0  0  0  0
    1.6580   -3.8985    0.0000 C   0  0  0  0  0  0  0  0  0  0  0  0
    3.6478   -2.4103    0.0000 C   0  0  0  0  0  0  0  0  0  0  0  0
    1.7228    0.7603    0.0000 C   0  0  0  0  0  0  0  0  0  0  0  0
    2.4507    0.3559    0.0000 C   0  0  0  0  0  0  0  0  0  0  0  0
   -0.5905   -2.3294    0.0000 C   0  0  0  0  0  0  0  0  0  0  0  0
    0.2993   -3.5264    0.0000 C   0  0  0  0  0  0  0  0  0  0  0  0
    3.6154   -0.9706    0.0000 C   0  0  0  0  0  0  0  0  0  0  0  0
   -0.9301   -1.5853    0.0000 C   0  0  0  0  0  0  0  0  0  0  0  0
    0.8816   -4.0926    0.0000 C   0  0  0  0  0  0  0  0  0  0  0  0
    4.0360   -1.6823    0.0000 C   0  0  0  0  0  0  0  0  0  0  0  0
    0.3316    1.6338    0.0000 C   0  0  0  0  0  0  0  0  0  0  0  0
   -0.4125    0.4044    0.0000 C   0  0  0  0  0  0  0  0  0  0  0  0
    1.0595    2.0544    0.0000 C   0  0  0  0  0  0  0  0  0  0  0  0
   -0.3478    2.0706    0.0000 C   0  0  0  0  0  0  0  0  0  0  0  0
   -1.1405    0.8250    0.0000 C   0  0  0  0  0  0  0  0  0  0  0  0
   -0.4287   -0.4206    0.0000 C   0  0  0  0  0  0  0  0  0  0  0  0
    1.0595    2.8632    0.0000 C   0  0  0  0  0  0  0  0  0  0  0  0
   -0.3478    2.8956    0.0000 C   0  0  0  0  0  0  0  0  0  0  0  0
    0.3640    3.2838    0.0000 C   0  0  0  0  0  0  0  0  0  0  0  0
   -1.8360    0.4368    0.0000 C   0  0  0  0  0  0  0  0  0  0  0  0
   -1.1566   -0.8088    0.0000 C   0  0  0  0  0  0  0  0  0  0  0  0
   -1.8522   -0.3721    0.0000 C   0  0  0  0  0  0  0  0  0  0  0  0
    1.8199    3.2353    0.0000 C   0  0  0  0  0  0  0  0  0  0  0  0
   -1.0595    3.3000    0.0000 C   0  0  0  0  0  0  0  0  0  0  0  0
   -2.5963   -0.7603    0.0000 C   0  0  0  0  0  0  0  0  0  0  0  0
   -3.3080   -0.3559    0.0000 C   0  0  0  0  0  0  0  0  0  0  0  0
   -2.6125   -1.6014    0.0000 C   0  0  0  0  0  0  0  0  0  0  0  0
   -4.0360   -0.7441    0.0000 C   0  0  0  0  0  0  0  0  0  0  0  0
   -3.2919   -1.9735    0.0000 C   0  0  0  0  0  0  0  0  0  0  0  0
   -4.0198   -1.5691    0.0000 C   0  0  0  0  0  0  0  0  0  0  0  0
  1 38  1  0  0  0  0
  2 14  1  0  0  0  0
  2 30  1  0  0  0  0
  2 31  1  0  0  0  0
  3 42  3  0  0  0  0
  4 43  3  0  0  0  0
  5  6  1  0  0  0  0
  5  7  1  0  0  0  0
  5  8  1  0  0  0  0
  5  9  1  0  0  0  0
  6 10  1  0  0  0  0
  6 15  2  0  0  0  0
  7 11  2  0  0  0  0
  7 16  1  0  0  0  0
  8 12  1  0  0  0  0
  8 17  2  0  0  0  0
  9 13  2  0  0  0  0
  9 18  1  0  0  0  0
 10 11  1  0  0  0  0
 10 14  2  0  0  0  0
 11 19  1  0  0  0  0
 12 13  1  0  0  0  0
 12 20  2  0  0  0  0
 13 21  1  0  0  0  0
 14 22  1  0  0  0  0
 15 23  1  0  0  0  0
 16 24  2  0  0  0  0
 17 25  1  0  0  0  0
 18 26  2  0  0  0  0
 19 27  2  0  0  0  0
 20 28  1  0  0  0  0
 21 29  2  0  0  0  0
 22 23  2  0  0  0  0
 24 27  1  0  0  0  0
 25 28  2  0  0  0  0
 26 29  1  0  0  0  0
 30 32  2  0  0  0  0
 30 33  1  0  0  0  0
 31 34  2  0  0  0  0
 31 35  1  0  0  0  0
 32 36  1  0  0  0  0
 33 37  2  0  0  0  0
 34 39  1  0  0  0  0
 35 40  2  0  0  0  0
 36 38  2  0  0  0  0
 36 42  1  0  0  0  0
 37 38  1  0  0  0  0
 37 43  1  0  0  0  0
 39 41  2  0  0  0  0
 40 41  1  0  0  0  0
 41 44  1  0  0  0  0
 44 45  2  0  0  0  0
 44 46  1  0  0  0  0
 45 47  1  0  0  0  0
 46 48  2  0  0  0  0
 47 49  2  0  0  0  0
 48 49  1  0  0  0  0
M  END
> <PUBCHEM_COMPOUND_ID_TYPE>
0

> <PUBCHEM_TOTAL_CHARGE>
0

> <PUBCHEM_SUBSTANCE_ID>
310944527

> <PUBCHEM_SUBSTANCE_VERSION>
1

> <PUBCHEM_EXT_DATASOURCE_NAME>
4488

> <PUBCHEM_EXT_DATASOURCE_REGID>
SCHEMBL16122602

> <PUBCHEM_SUBSTANCE_COMMENT>
InChI=1S/C45H26FN3/c46-44-31(27-47)25-34(26-32(44)28-48)49(33-23-21-30(22-24-33)29-11-2-1-3-12-29)42-20-10-19-41-43(42)37-15-6-9-18-40(37)45(41)38-16-7-4-13-35(38)36-14-5-8-17-39(36)45/h1-26H
InChIKey=RLUREOZXFYGSPR-UHFFFAOYSA-N

> <PUBCHEM_SUBSTANCE_SYNONYM>
SCHEMBL16122602

> <PUBCHEM_XREF_EXT_ID>
SCHEMBL16122602

> <PUBCHEM_EXT_DATASOURCE_URL>
https://www.surechembl.org/

> <PUBCHEM_EXT_SUBSTANCE_URL>
https://www.surechembl.org/chemical/SCHEMBL16122602

> <PUBCHEM_CID_ASSOCIATIONS>
117610762  1

> <PUBCHEM_COORDINATE_TYPE>
1
3

$$$$
