310931770
  -OEChem-07211613022D

 24 27  0     1  0  0  0  0  0999 V2000
    0.2048   -2.7653    0.0000 O   0  0  0  0  0  0  0  0  0  0  0  0
    1.6728    0.0000    0.0000 O   0  0  0  0  0  0  0  0  0  0  0  0
    2.7653   -6.7596    0.0000 O   0  0  0  0  0  0  0  0  0  0  0  0
    1.6728   -2.5263    0.0000 N   0  0  0  0  0  0  0  0  0  0  0  0
    2.0825   -3.7895    0.0000 N   0  0  0  0  0  0  0  0  0  0  0  0
    3.1408   -2.7653    0.0000 N   0  0  0  0  0  0  0  0  0  0  0  0
    1.2632   -3.7895    0.0000 C   0  0  3  0  0  0  0  0  0  0  0  0
    0.9901   -3.0043    0.0000 C   0  0  0  0  0  0  0  0  0  0  0  0
    0.7510   -4.4723    0.0000 C   0  0  0  0  0  0  0  0  0  0  0  0
    1.6387   -4.5406    0.0000 C   0  0  0  0  0  0  0  0  0  0  0  0
    2.3556   -3.0043    0.0000 C   0  0  0  0  0  0  0  0  0  0  0  0
    0.6828   -5.2916    0.0000 C   0  0  0  0  0  0  0  0  0  0  0  0
    0.0000   -4.8137    0.0000 C   0  0  0  0  0  0  0  0  0  0  0  0
    1.6728   -1.7070    0.0000 C   0  0  0  0  0  0  0  0  0  0  0  0
    2.4581   -4.6088    0.0000 C   0  0  0  0  0  0  0  0  0  0  0  0
    1.1949   -5.2575    0.0000 C   0  0  0  0  0  0  0  0  0  0  0  0
    2.3898   -1.2632    0.0000 C   0  0  0  0  0  0  0  0  0  0  0  0
    0.9559   -1.2632    0.0000 C   0  0  0  0  0  0  0  0  0  0  0  0
    2.8336   -5.3258    0.0000 C   0  0  0  0  0  0  0  0  0  0  0  0
    1.5704   -5.9745    0.0000 C   0  0  0  0  0  0  0  0  0  0  0  0
    2.3898   -6.0427    0.0000 C   0  0  0  0  0  0  0  0  0  0  0  0
    2.3898   -0.4438    0.0000 C   0  0  0  0  0  0  0  0  0  0  0  0
    0.9559   -0.4438    0.0000 C   0  0  0  0  0  0  0  0  0  0  0  0
    3.5847   -6.8279    0.0000 C   0  0  0  0  0  0  0  0  0  0  0  0
  1  8  2  0  0  0  0
  2 22  1  0  0  0  0
  2 23  1  0  0  0  0
  3 21  1  0  0  0  0
  3 24  1  0  0  0  0
  4  8  1  0  0  0  0
  4 11  1  0  0  0  0
  4 14  1  0  0  0  0
  5  7  1  0  0  0  0
  5 11  1  0  0  0  0
  6 11  2  3  0  0  0
  7  8  1  0  0  0  0
  7  9  1  0  0  0  0
  7 10  1  0  0  0  0
  9 12  1  0  0  0  0
  9 13  1  0  0  0  0
 10 15  2  0  0  0  0
 10 16  1  0  0  0  0
 12 13  1  0  0  0  0
 14 17  1  0  0  0  0
 14 18  1  0  0  0  0
 15 19  1  0  0  0  0
 16 20  2  0  0  0  0
 17 22  1  0  0  0  0
 18 23  1  0  0  0  0
 19 21  2  0  0  0  0
 20 21  1  0  0  0  0
M  END
> <PUBCHEM_COMPOUND_ID_TYPE>
0

> <PUBCHEM_TOTAL_CHARGE>
0

> <PUBCHEM_SUBSTANCE_ID>
310931770

> <PUBCHEM_SUBSTANCE_VERSION>
1

> <PUBCHEM_EXT_DATASOURCE_NAME>
4488

> <PUBCHEM_EXT_DATASOURCE_REGID>
SCHEMBL16109099

> <PUBCHEM_SUBSTANCE_COMMENT>
InChI=1S/C18H23N3O3/c1-23-15-6-4-13(5-7-15)18(12-2-3-12)16(22)21(17(19)20-18)14-8-10-24-11-9-14/h4-7,12,14H,2-3,8-11H2,1H3,(H2,19,20)
InChIKey=NKWSWYMHUSQBTG-UHFFFAOYSA-N

> <PUBCHEM_SUBSTANCE_SYNONYM>
SCHEMBL16109099

> <PUBCHEM_XREF_EXT_ID>
SCHEMBL16109099

> <PUBCHEM_EXT_DATASOURCE_URL>
https://www.surechembl.org/

> <PUBCHEM_EXT_SUBSTANCE_URL>
https://www.surechembl.org/chemical/SCHEMBL16109099

> <PUBCHEM_CID_ASSOCIATIONS>
86273115  1

> <PUBCHEM_COORDINATE_TYPE>
1
3

$$$$
