310932200
  -OEChem-07211613022D

 26 28  0     1  0  0  0  0  0999 V2000
    3.2999    0.0000    0.0000 O   0  0  0  0  0  0  0  0  0  0  0  0
    4.4378   -1.9629    0.0000 O   0  0  0  0  0  0  0  0  0  0  0  0
    5.1490   -0.7112    0.0000 O   0  0  0  0  0  0  0  0  0  0  0  0
    0.0000   -2.3896    0.0000 O   0  0  0  0  0  0  0  0  0  0  0  0
    3.7267   -0.7112    0.0000 C   0  0  3  0  0  0  0  0  0  0  0  0
    2.9017   -0.7112    0.0000 C   0  0  3  0  0  0  0  0  0  0  0  0
    3.4990   -1.5362    0.0000 C   0  0  0  0  0  0  0  0  0  0  0  0
    4.4378   -1.1379    0.0000 C   0  0  0  0  0  0  0  0  0  0  0  0
    2.1620   -1.1379    0.0000 C   0  0  0  0  0  0  0  0  0  0  0  0
    4.0964   -2.1335    0.0000 C   0  0  0  0  0  0  0  0  0  0  0  0
    2.7025   -1.7638    0.0000 C   0  0  0  0  0  0  0  0  0  0  0  0
    2.1620   -1.9629    0.0000 C   0  0  0  0  0  0  0  0  0  0  0  0
    1.4508   -0.7397    0.0000 C   0  0  0  0  0  0  0  0  0  0  0  0
    3.8689   -2.9301    0.0000 C   0  0  0  0  0  0  0  0  0  0  0  0
    2.5034   -2.5603    0.0000 C   0  0  0  0  0  0  0  0  0  0  0  0
    1.4508   -2.3896    0.0000 C   0  0  0  0  0  0  0  0  0  0  0  0
    0.7397   -1.1379    0.0000 C   0  0  0  0  0  0  0  0  0  0  0  0
    0.7397   -1.9629    0.0000 C   0  0  0  0  0  0  0  0  0  0  0  0
    5.1490   -2.3896    0.0000 C   0  0  0  0  0  0  0  0  0  0  0  0
    3.0723   -3.1292    0.0000 C   0  0  0  0  0  0  0  0  0  0  0  0
    5.1490   -3.2146    0.0000 C   0  0  0  0  0  0  0  0  0  0  0  0
    5.8602   -3.6128    0.0000 C   0  0  0  0  0  0  0  0  0  0  0  0
    0.0000   -3.2146    0.0000 C   0  0  0  0  0  0  0  0  0  0  0  0
    5.8887   -4.4378    0.0000 C   0  0  0  0  0  0  0  0  0  0  0  0
    6.5998   -4.8645    0.0000 C   0  0  0  0  0  0  0  0  0  0  0  0
    6.5998   -5.6895    0.0000 C   0  0  0  0  0  0  0  0  0  0  0  0
  1  5  1  0  0  0  0
  1  6  1  0  0  0  0
  2  8  1  0  0  0  0
  2 19  1  0  0  0  0
  3  8  2  0  0  0  0
  4 18  1  0  0  0  0
  4 23  1  0  0  0  0
  5  6  1  0  0  0  0
  5  7  1  0  0  0  0
  5  8  1  0  0  0  0
  6  9  1  0  0  0  0
  7 10  2  0  0  0  0
  7 11  1  0  0  0  0
  9 12  2  0  0  0  0
  9 13  1  0  0  0  0
 10 14  1  0  0  0  0
 11 15  2  0  0  0  0
 12 16  1  0  0  0  0
 13 17  2  0  0  0  0
 14 20  2  0  0  0  0
 15 20  1  0  0  0  0
 16 18  2  0  0  0  0
 17 18  1  0  0  0  0
 19 21  1  0  0  0  0
 21 22  1  0  0  0  0
 22 24  1  0  0  0  0
 24 25  1  0  0  0  0
 25 26  1  0  0  0  0
M  END
> <PUBCHEM_COMPOUND_ID_TYPE>
0

> <PUBCHEM_TOTAL_CHARGE>
0

> <PUBCHEM_SUBSTANCE_ID>
310932200

> <PUBCHEM_SUBSTANCE_VERSION>
1

> <PUBCHEM_EXT_DATASOURCE_NAME>
4488

> <PUBCHEM_EXT_DATASOURCE_REGID>
SCHEMBL16109557

> <PUBCHEM_SUBSTANCE_COMMENT>
InChI=1S/C22H26O4/c1-3-4-5-9-16-25-21(23)22(18-10-7-6-8-11-18)20(26-22)17-12-14-19(24-2)15-13-17/h6-8,10-15,20H,3-5,9,16H2,1-2H3
InChIKey=JZFWWCKLWOKDKW-UHFFFAOYSA-N

> <PUBCHEM_SUBSTANCE_SYNONYM>
SCHEMBL16109557

> <PUBCHEM_XREF_EXT_ID>
SCHEMBL16109557

> <PUBCHEM_EXT_DATASOURCE_URL>
https://www.surechembl.org/

> <PUBCHEM_EXT_SUBSTANCE_URL>
https://www.surechembl.org/chemical/SCHEMBL16109557

> <PUBCHEM_CID_ASSOCIATIONS>
117600792  1

> <PUBCHEM_COORDINATE_TYPE>
1
3

$$$$
