310937152
  -OEChem-07211613022D

 26 29  0     1  0  0  0  0  0999 V2000
    5.4782   -1.2693    0.0000 O   0  0  0  0  0  0  0  0  0  0  0  0
    0.0000   -6.2465    0.0000 O   0  0  0  0  0  0  0  0  0  0  0  0
    4.7768   -2.5053    0.0000 N   0  0  0  0  0  0  0  0  0  0  0  0
    4.0753   -1.2693    0.0000 N   0  0  0  0  0  0  0  0  0  0  0  0
    1.3361   -6.6808    0.0000 N   0  0  0  0  0  0  0  0  0  0  0  0
    2.5721   -3.7412    0.0000 C   0  0  3  0  0  0  0  0  0  0  0  0
    3.3070   -4.1755    0.0000 C   0  0  3  0  0  0  0  0  0  0  0  0
    1.8706   -4.1755    0.0000 C   0  0  3  0  0  0  0  0  0  0  0  0
    4.0085   -3.7412    0.0000 C   0  0  3  0  0  0  0  0  0  0  0  0
    1.8706   -4.9772    0.0000 C   0  0  3  0  0  0  0  0  0  0  0  0
    4.0085   -2.9396    0.0000 C   0  0  3  0  0  0  0  0  0  0  0  0
    1.0689   -5.2778    0.0000 C   0  0  3  0  0  0  0  0  0  0  0  0
    2.5721   -2.9396    0.0000 C   0  0  0  0  0  0  0  0  0  0  0  0
    3.3070   -4.9772    0.0000 C   0  0  0  0  0  0  0  0  0  0  0  0
    2.5721   -5.4114    0.0000 C   0  0  0  0  0  0  0  0  0  0  0  0
    3.3070   -2.5053    0.0000 C   0  0  0  0  0  0  0  0  0  0  0  0
    1.0689   -3.9083    0.0000 C   0  0  0  0  0  0  0  0  0  0  0  0
    4.7768   -4.1755    0.0000 C   0  0  0  0  0  0  0  0  0  0  0  0
    0.6013   -4.5763    0.0000 C   0  0  0  0  0  0  0  0  0  0  0  0
    4.7768   -1.6702    0.0000 C   0  0  0  0  0  0  0  0  0  0  0  0
    5.4782   -2.9396    0.0000 C   0  0  0  0  0  0  0  0  0  0  0  0
    0.8017   -6.0795    0.0000 C   0  0  0  0  0  0  0  0  0  0  0  0
    5.4782   -3.7412    0.0000 C   0  0  0  0  0  0  0  0  0  0  0  0
    4.0753   -0.4342    0.0000 C   0  0  0  0  0  0  0  0  0  0  0  0
    3.3404    0.0000    0.0000 C   0  0  0  0  0  0  0  0  0  0  0  0
    4.7768   -0.0334    0.0000 C   0  0  0  0  0  0  0  0  0  0  0  0
  1 20  2  0  0  0  0
  2 22  2  0  0  0  0
  3 11  1  0  0  0  0
  3 20  1  0  0  0  0
  3 21  1  0  0  0  0
  4 20  1  0  0  0  0
  4 24  1  0  0  0  0
  5 22  1  0  0  0  0
  6  7  1  0  0  0  0
  6  8  1  0  0  0  0
  6 13  1  0  0  0  0
  7  9  1  0  0  0  0
  7 14  1  0  0  0  0
  8 10  1  0  0  0  0
  8 17  1  0  0  0  0
  9 11  1  0  0  0  0
  9 18  1  0  0  0  0
 10 12  1  0  0  0  0
 10 15  1  0  0  0  0
 11 16  1  0  0  0  0
 12 19  1  0  0  0  0
 12 22  1  0  0  0  0
 13 16  1  0  0  0  0
 14 15  1  0  0  0  0
 17 19  1  0  0  0  0
 18 23  1  0  0  0  0
 21 23  1  0  0  0  0
 24 25  1  0  0  0  0
 24 26  1  0  0  0  0
M  END
> <PUBCHEM_COMPOUND_ID_TYPE>
0

> <PUBCHEM_TOTAL_CHARGE>
0

> <PUBCHEM_SUBSTANCE_ID>
310937152

> <PUBCHEM_SUBSTANCE_VERSION>
1

> <PUBCHEM_EXT_DATASOURCE_NAME>
4488

> <PUBCHEM_EXT_DATASOURCE_REGID>
SCHEMBL16114875

> <PUBCHEM_SUBSTANCE_COMMENT>
InChI=1S/C21H35N3O2/c1-12(2)23-21(26)24-11-3-4-17-15-5-6-16-13(7-8-18(16)20(22)25)14(15)9-10-19(17)24/h12-19H,3-11H2,1-2H3,(H2,22,25)(H,23,26)
InChIKey=XHOODDGRNPLMPY-UHFFFAOYSA-N

> <PUBCHEM_SUBSTANCE_SYNONYM>
SCHEMBL16114875

> <PUBCHEM_XREF_EXT_ID>
SCHEMBL16114875

> <PUBCHEM_EXT_DATASOURCE_URL>
https://www.surechembl.org/

> <PUBCHEM_EXT_SUBSTANCE_URL>
https://www.surechembl.org/chemical/SCHEMBL16114875

> <PUBCHEM_CID_ASSOCIATIONS>
117604976  1

> <PUBCHEM_COORDINATE_TYPE>
1
3

$$$$
