310929256
  -OEChem-07211613022D

 20 23  0     1  0  0  0  0  0999 V2000
    4.8311    2.0031    0.0000 Cl  0  0  0  0  0  0  0  0  0  0  0  0
    2.1532    0.8950    0.0000 O   0  0  0  0  0  0  0  0  0  0  0  0
    1.4857    2.0510    0.0000 O   0  0  0  0  0  0  0  0  0  0  0  0
    2.6282    2.9762    0.0000 O   0  0  0  0  0  0  0  0  0  0  0  0
    3.6750    2.8430    0.0000 O   0  0  0  0  0  0  0  0  0  0  0  0
    0.6850    0.8181    0.0000 C   0  0  0  0  0  0  0  0  0  0  0  0
    1.3995    1.2306    0.0000 C   0  0  3  0  0  0  0  0  0  0  0  0
   -0.0295    1.2306    0.0000 C   0  0  0  0  0  0  0  0  0  0  0  0
    0.6850   -0.0070    0.0000 C   0  0  0  0  0  0  0  0  0  0  0  0
   -0.7440   -0.0070    0.0000 C   0  0  0  0  0  0  0  0  0  0  0  0
   -1.4276    1.2132    0.0000 C   0  0  0  0  0  0  0  0  0  0  0  0
    2.7052    1.5081    0.0000 C   0  0  3  0  0  0  0  0  0  0  0  0
   -0.0295   -0.4195    0.0000 C   0  0  0  0  0  0  0  0  0  0  0  0
   -0.7335    1.6197    0.0000 C   0  0  0  0  0  0  0  0  0  0  0  0
   -0.5693    0.2595    0.0000 C   0  0  0  0  0  0  0  0  0  0  0  0
   -0.7440    0.8181    0.0000 C   0  0  0  0  0  0  0  0  0  0  0  0
    2.2926    2.2226    0.0000 C   0  0  0  0  0  0  0  0  0  0  0  0
   -1.4326    0.4088    0.0000 C   0  0  0  0  0  0  0  0  0  0  0  0
    3.5257    1.4218    0.0000 C   0  0  0  0  0  0  0  0  0  0  0  0
    4.0106    2.0893    0.0000 C   0  0  0  0  0  0  0  0  0  0  0  0
  1 20  1  0  0  0  0
  2  7  1  0  0  0  0
  2 12  1  0  0  0  0
  3  7  1  0  0  0  0
  3 17  1  0  0  0  0
  4 17  2  0  0  0  0
  5 20  2  0  0  0  0
  6  7  1  0  0  0  0
  6  8  1  0  0  0  0
  6  9  1  0  0  0  0
  8 14  1  0  0  0  0
  8 16  1  0  0  0  0
  9 13  1  0  0  0  0
  9 15  1  0  0  0  0
 10 13  1  0  0  0  0
 10 16  1  0  0  0  0
 10 18  1  0  0  0  0
 11 14  1  0  0  0  0
 11 15  1  0  0  0  0
 11 18  1  0  0  0  0
 12 17  1  0  0  0  0
 12 19  1  0  0  0  0
 19 20  1  0  0  0  0
M  END
> <PUBCHEM_COMPOUND_ID_TYPE>
0

> <PUBCHEM_TOTAL_CHARGE>
0

> <PUBCHEM_SUBSTANCE_ID>
310929256

> <PUBCHEM_SUBSTANCE_VERSION>
1

> <PUBCHEM_EXT_DATASOURCE_NAME>
4488

> <PUBCHEM_EXT_DATASOURCE_REGID>
SCHEMBL16106420

> <PUBCHEM_SUBSTANCE_COMMENT>
InChI=1S/C15H19ClO4/c16-12(17)6-11-14(18)20-15(19-11)13-9-2-7-1-8(4-9)5-10(13)3-7/h7-11,13,15H,1-6H2
InChIKey=JKFHJNARSRXOBZ-UHFFFAOYSA-N

> <PUBCHEM_SUBSTANCE_SYNONYM>
SCHEMBL16106420

> <PUBCHEM_XREF_EXT_ID>
SCHEMBL16106420

> <PUBCHEM_EXT_DATASOURCE_URL>
https://www.surechembl.org/

> <PUBCHEM_EXT_SUBSTANCE_URL>
https://www.surechembl.org/chemical/SCHEMBL16106420

> <PUBCHEM_CID_ASSOCIATIONS>
117598682  1

> <PUBCHEM_COORDINATE_TYPE>
1
3

$$$$
