310937871
  -OEChem-07211613022D

 35 37  0     1  0  0  0  0  0999 V2000
    3.9181   -2.4776    0.0000 O   0  0  0  0  0  0  0  0  0  0  0  0
    1.9014   -1.1236    0.0000 O   0  0  0  0  0  0  0  0  0  0  0  0
    3.9181   -3.8892    0.0000 O   0  0  0  0  0  0  0  0  0  0  0  0
    2.8233   -3.1114    0.0000 O   0  0  0  0  0  0  0  0  0  0  0  0
    4.5519   -1.9590    0.0000 O   0  0  0  0  0  0  0  0  0  0  0  0
    2.2183   -2.5064    0.0000 N   0  0  0  0  0  0  0  0  0  0  0  0
    3.8316   -2.1607    0.0000 N   0  0  0  0  0  0  0  0  0  0  0  0
    4.8976   -3.3419    0.0000 N   0  0  0  0  0  0  0  0  0  0  0  0
    1.4117   -2.7369    0.0000 C   0  0  0  0  0  0  0  0  0  0  0  0
    2.7081   -3.1690    0.0000 C   0  0  3  0  0  0  0  0  0  0  0  0
    1.4117   -3.6012    0.0000 C   0  0  0  0  0  0  0  0  0  0  0  0
    2.2183   -3.8316    0.0000 C   0  0  0  0  0  0  0  0  0  0  0  0
    2.4488   -1.7286    0.0000 C   0  0  0  0  0  0  0  0  0  0  0  0
    3.5147   -3.1690    0.0000 C   0  0  0  0  0  0  0  0  0  0  0  0
    0.6914   -2.3624    0.0000 C   0  0  0  0  0  0  0  0  0  0  0  0
    0.6914   -4.0045    0.0000 C   0  0  0  0  0  0  0  0  0  0  0  0
    3.2842   -1.5557    0.0000 C   0  0  0  0  0  0  0  0  0  0  0  0
    0.0000   -2.7369    0.0000 C   0  0  0  0  0  0  0  0  0  0  0  0
    0.0000   -3.6012    0.0000 C   0  0  0  0  0  0  0  0  0  0  0  0
    3.5723   -2.9674    0.0000 C   0  0  0  0  0  0  0  0  0  0  0  0
    4.0909   -3.5436    0.0000 C   0  0  3  0  0  0  0  0  0  0  0  0
    3.8892   -4.2926    0.0000 C   0  0  3  0  0  0  0  0  0  0  0  0
    4.7535   -2.4776    0.0000 C   0  0  0  0  0  0  0  0  0  0  0  0
    5.1280   -2.5640    0.0000 C   0  0  0  0  0  0  0  0  0  0  0  0
    5.9347   -2.3912    0.0000 C   0  0  0  0  0  0  0  0  0  0  0  0
    4.4943   -4.8976    0.0000 C   0  0  0  0  0  0  0  0  0  0  0  0
    6.1652   -1.5845    0.0000 C   0  0  0  0  0  0  0  0  0  0  0  0
    3.0826   -4.5231    0.0000 C   0  0  0  0  0  0  0  0  0  0  0  0
    5.1569   -1.7574    0.0000 C   0  0  0  0  0  0  0  0  0  0  0  0
    5.6178   -0.9795    0.0000 C   0  0  0  0  0  0  0  0  0  0  0  0
    6.9718   -1.3828    0.0000 C   0  0  0  0  0  0  0  0  0  0  0  0
    4.0909   -5.7619    0.0000 C   0  0  0  0  0  0  0  0  0  0  0  0
    5.8483   -0.1729    0.0000 C   0  0  0  0  0  0  0  0  0  0  0  0
    7.1735   -0.6050    0.0000 C   0  0  0  0  0  0  0  0  0  0  0  0
    6.6261    0.0000    0.0000 C   0  0  0  0  0  0  0  0  0  0  0  0
  1 14  1  0  0  0  0
  1 23  1  0  0  0  0
  2 13  2  0  0  0  0
  3 14  2  0  0  0  0
  4 20  2  0  0  0  0
  5 24  2  0  0  0  0
  6  9  1  0  0  0  0
  6 10  1  0  0  0  0
  6 13  1  0  0  0  0
  7 17  1  0  0  0  0
  7 20  1  0  0  0  0
  8 21  1  0  0  0  0
  8 24  1  0  0  0  0
  9 11  2  0  0  0  0
  9 15  1  0  0  0  0
 10 12  1  0  0  0  0
 10 14  1  0  0  0  0
 11 12  1  0  0  0  0
 11 16  1  0  0  0  0
 13 17  1  0  0  0  0
 15 18  2  0  0  0  0
 16 19  2  0  0  0  0
 18 19  1  0  0  0  0
 20 21  1  0  0  0  0
 21 22  1  0  0  0  0
 22 26  1  0  0  0  0
 22 28  1  0  0  0  0
 23 29  1  0  0  0  0
 24 25  1  0  0  0  0
 25 27  1  0  0  0  0
 26 32  1  0  0  0  0
 27 30  2  0  0  0  0
 27 31  1  0  0  0  0
 30 33  1  0  0  0  0
 31 34  2  0  0  0  0
 33 35  2  0  0  0  0
 34 35  1  0  0  0  0
M  END
> <PUBCHEM_COMPOUND_ID_TYPE>
0

> <PUBCHEM_TOTAL_CHARGE>
0

> <PUBCHEM_SUBSTANCE_ID>
310937871

> <PUBCHEM_SUBSTANCE_VERSION>
1

> <PUBCHEM_EXT_DATASOURCE_NAME>
4488

> <PUBCHEM_EXT_DATASOURCE_REGID>
SCHEMBL16115696

> <PUBCHEM_SUBSTANCE_COMMENT>
InChI=1S/C27H33N3O5/c1-4-18(3)25(29-23(31)15-19-11-7-6-8-12-19)26(33)28-17-24(32)30-21-14-10-9-13-20(21)16-22(30)27(34)35-5-2/h6-14,18,22,25H,4-5,15-17H2,1-3H3,(H,28,33)(H,29,31)
InChIKey=RDVWIDYLRFGJPX-UHFFFAOYSA-N

> <PUBCHEM_SUBSTANCE_SYNONYM>
SCHEMBL16115696

> <PUBCHEM_XREF_EXT_ID>
SCHEMBL16115696

> <PUBCHEM_EXT_DATASOURCE_URL>
https://www.surechembl.org/

> <PUBCHEM_EXT_SUBSTANCE_URL>
https://www.surechembl.org/chemical/SCHEMBL16115696

> <PUBCHEM_CID_ASSOCIATIONS>
117605493  1

> <PUBCHEM_COORDINATE_TYPE>
1
3

$$$$
