310942383
  -OEChem-07211613022D

 45 50  0     1  0  0  0  0  0999 V2000
   -3.1933   -2.1434    0.0000 Cl  0  0  0  0  0  0  0  0  0  0  0  0
    2.3683    1.3185    0.0000 S   0  0  0  0  0  0  0  0  0  0  0  0
   -0.1312    2.0184    0.0000 F   0  0  0  0  0  0  0  0  0  0  0  0
    0.6936    1.3185    0.0000 O   0  0  0  0  0  0  0  0  0  0  0  0
   -0.0688   -1.8434    0.0000 O   0  0  0  0  0  0  0  0  0  0  0  0
   -2.7683    0.5562    0.0000 O   0  0  0  0  0  0  0  0  0  0  0  0
    1.9434    2.0434    0.0000 O   0  0  0  0  0  0  0  0  0  0  0  0
    2.7683    2.0434    0.0000 O   0  0  0  0  0  0  0  0  0  0  0  0
   -1.0435   -2.5558    0.0000 O   0  0  0  0  0  0  0  0  0  0  0  0
    0.3187   -0.4436    0.0000 N   0  0  0  0  0  0  0  0  0  0  0  0
    2.0809    0.6061    0.0000 N   0  0  0  0  0  0  0  0  0  0  0  0
   -1.7434   -1.3060    0.0000 N   0  0  0  0  0  0  0  0  0  0  0  0
   -1.7309    1.5810    0.0000 N   0  0  0  0  0  0  0  0  0  0  0  0
   -2.9058    2.7558    0.0000 N   0  0  0  0  0  0  0  0  0  0  0  0
   -3.1933   -2.1434    0.0000 N   0  0  0  0  0  0  0  0  0  0  0  0
    1.1310   -0.2312    0.0000 C   0  0  3  0  0  0  0  0  0  0  0  0
    1.3310   -1.0061    0.0000 C   0  0  3  0  0  0  0  0  0  0  0  0
    1.9184   -0.4436    0.0000 C   0  0  0  0  0  0  0  0  0  0  0  0
    1.1310    0.6186    0.0000 C   0  0  0  0  0  0  0  0  0  0  0  0
   -0.2562   -1.0311    0.0000 C   0  0  0  0  0  0  0  0  0  0  0  0
    1.7559   -1.7685    0.0000 C   0  0  0  0  0  0  0  0  0  0  0  0
   -1.0811   -0.8061    0.0000 C   0  0  3  0  0  0  0  0  0  0  0  0
    3.2182    1.3310    0.0000 C   0  0  0  0  0  0  0  0  0  0  0  0
   -1.3310   -0.0312    0.0000 C   0  0  0  0  0  0  0  0  0  0  0  0
   -2.1559   -0.0187    0.0000 C   0  0  3  0  0  0  0  0  0  0  0  0
   -2.4184   -0.8186    0.0000 C   0  0  0  0  0  0  0  0  0  0  0  0
   -1.7685   -2.1309    0.0000 C   0  0  0  0  0  0  0  0  0  0  0  0
    1.2435   -3.0682    0.0000 C   0  0  0  0  0  0  0  0  0  0  0  0
    3.9181    1.7309    0.0000 C   0  0  0  0  0  0  0  0  0  0  0  0
    3.9181    0.9186    0.0000 C   0  0  0  0  0  0  0  0  0  0  0  0
   -2.5433    1.3685    0.0000 C   0  0  0  0  0  0  0  0  0  0  0  0
   -2.4683   -2.5558    0.0000 C   0  0  3  0  0  0  0  0  0  0  0  0
   -1.5060    2.3934    0.0000 C   0  0  0  0  0  0  0  0  0  0  0  0
   -3.1432    1.9559    0.0000 C   0  0  0  0  0  0  0  0  0  0  0  0
   -2.1184    2.9808    0.0000 C   0  0  0  0  0  0  0  0  0  0  0  0
    0.4436   -3.2807    0.0000 C   0  0  0  0  0  0  0  0  0  0  0  0
   -0.7311    2.6183    0.0000 C   0  0  0  0  0  0  0  0  0  0  0  0
   -2.0434   -3.2932    0.0000 C   0  0  0  0  0  0  0  0  0  0  0  0
   -1.8935    3.7681    0.0000 C   0  0  0  0  0  0  0  0  0  0  0  0
   -0.5062    3.4182    0.0000 C   0  0  0  0  0  0  0  0  0  0  0  0
    0.0312   -3.9931    0.0000 C   0  0  0  0  0  0  0  0  0  0  0  0
   -1.0811    3.9931    0.0000 C   0  0  0  0  0  0  0  0  0  0  0  0
   -3.9181    1.7309    0.0000 C   0  0  0  0  0  0  0  0  0  0  0  0
   -1.2185   -3.2932    0.0000 C   0  0  0  0  0  0  0  0  0  0  0  0
   -0.8061   -3.9931    0.0000 C   0  0  0  0  0  0  0  0  0  0  0  0
  1 15  1  0  0  0  0
  2  7  2  0  0  0  0
  2  8  2  0  0  0  0
  2 11  1  0  0  0  0
  2 23  1  0  0  0  0
  3 37  1  0  0  0  0
  4 19  2  0  0  0  0
  5 20  2  0  0  0  0
 25  6  1  6  0  0  0
  6 31  1  0  0  0  0
  9 27  2  0  0  0  0
 10 16  1  0  0  0  0
 10 20  1  0  0  0  0
 11 19  1  0  0  0  0
 12 22  1  0  0  0  0
 12 26  1  0  0  0  0
 12 27  1  0  0  0  0
 13 31  2  0  0  0  0
 13 33  1  0  0  0  0
 14 34  2  0  0  0  0
 14 35  1  0  0  0  0
 32 15  1  6  0  0  0
 16 17  1  0  0  0  0
 16 18  1  0  0  0  0
 16 19  1  1  0  0  0
 17 18  1  6  0  0  0
 17 21  1  0  0  0  0
 20 22  1  0  0  0  0
 21 28  2  0  0  0  0
 22 24  1  1  0  0  0
 23 29  1  0  0  0  0
 23 30  1  0  0  0  0
 24 25  1  0  0  0  0
 25 26  1  0  0  0  0
 27 32  1  0  0  0  0
 28 36  1  0  0  0  0
 29 30  1  0  0  0  0
 31 34  1  0  0  0  0
 32 38  1  0  0  0  0
 33 35  2  0  0  0  0
 33 37  1  0  0  0  0
 34 43  1  0  0  0  0
 35 39  1  0  0  0  0
 36 41  1  0  0  0  0
 37 40  2  0  0  0  0
 38 44  1  0  0  0  0
 39 42  2  0  0  0  0
 40 42  1  0  0  0  0
 41 45  1  0  0  0  0
 44 45  1  0  0  0  0
M  END
> <PUBCHEM_COMPOUND_ID_TYPE>
0

> <PUBCHEM_TOTAL_CHARGE>
0

> <PUBCHEM_SUBSTANCE_ID>
310942383

> <PUBCHEM_SUBSTANCE_VERSION>
1

> <PUBCHEM_EXT_DATASOURCE_NAME>
4488

> <PUBCHEM_EXT_DATASOURCE_REGID>
SCHEMBL16120419

> <PUBCHEM_SUBSTANCE_COMMENT>
InChI=1S/C30H36ClFN6O6S/c1-17-27(34-25-21(32)9-7-11-22(25)33-17)44-19-14-24-26(39)35-30(29(41)37-45(42,43)20-12-13-20)15-18(30)8-5-3-2-4-6-10-23(36-31)28(40)38(24)16-19/h5,7-9,11,18-20,23-24,36H,2-4,6,10,12-16H2,1H3,(H,35,39)(H,37,41)/b8-5-/t18-,19-,23+,24+,30-/m1/s1
InChIKey=BBHYOUYTMUVWAV-HWBQMDGUSA-N

> <PUBCHEM_SUBSTANCE_SYNONYM>
SCHEMBL16120419

> <PUBCHEM_XREF_EXT_ID>
SCHEMBL16120419

> <PUBCHEM_EXT_DATASOURCE_URL>
https://www.surechembl.org/

> <PUBCHEM_EXT_SUBSTANCE_URL>
https://www.surechembl.org/chemical/SCHEMBL16120419

> <PUBCHEM_CID_ASSOCIATIONS>
117608998  1

> <PUBCHEM_COORDINATE_TYPE>
1
3

> <PUBCHEM_BONDANNOTATIONS>
32  15  6
16  19  5
17  18  6
22  24  5
25  6  6

$$$$
