310935055
  -OEChem-07211613022D

 22 24  0     1  0  0  0  0  0999 V2000
    5.7517   -2.2432    0.0000 Cl  0  0  0  0  0  0  0  0  0  0  0  0
    4.6014   -1.4379    0.0000 O   0  0  0  0  0  0  0  0  0  0  0  0
    5.4258    0.0000    0.0000 O   0  0  0  0  0  0  0  0  0  0  0  0
    2.8759   -1.3996    0.0000 N   0  0  0  0  0  0  0  0  0  0  0  0
    2.0898   -1.1312    0.0000 N   0  0  0  0  0  0  0  0  0  0  0  0
    4.6014    0.0000    0.0000 N   0  0  0  0  0  0  0  0  0  0  0  0
    3.6619   -2.8950    0.0000 N   0  0  0  0  0  0  0  0  0  0  0  0
    3.3552   -0.7094    0.0000 C   0  0  3  0  0  0  0  0  0  0  0  0
    3.7386   -1.4571    0.0000 C   0  0  0  0  0  0  0  0  0  0  0  0
    4.1796   -0.7094    0.0000 C   0  0  0  0  0  0  0  0  0  0  0  0
    2.8759   -0.0383    0.0000 C   0  0  0  0  0  0  0  0  0  0  0  0
    2.0898   -0.3067    0.0000 C   0  0  0  0  0  0  0  0  0  0  0  0
    1.4187   -1.6105    0.0000 C   0  0  0  0  0  0  0  0  0  0  0  0
    4.7164   -1.6488    0.0000 C   0  0  0  0  0  0  0  0  0  0  0  0
    3.2977   -2.1473    0.0000 C   0  0  0  0  0  0  0  0  0  0  0  0
    4.9465   -2.2048    0.0000 C   0  0  0  0  0  0  0  0  0  0  0  0
    1.5146   -2.4349    0.0000 C   0  0  0  0  0  0  0  0  0  0  0  0
    0.6710   -1.2654    0.0000 C   0  0  0  0  0  0  0  0  0  0  0  0
    4.4863   -2.9142    0.0000 C   0  0  0  0  0  0  0  0  0  0  0  0
    0.8436   -2.9142    0.0000 C   0  0  0  0  0  0  0  0  0  0  0  0
    0.0000   -1.7447    0.0000 C   0  0  0  0  0  0  0  0  0  0  0  0
    0.0767   -2.5691    0.0000 C   0  0  0  0  0  0  0  0  0  0  0  0
  1 16  1  0  0  0  0
  2 10  2  0  0  0  0
  3  6  1  0  0  0  0
  4  5  1  0  0  0  0
  4  8  1  0  0  0  0
  5 12  1  0  0  0  0
  5 13  1  0  0  0  0
  6 10  1  0  0  0  0
  7 15  2  0  0  0  0
  7 19  1  0  0  0  0
  8  9  1  0  0  0  0
  8 10  1  0  0  0  0
  8 11  1  0  0  0  0
  9 14  2  0  0  0  0
  9 15  1  0  0  0  0
 11 12  2  0  0  0  0
 13 17  2  0  0  0  0
 13 18  1  0  0  0  0
 14 16  1  0  0  0  0
 16 19  2  0  0  0  0
 17 20  1  0  0  0  0
 18 21  2  0  0  0  0
 20 22  2  0  0  0  0
 21 22  1  0  0  0  0
M  END
> <PUBCHEM_COMPOUND_ID_TYPE>
0

> <PUBCHEM_TOTAL_CHARGE>
0

> <PUBCHEM_SUBSTANCE_ID>
310935055

> <PUBCHEM_SUBSTANCE_VERSION>
1

> <PUBCHEM_EXT_DATASOURCE_NAME>
4488

> <PUBCHEM_EXT_DATASOURCE_REGID>
SCHEMBL16112575

> <PUBCHEM_SUBSTANCE_COMMENT>
InChI=1S/C15H13ClN4O2/c16-12-8-11(9-17-10-12)15(14(21)18-22)6-7-20(19-15)13-4-2-1-3-5-13/h1-10,19,22H,(H,18,21)
InChIKey=VGNSTVNVNOMPKX-UHFFFAOYSA-N

> <PUBCHEM_SUBSTANCE_SYNONYM>
SCHEMBL16112575

> <PUBCHEM_XREF_EXT_ID>
SCHEMBL16112575

> <PUBCHEM_EXT_DATASOURCE_URL>
https://www.surechembl.org/

> <PUBCHEM_EXT_SUBSTANCE_URL>
https://www.surechembl.org/chemical/SCHEMBL16112575

> <PUBCHEM_CID_ASSOCIATIONS>
117603155  1

> <PUBCHEM_COORDINATE_TYPE>
1
3

$$$$
