310947757
  -OEChem-07211613022D

 39 41  0     1  0  0  0  0  0999 V2000
   -1.1604   -3.6776    0.0000 O   0  0  0  0  0  0  0  0  0  0  0  0
    3.2365   -0.7152    0.0000 O   0  0  0  0  0  0  0  0  0  0  0  0
    3.6063    0.6651    0.0000 O   0  0  0  0  0  0  0  0  0  0  0  0
   -1.5303   -2.2973    0.0000 N   0  0  0  0  0  0  0  0  0  0  0  0
   -2.1977   -1.8124    0.0000 N   0  0  0  0  0  0  0  0  0  0  0  0
   -2.3553    1.1156    0.0000 N   0  0  0  0  0  0  0  0  0  0  0  0
    0.2625   -0.6579    0.0000 N   0  0  3  0  0  0  0  0  0  0  0  0
   -3.5928    1.8301    0.0000 N   0  0  0  0  0  0  0  0  0  0  0  0
    2.2261    0.2953    0.0000 N   0  0  0  0  0  0  0  0  0  0  0  0
   -1.9428   -1.0278    0.0000 C   0  0  0  0  0  0  0  0  0  0  0  0
   -1.1178   -1.0278    0.0000 C   0  0  0  0  0  0  0  0  0  0  0  0
   -2.3553   -0.3133    0.0000 C   0  0  0  0  0  0  0  0  0  0  0  0
   -0.8628   -1.8124    0.0000 C   0  0  0  0  0  0  0  0  0  0  0  0
   -1.7438   -3.0942    0.0000 C   0  0  3  0  0  0  0  0  0  0  0  0
   -0.5344   -0.4444    0.0000 C   0  0  0  0  0  0  0  0  0  0  0  0
   -1.9428    0.4012    0.0000 C   0  0  0  0  0  0  0  0  0  0  0  0
   -3.1803   -0.3133    0.0000 C   0  0  0  0  0  0  0  0  0  0  0  0
   -3.1803    1.1156    0.0000 C   0  0  0  0  0  0  0  0  0  0  0  0
   -3.5928    0.4012    0.0000 C   0  0  0  0  0  0  0  0  0  0  0  0
   -2.5407   -3.3077    0.0000 C   0  0  0  0  0  0  0  0  0  0  0  0
   -1.3740   -4.4745    0.0000 C   0  0  0  0  0  0  0  0  0  0  0  0
   -2.7542   -4.1046    0.0000 C   0  0  0  0  0  0  0  0  0  0  0  0
    0.8458   -0.0746    0.0000 C   0  0  0  0  0  0  0  0  0  0  0  0
   -2.1709   -4.6880    0.0000 C   0  0  0  0  0  0  0  0  0  0  0  0
   -3.1803    2.5446    0.0000 C   0  0  0  0  0  0  0  0  0  0  0  0
   -4.4178    1.8301    0.0000 C   0  0  0  0  0  0  0  0  0  0  0  0
    0.4760   -1.4548    0.0000 C   0  0  0  0  0  0  0  0  0  0  0  0
    1.6427   -0.2881    0.0000 C   0  0  0  0  0  0  0  0  0  0  0  0
    3.0230    0.0817    0.0000 C   0  0  0  0  0  0  0  0  0  0  0  0
   -3.5928    3.2590    0.0000 C   0  0  0  0  0  0  0  0  0  0  0  0
    4.0334   -0.9287    0.0000 C   0  0  0  0  0  0  0  0  0  0  0  0
   -4.8303    1.1156    0.0000 C   0  0  0  0  0  0  0  0  0  0  0  0
   -3.1803    3.9735    0.0000 C   0  0  0  0  0  0  0  0  0  0  0  0
    2.0126    1.0921    0.0000 C   0  0  0  0  0  0  0  0  0  0  0  0
    4.8303   -1.1422    0.0000 C   0  0  0  0  0  0  0  0  0  0  0  0
    4.6168   -0.3453    0.0000 C   0  0  0  0  0  0  0  0  0  0  0  0
    4.2469   -1.7256    0.0000 C   0  0  0  0  0  0  0  0  0  0  0  0
   -3.5928    4.6880    0.0000 C   0  0  0  0  0  0  0  0  0  0  0  0
   -2.3553    3.9735    0.0000 C   0  0  0  0  0  0  0  0  0  0  0  0
  1 14  1  0  0  0  0
  1 21  1  0  0  0  0
  2 29  1  0  0  0  0
  2 31  1  0  0  0  0
  3 29  2  0  0  0  0
  4  5  1  0  0  0  0
  4 13  1  0  0  0  0
  4 14  1  0  0  0  0
  5 10  2  0  0  0  0
  6 16  1  0  0  0  0
  6 18  2  0  0  0  0
  7 15  1  0  0  0  0
  7 23  1  0  0  0  0
  7 27  1  0  0  0  0
  8 18  1  0  0  0  0
  8 25  1  0  0  0  0
  8 26  1  0  0  0  0
  9 28  1  0  0  0  0
  9 29  1  0  0  0  0
  9 34  1  0  0  0  0
 10 11  1  0  0  0  0
 10 12  1  0  0  0  0
 11 13  2  0  0  0  0
 11 15  1  0  0  0  0
 12 16  2  0  0  0  0
 12 17  1  0  0  0  0
 14 20  1  0  0  0  0
 17 19  2  0  0  0  0
 18 19  1  0  0  0  0
 20 22  1  0  0  0  0
 21 24  1  0  0  0  0
 22 24  1  0  0  0  0
 23 28  1  0  0  0  0
 25 30  1  0  0  0  0
 26 32  1  0  0  0  0
 30 33  1  0  0  0  0
 31 35  1  0  0  0  0
 31 36  1  0  0  0  0
 31 37  1  0  0  0  0
 33 38  1  0  0  0  0
 33 39  1  0  0  0  0
M  END
> <PUBCHEM_COMPOUND_ID_TYPE>
0

> <PUBCHEM_TOTAL_CHARGE>
0

> <PUBCHEM_SUBSTANCE_ID>
310947757

> <PUBCHEM_SUBSTANCE_VERSION>
1

> <PUBCHEM_EXT_DATASOURCE_NAME>
4488

> <PUBCHEM_EXT_DATASOURCE_REGID>
SCHEMBL16125929

> <PUBCHEM_SUBSTANCE_COMMENT>
InChI=1S/C30H50N6O3/c1-9-35(16-15-23(2)3)26-14-13-24(20-31-26)28-25(22-36(32-28)27-12-10-11-19-38-27)21-33(7)17-18-34(8)29(37)39-30(4,5)6/h13-14,20,22-23,27H,9-12,15-19,21H2,1-8H3
InChIKey=CKKJRIDGLKCAQF-UHFFFAOYSA-N

> <PUBCHEM_SUBSTANCE_SYNONYM>
SCHEMBL16125929

> <PUBCHEM_XREF_EXT_ID>
SCHEMBL16125929

> <PUBCHEM_EXT_DATASOURCE_URL>
https://www.surechembl.org/

> <PUBCHEM_EXT_SUBSTANCE_URL>
https://www.surechembl.org/chemical/SCHEMBL16125929

> <PUBCHEM_CID_ASSOCIATIONS>
117613433  1

> <PUBCHEM_COORDINATE_TYPE>
1
3

$$$$
