310932154
  -OEChem-07211613022D

 25 28  0     1  0  0  0  0  0999 V2000
    3.5604   -1.6184    0.0000 O   0  0  0  0  0  0  0  0  0  0  0  0
    4.6808   -3.5853    0.0000 O   0  0  0  0  0  0  0  0  0  0  0  0
    5.4029   -2.3404    0.0000 O   0  0  0  0  0  0  0  0  0  0  0  0
    0.7968    0.0000    0.0000 O   0  0  0  0  0  0  0  0  0  0  0  0
    3.1372   -2.3404    0.0000 C   0  0  3  0  0  0  0  0  0  0  0  0
    3.9837   -2.3404    0.0000 C   0  0  3  0  0  0  0  0  0  0  0  0
    2.5645   -1.7429    0.0000 C   0  0  0  0  0  0  0  0  0  0  0  0
    2.4400   -2.7637    0.0000 C   0  0  0  0  0  0  0  0  0  0  0  0
    4.6808   -2.7637    0.0000 C   0  0  0  0  0  0  0  0  0  0  0  0
    1.7429   -1.9670    0.0000 C   0  0  0  0  0  0  0  0  0  0  0  0
    2.7637   -0.9462    0.0000 C   0  0  0  0  0  0  0  0  0  0  0  0
    2.4151   -3.5853    0.0000 C   0  0  0  0  0  0  0  0  0  0  0  0
    1.7179   -2.3404    0.0000 C   0  0  0  0  0  0  0  0  0  0  0  0
    1.1702   -1.3943    0.0000 C   0  0  0  0  0  0  0  0  0  0  0  0
    2.1910   -0.3734    0.0000 C   0  0  0  0  0  0  0  0  0  0  0  0
    1.3943   -0.5976    0.0000 C   0  0  0  0  0  0  0  0  0  0  0  0
    1.7179   -4.0086    0.0000 C   0  0  0  0  0  0  0  0  0  0  0  0
    0.9959   -2.7637    0.0000 C   0  0  0  0  0  0  0  0  0  0  0  0
    5.4029   -3.9837    0.0000 C   0  0  0  0  0  0  0  0  0  0  0  0
    0.9959   -3.5853    0.0000 C   0  0  0  0  0  0  0  0  0  0  0  0
    6.1498   -3.6351    0.0000 C   0  0  0  0  0  0  0  0  0  0  0  0
    5.4776   -4.8053    0.0000 C   0  0  0  0  0  0  0  0  0  0  0  0
    6.6976   -4.2576    0.0000 C   0  0  0  0  0  0  0  0  0  0  0  0
    6.2992   -4.9796    0.0000 C   0  0  0  0  0  0  0  0  0  0  0  0
    0.0000   -0.1992    0.0000 C   0  0  0  0  0  0  0  0  0  0  0  0
  1  5  1  0  0  0  0
  1  6  1  0  0  0  0
  2  9  1  0  0  0  0
  2 19  1  0  0  0  0
  3  9  2  0  0  0  0
  4 16  1  0  0  0  0
  4 25  1  0  0  0  0
  5  6  1  0  0  0  0
  5  7  1  0  0  0  0
  5  8  1  0  0  0  0
  6  9  1  0  0  0  0
  7 10  2  0  0  0  0
  7 11  1  0  0  0  0
  8 12  2  0  0  0  0
  8 13  1  0  0  0  0
 10 14  1  0  0  0  0
 11 15  2  0  0  0  0
 12 17  1  0  0  0  0
 13 18  2  0  0  0  0
 14 16  2  0  0  0  0
 15 16  1  0  0  0  0
 17 20  2  0  0  0  0
 18 20  1  0  0  0  0
 19 21  1  0  0  0  0
 19 22  1  0  0  0  0
 21 23  1  0  0  0  0
 22 24  1  0  0  0  0
 23 24  1  0  0  0  0
M  END
> <PUBCHEM_COMPOUND_ID_TYPE>
0

> <PUBCHEM_TOTAL_CHARGE>
0

> <PUBCHEM_SUBSTANCE_ID>
310932154

> <PUBCHEM_SUBSTANCE_VERSION>
1

> <PUBCHEM_EXT_DATASOURCE_NAME>
4488

> <PUBCHEM_EXT_DATASOURCE_REGID>
SCHEMBL16109507

> <PUBCHEM_SUBSTANCE_COMMENT>
InChI=1S/C21H22O4/c1-23-17-13-11-16(12-14-17)21(15-7-3-2-4-8-15)19(25-21)20(22)24-18-9-5-6-10-18/h2-4,7-8,11-14,18-19H,5-6,9-10H2,1H3
InChIKey=XCVVUPKXZYWDJD-UHFFFAOYSA-N

> <PUBCHEM_SUBSTANCE_SYNONYM>
SCHEMBL16109507

> <PUBCHEM_XREF_EXT_ID>
SCHEMBL16109507

> <PUBCHEM_EXT_DATASOURCE_URL>
https://www.surechembl.org/

> <PUBCHEM_EXT_SUBSTANCE_URL>
https://www.surechembl.org/chemical/SCHEMBL16109507

> <PUBCHEM_CID_ASSOCIATIONS>
117600759  1

> <PUBCHEM_COORDINATE_TYPE>
1
3

$$$$
