310947972
  -OEChem-07211613022D

 36 35  0     1  0  0  0  0  0999 V2000
   -0.8998   -1.4085    0.0000 O   0  0  0  0  0  0  0  0  0  0  0  0
   -5.5458   -0.4793    0.0000 O   0  0  0  0  0  0  0  0  0  0  0  0
    6.2538   -1.4085    0.0000 O   0  0  0  0  0  0  0  0  0  0  0  0
    2.6696    0.6416    0.0000 O   0  0  0  0  0  0  0  0  0  0  0  0
   -2.9500    0.3171    0.0000 N   0  0  0  0  0  0  0  0  0  0  0  0
   -6.9617   -0.4646    0.0000 N   0  0  0  0  0  0  0  0  0  0  0  0
    1.2537   -0.1697    0.0000 N   0  0  0  0  0  0  0  0  0  0  0  0
    4.1151   -0.1697    0.0000 N   0  0  0  0  0  0  0  0  0  0  0  0
   -0.1770    1.1873    0.0000 N   0  0  0  0  0  0  0  0  0  0  0  0
    8.0679    0.3171    0.0000 N   0  0  0  0  0  0  0  0  0  0  0  0
    5.5458    1.1578    0.0000 N   0  0  0  0  0  0  0  0  0  0  0  0
   -5.5458   -2.1166    0.0000 N   0  0  0  0  0  0  0  0  0  0  0  0
   -6.9617   -2.9278    0.0000 N   0  0  0  0  0  0  0  0  0  0  0  0
   -0.8850   -0.6121    0.0000 C   0  0  0  0  0  0  0  0  0  0  0  0
   -0.1917   -0.2286    0.0000 C   0  0  3  0  0  0  0  0  0  0  0  0
   -3.6726    1.4971    0.0000 C   0  0  3  0  0  0  0  0  0  0  0  0
   -7.6845    0.7006    0.0000 C   0  0  3  0  0  0  0  0  0  0  0  0
   -2.9500    1.0693    0.0000 C   0  0  0  0  0  0  0  0  0  0  0  0
   -7.4779    1.4823    0.0000 C   0  0  0  0  0  0  0  0  0  0  0  0
    5.5310   -0.2286    0.0000 C   0  0  3  0  0  0  0  0  0  0  0  0
   -6.2685   -0.9514    0.0000 C   0  0  0  0  0  0  0  0  0  0  0  0
    0.5605   -0.6268    0.0000 C   0  0  0  0  0  0  0  0  0  0  0  0
    6.2538   -0.6121    0.0000 C   0  0  0  0  0  0  0  0  0  0  0  0
   -6.9765    0.2877    0.0000 C   0  0  0  0  0  0  0  0  0  0  0  0
   -6.2685   -1.7626    0.0000 C   0  0  3  0  0  0  0  0  0  0  0  0
    2.6696   -0.2286    0.0000 C   0  0  3  0  0  0  0  0  0  0  0  0
   -3.4514    2.2788    0.0000 C   0  0  0  0  0  0  0  0  0  0  0  0
    4.8378   -0.6268    0.0000 C   0  0  0  0  0  0  0  0  0  0  0  0
    1.9912   -0.6268    0.0000 C   0  0  0  0  0  0  0  0  0  0  0  0
    3.4071   -0.6268    0.0000 C   0  0  0  0  0  0  0  0  0  0  0  0
   -9.7789    0.6711    0.0000 C   0  0  0  0  0  0  0  0  0  0  0  0
   -6.9765   -2.1755    0.0000 C   0  0  0  0  0  0  0  0  0  0  0  0
    8.0679    1.0841    0.0000 C   0  0  0  0  0  0  0  0  0  0  0  0
   -1.4454    2.2935    0.0000 C   0  0  0  0  0  0  0  0  0  0  0  0
    8.8792    1.5118    0.0000 C   0  0  0  0  0  0  0  0  0  0  0  0
    9.7789    1.4823    0.0000 C   0  0  0  0  0  0  0  0  0  0  0  0
  1 14  2  0  0  0  0
  2 21  2  0  0  0  0
  3 23  2  0  0  0  0
  4 26  1  0  0  0  0
  5 14  1  0  0  0  0
  5 18  1  0  0  0  0
  6 21  1  0  0  0  0
  6 24  1  0  0  0  0
  7 22  1  0  0  0  0
  7 29  1  0  0  0  0
  8 28  1  0  0  0  0
  8 30  1  0  0  0  0
  9 15  1  0  0  0  0
 10 23  1  0  0  0  0
 10 33  1  0  0  0  0
 11 20  1  0  0  0  0
 12 25  1  0  0  0  0
 13 32  1  0  0  0  0
 14 15  1  0  0  0  0
 15 22  1  0  0  0  0
 16 18  1  0  0  0  0
 16 19  1  0  0  0  0
 16 27  1  0  0  0  0
 17 19  1  0  0  0  0
 17 24  1  0  0  0  0
 17 31  1  0  0  0  0
 20 23  1  0  0  0  0
 20 28  1  0  0  0  0
 21 25  1  0  0  0  0
 25 32  1  0  0  0  0
 26 29  1  0  0  0  0
 26 30  1  0  0  0  0
 27 34  1  0  0  0  0
 33 35  1  0  0  0  0
 35 36  1  0  0  0  0
M  END
> <PUBCHEM_COMPOUND_ID_TYPE>
0

> <PUBCHEM_TOTAL_CHARGE>
0

> <PUBCHEM_SUBSTANCE_ID>
310947972

> <PUBCHEM_SUBSTANCE_VERSION>
1

> <PUBCHEM_EXT_DATASOURCE_NAME>
4488

> <PUBCHEM_EXT_DATASOURCE_REGID>
SCHEMBL16126146

> <PUBCHEM_SUBSTANCE_COMMENT>
InChI=1S/C23H51N9O4/c1-4-6-30-22(35)19(26)13-28-11-17(33)12-29-14-20(27)23(36)32-10-16(5-2)7-15(3)9-31-21(34)18(25)8-24/h15-20,28-29,33H,4-14,24-27H2,1-3H3,(H,30,35)(H,31,34)(H,32,36)
InChIKey=NXNCQPDLHRCJFO-UHFFFAOYSA-N

> <PUBCHEM_SUBSTANCE_SYNONYM>
SCHEMBL16126146

> <PUBCHEM_XREF_EXT_ID>
SCHEMBL16126146

> <PUBCHEM_EXT_DATASOURCE_URL>
https://www.surechembl.org/

> <PUBCHEM_EXT_SUBSTANCE_URL>
https://www.surechembl.org/chemical/SCHEMBL16126146

> <PUBCHEM_CID_ASSOCIATIONS>
117613619  1

> <PUBCHEM_COORDINATE_TYPE>
1
3

> <PUBCHEM_BONDANNOTATIONS>
35  36  3

$$$$
