310946564
  -OEChem-07211613022D

 19 18  0     1  0  0  0  0  0999 V2000
   -5.3146    6.7517    0.0000 S   0  0  0  0  0  0  0  0  0  0  0  0
   -8.1725    4.2767    0.0000 O   0  0  0  0  0  0  0  0  0  0  0  0
   -7.4581    5.5142    0.0000 O   0  0  0  0  0  0  0  0  0  0  0  0
   -5.3146    3.4517    0.0000 O   0  0  0  0  0  0  0  0  0  0  0  0
   -8.1725    1.8017    0.0000 O   0  0  0  0  0  0  0  0  0  0  0  0
   -6.7436    1.8017    0.0000 O   0  5  0  0  0  0  0  0  0  0  0  0
   -7.4581    3.0392    0.0000 O   0  0  0  0  0  0  0  0  0  0  0  0
   -6.7436    4.2767    0.0000 N   0  0  0  0  0  0  0  0  0  0  0  0
   -7.4581    2.2142    0.0000 N   0  3  0  0  0  0  0  0  0  0  0  0
   -6.0291    4.6892    0.0000 C   0  0  3  0  0  0  0  0  0  0  0  0
   -7.4581    4.6892    0.0000 C   0  0  0  0  0  0  0  0  0  0  0  0
   -5.3146    4.2767    0.0000 C   0  0  0  0  0  0  0  0  0  0  0  0
   -6.0291    5.5142    0.0000 C   0  0  0  0  0  0  0  0  0  0  0  0
   -8.1725    3.4517    0.0000 C   0  0  0  0  0  0  0  0  0  0  0  0
   -5.3146    5.9267    0.0000 C   0  0  0  0  0  0  0  0  0  0  0  0
   -8.8870    3.0392    0.0000 C   0  0  0  0  0  0  0  0  0  0  0  0
   -4.6002    4.6892    0.0000 C   0  0  0  0  0  0  0  0  0  0  0  0
   -8.8870    2.2142    0.0000 C   0  0  0  0  0  0  0  0  0  0  0  0
   -4.6002    7.1642    0.0000 C   0  0  0  0  0  0  0  0  0  0  0  0
  1 15  1  0  0  0  0
  1 19  1  0  0  0  0
  2 11  1  0  0  0  0
  2 14  1  0  0  0  0
  3 11  2  0  0  0  0
  4 12  2  0  0  0  0
  5  9  1  0  0  0  0
  5 18  1  0  0  0  0
  6  9  1  0  0  0  0
  7  9  2  0  0  0  0
  8 10  1  0  0  0  0
  8 11  1  0  0  0  0
 10 12  1  0  0  0  0
 10 13  1  0  0  0  0
 12 17  1  0  0  0  0
 13 15  1  0  0  0  0
 14 16  1  0  0  0  0
 16 18  1  0  0  0  0
M  CHG  2   6  -1   9   1
M  END
> <PUBCHEM_COMPOUND_ID_TYPE>
0

> <PUBCHEM_TOTAL_CHARGE>
0

> <PUBCHEM_SUBSTANCE_ID>
310946564

> <PUBCHEM_SUBSTANCE_VERSION>
1

> <PUBCHEM_EXT_DATASOURCE_NAME>
4488

> <PUBCHEM_EXT_DATASOURCE_REGID>
SCHEMBL16124685

> <PUBCHEM_SUBSTANCE_COMMENT>
InChI=1S/C10H18N2O6S/c1-8(13)9(4-7-19-2)11-10(14)17-5-3-6-18-12(15)16/h9H,3-7H2,1-2H3,(H,11,14)
InChIKey=CBYXTLSTSXMJPK-UHFFFAOYSA-N

> <PUBCHEM_SUBSTANCE_SYNONYM>
SCHEMBL16124685

> <PUBCHEM_XREF_EXT_ID>
SCHEMBL16124685

> <PUBCHEM_EXT_DATASOURCE_URL>
https://www.surechembl.org/

> <PUBCHEM_EXT_SUBSTANCE_URL>
https://www.surechembl.org/chemical/SCHEMBL16124685

> <PUBCHEM_CID_ASSOCIATIONS>
117612466  1

> <PUBCHEM_COORDINATE_TYPE>
1
3

$$$$
