310935181
  -OEChem-07211613022D

 25 28  0     1  0  0  0  0  0999 V2000
    0.7846    0.6674    0.0000 S   0  0  0  0  0  0  0  0  0  0  0  0
   -5.0924   -3.7013    0.0000 F   0  0  0  0  0  0  0  0  0  0  0  0
   -3.7948    0.2840    0.0000 O   0  0  0  0  0  0  0  0  0  0  0  0
   -4.8227   -0.7087    0.0000 O   0  0  0  0  0  0  0  0  0  0  0  0
    0.7846   -0.6674    0.0000 N   0  0  0  0  0  0  0  0  0  0  0  0
   -3.4491   -1.1026    0.0000 C   0  0  3  0  0  0  0  0  0  0  0  0
   -4.3779   -1.6388    0.0000 C   0  0  0  0  0  0  0  0  0  0  0  0
   -2.1434   -0.8250    0.0000 C   0  0  0  0  0  0  0  0  0  0  0  0
   -2.8971   -0.4895    0.0000 C   0  0  0  0  0  0  0  0  0  0  0  0
   -3.0366   -1.8170    0.0000 C   0  0  0  0  0  0  0  0  0  0  0  0
   -4.0222   -0.5091    0.0000 C   0  0  0  0  0  0  0  0  0  0  0  0
   -1.4290   -0.4125    0.0000 C   0  0  0  0  0  0  0  0  0  0  0  0
   -4.3779   -2.4638    0.0000 C   0  0  0  0  0  0  0  0  0  0  0  0
   -2.2296   -1.6455    0.0000 C   0  0  0  0  0  0  0  0  0  0  0  0
   -5.0924   -1.2263    0.0000 C   0  0  0  0  0  0  0  0  0  0  0  0
    0.0000   -0.4125    0.0000 C   0  0  0  0  0  0  0  0  0  0  0  0
   -0.7144   -0.8250    0.0000 C   0  0  0  0  0  0  0  0  0  0  0  0
   -5.0924   -2.8763    0.0000 C   0  0  0  0  0  0  0  0  0  0  0  0
    0.0000    0.4125    0.0000 C   0  0  0  0  0  0  0  0  0  0  0  0
   -1.4290    0.4125    0.0000 C   0  0  0  0  0  0  0  0  0  0  0  0
   -0.7144    0.8250    0.0000 C   0  0  0  0  0  0  0  0  0  0  0  0
   -5.8069   -1.6388    0.0000 C   0  0  0  0  0  0  0  0  0  0  0  0
   -5.8069   -2.4638    0.0000 C   0  0  0  0  0  0  0  0  0  0  0  0
   -3.6635   -2.8763    0.0000 C   0  0  0  0  0  0  0  0  0  0  0  0
    1.2696    0.0000    0.0000 C   0  0  0  0  0  0  0  0  0  0  0  0
  1 19  1  0  0  0  0
  1 25  1  0  0  0  0
  2 18  1  0  0  0  0
  3 11  2  0  0  0  0
  4 11  1  0  0  0  0
  5 16  1  0  0  0  0
  5 25  2  0  0  0  0
  6  7  1  0  0  0  0
  6  9  1  0  0  0  0
  6 10  1  0  0  0  0
  6 11  1  0  0  0  0
  7 13  1  0  0  0  0
  7 15  2  0  0  0  0
  8  9  2  0  0  0  0
  8 12  1  0  0  0  0
  8 14  1  0  0  0  0
 10 14  1  0  0  0  0
 12 17  1  0  0  0  0
 12 20  2  0  0  0  0
 13 18  2  0  0  0  0
 13 24  1  0  0  0  0
 15 22  1  0  0  0  0
 16 17  2  0  0  0  0
 16 19  1  0  0  0  0
 18 23  1  0  0  0  0
 19 21  2  0  0  0  0
 20 21  1  0  0  0  0
 22 23  2  0  0  0  0
M  END
> <PUBCHEM_COMPOUND_ID_TYPE>
0

> <PUBCHEM_TOTAL_CHARGE>
0

> <PUBCHEM_SUBSTANCE_ID>
310935181

> <PUBCHEM_SUBSTANCE_VERSION>
1

> <PUBCHEM_EXT_DATASOURCE_NAME>
4488

> <PUBCHEM_EXT_DATASOURCE_REGID>
SCHEMBL16112709

> <PUBCHEM_SUBSTANCE_COMMENT>
InChI=1S/C20H16FNO2S/c1-12-15(3-2-4-16(12)21)20(19(23)24)8-7-14(10-20)13-5-6-18-17(9-13)22-11-25-18/h2-6,9-11H,7-8H2,1H3,(H,23,24)
InChIKey=ZXBXYXXHYYKBSN-UHFFFAOYSA-N

> <PUBCHEM_SUBSTANCE_SYNONYM>
SCHEMBL16112709

> <PUBCHEM_XREF_EXT_ID>
SCHEMBL16112709

> <PUBCHEM_EXT_DATASOURCE_URL>
https://www.surechembl.org/

> <PUBCHEM_EXT_SUBSTANCE_URL>
https://www.surechembl.org/chemical/SCHEMBL16112709

> <PUBCHEM_CID_ASSOCIATIONS>
117603264  1

> <PUBCHEM_COORDINATE_TYPE>
1
3

$$$$
