310931364
  -OEChem-07211613022D

 28 31  0     1  0  0  0  0  0999 V2000
    3.2758    0.0000    0.0000 O   0  0  0  0  0  0  0  0  0  0  0  0
    4.3977   -1.9521    0.0000 O   0  0  0  0  0  0  0  0  0  0  0  0
    5.1157   -0.7180    0.0000 O   0  0  0  0  0  0  0  0  0  0  0  0
    2.8496   -3.9041    0.0000 O   0  0  0  0  0  0  0  0  0  0  0  0
    0.0000   -2.3784    0.0000 O   0  0  0  0  0  0  0  0  0  0  0  0
    3.7021   -0.7180    0.0000 C   0  0  3  0  0  0  0  0  0  0  0  0
    2.8720   -0.7180    0.0000 C   0  0  3  0  0  0  0  0  0  0  0  0
    3.4778   -1.5257    0.0000 C   0  0  0  0  0  0  0  0  0  0  0  0
    4.3977   -1.1219    0.0000 C   0  0  0  0  0  0  0  0  0  0  0  0
    2.1540   -1.1219    0.0000 C   0  0  0  0  0  0  0  0  0  0  0  0
    4.0611   -2.1091    0.0000 C   0  0  0  0  0  0  0  0  0  0  0  0
    2.6925   -1.7501    0.0000 C   0  0  0  0  0  0  0  0  0  0  0  0
    2.1540   -1.9745    0.0000 C   0  0  0  0  0  0  0  0  0  0  0  0
    1.4360   -0.7180    0.0000 C   0  0  0  0  0  0  0  0  0  0  0  0
    3.8592   -2.8944    0.0000 C   0  0  0  0  0  0  0  0  0  0  0  0
    2.4681   -2.5354    0.0000 C   0  0  0  0  0  0  0  0  0  0  0  0
    5.1157   -2.3784    0.0000 C   0  0  0  0  0  0  0  0  0  0  0  0
    3.0515   -3.1188    0.0000 C   0  0  0  0  0  0  0  0  0  0  0  0
    1.4360   -2.3784    0.0000 C   0  0  0  0  0  0  0  0  0  0  0  0
    0.7404   -1.1219    0.0000 C   0  0  0  0  0  0  0  0  0  0  0  0
    0.7180   -1.9521    0.0000 C   0  0  0  0  0  0  0  0  0  0  0  0
    5.8561   -1.9745    0.0000 C   0  0  0  0  0  0  0  0  0  0  0  0
    5.1381   -3.2085    0.0000 C   0  0  0  0  0  0  0  0  0  0  0  0
    6.5517   -2.3784    0.0000 C   0  0  0  0  0  0  0  0  0  0  0  0
    5.8561   -3.6124    0.0000 C   0  0  0  0  0  0  0  0  0  0  0  0
    6.5741   -3.2085    0.0000 C   0  0  0  0  0  0  0  0  0  0  0  0
    3.4329   -4.4875    0.0000 C   0  0  0  0  0  0  0  0  0  0  0  0
    0.0000   -3.1861    0.0000 C   0  0  0  0  0  0  0  0  0  0  0  0
  1  6  1  0  0  0  0
  1  7  1  0  0  0  0
  2  9  1  0  0  0  0
  2 17  1  0  0  0  0
  3  9  2  0  0  0  0
  4 18  1  0  0  0  0
  4 27  1  0  0  0  0
  5 21  1  0  0  0  0
  5 28  1  0  0  0  0
  6  7  1  0  0  0  0
  6  8  1  0  0  0  0
  6  9  1  0  0  0  0
  7 10  1  0  0  0  0
  8 11  2  0  0  0  0
  8 12  1  0  0  0  0
 10 13  2  0  0  0  0
 10 14  1  0  0  0  0
 11 15  1  0  0  0  0
 12 16  2  0  0  0  0
 13 19  1  0  0  0  0
 14 20  2  0  0  0  0
 15 18  2  0  0  0  0
 16 18  1  0  0  0  0
 17 22  1  0  0  0  0
 17 23  1  0  0  0  0
 19 21  2  0  0  0  0
 20 21  1  0  0  0  0
 22 24  1  0  0  0  0
 23 25  1  0  0  0  0
 24 26  1  0  0  0  0
 25 26  1  0  0  0  0
M  END
> <PUBCHEM_COMPOUND_ID_TYPE>
0

> <PUBCHEM_TOTAL_CHARGE>
0

> <PUBCHEM_SUBSTANCE_ID>
310931364

> <PUBCHEM_SUBSTANCE_VERSION>
1

> <PUBCHEM_EXT_DATASOURCE_NAME>
4488

> <PUBCHEM_EXT_DATASOURCE_REGID>
SCHEMBL16108687

> <PUBCHEM_SUBSTANCE_COMMENT>
InChI=1S/C23H26O5/c1-25-18-12-8-16(9-13-18)21-23(28-21,17-10-14-19(26-2)15-11-17)22(24)27-20-6-4-3-5-7-20/h8-15,20-21H,3-7H2,1-2H3
InChIKey=ZRVZKKACLXPVQE-UHFFFAOYSA-N

> <PUBCHEM_SUBSTANCE_SYNONYM>
SCHEMBL16108687

> <PUBCHEM_XREF_EXT_ID>
SCHEMBL16108687

> <PUBCHEM_EXT_DATASOURCE_URL>
https://www.surechembl.org/

> <PUBCHEM_EXT_SUBSTANCE_URL>
https://www.surechembl.org/chemical/SCHEMBL16108687

> <PUBCHEM_CID_ASSOCIATIONS>
117600164  1

> <PUBCHEM_COORDINATE_TYPE>
1
3

$$$$
