310934892
  -OEChem-07211613022D

 23 25  0     1  0  0  0  0  0999 V2000
    0.0000   -2.8816    0.0000 F   0  0  0  0  0  0  0  0  0  0  0  0
    5.1506   -0.9756    0.0000 O   0  0  0  0  0  0  0  0  0  0  0  0
    3.5623    0.0000    0.0000 O   0  0  0  0  0  0  0  0  0  0  0  0
    3.5623   -0.8168    0.0000 N   0  0  0  0  0  0  0  0  0  0  0  0
    1.4068   -4.5380    0.0000 N   0  0  0  0  0  0  0  0  0  0  0  0
    4.2884   -2.0648    0.0000 C   0  0  3  0  0  0  0  0  0  0  0  0
    4.9918   -1.6337    0.0000 C   0  0  0  0  0  0  0  0  0  0  0  0
    4.2657   -1.2253    0.0000 C   0  0  0  0  0  0  0  0  0  0  0  0
    4.2884   -2.8816    0.0000 C   0  0  0  0  0  0  0  0  0  0  0  0
    3.5623   -1.6564    0.0000 C   0  0  0  0  0  0  0  0  0  0  0  0
    2.8589   -2.8816    0.0000 C   0  0  0  0  0  0  0  0  0  0  0  0
    3.5850   -3.2900    0.0000 C   0  0  0  0  0  0  0  0  0  0  0  0
    2.8589   -2.0648    0.0000 C   0  0  0  0  0  0  0  0  0  0  0  0
    2.1329   -3.2900    0.0000 C   0  0  0  0  0  0  0  0  0  0  0  0
    4.9918   -0.8168    0.0000 C   0  0  0  0  0  0  0  0  0  0  0  0
    5.7179   -2.0421    0.0000 C   0  0  0  0  0  0  0  0  0  0  0  0
    1.4068   -2.9043    0.0000 C   0  0  0  0  0  0  0  0  0  0  0  0
    2.1101   -4.1296    0.0000 C   0  0  0  0  0  0  0  0  0  0  0  0
    0.7034   -3.3128    0.0000 C   0  0  0  0  0  0  0  0  0  0  0  0
    5.6952   -0.3857    0.0000 C   0  0  0  0  0  0  0  0  0  0  0  0
    6.4213   -1.6337    0.0000 C   0  0  0  0  0  0  0  0  0  0  0  0
    6.4213   -0.8168    0.0000 C   0  0  0  0  0  0  0  0  0  0  0  0
    0.6807   -4.1522    0.0000 C   0  0  0  0  0  0  0  0  0  0  0  0
  1 19  1  0  0  0  0
  2  8  2  0  0  0  0
  3  4  1  0  0  0  0
  4  8  1  0  0  0  0
  5 18  1  0  0  0  0
  5 23  2  0  0  0  0
  6  7  1  0  0  0  0
  6  8  1  0  0  0  0
  6  9  1  0  0  0  0
  6 10  1  0  0  0  0
  7 15  2  0  0  0  0
  7 16  1  0  0  0  0
  9 12  1  0  0  0  0
 10 13  1  0  0  0  0
 11 12  2  0  0  0  0
 11 13  1  0  0  0  0
 11 14  1  0  0  0  0
 14 17  1  0  0  0  0
 14 18  2  0  0  0  0
 15 20  1  0  0  0  0
 16 21  2  0  0  0  0
 17 19  2  0  0  0  0
 19 23  1  0  0  0  0
 20 22  2  0  0  0  0
 21 22  1  0  0  0  0
M  END
> <PUBCHEM_COMPOUND_ID_TYPE>
0

> <PUBCHEM_TOTAL_CHARGE>
0

> <PUBCHEM_SUBSTANCE_ID>
310934892

> <PUBCHEM_SUBSTANCE_VERSION>
1

> <PUBCHEM_EXT_DATASOURCE_NAME>
4488

> <PUBCHEM_EXT_DATASOURCE_REGID>
SCHEMBL16112405

> <PUBCHEM_SUBSTANCE_COMMENT>
InChI=1S/C18H17FN2O2/c19-16-10-14(11-20-12-16)13-6-8-18(9-7-13,17(22)21-23)15-4-2-1-3-5-15/h1-6,10-12,23H,7-9H2,(H,21,22)
InChIKey=VZJBRHOEUHTLHH-UHFFFAOYSA-N

> <PUBCHEM_SUBSTANCE_SYNONYM>
SCHEMBL16112405

> <PUBCHEM_XREF_EXT_ID>
SCHEMBL16112405

> <PUBCHEM_EXT_DATASOURCE_URL>
https://www.surechembl.org/

> <PUBCHEM_EXT_SUBSTANCE_URL>
https://www.surechembl.org/chemical/SCHEMBL16112405

> <PUBCHEM_CID_ASSOCIATIONS>
86303608  1

> <PUBCHEM_COORDINATE_TYPE>
1
3

$$$$
