310934957
  -OEChem-07211613022D

 29 32  0     1  0  0  0  0  0999 V2000
    1.9184    0.3263    0.0000 F   0  0  0  0  0  0  0  0  0  0  0  0
    1.0979    0.4125    0.0000 F   0  0  0  0  0  0  0  0  0  0  0  0
    2.2540   -0.4274    0.0000 F   0  0  0  0  0  0  0  0  0  0  0  0
    0.9485   -1.0086    0.0000 O   0  0  0  0  0  0  0  0  0  0  0  0
   -2.3334   -0.6637    0.0000 N   0  0  0  0  0  0  0  0  0  0  0  0
   -2.8855   -1.2768    0.0000 N   0  0  0  0  0  0  0  0  0  0  0  0
   -3.5529   -0.1207    0.0000 N   0  0  0  0  0  0  0  0  0  0  0  0
   -7.2116   -1.3537    0.0000 N   0  0  0  0  0  0  0  0  0  0  0  0
   -3.6391   -0.9412    0.0000 C   0  0  0  0  0  0  0  0  0  0  0  0
   -1.5130   -0.7499    0.0000 C   0  0  0  0  0  0  0  0  0  0  0  0
   -4.3537   -1.3537    0.0000 C   0  0  0  0  0  0  0  0  0  0  0  0
   -2.7459    0.0508    0.0000 C   0  0  0  0  0  0  0  0  0  0  0  0
    0.1281   -0.9224    0.0000 C   0  0  0  0  0  0  0  0  0  0  0  0
   -1.1774   -1.5036    0.0000 C   0  0  0  0  0  0  0  0  0  0  0  0
   -1.0280   -0.0824    0.0000 C   0  0  0  0  0  0  0  0  0  0  0  0
   -4.3537   -2.1787    0.0000 C   0  0  0  0  0  0  0  0  0  0  0  0
   -5.0681   -0.9412    0.0000 C   0  0  0  0  0  0  0  0  0  0  0  0
   -0.3569   -1.5899    0.0000 C   0  0  0  0  0  0  0  0  0  0  0  0
   -0.2075   -0.1687    0.0000 C   0  0  0  0  0  0  0  0  0  0  0  0
   -5.7826   -2.1787    0.0000 C   0  0  0  0  0  0  0  0  0  0  0  0
    1.4335   -0.3412    0.0000 C   0  0  0  0  0  0  0  0  0  0  0  0
   -5.0681   -2.5913    0.0000 C   0  0  0  0  0  0  0  0  0  0  0  0
   -5.7826   -1.3537    0.0000 C   0  0  0  0  0  0  0  0  0  0  0  0
   -6.4971   -2.5913    0.0000 C   0  0  0  0  0  0  0  0  0  0  0  0
   -7.2116   -2.1787    0.0000 C   0  0  3  0  0  0  0  0  0  0  0  0
   -8.6406   -2.1787    0.0000 C   0  0  0  0  0  0  0  0  0  0  0  0
   -7.9260   -2.5913    0.0000 C   0  0  0  0  0  0  0  0  0  0  0  0
   -9.4656   -2.1787    0.0000 C   0  0  0  0  0  0  0  0  0  0  0  0
   -9.0531   -1.4643    0.0000 C   0  0  0  0  0  0  0  0  0  0  0  0
  1 21  1  0  0  0  0
  2 21  1  0  0  0  0
  3 21  1  0  0  0  0
  4 13  1  0  0  0  0
  4 21  1  0  0  0  0
  5  6  1  0  0  0  0
  5 10  1  0  0  0  0
  5 12  1  0  0  0  0
  6  9  2  0  0  0  0
  7  9  1  0  0  0  0
  7 12  2  0  0  0  0
  8 25  1  0  0  0  0
  9 11  1  0  0  0  0
 10 14  2  0  0  0  0
 10 15  1  0  0  0  0
 11 16  2  0  0  0  0
 11 17  1  0  0  0  0
 13 18  2  0  0  0  0
 13 19  1  0  0  0  0
 14 18  1  0  0  0  0
 15 19  2  0  0  0  0
 16 22  1  0  0  0  0
 17 23  2  0  0  0  0
 20 22  2  0  0  0  0
 20 23  1  0  0  0  0
 20 24  1  0  0  0  0
 24 25  1  0  0  0  0
 25 27  1  0  0  0  0
 26 27  1  0  0  0  0
 26 28  1  0  0  0  0
 26 29  1  0  0  0  0
 28 29  1  0  0  0  0
M  END
> <PUBCHEM_COMPOUND_ID_TYPE>
0

> <PUBCHEM_TOTAL_CHARGE>
0

> <PUBCHEM_SUBSTANCE_ID>
310934957

> <PUBCHEM_SUBSTANCE_VERSION>
1

> <PUBCHEM_EXT_DATASOURCE_NAME>
4488

> <PUBCHEM_EXT_DATASOURCE_REGID>
SCHEMBL16112473

> <PUBCHEM_SUBSTANCE_COMMENT>
InChI=1S/C21H21F3N4O/c22-21(23,24)29-19-9-7-18(8-10-19)28-13-26-20(27-28)16-5-3-15(4-6-16)12-17(25)11-14-1-2-14/h3-10,13-14,17H,1-2,11-12,25H2
InChIKey=XEEPABAYEYQSJI-UHFFFAOYSA-N

> <PUBCHEM_SUBSTANCE_SYNONYM>
SCHEMBL16112473

> <PUBCHEM_XREF_EXT_ID>
SCHEMBL16112473

> <PUBCHEM_EXT_DATASOURCE_URL>
https://www.surechembl.org/

> <PUBCHEM_EXT_SUBSTANCE_URL>
https://www.surechembl.org/chemical/SCHEMBL16112473

> <PUBCHEM_CID_ASSOCIATIONS>
117603077  1

> <PUBCHEM_COORDINATE_TYPE>
1
3

$$$$
