310942338
  -OEChem-07211613022D

 37 40  0     1  0  0  0  0  0999 V2000
    3.9618    2.3425    0.0000 F   0  0  0  0  0  0  0  0  0  0  0  0
    4.7765    2.4545    0.0000 F   0  0  0  0  0  0  0  0  0  0  0  0
    5.2857    1.8128    0.0000 F   0  0  0  0  0  0  0  0  0  0  0  0
   -1.0083   -2.4137    0.0000 O   0  0  0  0  0  0  0  0  0  0  0  0
   -2.4442    0.0509    0.0000 O   0  0  0  0  0  0  0  0  0  0  0  0
   -3.8701   -2.4137    0.0000 O   0  0  0  0  0  0  0  0  0  0  0  0
    0.9879   -0.8861    0.0000 N   0  0  0  0  0  0  0  0  0  0  0  0
    1.8026   -1.0592    0.0000 N   0  0  0  0  0  0  0  0  0  0  0  0
   -1.7313   -1.1814    0.0000 N   0  0  0  0  0  0  0  0  0  0  0  0
    3.3609    0.8453    0.0000 N   0  0  0  0  0  0  0  0  0  0  0  0
   -4.5728   -1.1916    0.0000 N   0  0  0  0  0  0  0  0  0  0  0  0
    0.5703   -0.1833    0.0000 C   0  0  0  0  0  0  0  0  0  0  0  0
   -0.3055   -1.1712    0.0000 C   0  0  0  0  0  0  0  0  0  0  0  0
    0.4481   -1.5073    0.0000 C   0  0  0  0  0  0  0  0  0  0  0  0
   -0.2139   -0.3463    0.0000 C   0  0  0  0  0  0  0  0  0  0  0  0
    0.9064    0.5806    0.0000 C   0  0  3  0  0  0  0  0  0  0  0  0
   -1.0083   -1.5582    0.0000 C   0  0  0  0  0  0  0  0  0  0  0  0
    0.7129   -2.2813    0.0000 C   0  0  0  0  0  0  0  0  0  0  0  0
    1.7212    0.6620    0.0000 C   0  0  0  0  0  0  0  0  0  0  0  0
   -0.8453    0.1935    0.0000 C   0  0  0  0  0  0  0  0  0  0  0  0
    2.0573   -1.8332    0.0000 C   0  0  0  0  0  0  0  0  0  0  0  0
    1.5073   -2.4545    0.0000 C   0  0  0  0  0  0  0  0  0  0  0  0
    0.4176    1.2425    0.0000 C   0  0  0  0  0  0  0  0  0  0  0  0
    2.0573    1.4157    0.0000 C   0  0  0  0  0  0  0  0  0  0  0  0
    2.2100    0.0102    0.0000 C   0  0  0  0  0  0  0  0  0  0  0  0
   -3.1572   -1.1916    0.0000 C   0  0  0  0  0  0  0  0  0  0  0  0
   -2.4239   -1.5990    0.0000 C   0  0  0  0  0  0  0  0  0  0  0  0
   -3.1470   -0.3667    0.0000 C   0  0  0  0  0  0  0  0  0  0  0  0
   -3.8701   -1.5684    0.0000 C   0  0  0  0  0  0  0  0  0  0  0  0
    2.8822    1.4971    0.0000 C   0  0  0  0  0  0  0  0  0  0  0  0
    3.0248    0.0916    0.0000 C   0  0  0  0  0  0  0  0  0  0  0  0
   -3.8803    0.0306    0.0000 C   0  0  0  0  0  0  0  0  0  0  0  0
   -4.5728   -0.3565    0.0000 C   0  0  0  0  0  0  0  0  0  0  0  0
    4.1654    0.9370    0.0000 C   0  0  0  0  0  0  0  0  0  0  0  0
    4.4812    1.7212    0.0000 C   0  0  0  0  0  0  0  0  0  0  0  0
   -5.2857    0.0611    0.0000 C   0  0  0  0  0  0  0  0  0  0  0  0
   -2.4341    0.8861    0.0000 C   0  0  0  0  0  0  0  0  0  0  0  0
  1 35  1  0  0  0  0
  2 35  1  0  0  0  0
  3 35  1  0  0  0  0
  4 17  2  0  0  0  0
  5 28  1  0  0  0  0
  5 37  1  0  0  0  0
  6 29  2  0  0  0  0
  7  8  1  0  0  0  0
  7 12  1  0  0  0  0
  7 14  1  0  0  0  0
  8 21  2  0  0  0  0
  9 17  1  0  0  0  0
  9 27  1  0  0  0  0
 10 30  1  0  0  0  0
 10 31  1  0  0  0  0
 10 34  1  0  0  0  0
 11 29  1  0  0  0  0
 11 33  1  0  0  0  0
 12 15  2  0  0  0  0
 12 16  1  0  0  0  0
 13 14  2  0  0  0  0
 13 15  1  0  0  0  0
 13 17  1  0  0  0  0
 14 18  1  0  0  0  0
 15 20  1  0  0  0  0
 16 19  1  0  0  0  0
 16 23  1  0  0  0  0
 18 22  2  0  0  0  0
 19 24  1  0  0  0  0
 19 25  1  0  0  0  0
 21 22  1  0  0  0  0
 24 30  1  0  0  0  0
 25 31  1  0  0  0  0
 26 27  1  0  0  0  0
 26 28  2  0  0  0  0
 26 29  1  0  0  0  0
 28 32  1  0  0  0  0
 32 33  2  0  0  0  0
 33 36  1  0  0  0  0
 34 35  1  0  0  0  0
M  END
> <PUBCHEM_COMPOUND_ID_TYPE>
0

> <PUBCHEM_TOTAL_CHARGE>
0

> <PUBCHEM_SUBSTANCE_ID>
310942338

> <PUBCHEM_SUBSTANCE_VERSION>
1

> <PUBCHEM_EXT_DATASOURCE_NAME>
4488

> <PUBCHEM_EXT_DATASOURCE_REGID>
SCHEMBL16120374

> <PUBCHEM_SUBSTANCE_COMMENT>
InChI=1S/C26H32F3N5O3/c1-15-12-21(37-4)19(24(35)32-15)13-30-25(36)22-17(3)23(34-20(22)6-5-9-31-34)16(2)18-7-10-33(11-8-18)14-26(27,28)29/h5-6,9,12,16,18H,7-8,10-11,13-14H2,1-4H3,(H,30,36)(H,32,35)
InChIKey=LAVKXBQLGZSXAC-UHFFFAOYSA-N

> <PUBCHEM_SUBSTANCE_SYNONYM>
SCHEMBL16120374

> <PUBCHEM_XREF_EXT_ID>
SCHEMBL16120374

> <PUBCHEM_EXT_DATASOURCE_URL>
https://www.surechembl.org/

> <PUBCHEM_EXT_SUBSTANCE_URL>
https://www.surechembl.org/chemical/SCHEMBL16120374

> <PUBCHEM_CID_ASSOCIATIONS>
117608962  1

> <PUBCHEM_COORDINATE_TYPE>
1
3

$$$$
