310939479
  -OEChem-07211613022D

 25 27  0     1  0  0  0  0  0999 V2000
    0.9880   -2.0679    0.0000 O   0  0  0  0  0  0  0  0  0  0  0  0
    2.4169   -1.2429    0.0000 O   0  0  0  0  0  0  0  0  0  0  0  0
   -0.4410   -2.0679    0.0000 O   0  0  0  0  0  0  0  0  0  0  0  0
   -2.9017    1.4380    0.0000 O   0  0  0  0  0  0  0  0  0  0  0  0
   -3.1314   -0.0857    0.0000 O   0  0  0  0  0  0  0  0  0  0  0  0
   -0.6854    2.4804    0.0000 N   0  0  0  0  0  0  0  0  0  0  0  0
    0.2735   -0.0054    0.0000 C   0  0  0  0  0  0  0  0  0  0  0  0
   -0.4945    0.2960    0.0000 C   0  0  0  0  0  0  0  0  0  0  0  0
    0.2735   -0.8304    0.0000 C   0  0  0  0  0  0  0  0  0  0  0  0
    0.9880    0.4071    0.0000 C   0  0  0  0  0  0  0  0  0  0  0  0
   -0.7376    1.0843    0.0000 C   0  0  0  0  0  0  0  0  0  0  0  0
    0.9880   -1.2429    0.0000 C   0  0  0  0  0  0  0  0  0  0  0  0
    1.7024   -0.8304    0.0000 C   0  0  0  0  0  0  0  0  0  0  0  0
    1.7024   -0.0054    0.0000 C   0  0  0  0  0  0  0  0  0  0  0  0
   -0.2729    1.7660    0.0000 C   0  0  3  0  0  0  0  0  0  0  0  0
    1.1109    1.2229    0.0000 C   0  0  0  0  0  0  0  0  0  0  0  0
   -0.9592   -0.3857    0.0000 C   0  0  0  0  0  0  0  0  0  0  0  0
   -1.5056    1.3857    0.0000 C   0  0  0  0  0  0  0  0  0  0  0  0
    0.5498    1.8276    0.0000 C   0  0  0  0  0  0  0  0  0  0  0  0
   -0.4410   -1.2429    0.0000 C   0  0  0  0  0  0  0  0  0  0  0  0
   -2.2201    0.9732    0.0000 C   0  0  0  0  0  0  0  0  0  0  0  0
   -2.3430    0.1574    0.0000 C   0  0  0  0  0  0  0  0  0  0  0  0
   -1.7819   -0.4473    0.0000 C   0  0  0  0  0  0  0  0  0  0  0  0
    1.7024   -2.4804    0.0000 C   0  0  0  0  0  0  0  0  0  0  0  0
    3.1314   -0.8304    0.0000 C   0  0  0  0  0  0  0  0  0  0  0  0
  1 12  1  0  0  0  0
  1 24  1  0  0  0  0
  2 13  1  0  0  0  0
  2 25  1  0  0  0  0
  3 20  1  0  0  0  0
  4 21  2  0  0  0  0
  5 22  1  0  0  0  0
  6 15  1  0  0  0  0
  7  8  1  0  0  0  0
  7  9  2  0  0  0  0
  7 10  1  0  0  0  0
  8 11  1  0  0  0  0
  8 17  2  0  0  0  0
  9 12  1  0  0  0  0
  9 20  1  0  0  0  0
 10 14  2  0  0  0  0
 10 16  1  0  0  0  0
 11 15  1  0  0  0  0
 11 18  2  0  0  0  0
 12 13  2  0  0  0  0
 13 14  1  0  0  0  0
 15 19  1  0  0  0  0
 16 19  1  0  0  0  0
 17 23  1  0  0  0  0
 18 21  1  0  0  0  0
 21 22  1  0  0  0  0
 22 23  2  0  0  0  0
M  END
> <PUBCHEM_COMPOUND_ID_TYPE>
0

> <PUBCHEM_TOTAL_CHARGE>
0

> <PUBCHEM_SUBSTANCE_ID>
310939479

> <PUBCHEM_SUBSTANCE_VERSION>
1

> <PUBCHEM_EXT_DATASOURCE_NAME>
4488

> <PUBCHEM_EXT_DATASOURCE_REGID>
SCHEMBL16117406

> <PUBCHEM_SUBSTANCE_COMMENT>
InChI=1S/C19H21NO5/c1-24-17-7-10-3-5-14(20)12-8-16(23)15(22)6-4-11(12)18(10)13(9-21)19(17)25-2/h4,6-8,14,21H,3,5,9,20H2,1-2H3,(H,22,23)
InChIKey=QFWNZKKMAJIASY-UHFFFAOYSA-N

> <PUBCHEM_SUBSTANCE_SYNONYM>
SCHEMBL16117406

> <PUBCHEM_XREF_EXT_ID>
SCHEMBL16117406

> <PUBCHEM_EXT_DATASOURCE_URL>
https://www.surechembl.org/

> <PUBCHEM_EXT_SUBSTANCE_URL>
https://www.surechembl.org/chemical/SCHEMBL16117406

> <PUBCHEM_CID_ASSOCIATIONS>
117606789  1

> <PUBCHEM_COORDINATE_TYPE>
1
3

$$$$
