310940371
  -OEChem-07211613022D

 19 20  0     1  0  0  0  0  0999 V2000
   -0.8673   -0.3160    0.0000 O   0  0  0  0  0  0  0  0  0  0  0  0
   -1.5262    1.7951    0.0000 O   0  0  0  0  0  0  0  0  0  0  0  0
   -0.2084    1.7951    0.0000 O   0  0  0  0  0  0  0  0  0  0  0  0
    0.8673   -0.3698    0.0000 O   0  0  0  0  0  0  0  0  0  0  0  0
    2.3195   -0.3160    0.0000 O   0  0  0  0  0  0  0  0  0  0  0  0
   -0.8673    1.3379    0.0000 C   0  0  0  0  0  0  0  0  0  0  0  0
   -1.5799    0.1009    0.0000 C   0  0  0  0  0  0  0  0  0  0  0  0
   -1.5530    0.9345    0.0000 C   0  0  0  0  0  0  0  0  0  0  0  0
   -0.1546    0.9211    0.0000 C   0  0  0  0  0  0  0  0  0  0  0  0
   -0.1680    0.1009    0.0000 C   0  0  3  0  0  0  0  0  0  0  0  0
   -1.2706    2.5884    0.0000 C   0  0  0  0  0  0  0  0  0  0  0  0
   -0.4504    2.5884    0.0000 C   0  0  0  0  0  0  0  0  0  0  0  0
   -2.3867    0.2218    0.0000 C   0  0  0  0  0  0  0  0  0  0  0  0
   -1.8488   -0.6791    0.0000 C   0  0  0  0  0  0  0  0  0  0  0  0
    1.5933    0.1009    0.0000 C   0  0  0  0  0  0  0  0  0  0  0  0
    1.9295   -0.3698    0.0000 C   0  0  0  0  0  0  0  0  0  0  0  0
    2.3598   -1.1093    0.0000 C   0  0  0  0  0  0  0  0  0  0  0  0
    1.9564   -1.8488    0.0000 C   0  0  0  0  0  0  0  0  0  0  0  0
    2.3867   -2.5884    0.0000 C   0  0  0  0  0  0  0  0  0  0  0  0
  1  7  1  0  0  0  0
  1 10  1  0  0  0  0
  2  6  1  0  0  0  0
  2 11  1  0  0  0  0
  3  6  1  0  0  0  0
  3 12  1  0  0  0  0
  4 10  1  0  0  0  0
  4 15  1  0  0  0  0
  5 15  2  0  0  0  0
  6  8  1  0  0  0  0
  6  9  1  0  0  0  0
  7  8  1  0  0  0  0
  7 13  1  0  0  0  0
  7 14  1  0  0  0  0
  9 10  1  0  0  0  0
 11 12  1  0  0  0  0
 15 16  1  0  0  0  0
 16 17  1  0  0  0  0
 17 18  1  0  0  0  0
 18 19  1  0  0  0  0
M  END
> <PUBCHEM_COMPOUND_ID_TYPE>
0

> <PUBCHEM_TOTAL_CHARGE>
0

> <PUBCHEM_SUBSTANCE_ID>
310940371

> <PUBCHEM_SUBSTANCE_VERSION>
1

> <PUBCHEM_EXT_DATASOURCE_NAME>
4488

> <PUBCHEM_EXT_DATASOURCE_REGID>
SCHEMBL16118315

> <PUBCHEM_SUBSTANCE_COMMENT>
InChI=1S/C14H24O5/c1-4-5-6-11(15)18-12-9-14(16-7-8-17-14)10-13(2,3)19-12/h12H,4-10H2,1-3H3
InChIKey=ZIGSEHDFZUFZFC-UHFFFAOYSA-N

> <PUBCHEM_SUBSTANCE_SYNONYM>
SCHEMBL16118315

> <PUBCHEM_XREF_EXT_ID>
SCHEMBL16118315

> <PUBCHEM_EXT_DATASOURCE_URL>
https://www.surechembl.org/

> <PUBCHEM_EXT_SUBSTANCE_URL>
https://www.surechembl.org/chemical/SCHEMBL16118315

> <PUBCHEM_CID_ASSOCIATIONS>
117607407  1

> <PUBCHEM_COORDINATE_TYPE>
1
3

$$$$
