310942005
  -OEChem-07211613022D

 23 25  0     1  0  0  0  0  0999 V2000
   -3.1023    0.5413    0.0000 I   0  0  0  0  0  0  0  0  0  0  0  0
   -0.4511   -2.3458    0.0000 O   0  0  0  0  0  0  0  0  0  0  0  0
   -0.1458   -0.9578    0.0000 N   0  0  0  0  0  0  0  0  0  0  0  0
    0.3401   -0.2915    0.0000 N   0  0  0  0  0  0  0  0  0  0  0  0
    0.9370    1.3325    0.0000 N   0  0  3  0  0  0  0  0  0  0  0  0
    2.2695    3.0676    0.0000 N   0  0  0  0  0  0  0  0  0  0  0  0
   -0.9370   -0.6524    0.0000 C   0  0  0  0  0  0  0  0  0  0  0  0
   -0.9231    0.1527    0.0000 C   0  0  0  0  0  0  0  0  0  0  0  0
   -0.1596    0.4164    0.0000 C   0  0  0  0  0  0  0  0  0  0  0  0
    0.1041   -1.6795    0.0000 C   0  0  3  0  0  0  0  0  0  0  0  0
   -1.6587    0.5552    0.0000 C   0  0  0  0  0  0  0  0  0  0  0  0
   -1.6587   -1.0549    0.0000 C   0  0  0  0  0  0  0  0  0  0  0  0
   -2.3666    0.1527    0.0000 C   0  0  0  0  0  0  0  0  0  0  0  0
    0.1319    1.1938    0.0000 C   0  0  0  0  0  0  0  0  0  0  0  0
   -2.3666   -0.6663    0.0000 C   0  0  0  0  0  0  0  0  0  0  0  0
    0.9231   -1.8878    0.0000 C   0  0  0  0  0  0  0  0  0  0  0  0
   -0.2012   -3.0953    0.0000 C   0  0  0  0  0  0  0  0  0  0  0  0
    1.1729   -2.6790    0.0000 C   0  0  0  0  0  0  0  0  0  0  0  0
    0.6177   -3.2758    0.0000 C   0  0  0  0  0  0  0  0  0  0  0  0
    1.2007    2.1376    0.0000 C   0  0  0  0  0  0  0  0  0  0  0  0
    1.5060    0.7496    0.0000 C   0  0  0  0  0  0  0  0  0  0  0  0
    2.0057    2.3181    0.0000 C   0  0  0  0  0  0  0  0  0  0  0  0
    3.1023    3.2758    0.0000 C   0  0  0  0  0  0  0  0  0  0  0  0
  1 13  1  0  0  0  0
  2 10  1  0  0  0  0
  2 17  1  0  0  0  0
  3  4  1  0  0  0  0
  3  7  1  0  0  0  0
  3 10  1  0  0  0  0
  4  9  2  0  0  0  0
  5 14  1  0  0  0  0
  5 20  1  0  0  0  0
  5 21  1  0  0  0  0
  6 22  1  0  0  0  0
  6 23  1  0  0  0  0
  7  8  1  0  0  0  0
  7 12  2  0  0  0  0
  8  9  1  0  0  0  0
  8 11  2  0  0  0  0
  9 14  1  0  0  0  0
 10 16  1  0  0  0  0
 11 13  1  0  0  0  0
 12 15  1  0  0  0  0
 13 15  2  0  0  0  0
 16 18  1  0  0  0  0
 17 19  1  0  0  0  0
 18 19  1  0  0  0  0
 20 22  1  0  0  0  0
M  END
> <PUBCHEM_COMPOUND_ID_TYPE>
0

> <PUBCHEM_TOTAL_CHARGE>
0

> <PUBCHEM_SUBSTANCE_ID>
310942005

> <PUBCHEM_SUBSTANCE_VERSION>
1

> <PUBCHEM_EXT_DATASOURCE_NAME>
4488

> <PUBCHEM_EXT_DATASOURCE_REGID>
SCHEMBL16120039

> <PUBCHEM_SUBSTANCE_COMMENT>
InChI=1S/C17H25IN4O/c1-19-8-9-21(2)12-15-14-11-13(18)6-7-16(14)22(20-15)17-5-3-4-10-23-17/h6-7,11,17,19H,3-5,8-10,12H2,1-2H3
InChIKey=WACVILCCGKWITL-UHFFFAOYSA-N

> <PUBCHEM_SUBSTANCE_SYNONYM>
SCHEMBL16120039

> <PUBCHEM_XREF_EXT_ID>
SCHEMBL16120039

> <PUBCHEM_EXT_DATASOURCE_URL>
https://www.surechembl.org/

> <PUBCHEM_EXT_SUBSTANCE_URL>
https://www.surechembl.org/chemical/SCHEMBL16120039

> <PUBCHEM_CID_ASSOCIATIONS>
117608697  1

> <PUBCHEM_COORDINATE_TYPE>
1
3

$$$$
