310935934
  -OEChem-07211613022D

 25 27  0     1  0  0  0  0  0999 V2000
    6.9635    0.0000    0.0000 F   0  0  0  0  0  0  0  0  0  0  0  0
    5.6834   -0.6656    0.0000 F   0  0  0  0  0  0  0  0  0  0  0  0
    4.4289   -1.3569    0.0000 O   0  0  0  0  0  0  0  0  0  0  0  0
    6.9122   -1.4080    0.0000 O   0  0  0  0  0  0  0  0  0  0  0  0
    1.9200   -4.2241    0.0000 N   0  0  3  0  0  0  0  0  0  0  0  0
    3.1745   -2.0737    0.0000 N   0  0  0  0  0  0  0  0  0  0  0  0
    1.4336   -4.9154    0.0000 N   0  0  0  0  0  0  0  0  0  0  0  0
    6.8610   -2.8417    0.0000 N   0  0  0  0  0  0  0  0  0  0  0  0
    0.6656   -4.6337    0.0000 N   0  0  3  0  0  0  0  0  0  0  0  0
    0.0000   -5.1201    0.0000 N   0  0  0  0  0  0  0  0  0  0  0  0
    4.4033   -2.7905    0.0000 C   0  0  0  0  0  0  0  0  0  0  0  0
    5.2226   -2.7905    0.0000 C   0  0  0  0  0  0  0  0  0  0  0  0
    3.9937   -2.0481    0.0000 C   0  0  0  0  0  0  0  0  0  0  0  0
    3.1489   -3.5073    0.0000 C   0  0  0  0  0  0  0  0  0  0  0  0
    3.9937   -3.4817    0.0000 C   0  0  0  0  0  0  0  0  0  0  0  0
    5.6322   -2.0737    0.0000 C   0  0  0  0  0  0  0  0  0  0  0  0
    2.7393   -4.2241    0.0000 C   0  0  0  0  0  0  0  0  0  0  0  0
    2.7649   -2.7649    0.0000 C   0  0  0  0  0  0  0  0  0  0  0  0
    6.4514   -2.1249    0.0000 C   0  0  0  0  0  0  0  0  0  0  0  0
    5.6066   -3.5073    0.0000 C   0  0  0  0  0  0  0  0  0  0  0  0
    6.4514   -3.5585    0.0000 C   0  0  0  0  0  0  0  0  0  0  0  0
    1.4336   -3.5585    0.0000 C   0  0  0  0  0  0  0  0  0  0  0  0
    0.6656   -3.8145    0.0000 C   0  0  0  0  0  0  0  0  0  0  0  0
    6.5282   -0.6912    0.0000 C   0  0  0  0  0  0  0  0  0  0  0  0
    4.0193   -0.6144    0.0000 C   0  0  0  0  0  0  0  0  0  0  0  0
  1 24  1  0  0  0  0
  2 24  1  0  0  0  0
  3 13  1  0  0  0  0
  3 25  1  0  0  0  0
  4 19  1  0  0  0  0
  4 24  1  0  0  0  0
  5  7  1  0  0  0  0
  5 17  1  0  0  0  0
  5 22  1  0  0  0  0
  6 13  2  0  0  0  0
  6 18  1  0  0  0  0
  7  9  1  0  0  0  0
  8 19  1  0  0  0  0
  8 21  2  0  0  0  0
  9 10  1  0  0  0  0
  9 23  1  0  0  0  0
 11 12  1  0  0  0  0
 11 13  1  0  0  0  0
 11 15  2  0  0  0  0
 12 16  1  0  0  0  0
 12 20  2  0  0  0  0
 14 15  1  0  0  0  0
 14 17  1  0  0  0  0
 14 18  2  0  0  0  0
 16 19  2  0  0  0  0
 20 21  1  0  0  0  0
 22 23  2  0  0  0  0
M  END
> <PUBCHEM_COMPOUND_ID_TYPE>
0

> <PUBCHEM_TOTAL_CHARGE>
0

> <PUBCHEM_SUBSTANCE_ID>
310935934

> <PUBCHEM_SUBSTANCE_VERSION>
1

> <PUBCHEM_EXT_DATASOURCE_NAME>
4488

> <PUBCHEM_EXT_DATASOURCE_REGID>
SCHEMBL16113530

> <PUBCHEM_SUBSTANCE_COMMENT>
InChI=1S/C15H16F2N6O2/c1-24-14-12(11-2-3-19-13(7-11)25-15(16)17)6-10(8-20-14)9-22-4-5-23(18)21-22/h2-8,15,21H,9,18H2,1H3
InChIKey=VYKFHAAPUBJFMU-UHFFFAOYSA-N

> <PUBCHEM_SUBSTANCE_SYNONYM>
SCHEMBL16113530

> <PUBCHEM_XREF_EXT_ID>
SCHEMBL16113530

> <PUBCHEM_EXT_DATASOURCE_URL>
https://www.surechembl.org/

> <PUBCHEM_EXT_SUBSTANCE_URL>
https://www.surechembl.org/chemical/SCHEMBL16113530

> <PUBCHEM_CID_ASSOCIATIONS>
117603917  1

> <PUBCHEM_COORDINATE_TYPE>
1
3

$$$$
