310934204
  -OEChem-07211613022D

 40 45  0     1  0  0  0  0  0999 V2000
    5.9778    0.0000    0.0000 Cl  0  0  0  0  0  0  0  0  0  0  0  0
    0.0000   -2.6852    0.0000 Cl  0  0  0  0  0  0  0  0  0  0  0  0
    8.5352   -5.6582    0.0000 F   0  0  0  0  0  0  0  0  0  0  0  0
    3.4844   -4.3475    0.0000 O   0  0  0  0  0  0  0  0  0  0  0  0
    6.4254   -4.9868    0.0000 O   0  0  0  0  0  0  0  0  0  0  0  0
    5.2106   -4.2835    0.0000 N   0  0  0  0  0  0  0  0  0  0  0  0
    7.6721   -2.8451    0.0000 N   0  0  0  0  0  0  0  0  0  0  0  0
    3.4844   -5.6582    0.0000 N   0  0  0  0  0  0  0  0  0  0  0  0
    2.7172   -5.4024    0.0000 N   0  0  0  0  0  0  0  0  0  0  0  0
    8.5032   -2.8771    0.0000 N   0  0  0  0  0  0  0  0  0  0  0  0
    8.6631   -3.7082    0.0000 N   0  0  0  0  0  0  0  0  0  0  0  0
    7.9598   -4.1238    0.0000 N   0  0  0  0  0  0  0  0  0  0  0  0
    4.7950   -4.9868    0.0000 C   0  0  3  0  0  0  0  0  0  0  0  0
    6.4254   -2.1418    0.0000 C   0  0  0  0  0  0  0  0  0  0  0  0
    6.0098   -2.8451    0.0000 C   0  0  0  0  0  0  0  0  0  0  0  0
    3.9959   -4.9868    0.0000 C   0  0  0  0  0  0  0  0  0  0  0  0
    7.2245   -2.1418    0.0000 C   0  0  0  0  0  0  0  0  0  0  0  0
    6.0098   -4.2835    0.0000 C   0  0  0  0  0  0  0  0  0  0  0  0
    6.4573   -3.5803    0.0000 C   0  0  0  0  0  0  0  0  0  0  0  0
    4.7631   -3.5803    0.0000 C   0  0  0  0  0  0  0  0  0  0  0  0
    2.6852   -4.6033    0.0000 C   0  0  0  0  0  0  0  0  0  0  0  0
    5.2106   -2.8451    0.0000 C   0  0  0  0  0  0  0  0  0  0  0  0
    5.2106   -5.6901    0.0000 C   0  0  0  0  0  0  0  0  0  0  0  0
    6.0098   -1.4385    0.0000 C   0  0  0  0  0  0  0  0  0  0  0  0
    7.6401   -1.4066    0.0000 C   0  0  0  0  0  0  0  0  0  0  0  0
    2.0459   -4.1238    0.0000 C   0  0  0  0  0  0  0  0  0  0  0  0
    6.3934   -0.7033    0.0000 C   0  0  0  0  0  0  0  0  0  0  0  0
    6.0418   -5.6901    0.0000 C   0  0  0  0  0  0  0  0  0  0  0  0
    7.2245   -0.7033    0.0000 C   0  0  0  0  0  0  0  0  0  0  0  0
    7.3524   -3.5803    0.0000 C   0  0  0  0  0  0  0  0  0  0  0  0
    1.2787   -4.4434    0.0000 C   0  0  0  0  0  0  0  0  0  0  0  0
    2.1098   -3.2926    0.0000 C   0  0  0  0  0  0  0  0  0  0  0  0
    6.6172   -5.1467    0.0000 C   0  0  0  0  0  0  0  0  0  0  0  0
    6.4893   -6.3934    0.0000 C   0  0  0  0  0  0  0  0  0  0  0  0
    0.6074   -3.9639    0.0000 C   0  0  0  0  0  0  0  0  0  0  0  0
    1.4385   -2.8131    0.0000 C   0  0  0  0  0  0  0  0  0  0  0  0
    0.6713   -3.1328    0.0000 C   0  0  0  0  0  0  0  0  0  0  0  0
    7.2885   -4.9549    0.0000 C   0  0  0  0  0  0  0  0  0  0  0  0
    7.2885   -6.3934    0.0000 C   0  0  0  0  0  0  0  0  0  0  0  0
    7.7040   -5.6901    0.0000 C   0  0  0  0  0  0  0  0  0  0  0  0
  1 27  1  0  0  0  0
  2 37  1  0  0  0  0
  3 40  1  0  0  0  0
  4 16  1  0  0  0  0
  4 21  1  0  0  0  0
  5 18  2  0  0  0  0
  6 13  1  0  0  0  0
  6 18  1  0  0  0  0
  6 20  1  0  0  0  0
  7 10  1  0  0  0  0
  7 17  1  0  0  0  0
  7 30  1  0  0  0  0
  8  9  1  0  0  0  0
  8 16  2  0  0  0  0
  9 21  2  0  0  0  0
 10 11  2  0  0  0  0
 11 12  1  0  0  0  0
 12 30  2  0  0  0  0
 13 16  1  0  0  0  0
 13 23  1  0  0  0  0
 14 15  1  0  0  0  0
 14 17  1  0  0  0  0
 14 24  2  0  0  0  0
 15 19  2  0  0  0  0
 15 22  1  0  0  0  0
 17 25  2  0  0  0  0
 18 19  1  0  0  0  0
 20 22  2  0  0  0  0
 21 26  1  0  0  0  0
 23 28  1  0  0  0  0
 24 27  1  0  0  0  0
 25 29  1  0  0  0  0
 26 31  2  0  0  0  0
 26 32  1  0  0  0  0
 27 29  2  0  0  0  0
 28 33  2  0  0  0  0
 28 34  1  0  0  0  0
 31 35  1  0  0  0  0
 32 36  2  0  0  0  0
 33 38  1  0  0  0  0
 34 39  2  0  0  0  0
 35 37  2  0  0  0  0
 36 37  1  0  0  0  0
 38 40  2  0  0  0  0
 39 40  1  0  0  0  0
M  END
> <PUBCHEM_COMPOUND_ID_TYPE>
0

> <PUBCHEM_TOTAL_CHARGE>
0

> <PUBCHEM_SUBSTANCE_ID>
310934204

> <PUBCHEM_SUBSTANCE_VERSION>
1

> <PUBCHEM_EXT_DATASOURCE_NAME>
4488

> <PUBCHEM_EXT_DATASOURCE_REGID>
SCHEMBL16111659

> <PUBCHEM_SUBSTANCE_COMMENT>
InChI=1S/C28H18Cl2FN7O2/c29-20-5-3-18(4-6-20)27-33-34-28(40-27)25(13-17-1-8-22(31)9-2-17)37-12-11-19(14-26(37)39)23-15-21(30)7-10-24(23)38-16-32-35-36-38/h1-12,14-16,25H,13H2
InChIKey=ZIGDKGZUOLZOTR-UHFFFAOYSA-N

> <PUBCHEM_SUBSTANCE_SYNONYM>
SCHEMBL16111659

> <PUBCHEM_XREF_EXT_ID>
SCHEMBL16111659

> <PUBCHEM_EXT_DATASOURCE_URL>
https://www.surechembl.org/

> <PUBCHEM_EXT_SUBSTANCE_URL>
https://www.surechembl.org/chemical/SCHEMBL16111659

> <PUBCHEM_CID_ASSOCIATIONS>
117602473  1

> <PUBCHEM_COORDINATE_TYPE>
1
3

$$$$
