310944677
  -OEChem-07211613022D

 34 37  0     1  0  0  0  0  0999 V2000
   -3.9253   -0.1306    0.0000 Cl  0  0  0  0  0  0  0  0  0  0  0  0
   -0.8895   -0.1306    0.0000 O   0  0  0  0  0  0  0  0  0  0  0  0
    0.5412    2.3577    0.0000 O   0  0  0  0  0  0  0  0  0  0  0  0
    5.4557   -1.9347    0.0000 O   0  0  0  0  0  0  0  0  0  0  0  0
    2.7309    0.2924    0.0000 N   0  0  0  0  0  0  0  0  0  0  0  0
    4.2364   -1.2130    0.0000 N   0  0  0  0  0  0  0  0  0  0  0  0
    1.2877    1.1135    0.0000 N   0  0  0  0  0  0  0  0  0  0  0  0
   -0.8771    1.5366    0.0000 N   0  0  0  0  0  0  0  0  0  0  0  0
   -3.0296    1.1260    0.0000 C   0  0  0  0  0  0  0  0  0  0  0  0
   -1.5988    1.1260    0.0000 C   0  0  0  0  0  0  0  0  0  0  0  0
    3.4525   -0.1182    0.0000 C   0  0  3  0  0  0  0  0  0  0  0  0
   -1.6112    0.2924    0.0000 C   0  0  0  0  0  0  0  0  0  0  0  0
   -3.0296    0.2924    0.0000 C   0  0  0  0  0  0  0  0  0  0  0  0
   -2.3203    1.5241    0.0000 C   0  0  0  0  0  0  0  0  0  0  0  0
   -3.9502    1.5241    0.0000 C   0  0  0  0  0  0  0  0  0  0  0  0
   -2.3079   -0.1182    0.0000 C   0  0  0  0  0  0  0  0  0  0  0  0
    3.4401   -0.9518    0.0000 C   0  0  0  0  0  0  0  0  0  0  0  0
    0.5537    1.5241    0.0000 C   0  0  0  0  0  0  0  0  0  0  0  0
    4.2364    0.1182    0.0000 C   0  0  0  0  0  0  0  0  0  0  0  0
    2.7185    1.1260    0.0000 C   0  0  0  0  0  0  0  0  0  0  0  0
    2.0217   -0.1182    0.0000 C   0  0  0  0  0  0  0  0  0  0  0  0
    4.7215   -0.5412    0.0000 C   0  0  0  0  0  0  0  0  0  0  0  0
    1.9968    1.5366    0.0000 C   0  0  0  0  0  0  0  0  0  0  0  0
    1.2877    0.2924    0.0000 C   0  0  0  0  0  0  0  0  0  0  0  0
   -0.1431    1.1260    0.0000 C   0  0  0  0  0  0  0  0  0  0  0  0
    4.6220   -1.9222    0.0000 C   0  0  0  0  0  0  0  0  0  0  0  0
   -4.0249    2.3203    0.0000 C   0  0  0  0  0  0  0  0  0  0  0  0
   -4.5847    1.0264    0.0000 C   0  0  0  0  0  0  0  0  0  0  0  0
   -4.7838    2.6438    0.0000 C   0  0  0  0  0  0  0  0  0  0  0  0
   -5.3561    1.3624    0.0000 C   0  0  0  0  0  0  0  0  0  0  0  0
    4.2239   -2.6438    0.0000 C   0  0  0  0  0  0  0  0  0  0  0  0
   -5.4557    2.1835    0.0000 C   0  0  0  0  0  0  0  0  0  0  0  0
   -0.1680    0.2924    0.0000 C   0  0  0  0  0  0  0  0  0  0  0  0
    3.4027   -2.5941    0.0000 C   0  0  0  0  0  0  0  0  0  0  0  0
  1 13  1  0  0  0  0
  2 12  1  0  0  0  0
  2 33  1  0  0  0  0
  3 18  2  0  0  0  0
  4 26  2  0  0  0  0
  5 11  1  0  0  0  0
  5 20  1  0  0  0  0
  5 21  1  0  0  0  0
  6 17  1  0  0  0  0
  6 22  1  0  0  0  0
  6 26  1  0  0  0  0
  7 18  1  0  0  0  0
  7 23  1  0  0  0  0
  7 24  1  0  0  0  0
  8 10  1  0  0  0  0
  8 25  1  0  0  0  0
  9 13  2  0  0  0  0
  9 14  1  0  0  0  0
  9 15  1  0  0  0  0
 10 12  1  0  0  0  0
 10 14  2  0  0  0  0
 11 17  1  0  0  0  0
 11 19  1  0  0  0  0
 12 16  2  0  0  0  0
 13 16  1  0  0  0  0
 15 27  2  0  0  0  0
 15 28  1  0  0  0  0
 18 25  1  0  0  0  0
 19 22  1  0  0  0  0
 20 23  1  0  0  0  0
 21 24  1  0  0  0  0
 26 31  1  0  0  0  0
 27 29  1  0  0  0  0
 28 30  2  0  0  0  0
 29 32  2  0  0  0  0
 30 32  1  0  0  0  0
 31 34  2  0  0  0  0
M  END
> <PUBCHEM_COMPOUND_ID_TYPE>
0

> <PUBCHEM_TOTAL_CHARGE>
0

> <PUBCHEM_SUBSTANCE_ID>
310944677

> <PUBCHEM_SUBSTANCE_VERSION>
1

> <PUBCHEM_EXT_DATASOURCE_NAME>
4488

> <PUBCHEM_EXT_DATASOURCE_REGID>
SCHEMBL16122756

> <PUBCHEM_SUBSTANCE_COMMENT>
InChI=1S/C26H31ClN4O3/c1-3-25(32)31-10-9-20(18-31)29-11-13-30(14-12-29)26(33)17-28-23-15-21(19-7-5-4-6-8-19)22(27)16-24(23)34-2/h3-8,15-16,20,28H,1,9-14,17-18H2,2H3
InChIKey=LNQJINKIYBGNMW-UHFFFAOYSA-N

> <PUBCHEM_SUBSTANCE_SYNONYM>
SCHEMBL16122756

> <PUBCHEM_XREF_EXT_ID>
SCHEMBL16122756

> <PUBCHEM_EXT_DATASOURCE_URL>
https://www.surechembl.org/

> <PUBCHEM_EXT_SUBSTANCE_URL>
https://www.surechembl.org/chemical/SCHEMBL16122756

> <PUBCHEM_CID_ASSOCIATIONS>
117610903  1

> <PUBCHEM_COORDINATE_TYPE>
1
3

$$$$
