310939451
  -OEChem-07211613022D

 27 30  0     1  0  0  0  0  0999 V2000
    2.2472   -1.2879    0.0000 S   0  0  0  0  0  0  0  0  0  0  0  0
   -0.9689   -2.8672    0.0000 O   0  0  0  0  0  0  0  0  0  0  0  0
   -2.9897   -0.8463    0.0000 O   0  0  0  0  0  0  0  0  0  0  0  0
    0.8653   -1.2155    0.0000 N   0  0  0  0  0  0  0  0  0  0  0  0
    0.4528   -2.4851    0.0000 N   0  0  0  0  0  0  0  0  0  0  0  0
    1.2778   -2.4851    0.0000 N   0  0  0  0  0  0  0  0  0  0  0  0
    1.0368    2.0665    0.0000 N   0  0  0  0  0  0  0  0  0  0  0  0
    0.1978   -1.7004    0.0000 C   0  0  0  0  0  0  0  0  0  0  0  0
    0.8653   -0.3905    0.0000 C   0  0  0  0  0  0  0  0  0  0  0  0
   -0.5991   -1.4869    0.0000 C   0  0  0  0  0  0  0  0  0  0  0  0
    1.5327   -1.7004    0.0000 C   0  0  3  0  0  0  0  0  0  0  0  0
    1.5797    0.8470    0.0000 C   0  0  0  0  0  0  0  0  0  0  0  0
    0.8653    1.2595    0.0000 C   0  0  0  0  0  0  0  0  0  0  0  0
    1.5797    0.0220    0.0000 C   0  0  0  0  0  0  0  0  0  0  0  0
   -1.1824   -2.0703    0.0000 C   0  0  0  0  0  0  0  0  0  0  0  0
    2.1928    1.3990    0.0000 C   0  0  0  0  0  0  0  0  0  0  0  0
    0.1508    0.0220    0.0000 C   0  0  0  0  0  0  0  0  0  0  0  0
   -0.8126   -0.6900    0.0000 C   0  0  0  0  0  0  0  0  0  0  0  0
    1.8573    2.1527    0.0000 C   0  0  0  0  0  0  0  0  0  0  0  0
    0.1508    0.8470    0.0000 C   0  0  0  0  0  0  0  0  0  0  0  0
   -1.6095   -0.4765    0.0000 C   0  0  0  0  0  0  0  0  0  0  0  0
   -2.1928   -1.0599    0.0000 C   0  0  0  0  0  0  0  0  0  0  0  0
   -1.9793   -1.8567    0.0000 C   0  0  0  0  0  0  0  0  0  0  0  0
    2.9897    1.1855    0.0000 C   0  0  0  0  0  0  0  0  0  0  0  0
   -1.8230    0.3204    0.0000 C   0  0  0  0  0  0  0  0  0  0  0  0
    2.2698    2.8672    0.0000 C   0  0  0  0  0  0  0  0  0  0  0  0
   -1.2396    0.9038    0.0000 C   0  0  0  0  0  0  0  0  0  0  0  0
  1 11  1  0  0  0  0
  2 15  1  0  0  0  0
  3 22  1  0  0  0  0
  4  8  1  0  0  0  0
  4  9  1  0  0  0  0
  4 11  1  0  0  0  0
  5  6  1  0  0  0  0
  5  8  2  0  0  0  0
  6 11  1  0  0  0  0
  7 13  1  0  0  0  0
  7 19  1  0  0  0  0
  8 10  1  0  0  0  0
  9 14  1  0  0  0  0
  9 17  2  0  0  0  0
 10 15  1  0  0  0  0
 10 18  2  0  0  0  0
 12 13  1  0  0  0  0
 12 14  2  0  0  0  0
 12 16  1  0  0  0  0
 13 20  2  0  0  0  0
 15 23  2  0  0  0  0
 16 19  2  0  0  0  0
 16 24  1  0  0  0  0
 17 20  1  0  0  0  0
 18 21  1  0  0  0  0
 19 26  1  0  0  0  0
 21 22  2  0  0  0  0
 21 25  1  0  0  0  0
 22 23  1  0  0  0  0
 25 27  1  0  0  0  0
M  END
> <PUBCHEM_COMPOUND_ID_TYPE>
0

> <PUBCHEM_TOTAL_CHARGE>
0

> <PUBCHEM_SUBSTANCE_ID>
310939451

> <PUBCHEM_SUBSTANCE_VERSION>
1

> <PUBCHEM_EXT_DATASOURCE_NAME>
4488

> <PUBCHEM_EXT_DATASOURCE_REGID>
SCHEMBL16117375

> <PUBCHEM_SUBSTANCE_COMMENT>
InChI=1S/C20H22N4O2S/c1-4-12-7-15(18(26)9-17(12)25)19-22-23-20(27)24(19)13-5-6-16-14(8-13)10(2)11(3)21-16/h5-9,20-21,23,25-27H,4H2,1-3H3
InChIKey=PKXIKMKEWIDPNQ-UHFFFAOYSA-N

> <PUBCHEM_SUBSTANCE_SYNONYM>
SCHEMBL16117375

> <PUBCHEM_XREF_EXT_ID>
SCHEMBL16117375

> <PUBCHEM_EXT_DATASOURCE_URL>
https://www.surechembl.org/

> <PUBCHEM_EXT_SUBSTANCE_URL>
https://www.surechembl.org/chemical/SCHEMBL16117375

> <PUBCHEM_CID_ASSOCIATIONS>
117606767  1

> <PUBCHEM_COORDINATE_TYPE>
1
3

$$$$
