310944280
  -OEChem-07211613022D

 29 31  0     1  0  0  0  0  0999 V2000
   -4.5041    1.6774    0.0000 I   0  0  0  0  0  0  0  0  0  0  0  0
   -4.6781    0.0124    0.0000 Cl  0  0  0  0  0  0  0  0  0  0  0  0
   -1.6464    0.0124    0.0000 O   0  0  0  0  0  0  0  0  0  0  0  0
   -0.2175    2.4975    0.0000 O   0  0  0  0  0  0  0  0  0  0  0  0
    4.6781   -1.7892    0.0000 O   0  0  0  0  0  0  0  0  0  0  0  0
    1.9570    0.4348    0.0000 N   0  0  0  0  0  0  0  0  0  0  0  0
    3.4604   -1.0686    0.0000 N   0  0  0  0  0  0  0  0  0  0  0  0
    0.5156    1.2674    0.0000 N   0  0  0  0  0  0  0  0  0  0  0  0
   -1.6339    1.6774    0.0000 N   0  0  0  0  0  0  0  0  0  0  0  0
    2.6777    0.0248    0.0000 C   0  0  3  0  0  0  0  0  0  0  0  0
   -2.3546    1.2674    0.0000 C   0  0  0  0  0  0  0  0  0  0  0  0
   -2.3670    0.4473    0.0000 C   0  0  0  0  0  0  0  0  0  0  0  0
    2.6652   -0.8077    0.0000 C   0  0  0  0  0  0  0  0  0  0  0  0
    3.4480    0.2609    0.0000 C   0  0  0  0  0  0  0  0  0  0  0  0
   -0.2175    1.6649    0.0000 C   0  0  0  0  0  0  0  0  0  0  0  0
    1.9446    1.2674    0.0000 C   0  0  0  0  0  0  0  0  0  0  0  0
    1.2488    0.0248    0.0000 C   0  0  0  0  0  0  0  0  0  0  0  0
   -3.7959    1.2674    0.0000 C   0  0  0  0  0  0  0  0  0  0  0  0
   -3.7959    0.4348    0.0000 C   0  0  0  0  0  0  0  0  0  0  0  0
   -3.0752    1.6649    0.0000 C   0  0  0  0  0  0  0  0  0  0  0  0
    3.9450   -0.3976    0.0000 C   0  0  0  0  0  0  0  0  0  0  0  0
    1.2363    1.6774    0.0000 C   0  0  0  0  0  0  0  0  0  0  0  0
    0.5156    0.4348    0.0000 C   0  0  0  0  0  0  0  0  0  0  0  0
   -3.0628    0.0248    0.0000 C   0  0  0  0  0  0  0  0  0  0  0  0
    3.8456   -1.7644    0.0000 C   0  0  0  0  0  0  0  0  0  0  0  0
   -0.9133    1.2674    0.0000 C   0  0  0  0  0  0  0  0  0  0  0  0
    3.4480   -2.4975    0.0000 C   0  0  0  0  0  0  0  0  0  0  0  0
   -1.6339   -0.8077    0.0000 C   0  0  0  0  0  0  0  0  0  0  0  0
    2.6279   -2.4478    0.0000 C   0  0  0  0  0  0  0  0  0  0  0  0
  1 18  1  0  0  0  0
  2 19  1  0  0  0  0
  3 12  1  0  0  0  0
  3 28  1  0  0  0  0
  4 15  2  0  0  0  0
  5 25  2  0  0  0  0
  6 10  1  0  0  0  0
  6 16  1  0  0  0  0
  6 17  1  0  0  0  0
  7 13  1  0  0  0  0
  7 21  1  0  0  0  0
  7 25  1  0  0  0  0
  8 15  1  0  0  0  0
  8 22  1  0  0  0  0
  8 23  1  0  0  0  0
  9 11  1  0  0  0  0
  9 26  1  0  0  0  0
 10 13  1  0  0  0  0
 10 14  1  0  0  0  0
 11 12  1  0  0  0  0
 11 20  2  0  0  0  0
 12 24  2  0  0  0  0
 14 21  1  0  0  0  0
 15 26  1  0  0  0  0
 16 22  1  0  0  0  0
 17 23  1  0  0  0  0
 18 19  2  0  0  0  0
 18 20  1  0  0  0  0
 19 24  1  0  0  0  0
 25 27  1  0  0  0  0
 27 29  2  0  0  0  0
M  END
> <PUBCHEM_COMPOUND_ID_TYPE>
0

> <PUBCHEM_TOTAL_CHARGE>
0

> <PUBCHEM_SUBSTANCE_ID>
310944280

> <PUBCHEM_SUBSTANCE_VERSION>
1

> <PUBCHEM_EXT_DATASOURCE_NAME>
4488

> <PUBCHEM_EXT_DATASOURCE_REGID>
SCHEMBL16122355

> <PUBCHEM_SUBSTANCE_COMMENT>
InChI=1S/C20H26ClIN4O3/c1-3-19(27)26-5-4-14(13-26)24-6-8-25(9-7-24)20(28)12-23-17-11-16(22)15(21)10-18(17)29-2/h3,10-11,14,23H,1,4-9,12-13H2,2H3
InChIKey=ADHXYQYSKUDZHW-UHFFFAOYSA-N

> <PUBCHEM_SUBSTANCE_SYNONYM>
SCHEMBL16122355

> <PUBCHEM_XREF_EXT_ID>
SCHEMBL16122355

> <PUBCHEM_EXT_DATASOURCE_URL>
https://www.surechembl.org/

> <PUBCHEM_EXT_SUBSTANCE_URL>
https://www.surechembl.org/chemical/SCHEMBL16122355

> <PUBCHEM_CID_ASSOCIATIONS>
117610548  1

> <PUBCHEM_COORDINATE_TYPE>
1
3

$$$$
