310942928
  -OEChem-07211613022D

 29 32  0     1  0  0  0  0  0999 V2000
    6.4518    1.4282    0.0000 O   0  0  0  0  0  0  0  0  0  0  0  0
   -6.4518    0.7141    0.0000 O   0  0  0  0  0  0  0  0  0  0  0  0
    4.7897   -0.0123    0.0000 O   0  0  0  0  0  0  0  0  0  0  0  0
   -4.7897   -0.7265    0.0000 O   0  0  0  0  0  0  0  0  0  0  0  0
   -0.2093   -1.4282    0.0000 O   0  0  0  0  0  0  0  0  0  0  0  0
   -0.1970   -0.0123    0.0000 N   0  0  0  0  0  0  0  0  0  0  0  0
    6.0455    0.7265    0.0000 C   0  0  3  0  0  0  0  0  0  0  0  0
   -6.0455    0.0123    0.0000 C   0  0  3  0  0  0  0  0  0  0  0  0
    3.9524    0.0000    0.0000 C   0  0  0  0  0  0  0  0  0  0  0  0
   -3.9524   -0.7265    0.0000 C   0  0  0  0  0  0  0  0  0  0  0  0
    6.8582    0.7141    0.0000 C   0  0  0  0  0  0  0  0  0  0  0  0
   -6.8582    0.0000    0.0000 C   0  0  0  0  0  0  0  0  0  0  0  0
    5.2082    0.7141    0.0000 C   0  0  0  0  0  0  0  0  0  0  0  0
   -5.1960   -0.0123    0.0000 C   0  0  0  0  0  0  0  0  0  0  0  0
    2.3025   -0.0123    0.0000 C   0  0  0  0  0  0  0  0  0  0  0  0
   -2.2901   -0.7141    0.0000 C   0  0  0  0  0  0  0  0  0  0  0  0
    3.5461    0.7019    0.0000 C   0  0  0  0  0  0  0  0  0  0  0  0
    3.5337   -0.7141    0.0000 C   0  0  0  0  0  0  0  0  0  0  0  0
   -3.5337   -1.4282    0.0000 C   0  0  0  0  0  0  0  0  0  0  0  0
   -3.5214   -0.0123    0.0000 C   0  0  0  0  0  0  0  0  0  0  0  0
    2.7211    0.7019    0.0000 C   0  0  0  0  0  0  0  0  0  0  0  0
    2.7088   -0.7141    0.0000 C   0  0  0  0  0  0  0  0  0  0  0  0
   -2.7088   -1.4282    0.0000 C   0  0  0  0  0  0  0  0  0  0  0  0
   -2.6964   -0.0123    0.0000 C   0  0  0  0  0  0  0  0  0  0  0  0
    1.4652    0.0000    0.0000 C   0  0  0  0  0  0  0  0  0  0  0  0
   -1.4652   -0.7265    0.0000 C   0  0  0  0  0  0  0  0  0  0  0  0
    1.0343   -0.7265    0.0000 C   0  0  0  0  0  0  0  0  0  0  0  0
    0.2216   -0.7019    0.0000 C   0  0  0  0  0  0  0  0  0  0  0  0
   -1.0343   -0.0123    0.0000 C   0  0  0  0  0  0  0  0  0  0  0  0
  1  7  1  0  0  0  0
  1 11  1  0  0  0  0
  2  8  1  0  0  0  0
  2 12  1  0  0  0  0
  3  9  1  0  0  0  0
  3 13  1  0  0  0  0
  4 10  1  0  0  0  0
  4 14  1  0  0  0  0
  5 28  2  0  0  0  0
  6 28  1  0  0  0  0
  6 29  1  0  0  0  0
  7 11  1  0  0  0  0
  7 13  1  0  0  0  0
  8 12  1  0  0  0  0
  8 14  1  0  0  0  0
  9 17  2  0  0  0  0
  9 18  1  0  0  0  0
 10 19  2  0  0  0  0
 10 20  1  0  0  0  0
 15 21  2  0  0  0  0
 15 22  1  0  0  0  0
 15 25  1  0  0  0  0
 16 23  2  0  0  0  0
 16 24  1  0  0  0  0
 16 26  1  0  0  0  0
 17 21  1  0  0  0  0
 18 22  2  0  0  0  0
 19 23  1  0  0  0  0
 20 24  2  0  0  0  0
 25 27  2  0  0  0  0
 26 29  1  0  0  0  0
 27 28  1  0  0  0  0
M  END
> <PUBCHEM_COMPOUND_ID_TYPE>
0

> <PUBCHEM_TOTAL_CHARGE>
0

> <PUBCHEM_SUBSTANCE_ID>
310942928

> <PUBCHEM_SUBSTANCE_VERSION>
1

> <PUBCHEM_EXT_DATASOURCE_NAME>
4488

> <PUBCHEM_EXT_DATASOURCE_REGID>
SCHEMBL16120986

> <PUBCHEM_SUBSTANCE_COMMENT>
InChI=1S/C23H25NO5/c25-23(10-5-17-1-6-19(7-2-17)26-13-21-15-28-21)24-12-11-18-3-8-20(9-4-18)27-14-22-16-29-22/h1-10,21-22H,11-16H2,(H,24,25)/b10-5+
InChIKey=LXPYXHRGYCLHMV-BJMVGYQFSA-N

> <PUBCHEM_SUBSTANCE_SYNONYM>
SCHEMBL16120986

> <PUBCHEM_XREF_EXT_ID>
SCHEMBL16120986

> <PUBCHEM_EXT_DATASOURCE_URL>
https://www.surechembl.org/

> <PUBCHEM_EXT_SUBSTANCE_URL>
https://www.surechembl.org/chemical/SCHEMBL16120986

> <PUBCHEM_CID_ASSOCIATIONS>
117609397  1

> <PUBCHEM_COORDINATE_TYPE>
1
3

$$$$
