310946501
  -OEChem-07211613022D

 23 23  0     1  0  0  0  0  0999 V2000
   -6.4448   -6.6555    0.0000 O   0  0  0  0  0  0  0  0  0  0  0  0
   -5.7303   -5.4180    0.0000 O   0  0  0  0  0  0  0  0  0  0  0  0
   -3.5869   -7.4805    0.0000 O   0  0  0  0  0  0  0  0  0  0  0  0
   -3.5869   -5.0055    0.0000 O   0  0  0  0  0  0  0  0  0  0  0  0
   -8.5882   -3.7680    0.0000 O   0  0  0  0  0  0  0  0  0  0  0  0
   -7.8737   -2.5305    0.0000 O   0  5  0  0  0  0  0  0  0  0  0  0
   -9.3026   -2.5305    0.0000 O   0  0  0  0  0  0  0  0  0  0  0  0
   -5.0158   -6.6555    0.0000 N   0  0  0  0  0  0  0  0  0  0  0  0
   -8.5882   -2.9430    0.0000 N   0  3  0  0  0  0  0  0  0  0  0  0
   -4.3013   -6.2430    0.0000 C   0  0  3  0  0  0  0  0  0  0  0  0
   -7.1592   -6.2430    0.0000 C   0  0  0  0  0  0  0  0  0  0  0  0
   -5.7303   -6.2430    0.0000 C   0  0  0  0  0  0  0  0  0  0  0  0
   -8.5882   -5.4180    0.0000 C   0  0  0  0  0  0  0  0  0  0  0  0
   -3.5869   -6.6555    0.0000 C   0  0  0  0  0  0  0  0  0  0  0  0
   -4.3013   -5.4180    0.0000 C   0  0  3  0  0  0  0  0  0  0  0  0
   -7.1592   -5.4180    0.0000 C   0  0  0  0  0  0  0  0  0  0  0  0
   -7.8737   -6.6555    0.0000 C   0  0  0  0  0  0  0  0  0  0  0  0
   -7.8737   -5.0055    0.0000 C   0  0  0  0  0  0  0  0  0  0  0  0
   -8.5882   -6.2430    0.0000 C   0  0  0  0  0  0  0  0  0  0  0  0
   -9.3026   -5.0055    0.0000 C   0  0  0  0  0  0  0  0  0  0  0  0
   -2.8724   -6.2430    0.0000 C   0  0  0  0  0  0  0  0  0  0  0  0
   -5.0158   -5.0055    0.0000 C   0  0  0  0  0  0  0  0  0  0  0  0
   -9.3026   -4.1805    0.0000 C   0  0  0  0  0  0  0  0  0  0  0  0
  1 11  1  0  0  0  0
  1 12  1  0  0  0  0
  2 12  2  0  0  0  0
  3 14  2  0  0  0  0
  4 15  1  0  0  0  0
  5  9  1  0  0  0  0
  5 23  1  0  0  0  0
  6  9  1  0  0  0  0
  7  9  2  0  0  0  0
  8 10  1  0  0  0  0
  8 12  1  0  0  0  0
 10 14  1  0  0  0  0
 10 15  1  0  0  0  0
 11 16  2  0  0  0  0
 11 17  1  0  0  0  0
 13 18  2  0  0  0  0
 13 19  1  0  0  0  0
 13 20  1  0  0  0  0
 14 21  1  0  0  0  0
 15 22  1  0  0  0  0
 16 18  1  0  0  0  0
 17 19  2  0  0  0  0
 20 23  1  0  0  0  0
M  CHG  2   6  -1   9   1
M  END
> <PUBCHEM_COMPOUND_ID_TYPE>
0

> <PUBCHEM_TOTAL_CHARGE>
0

> <PUBCHEM_SUBSTANCE_ID>
310946501

> <PUBCHEM_SUBSTANCE_VERSION>
1

> <PUBCHEM_EXT_DATASOURCE_NAME>
4488

> <PUBCHEM_EXT_DATASOURCE_REGID>
SCHEMBL16124622

> <PUBCHEM_SUBSTANCE_COMMENT>
InChI=1S/C14H18N2O7/c1-9(17)13(10(2)18)15-14(19)23-12-5-3-11(4-6-12)7-8-22-16(20)21/h3-6,9,13,17H,7-8H2,1-2H3,(H,15,19)
InChIKey=UDVKTBPIDOVWHD-UHFFFAOYSA-N

> <PUBCHEM_SUBSTANCE_SYNONYM>
SCHEMBL16124622

> <PUBCHEM_XREF_EXT_ID>
SCHEMBL16124622

> <PUBCHEM_EXT_DATASOURCE_URL>
https://www.surechembl.org/

> <PUBCHEM_EXT_SUBSTANCE_URL>
https://www.surechembl.org/chemical/SCHEMBL16124622

> <PUBCHEM_CID_ASSOCIATIONS>
117612407  1

> <PUBCHEM_COORDINATE_TYPE>
1
3

$$$$
