310934486
  -OEChem-07211613022D

 26 27  0     1  0  0  0  0  0999 V2000
    0.8250   -4.6260    0.0000 S   0  0  0  0  0  0  0  0  0  0  0  0
    0.2652   -5.8930    0.0000 F   0  0  0  0  0  0  0  0  0  0  0  0
    1.6500   -5.7456    0.0000 F   0  0  0  0  0  0  0  0  0  0  0  0
    0.1768   -5.0679    0.0000 F   0  0  0  0  0  0  0  0  0  0  0  0
    5.0385   -1.3848    0.0000 F   0  0  0  0  0  0  0  0  0  0  0  0
    4.1545    0.0000    0.0000 F   0  0  0  0  0  0  0  0  0  0  0  0
    0.7366   -3.8010    0.0000 O   0  0  0  0  0  0  0  0  0  0  0  0
    3.8599   -2.2099    0.0000 O   0  0  0  0  0  0  0  0  0  0  0  0
    0.0000   -4.7143    0.0000 O   0  0  0  0  0  0  0  0  0  0  0  0
    1.6500   -4.5376    0.0000 O   0  0  0  0  0  0  0  0  0  0  0  0
    3.8599   -3.6242    0.0000 O   0  0  0  0  0  0  0  0  0  0  0  0
    2.6518   -2.9170    0.0000 C   0  0  3  0  0  0  0  0  0  0  0  0
    3.0349   -2.1804    0.0000 C   0  0  0  0  0  0  0  0  0  0  0  0
    2.1804   -3.5947    0.0000 C   0  0  0  0  0  0  0  0  0  0  0  0
    1.4143   -3.3295    0.0000 C   0  0  0  0  0  0  0  0  0  0  0  0
    3.4768   -2.9170    0.0000 C   0  0  0  0  0  0  0  0  0  0  0  0
    2.1804   -2.2393    0.0000 C   0  0  0  0  0  0  0  0  0  0  0  0
    4.0072   -2.2983    0.0000 C   0  0  0  0  0  0  0  0  0  0  0  0
    1.4143   -2.5045    0.0000 C   0  0  0  0  0  0  0  0  0  0  0  0
    0.9134   -5.4215    0.0000 C   0  0  0  0  0  0  0  0  0  0  0  0
    2.5929   -1.5027    0.0000 C   0  0  0  0  0  0  0  0  0  0  0  0
    4.2135   -1.4143    0.0000 C   0  0  0  0  0  0  0  0  0  0  0  0
    3.7715   -0.7366    0.0000 C   0  0  0  0  0  0  0  0  0  0  0  0
    2.9465   -0.7661    0.0000 C   0  0  0  0  0  0  0  0  0  0  0  0
    4.3018   -2.8286    0.0000 C   0  0  0  0  0  0  0  0  0  0  0  0
    4.6849   -2.2099    0.0000 C   0  0  0  0  0  0  0  0  0  0  0  0
  1  7  1  0  0  0  0
  1  9  2  0  0  0  0
  1 10  2  0  0  0  0
  1 20  1  0  0  0  0
  2 20  1  0  0  0  0
  3 20  1  0  0  0  0
  4 20  1  0  0  0  0
  5 22  1  0  0  0  0
  6 23  1  0  0  0  0
  7 15  1  0  0  0  0
  8 16  1  0  0  0  0
  8 26  1  0  0  0  0
 11 16  2  0  0  0  0
 12 13  1  0  0  0  0
 12 14  1  0  0  0  0
 12 16  1  0  0  0  0
 12 17  1  0  0  0  0
 13 18  1  0  0  0  0
 13 21  2  0  0  0  0
 14 15  2  0  0  0  0
 15 19  1  0  0  0  0
 17 19  1  0  0  0  0
 18 22  2  0  0  0  0
 18 25  1  0  0  0  0
 21 24  1  0  0  0  0
 22 23  1  0  0  0  0
 23 24  2  0  0  0  0
M  END
> <PUBCHEM_COMPOUND_ID_TYPE>
0

> <PUBCHEM_TOTAL_CHARGE>
0

> <PUBCHEM_SUBSTANCE_ID>
310934486

> <PUBCHEM_SUBSTANCE_VERSION>
1

> <PUBCHEM_EXT_DATASOURCE_NAME>
4488

> <PUBCHEM_EXT_DATASOURCE_REGID>
SCHEMBL16111968

> <PUBCHEM_SUBSTANCE_COMMENT>
InChI=1S/C15H13F5O5S/c1-8-10(3-4-11(16)12(8)17)14(13(21)24-2)6-5-9(7-14)25-26(22,23)15(18,19)20/h3-4,7H,5-6H2,1-2H3
InChIKey=LQBDBTHPXZOMRJ-UHFFFAOYSA-N

> <PUBCHEM_SUBSTANCE_SYNONYM>
SCHEMBL16111968

> <PUBCHEM_XREF_EXT_ID>
SCHEMBL16111968

> <PUBCHEM_EXT_DATASOURCE_URL>
https://www.surechembl.org/

> <PUBCHEM_EXT_SUBSTANCE_URL>
https://www.surechembl.org/chemical/SCHEMBL16111968

> <PUBCHEM_CID_ASSOCIATIONS>
117602688  1

> <PUBCHEM_COORDINATE_TYPE>
1
3

$$$$
