310946519
  -OEChem-07211613022D

 17 16  0     1  0  0  0  0  0999 V2000
   -8.8870   14.6403    0.0000 O   0  0  0  0  0  0  0  0  0  0  0  0
   -5.8156   14.6684    0.0000 O   0  0  0  0  0  0  0  0  0  0  0  0
   -3.6722   12.6059    0.0000 O   0  0  0  0  0  0  0  0  0  0  0  0
   -3.6722   15.0809    0.0000 O   0  0  0  0  0  0  0  0  0  0  0  0
   -9.8974   15.6507    0.0000 O   0  5  0  0  0  0  0  0  0  0  0  0
  -10.2672   14.2705    0.0000 O   0  0  0  0  0  0  0  0  0  0  0  0
   -5.1011   13.4309    0.0000 N   0  0  0  0  0  0  0  0  0  0  0  0
   -9.6839   14.8538    0.0000 N   0  3  0  0  0  0  0  0  0  0  0  0
   -4.3866   13.8434    0.0000 C   0  0  3  0  0  0  0  0  0  0  0  0
   -5.8156   13.8434    0.0000 C   0  0  0  0  0  0  0  0  0  0  0  0
   -3.6722   13.4309    0.0000 C   0  0  0  0  0  0  0  0  0  0  0  0
   -6.5301   13.4309    0.0000 C   0  0  0  0  0  0  0  0  0  0  0  0
   -4.3866   14.6684    0.0000 C   0  0  0  0  0  0  0  0  0  0  0  0
   -7.2445   13.8434    0.0000 C   0  0  0  0  0  0  0  0  0  0  0  0
   -7.9590   13.4309    0.0000 C   0  0  0  0  0  0  0  0  0  0  0  0
   -8.6735   13.8434    0.0000 C   0  0  0  0  0  0  0  0  0  0  0  0
   -2.9577   13.8434    0.0000 C   0  0  0  0  0  0  0  0  0  0  0  0
  1  8  1  0  0  0  0
  1 16  1  0  0  0  0
  2 10  2  0  0  0  0
  3 11  2  0  0  0  0
  4 13  1  0  0  0  0
  5  8  1  0  0  0  0
  6  8  2  0  0  0  0
  7  9  1  0  0  0  0
  7 10  1  0  0  0  0
  9 11  1  0  0  0  0
  9 13  1  0  0  0  0
 10 12  1  0  0  0  0
 11 17  1  0  0  0  0
 12 14  1  0  0  0  0
 14 15  1  0  0  0  0
 15 16  1  0  0  0  0
M  CHG  2   5  -1   8   1
M  END
> <PUBCHEM_COMPOUND_ID_TYPE>
0

> <PUBCHEM_TOTAL_CHARGE>
0

> <PUBCHEM_SUBSTANCE_ID>
310946519

> <PUBCHEM_SUBSTANCE_VERSION>
1

> <PUBCHEM_EXT_DATASOURCE_NAME>
4488

> <PUBCHEM_EXT_DATASOURCE_REGID>
SCHEMBL16124640

> <PUBCHEM_SUBSTANCE_COMMENT>
InChI=1S/C9H16N2O6/c1-7(13)8(6-12)10-9(14)4-2-3-5-17-11(15)16/h8,12H,2-6H2,1H3,(H,10,14)
InChIKey=LDSAAMSTIDSEOS-UHFFFAOYSA-N

> <PUBCHEM_SUBSTANCE_SYNONYM>
SCHEMBL16124640

> <PUBCHEM_XREF_EXT_ID>
SCHEMBL16124640

> <PUBCHEM_EXT_DATASOURCE_URL>
https://www.surechembl.org/

> <PUBCHEM_EXT_SUBSTANCE_URL>
https://www.surechembl.org/chemical/SCHEMBL16124640

> <PUBCHEM_CID_ASSOCIATIONS>
117612424  1

> <PUBCHEM_COORDINATE_TYPE>
1
3

$$$$
