310937299
  -OEChem-07211613022D

 20 21  0     1  0  0  0  0  0999 V2000
    3.9768   -1.3545    0.0000 O   0  0  0  0  0  0  0  0  0  0  0  0
    1.9450   -0.0174    0.0000 O   0  0  0  0  0  0  0  0  0  0  0  0
    3.9768   -2.7959    0.0000 O   0  0  0  0  0  0  0  0  0  0  0  0
    0.0000   -0.0174    0.0000 O   0  5  0  0  0  0  0  0  0  0  0  0
    1.4240    0.0000    0.0000 O   0  0  0  0  0  0  0  0  0  0  0  0
    2.2402   -1.4066    0.0000 N   0  0  0  0  0  0  0  0  0  0  0  0
    0.7120   -0.4168    0.0000 N   0  3  0  0  0  0  0  0  0  0  0  0
    1.4587   -1.6324    0.0000 C   0  0  0  0  0  0  0  0  0  0  0  0
    1.4587   -2.5006    0.0000 C   0  0  0  0  0  0  0  0  0  0  0  0
    2.7264   -2.0665    0.0000 C   0  0  3  0  0  0  0  0  0  0  0  0
    0.7293   -1.2504    0.0000 C   0  0  0  0  0  0  0  0  0  0  0  0
    2.2402   -2.7264    0.0000 C   0  0  0  0  0  0  0  0  0  0  0  0
    2.5006   -0.6252    0.0000 C   0  0  0  0  0  0  0  0  0  0  0  0
    3.5600   -2.0665    0.0000 C   0  0  0  0  0  0  0  0  0  0  0  0
    0.7293   -2.9001    0.0000 C   0  0  0  0  0  0  0  0  0  0  0  0
    0.0347   -1.6324    0.0000 C   0  0  0  0  0  0  0  0  0  0  0  0
    0.0347   -2.5006    0.0000 C   0  0  0  0  0  0  0  0  0  0  0  0
    3.3169   -0.4515    0.0000 C   0  0  0  0  0  0  0  0  0  0  0  0
    4.7930   -1.3545    0.0000 C   0  0  0  0  0  0  0  0  0  0  0  0
    5.2097   -0.6425    0.0000 C   0  0  0  0  0  0  0  0  0  0  0  0
  1 14  1  0  0  0  0
  1 19  1  0  0  0  0
  2 13  2  0  0  0  0
  3 14  2  0  0  0  0
  4  7  1  0  0  0  0
  5  7  2  0  0  0  0
  6  8  1  0  0  0  0
  6 10  1  0  0  0  0
  6 13  1  0  0  0  0
  7 11  1  0  0  0  0
  8  9  2  0  0  0  0
  8 11  1  0  0  0  0
  9 12  1  0  0  0  0
  9 15  1  0  0  0  0
 10 12  1  0  0  0  0
 10 14  1  0  0  0  0
 11 16  2  0  0  0  0
 13 18  1  0  0  0  0
 15 17  2  0  0  0  0
 16 17  1  0  0  0  0
 19 20  1  0  0  0  0
M  CHG  2   4  -1   7   1
M  END
> <PUBCHEM_COMPOUND_ID_TYPE>
0

> <PUBCHEM_TOTAL_CHARGE>
0

> <PUBCHEM_SUBSTANCE_ID>
310937299

> <PUBCHEM_SUBSTANCE_VERSION>
1

> <PUBCHEM_EXT_DATASOURCE_NAME>
4488

> <PUBCHEM_EXT_DATASOURCE_REGID>
SCHEMBL16115047

> <PUBCHEM_SUBSTANCE_COMMENT>
InChI=1S/C13H14N2O5/c1-3-20-13(17)11-7-9-5-4-6-10(15(18)19)12(9)14(11)8(2)16/h4-6,11H,3,7H2,1-2H3
InChIKey=XLLBWUMZMDRMBS-UHFFFAOYSA-N

> <PUBCHEM_SUBSTANCE_SYNONYM>
SCHEMBL16115047

> <PUBCHEM_XREF_EXT_ID>
SCHEMBL16115047

> <PUBCHEM_EXT_DATASOURCE_URL>
https://www.surechembl.org/

> <PUBCHEM_EXT_SUBSTANCE_URL>
https://www.surechembl.org/chemical/SCHEMBL16115047

> <PUBCHEM_CID_ASSOCIATIONS>
117605082  1

> <PUBCHEM_COORDINATE_TYPE>
1
3

$$$$
