310945820
  -OEChem-07211613022D

 42 44  0     1  0  0  0  0  0999 V2000
   -5.5220   -0.6859    0.0000 F   0  0  0  0  0  0  0  0  0  0  0  0
   -4.8014   -1.1016    0.0000 F   0  0  0  0  0  0  0  0  0  0  0  0
   -5.5220    0.1455    0.0000 F   0  0  0  0  0  0  0  0  0  0  0  0
    5.1895    0.9770    0.0000 O   0  0  0  0  0  0  0  0  0  0  0  0
    4.0531   -0.9770    0.0000 O   0  0  0  0  0  0  0  0  0  0  0  0
   -4.5105    0.8522    0.0000 O   0  0  0  0  0  0  0  0  0  0  0  0
    1.6836    0.9631    0.0000 O   0  0  0  0  0  0  0  0  0  0  0  0
   -2.6536    0.9631    0.0000 O   0  0  0  0  0  0  0  0  0  0  0  0
   -0.4919   -1.1016    0.0000 O   0  0  0  0  0  0  0  0  0  0  0  0
    3.8453   -2.7644    0.0000 O   0  0  0  0  0  0  0  0  0  0  0  0
    2.4042   -0.2702    0.0000 N   0  0  0  0  0  0  0  0  0  0  0  0
    0.2425    0.1455    0.0000 N   0  0  0  0  0  0  0  0  0  0  0  0
   -1.9192   -0.2702    0.0000 N   0  0  0  0  0  0  0  0  0  0  0  0
    4.7876    0.2980    0.0000 C   0  0  3  0  0  0  0  0  0  0  0  0
    4.0670   -0.1039    0.0000 C   0  0  0  0  0  0  0  0  0  0  0  0
    4.3857    0.9908    0.0000 C   0  0  0  0  0  0  0  0  0  0  0  0
    3.3326    0.2841    0.0000 C   0  0  3  0  0  0  0  0  0  0  0  0
    5.5220   -0.1178    0.0000 C   0  0  0  0  0  0  0  0  0  0  0  0
    3.3465    1.3510    0.0000 C   0  0  0  0  0  0  0  0  0  0  0  0
    1.6698    0.1455    0.0000 C   0  0  0  0  0  0  0  0  0  0  0  0
   -4.0809    0.1871    0.0000 C   0  0  3  0  0  0  0  0  0  0  0  0
   -4.8153   -0.2564    0.0000 C   0  0  0  0  0  0  0  0  0  0  0  0
    0.9770   -0.2425    0.0000 C   0  0  3  0  0  0  0  0  0  0  0  0
    2.6121    1.7945    0.0000 C   0  0  0  0  0  0  0  0  0  0  0  0
   -3.3603   -0.2425    0.0000 C   0  0  0  0  0  0  0  0  0  0  0  0
   -2.6536    0.1455    0.0000 C   0  0  0  0  0  0  0  0  0  0  0  0
    0.9631   -1.0739    0.0000 C   0  0  0  0  0  0  0  0  0  0  0  0
   -0.4781   -0.2287    0.0000 C   0  0  0  0  0  0  0  0  0  0  0  0
   -1.1986    0.1732    0.0000 C   0  0  3  0  0  0  0  0  0  0  0  0
    1.6975   -1.4896    0.0000 C   0  0  0  0  0  0  0  0  0  0  0  0
    1.8638    1.4480    0.0000 C   0  0  0  0  0  0  0  0  0  0  0  0
    2.5150    2.5982    0.0000 C   0  0  0  0  0  0  0  0  0  0  0  0
   -3.6790    0.8938    0.0000 C   0  0  0  0  0  0  0  0  0  0  0  0
    1.3234    2.0439    0.0000 C   0  0  0  0  0  0  0  0  0  0  0  0
    1.7252    2.7644    0.0000 C   0  0  0  0  0  0  0  0  0  0  0  0
    1.6975   -2.3211    0.0000 C   0  0  0  0  0  0  0  0  0  0  0  0
    2.4042   -1.1016    0.0000 C   0  0  0  0  0  0  0  0  0  0  0  0
    3.1247   -2.3072    0.0000 C   0  0  0  0  0  0  0  0  0  0  0  0
    2.4180   -2.7229    0.0000 C   0  0  0  0  0  0  0  0  0  0  0  0
    3.1247   -1.5035    0.0000 C   0  0  0  0  0  0  0  0  0  0  0  0
   -1.1848    1.0046    0.0000 C   0  0  0  0  0  0  0  0  0  0  0  0
    4.5936   -2.3349    0.0000 C   0  0  0  0  0  0  0  0  0  0  0  0
  1 22  1  0  0  0  0
  2 22  1  0  0  0  0
  3 22  1  0  0  0  0
  4 14  1  0  0  0  0
  4 16  1  0  0  0  0
  5 15  2  0  0  0  0
  6 21  1  0  0  0  0
  7 20  2  0  0  0  0
  8 26  2  0  0  0  0
  9 28  2  0  0  0  0
 10 38  1  0  0  0  0
 10 42  1  0  0  0  0
 11 17  1  0  0  0  0
 11 20  1  0  0  0  0
 12 23  1  0  0  0  0
 12 28  1  0  0  0  0
 13 26  1  0  0  0  0
 13 29  1  0  0  0  0
 14 15  1  0  0  0  0
 14 16  1  0  0  0  0
 14 18  1  0  0  0  0
 15 17  1  0  0  0  0
 17 19  1  0  0  0  0
 19 24  1  0  0  0  0
 20 23  1  0  0  0  0
 21 22  1  0  0  0  0
 21 25  1  0  0  0  0
 21 33  1  0  0  0  0
 23 27  1  0  0  0  0
 24 31  1  0  0  0  0
 24 32  1  0  0  0  0
 25 26  1  0  0  0  0
 27 30  1  0  0  0  0
 28 29  1  0  0  0  0
 29 41  1  0  0  0  0
 30 36  2  0  0  0  0
 30 37  1  0  0  0  0
 31 34  1  0  0  0  0
 32 35  1  0  0  0  0
 34 35  1  0  0  0  0
 36 39  1  0  0  0  0
 37 40  2  0  0  0  0
 38 39  2  0  0  0  0
 38 40  1  0  0  0  0
M  END
> <PUBCHEM_COMPOUND_ID_TYPE>
0

> <PUBCHEM_TOTAL_CHARGE>
0

> <PUBCHEM_SUBSTANCE_ID>
310945820

> <PUBCHEM_SUBSTANCE_VERSION>
1

> <PUBCHEM_EXT_DATASOURCE_NAME>
4488

> <PUBCHEM_EXT_DATASOURCE_REGID>
SCHEMBL16123925

> <PUBCHEM_SUBSTANCE_COMMENT>
InChI=1S/C29H40F3N3O7/c1-17(33-23(36)15-28(3,40)29(30,31)32)25(38)35-22(14-19-9-11-20(41-4)12-10-19)26(39)34-21(13-18-7-5-6-8-18)24(37)27(2)16-42-27/h9-12,17-18,21-22,40H,5-8,13-16H2,1-4H3,(H,33,36)(H,34,39)(H,35,38)
InChIKey=DNVASXDWLRJVCS-UHFFFAOYSA-N

> <PUBCHEM_SUBSTANCE_SYNONYM>
SCHEMBL16123925

> <PUBCHEM_XREF_EXT_ID>
SCHEMBL16123925

> <PUBCHEM_EXT_DATASOURCE_URL>
https://www.surechembl.org/

> <PUBCHEM_EXT_SUBSTANCE_URL>
https://www.surechembl.org/chemical/SCHEMBL16123925

> <PUBCHEM_CID_ASSOCIATIONS>
117611806  1

> <PUBCHEM_COORDINATE_TYPE>
1
3

$$$$
