310939507
  -OEChem-07211613022D

 12 13  0     1  0  0  0  0  0999 V2000
    0.8159    5.8661    0.0000 S   0  0  0  0  0  0  0  0  0  0  0  0
   -0.1860    5.8661    0.0000 O   0  0  0  0  0  0  0  0  0  0  0  0
    0.8159    5.0411    0.0000 O   0  0  0  0  0  0  0  0  0  0  0  0
    1.5304    5.4536    0.0000 O   0  0  0  0  0  0  0  0  0  0  0  0
    1.0295    6.6630    0.0000 C   0  0  3  0  0  0  0  0  0  0  0  0
    0.3150    6.2505    0.0000 C   0  0  3  0  0  0  0  0  0  0  0  0
   -0.3995    6.6630    0.0000 C   0  0  3  0  0  0  0  0  0  0  0  0
    1.0295    7.4880    0.0000 C   0  0  0  0  0  0  0  0  0  0  0  0
   -0.3995    7.4880    0.0000 C   0  0  0  0  0  0  0  0  0  0  0  0
    0.3150    7.9005    0.0000 C   0  0  3  0  0  0  0  0  0  0  0  0
    0.4894    6.9014    0.0000 C   0  0  0  0  0  0  0  0  0  0  0  0
    0.4673    7.3322    0.0000 C   0  0  0  0  0  0  0  0  0  0  0  0
  1  2  1  0  0  0  0
  1  3  2  0  0  0  0
  1  4  2  0  0  0  0
  1  5  1  0  0  0  0
  2  7  1  0  0  0  0
  5  6  1  0  0  0  0
  5  8  1  0  0  0  0
  6  7  1  0  0  0  0
  6 11  1  0  0  0  0
  7  9  1  0  0  0  0
  8 10  1  0  0  0  0
  9 10  1  0  0  0  0
 10 12  1  0  0  0  0
M  END
> <PUBCHEM_COMPOUND_ID_TYPE>
0

> <PUBCHEM_TOTAL_CHARGE>
0

> <PUBCHEM_SUBSTANCE_ID>
310939507

> <PUBCHEM_SUBSTANCE_VERSION>
1

> <PUBCHEM_EXT_DATASOURCE_NAME>
4488

> <PUBCHEM_EXT_DATASOURCE_REGID>
SCHEMBL16117436

> <PUBCHEM_SUBSTANCE_COMMENT>
InChI=1S/C8H14O3S/c1-5-3-7-6(2)8(4-5)12(9,10)11-7/h5-8H,3-4H2,1-2H3
InChIKey=QGJYPPFVNDZABB-UHFFFAOYSA-N

> <PUBCHEM_SUBSTANCE_SYNONYM>
SCHEMBL16117436

> <PUBCHEM_XREF_EXT_ID>
SCHEMBL16117436

> <PUBCHEM_EXT_DATASOURCE_URL>
https://www.surechembl.org/

> <PUBCHEM_EXT_SUBSTANCE_URL>
https://www.surechembl.org/chemical/SCHEMBL16117436

> <PUBCHEM_CID_ASSOCIATIONS>
117606807  1

> <PUBCHEM_COORDINATE_TYPE>
1
3

$$$$
