310940915
  -OEChem-07211613022D

 12 12  0     1  0  0  0  0  0999 V2000
    2.1301    0.5803    0.0000 I   0  0  0  0  0  0  0  0  0  0  0  0
   -2.1301    0.0341    0.0000 F   0  0  0  0  0  0  0  0  0  0  0  0
   -1.7478    0.9490    0.0000 F   0  0  0  0  0  0  0  0  0  0  0  0
    1.4884   -0.5803    0.0000 O   0  0  0  0  0  0  0  0  0  0  0  0
    0.0682    0.2526    0.0000 N   0  0  3  0  0  0  0  0  0  0  0  0
   -1.3382    0.2800    0.0000 C   0  0  0  0  0  0  0  0  0  0  0  0
   -0.6554    0.6759    0.0000 C   0  0  0  0  0  0  0  0  0  0  0  0
   -1.3382   -0.5530    0.0000 C   0  0  0  0  0  0  0  0  0  0  0  0
    0.0682   -0.5530    0.0000 C   0  0  0  0  0  0  0  0  0  0  0  0
    0.7646    0.6759    0.0000 C   0  0  0  0  0  0  0  0  0  0  0  0
   -0.6144   -0.9490    0.0000 C   0  0  0  0  0  0  0  0  0  0  0  0
    1.5020    0.2936    0.0000 C   0  0  0  0  0  0  0  0  0  0  0  0
  1 12  1  0  0  0  0
  2  6  1  0  0  0  0
  3  6  1  0  0  0  0
  4 12  2  0  0  0  0
  5  7  1  0  0  0  0
  5  9  1  0  0  0  0
  5 10  1  0  0  0  0
  6  7  1  0  0  0  0
  6  8  1  0  0  0  0
  8 11  1  0  0  0  0
  9 11  1  0  0  0  0
 10 12  1  0  0  0  0
M  END
> <PUBCHEM_COMPOUND_ID_TYPE>
0

> <PUBCHEM_TOTAL_CHARGE>
0

> <PUBCHEM_SUBSTANCE_ID>
310940915

> <PUBCHEM_SUBSTANCE_VERSION>
1

> <PUBCHEM_EXT_DATASOURCE_NAME>
4488

> <PUBCHEM_EXT_DATASOURCE_REGID>
SCHEMBL16118874

> <PUBCHEM_SUBSTANCE_COMMENT>
InChI=1S/C7H10F2INO/c8-7(9)2-1-3-11(5-7)4-6(10)12/h1-5H2
InChIKey=KVHQCVCGXAFYLP-UHFFFAOYSA-N

> <PUBCHEM_SUBSTANCE_SYNONYM>
SCHEMBL16118874

> <PUBCHEM_XREF_EXT_ID>
SCHEMBL16118874

> <PUBCHEM_EXT_DATASOURCE_URL>
https://www.surechembl.org/

> <PUBCHEM_EXT_SUBSTANCE_URL>
https://www.surechembl.org/chemical/SCHEMBL16118874

> <PUBCHEM_CID_ASSOCIATIONS>
117607824  1

> <PUBCHEM_COORDINATE_TYPE>
1
3

$$$$
