310949407
  -OEChem-07211613022D

 36 38  0     1  0  0  0  0  0999 V2000
   -2.9192    0.0999    0.0000 O   0  0  0  0  0  0  0  0  0  0  0  0
   -2.4086   -1.1544    0.0000 O   0  0  0  0  0  0  0  0  0  0  0  0
    2.7860   -0.2886    0.0000 O   0  0  0  0  0  0  0  0  0  0  0  0
    2.1755   -1.5317    0.0000 O   0  0  0  0  0  0  0  0  0  0  0  0
   -4.2401    1.1100    0.0000 O   0  0  0  0  0  0  0  0  0  0  0  0
   -5.6164    0.4773    0.0000 O   0  0  0  0  0  0  0  0  0  0  0  0
    5.6053   -0.0999    0.0000 O   0  0  0  0  0  0  0  0  0  0  0  0
   -6.4821   -0.6549    0.0000 O   0  0  0  0  0  0  0  0  0  0  0  0
    6.3934   -1.2986    0.0000 O   0  0  0  0  0  0  0  0  0  0  0  0
    0.0999   -0.0666    0.0000 C   0  0  3  0  0  0  0  0  0  0  0  0
   -0.7437    0.1332    0.0000 C   0  0  3  0  0  0  0  0  0  0  0  0
    0.4883    0.6215    0.0000 C   0  0  3  0  0  0  0  0  0  0  0  0
   -0.3441    0.8547    0.0000 C   0  0  3  0  0  0  0  0  0  0  0  0
   -1.5428   -0.0777    0.0000 C   0  0  0  0  0  0  0  0  0  0  0  0
   -0.7215    1.5207    0.0000 C   0  0  0  0  0  0  0  0  0  0  0  0
   -1.1321    0.6105    0.0000 C   0  0  0  0  0  0  0  0  0  0  0  0
    0.6327   -0.6882    0.0000 C   0  0  0  0  0  0  0  0  0  0  0  0
    1.3763   -0.3663    0.0000 C   0  0  0  0  0  0  0  0  0  0  0  0
    1.2986    0.4550    0.0000 C   0  0  0  0  0  0  0  0  0  0  0  0
   -2.2754   -0.3441    0.0000 C   0  0  0  0  0  0  0  0  0  0  0  0
    2.1422   -0.7104    0.0000 C   0  0  0  0  0  0  0  0  0  0  0  0
   -3.6407   -0.1887    0.0000 C   0  0  0  0  0  0  0  0  0  0  0  0
    3.5408   -0.6327    0.0000 C   0  0  0  0  0  0  0  0  0  0  0  0
   -4.2622    0.2775    0.0000 C   0  0  3  0  0  0  0  0  0  0  0  0
    4.1623   -0.1998    0.0000 C   0  0  3  0  0  0  0  0  0  0  0  0
   -4.9393   -0.0111    0.0000 C   0  0  0  0  0  0  0  0  0  0  0  0
    4.9171   -0.5549    0.0000 C   0  0  0  0  0  0  0  0  0  0  0  0
    4.1845    0.4440    0.0000 C   0  0  0  0  0  0  0  0  0  0  0  0
   -6.3601    0.1998    0.0000 C   0  0  0  0  0  0  0  0  0  0  0  0
    6.3490   -0.4440    0.0000 C   0  0  0  0  0  0  0  0  0  0  0  0
   -7.0371    0.6882    0.0000 C   0  0  0  0  0  0  0  0  0  0  0  0
    7.0149    0.0000    0.0000 C   0  0  0  0  0  0  0  0  0  0  0  0
   -7.8252    0.3663    0.0000 C   0  0  0  0  0  0  0  0  0  0  0  0
   -6.8928    1.5317    0.0000 C   0  0  0  0  0  0  0  0  0  0  0  0
    7.8252   -0.3774    0.0000 C   0  0  0  0  0  0  0  0  0  0  0  0
    6.9927    0.8436    0.0000 C   0  0  0  0  0  0  0  0  0  0  0  0
  1 20  1  0  0  0  0
  1 22  1  0  0  0  0
  2 20  2  0  0  0  0
  3 21  1  0  0  0  0
  3 23  1  0  0  0  0
  4 21  2  0  0  0  0
  5 24  1  0  0  0  0
  6 26  1  0  0  0  0
  6 29  1  0  0  0  0
  7 27  1  0  0  0  0
  7 30  1  0  0  0  0
  8 29  2  0  0  0  0
  9 30  2  0  0  0  0
 10 11  1  0  0  0  0
 10 12  1  0  0  0  0
 10 17  1  0  0  0  0
 11 14  1  0  0  0  0
 11 15  1  0  0  0  0
 12 13  1  0  0  0  0
 12 19  1  0  0  0  0
 13 15  1  0  0  0  0
 13 16  1  0  0  0  0
 14 16  2  0  0  0  0
 14 20  1  0  0  0  0
 17 18  1  0  0  0  0
 18 19  2  0  0  0  0
 18 21  1  0  0  0  0
 22 24  1  0  0  0  0
 23 25  1  0  0  0  0
 24 26  1  0  0  0  0
 25 27  1  0  0  0  0
 25 28  1  0  0  0  0
 29 31  1  0  0  0  0
 30 32  1  0  0  0  0
 31 33  2  0  0  0  0
 31 34  1  0  0  0  0
 32 35  2  0  0  0  0
 32 36  1  0  0  0  0
M  END
> <PUBCHEM_COMPOUND_ID_TYPE>
0

> <PUBCHEM_TOTAL_CHARGE>
0

> <PUBCHEM_SUBSTANCE_ID>
310949407

> <PUBCHEM_SUBSTANCE_VERSION>
1

> <PUBCHEM_EXT_DATASOURCE_NAME>
4488

> <PUBCHEM_EXT_DATASOURCE_REGID>
SCHEMBL16127600

> <PUBCHEM_SUBSTANCE_COMMENT>
InChI=1S/C27H34O9/c1-14(2)24(29)33-10-16(5)11-34-26(31)18-8-20-17-6-22(21(20)9-18)23(7-17)27(32)36-13-19(28)12-35-25(30)15(3)4/h7-8,16-17,19-22,28H,1,3,6,9-13H2,2,4-5H3
InChIKey=KDHUPVBHZUNUQJ-UHFFFAOYSA-N

> <PUBCHEM_SUBSTANCE_SYNONYM>
SCHEMBL16127600

> <PUBCHEM_XREF_EXT_ID>
SCHEMBL16127600

> <PUBCHEM_EXT_DATASOURCE_URL>
https://www.surechembl.org/

> <PUBCHEM_EXT_SUBSTANCE_URL>
https://www.surechembl.org/chemical/SCHEMBL16127600

> <PUBCHEM_CID_ASSOCIATIONS>
117614858  1

> <PUBCHEM_COORDINATE_TYPE>
1
3

$$$$
