310933149
  -OEChem-07211613022D

 23 25  0     1  0  0  0  0  0999 V2000
    3.2853    0.0000    0.0000 O   0  0  0  0  0  0  0  0  0  0  0  0
    4.4195   -1.9555    0.0000 O   0  0  0  0  0  0  0  0  0  0  0  0
    5.1235   -0.7235    0.0000 O   0  0  0  0  0  0  0  0  0  0  0  0
    3.6959   -0.7235    0.0000 C   0  0  3  0  0  0  0  0  0  0  0  0
    2.8746   -0.7235    0.0000 C   0  0  3  0  0  0  0  0  0  0  0  0
    3.4808   -1.5253    0.0000 C   0  0  0  0  0  0  0  0  0  0  0  0
    4.4195   -1.1342    0.0000 C   0  0  0  0  0  0  0  0  0  0  0  0
    2.1706   -1.1342    0.0000 C   0  0  0  0  0  0  0  0  0  0  0  0
    4.0675   -2.1119    0.0000 C   0  0  0  0  0  0  0  0  0  0  0  0
    2.6986   -1.7404    0.0000 C   0  0  0  0  0  0  0  0  0  0  0  0
    2.1511   -1.9555    0.0000 C   0  0  0  0  0  0  0  0  0  0  0  0
    1.4471   -0.7235    0.0000 C   0  0  0  0  0  0  0  0  0  0  0  0
    3.8524   -2.9138    0.0000 C   0  0  0  0  0  0  0  0  0  0  0  0
    2.4835   -2.5422    0.0000 C   0  0  0  0  0  0  0  0  0  0  0  0
    3.0702   -3.1093    0.0000 C   0  0  0  0  0  0  0  0  0  0  0  0
    1.4471   -2.3857    0.0000 C   0  0  0  0  0  0  0  0  0  0  0  0
    0.7431   -1.1342    0.0000 C   0  0  0  0  0  0  0  0  0  0  0  0
    0.7235   -1.9555    0.0000 C   0  0  0  0  0  0  0  0  0  0  0  0
    5.1235   -2.3662    0.0000 C   0  0  0  0  0  0  0  0  0  0  0  0
    2.8551   -3.9111    0.0000 C   0  0  0  0  0  0  0  0  0  0  0  0
    5.8470   -1.9555    0.0000 C   0  0  0  0  0  0  0  0  0  0  0  0
    0.0000   -2.3662    0.0000 C   0  0  0  0  0  0  0  0  0  0  0  0
    5.8470   -1.1342    0.0000 C   0  0  0  0  0  0  0  0  0  0  0  0
  1  4  1  0  0  0  0
  1  5  1  0  0  0  0
  2  7  1  0  0  0  0
  2 19  1  0  0  0  0
  3  7  2  0  0  0  0
  4  5  1  0  0  0  0
  4  6  1  0  0  0  0
  4  7  1  0  0  0  0
  5  8  1  0  0  0  0
  6  9  2  0  0  0  0
  6 10  1  0  0  0  0
  8 11  2  0  0  0  0
  8 12  1  0  0  0  0
  9 13  1  0  0  0  0
 10 14  2  0  0  0  0
 11 16  1  0  0  0  0
 12 17  2  0  0  0  0
 13 15  2  0  0  0  0
 14 15  1  0  0  0  0
 15 20  1  0  0  0  0
 16 18  2  0  0  0  0
 17 18  1  0  0  0  0
 18 22  1  0  0  0  0
 19 21  1  0  0  0  0
 21 23  1  0  0  0  0
M  END
> <PUBCHEM_COMPOUND_ID_TYPE>
0

> <PUBCHEM_TOTAL_CHARGE>
0

> <PUBCHEM_SUBSTANCE_ID>
310933149

> <PUBCHEM_SUBSTANCE_VERSION>
1

> <PUBCHEM_EXT_DATASOURCE_NAME>
4488

> <PUBCHEM_EXT_DATASOURCE_REGID>
SCHEMBL16110557

> <PUBCHEM_SUBSTANCE_COMMENT>
InChI=1S/C20H22O3/c1-4-13-22-19(21)20(17-11-7-15(3)8-12-17)18(23-20)16-9-5-14(2)6-10-16/h5-12,18H,4,13H2,1-3H3
InChIKey=FIZSRFFAZLAQDA-UHFFFAOYSA-N

> <PUBCHEM_SUBSTANCE_SYNONYM>
SCHEMBL16110557

> <PUBCHEM_XREF_EXT_ID>
SCHEMBL16110557

> <PUBCHEM_EXT_DATASOURCE_URL>
https://www.surechembl.org/

> <PUBCHEM_EXT_SUBSTANCE_URL>
https://www.surechembl.org/chemical/SCHEMBL16110557

> <PUBCHEM_CID_ASSOCIATIONS>
117601601  1

> <PUBCHEM_COORDINATE_TYPE>
1
3

$$$$
