310938867
  -OEChem-07211613022D

 27 26  0     1  0  0  0  0  0999 V2000
    5.0465    1.4369    0.0000 O   0  0  0  0  0  0  0  0  0  0  0  0
    6.4950    1.4369    0.0000 O   0  0  0  0  0  0  0  0  0  0  0  0
    7.1902    0.2202    0.0000 O   0  0  0  0  0  0  0  0  0  0  0  0
    6.3328   -1.4369    0.0000 O   0  0  0  0  0  0  0  0  0  0  0  0
   -2.8679   -0.6373    0.0000 O   0  0  0  0  0  0  0  0  0  0  0  0
    5.2551   -0.6605    0.0000 N   0  0  0  0  0  0  0  0  0  0  0  0
    5.7765    0.2202    0.0000 C   0  0  3  0  0  0  0  0  0  0  0  0
    5.0233    0.6257    0.0000 C   0  0  0  0  0  0  0  0  0  0  0  0
    6.4718    0.6257    0.0000 C   0  0  0  0  0  0  0  0  0  0  0  0
    6.3212   -0.6025    0.0000 C   0  0  0  0  0  0  0  0  0  0  0  0
    4.3280    0.2202    0.0000 C   0  0  0  0  0  0  0  0  0  0  0  0
    3.5864    0.6257    0.0000 C   0  0  0  0  0  0  0  0  0  0  0  0
    2.8911    0.2202    0.0000 C   0  0  0  0  0  0  0  0  0  0  0  0
    2.1611    0.6257    0.0000 C   0  0  0  0  0  0  0  0  0  0  0  0
   -2.8679    0.2317    0.0000 C   0  0  0  0  0  0  0  0  0  0  0  0
    1.4543    0.2202    0.0000 C   0  0  0  0  0  0  0  0  0  0  0  0
   -2.1380    0.6257    0.0000 C   0  0  0  0  0  0  0  0  0  0  0  0
   -3.5864    0.6257    0.0000 C   0  0  0  0  0  0  0  0  0  0  0  0
   -1.4195    0.2202    0.0000 C   0  0  0  0  0  0  0  0  0  0  0  0
    0.7127    0.6257    0.0000 C   0  0  0  0  0  0  0  0  0  0  0  0
   -0.7127    0.6257    0.0000 C   0  0  0  0  0  0  0  0  0  0  0  0
    0.0058    0.2202    0.0000 C   0  0  0  0  0  0  0  0  0  0  0  0
   -4.3048    0.2086    0.0000 C   0  0  0  0  0  0  0  0  0  0  0  0
   -5.0233    0.6141    0.0000 C   0  0  0  0  0  0  0  0  0  0  0  0
   -5.7417    0.2086    0.0000 C   0  0  0  0  0  0  0  0  0  0  0  0
   -6.4718    0.6141    0.0000 C   0  0  0  0  0  0  0  0  0  0  0  0
   -7.1902    0.2202    0.0000 C   0  0  0  0  0  0  0  0  0  0  0  0
  1  8  2  0  0  0  0
  2  9  2  0  0  0  0
  3  9  1  0  0  0  0
  4 10  1  0  0  0  0
  5 15  2  0  0  0  0
  6  7  1  0  0  0  0
  7  8  1  0  0  0  0
  7  9  1  0  0  0  0
  7 10  1  0  0  0  0
  8 11  1  0  0  0  0
 11 12  1  0  0  0  0
 12 13  1  0  0  0  0
 13 14  1  0  0  0  0
 14 16  1  0  0  0  0
 15 17  1  0  0  0  0
 15 18  1  0  0  0  0
 16 20  1  0  0  0  0
 17 19  1  0  0  0  0
 18 23  1  0  0  0  0
 19 21  1  0  0  0  0
 20 22  1  0  0  0  0
 21 22  1  0  0  0  0
 23 24  1  0  0  0  0
 24 25  1  0  0  0  0
 25 26  1  0  0  0  0
 26 27  1  0  0  0  0
M  END
> <PUBCHEM_COMPOUND_ID_TYPE>
0

> <PUBCHEM_TOTAL_CHARGE>
0

> <PUBCHEM_SUBSTANCE_ID>
310938867

> <PUBCHEM_SUBSTANCE_VERSION>
1

> <PUBCHEM_EXT_DATASOURCE_NAME>
4488

> <PUBCHEM_EXT_DATASOURCE_REGID>
SCHEMBL16116786

> <PUBCHEM_SUBSTANCE_COMMENT>
InChI=1S/C21H39NO5/c1-2-3-4-11-14-18(24)15-12-9-7-5-6-8-10-13-16-19(25)21(22,17-23)20(26)27/h23H,2-17,22H2,1H3,(H,26,27)
InChIKey=GJLDNPCFVZDPPF-UHFFFAOYSA-N

> <PUBCHEM_SUBSTANCE_SYNONYM>
SCHEMBL16116786

> <PUBCHEM_XREF_EXT_ID>
SCHEMBL16116786

> <PUBCHEM_EXT_DATASOURCE_URL>
https://www.surechembl.org/

> <PUBCHEM_EXT_SUBSTANCE_URL>
https://www.surechembl.org/chemical/SCHEMBL16116786

> <PUBCHEM_CID_ASSOCIATIONS>
117606264  1

> <PUBCHEM_COORDINATE_TYPE>
1
3

$$$$
