310930953
  -OEChem-07211613022D

 36 39  0     1  0  0  0  0  0999 V2000
    6.3235    6.9509    0.0000 Cl  0  0  0  0  0  0  0  0  0  0  0  0
    7.0380    1.5884    0.0000 S   0  0  0  0  0  0  0  0  0  0  0  0
    7.0850   -0.1340    0.0000 S   0  0  0  0  0  0  0  0  0  0  0  0
    7.0380    3.2384    0.0000 F   0  0  0  0  0  0  0  0  0  0  0  0
    4.1801    1.5884    0.0000 F   0  0  0  0  0  0  0  0  0  0  0  0
    0.6078    2.8259    0.0000 F   0  0  0  0  0  0  0  0  0  0  0  0
    2.0367    2.8259    0.0000 F   0  0  0  0  0  0  0  0  0  0  0  0
    4.1801    3.2384    0.0000 O   0  0  0  0  0  0  0  0  0  0  0  0
    7.4505    2.3029    0.0000 O   0  0  0  0  0  0  0  0  0  0  0  0
    6.6255    0.8739    0.0000 O   0  0  0  0  0  0  0  0  0  0  0  0
    7.7525    1.1759    0.0000 N   0  0  0  0  0  0  0  0  0  0  0  0
    2.0367    4.4759    0.0000 N   0  0  3  0  0  0  0  0  0  0  0  0
    8.4199   -0.1340    0.0000 N   0  0  0  0  0  0  0  0  0  0  0  0
    7.3400   -0.9187    0.0000 N   0  0  0  0  0  0  0  0  0  0  0  0
    6.3235    2.0009    0.0000 C   0  0  0  0  0  0  0  0  0  0  0  0
    6.3235    2.8259    0.0000 C   0  0  0  0  0  0  0  0  0  0  0  0
    4.8946    2.8259    0.0000 C   0  0  0  0  0  0  0  0  0  0  0  0
    5.6091    1.5884    0.0000 C   0  0  0  0  0  0  0  0  0  0  0  0
    4.8946    2.0009    0.0000 C   0  0  0  0  0  0  0  0  0  0  0  0
    5.6091    3.2384    0.0000 C   0  0  0  0  0  0  0  0  0  0  0  0
    3.4656    4.4759    0.0000 C   0  0  3  0  0  0  0  0  0  0  0  0
    3.4656    5.3009    0.0000 C   0  0  3  0  0  0  0  0  0  0  0  0
    7.7525    0.3509    0.0000 C   0  0  0  0  0  0  0  0  0  0  0  0
    4.1801    4.0634    0.0000 C   0  0  0  0  0  0  0  0  0  0  0  0
    4.1801    5.7134    0.0000 C   0  0  0  0  0  0  0  0  0  0  0  0
    2.7512    4.0634    0.0000 C   0  0  0  0  0  0  0  0  0  0  0  0
    2.7512    5.7134    0.0000 C   0  0  0  0  0  0  0  0  0  0  0  0
    2.0367    5.3009    0.0000 C   0  0  0  0  0  0  0  0  0  0  0  0
    4.1801    6.5384    0.0000 C   0  0  0  0  0  0  0  0  0  0  0  0
    4.8946    5.3009    0.0000 C   0  0  0  0  0  0  0  0  0  0  0  0
    8.1650   -0.9187    0.0000 C   0  0  0  0  0  0  0  0  0  0  0  0
    1.3222    4.0634    0.0000 C   0  0  0  0  0  0  0  0  0  0  0  0
    4.8946    6.9509    0.0000 C   0  0  0  0  0  0  0  0  0  0  0  0
    5.6091    5.7134    0.0000 C   0  0  0  0  0  0  0  0  0  0  0  0
    5.6091    6.5384    0.0000 C   0  0  0  0  0  0  0  0  0  0  0  0
    1.3222    3.2384    0.0000 C   0  0  0  0  0  0  0  0  0  0  0  0
  1 35  1  0  0  0  0
  2  9  2  0  0  0  0
  2 10  2  0  0  0  0
  2 11  1  0  0  0  0
  2 15  1  0  0  0  0
  3 14  1  0  0  0  0
  3 23  1  0  0  0  0
  4 16  1  0  0  0  0
  5 19  1  0  0  0  0
  6 36  1  0  0  0  0
  7 36  1  0  0  0  0
  8 17  1  0  0  0  0
  8 24  1  0  0  0  0
 11 23  1  0  0  0  0
 12 26  1  0  0  0  0
 12 28  1  0  0  0  0
 12 32  1  0  0  0  0
 13 23  2  0  0  0  0
 13 31  1  0  0  0  0
 14 31  2  0  0  0  0
 15 16  2  0  0  0  0
 15 18  1  0  0  0  0
 16 20  1  0  0  0  0
 17 19  1  0  0  0  0
 17 20  2  0  0  0  0
 18 19  2  0  0  0  0
 21 22  1  0  0  0  0
 21 24  1  0  0  0  0
 21 26  1  0  0  0  0
 22 25  1  0  0  0  0
 22 27  1  0  0  0  0
 25 29  2  0  0  0  0
 25 30  1  0  0  0  0
 27 28  1  0  0  0  0
 29 33  1  0  0  0  0
 30 34  2  0  0  0  0
 32 36  1  0  0  0  0
 33 35  2  0  0  0  0
 34 35  1  0  0  0  0
M  END
> <PUBCHEM_COMPOUND_ID_TYPE>
0

> <PUBCHEM_TOTAL_CHARGE>
0

> <PUBCHEM_SUBSTANCE_ID>
310930953

> <PUBCHEM_SUBSTANCE_VERSION>
1

> <PUBCHEM_EXT_DATASOURCE_NAME>
4488

> <PUBCHEM_EXT_DATASOURCE_REGID>
SCHEMBL16108252

> <PUBCHEM_SUBSTANCE_COMMENT>
InChI=1S/C22H21ClF4N4O3S2/c23-15-3-1-13(2-4-15)16-5-6-31(10-21(26)27)9-14(16)11-34-19-7-18(25)20(8-17(19)24)36(32,33)30-22-28-12-29-35-22/h1-4,7-8,12,14,16,21H,5-6,9-11H2,(H,28,29,30)
InChIKey=HDTAHBLPSGGZDY-UHFFFAOYSA-N

> <PUBCHEM_SUBSTANCE_SYNONYM>
SCHEMBL16108252

> <PUBCHEM_XREF_EXT_ID>
SCHEMBL16108252

> <PUBCHEM_EXT_DATASOURCE_URL>
https://www.surechembl.org/

> <PUBCHEM_EXT_SUBSTANCE_URL>
https://www.surechembl.org/chemical/SCHEMBL16108252

> <PUBCHEM_CID_ASSOCIATIONS>
78111431  1

> <PUBCHEM_COORDINATE_TYPE>
1
3

$$$$
