310947844
  -OEChem-07211613022D

 13 13  0     1  0  0  0  0  0999 V2000
   -3.1455    3.6929    0.0000 N   0  0  0  0  0  0  0  0  0  0  0  0
   -2.4310    4.9304    0.0000 C   0  0  3  0  0  0  0  0  0  0  0  0
   -2.4310    5.7554    0.0000 C   0  0  0  0  0  0  0  0  0  0  0  0
   -3.1455    4.5179    0.0000 C   0  0  0  0  0  0  0  0  0  0  0  0
   -3.8599    3.2804    0.0000 C   0  0  0  0  0  0  0  0  0  0  0  0
   -2.4310    3.2804    0.0000 C   0  0  0  0  0  0  0  0  0  0  0  0
   -3.8599    2.4554    0.0000 C   0  0  0  0  0  0  0  0  0  0  0  0
   -2.4310    2.4554    0.0000 C   0  0  0  0  0  0  0  0  0  0  0  0
   -1.7165    4.5179    0.0000 C   0  0  0  0  0  0  0  0  0  0  0  0
   -3.1455    2.0429    0.0000 C   0  0  0  0  0  0  0  0  0  0  0  0
   -1.6060    5.7554    0.0000 C   0  0  0  0  0  0  0  0  0  0  0  0
   -3.2560    5.7554    0.0000 C   0  0  0  0  0  0  0  0  0  0  0  0
   -2.4310    6.5804    0.0000 C   0  0  0  0  0  0  0  0  0  0  0  0
  1  4  1  0  0  0  0
  1  5  1  0  0  0  0
  1  6  1  0  0  0  0
  2  3  1  0  0  0  0
  2  4  1  0  0  0  0
  2  9  1  0  0  0  0
  3 11  1  0  0  0  0
  3 12  1  0  0  0  0
  3 13  1  0  0  0  0
  5  7  1  0  0  0  0
  6  8  1  0  0  0  0
  7 10  1  0  0  0  0
  8 10  1  0  0  0  0
M  END
> <PUBCHEM_COMPOUND_ID_TYPE>
0

> <PUBCHEM_TOTAL_CHARGE>
0

> <PUBCHEM_SUBSTANCE_ID>
310947844

> <PUBCHEM_SUBSTANCE_VERSION>
1

> <PUBCHEM_EXT_DATASOURCE_NAME>
4488

> <PUBCHEM_EXT_DATASOURCE_REGID>
SCHEMBL16126018

> <PUBCHEM_SUBSTANCE_COMMENT>
InChI=1S/C12H25N/c1-11(12(2,3)4)10-13-8-6-5-7-9-13/h11H,5-10H2,1-4H3
InChIKey=XRYMUEDFWUCUMJ-UHFFFAOYSA-N

> <PUBCHEM_SUBSTANCE_SYNONYM>
SCHEMBL16126018

> <PUBCHEM_XREF_EXT_ID>
SCHEMBL16126018

> <PUBCHEM_EXT_DATASOURCE_URL>
https://www.surechembl.org/

> <PUBCHEM_EXT_SUBSTANCE_URL>
https://www.surechembl.org/chemical/SCHEMBL16126018

> <PUBCHEM_CID_ASSOCIATIONS>
117613509  1

> <PUBCHEM_COORDINATE_TYPE>
1
3

> <PUBCHEM_BONDANNOTATIONS>
3  11  3
3  12  3

$$$$
