310936331
  -OEChem-07211613022D

 30 34  0     1  0  0  0  0  0999 V2000
    3.4177   -3.2729    0.0000 P   0  0  3  0  0  0  0  0  0  0  0  0
    2.7032   -2.8604    0.0000 O   0  0  0  0  0  0  0  0  0  0  0  0
    3.4177   -4.0979    0.0000 N   0  0  0  0  0  0  0  0  0  0  0  0
    4.1322   -2.8604    0.0000 N   0  0  3  0  0  0  0  0  0  0  0  0
    3.0052   -5.3674    0.0000 N   0  0  0  0  0  0  0  0  0  0  0  0
    5.0254   -1.8684    0.0000 N   0  0  0  0  0  0  0  0  0  0  0  0
    2.7032   -0.3854    0.0000 C   0  0  0  0  0  0  0  0  0  0  0  0
    2.1098    0.1877    0.0000 C   0  0  0  0  0  0  0  0  0  0  0  0
    3.0905    0.3431    0.0000 C   0  0  0  0  0  0  0  0  0  0  0  0
    1.9888   -0.7979    0.0000 C   0  0  0  0  0  0  0  0  0  0  0  0
    3.4177   -0.7979    0.0000 C   0  0  0  0  0  0  0  0  0  0  0  0
    2.7032   -2.0354    0.0000 C   0  0  0  0  0  0  0  0  0  0  0  0
    1.9888   -1.6229    0.0000 C   0  0  0  0  0  0  0  0  0  0  0  0
    3.4177   -1.6229    0.0000 C   0  0  0  0  0  0  0  0  0  0  0  0
    1.3167   -0.0397    0.0000 C   0  0  0  0  0  0  0  0  0  0  0  0
    2.6534    1.0427    0.0000 C   0  0  0  0  0  0  0  0  0  0  0  0
    2.3094    0.9882    0.0000 C   0  0  0  0  0  0  0  0  0  0  0  0
    3.9150    0.3719    0.0000 C   0  0  0  0  0  0  0  0  0  0  0  0
    2.7503   -4.5828    0.0000 C   0  0  0  0  0  0  0  0  0  0  0  0
    4.0851   -4.5828    0.0000 C   0  0  0  0  0  0  0  0  0  0  0  0
    4.2184   -2.0399    0.0000 C   0  0  0  0  0  0  0  0  0  0  0  0
    4.8858   -3.1959    0.0000 C   0  0  0  0  0  0  0  0  0  0  0  0
    0.7233    0.5334    0.0000 C   0  0  0  0  0  0  0  0  0  0  0  0
    3.0407    1.7711    0.0000 C   0  0  0  0  0  0  0  0  0  0  0  0
    1.7159    1.5613    0.0000 C   0  0  0  0  0  0  0  0  0  0  0  0
    4.3023    1.1003    0.0000 C   0  0  0  0  0  0  0  0  0  0  0  0
    3.8302   -5.3674    0.0000 C   0  0  0  0  0  0  0  0  0  0  0  0
    5.4379   -2.5828    0.0000 C   0  0  0  0  0  0  0  0  0  0  0  0
    0.9229    1.3339    0.0000 C   0  0  0  0  0  0  0  0  0  0  0  0
    3.8652    1.7999    0.0000 C   0  0  0  0  0  0  0  0  0  0  0  0
  1  2  1  0  0  0  0
  1  3  1  0  0  0  0
  1  4  1  0  0  0  0
  2 12  1  0  0  0  0
  3 19  1  0  0  0  0
  3 20  1  0  0  0  0
  4 21  1  0  0  0  0
  4 22  1  0  0  0  0
  5 19  2  0  0  0  0
  5 27  1  0  0  0  0
  6 21  1  0  0  0  0
  6 28  1  0  0  0  0
  7  8  1  0  0  0  0
  7  9  1  0  0  0  0
  7 10  1  0  0  0  0
  7 11  1  0  0  0  0
  8 15  2  0  0  0  0
  8 17  1  0  0  0  0
  9 16  2  0  0  0  0
  9 18  1  0  0  0  0
 10 13  1  0  0  0  0
 11 14  1  0  0  0  0
 12 13  1  0  0  0  0
 12 14  1  0  0  0  0
 15 23  1  0  0  0  0
 16 24  1  0  0  0  0
 17 25  2  0  0  0  0
 18 26  2  0  0  0  0
 20 27  2  0  0  0  0
 22 28  2  0  0  0  0
 23 29  2  0  0  0  0
 24 30  2  0  0  0  0
 25 29  1  0  0  0  0
 26 30  1  0  0  0  0
M  END
> <PUBCHEM_COMPOUND_ID_TYPE>
0

> <PUBCHEM_TOTAL_CHARGE>
0

> <PUBCHEM_SUBSTANCE_ID>
310936331

> <PUBCHEM_SUBSTANCE_VERSION>
1

> <PUBCHEM_EXT_DATASOURCE_NAME>
4488

> <PUBCHEM_EXT_DATASOURCE_REGID>
SCHEMBL16113959

> <PUBCHEM_SUBSTANCE_COMMENT>
InChI=1S/C24H27N4OP/c1-3-7-21(8-4-1)24(22-9-5-2-6-10-22)13-11-23(12-14-24)29-30(27-17-15-25-19-27)28-18-16-26-20-28/h1-10,15-19,23,26H,11-14,20H2
InChIKey=ACRJFSRQRNJWIF-UHFFFAOYSA-N

> <PUBCHEM_SUBSTANCE_SYNONYM>
SCHEMBL16113959

> <PUBCHEM_XREF_EXT_ID>
SCHEMBL16113959

> <PUBCHEM_EXT_DATASOURCE_URL>
https://www.surechembl.org/

> <PUBCHEM_EXT_SUBSTANCE_URL>
https://www.surechembl.org/chemical/SCHEMBL16113959

> <PUBCHEM_CID_ASSOCIATIONS>
117604275  1

> <PUBCHEM_COORDINATE_TYPE>
1
3

$$$$
