310943974
  -OEChem-07211613022D

 30 35  0     1  0  0  0  0  0999 V2000
    0.8888    2.3259    0.0000 F   0  0  0  0  0  0  0  0  0  0  0  0
    0.9054   -1.7943    0.0000 N   0  0  0  0  0  0  0  0  0  0  0  0
    3.0984    1.8607    0.0000 N   0  0  0  0  0  0  0  0  0  0  0  0
   -0.6894    0.0332    0.0000 C   0  0  3  0  0  0  0  0  0  0  0  0
    0.1412    0.2990    0.0000 C   0  0  0  0  0  0  0  0  0  0  0  0
   -1.1712    0.7310    0.0000 C   0  0  0  0  0  0  0  0  0  0  0  0
   -1.4869   -0.1828    0.0000 C   0  0  0  0  0  0  0  0  0  0  0  0
   -0.4735   -0.7642    0.0000 C   0  0  0  0  0  0  0  0  0  0  0  0
    0.1246    1.1131    0.0000 C   0  0  0  0  0  0  0  0  0  0  0  0
   -0.6894    1.3789    0.0000 C   0  0  0  0  0  0  0  0  0  0  0  0
   -1.7859   -0.9138    0.0000 C   0  0  0  0  0  0  0  0  0  0  0  0
   -1.0715   -1.3291    0.0000 C   0  0  0  0  0  0  0  0  0  0  0  0
    0.8722   -0.0997    0.0000 C   0  0  0  0  0  0  0  0  0  0  0  0
    0.8888    1.5118    0.0000 C   0  0  0  0  0  0  0  0  0  0  0  0
   -1.9853    0.7808    0.0000 C   0  0  0  0  0  0  0  0  0  0  0  0
   -2.0850    0.3821    0.0000 C   0  0  0  0  0  0  0  0  0  0  0  0
    0.3572   -0.9802    0.0000 C   0  0  0  0  0  0  0  0  0  0  0  0
    1.6364    1.1297    0.0000 C   0  0  0  0  0  0  0  0  0  0  0  0
   -1.0383    2.1265    0.0000 C   0  0  0  0  0  0  0  0  0  0  0  0
    1.6198    0.2824    0.0000 C   0  0  0  0  0  0  0  0  0  0  0  0
   -2.5501   -1.1630    0.0000 C   0  0  0  0  0  0  0  0  0  0  0  0
   -0.8389   -2.1099    0.0000 C   0  0  0  0  0  0  0  0  0  0  0  0
    0.8888   -0.9802    0.0000 C   0  0  0  0  0  0  0  0  0  0  0  0
   -2.3176    1.5451    0.0000 C   0  0  0  0  0  0  0  0  0  0  0  0
   -2.8990    0.1661    0.0000 C   0  0  0  0  0  0  0  0  0  0  0  0
    0.5731   -1.7610    0.0000 C   0  0  0  0  0  0  0  0  0  0  0  0
   -1.8191    2.1764    0.0000 C   0  0  0  0  0  0  0  0  0  0  0  0
   -3.0984   -0.6147    0.0000 C   0  0  0  0  0  0  0  0  0  0  0  0
   -0.0083   -2.3259    0.0000 C   0  0  0  0  0  0  0  0  0  0  0  0
    2.3674    1.5118    0.0000 C   0  0  0  0  0  0  0  0  0  0  0  0
  1 14  1  0  0  0  0
  2 23  3  0  0  0  0
  3 30  3  0  0  0  0
  4  5  1  0  0  0  0
  4  6  1  0  0  0  0
  4  7  1  0  0  0  0
  4  8  1  0  0  0  0
  5  9  2  0  0  0  0
  5 13  1  0  0  0  0
  6 10  2  0  0  0  0
  6 15  1  0  0  0  0
  7 11  1  0  0  0  0
  7 16  2  0  0  0  0
  8 12  2  0  0  0  0
  8 17  1  0  0  0  0
  9 10  1  0  0  0  0
  9 14  1  0  0  0  0
 10 19  1  0  0  0  0
 11 12  1  0  0  0  0
 11 21  2  0  0  0  0
 12 22  1  0  0  0  0
 13 20  2  0  0  0  0
 13 23  1  0  0  0  0
 14 18  2  0  0  0  0
 15 24  2  0  0  0  0
 16 25  1  0  0  0  0
 17 26  2  0  0  0  0
 18 20  1  0  0  0  0
 18 30  1  0  0  0  0
 19 27  2  0  0  0  0
 21 28  1  0  0  0  0
 22 29  2  0  0  0  0
 24 27  1  0  0  0  0
 25 28  2  0  0  0  0
 26 29  1  0  0  0  0
M  END
> <PUBCHEM_COMPOUND_ID_TYPE>
0

> <PUBCHEM_TOTAL_CHARGE>
0

> <PUBCHEM_SUBSTANCE_ID>
310943974

> <PUBCHEM_SUBSTANCE_VERSION>
1

> <PUBCHEM_EXT_DATASOURCE_NAME>
4488

> <PUBCHEM_EXT_DATASOURCE_REGID>
SCHEMBL16122045

> <PUBCHEM_SUBSTANCE_COMMENT>
InChI=1S/C27H13FN2/c28-26-17(15-30)13-16(14-29)25-24(26)20-9-3-6-12-23(20)27(25)21-10-4-1-7-18(21)19-8-2-5-11-22(19)27/h1-13H
InChIKey=IMBYULXOKALAAR-UHFFFAOYSA-N

> <PUBCHEM_SUBSTANCE_SYNONYM>
SCHEMBL16122045

> <PUBCHEM_XREF_EXT_ID>
SCHEMBL16122045

> <PUBCHEM_EXT_DATASOURCE_URL>
https://www.surechembl.org/

> <PUBCHEM_EXT_SUBSTANCE_URL>
https://www.surechembl.org/chemical/SCHEMBL16122045

> <PUBCHEM_CID_ASSOCIATIONS>
117610281  1

> <PUBCHEM_COORDINATE_TYPE>
1
3

$$$$
