310941251
  -OEChem-07211613022D

 44 47  0     1  0  0  0  0  0999 V2000
    5.0715    0.6721    0.0000 O   0  0  0  0  0  0  0  0  0  0  0  0
    3.9353   -1.2817    0.0000 O   0  0  0  0  0  0  0  0  0  0  0  0
    1.7875    0.7968    0.0000 O   0  0  0  0  0  0  0  0  0  0  0  0
   -0.3741   -1.2817    0.0000 O   0  0  0  0  0  0  0  0  0  0  0  0
   -0.3741    1.1986    0.0000 O   0  0  0  0  0  0  0  0  0  0  0  0
    3.9353   -2.9445    0.0000 O   0  0  0  0  0  0  0  0  0  0  0  0
   -2.5219    0.7968    0.0000 O   0  0  0  0  0  0  0  0  0  0  0  0
   -5.4040    0.7968    0.0000 O   0  0  0  0  0  0  0  0  0  0  0  0
    2.5080   -0.4365    0.0000 N   0  0  0  0  0  0  0  0  0  0  0  0
    0.3464   -0.0208    0.0000 N   0  0  0  0  0  0  0  0  0  0  0  0
   -1.8014   -0.4365    0.0000 N   0  0  0  0  0  0  0  0  0  0  0  0
   -3.9630   -0.0208    0.0000 N   0  0  0  0  0  0  0  0  0  0  0  0
    4.6696   -0.0208    0.0000 C   0  0  3  0  0  0  0  0  0  0  0  0
    3.9491   -0.4227    0.0000 C   0  0  0  0  0  0  0  0  0  0  0  0
    4.2678    0.6721    0.0000 C   0  0  0  0  0  0  0  0  0  0  0  0
    3.2147   -0.0208    0.0000 C   0  0  3  0  0  0  0  0  0  0  0  0
    5.4040   -0.4365    0.0000 C   0  0  0  0  0  0  0  0  0  0  0  0
    3.2285    1.2956    0.0000 C   0  0  0  0  0  0  0  0  0  0  0  0
    1.7736   -0.0485    0.0000 C   0  0  0  0  0  0  0  0  0  0  0  0
    1.0808   -0.4365    0.0000 C   0  0  3  0  0  0  0  0  0  0  0  0
    2.4941    1.7251    0.0000 C   0  0  0  0  0  0  0  0  0  0  0  0
    1.0670   -1.2679    0.0000 C   0  0  0  0  0  0  0  0  0  0  0  0
   -0.3741   -0.4088    0.0000 C   0  0  0  0  0  0  0  0  0  0  0  0
    1.7875   -1.6836    0.0000 C   0  0  0  0  0  0  0  0  0  0  0  0
    1.8014    1.3095    0.0000 C   0  0  0  0  0  0  0  0  0  0  0  0
    2.5080    2.5288    0.0000 C   0  0  0  0  0  0  0  0  0  0  0  0
   -1.0946   -0.0208    0.0000 C   0  0  3  0  0  0  0  0  0  0  0  0
    2.5080   -1.2817    0.0000 C   0  0  0  0  0  0  0  0  0  0  0  0
    1.7875   -2.5011    0.0000 C   0  0  0  0  0  0  0  0  0  0  0  0
    1.0808    1.7251    0.0000 C   0  0  0  0  0  0  0  0  0  0  0  0
    1.7875    2.9445    0.0000 C   0  0  0  0  0  0  0  0  0  0  0  0
   -2.5219   -0.0485    0.0000 C   0  0  0  0  0  0  0  0  0  0  0  0
   -1.0670    0.8106    0.0000 C   0  0  0  0  0  0  0  0  0  0  0  0
    3.2147   -2.5011    0.0000 C   0  0  0  0  0  0  0  0  0  0  0  0
    3.2147   -1.6836    0.0000 C   0  0  0  0  0  0  0  0  0  0  0  0
    2.5219   -2.9168    0.0000 C   0  0  0  0  0  0  0  0  0  0  0  0
    1.0808    2.5427    0.0000 C   0  0  0  0  0  0  0  0  0  0  0  0
   -3.2285   -0.4365    0.0000 C   0  0  0  0  0  0  0  0  0  0  0  0
   -3.9491    0.7968    0.0000 C   0  0  0  0  0  0  0  0  0  0  0  0
   -4.6696   -0.4365    0.0000 C   0  0  0  0  0  0  0  0  0  0  0  0
   -4.6974    1.2124    0.0000 C   0  0  0  0  0  0  0  0  0  0  0  0
   -5.3901   -0.0347    0.0000 C   0  0  0  0  0  0  0  0  0  0  0  0
   -0.3603    2.0161    0.0000 C   0  0  0  0  0  0  0  0  0  0  0  0
    4.6835   -2.5288    0.0000 C   0  0  0  0  0  0  0  0  0  0  0  0
  1 13  1  0  0  0  0
  1 15  1  0  0  0  0
  2 14  2  0  0  0  0
  3 19  2  0  0  0  0
  4 23  2  0  0  0  0
  5 33  1  0  0  0  0
  5 43  1  0  0  0  0
  6 34  1  0  0  0  0
  6 44  1  0  0  0  0
  7 32  2  0  0  0  0
  8 41  1  0  0  0  0
  8 42  1  0  0  0  0
  9 16  1  0  0  0  0
  9 19  1  0  0  0  0
 10 20  1  0  0  0  0
 10 23  1  0  0  0  0
 11 27  1  0  0  0  0
 11 32  1  0  0  0  0
 12 38  1  0  0  0  0
 12 39  1  0  0  0  0
 12 40  1  0  0  0  0
 13 14  1  0  0  0  0
 13 15  1  0  0  0  0
 13 17  1  0  0  0  0
 14 16  1  0  0  0  0
 16 18  1  0  0  0  0
 18 21  1  0  0  0  0
 19 20  1  0  0  0  0
 20 22  1  0  0  0  0
 21 25  2  0  0  0  0
 21 26  1  0  0  0  0
 22 24  1  0  0  0  0
 23 27  1  0  0  0  0
 24 28  2  0  0  0  0
 24 29  1  0  0  0  0
 25 30  1  0  0  0  0
 26 31  2  0  0  0  0
 27 33  1  0  0  0  0
 28 35  1  0  0  0  0
 29 36  2  0  0  0  0
 30 37  2  0  0  0  0
 31 37  1  0  0  0  0
 32 38  1  0  0  0  0
 34 35  2  0  0  0  0
 34 36  1  0  0  0  0
 39 41  1  0  0  0  0
 40 42  1  0  0  0  0
M  END
> <PUBCHEM_COMPOUND_ID_TYPE>
0

> <PUBCHEM_TOTAL_CHARGE>
0

> <PUBCHEM_SUBSTANCE_ID>
310941251

> <PUBCHEM_SUBSTANCE_VERSION>
1

> <PUBCHEM_EXT_DATASOURCE_NAME>
4488

> <PUBCHEM_EXT_DATASOURCE_REGID>
SCHEMBL16119211

> <PUBCHEM_SUBSTANCE_COMMENT>
InChI=1S/C32H42N4O8/c1-32(21-44-32)29(38)25(17-22-7-5-4-6-8-22)34-30(39)26(18-23-9-11-24(42-3)12-10-23)35-31(40)27(20-41-2)33-28(37)19-36-13-15-43-16-14-36/h4-12,25-27H,13-21H2,1-3H3,(H,33,37)(H,34,39)(H,35,40)
InChIKey=ASVOKNFZEDDMNC-UHFFFAOYSA-N

> <PUBCHEM_SUBSTANCE_SYNONYM>
SCHEMBL16119211

> <PUBCHEM_XREF_EXT_ID>
SCHEMBL16119211

> <PUBCHEM_EXT_DATASOURCE_URL>
https://www.surechembl.org/

> <PUBCHEM_EXT_SUBSTANCE_URL>
https://www.surechembl.org/chemical/SCHEMBL16119211

> <PUBCHEM_CID_ASSOCIATIONS>
117608110  1

> <PUBCHEM_COORDINATE_TYPE>
1
3

$$$$
