310936255
  -OEChem-07211613022D

 23 25  0     1  0  0  0  0  0999 V2000
   -0.7144    2.0625    0.0000 F   0  0  0  0  0  0  0  0  0  0  0  0
   -0.6283   -0.9013    0.0000 O   0  0  0  0  0  0  0  0  0  0  0  0
    0.4664   -1.8197    0.0000 O   0  0  0  0  0  0  0  0  0  0  0  0
    0.7144   -0.4125    0.0000 C   0  0  3  0  0  0  0  0  0  0  0  0
    0.0000    0.0000    0.0000 C   0  0  0  0  0  0  0  0  0  0  0  0
    1.3079   -0.9856    0.0000 C   0  0  3  0  0  0  0  0  0  0  0  0
    1.0762    0.3290    0.0000 C   0  0  0  0  0  0  0  0  0  0  0  0
    1.8931    0.2142    0.0000 C   0  0  0  0  0  0  0  0  0  0  0  0
    0.1842   -1.0445    0.0000 C   0  0  0  0  0  0  0  0  0  0  0  0
    2.0363   -0.5983    0.0000 C   0  0  0  0  0  0  0  0  0  0  0  0
    0.0000    0.8250    0.0000 C   0  0  0  0  0  0  0  0  0  0  0  0
   -0.7144   -0.4125    0.0000 C   0  0  0  0  0  0  0  0  0  0  0  0
    2.4662    0.8076    0.0000 C   0  0  0  0  0  0  0  0  0  0  0  0
   -0.7144    1.2375    0.0000 C   0  0  0  0  0  0  0  0  0  0  0  0
    1.1931   -1.8026    0.0000 C   0  0  0  0  0  0  0  0  0  0  0  0
   -1.4290    0.0000    0.0000 C   0  0  0  0  0  0  0  0  0  0  0  0
   -1.4290    0.8250    0.0000 C   0  0  0  0  0  0  0  0  0  0  0  0
    0.7144    1.2375    0.0000 C   0  0  0  0  0  0  0  0  0  0  0  0
    3.2667    0.6081    0.0000 C   0  0  0  0  0  0  0  0  0  0  0  0
    2.2388    1.6007    0.0000 C   0  0  0  0  0  0  0  0  0  0  0  0
    3.8398    1.2015    0.0000 C   0  0  0  0  0  0  0  0  0  0  0  0
    2.8119    2.1941    0.0000 C   0  0  0  0  0  0  0  0  0  0  0  0
    3.6124    1.9946    0.0000 C   0  0  0  0  0  0  0  0  0  0  0  0
  1 14  1  0  0  0  0
  2  9  2  0  0  0  0
  3  9  1  0  0  0  0
  4  5  1  0  0  0  0
  4  6  1  0  0  0  0
  4  7  1  0  0  0  0
  4  9  1  0  0  0  0
  5 11  1  0  0  0  0
  5 12  2  0  0  0  0
  6 10  1  0  0  0  0
  6 15  1  0  0  0  0
  7  8  2  0  0  0  0
  8 10  1  0  0  0  0
  8 13  1  0  0  0  0
 11 14  2  0  0  0  0
 11 18  1  0  0  0  0
 12 16  1  0  0  0  0
 13 19  2  0  0  0  0
 13 20  1  0  0  0  0
 14 17  1  0  0  0  0
 16 17  2  0  0  0  0
 19 21  1  0  0  0  0
 20 22  2  0  0  0  0
 21 23  2  0  0  0  0
 22 23  1  0  0  0  0
M  END
> <PUBCHEM_COMPOUND_ID_TYPE>
0

> <PUBCHEM_TOTAL_CHARGE>
0

> <PUBCHEM_SUBSTANCE_ID>
310936255

> <PUBCHEM_SUBSTANCE_VERSION>
1

> <PUBCHEM_EXT_DATASOURCE_NAME>
4488

> <PUBCHEM_EXT_DATASOURCE_REGID>
SCHEMBL16113870

> <PUBCHEM_SUBSTANCE_COMMENT>
InChI=1S/C20H19FO2/c1-13-11-16(15-7-4-3-5-8-15)12-20(13,19(22)23)17-9-6-10-18(21)14(17)2/h3-10,12-13H,11H2,1-2H3,(H,22,23)
InChIKey=OFAZJCRSCYMXAT-UHFFFAOYSA-N

> <PUBCHEM_SUBSTANCE_SYNONYM>
SCHEMBL16113870

> <PUBCHEM_XREF_EXT_ID>
SCHEMBL16113870

> <PUBCHEM_EXT_DATASOURCE_URL>
https://www.surechembl.org/

> <PUBCHEM_EXT_SUBSTANCE_URL>
https://www.surechembl.org/chemical/SCHEMBL16113870

> <PUBCHEM_CID_ASSOCIATIONS>
117604205  1

> <PUBCHEM_COORDINATE_TYPE>
1
3

$$$$
