310942098
  -OEChem-07211613022D

 25 27  0     1  0  0  0  0  0999 V2000
   -1.2749   -1.0812    0.0000 F   0  0  0  0  0  0  0  0  0  0  0  0
   -1.2749    1.8062    0.0000 F   0  0  0  0  0  0  0  0  0  0  0  0
   -2.1124    0.3688    0.0000 O   0  0  0  0  0  0  0  0  0  0  0  0
    1.2249   -1.0812    0.0000 N   0  0  0  0  0  0  0  0  0  0  0  0
    2.9623   -1.1187    0.0000 N   0  0  0  0  0  0  0  0  0  0  0  0
    3.7623   -2.2186    0.0000 N   0  0  0  0  0  0  0  0  0  0  0  0
   -0.0250   -0.3562    0.0000 C   0  0  0  0  0  0  0  0  0  0  0  0
   -0.8500   -0.3437    0.0000 C   0  0  0  0  0  0  0  0  0  0  0  0
   -1.2624    0.3688    0.0000 C   0  0  0  0  0  0  0  0  0  0  0  0
   -0.8625    1.0937    0.0000 C   0  0  0  0  0  0  0  0  0  0  0  0
    0.3875   -1.0561    0.0000 C   0  0  3  0  0  0  0  0  0  0  0  0
    0.3875    0.3813    0.0000 C   0  0  0  0  0  0  0  0  0  0  0  0
   -0.0125    1.0812    0.0000 C   0  0  0  0  0  0  0  0  0  0  0  0
   -2.5249    1.0937    0.0000 C   0  0  0  0  0  0  0  0  0  0  0  0
   -0.0125   -1.8062    0.0000 C   0  0  0  0  0  0  0  0  0  0  0  0
    1.6374   -1.7811    0.0000 C   0  0  0  0  0  0  0  0  0  0  0  0
    2.4748   -1.8062    0.0000 C   0  0  0  0  0  0  0  0  0  0  0  0
   -2.1124    1.8062    0.0000 C   0  0  0  0  0  0  0  0  0  0  0  0
   -3.3498    1.1062    0.0000 C   0  0  0  0  0  0  0  0  0  0  0  0
    2.9748   -2.4685    0.0000 C   0  0  0  0  0  0  0  0  0  0  0  0
   -2.5249    2.5186    0.0000 C   0  0  0  0  0  0  0  0  0  0  0  0
   -3.7623    1.8062    0.0000 C   0  0  0  0  0  0  0  0  0  0  0  0
    0.4000   -2.5186    0.0000 C   0  0  0  0  0  0  0  0  0  0  0  0
    3.7623   -1.3812    0.0000 C   0  0  0  0  0  0  0  0  0  0  0  0
   -3.3498    2.5186    0.0000 C   0  0  0  0  0  0  0  0  0  0  0  0
  1  8  1  0  0  0  0
  2 10  1  0  0  0  0
  3  9  1  0  0  0  0
  3 14  1  0  0  0  0
  4 11  1  0  0  0  0
  4 16  1  0  0  0  0
  5 17  1  0  0  0  0
  5 24  1  0  0  0  0
  6 20  1  0  0  0  0
  6 24  2  0  0  0  0
  7  8  2  0  0  0  0
  7 11  1  0  0  0  0
  7 12  1  0  0  0  0
  8  9  1  0  0  0  0
  9 10  2  0  0  0  0
 10 13  1  0  0  0  0
 11 15  1  0  0  0  0
 12 13  2  0  0  0  0
 14 18  2  0  0  0  0
 14 19  1  0  0  0  0
 15 23  1  0  0  0  0
 16 17  1  0  0  0  0
 17 20  2  0  0  0  0
 18 21  1  0  0  0  0
 19 22  2  0  0  0  0
 21 25  2  0  0  0  0
 22 25  1  0  0  0  0
M  END
> <PUBCHEM_COMPOUND_ID_TYPE>
0

> <PUBCHEM_TOTAL_CHARGE>
0

> <PUBCHEM_SUBSTANCE_ID>
310942098

> <PUBCHEM_SUBSTANCE_VERSION>
1

> <PUBCHEM_EXT_DATASOURCE_NAME>
4488

> <PUBCHEM_EXT_DATASOURCE_REGID>
SCHEMBL16120133

> <PUBCHEM_SUBSTANCE_COMMENT>
InChI=1S/C19H19F2N3O/c1-2-17(23-11-13-10-22-12-24-13)15-8-9-16(20)19(18(15)21)25-14-6-4-3-5-7-14/h3-10,12,17,23H,2,11H2,1H3,(H,22,24)
InChIKey=BFGRQDGEBZZPRV-UHFFFAOYSA-N

> <PUBCHEM_SUBSTANCE_SYNONYM>
SCHEMBL16120133

> <PUBCHEM_XREF_EXT_ID>
SCHEMBL16120133

> <PUBCHEM_EXT_DATASOURCE_URL>
https://www.surechembl.org/

> <PUBCHEM_EXT_SUBSTANCE_URL>
https://www.surechembl.org/chemical/SCHEMBL16120133

> <PUBCHEM_CID_ASSOCIATIONS>
117608760  1

> <PUBCHEM_COORDINATE_TYPE>
1
3

$$$$
