310931769
  -OEChem-07211613022D

 28 32  0     1  0  0  0  0  0999 V2000
    0.4074   -2.7706    0.0000 O   0  0  0  0  0  0  0  0  0  0  0  0
    1.8742    0.0000    0.0000 O   0  0  0  0  0  0  0  0  0  0  0  0
    1.8742   -2.5261    0.0000 N   0  0  0  0  0  0  0  0  0  0  0  0
    2.2816   -3.8298    0.0000 N   0  0  0  0  0  0  0  0  0  0  0  0
    3.3410   -2.7706    0.0000 N   0  0  0  0  0  0  0  0  0  0  0  0
    1.1815   -8.1486    0.0000 N   0  0  0  0  0  0  0  0  0  0  0  0
    1.4668   -3.8298    0.0000 C   0  0  3  0  0  0  0  0  0  0  0  0
    1.1815   -3.0150    0.0000 C   0  0  0  0  0  0  0  0  0  0  0  0
    0.9371   -4.4817    0.0000 C   0  0  0  0  0  0  0  0  0  0  0  0
    1.8334   -4.5632    0.0000 C   0  0  0  0  0  0  0  0  0  0  0  0
    2.5261   -3.0150    0.0000 C   0  0  0  0  0  0  0  0  0  0  0  0
    0.8556   -5.3374    0.0000 C   0  0  0  0  0  0  0  0  0  0  0  0
    0.1630   -4.8484    0.0000 C   0  0  0  0  0  0  0  0  0  0  0  0
    1.8742   -1.7112    0.0000 C   0  0  0  0  0  0  0  0  0  0  0  0
    1.3853   -5.2559    0.0000 C   0  0  0  0  0  0  0  0  0  0  0  0
    2.6483   -4.6040    0.0000 C   0  0  0  0  0  0  0  0  0  0  0  0
    1.7519   -5.9892    0.0000 C   0  0  0  0  0  0  0  0  0  0  0  0
    2.5668   -1.2630    0.0000 C   0  0  0  0  0  0  0  0  0  0  0  0
    1.1408   -1.2630    0.0000 C   0  0  0  0  0  0  0  0  0  0  0  0
    3.0557   -5.3781    0.0000 C   0  0  0  0  0  0  0  0  0  0  0  0
    2.5668   -6.0707    0.0000 C   0  0  0  0  0  0  0  0  0  0  0  0
    1.3038   -6.7226    0.0000 C   0  0  0  0  0  0  0  0  0  0  0  0
    2.5668   -0.4481    0.0000 C   0  0  0  0  0  0  0  0  0  0  0  0
    1.1408   -0.4481    0.0000 C   0  0  0  0  0  0  0  0  0  0  0  0
    1.6297   -7.4559    0.0000 C   0  0  0  0  0  0  0  0  0  0  0  0
    0.4481   -6.6819    0.0000 C   0  0  0  0  0  0  0  0  0  0  0  0
    0.0000   -7.3745    0.0000 C   0  0  0  0  0  0  0  0  0  0  0  0
    0.3667   -8.1078    0.0000 C   0  0  0  0  0  0  0  0  0  0  0  0
  1  8  2  0  0  0  0
  2 23  1  0  0  0  0
  2 24  1  0  0  0  0
  3  8  1  0  0  0  0
  3 11  1  0  0  0  0
  3 14  1  0  0  0  0
  4  7  1  0  0  0  0
  4 11  1  0  0  0  0
  5 11  2  3  0  0  0
  6 25  1  0  0  0  0
  6 28  2  0  0  0  0
  7  8  1  0  0  0  0
  7  9  1  0  0  0  0
  7 10  1  0  0  0  0
  9 12  1  0  0  0  0
  9 13  1  0  0  0  0
 10 15  1  0  0  0  0
 10 16  2  0  0  0  0
 12 13  1  0  0  0  0
 14 18  1  0  0  0  0
 14 19  1  0  0  0  0
 15 17  2  0  0  0  0
 16 20  1  0  0  0  0
 17 21  1  0  0  0  0
 17 22  1  0  0  0  0
 18 23  1  0  0  0  0
 19 24  1  0  0  0  0
 20 21  2  0  0  0  0
 22 25  2  0  0  0  0
 22 26  1  0  0  0  0
 26 27  2  0  0  0  0
 27 28  1  0  0  0  0
M  END
> <PUBCHEM_COMPOUND_ID_TYPE>
0

> <PUBCHEM_TOTAL_CHARGE>
0

> <PUBCHEM_SUBSTANCE_ID>
310931769

> <PUBCHEM_SUBSTANCE_VERSION>
1

> <PUBCHEM_EXT_DATASOURCE_NAME>
4488

> <PUBCHEM_EXT_DATASOURCE_REGID>
SCHEMBL16109098

> <PUBCHEM_SUBSTANCE_COMMENT>
InChI=1S/C22H24N4O2/c23-21-25-22(17-6-7-17,20(27)26(21)19-8-11-28-12-9-19)18-5-1-3-15(13-18)16-4-2-10-24-14-16/h1-5,10,13-14,17,19H,6-9,11-12H2,(H2,23,25)
InChIKey=AUMCPLQPYBUECX-UHFFFAOYSA-N

> <PUBCHEM_SUBSTANCE_SYNONYM>
SCHEMBL16109098

> <PUBCHEM_XREF_EXT_ID>
SCHEMBL16109098

> <PUBCHEM_EXT_DATASOURCE_URL>
https://www.surechembl.org/

> <PUBCHEM_EXT_SUBSTANCE_URL>
https://www.surechembl.org/chemical/SCHEMBL16109098

> <PUBCHEM_CID_ASSOCIATIONS>
86273842  1

> <PUBCHEM_COORDINATE_TYPE>
1
3

$$$$
