310938820
  -OEChem-07211613022D

 12 12  0     1  0  0  0  0  0999 V2000
    0.7185    1.6716    0.0000 O   0  0  0  0  0  0  0  0  0  0  0  0
    1.4223    0.4400    0.0000 O   0  0  0  0  0  0  0  0  0  0  0  0
   -0.0146    0.4546    0.0000 C   0  0  3  0  0  0  0  0  0  0  0  0
    0.3520   -0.8358    0.0000 C   0  0  0  0  0  0  0  0  0  0  0  0
    0.6306   -0.0587    0.0000 C   0  0  0  0  0  0  0  0  0  0  0  0
   -0.6892    0.0000    0.0000 C   0  0  0  0  0  0  0  0  0  0  0  0
    0.7038    0.8505    0.0000 C   0  0  0  0  0  0  0  0  0  0  0  0
   -0.4840   -0.7772    0.0000 C   0  0  0  0  0  0  0  0  0  0  0  0
   -0.7185    0.8652    0.0000 C   0  0  0  0  0  0  0  0  0  0  0  0
    1.1731   -0.9678    0.0000 C   0  0  0  0  0  0  0  0  0  0  0  0
    0.3665   -1.6716    0.0000 C   0  0  0  0  0  0  0  0  0  0  0  0
   -1.4223    0.4252    0.0000 C   0  0  0  0  0  0  0  0  0  0  0  0
  1  7  2  0  0  0  0
  2  7  1  0  0  0  0
  3  5  1  0  0  0  0
  3  6  1  0  0  0  0
  3  7  1  0  0  0  0
  3  9  1  0  0  0  0
  4  5  1  0  0  0  0
  4  8  1  0  0  0  0
  4 10  1  0  0  0  0
  4 11  1  0  0  0  0
  6  8  1  0  0  0  0
  9 12  1  0  0  0  0
M  END
> <PUBCHEM_COMPOUND_ID_TYPE>
0

> <PUBCHEM_TOTAL_CHARGE>
0

> <PUBCHEM_SUBSTANCE_ID>
310938820

> <PUBCHEM_SUBSTANCE_VERSION>
1

> <PUBCHEM_EXT_DATASOURCE_NAME>
4488

> <PUBCHEM_EXT_DATASOURCE_REGID>
SCHEMBL16116738

> <PUBCHEM_SUBSTANCE_COMMENT>
InChI=1S/C10H18O2/c1-4-10(8(11)12)6-5-9(2,3)7-10/h4-7H2,1-3H3,(H,11,12)
InChIKey=HVBWURLYBZQYCQ-UHFFFAOYSA-N

> <PUBCHEM_SUBSTANCE_SYNONYM>
SCHEMBL16116738

> <PUBCHEM_XREF_EXT_ID>
SCHEMBL16116738

> <PUBCHEM_EXT_DATASOURCE_URL>
https://www.surechembl.org/

> <PUBCHEM_EXT_SUBSTANCE_URL>
https://www.surechembl.org/chemical/SCHEMBL16116738

> <PUBCHEM_CID_ASSOCIATIONS>
117606223  1

> <PUBCHEM_COORDINATE_TYPE>
1
3

$$$$
