310933793
  -OEChem-07211613022D

 32 35  0     1  0  0  0  0  0999 V2000
    5.3914   -0.7102    0.0000 S   0  0  0  0  0  0  0  0  0  0  0  0
    2.4859    0.0000    0.0000 O   0  0  0  0  0  0  0  0  0  0  0  0
    6.2308   -0.7102    0.0000 O   0  0  0  0  0  0  0  0  0  0  0  0
    5.8111    0.0000    0.0000 O   0  0  0  0  0  0  0  0  0  0  0  0
    1.6464   -1.4205    0.0000 O   0  0  0  0  0  0  0  0  0  0  0  0
    1.6788   -2.8410    0.0000 O   0  0  0  0  0  0  0  0  0  0  0  0
    3.3252   -1.4205    0.0000 N   0  0  0  0  0  0  0  0  0  0  0  0
    2.4859   -1.4205    0.0000 N   0  0  0  0  0  0  0  0  0  0  0  0
    3.7127   -0.7102    0.0000 C   0  0  0  0  0  0  0  0  0  0  0  0
    2.9056   -0.7102    0.0000 C   0  0  0  0  0  0  0  0  0  0  0  0
    4.1646   -1.4205    0.0000 C   0  0  0  0  0  0  0  0  0  0  0  0
    4.1646    0.0000    0.0000 C   0  0  0  0  0  0  0  0  0  0  0  0
    4.9717   -1.4205    0.0000 C   0  0  0  0  0  0  0  0  0  0  0  0
    4.9717    0.0000    0.0000 C   0  0  0  0  0  0  0  0  0  0  0  0
    3.7449   -2.1307    0.0000 C   0  0  0  0  0  0  0  0  0  0  0  0
    3.3252   -2.8732    0.0000 C   0  0  0  0  0  0  0  0  0  0  0  0
    2.5181   -4.2938    0.0000 C   0  0  0  0  0  0  0  0  0  0  0  0
    2.4859   -2.8732    0.0000 C   0  0  0  0  0  0  0  0  0  0  0  0
    3.7449   -3.5512    0.0000 C   0  0  0  0  0  0  0  0  0  0  0  0
    2.1307   -5.0040    0.0000 C   0  0  0  0  0  0  0  0  0  0  0  0
    1.2591   -2.1307    0.0000 C   0  0  3  0  0  0  0  0  0  0  0  0
    2.0984   -3.5835    0.0000 C   0  0  0  0  0  0  0  0  0  0  0  0
    3.3575   -4.2938    0.0000 C   0  0  0  0  0  0  0  0  0  0  0  0
    2.5504   -5.7465    0.0000 C   0  0  0  0  0  0  0  0  0  0  0  0
    1.2913   -5.0363    0.0000 C   0  0  0  0  0  0  0  0  0  0  0  0
    0.4520   -2.1307    0.0000 C   0  0  0  0  0  0  0  0  0  0  0  0
    2.1630   -6.4568    0.0000 C   0  0  0  0  0  0  0  0  0  0  0  0
    0.9040   -5.7465    0.0000 C   0  0  0  0  0  0  0  0  0  0  0  0
    1.2268   -3.5512    0.0000 C   0  0  0  0  0  0  0  0  0  0  0  0
    0.0000   -2.8410    0.0000 C   0  0  0  0  0  0  0  0  0  0  0  0
    1.3237   -6.4568    0.0000 C   0  0  0  0  0  0  0  0  0  0  0  0
    0.4197   -3.5512    0.0000 C   0  0  0  0  0  0  0  0  0  0  0  0
  1  3  2  0  0  0  0
  1  4  2  0  0  0  0
  1 13  1  0  0  0  0
  1 14  1  0  0  0  0
  2 10  2  0  0  0  0
  5  8  1  0  0  0  0
  5 21  1  0  0  0  0
  6 21  1  0  0  0  0
  6 29  1  0  0  0  0
  7  9  1  0  0  0  0
  7 15  1  0  0  0  0
  8 10  1  0  0  0  0
  9 10  1  0  0  0  0
  9 11  1  0  0  0  0
  9 12  1  0  0  0  0
 11 13  1  0  0  0  0
 12 14  1  0  0  0  0
 15 16  1  0  0  0  0
 16 18  2  0  0  0  0
 16 19  1  0  0  0  0
 17 20  1  0  0  0  0
 17 22  2  0  0  0  0
 17 23  1  0  0  0  0
 18 22  1  0  0  0  0
 19 23  2  0  0  0  0
 20 24  2  0  0  0  0
 20 25  1  0  0  0  0
 21 26  1  0  0  0  0
 24 27  1  0  0  0  0
 25 28  2  0  0  0  0
 26 30  1  0  0  0  0
 27 31  2  0  0  0  0
 28 31  1  0  0  0  0
 29 32  1  0  0  0  0
 30 32  1  0  0  0  0
M  END
> <PUBCHEM_COMPOUND_ID_TYPE>
0

> <PUBCHEM_TOTAL_CHARGE>
0

> <PUBCHEM_SUBSTANCE_ID>
310933793

> <PUBCHEM_SUBSTANCE_VERSION>
1

> <PUBCHEM_EXT_DATASOURCE_NAME>
4488

> <PUBCHEM_EXT_DATASOURCE_REGID>
SCHEMBL16111231

> <PUBCHEM_SUBSTANCE_COMMENT>
InChI=1S/C24H30N2O5S/c27-23(26-31-22-8-4-5-15-30-22)24(13-16-32(28,29)17-14-24)25-18-19-9-11-21(12-10-19)20-6-2-1-3-7-20/h1-3,6-7,9-12,22,25H,4-5,8,13-18H2,(H,26,27)
InChIKey=QGWGUZTWCCQZLZ-UHFFFAOYSA-N

> <PUBCHEM_SUBSTANCE_SYNONYM>
SCHEMBL16111231

> <PUBCHEM_XREF_EXT_ID>
SCHEMBL16111231

> <PUBCHEM_EXT_DATASOURCE_URL>
https://www.surechembl.org/

> <PUBCHEM_EXT_SUBSTANCE_URL>
https://www.surechembl.org/chemical/SCHEMBL16111231

> <PUBCHEM_CID_ASSOCIATIONS>
117602143  1

> <PUBCHEM_COORDINATE_TYPE>
1
3

$$$$
