310930459
  -OEChem-07211613022D

 30 34  0     1  0  0  0  0  0999 V2000
    5.5453   -3.0631    0.0000 O   0  0  0  0  0  0  0  0  0  0  0  0
    0.0000   -4.1986    0.0000 O   0  0  0  0  0  0  0  0  0  0  0  0
    4.2250   -2.4029    0.0000 N   0  0  0  0  0  0  0  0  0  0  0  0
    0.3961   -4.9116    0.0000 N   0  0  0  0  0  0  0  0  0  0  0  0
    4.1986   -0.2112    0.0000 N   0  0  0  0  0  0  0  0  0  0  0  0
    4.2250   -3.7233    0.0000 C   0  0  3  0  0  0  0  0  0  0  0  0
    3.4328   -3.4856    0.0000 C   0  0  0  0  0  0  0  0  0  0  0  0
    3.4328   -2.6406    0.0000 C   0  0  0  0  0  0  0  0  0  0  0  0
    4.7268   -3.0631    0.0000 C   0  0  0  0  0  0  0  0  0  0  0  0
    5.0436   -3.8553    0.0000 C   0  0  0  0  0  0  0  0  0  0  0  0
    2.7198   -3.8817    0.0000 C   0  0  0  0  0  0  0  0  0  0  0  0
    4.4891   -1.6108    0.0000 C   0  0  0  0  0  0  0  0  0  0  0  0
    2.0069   -3.4856    0.0000 C   0  0  0  0  0  0  0  0  0  0  0  0
    2.7198   -2.2445    0.0000 C   0  0  0  0  0  0  0  0  0  0  0  0
    4.4891   -4.5154    0.0000 C   0  0  0  0  0  0  0  0  0  0  0  0
    1.2939   -3.9082    0.0000 C   0  0  0  0  0  0  0  0  0  0  0  0
    2.0069   -2.6406    0.0000 C   0  0  0  0  0  0  0  0  0  0  0  0
    5.5717   -3.2215    0.0000 C   0  0  0  0  0  0  0  0  0  0  0  0
    5.3605   -4.6211    0.0000 C   0  0  0  0  0  0  0  0  0  0  0  0
    3.9609   -0.9770    0.0000 C   0  0  0  0  0  0  0  0  0  0  0  0
    5.3077   -1.4259    0.0000 C   0  0  0  0  0  0  0  0  0  0  0  0
    0.5545   -3.5913    0.0000 C   0  0  0  0  0  0  0  0  0  0  0  0
    1.2147   -4.7268    0.0000 C   0  0  0  0  0  0  0  0  0  0  0  0
    6.3903   -3.3536    0.0000 C   0  0  0  0  0  0  0  0  0  0  0  0
    6.1527   -4.7531    0.0000 C   0  0  0  0  0  0  0  0  0  0  0  0
    5.5453   -0.6337    0.0000 C   0  0  0  0  0  0  0  0  0  0  0  0
    6.6808   -4.1194    0.0000 C   0  0  0  0  0  0  0  0  0  0  0  0
    5.0172    0.0000    0.0000 C   0  0  0  0  0  0  0  0  0  0  0  0
    0.3697   -2.7727    0.0000 C   0  0  0  0  0  0  0  0  0  0  0  0
    1.8220   -5.2813    0.0000 C   0  0  0  0  0  0  0  0  0  0  0  0
  1  9  2  0  0  0  0
  2  4  1  0  0  0  0
  2 22  1  0  0  0  0
  3  8  1  0  0  0  0
  3  9  1  0  0  0  0
  3 12  1  0  0  0  0
  4 23  2  0  0  0  0
  5 20  1  0  0  0  0
  5 28  2  0  0  0  0
  6  7  1  0  0  0  0
  6  9  1  0  0  0  0
  6 10  1  0  0  0  0
  6 15  1  0  0  0  0
  7  8  2  0  0  0  0
  7 11  1  0  0  0  0
  8 14  1  0  0  0  0
 10 18  2  0  0  0  0
 10 19  1  0  0  0  0
 11 13  2  0  0  0  0
 12 20  2  0  0  0  0
 12 21  1  0  0  0  0
 13 16  1  0  0  0  0
 13 17  1  0  0  0  0
 14 17  2  0  0  0  0
 16 22  2  0  0  0  0
 16 23  1  0  0  0  0
 18 24  1  0  0  0  0
 19 25  2  0  0  0  0
 21 26  2  0  0  0  0
 22 29  1  0  0  0  0
 23 30  1  0  0  0  0
 24 27  2  0  0  0  0
 25 27  1  0  0  0  0
 26 28  1  0  0  0  0
M  END
> <PUBCHEM_COMPOUND_ID_TYPE>
0

> <PUBCHEM_TOTAL_CHARGE>
0

> <PUBCHEM_SUBSTANCE_ID>
310930459

> <PUBCHEM_SUBSTANCE_VERSION>
1

> <PUBCHEM_EXT_DATASOURCE_NAME>
4488

> <PUBCHEM_EXT_DATASOURCE_REGID>
SCHEMBL16107749

> <PUBCHEM_SUBSTANCE_COMMENT>
InChI=1S/C25H21N3O2/c1-16-23(17(2)30-27-16)18-11-12-22-21(14-18)25(3,19-8-5-4-6-9-19)24(29)28(22)20-10-7-13-26-15-20/h4-15H,1-3H3
InChIKey=PWJFCJYFYDLDRA-UHFFFAOYSA-N

> <PUBCHEM_SUBSTANCE_SYNONYM>
SCHEMBL16107749

> <PUBCHEM_XREF_EXT_ID>
SCHEMBL16107749

> <PUBCHEM_EXT_DATASOURCE_URL>
https://www.surechembl.org/

> <PUBCHEM_EXT_SUBSTANCE_URL>
https://www.surechembl.org/chemical/SCHEMBL16107749

> <PUBCHEM_CID_ASSOCIATIONS>
86296099  1

> <PUBCHEM_COORDINATE_TYPE>
1
3

$$$$
