310946594
  -OEChem-07211613022D

 30 29  0     1  0  0  0  0  0999 V2000
   -6.7964    7.1281    0.0000 S   0  0  0  0  0  0  0  0  0  0  0  0
   -9.6463    5.4783    0.0000 O   0  0  0  0  0  0  0  0  0  0  0  0
   -6.7964    4.6533    0.0000 O   0  0  0  0  0  0  0  0  0  0  0  0
   -6.0820    5.8908    0.0000 O   0  0  0  0  0  0  0  0  0  0  0  0
   -6.0820    8.3658    0.0000 O   0  0  0  0  0  0  0  0  0  0  0  0
   -8.9299    6.7158    0.0000 O   0  0  0  0  0  0  0  0  0  0  0  0
   -7.5109    8.3658    0.0000 O   0  0  0  0  0  0  0  0  0  0  0  0
  -11.7897    0.9408    0.0000 O   0  0  0  0  0  0  0  0  0  0  0  0
  -11.0173   -0.3971    0.0000 O   0  5  0  0  0  0  0  0  0  0  0  0
  -10.2449    0.9408    0.0000 O   0  0  0  0  0  0  0  0  0  0  0  0
   -8.2253    5.4783    0.0000 N   0  0  0  0  0  0  0  0  0  0  0  0
  -11.0173    0.4948    0.0000 N   0  3  0  0  0  0  0  0  0  0  0  0
   -7.5109    5.8908    0.0000 C   0  0  3  0  0  0  0  0  0  0  0  0
   -6.7964    5.4783    0.0000 C   0  0  0  0  0  0  0  0  0  0  0  0
   -7.5109    6.7158    0.0000 C   0  0  0  0  0  0  0  0  0  0  0  0
   -8.9319    5.8908    0.0000 C   0  0  0  0  0  0  0  0  0  0  0  0
   -6.7964    7.9531    0.0000 C   0  0  0  0  0  0  0  0  0  0  0  0
   -9.6463    4.6533    0.0000 C   0  0  0  0  0  0  0  0  0  0  0  0
   -5.3674    7.9531    0.0000 C   0  0  0  0  0  0  0  0  0  0  0  0
  -10.3607    4.2408    0.0000 C   0  0  0  0  0  0  0  0  0  0  0  0
   -4.6530    8.3658    0.0000 C   0  0  0  0  0  0  0  0  0  0  0  0
  -10.3607    3.4158    0.0000 C   0  0  0  0  0  0  0  0  0  0  0  0
  -11.0752    3.0033    0.0000 C   0  0  0  0  0  0  0  0  0  0  0  0
   -3.9386    7.9531    0.0000 C   0  0  0  0  0  0  0  0  0  0  0  0
  -11.0752    2.1783    0.0000 C   0  0  0  0  0  0  0  0  0  0  0  0
  -11.7897    1.7658    0.0000 C   0  0  0  0  0  0  0  0  0  0  0  0
   -3.2241    8.3658    0.0000 C   0  0  0  0  0  0  0  0  0  0  0  0
   -2.5095    7.9531    0.0000 C   0  0  0  0  0  0  0  0  0  0  0  0
   -1.7951    8.3658    0.0000 C   0  0  0  0  0  0  0  0  0  0  0  0
   -1.0806    7.9531    0.0000 C   0  0  0  0  0  0  0  0  0  0  0  0
  1 15  1  0  0  0  0
  1 17  1  0  0  0  0
  2 16  1  0  0  0  0
  2 18  1  0  0  0  0
  3 14  2  0  0  0  0
  4 14  1  0  0  0  0
  5 17  1  0  0  0  0
  5 19  1  0  0  0  0
  6 16  2  0  0  0  0
  7 17  2  0  0  0  0
  8 12  1  0  0  0  0
  8 26  1  0  0  0  0
  9 12  1  0  0  0  0
 10 12  2  0  0  0  0
 11 13  1  0  0  0  0
 11 16  1  0  0  0  0
 13 14  1  0  0  0  0
 13 15  1  0  0  0  0
 18 20  1  0  0  0  0
 19 21  1  0  0  0  0
 20 22  1  0  0  0  0
 21 24  1  0  0  0  0
 22 23  1  0  0  0  0
 23 25  1  0  0  0  0
 24 27  1  0  0  0  0
 25 26  1  0  0  0  0
 27 28  1  0  0  0  0
 28 29  1  0  0  0  0
 29 30  1  0  0  0  0
M  CHG  2   9  -1  12   1
M  END
> <PUBCHEM_COMPOUND_ID_TYPE>
0

> <PUBCHEM_TOTAL_CHARGE>
0

> <PUBCHEM_SUBSTANCE_ID>
310946594

> <PUBCHEM_SUBSTANCE_VERSION>
1

> <PUBCHEM_EXT_DATASOURCE_NAME>
4488

> <PUBCHEM_EXT_DATASOURCE_REGID>
SCHEMBL16124715

> <PUBCHEM_SUBSTANCE_COMMENT>
InChI=1S/C18H32N2O9S/c1-2-3-4-5-9-12-28-18(24)30-14-15(16(21)22)19-17(23)27-11-8-6-7-10-13-29-20(25)26/h15H,2-14H2,1H3,(H,19,23)(H,21,22)
InChIKey=CUBKVDXZRLVCJD-UHFFFAOYSA-N

> <PUBCHEM_SUBSTANCE_SYNONYM>
SCHEMBL16124715

> <PUBCHEM_XREF_EXT_ID>
SCHEMBL16124715

> <PUBCHEM_EXT_DATASOURCE_URL>
https://www.surechembl.org/

> <PUBCHEM_EXT_SUBSTANCE_URL>
https://www.surechembl.org/chemical/SCHEMBL16124715

> <PUBCHEM_CID_ASSOCIATIONS>
117612494  1

> <PUBCHEM_COORDINATE_TYPE>
1
3

$$$$
