310941401
  -OEChem-07211613022D

 44 48  0     1  0  0  0  0  0999 V2000
    5.2789    1.0322    0.0000 O   0  0  0  0  0  0  0  0  0  0  0  0
    4.1583   -0.9143    0.0000 O   0  0  0  0  0  0  0  0  0  0  0  0
    1.5630    0.8995    0.0000 O   0  0  0  0  0  0  0  0  0  0  0  0
   -0.5898   -1.1649    0.0000 O   0  0  0  0  0  0  0  0  0  0  0  0
    5.1609   -2.8164    0.0000 O   0  0  0  0  0  0  0  0  0  0  0  0
   -2.7427    0.8995    0.0000 O   0  0  0  0  0  0  0  0  0  0  0  0
   -5.6033    0.8995    0.0000 O   0  0  0  0  0  0  0  0  0  0  0  0
    2.2856   -0.3244    0.0000 N   0  0  0  0  0  0  0  0  0  0  0  0
    0.1327    0.0737    0.0000 N   0  0  0  0  0  0  0  0  0  0  0  0
    3.7159   -2.8016    0.0000 N   0  0  0  0  0  0  0  0  0  0  0  0
   -2.0202   -0.3244    0.0000 N   0  0  0  0  0  0  0  0  0  0  0  0
   -4.1730    0.0737    0.0000 N   0  0  0  0  0  0  0  0  0  0  0  0
    4.8808    0.3686    0.0000 C   0  0  3  0  0  0  0  0  0  0  0  0
    4.1583   -0.0442    0.0000 C   0  0  0  0  0  0  0  0  0  0  0  0
    4.4826    1.0470    0.0000 C   0  0  0  0  0  0  0  0  0  0  0  0
    3.4210    0.3539    0.0000 C   0  0  3  0  0  0  0  0  0  0  0  0
    5.6033   -0.0737    0.0000 C   0  0  0  0  0  0  0  0  0  0  0  0
    3.4357    1.4156    0.0000 C   0  0  0  0  0  0  0  0  0  0  0  0
    1.5778    0.0737    0.0000 C   0  0  0  0  0  0  0  0  0  0  0  0
    0.8700   -0.3097    0.0000 C   0  0  3  0  0  0  0  0  0  0  0  0
    2.7132    1.8432    0.0000 C   0  0  0  0  0  0  0  0  0  0  0  0
    1.5925   -1.5483    0.0000 C   0  0  0  0  0  0  0  0  0  0  0  0
    3.0081   -1.5335    0.0000 C   0  0  0  0  0  0  0  0  0  0  0  0
    0.8552   -1.1354    0.0000 C   0  0  0  0  0  0  0  0  0  0  0  0
    3.0081   -2.3593    0.0000 C   0  0  0  0  0  0  0  0  0  0  0  0
    2.2856   -1.1501    0.0000 C   0  0  0  0  0  0  0  0  0  0  0  0
    1.5925   -2.3740    0.0000 C   0  0  0  0  0  0  0  0  0  0  0  0
    2.3003   -2.7721    0.0000 C   0  0  0  0  0  0  0  0  0  0  0  0
   -0.5751   -0.2949    0.0000 C   0  0  0  0  0  0  0  0  0  0  0  0
    3.7159   -1.1354    0.0000 C   0  0  0  0  0  0  0  0  0  0  0  0
    1.9611    1.5041    0.0000 C   0  0  0  0  0  0  0  0  0  0  0  0
    2.6247    2.6394    0.0000 C   0  0  0  0  0  0  0  0  0  0  0  0
    4.4237   -2.3593    0.0000 C   0  0  0  0  0  0  0  0  0  0  0  0
    4.4384   -1.5483    0.0000 C   0  0  0  0  0  0  0  0  0  0  0  0
   -1.3123    0.1033    0.0000 C   0  0  3  0  0  0  0  0  0  0  0  0
    1.4304    2.0939    0.0000 C   0  0  0  0  0  0  0  0  0  0  0  0
    1.8284    2.8164    0.0000 C   0  0  0  0  0  0  0  0  0  0  0  0
   -2.7279    0.0737    0.0000 C   0  0  0  0  0  0  0  0  0  0  0  0
   -1.2829    0.9437    0.0000 C   0  0  0  0  0  0  0  0  0  0  0  0
   -3.4357   -0.3097    0.0000 C   0  0  0  0  0  0  0  0  0  0  0  0
   -4.1583    0.9143    0.0000 C   0  0  0  0  0  0  0  0  0  0  0  0
   -4.8808   -0.3097    0.0000 C   0  0  0  0  0  0  0  0  0  0  0  0
   -4.8956    1.3271    0.0000 C   0  0  0  0  0  0  0  0  0  0  0  0
   -5.5885    0.1033    0.0000 C   0  0  0  0  0  0  0  0  0  0  0  0
  1 13  1  0  0  0  0
  1 15  1  0  0  0  0
  2 14  2  0  0  0  0
  3 19  2  0  0  0  0
  4 29  2  0  0  0  0
  5 33  2  0  0  0  0
  6 38  2  0  0  0  0
  7 43  1  0  0  0  0
  7 44  1  0  0  0  0
  8 16  1  0  0  0  0
  8 19  1  0  0  0  0
  9 20  1  0  0  0  0
  9 29  1  0  0  0  0
 10 25  1  0  0  0  0
 10 33  1  0  0  0  0
 11 35  1  0  0  0  0
 11 38  1  0  0  0  0
 12 40  1  0  0  0  0
 12 41  1  0  0  0  0
 12 42  1  0  0  0  0
 13 14  1  0  0  0  0
 13 15  1  0  0  0  0
 13 17  1  0  0  0  0
 14 16  1  0  0  0  0
 16 18  1  0  0  0  0
 18 21  1  0  0  0  0
 19 20  1  0  0  0  0
 20 24  1  0  0  0  0
 21 31  1  0  0  0  0
 21 32  1  0  0  0  0
 22 24  1  0  0  0  0
 22 26  1  0  0  0  0
 22 27  2  0  0  0  0
 23 25  1  0  0  0  0
 23 26  2  0  0  0  0
 23 30  1  0  0  0  0
 25 28  2  0  0  0  0
 27 28  1  0  0  0  0
 29 35  1  0  0  0  0
 30 34  1  0  0  0  0
 31 36  1  0  0  0  0
 32 37  1  0  0  0  0
 33 34  1  0  0  0  0
 35 39  1  0  0  0  0
 36 37  1  0  0  0  0
 38 40  1  0  0  0  0
 41 43  1  0  0  0  0
 42 44  1  0  0  0  0
M  END
> <PUBCHEM_COMPOUND_ID_TYPE>
0

> <PUBCHEM_TOTAL_CHARGE>
0

> <PUBCHEM_SUBSTANCE_ID>
310941401

> <PUBCHEM_SUBSTANCE_VERSION>
1

> <PUBCHEM_EXT_DATASOURCE_NAME>
4488

> <PUBCHEM_EXT_DATASOURCE_REGID>
SCHEMBL16119361

> <PUBCHEM_SUBSTANCE_COMMENT>
InChI=1S/C32H45N5O7/c1-20(33-28(39)18-37-11-13-43-14-12-37)30(41)36-26(17-22-7-9-24-23(15-22)8-10-27(38)34-24)31(42)35-25(16-21-5-3-4-6-21)29(40)32(2)19-44-32/h7,9,15,20-21,25-26H,3-6,8,10-14,16-19H2,1-2H3,(H,33,39)(H,34,38)(H,35,42)(H,36,41)
InChIKey=SFTRCZIFKOPVOT-UHFFFAOYSA-N

> <PUBCHEM_SUBSTANCE_SYNONYM>
SCHEMBL16119361

> <PUBCHEM_XREF_EXT_ID>
SCHEMBL16119361

> <PUBCHEM_EXT_DATASOURCE_URL>
https://www.surechembl.org/

> <PUBCHEM_EXT_SUBSTANCE_URL>
https://www.surechembl.org/chemical/SCHEMBL16119361

> <PUBCHEM_CID_ASSOCIATIONS>
117608229  1

> <PUBCHEM_COORDINATE_TYPE>
1
3

$$$$
