310941765
  -OEChem-07211613022D

 31 36  0     1  0  0  0  0  0999 V2000
    2.6881   -1.5577    0.0000 S   0  0  0  0  0  0  0  0  0  0  0  0
   -1.4419    0.7898    0.0000 O   0  0  0  0  0  0  0  0  0  0  0  0
    2.0940   -2.1665    0.0000 O   0  0  0  0  0  0  0  0  0  0  0  0
    2.8909   -2.3983    0.0000 O   0  0  0  0  0  0  0  0  0  0  0  0
    0.7029   -0.5144    0.0000 N   0  0  0  0  0  0  0  0  0  0  0  0
    2.1375   -0.9057    0.0000 N   0  0  0  0  0  0  0  0  0  0  0  0
    0.1667   -1.7896    0.0000 N   0  0  0  0  0  0  0  0  0  0  0  0
    0.9927   -1.8765    0.0000 N   0  0  0  0  0  0  0  0  0  0  0  0
   -0.0073    0.7898    0.0000 C   0  0  0  0  0  0  0  0  0  0  0  0
    0.0073   -0.9347    0.0000 C   0  0  0  0  0  0  0  0  0  0  0  0
    1.3404   -1.0796    0.0000 C   0  0  0  0  0  0  0  0  0  0  0  0
   -0.7173    0.3695    0.0000 C   0  0  0  0  0  0  0  0  0  0  0  0
    0.7029    0.3550    0.0000 C   0  0  0  0  0  0  0  0  0  0  0  0
    0.0073    1.6737    0.0000 C   0  0  0  0  0  0  0  0  0  0  0  0
   -0.7173   -0.4999    0.0000 C   0  0  0  0  0  0  0  0  0  0  0  0
    3.4851   -1.3549    0.0000 C   0  0  0  0  0  0  0  0  0  0  0  0
   -2.1519    0.3695    0.0000 C   0  0  3  0  0  0  0  0  0  0  0  0
   -2.9199    0.8043    0.0000 C   0  0  3  0  0  0  0  0  0  0  0  0
   -0.3840    2.3983    0.0000 C   0  0  0  0  0  0  0  0  0  0  0  0
    0.3840    2.3983    0.0000 C   0  0  0  0  0  0  0  0  0  0  0  0
   -2.1809   -0.4854    0.0000 C   0  0  3  0  0  0  0  0  0  0  0  0
    4.0937   -0.8188    0.0000 C   0  0  0  0  0  0  0  0  0  0  0  0
    4.2676   -1.6157    0.0000 C   0  0  0  0  0  0  0  0  0  0  0  0
   -3.5721   -0.4999    0.0000 C   0  0  3  0  0  0  0  0  0  0  0  0
   -3.5721    0.3550    0.0000 C   0  0  0  0  0  0  0  0  0  0  0  0
   -2.8475   -0.9202    0.0000 C   0  0  0  0  0  0  0  0  0  0  0  0
   -3.5575    1.1811    0.0000 C   0  0  0  0  0  0  0  0  0  0  0  0
   -4.2531    0.7463    0.0000 C   0  0  3  0  0  0  0  0  0  0  0  0
   -4.2676   -0.0652    0.0000 C   0  0  0  0  0  0  0  0  0  0  0  0
   -3.4996   -0.1521    0.0000 C   0  0  0  0  0  0  0  0  0  0  0  0
   -3.6879    0.0941    0.0000 C   0  0  0  0  0  0  0  0  0  0  0  0
  1  3  2  0  0  0  0
  1  4  2  0  0  0  0
  1  6  1  0  0  0  0
  1 16  1  0  0  0  0
  2 12  1  0  0  0  0
  2 17  1  0  0  0  0
  5 10  1  0  0  0  0
  5 11  1  0  0  0  0
  5 13  1  0  0  0  0
  6 11  1  0  0  0  0
  7  8  1  0  0  0  0
  7 10  2  0  0  0  0
  8 11  2  0  0  0  0
  9 12  1  0  0  0  0
  9 13  2  0  0  0  0
  9 14  1  0  0  0  0
 10 15  1  0  0  0  0
 12 15  2  0  0  0  0
 14 19  1  0  0  0  0
 14 20  1  0  0  0  0
 16 22  1  0  0  0  0
 16 23  1  0  0  0  0
 17 18  1  0  0  0  0
 17 21  1  0  0  0  0
 18 25  1  0  0  0  0
 18 27  1  0  0  0  0
 19 20  1  0  0  0  0
 21 26  1  0  0  0  0
 21 30  1  0  0  0  0
 22 23  1  0  0  0  0
 24 25  1  0  0  0  0
 24 26  1  0  0  0  0
 24 29  1  0  0  0  0
 27 28  1  0  0  0  0
 28 29  1  0  0  0  0
 28 31  1  0  0  0  0
M  END
> <PUBCHEM_COMPOUND_ID_TYPE>
0

> <PUBCHEM_TOTAL_CHARGE>
0

> <PUBCHEM_SUBSTANCE_ID>
310941765

> <PUBCHEM_SUBSTANCE_VERSION>
1

> <PUBCHEM_EXT_DATASOURCE_NAME>
4488

> <PUBCHEM_EXT_DATASOURCE_REGID>
SCHEMBL16119796

> <PUBCHEM_SUBSTANCE_COMMENT>
InChI=1S/C23H32N4O3S/c1-13-7-15-9-14(2)22(17(8-13)10-15)30-20-11-21-24-25-23(26-31(28,29)18-5-6-18)27(21)12-19(20)16-3-4-16/h11-18,22H,3-10H2,1-2H3,(H,25,26)
InChIKey=WUKWFVPRFQZZCE-UHFFFAOYSA-N

> <PUBCHEM_SUBSTANCE_SYNONYM>
SCHEMBL16119796

> <PUBCHEM_XREF_EXT_ID>
SCHEMBL16119796

> <PUBCHEM_EXT_DATASOURCE_URL>
https://www.surechembl.org/

> <PUBCHEM_EXT_SUBSTANCE_URL>
https://www.surechembl.org/chemical/SCHEMBL16119796

> <PUBCHEM_CID_ASSOCIATIONS>
117608520  1

> <PUBCHEM_COORDINATE_TYPE>
1
3

$$$$
