310939439
  -OEChem-07211613022D

 94102  0     1  0  0  0  0  0999 V2000
  -10.0019    0.7146    0.0000 S   0  0  0  0  0  0  0  0  0  0  0  0
   10.0019    0.9683    0.0000 S   0  0  0  0  0  0  0  0  0  0  0  0
   -1.1429   -0.0153    0.0000 S   0  0  0  0  0  0  0  0  0  0  0  0
    1.1111   -0.0153    0.0000 S   0  0  0  0  0  0  0  0  0  0  0  0
  -10.7163   -5.4729    0.0000 O   0  0  0  0  0  0  0  0  0  0  0  0
   10.7163   -5.2190    0.0000 O   0  0  0  0  0  0  0  0  0  0  0  0
    9.2874   -2.7441    0.0000 O   0  0  0  0  0  0  0  0  0  0  0  0
    7.8585   -5.2190    0.0000 O   0  0  0  0  0  0  0  0  0  0  0  0
  -13.5741   -5.4729    0.0000 O   0  0  0  0  0  0  0  0  0  0  0  0
   -7.8585   -5.4729    0.0000 O   0  0  0  0  0  0  0  0  0  0  0  0
   13.5741   -5.2190    0.0000 O   0  0  0  0  0  0  0  0  0  0  0  0
   -8.4081   -2.4902    0.0000 O   0  0  0  0  0  0  0  0  0  0  0  0
   -9.2874   -4.0132    0.0000 O   0  0  0  0  0  0  0  0  0  0  0  0
    8.4081   -4.2671    0.0000 O   0  0  0  0  0  0  0  0  0  0  0  0
    6.9792   -6.7420    0.0000 O   0  0  0  0  0  0  0  0  0  0  0  0
   -8.5730   -0.1105    0.0000 O   0  0  0  0  0  0  0  0  0  0  0  0
    8.5730    0.1434    0.0000 O   0  0  0  0  0  0  0  0  0  0  0  0
   -6.4295   -0.5229    0.0000 O   0  0  0  0  0  0  0  0  0  0  0  0
    6.1122   -0.4278    0.0000 O   0  0  0  0  0  0  0  0  0  0  0  0
   -1.8573    1.2222    0.0000 O   0  0  0  0  0  0  0  0  0  0  0  0
   -3.2862    1.2222    0.0000 O   0  0  0  0  0  0  0  0  0  0  0  0
    1.8256    1.2222    0.0000 O   0  0  0  0  0  0  0  0  0  0  0  0
    3.2544    1.2222    0.0000 O   0  0  0  0  0  0  0  0  0  0  0  0
   -4.0006    0.8097    0.0000 O   0  0  0  0  0  0  0  0  0  0  0  0
    3.9689    0.8097    0.0000 O   0  0  0  0  0  0  0  0  0  0  0  0
   -3.2862   -0.4278    0.0000 N   0  0  0  0  0  0  0  0  0  0  0  0
    3.2544   -0.4278    0.0000 N   0  0  0  0  0  0  0  0  0  0  0  0
  -10.7163   -3.8229    0.0000 C   0  0  0  0  0  0  0  0  0  0  0  0
   10.7163   -3.5690    0.0000 C   0  0  0  0  0  0  0  0  0  0  0  0
  -11.4308   -4.2353    0.0000 C   0  0  3  0  0  0  0  0  0  0  0  0
  -10.0019   -4.2353    0.0000 C   0  0  0  0  0  0  0  0  0  0  0  0
   10.0019   -3.9816    0.0000 C   0  0  0  0  0  0  0  0  0  0  0  0
   11.4308   -3.9816    0.0000 C   0  0  3  0  0  0  0  0  0  0  0  0
  -10.7163   -2.9978    0.0000 C   0  0  0  0  0  0  0  0  0  0  0  0
   10.7163   -2.7441    0.0000 C   0  0  0  0  0  0  0  0  0  0  0  0
  -11.4308   -5.0603    0.0000 C   0  0  0  0  0  0  0  0  0  0  0  0
  -10.0019   -5.0603    0.0000 C   0  0  3  0  0  0  0  0  0  0  0  0
   10.0019   -4.8065    0.0000 C   0  0  3  0  0  0  0  0  0  0  0  0
   11.4308   -4.8065    0.0000 C   0  0  0  0  0  0  0  0  0  0  0  0
  -10.0019   -2.5854    0.0000 C   0  0  0  0  0  0  0  0  0  0  0  0
   10.0019   -2.3315    0.0000 C   0  0  0  0  0  0  0  0  0  0  0  0
    9.2874   -3.5690    0.0000 C   0  0  0  0  0  0  0  0  0  0  0  0
  -12.1452   -3.8229    0.0000 C   0  0  0  0  0  0  0  0  0  0  0  0
   -9.2874   -3.8229    0.0000 C   0  0  0  0  0  0  0  0  0  0  0  0
   12.1452   -3.5690    0.0000 C   0  0  0  0  0  0  0  0  0  0  0  0
    9.2874   -5.2190    0.0000 C   0  0  0  0  0  0  0  0  0  0  0  0
  -12.1452   -5.4729    0.0000 C   0  0  0  0  0  0  0  0  0  0  0  0
   -9.2874   -5.4729    0.0000 C   0  0  0  0  0  0  0  0  0  0  0  0
  -11.4308   -2.5854    0.0000 C   0  0  0  0  0  0  0  0  0  0  0  0
   12.1452   -5.2190    0.0000 C   0  0  0  0  0  0  0  0  0  0  0  0
   11.4308   -2.3315    0.0000 C   0  0  0  0  0  0  0  0  0  0  0  0
    8.5730   -4.8065    0.0000 C   0  0  0  0  0  0  0  0  0  0  0  0
  -10.0019   -1.7605    0.0000 C   0  0  0  0  0  0  0  0  0  0  0  0
  -12.8596   -5.0603    0.0000 C   0  0  0  0  0  0  0  0  0  0  0  0
   -8.5730   -5.0603    0.0000 C   0  0  0  0  0  0  0  0  0  0  0  0
   12.8596   -4.8065    0.0000 C   0  0  0  0  0  0  0  0  0  0  0  0
    8.5730   -3.9816    0.0000 C   0  0  0  0  0  0  0  0  0  0  0  0
   -9.2874   -2.9978    0.0000 C   0  0  0  0  0  0  0  0  0  0  0  0
  -12.8596   -4.2353    0.0000 C   0  0  0  0  0  0  0  0  0  0  0  0
   -8.5730   -4.2353    0.0000 C   0  0  0  0  0  0  0  0  0  0  0  0
  -10.7163   -1.3479    0.0000 C   0  0  0  0  0  0  0  0  0  0  0  0
   10.0019   -1.5066    0.0000 C   0  0  0  0  0  0  0  0  0  0  0  0
   12.8596   -3.9816    0.0000 C   0  0  0  0  0  0  0  0  0  0  0  0
  -11.4308   -1.7605    0.0000 C   0  0  0  0  0  0  0  0  0  0  0  0
   10.7163   -1.0941    0.0000 C   0  0  0  0  0  0  0  0  0  0  0  0
   11.4308   -1.5066    0.0000 C   0  0  0  0  0  0  0  0  0  0  0  0
  -10.7163   -0.5229    0.0000 C   0  0  0  0  0  0  0  0  0  0  0  0
   10.7163   -0.2692    0.0000 C   0  0  0  0  0  0  0  0  0  0  0  0
    9.2874   -3.7594    0.0000 C   0  0  0  0  0  0  0  0  0  0  0  0
  -10.0019   -0.1105    0.0000 C   0  0  0  0  0  0  0  0  0  0  0  0
   10.0019    0.1434    0.0000 C   0  0  0  0  0  0  0  0  0  0  0  0
    7.8585   -6.2343    0.0000 C   0  0  0  0  0  0  0  0  0  0  0  0
   -9.2874   -0.5229    0.0000 C   0  0  0  0  0  0  0  0  0  0  0  0
    9.2874   -0.2692    0.0000 C   0  0  0  0  0  0  0  0  0  0  0  0
   -7.8585   -0.5229    0.0000 C   0  0  0  0  0  0  0  0  0  0  0  0
    7.5411   -0.4278    0.0000 C   0  0  0  0  0  0  0  0  0  0  0  0
   -0.4283   -0.4278    0.0000 C   0  0  3  0  0  0  0  0  0  0  0  0
    0.3967   -0.4278    0.0000 C   0  0  3  0  0  0  0  0  0  0  0  0
   -7.1440   -0.1105    0.0000 C   0  0  0  0  0  0  0  0  0  0  0  0
   -0.8408   -1.1423    0.0000 C   0  0  0  0  0  0  0  0  0  0  0  0
    0.8091   -1.1423    0.0000 C   0  0  0  0  0  0  0  0  0  0  0  0
    6.8267   -0.0153    0.0000 C   0  0  0  0  0  0  0  0  0  0  0  0
   -1.8573   -0.4278    0.0000 C   0  0  0  0  0  0  0  0  0  0  0  0
    1.8256   -0.4278    0.0000 C   0  0  0  0  0  0  0  0  0  0  0  0
   -2.5718   -0.0153    0.0000 C   0  0  3  0  0  0  0  0  0  0  0  0
    2.5400   -0.0153    0.0000 C   0  0  3  0  0  0  0  0  0  0  0  0
   -2.5718    0.8097    0.0000 C   0  0  0  0  0  0  0  0  0  0  0  0
    2.5400    0.8097    0.0000 C   0  0  0  0  0  0  0  0  0  0  0  0
   -4.0006   -0.0153    0.0000 C   0  0  0  0  0  0  0  0  0  0  0  0
    3.9689   -0.0153    0.0000 C   0  0  0  0  0  0  0  0  0  0  0  0
   -5.4295   -0.0153    0.0000 C   0  0  0  0  0  0  0  0  0  0  0  0
    5.3978   -0.0153    0.0000 C   0  0  0  0  0  0  0  0  0  0  0  0
   -4.7151   -0.4278    0.0000 C   0  0  0  0  0  0  0  0  0  0  0  0
    4.6833   -0.4278    0.0000 C   0  0  0  0  0  0  0  0  0  0  0  0
  1 70  2  0  0  0  0
  2 71  2  0  0  0  0
  3 77  1  0  0  0  0
  3 83  1  0  0  0  0
  4 78  1  0  0  0  0
  4 84  1  0  0  0  0
  5 36  1  0  0  0  0
  5 37  1  0  0  0  0
  6 38  1  0  0  0  0
  6 39  1  0  0  0  0
  7 41  1  0  0  0  0
  7 69  1  0  0  0  0
  8 52  1  0  0  0  0
  8 72  1  0  0  0  0
  9 54  2  0  0  0  0
 10 55  1  0  0  0  0
 11 56  2  0  0  0  0
 12 58  2  0  0  0  0
 13 58  1  0  0  0  0
 14 69  2  0  0  0  0
 15 72  2  0  0  0  0
 16 73  1  0  0  0  0
 16 75  1  0  0  0  0
 17 74  1  0  0  0  0
 17 76  1  0  0  0  0
 18 79  1  0  0  0  0
 18 91  1  0  0  0  0
 19 82  1  0  0  0  0
 19 92  1  0  0  0  0
 20 87  2  0  0  0  0
 21 87  1  0  0  0  0
 22 88  2  0  0  0  0
 23 88  1  0  0  0  0
 24 89  2  0  0  0  0
 25 90  2  0  0  0  0
 26 85  1  0  0  0  0
 26 89  1  0  0  0  0
 27 86  1  0  0  0  0
 27 90  1  0  0  0  0
 28 30  1  0  0  0  0
 28 31  2  0  0  0  0
 28 34  1  0  0  0  0
 29 32  2  0  0  0  0
 29 33  1  0  0  0  0
 29 35  1  0  0  0  0
 30 36  1  0  0  0  0
 30 43  1  0  0  0  0
 31 37  1  0  0  0  0
 31 44  1  0  0  0  0
 32 38  1  0  0  0  0
 32 42  1  0  0  0  0
 33 39  1  0  0  0  0
 33 45  1  0  0  0  0
 34 40  1  0  0  0  0
 34 49  2  0  0  0  0
 35 41  1  0  0  0  0
 35 51  2  0  0  0  0
 36 47  2  0  0  0  0
 37 48  1  0  0  0  0
 38 46  1  0  0  0  0
 39 50  2  0  0  0  0
 40 53  2  0  0  0  0
 40 58  1  0  0  0  0
 41 62  2  0  0  0  0
 42 57  2  0  0  0  0
 43 59  2  0  0  0  0
 44 60  2  0  0  0  0
 45 63  2  0  0  0  0
 46 52  2  0  0  0  0
 47 54  1  0  0  0  0
 48 55  2  0  0  0  0
 49 64  1  0  0  0  0
 50 56  1  0  0  0  0
 51 66  1  0  0  0  0
 52 57  1  0  0  0  0
 53 61  1  0  0  0  0
 54 59  1  0  0  0  0
 55 60  1  0  0  0  0
 56 63  1  0  0  0  0
 61 64  2  0  0  0  0
 61 67  1  0  0  0  0
 62 65  1  0  0  0  0
 65 66  2  0  0  0  0
 65 68  1  0  0  0  0
 67 70  1  0  0  0  0
 68 71  1  0  0  0  0
 70 73  1  0  0  0  0
 71 74  1  0  0  0  0
 75 79  1  0  0  0  0
 76 82  1  0  0  0  0
 77 78  1  0  0  0  0
 77 80  1  0  0  0  0
 78 81  1  0  0  0  0
 80 81  1  0  0  0  0
 83 85  1  0  0  0  0
 84 86  1  0  0  0  0
 85 87  1  0  0  0  0
 86 88  1  0  0  0  0
 89 93  1  0  0  0  0
 90 94  1  0  0  0  0
 91 93  1  0  0  0  0
 92 94  1  0  0  0  0
M  END
> <PUBCHEM_COMPOUND_ID_TYPE>
0

> <PUBCHEM_TOTAL_CHARGE>
0

> <PUBCHEM_SUBSTANCE_ID>
310939439

> <PUBCHEM_SUBSTANCE_VERSION>
1

> <PUBCHEM_EXT_DATASOURCE_NAME>
4488

> <PUBCHEM_EXT_DATASOURCE_REGID>
SCHEMBL16117361

> <PUBCHEM_SUBSTANCE_COMMENT>
InChI=1S/C67H66N2O21S4/c70-35-87-42-6-12-50-58(30-42)90-57-29-41(74)5-11-49(57)64(50)46-8-2-38(26-54(46)88-36-71)24-44(92)32-86-22-20-84-18-16-62(76)69-53(67(81)82)34-94-60-14-13-59(60)93-33-52(66(79)80)68-61(75)15-17-83-19-21-85-31-43(91)23-37-1-7-45(51(25-37)65(77)78)63-47-9-3-39(72)27-55(47)89-56-28-40(73)4-10-48(56)63/h1-12,25-30,35-36,47,49,52-53,56,58-60,73H,13-24,31-34H2,(H,68,75)(H,69,76)(H,77,78)(H,79,80)(H,81,82)
InChIKey=OUGYNNOTDOGCRK-UHFFFAOYSA-N

> <PUBCHEM_SUBSTANCE_SYNONYM>
SCHEMBL16117361

> <PUBCHEM_XREF_EXT_ID>
SCHEMBL16117361

> <PUBCHEM_EXT_DATASOURCE_URL>
https://www.surechembl.org/

> <PUBCHEM_EXT_SUBSTANCE_URL>
https://www.surechembl.org/chemical/SCHEMBL16117361

> <PUBCHEM_CID_ASSOCIATIONS>
117606762  1

> <PUBCHEM_COORDINATE_TYPE>
1
3

$$$$
