310929990
  -OEChem-07211613022D

 23 25  0     1  0  0  0  0  0999 V2000
    0.1761    0.2828    0.0000 O   0  0  0  0  0  0  0  0  0  0  0  0
   -1.9109    0.3972    0.0000 O   0  0  0  0  0  0  0  0  0  0  0  0
   -2.2841   -1.3585    0.0000 O   0  0  0  0  0  0  0  0  0  0  0  0
    2.3195   -0.1297    0.0000 O   0  0  0  0  0  0  0  0  0  0  0  0
   -0.5384    0.6953    0.0000 N   0  0  0  0  0  0  0  0  0  0  0  0
    0.8462   -1.1063    0.0000 N   0  0  0  0  0  0  0  0  0  0  0  0
   -1.2529    1.9328    0.0000 N   0  0  0  0  0  0  0  0  0  0  0  0
    2.2052   -0.6648    0.0000 N   0  0  0  0  0  0  0  0  0  0  0  0
   -0.5384   -0.1297    0.0000 C   0  0  3  0  0  0  0  0  0  0  0  0
   -0.2028   -0.8833    0.0000 C   0  0  3  0  0  0  0  0  0  0  0  0
   -1.3589   -0.2159    0.0000 C   0  0  3  0  0  0  0  0  0  0  0  0
   -1.5304   -1.0229    0.0000 C   0  0  3  0  0  0  0  0  0  0  0  0
   -0.8159   -1.4354    0.0000 C   0  0  0  0  0  0  0  0  0  0  0  0
   -1.2529    1.1078    0.0000 C   0  0  0  0  0  0  0  0  0  0  0  0
    0.1761    1.1078    0.0000 C   0  0  0  0  0  0  0  0  0  0  0  0
    1.3983   -0.4932    0.0000 C   0  0  0  0  0  0  0  0  0  0  0  0
    1.1011   -1.8910    0.0000 C   0  0  0  0  0  0  0  0  0  0  0  0
    0.8905   -0.1297    0.0000 C   0  0  0  0  0  0  0  0  0  0  0  0
    0.1761    1.9328    0.0000 C   0  0  0  0  0  0  0  0  0  0  0  0
    1.9081   -2.0625    0.0000 C   0  0  0  0  0  0  0  0  0  0  0  0
   -0.5384    2.3453    0.0000 C   0  0  0  0  0  0  0  0  0  0  0  0
    2.4601   -1.4494    0.0000 C   0  0  0  0  0  0  0  0  0  0  0  0
    1.6050    0.2828    0.0000 C   0  0  0  0  0  0  0  0  0  0  0  0
  1  9  1  0  0  0  0
  1 18  1  0  0  0  0
  2 11  1  0  0  0  0
  3 12  1  0  0  0  0
  4 23  1  0  0  0  0
  5  9  1  0  0  0  0
  5 14  1  0  0  0  0
  5 15  1  0  0  0  0
  6 10  1  0  0  0  0
  6 16  1  0  0  0  0
  6 17  1  0  0  0  0
  7 14  2  0  0  0  0
  7 21  1  0  0  0  0
  8 16  2  0  0  0  0
  8 22  1  0  0  0  0
  9 10  1  0  0  0  0
  9 11  1  0  0  0  0
 10 13  1  0  0  0  0
 11 12  1  0  0  0  0
 12 13  1  0  0  0  0
 15 19  1  0  0  0  0
 17 20  1  0  0  0  0
 18 23  1  0  0  0  0
 19 21  2  0  0  0  0
 20 22  2  0  0  0  0
M  END
> <PUBCHEM_COMPOUND_ID_TYPE>
0

> <PUBCHEM_TOTAL_CHARGE>
0

> <PUBCHEM_SUBSTANCE_ID>
310929990

> <PUBCHEM_SUBSTANCE_VERSION>
1

> <PUBCHEM_EXT_DATASOURCE_NAME>
4488

> <PUBCHEM_EXT_DATASOURCE_REGID>
SCHEMBL16107227

> <PUBCHEM_SUBSTANCE_COMMENT>
InChI=1S/C15H22N4O4/c20-7-8-23-15(19-6-2-4-17-11-19)13(9-12(21)14(15)22)18-5-1-3-16-10-18/h1-4,10-14,20-22H,5-9H2
InChIKey=SXGYOINZABDETO-UHFFFAOYSA-N

> <PUBCHEM_SUBSTANCE_SYNONYM>
SCHEMBL16107227

> <PUBCHEM_XREF_EXT_ID>
SCHEMBL16107227

> <PUBCHEM_EXT_DATASOURCE_URL>
https://www.surechembl.org/

> <PUBCHEM_EXT_SUBSTANCE_URL>
https://www.surechembl.org/chemical/SCHEMBL16107227

> <PUBCHEM_CID_ASSOCIATIONS>
117599247  1

> <PUBCHEM_COORDINATE_TYPE>
1
3

$$$$
