310946739
  -OEChem-07211613022D

 20 22  0     1  0  0  0  0  0999 V2000
    1.0717    1.6719    0.0000 N   0  0  0  0  0  0  0  0  0  0  0  0
   -1.8563    1.5144    0.0000 N   0  0  0  0  0  0  0  0  0  0  0  0
    1.8563    1.4170    0.0000 N   0  0  0  0  0  0  0  0  0  0  0  0
    1.8563    2.7519    0.0000 N   0  0  0  0  0  0  0  0  0  0  0  0
   -2.3413    0.8469    0.0000 N   0  0  0  0  0  0  0  0  0  0  0  0
   -0.7019   -0.9458    0.0000 N   0  0  3  0  0  0  0  0  0  0  0  0
    0.2513   -2.9094    0.0000 N   0  0  0  0  0  0  0  0  0  0  0  0
   -0.3572    1.6719    0.0000 C   0  0  0  0  0  0  0  0  0  0  0  0
   -1.0717    1.2594    0.0000 C   0  0  0  0  0  0  0  0  0  0  0  0
    1.0717    2.4969    0.0000 C   0  0  0  0  0  0  0  0  0  0  0  0
   -1.0717    0.4344    0.0000 C   0  0  0  0  0  0  0  0  0  0  0  0
    0.3572    1.2594    0.0000 C   0  0  0  0  0  0  0  0  0  0  0  0
   -0.3572    2.4969    0.0000 C   0  0  0  0  0  0  0  0  0  0  0  0
    0.3572    2.9094    0.0000 C   0  0  0  0  0  0  0  0  0  0  0  0
   -1.8563    0.1795    0.0000 C   0  0  0  0  0  0  0  0  0  0  0  0
   -0.4883   -0.1489    0.0000 C   0  0  0  0  0  0  0  0  0  0  0  0
    2.3413    2.0844    0.0000 C   0  0  0  0  0  0  0  0  0  0  0  0
   -0.1185   -1.5292    0.0000 C   0  0  0  0  0  0  0  0  0  0  0  0
   -1.4988   -1.1593    0.0000 C   0  0  0  0  0  0  0  0  0  0  0  0
   -0.3320   -2.3261    0.0000 C   0  0  0  0  0  0  0  0  0  0  0  0
  1  3  1  0  0  0  0
  1 10  1  0  0  0  0
  1 12  1  0  0  0  0
  2  5  1  0  0  0  0
  2  9  2  0  0  0  0
  3 17  2  0  0  0  0
  4 10  2  0  0  0  0
  4 17  1  0  0  0  0
  5 15  1  0  0  0  0
  6 16  1  0  0  0  0
  6 18  1  0  0  0  0
  6 19  1  0  0  0  0
  7 20  1  0  0  0  0
  8  9  1  0  0  0  0
  8 12  2  0  0  0  0
  8 13  1  0  0  0  0
  9 11  1  0  0  0  0
 10 14  1  0  0  0  0
 11 15  2  0  0  0  0
 11 16  1  0  0  0  0
 13 14  2  0  0  0  0
 18 20  1  0  0  0  0
M  END
> <PUBCHEM_COMPOUND_ID_TYPE>
0

> <PUBCHEM_TOTAL_CHARGE>
0

> <PUBCHEM_SUBSTANCE_ID>
310946739

> <PUBCHEM_SUBSTANCE_VERSION>
1

> <PUBCHEM_EXT_DATASOURCE_NAME>
4488

> <PUBCHEM_EXT_DATASOURCE_REGID>
SCHEMBL16124863

> <PUBCHEM_SUBSTANCE_COMMENT>
InChI=1S/C13H17N7/c1-19(5-4-14)7-11-6-16-18-13(11)10-2-3-12-15-9-17-20(12)8-10/h2-3,6,8-9H,4-5,7,14H2,1H3,(H,16,18)
InChIKey=FAMWUHWAFHWMBP-UHFFFAOYSA-N

> <PUBCHEM_SUBSTANCE_SYNONYM>
SCHEMBL16124863

> <PUBCHEM_XREF_EXT_ID>
SCHEMBL16124863

> <PUBCHEM_EXT_DATASOURCE_URL>
https://www.surechembl.org/

> <PUBCHEM_EXT_SUBSTANCE_URL>
https://www.surechembl.org/chemical/SCHEMBL16124863

> <PUBCHEM_CID_ASSOCIATIONS>
86296138  1

> <PUBCHEM_COORDINATE_TYPE>
1
3

$$$$
