310936973
  -OEChem-07211613022D

 48 52  0     1  0  0  0  0  0999 V2000
    5.3625   -8.8687    0.0000 Cl  0  0  0  0  0  0  0  0  0  0  0  0
    0.0000   -3.5062    0.0000 F   0  0  0  0  0  0  0  0  0  0  0  0
    5.4655   -8.9718    0.0000 O   0  0  0  0  0  0  0  0  0  0  0  0
    2.3719   -8.7139    0.0000 O   0  0  0  0  0  0  0  0  0  0  0  0
    6.5483   -9.4874    0.0000 O   0  0  0  0  0  0  0  0  0  0  0  0
    7.2702   -8.2499    0.0000 O   0  0  0  0  0  0  0  0  0  0  0  0
    4.8468   -3.5062    0.0000 O   0  0  0  0  0  0  0  0  0  0  0  0
    2.4234   -2.1141    0.0000 O   0  0  0  0  0  0  0  0  0  0  0  0
    5.1562   -6.2390    0.0000 N   0  0  0  0  0  0  0  0  0  0  0  0
    4.5375   -5.6718    0.0000 N   0  0  0  0  0  0  0  0  0  0  0  0
    6.5999   -6.2390    0.0000 N   0  0  0  0  0  0  0  0  0  0  0  0
    3.7640   -9.4874    0.0000 N   0  0  3  0  0  0  0  0  0  0  0  0
    3.6609   -4.2281    0.0000 N   0  0  0  0  0  0  0  0  0  0  0  0
    5.1562   -7.0640    0.0000 C   0  0  0  0  0  0  0  0  0  0  0  0
    5.8265   -7.4249    0.0000 C   0  0  0  0  0  0  0  0  0  0  0  0
    4.4859   -7.4765    0.0000 C   0  0  0  0  0  0  0  0  0  0  0  0
    5.8781   -5.8265    0.0000 C   0  0  0  0  0  0  0  0  0  0  0  0
    6.5999   -7.0124    0.0000 C   0  0  0  0  0  0  0  0  0  0  0  0
    4.4859   -8.3015    0.0000 C   0  0  0  0  0  0  0  0  0  0  0  0
    5.8265   -8.2499    0.0000 C   0  0  3  0  0  0  0  0  0  0  0  0
    3.7640   -8.6624    0.0000 C   0  0  0  0  0  0  0  0  0  0  0  0
    4.8984   -4.9499    0.0000 C   0  0  0  0  0  0  0  0  0  0  0  0
    5.6718   -5.0015    0.0000 C   0  0  0  0  0  0  0  0  0  0  0  0
    3.0937   -8.3015    0.0000 C   0  0  0  0  0  0  0  0  0  0  0  0
    3.7640   -7.0640    0.0000 C   0  0  0  0  0  0  0  0  0  0  0  0
    3.0421   -7.4765    0.0000 C   0  0  0  0  0  0  0  0  0  0  0  0
    6.5483   -8.6624    0.0000 C   0  0  0  0  0  0  0  0  0  0  0  0
    4.4859   -4.2281    0.0000 C   0  0  0  0  0  0  0  0  0  0  0  0
    7.2702   -7.4249    0.0000 C   0  0  0  0  0  0  0  0  0  0  0  0
    5.3109   -9.6421    0.0000 C   0  0  0  0  0  0  0  0  0  0  0  0
    3.0937   -9.8999    0.0000 C   0  0  0  0  0  0  0  0  0  0  0  0
    2.3719   -9.5389    0.0000 C   0  0  0  0  0  0  0  0  0  0  0  0
    4.4859   -9.8999    0.0000 C   0  0  0  0  0  0  0  0  0  0  0  0
    3.2484   -3.5062    0.0000 C   0  0  0  0  0  0  0  0  0  0  0  0
    5.1046  -10.3124    0.0000 C   0  0  0  0  0  0  0  0  0  0  0  0
    4.3312   -9.4874    0.0000 C   0  0  0  0  0  0  0  0  0  0  0  0
    5.9296   -9.4874    0.0000 C   0  0  0  0  0  0  0  0  0  0  0  0
    5.2077   -9.4874    0.0000 C   0  0  0  0  0  0  0  0  0  0  0  0
    2.4234   -3.5062    0.0000 C   0  0  0  0  0  0  0  0  0  0  0  0
    2.0109   -2.8359    0.0000 C   0  0  0  0  0  0  0  0  0  0  0  0
    2.0109   -4.2281    0.0000 C   0  0  0  0  0  0  0  0  0  0  0  0
    1.1859   -2.7843    0.0000 C   0  0  0  0  0  0  0  0  0  0  0  0
    0.7734   -3.5062    0.0000 C   0  0  0  0  0  0  0  0  0  0  0  0
    5.2077   -8.6624    0.0000 C   0  0  0  0  0  0  0  0  0  0  0  0
    1.1859   -4.2281    0.0000 C   0  0  0  0  0  0  0  0  0  0  0  0
    2.0109   -1.3922    0.0000 C   0  0  0  0  0  0  0  0  0  0  0  0
    2.4234   -0.7219    0.0000 C   0  0  0  0  0  0  0  0  0  0  0  0
    2.0109    0.0000    0.0000 C   0  0  0  0  0  0  0  0  0  0  0  0
  1 19  1  0  0  0  0
  2 43  1  0  0  0  0
  3 20  1  0  0  0  0
  3 30  1  0  0  0  0
  4 24  1  0  0  0  0
  4 32  1  0  0  0  0
  5 27  2  0  0  0  0
  6 27  1  0  0  0  0
  7 28  2  0  0  0  0
  8 40  1  0  0  0  0
  8 46  1  0  0  0  0
  9 10  1  0  0  0  0
  9 14  1  0  0  0  0
  9 17  1  0  0  0  0
 10 22  2  0  0  0  0
 11 17  1  0  0  0  0
 11 18  2  0  0  0  0
 12 21  1  0  0  0  0
 12 31  1  0  0  0  0
 12 33  1  0  0  0  0
 13 28  1  0  0  0  0
 13 34  1  0  0  0  0
 14 15  2  0  0  0  0
 14 16  1  0  0  0  0
 15 18  1  0  0  0  0
 15 20  1  0  0  0  0
 16 19  2  0  0  0  0
 16 25  1  0  0  0  0
 17 23  2  0  0  0  0
 18 29  1  0  0  0  0
 19 21  1  0  0  0  0
 20 27  1  0  0  0  0
 21 24  2  0  0  0  0
 22 23  1  0  0  0  0
 22 28  1  0  0  0  0
 24 26  1  0  0  0  0
 25 26  2  0  0  0  0
 30 35  1  0  0  0  0
 30 36  1  0  0  0  0
 30 37  1  0  0  0  0
 31 32  1  0  0  0  0
 33 38  1  0  0  0  0
 34 39  1  0  0  0  0
 38 44  2  0  0  0  0
 39 40  2  0  0  0  0
 39 41  1  0  0  0  0
 40 42  1  0  0  0  0
 41 45  2  0  0  0  0
 42 43  2  0  0  0  0
 43 45  1  0  0  0  0
 46 47  1  0  0  0  0
 47 48  2  0  0  0  0
M  END
> <PUBCHEM_COMPOUND_ID_TYPE>
0

> <PUBCHEM_TOTAL_CHARGE>
0

> <PUBCHEM_SUBSTANCE_ID>
310936973

> <PUBCHEM_SUBSTANCE_VERSION>
1

> <PUBCHEM_EXT_DATASOURCE_NAME>
4488

> <PUBCHEM_EXT_DATASOURCE_REGID>
SCHEMBL16114676

> <PUBCHEM_SUBSTANCE_COMMENT>
InChI=1S/C35H37ClFN5O6/c1-7-13-41-14-16-47-25-12-11-23(29(36)31(25)41)30-28(32(34(44)45)48-35(4,5)6)20(3)39-27-18-24(40-42(27)30)33(43)38-19-21-9-10-22(37)17-26(21)46-15-8-2/h7-12,17-18,32H,1-2,13-16,19H2,3-6H3,(H,38,43)(H,44,45)
InChIKey=ZFRCEEARXKYOCL-UHFFFAOYSA-N

> <PUBCHEM_SUBSTANCE_SYNONYM>
SCHEMBL16114676

> <PUBCHEM_XREF_EXT_ID>
SCHEMBL16114676

> <PUBCHEM_EXT_DATASOURCE_URL>
https://www.surechembl.org/

> <PUBCHEM_EXT_SUBSTANCE_URL>
https://www.surechembl.org/chemical/SCHEMBL16114676

> <PUBCHEM_CID_ASSOCIATIONS>
117604839  1

> <PUBCHEM_COORDINATE_TYPE>
1
3

$$$$
