310935595
  -OEChem-07211613022D

 24 26  0     1  0  0  0  0  0999 V2000
    3.6194   -1.4965    0.0000 O   0  0  0  0  0  0  0  0  0  0  0  0
    3.6194   -0.1740    0.0000 O   0  0  0  0  0  0  0  0  0  0  0  0
    1.4269   -5.3247    0.0000 O   0  0  0  0  0  0  0  0  0  0  0  0
    0.0000   -5.3247    0.0000 O   0  0  0  0  0  0  0  0  0  0  0  0
    0.7308   -2.4709    0.0000 N   0  0  0  0  0  0  0  0  0  0  0  0
    0.7308   -4.1066    0.0000 N   0  0  0  0  0  0  0  0  0  0  0  0
    1.4269   -1.2529    0.0000 C   0  0  0  0  0  0  0  0  0  0  0  0
    2.8190   -1.2529    0.0000 C   0  0  0  0  0  0  0  0  0  0  0  0
    0.7308   -1.6705    0.0000 C   0  0  3  0  0  0  0  0  0  0  0  0
    2.8538   -0.4176    0.0000 C   0  0  0  0  0  0  0  0  0  0  0  0
    2.1229   -1.6357    0.0000 C   0  0  0  0  0  0  0  0  0  0  0  0
    1.4269   -0.3828    0.0000 C   0  0  0  0  0  0  0  0  0  0  0  0
    2.1229    0.0000    0.0000 C   0  0  0  0  0  0  0  0  0  0  0  0
    0.0000   -2.8886    0.0000 C   0  0  0  0  0  0  0  0  0  0  0  0
    1.4269   -2.8886    0.0000 C   0  0  0  0  0  0  0  0  0  0  0  0
    0.7308   -4.9419    0.0000 C   0  0  0  0  0  0  0  0  0  0  0  0
    1.4269   -3.7238    0.0000 C   0  0  0  0  0  0  0  0  0  0  0  0
    0.0000   -3.7238    0.0000 C   0  0  0  0  0  0  0  0  0  0  0  0
    4.1066   -0.8352    0.0000 C   0  0  0  0  0  0  0  0  0  0  0  0
    1.4269   -6.1599    0.0000 C   0  0  0  0  0  0  0  0  0  0  0  0
    0.0000   -1.2529    0.0000 C   0  0  0  0  0  0  0  0  0  0  0  0
    0.5916   -6.1599    0.0000 C   0  0  0  0  0  0  0  0  0  0  0  0
    1.4269   -6.9604    0.0000 C   0  0  0  0  0  0  0  0  0  0  0  0
    2.2273   -6.1599    0.0000 C   0  0  0  0  0  0  0  0  0  0  0  0
  1  8  1  0  0  0  0
  1 19  1  0  0  0  0
  2 10  1  0  0  0  0
  2 19  1  0  0  0  0
  3 16  1  0  0  0  0
  3 20  1  0  0  0  0
  4 16  2  0  0  0  0
  5  9  1  0  0  0  0
  5 14  1  0  0  0  0
  5 15  1  0  0  0  0
  6 16  1  0  0  0  0
  6 17  1  0  0  0  0
  6 18  1  0  0  0  0
  7  9  1  0  0  0  0
  7 11  2  0  0  0  0
  7 12  1  0  0  0  0
  8 10  2  0  0  0  0
  8 11  1  0  0  0  0
  9 21  1  0  0  0  0
 10 13  1  0  0  0  0
 12 13  2  0  0  0  0
 14 18  1  0  0  0  0
 15 17  1  0  0  0  0
 20 22  1  0  0  0  0
 20 23  1  0  0  0  0
 20 24  1  0  0  0  0
M  END
> <PUBCHEM_COMPOUND_ID_TYPE>
0

> <PUBCHEM_TOTAL_CHARGE>
0

> <PUBCHEM_SUBSTANCE_ID>
310935595

> <PUBCHEM_SUBSTANCE_VERSION>
1

> <PUBCHEM_EXT_DATASOURCE_NAME>
4488

> <PUBCHEM_EXT_DATASOURCE_REGID>
SCHEMBL16113168

> <PUBCHEM_SUBSTANCE_COMMENT>
InChI=1S/C18H26N2O4/c1-13(14-5-6-15-16(11-14)23-12-22-15)19-7-9-20(10-8-19)17(21)24-18(2,3)4/h5-6,11,13H,7-10,12H2,1-4H3
InChIKey=QMZHGEJVLRAESE-UHFFFAOYSA-N

> <PUBCHEM_SUBSTANCE_SYNONYM>
SCHEMBL16113168

> <PUBCHEM_XREF_EXT_ID>
SCHEMBL16113168

> <PUBCHEM_EXT_DATASOURCE_URL>
https://www.surechembl.org/

> <PUBCHEM_EXT_SUBSTANCE_URL>
https://www.surechembl.org/chemical/SCHEMBL16113168

> <PUBCHEM_CID_ASSOCIATIONS>
117603616  1

> <PUBCHEM_COORDINATE_TYPE>
1
3

$$$$
