310940280
  -OEChem-07211613022D

 36 38  0     1  0  0  0  0  0999 V2000
    4.6143   -0.4115    0.0000 Cl  0  0  0  0  0  0  0  0  0  0  0  0
    2.0279   -1.9104    0.0000 Cl  0  0  0  0  0  0  0  0  0  0  0  0
    5.4666   -1.8810    0.0000 F   0  0  0  0  0  0  0  0  0  0  0  0
    3.3799    0.3233    0.0000 O   0  0  0  0  0  0  0  0  0  0  0  0
   -3.7326   -0.1470    0.0000 O   0  0  0  0  0  0  0  0  0  0  0  0
   -0.3820    1.2344    0.0000 N   0  0  0  0  0  0  0  0  0  0  0  0
   -0.4702    2.0868    0.0000 N   0  0  0  0  0  0  0  0  0  0  0  0
   -2.1161   -0.5878    0.0000 N   0  0  0  0  0  0  0  0  0  0  0  0
   -4.0853   -1.5577    0.0000 N   0  0  0  0  0  0  0  0  0  0  0  0
    3.3505   -1.1462    0.0000 C   0  0  0  0  0  0  0  0  0  0  0  0
    4.2029   -1.1756    0.0000 C   0  0  0  0  0  0  0  0  0  0  0  0
    0.8817    1.8222    0.0000 C   0  0  0  0  0  0  0  0  0  0  0  0
    2.9685   -0.4409    0.0000 C   0  0  3  0  0  0  0  0  0  0  0  0
    2.9978   -1.9104    0.0000 C   0  0  0  0  0  0  0  0  0  0  0  0
   -0.9405    0.5878    0.0000 C   0  0  0  0  0  0  0  0  0  0  0  0
    1.7046    1.7928    0.0000 C   0  0  0  0  0  0  0  0  0  0  0  0
    4.5849   -1.9104    0.0000 C   0  0  0  0  0  0  0  0  0  0  0  0
    0.4409    1.0581    0.0000 C   0  0  0  0  0  0  0  0  0  0  0  0
    2.9390    1.0287    0.0000 C   0  0  0  0  0  0  0  0  0  0  0  0
    0.3233    2.3806    0.0000 C   0  0  0  0  0  0  0  0  0  0  0  0
    3.4093   -2.6158    0.0000 C   0  0  0  0  0  0  0  0  0  0  0  0
    2.1161    1.0874    0.0000 C   0  0  0  0  0  0  0  0  0  0  0  0
    4.2029   -2.6158    0.0000 C   0  0  0  0  0  0  0  0  0  0  0  0
   -0.7642   -0.2352    0.0000 C   0  0  0  0  0  0  0  0  0  0  0  0
   -1.7634    0.8229    0.0000 C   0  0  0  0  0  0  0  0  0  0  0  0
    2.1455    2.5276    0.0000 C   0  0  0  0  0  0  0  0  0  0  0  0
   -1.2932   -0.7935    0.0000 C   0  0  0  0  0  0  0  0  0  0  0  0
   -2.2925    0.2645    0.0000 C   0  0  0  0  0  0  0  0  0  0  0  0
    2.1455   -0.4702    0.0000 C   0  0  0  0  0  0  0  0  0  0  0  0
    3.3505    1.8222    0.0000 C   0  0  0  0  0  0  0  0  0  0  0  0
   -2.7333   -1.2050    0.0000 C   0  0  0  0  0  0  0  0  0  0  0  0
   -3.4975   -0.9992    0.0000 C   0  0  0  0  0  0  0  0  0  0  0  0
    2.7040    2.4688    0.0000 C   0  0  0  0  0  0  0  0  0  0  0  0
    2.9978    2.6158    0.0000 C   0  0  0  0  0  0  0  0  0  0  0  0
   -4.8788   -1.3814    0.0000 C   0  0  0  0  0  0  0  0  0  0  0  0
   -5.4666   -1.9986    0.0000 C   0  0  0  0  0  0  0  0  0  0  0  0
  1 11  1  0  0  0  0
  2 14  1  0  0  0  0
  3 17  1  0  0  0  0
  4 13  1  0  0  0  0
  4 19  1  0  0  0  0
  5 32  2  0  0  0  0
  6  7  1  0  0  0  0
  6 15  1  0  0  0  0
  6 18  1  0  0  0  0
  7 20  2  0  0  0  0
  8 27  1  0  0  0  0
  8 28  1  0  0  0  0
  8 31  1  0  0  0  0
  9 32  1  0  0  0  0
  9 35  1  0  0  0  0
 10 11  2  0  0  0  0
 10 13  1  0  0  0  0
 10 14  1  0  0  0  0
 11 17  1  0  0  0  0
 12 16  1  0  0  0  0
 12 18  2  0  0  0  0
 12 20  1  0  0  0  0
 13 29  1  0  0  0  0
 14 21  2  0  0  0  0
 15 24  1  0  0  0  0
 15 25  1  0  0  0  0
 16 22  2  0  0  0  0
 16 26  1  0  0  0  0
 17 23  2  0  0  0  0
 19 22  1  0  0  0  0
 19 30  2  0  0  0  0
 21 23  1  0  0  0  0
 24 27  1  0  0  0  0
 25 28  1  0  0  0  0
 26 33  2  0  0  0  0
 30 34  1  0  0  0  0
 31 32  1  0  0  0  0
 35 36  1  0  0  0  0
M  END
> <PUBCHEM_COMPOUND_ID_TYPE>
0

> <PUBCHEM_TOTAL_CHARGE>
0

> <PUBCHEM_SUBSTANCE_ID>
310940280

> <PUBCHEM_SUBSTANCE_VERSION>
1

> <PUBCHEM_EXT_DATASOURCE_NAME>
4488

> <PUBCHEM_EXT_DATASOURCE_REGID>
SCHEMBL16118223

> <PUBCHEM_SUBSTANCE_COMMENT>
InChI=1S/C27H33Cl2FN4O2/c1-5-19(14-22(6-2)36-18(4)26-23(28)8-9-24(30)27(26)29)20-15-32-34(16-20)21-10-12-33(13-11-21)17-25(35)31-7-3/h5-6,8-9,14-16,18,21H,1,7,10-13,17H2,2-4H3,(H,31,35)/b19-14+,22-6+
InChIKey=VLHJBQLPQYRRQN-RCWUSPFDSA-N

> <PUBCHEM_SUBSTANCE_SYNONYM>
SCHEMBL16118223

> <PUBCHEM_XREF_EXT_ID>
SCHEMBL16118223

> <PUBCHEM_EXT_DATASOURCE_URL>
https://www.surechembl.org/

> <PUBCHEM_EXT_SUBSTANCE_URL>
https://www.surechembl.org/chemical/SCHEMBL16118223

> <PUBCHEM_CID_ASSOCIATIONS>
117607363  1

> <PUBCHEM_COORDINATE_TYPE>
1
3

$$$$
