310932562
  -OEChem-07211613022D

 25 28  0     1  0  0  0  0  0999 V2000
    3.2779    0.0000    0.0000 O   0  0  0  0  0  0  0  0  0  0  0  0
    4.3977   -1.9545    0.0000 O   0  0  0  0  0  0  0  0  0  0  0  0
    5.1103   -0.7126    0.0000 O   0  0  0  0  0  0  0  0  0  0  0  0
    0.0000   -2.3617    0.0000 O   0  0  0  0  0  0  0  0  0  0  0  0
    3.6851   -0.7126    0.0000 C   0  0  3  0  0  0  0  0  0  0  0  0
    2.8707   -0.7126    0.0000 C   0  0  3  0  0  0  0  0  0  0  0  0
    3.4611   -1.5269    0.0000 C   0  0  0  0  0  0  0  0  0  0  0  0
    4.3977   -1.1402    0.0000 C   0  0  0  0  0  0  0  0  0  0  0  0
    2.1378   -1.1402    0.0000 C   0  0  0  0  0  0  0  0  0  0  0  0
    4.0516   -2.1174    0.0000 C   0  0  0  0  0  0  0  0  0  0  0  0
    2.6875   -1.7306    0.0000 C   0  0  0  0  0  0  0  0  0  0  0  0
    2.1378   -1.9545    0.0000 C   0  0  0  0  0  0  0  0  0  0  0  0
    1.4252   -0.7329    0.0000 C   0  0  0  0  0  0  0  0  0  0  0  0
    5.1103   -2.3617    0.0000 C   0  0  0  0  0  0  0  0  0  0  0  0
    3.8480   -2.8910    0.0000 C   0  0  0  0  0  0  0  0  0  0  0  0
    2.4635   -2.5246    0.0000 C   0  0  0  0  0  0  0  0  0  0  0  0
    3.0336   -3.1150    0.0000 C   0  0  0  0  0  0  0  0  0  0  0  0
    1.4252   -2.3821    0.0000 C   0  0  0  0  0  0  0  0  0  0  0  0
    0.7126   -1.1402    0.0000 C   0  0  0  0  0  0  0  0  0  0  0  0
    0.7126   -1.9545    0.0000 C   0  0  0  0  0  0  0  0  0  0  0  0
    5.8839   -2.1581    0.0000 C   0  0  0  0  0  0  0  0  0  0  0  0
    5.3138   -3.1761    0.0000 C   0  0  0  0  0  0  0  0  0  0  0  0
    6.1079   -2.9521    0.0000 C   0  0  0  0  0  0  0  0  0  0  0  0
    2.8300   -3.9090    0.0000 C   0  0  0  0  0  0  0  0  0  0  0  0
    0.0000   -3.1965    0.0000 C   0  0  0  0  0  0  0  0  0  0  0  0
  1  5  1  0  0  0  0
  1  6  1  0  0  0  0
  2  8  1  0  0  0  0
  2 14  1  0  0  0  0
  3  8  2  0  0  0  0
  4 20  1  0  0  0  0
  4 25  1  0  0  0  0
  5  6  1  0  0  0  0
  5  7  1  0  0  0  0
  5  8  1  0  0  0  0
  6  9  1  0  0  0  0
  7 10  2  0  0  0  0
  7 11  1  0  0  0  0
  9 12  2  0  0  0  0
  9 13  1  0  0  0  0
 10 15  1  0  0  0  0
 11 16  2  0  0  0  0
 12 18  1  0  0  0  0
 13 19  2  0  0  0  0
 14 21  1  0  0  0  0
 14 22  1  0  0  0  0
 15 17  2  0  0  0  0
 16 17  1  0  0  0  0
 17 24  1  0  0  0  0
 18 20  2  0  0  0  0
 19 20  1  0  0  0  0
 21 23  1  0  0  0  0
 22 23  1  0  0  0  0
M  END
> <PUBCHEM_COMPOUND_ID_TYPE>
0

> <PUBCHEM_TOTAL_CHARGE>
0

> <PUBCHEM_SUBSTANCE_ID>
310932562

> <PUBCHEM_SUBSTANCE_VERSION>
1

> <PUBCHEM_EXT_DATASOURCE_NAME>
4488

> <PUBCHEM_EXT_DATASOURCE_REGID>
SCHEMBL16109939

> <PUBCHEM_SUBSTANCE_COMMENT>
InChI=1S/C21H22O4/c1-14-6-10-16(11-7-14)21(20(22)24-18-4-3-5-18)19(25-21)15-8-12-17(23-2)13-9-15/h6-13,18-19H,3-5H2,1-2H3
InChIKey=IGNQHSHLDAFSRQ-UHFFFAOYSA-N

> <PUBCHEM_SUBSTANCE_SYNONYM>
SCHEMBL16109939

> <PUBCHEM_XREF_EXT_ID>
SCHEMBL16109939

> <PUBCHEM_EXT_DATASOURCE_URL>
https://www.surechembl.org/

> <PUBCHEM_EXT_SUBSTANCE_URL>
https://www.surechembl.org/chemical/SCHEMBL16109939

> <PUBCHEM_CID_ASSOCIATIONS>
117601085  1

> <PUBCHEM_COORDINATE_TYPE>
1
3

$$$$
