310934961
  -OEChem-07211613022D

 31 34  0     1  0  0  0  0  0999 V2000
   -2.0035   -0.3544    0.0000 F   0  0  0  0  0  0  0  0  0  0  0  0
    0.0032   -5.3493    0.0000 F   0  0  0  0  0  0  0  0  0  0  0  0
    1.2665   -0.6244    0.0000 O   0  0  0  0  0  0  0  0  0  0  0  0
   -1.6377   -5.1768    0.0000 O   0  0  0  0  0  0  0  0  0  0  0  0
    1.5636    0.7733    0.0000 O   0  0  0  0  0  0  0  0  0  0  0  0
   -1.4884   -3.7557    0.0000 N   0  0  0  0  0  0  0  0  0  0  0  0
   -3.7636   -5.6718    0.0000 N   0  0  0  0  0  0  0  0  0  0  0  0
    0.7145   -1.2375    0.0000 C   0  0  3  0  0  0  0  0  0  0  0  0
    0.1624   -0.6244    0.0000 C   0  0  0  0  0  0  0  0  0  0  0  0
    0.3020   -2.5070    0.0000 C   0  0  3  0  0  0  0  0  0  0  0  0
    0.0470   -1.7224    0.0000 C   0  0  0  0  0  0  0  0  0  0  0  0
    1.3819   -1.7224    0.0000 C   0  0  0  0  0  0  0  0  0  0  0  0
   -0.6445   -0.7959    0.0000 C   0  0  0  0  0  0  0  0  0  0  0  0
   -0.1830   -3.1745    0.0000 C   0  0  0  0  0  0  0  0  0  0  0  0
    1.1270   -2.5070    0.0000 C   0  0  0  0  0  0  0  0  0  0  0  0
    0.4174    0.1602    0.0000 C   0  0  0  0  0  0  0  0  0  0  0  0
   -1.1966   -0.1828    0.0000 C   0  0  0  0  0  0  0  0  0  0  0  0
    0.1526   -3.9282    0.0000 C   0  0  0  0  0  0  0  0  0  0  0  0
   -1.0034   -3.0882    0.0000 C   0  0  0  0  0  0  0  0  0  0  0  0
   -0.3323   -4.5956    0.0000 C   0  0  0  0  0  0  0  0  0  0  0  0
   -1.1528   -4.5094    0.0000 C   0  0  0  0  0  0  0  0  0  0  0  0
   -0.1347    0.7733    0.0000 C   0  0  0  0  0  0  0  0  0  0  0  0
   -0.9416    0.6018    0.0000 C   0  0  0  0  0  0  0  0  0  0  0  0
    1.0116    0.1602    0.0000 C   0  0  0  0  0  0  0  0  0  0  0  0
   -0.8995   -1.5806    0.0000 C   0  0  0  0  0  0  0  0  0  0  0  0
   -2.4582   -5.0906    0.0000 C   0  0  0  0  0  0  0  0  0  0  0  0
   -2.9431   -5.7580    0.0000 C   0  0  0  0  0  0  0  0  0  0  0  0
   -4.3156   -6.2849    0.0000 C   0  0  0  0  0  0  0  0  0  0  0  0
   -4.1761   -4.9573    0.0000 C   0  0  0  0  0  0  0  0  0  0  0  0
   -5.0693   -5.9493    0.0000 C   0  0  0  0  0  0  0  0  0  0  0  0
   -4.9831   -5.1288    0.0000 C   0  0  0  0  0  0  0  0  0  0  0  0
  1 17  1  0  0  0  0
  2 20  1  0  0  0  0
  3  8  1  0  0  0  0
  3 24  1  0  0  0  0
  4 21  1  0  0  0  0
  4 26  1  0  0  0  0
  5 24  2  0  0  0  0
  6 19  2  0  0  0  0
  6 21  1  0  0  0  0
  7 27  1  0  0  0  0
  7 28  1  0  0  0  0
  7 29  1  0  0  0  0
  8  9  1  0  0  0  0
  8 11  1  0  0  0  0
  8 12  1  0  0  0  0
  9 13  2  0  0  0  0
  9 16  1  0  0  0  0
 10 11  1  0  0  0  0
 10 14  1  0  0  0  0
 10 15  1  0  0  0  0
 12 15  1  0  0  0  0
 13 17  1  0  0  0  0
 13 25  1  0  0  0  0
 14 18  2  0  0  0  0
 14 19  1  0  0  0  0
 16 22  2  0  0  0  0
 17 23  2  0  0  0  0
 18 20  1  0  0  0  0
 20 21  2  0  0  0  0
 22 23  1  0  0  0  0
 26 27  1  0  0  0  0
 28 30  1  0  0  0  0
 29 31  1  0  0  0  0
 30 31  1  0  0  0  0
M  END
> <PUBCHEM_COMPOUND_ID_TYPE>
0

> <PUBCHEM_TOTAL_CHARGE>
0

> <PUBCHEM_SUBSTANCE_ID>
310934961

> <PUBCHEM_SUBSTANCE_VERSION>
1

> <PUBCHEM_EXT_DATASOURCE_NAME>
4488

> <PUBCHEM_EXT_DATASOURCE_REGID>
SCHEMBL16112477

> <PUBCHEM_SUBSTANCE_COMMENT>
InChI=1S/C24H28F2N2O3/c1-17-20(5-4-6-21(17)25)24(31-16-29)8-7-18(14-24)19-13-22(26)23(27-15-19)30-12-11-28-9-2-3-10-28/h4-6,13,15-16,18H,2-3,7-12,14H2,1H3
InChIKey=LTJHZTMTUDRMRZ-UHFFFAOYSA-N

> <PUBCHEM_SUBSTANCE_SYNONYM>
SCHEMBL16112477

> <PUBCHEM_XREF_EXT_ID>
SCHEMBL16112477

> <PUBCHEM_EXT_DATASOURCE_URL>
https://www.surechembl.org/

> <PUBCHEM_EXT_SUBSTANCE_URL>
https://www.surechembl.org/chemical/SCHEMBL16112477

> <PUBCHEM_CID_ASSOCIATIONS>
117603081  1

> <PUBCHEM_COORDINATE_TYPE>
1
3

$$$$
