310945835
  -OEChem-07211613022D

 43 47  0     1  0  0  0  0  0999 V2000
    5.4627    0.9932    0.0000 O   0  0  0  0  0  0  0  0  0  0  0  0
    4.3256   -0.9788    0.0000 O   0  0  0  0  0  0  0  0  0  0  0  0
    1.9505    0.9789    0.0000 O   0  0  0  0  0  0  0  0  0  0  0  0
   -2.3535    0.9789    0.0000 O   0  0  0  0  0  0  0  0  0  0  0  0
   -0.2087   -1.1084    0.0000 O   0  0  0  0  0  0  0  0  0  0  0  0
    4.1096   -2.7781    0.0000 O   0  0  0  0  0  0  0  0  0  0  0  0
    2.6846   -0.2879    0.0000 N   0  0  0  0  0  0  0  0  0  0  0  0
    0.5254    0.1295    0.0000 N   0  0  0  0  0  0  0  0  0  0  0  0
   -5.3044   -1.3819    0.0000 N   0  0  0  0  0  0  0  0  0  0  0  0
   -1.6338   -0.2879    0.0000 N   0  0  0  0  0  0  0  0  0  0  0  0
   -5.7938   -0.7054    0.0000 N   0  0  0  0  0  0  0  0  0  0  0  0
    5.0597    0.3023    0.0000 C   0  0  3  0  0  0  0  0  0  0  0  0
    4.3400   -0.1008    0.0000 C   0  0  0  0  0  0  0  0  0  0  0  0
    4.6567    0.9932    0.0000 C   0  0  0  0  0  0  0  0  0  0  0  0
    3.6202    0.2879    0.0000 C   0  0  3  0  0  0  0  0  0  0  0  0
    5.7938   -0.1295    0.0000 C   0  0  0  0  0  0  0  0  0  0  0  0
    3.6202    1.3531    0.0000 C   0  0  0  0  0  0  0  0  0  0  0  0
    1.9505    0.1440    0.0000 C   0  0  0  0  0  0  0  0  0  0  0  0
    1.2451   -0.2447    0.0000 C   0  0  3  0  0  0  0  0  0  0  0  0
    2.8861    1.7993    0.0000 C   0  0  0  0  0  0  0  0  0  0  0  0
   -4.4983   -0.2447    0.0000 C   0  0  0  0  0  0  0  0  0  0  0  0
   -4.5127   -1.0796    0.0000 C   0  0  0  0  0  0  0  0  0  0  0  0
   -3.0732   -0.2447    0.0000 C   0  0  3  0  0  0  0  0  0  0  0  0
   -3.8073    0.1440    0.0000 C   0  0  0  0  0  0  0  0  0  0  0  0
   -2.3535    0.1440    0.0000 C   0  0  0  0  0  0  0  0  0  0  0  0
    1.2451   -1.0940    0.0000 C   0  0  0  0  0  0  0  0  0  0  0  0
   -0.1943   -0.2303    0.0000 C   0  0  0  0  0  0  0  0  0  0  0  0
   -3.7786   -1.4970    0.0000 C   0  0  0  0  0  0  0  0  0  0  0  0
   -3.0732   -1.0796    0.0000 C   0  0  0  0  0  0  0  0  0  0  0  0
   -0.9140    0.1583    0.0000 C   0  0  3  0  0  0  0  0  0  0  0  0
   -5.3044    0.0000    0.0000 C   0  0  0  0  0  0  0  0  0  0  0  0
    1.9649   -1.4970    0.0000 C   0  0  0  0  0  0  0  0  0  0  0  0
    2.1520    1.4538    0.0000 C   0  0  0  0  0  0  0  0  0  0  0  0
    2.7998    2.6198    0.0000 C   0  0  0  0  0  0  0  0  0  0  0  0
    1.5906    2.0729    0.0000 C   0  0  0  0  0  0  0  0  0  0  0  0
    2.0080    2.7781    0.0000 C   0  0  0  0  0  0  0  0  0  0  0  0
    1.9792   -2.3463    0.0000 C   0  0  0  0  0  0  0  0  0  0  0  0
    2.6702   -1.0940    0.0000 C   0  0  0  0  0  0  0  0  0  0  0  0
    3.3899   -2.3319    0.0000 C   0  0  0  0  0  0  0  0  0  0  0  0
    2.6846   -2.7494    0.0000 C   0  0  0  0  0  0  0  0  0  0  0  0
    3.4043   -1.5114    0.0000 C   0  0  0  0  0  0  0  0  0  0  0  0
   -0.8997    1.0077    0.0000 C   0  0  0  0  0  0  0  0  0  0  0  0
    4.8294   -2.3319    0.0000 C   0  0  0  0  0  0  0  0  0  0  0  0
  1 12  1  0  0  0  0
  1 14  1  0  0  0  0
  2 13  2  0  0  0  0
  3 18  2  0  0  0  0
  4 25  2  0  0  0  0
  5 27  2  0  0  0  0
  6 39  1  0  0  0  0
  6 43  1  0  0  0  0
  7 15  1  0  0  0  0
  7 18  1  0  0  0  0
  8 19  1  0  0  0  0
  8 27  1  0  0  0  0
  9 11  1  0  0  0  0
  9 22  1  0  0  0  0
 10 25  1  0  0  0  0
 10 30  1  0  0  0  0
 11 31  2  0  0  0  0
 12 13  1  0  0  0  0
 12 14  1  0  0  0  0
 12 16  1  0  0  0  0
 13 15  1  0  0  0  0
 15 17  1  0  0  0  0
 17 20  1  0  0  0  0
 18 19  1  0  0  0  0
 19 26  1  0  0  0  0
 20 33  1  0  0  0  0
 20 34  1  0  0  0  0
 21 22  2  0  0  0  0
 21 24  1  0  0  0  0
 21 31  1  0  0  0  0
 22 28  1  0  0  0  0
 23 24  1  0  0  0  0
 23 25  1  0  0  0  0
 23 29  1  0  0  0  0
 26 32  1  0  0  0  0
 27 30  1  0  0  0  0
 28 29  1  0  0  0  0
 30 42  1  0  0  0  0
 32 37  2  0  0  0  0
 32 38  1  0  0  0  0
 33 35  1  0  0  0  0
 34 36  1  0  0  0  0
 35 36  1  0  0  0  0
 37 40  1  0  0  0  0
 38 41  2  0  0  0  0
 39 40  2  0  0  0  0
 39 41  1  0  0  0  0
M  END
> <PUBCHEM_COMPOUND_ID_TYPE>
0

> <PUBCHEM_TOTAL_CHARGE>
0

> <PUBCHEM_SUBSTANCE_ID>
310945835

> <PUBCHEM_SUBSTANCE_VERSION>
1

> <PUBCHEM_EXT_DATASOURCE_NAME>
4488

> <PUBCHEM_EXT_DATASOURCE_REGID>
SCHEMBL16123940

> <PUBCHEM_SUBSTANCE_COMMENT>
InChI=1S/C32H43N5O6/c1-19(34-30(40)22-10-13-25-23(16-22)17-33-37-25)29(39)36-27(15-21-8-11-24(42-3)12-9-21)31(41)35-26(14-20-6-4-5-7-20)28(38)32(2)18-43-32/h8-9,11-12,17,19-20,22,26-27H,4-7,10,13-16,18H2,1-3H3,(H,33,37)(H,34,40)(H,35,41)(H,36,39)
InChIKey=ZDBCVOCALPOFFY-UHFFFAOYSA-N

> <PUBCHEM_SUBSTANCE_SYNONYM>
SCHEMBL16123940

> <PUBCHEM_XREF_EXT_ID>
SCHEMBL16123940

> <PUBCHEM_EXT_DATASOURCE_URL>
https://www.surechembl.org/

> <PUBCHEM_EXT_SUBSTANCE_URL>
https://www.surechembl.org/chemical/SCHEMBL16123940

> <PUBCHEM_CID_ASSOCIATIONS>
117611821  1

> <PUBCHEM_COORDINATE_TYPE>
1
3

$$$$
