310936288
  -OEChem-07211613022D

 26 27  0     1  0  0  0  0  0999 V2000
    0.8250   -1.4224    0.0000 Cl  0  0  0  0  0  0  0  0  0  0  0  0
    0.0000   -2.8449    0.0000 Cl  0  0  0  0  0  0  0  0  0  0  0  0
    4.4949   -3.5276    0.0000 O   0  0  0  0  0  0  0  0  0  0  0  0
    4.4949   -4.9785    0.0000 O   0  0  0  0  0  0  0  0  0  0  0  0
    5.7181   -1.4224    0.0000 O   0  0  0  0  0  0  0  0  0  0  0  0
    4.4949   -0.7112    0.0000 O   0  0  0  0  0  0  0  0  0  0  0  0
    3.2716   -5.6612    0.0000 N   0  0  0  0  0  0  0  0  0  0  0  0
    4.4949   -2.1336    0.0000 N   0  0  0  0  0  0  0  0  0  0  0  0
    3.2716   -2.8449    0.0000 C   0  0  3  0  0  0  0  0  0  0  0  0
    3.6983   -3.5276    0.0000 C   0  0  3  0  0  0  0  0  0  0  0  0
    2.4466   -2.8449    0.0000 C   0  0  0  0  0  0  0  0  0  0  0  0
    3.2716   -4.2388    0.0000 C   0  0  0  0  0  0  0  0  0  0  0  0
    3.6699   -4.9785    0.0000 C   0  0  0  0  0  0  0  0  0  0  0  0
    2.0483   -2.1336    0.0000 C   0  0  0  0  0  0  0  0  0  0  0  0
    1.2233   -2.1336    0.0000 C   0  0  0  0  0  0  0  0  0  0  0  0
    2.0483   -3.5561    0.0000 C   0  0  0  0  0  0  0  0  0  0  0  0
    3.6983   -2.1336    0.0000 C   0  0  0  0  0  0  0  0  0  0  0  0
    0.8250   -2.8449    0.0000 C   0  0  0  0  0  0  0  0  0  0  0  0
    2.4466   -4.2673    0.0000 C   0  0  0  0  0  0  0  0  0  0  0  0
    1.2233   -3.5561    0.0000 C   0  0  0  0  0  0  0  0  0  0  0  0
    2.0483   -4.9785    0.0000 C   0  0  0  0  0  0  0  0  0  0  0  0
    2.4466   -5.6897    0.0000 C   0  0  0  0  0  0  0  0  0  0  0  0
    4.9216   -1.4224    0.0000 C   0  0  0  0  0  0  0  0  0  0  0  0
    4.8931   -4.2673    0.0000 C   0  0  0  0  0  0  0  0  0  0  0  0
    6.1449   -0.7112    0.0000 C   0  0  0  0  0  0  0  0  0  0  0  0
    5.7181    0.0000    0.0000 C   0  0  0  0  0  0  0  0  0  0  0  0
  1 15  1  0  0  0  0
  2 18  1  0  0  0  0
  3 10  1  0  0  0  0
  4 13  1  0  0  0  0
  4 24  1  0  0  0  0
  5 23  1  0  0  0  0
  5 25  1  0  0  0  0
  6 23  2  0  0  0  0
  7 13  1  0  0  0  0
  7 22  2  0  0  0  0
  8 17  1  0  0  0  0
  8 23  1  0  0  0  0
  9 10  1  0  0  0  0
  9 11  1  0  0  0  0
  9 17  1  0  0  0  0
 10 12  1  0  0  0  0
 11 14  1  0  0  0  0
 11 16  2  0  0  0  0
 12 13  2  0  0  0  0
 12 19  1  0  0  0  0
 14 15  2  0  0  0  0
 15 18  1  0  0  0  0
 16 20  1  0  0  0  0
 18 20  2  0  0  0  0
 19 21  2  0  0  0  0
 21 22  1  0  0  0  0
 25 26  1  0  0  0  0
M  END
> <PUBCHEM_COMPOUND_ID_TYPE>
0

> <PUBCHEM_TOTAL_CHARGE>
0

> <PUBCHEM_SUBSTANCE_ID>
310936288

> <PUBCHEM_SUBSTANCE_VERSION>
1

> <PUBCHEM_EXT_DATASOURCE_NAME>
4488

> <PUBCHEM_EXT_DATASOURCE_REGID>
SCHEMBL16113909

> <PUBCHEM_SUBSTANCE_COMMENT>
InChI=1S/C18H20Cl2N2O4/c1-3-26-18(24)22-10-13(11-6-7-14(19)15(20)9-11)16(23)12-5-4-8-21-17(12)25-2/h4-9,13,16,23H,3,10H2,1-2H3,(H,22,24)
InChIKey=MPSLQALCXIBYNU-UHFFFAOYSA-N

> <PUBCHEM_SUBSTANCE_SYNONYM>
SCHEMBL16113909

> <PUBCHEM_XREF_EXT_ID>
SCHEMBL16113909

> <PUBCHEM_EXT_DATASOURCE_URL>
https://www.surechembl.org/

> <PUBCHEM_EXT_SUBSTANCE_URL>
https://www.surechembl.org/chemical/SCHEMBL16113909

> <PUBCHEM_CID_ASSOCIATIONS>
117604231  1

> <PUBCHEM_COORDINATE_TYPE>
1
3

$$$$
