310946871
  -OEChem-07211613022D

 35 38  0     1  0  0  0  0  0999 V2000
    1.9774   -2.1878    0.0000 S   0  0  0  0  0  0  0  0  0  0  0  0
   -3.0545   -1.7334    0.0000 O   0  0  0  0  0  0  0  0  0  0  0  0
    0.1094    2.2719    0.0000 O   0  0  0  0  0  0  0  0  0  0  0  0
    1.8091   -2.9956    0.0000 O   0  0  0  0  0  0  0  0  0  0  0  0
    2.7852   -2.3561    0.0000 O   0  0  0  0  0  0  0  0  0  0  0  0
   -1.5398    0.6059    0.0000 N   0  0  0  0  0  0  0  0  0  0  0  0
   -1.0518   -0.0673    0.0000 N   0  0  0  0  0  0  0  0  0  0  0  0
   -1.2706   -1.5146    0.0000 N   0  0  0  0  0  0  0  0  0  0  0  0
   -3.7781   -0.4880    0.0000 N   0  0  0  0  0  0  0  0  0  0  0  0
    2.1457   -1.3800    0.0000 N   0  0  3  0  0  0  0  0  0  0  0  0
   -2.7347    2.9956    0.0000 N   0  0  0  0  0  0  0  0  0  0  0  0
   -2.3309    0.3534    0.0000 C   0  0  0  0  0  0  0  0  0  0  0  0
   -1.3043    1.3968    0.0000 C   0  0  0  0  0  0  0  0  0  0  0  0
   -2.3476   -0.4712    0.0000 C   0  0  0  0  0  0  0  0  0  0  0  0
   -1.5398   -0.7237    0.0000 C   0  0  0  0  0  0  0  0  0  0  0  0
   -3.0545   -0.8751    0.0000 C   0  0  0  0  0  0  0  0  0  0  0  0
   -3.0713    0.7573    0.0000 C   0  0  0  0  0  0  0  0  0  0  0  0
   -1.3211    2.2383    0.0000 C   0  0  0  0  0  0  0  0  0  0  0  0
   -0.5133    1.0097    0.0000 C   0  0  0  0  0  0  0  0  0  0  0  0
   -2.1121    1.5146    0.0000 C   0  0  0  0  0  0  0  0  0  0  0  0
   -0.4628   -1.6829    0.0000 C   0  0  0  0  0  0  0  0  0  0  0  0
    1.1528   -2.0027    0.0000 C   0  0  0  0  0  0  0  0  0  0  0  0
   -3.7445    0.3534    0.0000 C   0  0  0  0  0  0  0  0  0  0  0  0
   -0.6311    2.6590    0.0000 C   0  0  0  0  0  0  0  0  0  0  0  0
    0.1599    1.4641    0.0000 C   0  0  0  0  0  0  0  0  0  0  0  0
    2.9535   -1.1612    0.0000 C   0  0  0  0  0  0  0  0  0  0  0  0
   -0.1767   -2.4739    0.0000 C   0  0  0  0  0  0  0  0  0  0  0  0
    0.0926   -1.0770    0.0000 C   0  0  0  0  0  0  0  0  0  0  0  0
    0.6142   -2.6254    0.0000 C   0  0  0  0  0  0  0  0  0  0  0  0
    0.9004   -1.2453    0.0000 C   0  0  0  0  0  0  0  0  0  0  0  0
   -2.4318    2.2719    0.0000 C   0  0  0  0  0  0  0  0  0  0  0  0
    1.5567   -0.8246    0.0000 C   0  0  0  0  0  0  0  0  0  0  0  0
    2.7516   -0.3534    0.0000 C   0  0  0  0  0  0  0  0  0  0  0  0
    3.7781   -0.9425    0.0000 C   0  0  0  0  0  0  0  0  0  0  0  0
    3.1891   -1.9858    0.0000 C   0  0  0  0  0  0  0  0  0  0  0  0
  1  4  2  0  0  0  0
  1  5  2  0  0  0  0
  1 10  1  0  0  0  0
  1 22  1  0  0  0  0
  2 16  2  0  0  0  0
  3 24  1  0  0  0  0
  3 25  1  0  0  0  0
  6  7  1  0  0  0  0
  6 12  1  0  0  0  0
  6 13  1  0  0  0  0
  7 15  2  0  0  0  0
  8 15  1  0  0  0  0
  8 21  1  0  0  0  0
  9 16  1  0  0  0  0
  9 23  1  0  0  0  0
 10 26  1  0  0  0  0
 10 32  1  0  0  0  0
 11 31  3  0  0  0  0
 12 14  2  0  0  0  0
 12 17  1  0  0  0  0
 13 18  1  0  0  0  0
 13 19  1  0  0  0  0
 13 20  1  0  0  0  0
 14 15  1  0  0  0  0
 14 16  1  0  0  0  0
 17 23  2  0  0  0  0
 18 24  1  0  0  0  0
 19 25  1  0  0  0  0
 20 31  1  0  0  0  0
 21 27  2  0  0  0  0
 21 28  1  0  0  0  0
 22 29  2  0  0  0  0
 22 30  1  0  0  0  0
 26 33  1  0  0  0  0
 26 34  1  0  0  0  0
 26 35  1  0  0  0  0
 27 29  1  0  0  0  0
 28 30  2  0  0  0  0
M  END
> <PUBCHEM_COMPOUND_ID_TYPE>
0

> <PUBCHEM_TOTAL_CHARGE>
0

> <PUBCHEM_SUBSTANCE_ID>
310946871

> <PUBCHEM_SUBSTANCE_VERSION>
1

> <PUBCHEM_EXT_DATASOURCE_NAME>
4488

> <PUBCHEM_EXT_DATASOURCE_REGID>
SCHEMBL16124995

> <PUBCHEM_SUBSTANCE_COMMENT>
InChI=1S/C24H30N6O4S/c1-23(2,3)29(4)35(32,33)18-7-5-17(6-8-18)27-21-20-19(9-14-26-22(20)31)30(28-21)24(10-13-25)11-15-34-16-12-24/h5-9,14H,10-12,15-16H2,1-4H3,(H,26,31)(H,27,28)
InChIKey=RTRLOJXPDJHIMM-UHFFFAOYSA-N

> <PUBCHEM_SUBSTANCE_SYNONYM>
SCHEMBL16124995

> <PUBCHEM_XREF_EXT_ID>
SCHEMBL16124995

> <PUBCHEM_EXT_DATASOURCE_URL>
https://www.surechembl.org/

> <PUBCHEM_EXT_SUBSTANCE_URL>
https://www.surechembl.org/chemical/SCHEMBL16124995

> <PUBCHEM_CID_ASSOCIATIONS>
117612729  1

> <PUBCHEM_COORDINATE_TYPE>
1
3

$$$$
