310942922
  -OEChem-07211613022D

 35 39  0     1  0  0  0  0  0999 V2000
   -2.1256    0.2855    0.0000 F   0  0  0  0  0  0  0  0  0  0  0  0
    3.5691    0.3172    0.0000 O   0  0  0  0  0  0  0  0  0  0  0  0
   -4.3463   -0.2538    0.0000 N   0  0  3  0  0  0  0  0  0  0  0  0
   -2.1732   -1.3959    0.0000 N   0  0  0  0  0  0  0  0  0  0  0  0
   -0.6821   -1.3959    0.0000 N   0  0  0  0  0  0  0  0  0  0  0  0
    0.7138   -1.3166    0.0000 N   0  0  0  0  0  0  0  0  0  0  0  0
    0.0159   -0.1269    0.0000 N   0  0  0  0  0  0  0  0  0  0  0  0
    4.2670   -1.7290    0.0000 N   0  0  0  0  0  0  0  0  0  0  0  0
   -3.6643    0.3014    0.0000 C   0  0  0  0  0  0  0  0  0  0  0  0
   -4.3305   -0.9994    0.0000 C   0  0  3  0  0  0  0  0  0  0  0  0
   -2.8711   -0.9359    0.0000 C   0  0  3  0  0  0  0  0  0  0  0  0
   -2.9187   -0.1110    0.0000 C   0  0  0  0  0  0  0  0  0  0  0  0
   -3.5532   -1.3800    0.0000 C   0  0  0  0  0  0  0  0  0  0  0  0
   -5.1553    0.0159    0.0000 C   0  0  0  0  0  0  0  0  0  0  0  0
   -1.4435   -0.8883    0.0000 C   0  0  0  0  0  0  0  0  0  0  0  0
   -5.0919   -1.3007    0.0000 C   0  0  0  0  0  0  0  0  0  0  0  0
   -5.5995   -0.6821    0.0000 C   0  0  0  0  0  0  0  0  0  0  0  0
    0.0000   -0.8883    0.0000 C   0  0  0  0  0  0  0  0  0  0  0  0
   -1.4117   -0.0634    0.0000 C   0  0  0  0  0  0  0  0  0  0  0  0
   -3.8546    1.0787    0.0000 C   0  0  0  0  0  0  0  0  0  0  0  0
   -3.2360    0.9676    0.0000 C   0  0  0  0  0  0  0  0  0  0  0  0
    1.4117   -0.8407    0.0000 C   0  0  0  0  0  0  0  0  0  0  0  0
    2.8394   -0.8407    0.0000 C   0  0  0  0  0  0  0  0  0  0  0  0
    2.8553   -0.0159    0.0000 C   0  0  0  0  0  0  0  0  0  0  0  0
   -0.7138    0.3331    0.0000 C   0  0  0  0  0  0  0  0  0  0  0  0
    2.1732   -1.2373    0.0000 C   0  0  0  0  0  0  0  0  0  0  0  0
    1.4276   -0.0159    0.0000 C   0  0  0  0  0  0  0  0  0  0  0  0
    2.1732    0.3807    0.0000 C   0  0  0  0  0  0  0  0  0  0  0  0
    4.2988    0.8090    0.0000 C   0  0  0  0  0  0  0  0  0  0  0  0
    3.5849   -1.3166    0.0000 C   0  0  0  0  0  0  0  0  0  0  0  0
    4.3939    1.6338    0.0000 C   0  0  0  0  0  0  0  0  0  0  0  0
    5.0602    0.4759    0.0000 C   0  0  0  0  0  0  0  0  0  0  0  0
    4.9491    1.7290    0.0000 C   0  0  0  0  0  0  0  0  0  0  0  0
    5.5995    1.0628    0.0000 C   0  0  0  0  0  0  0  0  0  0  0  0
    5.3457    1.5704    0.0000 C   0  0  0  0  0  0  0  0  0  0  0  0
  1 19  1  0  0  0  0
  2 24  1  0  0  0  0
  2 29  1  0  0  0  0
  3  9  1  0  0  0  0
  3 10  1  0  0  0  0
  3 14  1  0  0  0  0
  4 11  1  0  0  0  0
  4 15  1  0  0  0  0
  5 15  1  0  0  0  0
  5 18  2  0  0  0  0
  6 18  1  0  0  0  0
  6 22  1  0  0  0  0
  7 18  1  0  0  0  0
  7 25  2  0  0  0  0
  8 30  3  0  0  0  0
  9 12  1  0  0  0  0
  9 20  1  0  0  0  0
  9 21  1  0  0  0  0
 10 13  1  0  0  0  0
 10 16  1  0  0  0  0
 11 12  1  0  0  0  0
 11 13  1  0  0  0  0
 14 17  1  0  0  0  0
 15 19  2  0  0  0  0
 16 17  1  0  0  0  0
 19 25  1  0  0  0  0
 22 26  1  0  0  0  0
 22 27  2  0  0  0  0
 23 24  1  0  0  0  0
 23 26  2  0  0  0  0
 23 30  1  0  0  0  0
 24 28  2  0  0  0  0
 27 28  1  0  0  0  0
 29 31  1  0  0  0  0
 29 32  1  0  0  0  0
 31 33  1  0  0  0  0
 32 34  1  0  0  0  0
 33 35  1  0  0  0  0
 34 35  1  0  0  0  0
M  END
> <PUBCHEM_COMPOUND_ID_TYPE>
0

> <PUBCHEM_TOTAL_CHARGE>
0

> <PUBCHEM_SUBSTANCE_ID>
310942922

> <PUBCHEM_SUBSTANCE_VERSION>
1

> <PUBCHEM_EXT_DATASOURCE_NAME>
4488

> <PUBCHEM_EXT_DATASOURCE_REGID>
SCHEMBL16120980

> <PUBCHEM_SUBSTANCE_COMMENT>
InChI=1S/C27H35FN6O/c1-27(2)15-20(14-21-7-6-12-34(21)27)31-25-23(28)17-30-26(33-25)32-19-10-11-24(18(13-19)16-29)35-22-8-4-3-5-9-22/h10-11,13,17,20-22H,3-9,12,14-15H2,1-2H3,(H2,30,31,32,33)
InChIKey=DQGLQTLYOALVDG-UHFFFAOYSA-N

> <PUBCHEM_SUBSTANCE_SYNONYM>
SCHEMBL16120980

> <PUBCHEM_XREF_EXT_ID>
SCHEMBL16120980

> <PUBCHEM_EXT_DATASOURCE_URL>
https://www.surechembl.org/

> <PUBCHEM_EXT_SUBSTANCE_URL>
https://www.surechembl.org/chemical/SCHEMBL16120980

> <PUBCHEM_CID_ASSOCIATIONS>
117609395  1

> <PUBCHEM_COORDINATE_TYPE>
1
3

> <PUBCHEM_BONDANNOTATIONS>
33  35  3

$$$$
