310943572
  -OEChem-07211613022D

 35 38  0     1  0  0  0  0  0999 V2000
    1.6757    2.1670    0.0000 O   0  0  0  0  0  0  0  0  0  0  0  0
    5.9829   -0.4980    0.0000 O   0  0  0  0  0  0  0  0  0  0  0  0
    2.4025    0.7403    0.0000 N   0  0  0  0  0  0  0  0  0  0  0  0
    3.8427   -0.0807    0.0000 N   0  0  0  0  0  0  0  0  0  0  0  0
   -4.0716   -1.3729    0.0000 N   0  0  3  0  0  0  0  0  0  0  0  0
    0.2490   -2.1670    0.0000 N   0  0  0  0  0  0  0  0  0  0  0  0
   -5.8752   -0.8076    0.0000 N   0  0  3  0  0  0  0  0  0  0  0  0
   -1.1912   -0.4980    0.0000 C   0  0  0  0  0  0  0  0  0  0  0  0
   -0.4643   -0.0807    0.0000 C   0  0  0  0  0  0  0  0  0  0  0  0
   -1.2047   -1.3325    0.0000 C   0  0  0  0  0  0  0  0  0  0  0  0
    0.9489    0.7403    0.0000 C   0  0  0  0  0  0  0  0  0  0  0  0
    1.6757    1.1306    0.0000 C   0  0  0  0  0  0  0  0  0  0  0  0
   -2.6449   -1.3460    0.0000 C   0  0  0  0  0  0  0  0  0  0  0  0
    0.2759   -0.4980    0.0000 C   0  0  0  0  0  0  0  0  0  0  0  0
   -0.4643    0.7268    0.0000 C   0  0  0  0  0  0  0  0  0  0  0  0
   -1.9181   -0.1211    0.0000 C   0  0  0  0  0  0  0  0  0  0  0  0
   -1.9045   -1.7498    0.0000 C   0  0  0  0  0  0  0  0  0  0  0  0
    0.9489   -0.0942    0.0000 C   0  0  0  0  0  0  0  0  0  0  0  0
    0.2490    1.1306    0.0000 C   0  0  0  0  0  0  0  0  0  0  0  0
   -2.6314   -0.5249    0.0000 C   0  0  0  0  0  0  0  0  0  0  0  0
    2.4160   -0.0807    0.0000 C   0  0  0  0  0  0  0  0  0  0  0  0
    3.1025    1.1576    0.0000 C   0  0  0  0  0  0  0  0  0  0  0  0
   -3.3447   -1.7632    0.0000 C   0  0  0  0  0  0  0  0  0  0  0  0
   -0.4643   -1.7632    0.0000 C   0  0  0  0  0  0  0  0  0  0  0  0
    3.1563   -0.4846    0.0000 C   0  0  0  0  0  0  0  0  0  0  0  0
    3.8293    0.7538    0.0000 C   0  0  0  0  0  0  0  0  0  0  0  0
   -4.7580   -1.8305    0.0000 C   0  0  0  0  0  0  0  0  0  0  0  0
   -4.0312   -0.5249    0.0000 C   0  0  0  0  0  0  0  0  0  0  0  0
    4.5696   -0.4846    0.0000 C   0  0  0  0  0  0  0  0  0  0  0  0
   -5.5522   -1.5748    0.0000 C   0  0  0  0  0  0  0  0  0  0  0  0
   -4.6504    0.0269    0.0000 C   0  0  0  0  0  0  0  0  0  0  0  0
   -5.4445   -0.0942    0.0000 C   0  0  0  0  0  0  0  0  0  0  0  0
    5.2561   -0.0807    0.0000 C   0  0  0  0  0  0  0  0  0  0  0  0
   -6.6963   -0.8211    0.0000 C   0  0  0  0  0  0  0  0  0  0  0  0
    6.6963   -0.0942    0.0000 C   0  0  0  0  0  0  0  0  0  0  0  0
  1 12  2  0  0  0  0
  2 33  1  0  0  0  0
  2 35  1  0  0  0  0
  3 12  1  0  0  0  0
  3 21  1  0  0  0  0
  3 22  1  0  0  0  0
  4 25  1  0  0  0  0
  4 26  1  0  0  0  0
  4 29  1  0  0  0  0
  5 23  1  0  0  0  0
  5 27  1  0  0  0  0
  5 28  1  0  0  0  0
  6 24  3  0  0  0  0
  7 30  1  0  0  0  0
  7 32  1  0  0  0  0
  7 34  1  0  0  0  0
  8  9  1  0  0  0  0
  8 10  1  0  0  0  0
  8 16  2  0  0  0  0
  9 14  2  0  0  0  0
  9 15  1  0  0  0  0
 10 17  2  0  0  0  0
 10 24  1  0  0  0  0
 11 12  1  0  0  0  0
 11 18  2  0  0  0  0
 11 19  1  0  0  0  0
 13 17  1  0  0  0  0
 13 20  2  0  0  0  0
 13 23  1  0  0  0  0
 14 18  1  0  0  0  0
 15 19  2  0  0  0  0
 16 20  1  0  0  0  0
 21 25  1  0  0  0  0
 22 26  1  0  0  0  0
 27 30  1  0  0  0  0
 28 31  1  0  0  0  0
 29 33  1  0  0  0  0
 31 32  1  0  0  0  0
M  END
> <PUBCHEM_COMPOUND_ID_TYPE>
0

> <PUBCHEM_TOTAL_CHARGE>
0

> <PUBCHEM_SUBSTANCE_ID>
310943572

> <PUBCHEM_SUBSTANCE_VERSION>
1

> <PUBCHEM_EXT_DATASOURCE_NAME>
4488

> <PUBCHEM_EXT_DATASOURCE_REGID>
SCHEMBL16121639

> <PUBCHEM_SUBSTANCE_COMMENT>
InChI=1S/C28H37N5O2/c1-30-10-3-11-32(13-12-30)22-23-4-9-27(26(20-23)21-29)24-5-7-25(8-6-24)28(34)33-16-14-31(15-17-33)18-19-35-2/h4-9,20H,3,10-19,22H2,1-2H3
InChIKey=BTQKTTZOXBJDFE-UHFFFAOYSA-N

> <PUBCHEM_SUBSTANCE_SYNONYM>
SCHEMBL16121639

> <PUBCHEM_XREF_EXT_ID>
SCHEMBL16121639

> <PUBCHEM_EXT_DATASOURCE_URL>
https://www.surechembl.org/

> <PUBCHEM_EXT_SUBSTANCE_URL>
https://www.surechembl.org/chemical/SCHEMBL16121639

> <PUBCHEM_CID_ASSOCIATIONS>
117609980  1

> <PUBCHEM_COORDINATE_TYPE>
1
3

$$$$
