310933565
  -OEChem-07211613022D

 34 38  0     1  0  0  0  0  0999 V2000
    2.2670   -1.4811    0.0000 O   0  0  0  0  0  0  0  0  0  0  0  0
    0.0000   -4.9572    0.0000 O   0  0  0  0  0  0  0  0  0  0  0  0
    5.5315   -3.8388    0.0000 O   0  0  0  0  0  0  0  0  0  0  0  0
    4.2015   -3.1738    0.0000 N   0  0  0  0  0  0  0  0  0  0  0  0
    4.2015   -4.5038    0.0000 N   0  0  0  0  0  0  0  0  0  0  0  0
    3.8992   -1.4811    0.0000 N   0  0  0  0  0  0  0  0  0  0  0  0
    1.4811   -2.9018    0.0000 N   0  0  0  0  0  0  0  0  0  0  0  0
    0.3930   -5.6826    0.0000 N   0  0  0  0  0  0  0  0  0  0  0  0
    5.1385   -0.6952    0.0000 N   0  0  0  0  0  0  0  0  0  0  0  0
    2.6902   -2.1763    0.0000 C   0  0  3  0  0  0  0  0  0  0  0  0
    2.6902   -3.0227    0.0000 C   0  0  0  0  0  0  0  0  0  0  0  0
    3.4156   -3.4156    0.0000 C   0  0  0  0  0  0  0  0  0  0  0  0
    3.5063   -2.1763    0.0000 C   0  0  0  0  0  0  0  0  0  0  0  0
    3.4156   -4.2620    0.0000 C   0  0  0  0  0  0  0  0  0  0  0  0
    1.8741   -2.2066    0.0000 C   0  0  0  0  0  0  0  0  0  0  0  0
    1.9949   -4.2620    0.0000 C   0  0  0  0  0  0  0  0  0  0  0  0
    1.9949   -3.4156    0.0000 C   0  0  0  0  0  0  0  0  0  0  0  0
    2.6902   -4.6549    0.0000 C   0  0  0  0  0  0  0  0  0  0  0  0
    1.2997   -4.6851    0.0000 C   0  0  0  0  0  0  0  0  0  0  0  0
    4.6851   -3.8388    0.0000 C   0  0  0  0  0  0  0  0  0  0  0  0
    3.9295   -2.9018    0.0000 C   0  0  0  0  0  0  0  0  0  0  0  0
    1.4509   -1.4811    0.0000 C   0  0  0  0  0  0  0  0  0  0  0  0
    0.5441   -4.3526    0.0000 C   0  0  0  0  0  0  0  0  0  0  0  0
    1.2090   -5.5013    0.0000 C   0  0  0  0  0  0  0  0  0  0  0  0
    4.7456   -1.4207    0.0000 C   0  0  0  0  0  0  0  0  0  0  0  0
    4.7456   -2.8715    0.0000 C   0  0  0  0  0  0  0  0  0  0  0  0
    5.1385   -2.1461    0.0000 C   0  0  0  0  0  0  0  0  0  0  0  0
    0.6348   -2.9622    0.0000 C   0  0  0  0  0  0  0  0  0  0  0  0
    0.6046   -1.5113    0.0000 C   0  0  0  0  0  0  0  0  0  0  0  0
    0.2116   -2.2368    0.0000 C   0  0  0  0  0  0  0  0  0  0  0  0
    0.3627   -3.5366    0.0000 C   0  0  0  0  0  0  0  0  0  0  0  0
    1.8136   -6.0453    0.0000 C   0  0  0  0  0  0  0  0  0  0  0  0
    5.9546   -0.6952    0.0000 C   0  0  0  0  0  0  0  0  0  0  0  0
    4.6851    0.0000    0.0000 C   0  0  0  0  0  0  0  0  0  0  0  0
  1 10  1  0  0  0  0
  2  8  1  0  0  0  0
  2 23  1  0  0  0  0
  3 20  2  0  0  0  0
  4 12  1  0  0  0  0
  4 20  1  0  0  0  0
  5 14  1  0  0  0  0
  5 20  1  0  0  0  0
  6 13  1  0  0  0  0
  6 25  2  0  0  0  0
  7 15  1  0  0  0  0
  7 28  2  0  0  0  0
  8 24  2  0  0  0  0
  9 25  1  0  0  0  0
  9 33  1  0  0  0  0
  9 34  1  0  0  0  0
 10 11  1  0  0  0  0
 10 13  1  0  0  0  0
 10 15  1  0  0  0  0
 11 12  1  0  0  0  0
 11 17  2  0  0  0  0
 12 14  2  0  0  0  0
 13 21  2  0  0  0  0
 14 18  1  0  0  0  0
 15 22  2  0  0  0  0
 16 17  1  0  0  0  0
 16 18  2  0  0  0  0
 16 19  1  0  0  0  0
 19 23  2  0  0  0  0
 19 24  1  0  0  0  0
 21 26  1  0  0  0  0
 22 29  1  0  0  0  0
 23 31  1  0  0  0  0
 24 32  1  0  0  0  0
 25 27  1  0  0  0  0
 26 27  2  0  0  0  0
 28 30  1  0  0  0  0
 29 30  2  0  0  0  0
M  END
> <PUBCHEM_COMPOUND_ID_TYPE>
0

> <PUBCHEM_TOTAL_CHARGE>
0

> <PUBCHEM_SUBSTANCE_ID>
310933565

> <PUBCHEM_SUBSTANCE_VERSION>
1

> <PUBCHEM_EXT_DATASOURCE_NAME>
4488

> <PUBCHEM_EXT_DATASOURCE_REGID>
SCHEMBL16110988

> <PUBCHEM_SUBSTANCE_COMMENT>
InChI=1S/C25H24N6O3/c1-14-22(15(2)34-30-14)16-12-17(23-18(13-16)27-24(32)29-23)25(33,19-8-5-6-11-26-19)20-9-7-10-21(28-20)31(3)4/h5-13,33H,1-4H3,(H2,27,29,32)
InChIKey=ZYSQXACMTRMRLO-UHFFFAOYSA-N

> <PUBCHEM_SUBSTANCE_SYNONYM>
SCHEMBL16110988

> <PUBCHEM_XREF_EXT_ID>
SCHEMBL16110988

> <PUBCHEM_EXT_DATASOURCE_URL>
https://www.surechembl.org/

> <PUBCHEM_EXT_SUBSTANCE_URL>
https://www.surechembl.org/chemical/SCHEMBL16110988

> <PUBCHEM_CID_ASSOCIATIONS>
117601948  1

> <PUBCHEM_COORDINATE_TYPE>
1
3

$$$$
