310941842
  -OEChem-07211613022D

 15 17  0     1  0  0  0  0  0999 V2000
   -0.9331   -1.4470    0.0000 Cl  0  0  0  0  0  0  0  0  0  0  0  0
   -0.6627    0.2163    0.0000 N   0  0  3  0  0  0  0  0  0  0  0  0
    0.7438    0.2163    0.0000 N   0  0  0  0  0  0  0  0  0  0  0  0
    0.0406   -0.1893    0.0000 C   0  0  0  0  0  0  0  0  0  0  0  0
   -1.3929   -0.1623    0.0000 C   0  0  3  0  0  0  0  0  0  0  0  0
   -1.3929    1.4470    0.0000 C   0  0  3  0  0  0  0  0  0  0  0  0
   -0.6627    1.0413    0.0000 C   0  0  0  0  0  0  0  0  0  0  0  0
    0.0135   -1.0278    0.0000 C   0  0  0  0  0  0  0  0  0  0  0  0
   -1.7716    0.7302    0.0000 C   0  0  0  0  0  0  0  0  0  0  0  0
   -2.0556    0.2163    0.0000 C   0  0  0  0  0  0  0  0  0  0  0  0
   -2.0556    1.0548    0.0000 C   0  0  0  0  0  0  0  0  0  0  0  0
    0.7573   -1.4335    0.0000 C   0  0  0  0  0  0  0  0  0  0  0  0
    1.4335   -1.0142    0.0000 C   0  0  0  0  0  0  0  0  0  0  0  0
    1.4470   -0.1893    0.0000 C   0  0  0  0  0  0  0  0  0  0  0  0
    2.0556   -1.3929    0.0000 C   0  0  0  0  0  0  0  0  0  0  0  0
  1  8  1  0  0  0  0
  2  4  1  0  0  0  0
  2  5  1  0  0  0  0
  2  7  1  0  0  0  0
  3  4  1  0  0  0  0
  3 14  2  0  0  0  0
  4  8  2  0  0  0  0
  5  9  1  0  0  0  0
  5 10  1  0  0  0  0
  6  7  1  0  0  0  0
  6  9  1  0  0  0  0
  6 11  1  0  0  0  0
  8 12  1  0  0  0  0
 10 11  1  0  0  0  0
 12 13  2  0  0  0  0
 13 14  1  0  0  0  0
 13 15  1  0  0  0  0
M  END
> <PUBCHEM_COMPOUND_ID_TYPE>
0

> <PUBCHEM_TOTAL_CHARGE>
0

> <PUBCHEM_SUBSTANCE_ID>
310941842

> <PUBCHEM_SUBSTANCE_VERSION>
1

> <PUBCHEM_EXT_DATASOURCE_NAME>
4488

> <PUBCHEM_EXT_DATASOURCE_REGID>
SCHEMBL16119874

> <PUBCHEM_SUBSTANCE_COMMENT>
InChI=1S/C12H15ClN2/c1-8-4-11(13)12(14-6-8)15-7-9-2-3-10(15)5-9/h4,6,9-10H,2-3,5,7H2,1H3
InChIKey=DMDAXVZQNZWOJC-UHFFFAOYSA-N

> <PUBCHEM_SUBSTANCE_SYNONYM>
SCHEMBL16119874

> <PUBCHEM_XREF_EXT_ID>
SCHEMBL16119874

> <PUBCHEM_EXT_DATASOURCE_URL>
https://www.surechembl.org/

> <PUBCHEM_EXT_SUBSTANCE_URL>
https://www.surechembl.org/chemical/SCHEMBL16119874

> <PUBCHEM_CID_ASSOCIATIONS>
117608584  1

> <PUBCHEM_COORDINATE_TYPE>
1
3

$$$$
