310940267
  -OEChem-07211613022D

 19 20  0     1  0  0  0  0  0999 V2000
    1.3974   -2.5240    0.0000 Br  0  0  0  0  0  0  0  0  0  0  0  0
   -0.0542    2.5240    0.0000 Cl  0  0  0  0  0  0  0  0  0  0  0  0
   -1.4624    0.0325    0.0000 Cl  0  0  0  0  0  0  0  0  0  0  0  0
   -0.0325    0.0325    0.0000 O   0  0  0  0  0  0  0  0  0  0  0  0
    2.1340   -0.4441    0.0000 N   0  0  0  0  0  0  0  0  0  0  0  0
   -2.1340    2.1340    0.0000 N   0  0  0  0  0  0  0  0  0  0  0  0
    1.3974    0.8341    0.0000 N   0  0  0  0  0  0  0  0  0  0  0  0
   -0.7474    1.2458    0.0000 C   0  0  0  0  0  0  0  0  0  0  0  0
   -0.0325    0.8124    0.0000 C   0  0  3  0  0  0  0  0  0  0  0  0
    0.7257   -0.4441    0.0000 C   0  0  0  0  0  0  0  0  0  0  0  0
   -0.7040    2.1123    0.0000 C   0  0  0  0  0  0  0  0  0  0  0  0
   -1.4624    0.8341    0.0000 C   0  0  0  0  0  0  0  0  0  0  0  0
    1.3757    0.0109    0.0000 C   0  0  0  0  0  0  0  0  0  0  0  0
    0.7040   -1.2674    0.0000 C   0  0  0  0  0  0  0  0  0  0  0  0
    1.3974   -1.6574    0.0000 C   0  0  0  0  0  0  0  0  0  0  0  0
   -1.4407    2.5023    0.0000 C   0  0  0  0  0  0  0  0  0  0  0  0
   -2.1123    1.2241    0.0000 C   0  0  0  0  0  0  0  0  0  0  0  0
    2.1340   -1.2674    0.0000 C   0  0  0  0  0  0  0  0  0  0  0  0
    0.7040    1.2024    0.0000 C   0  0  0  0  0  0  0  0  0  0  0  0
  1 15  1  0  0  0  0
  2 11  1  0  0  0  0
  3 12  1  0  0  0  0
  4  9  1  0  0  0  0
  4 10  1  0  0  0  0
  5 13  1  0  0  0  0
  5 18  2  0  0  0  0
  6 16  2  0  0  0  0
  6 17  1  0  0  0  0
  7 13  1  0  0  0  0
  8  9  1  0  0  0  0
  8 11  2  0  0  0  0
  8 12  1  0  0  0  0
  9 19  1  0  0  0  0
 10 13  2  0  0  0  0
 10 14  1  0  0  0  0
 11 16  1  0  0  0  0
 12 17  2  0  0  0  0
 14 15  2  0  0  0  0
 15 18  1  0  0  0  0
M  END
> <PUBCHEM_COMPOUND_ID_TYPE>
0

> <PUBCHEM_TOTAL_CHARGE>
0

> <PUBCHEM_SUBSTANCE_ID>
310940267

> <PUBCHEM_SUBSTANCE_VERSION>
1

> <PUBCHEM_EXT_DATASOURCE_NAME>
4488

> <PUBCHEM_EXT_DATASOURCE_REGID>
SCHEMBL16118210

> <PUBCHEM_SUBSTANCE_COMMENT>
InChI=1S/C12H10BrCl2N3O/c1-6(11-8(14)4-17-5-9(11)15)19-10-2-7(13)3-18-12(10)16/h2-6H,1H3,(H2,16,18)
InChIKey=ZVQVLPKTVVZOCR-UHFFFAOYSA-N

> <PUBCHEM_SUBSTANCE_SYNONYM>
SCHEMBL16118210

> <PUBCHEM_XREF_EXT_ID>
SCHEMBL16118210

> <PUBCHEM_EXT_DATASOURCE_URL>
https://www.surechembl.org/

> <PUBCHEM_EXT_SUBSTANCE_URL>
https://www.surechembl.org/chemical/SCHEMBL16118210

> <PUBCHEM_CID_ASSOCIATIONS>
117607355  1

> <PUBCHEM_COORDINATE_TYPE>
1
3

$$$$
