310939704
  -OEChem-07211613022D

 37 39  0     1  0  0  0  0  0999 V2000
   -0.6930   18.9488    0.0000 Cl  0  0  0  0  0  0  0  0  0  0  0  0
   -2.1218   16.4738    0.0000 O   0  0  0  0  0  0  0  0  0  0  0  0
    0.0216   12.7611    0.0000 O   0  0  0  0  0  0  0  0  0  0  0  0
    4.3084   17.7113    0.0000 O   0  0  0  0  0  0  0  0  0  0  0  0
    5.0230   16.4738    0.0000 O   0  0  0  0  0  0  0  0  0  0  0  0
   -3.5508   15.6487    0.0000 O   0  0  0  0  0  0  0  0  0  0  0  0
    0.7360   15.6487    0.0000 N   0  0  0  0  0  0  0  0  0  0  0  0
    1.4505   16.8863    0.0000 N   0  0  0  0  0  0  0  0  0  0  0  0
    1.4505   12.7611    0.0000 N   0  0  0  0  0  0  0  0  0  0  0  0
   -4.9799   16.4738    0.0000 N   0  0  0  0  0  0  0  0  0  0  0  0
    0.7360   16.4738    0.0000 C   0  0  0  0  0  0  0  0  0  0  0  0
    1.4505   15.2362    0.0000 C   0  0  0  0  0  0  0  0  0  0  0  0
    0.0216   16.8863    0.0000 C   0  0  0  0  0  0  0  0  0  0  0  0
    2.1650   16.4738    0.0000 C   0  0  0  0  0  0  0  0  0  0  0  0
    1.4505   14.4112    0.0000 C   0  0  0  0  0  0  0  0  0  0  0  0
    2.1650   15.6487    0.0000 C   0  0  0  0  0  0  0  0  0  0  0  0
    2.8795   16.8863    0.0000 C   0  0  0  0  0  0  0  0  0  0  0  0
   -0.6930   16.4738    0.0000 C   0  0  0  0  0  0  0  0  0  0  0  0
    0.0216   17.7113    0.0000 C   0  0  0  0  0  0  0  0  0  0  0  0
   -1.4074   16.8863    0.0000 C   0  0  0  0  0  0  0  0  0  0  0  0
   -0.6930   18.1237    0.0000 C   0  0  0  0  0  0  0  0  0  0  0  0
    0.7360   13.9988    0.0000 C   0  0  0  0  0  0  0  0  0  0  0  0
    2.1650   13.9988    0.0000 C   0  0  0  0  0  0  0  0  0  0  0  0
   -1.4074   17.7113    0.0000 C   0  0  0  0  0  0  0  0  0  0  0  0
    0.7360   13.1736    0.0000 C   0  0  0  0  0  0  0  0  0  0  0  0
    3.5940   16.4738    0.0000 C   0  0  0  0  0  0  0  0  0  0  0  0
    2.8795   17.7113    0.0000 C   0  0  0  0  0  0  0  0  0  0  0  0
    2.1650   13.1736    0.0000 C   0  0  0  0  0  0  0  0  0  0  0  0
   -2.8364   16.8863    0.0000 C   0  0  0  0  0  0  0  0  0  0  0  0
    4.3084   16.8863    0.0000 C   0  0  0  0  0  0  0  0  0  0  0  0
    3.5940   18.1237    0.0000 C   0  0  0  0  0  0  0  0  0  0  0  0
   -3.5508   16.4738    0.0000 C   0  0  3  0  0  0  0  0  0  0  0  0
    0.0216   11.9362    0.0000 C   0  0  0  0  0  0  0  0  0  0  0  0
   -4.2653   16.8863    0.0000 C   0  0  0  0  0  0  0  0  0  0  0  0
    5.0230   18.1237    0.0000 C   0  0  0  0  0  0  0  0  0  0  0  0
    5.7375   16.8863    0.0000 C   0  0  0  0  0  0  0  0  0  0  0  0
   -5.6943   16.8863    0.0000 C   0  0  0  0  0  0  0  0  0  0  0  0
  1 21  1  0  0  0  0
  2 20  1  0  0  0  0
  2 29  1  0  0  0  0
  3 25  1  0  0  0  0
  3 33  1  0  0  0  0
  4 31  1  0  0  0  0
  4 35  1  0  0  0  0
  5 30  1  0  0  0  0
  5 36  1  0  0  0  0
  6 32  1  0  0  0  0
  7 11  2  0  0  0  0
  7 12  1  0  0  0  0
  8 11  1  0  0  0  0
  8 14  2  0  0  0  0
  9 25  2  0  0  0  0
  9 28  1  0  0  0  0
 10 34  1  0  0  0  0
 10 37  1  0  0  0  0
 11 13  1  0  0  0  0
 12 15  1  0  0  0  0
 12 16  2  0  0  0  0
 13 18  2  0  0  0  0
 13 19  1  0  0  0  0
 14 16  1  0  0  0  0
 14 17  1  0  0  0  0
 15 22  2  0  0  0  0
 15 23  1  0  0  0  0
 17 26  1  0  0  0  0
 17 27  1  0  0  0  0
 18 20  1  0  0  0  0
 19 21  2  0  0  0  0
 20 24  2  0  0  0  0
 21 24  1  0  0  0  0
 22 25  1  0  0  0  0
 23 28  2  0  0  0  0
 26 30  1  0  0  0  0
 27 31  1  0  0  0  0
 29 32  1  0  0  0  0
 32 34  1  0  0  0  0
M  END
> <PUBCHEM_COMPOUND_ID_TYPE>
0

> <PUBCHEM_TOTAL_CHARGE>
0

> <PUBCHEM_SUBSTANCE_ID>
310939704

> <PUBCHEM_SUBSTANCE_VERSION>
1

> <PUBCHEM_EXT_DATASOURCE_NAME>
4488

> <PUBCHEM_EXT_DATASOURCE_REGID>
SCHEMBL16117634

> <PUBCHEM_SUBSTANCE_COMMENT>
InChI=1S/C27H35ClN4O5/c1-29-16-22(33)17-37-23-12-20(11-21(28)14-23)27-31-24(18(6-9-34-2)7-10-35-3)15-25(32-27)19-5-8-30-26(13-19)36-4/h5,8,11-15,18,22,29,33H,6-7,9-10,16-17H2,1-4H3
InChIKey=XLJRPHNRWHZRFG-UHFFFAOYSA-N

> <PUBCHEM_SUBSTANCE_SYNONYM>
SCHEMBL16117634

> <PUBCHEM_XREF_EXT_ID>
SCHEMBL16117634

> <PUBCHEM_EXT_DATASOURCE_URL>
https://www.surechembl.org/

> <PUBCHEM_EXT_SUBSTANCE_URL>
https://www.surechembl.org/chemical/SCHEMBL16117634

> <PUBCHEM_CID_ASSOCIATIONS>
117606934  1

> <PUBCHEM_COORDINATE_TYPE>
1
3

$$$$
