310938859
  -OEChem-07211613022D

 27 26  0     1  0  0  0  0  0999 V2000
    4.3053    1.6502    0.0000 O   0  0  0  0  0  0  0  0  0  0  0  0
    3.5860   -0.4161    0.0000 O   0  0  0  0  0  0  0  0  0  0  0  0
    5.7369    1.6572    0.0000 O   0  0  0  0  0  0  0  0  0  0  0  0
    6.4491    0.4161    0.0000 O   0  0  0  0  0  0  0  0  0  0  0  0
    4.3124   -1.6572    0.0000 O   0  0  0  0  0  0  0  0  0  0  0  0
    5.0246   -0.4161    0.0000 N   0  0  0  0  0  0  0  0  0  0  0  0
    5.0317    0.4302    0.0000 C   0  0  3  0  0  0  0  0  0  0  0  0
    4.2982    0.8322    0.0000 C   0  0  0  0  0  0  0  0  0  0  0  0
    5.7298    0.8322    0.0000 C   0  0  0  0  0  0  0  0  0  0  0  0
    4.3124   -0.7898    0.0000 C   0  0  0  0  0  0  0  0  0  0  0  0
    3.5789    0.4302    0.0000 C   0  0  0  0  0  0  0  0  0  0  0  0
    2.8667    0.8392    0.0000 C   0  0  0  0  0  0  0  0  0  0  0  0
    2.1544    0.4232    0.0000 C   0  0  0  0  0  0  0  0  0  0  0  0
    2.8807   -0.8110    0.0000 C   0  0  0  0  0  0  0  0  0  0  0  0
    1.4351    0.8322    0.0000 C   0  0  0  0  0  0  0  0  0  0  0  0
    0.7228    0.4161    0.0000 C   0  0  0  0  0  0  0  0  0  0  0  0
    2.0487   -0.8322    0.0000 C   0  0  0  0  0  0  0  0  0  0  0  0
   -0.0035    0.8322    0.0000 C   0  0  0  0  0  0  0  0  0  0  0  0
   -0.7016    0.4161    0.0000 C   0  0  0  0  0  0  0  0  0  0  0  0
   -1.4351    0.8251    0.0000 C   0  0  0  0  0  0  0  0  0  0  0  0
   -2.1403    0.4090    0.0000 C   0  0  0  0  0  0  0  0  0  0  0  0
   -2.8597    0.8181    0.0000 C   0  0  0  0  0  0  0  0  0  0  0  0
   -3.5648    0.4090    0.0000 C   0  0  0  0  0  0  0  0  0  0  0  0
   -4.2912    0.8181    0.0000 C   0  0  0  0  0  0  0  0  0  0  0  0
   -4.9893    0.4020    0.0000 C   0  0  0  0  0  0  0  0  0  0  0  0
   -5.7298    0.8110    0.0000 C   0  0  0  0  0  0  0  0  0  0  0  0
   -6.4491    0.3949    0.0000 C   0  0  0  0  0  0  0  0  0  0  0  0
  1  8  2  0  0  0  0
  2 10  1  0  0  0  0
  2 14  1  0  0  0  0
  3  9  2  0  0  0  0
  4  9  1  0  0  0  0
  5 10  2  0  0  0  0
  6  7  1  0  0  0  0
  6 10  1  0  0  0  0
  7  8  1  0  0  0  0
  7  9  1  0  0  0  0
  8 11  1  0  0  0  0
 11 12  2  0  0  0  0
 12 13  1  0  0  0  0
 13 15  1  0  0  0  0
 14 17  1  0  0  0  0
 15 16  1  0  0  0  0
 16 18  1  0  0  0  0
 18 19  1  0  0  0  0
 19 20  1  0  0  0  0
 20 21  1  0  0  0  0
 21 22  1  0  0  0  0
 22 23  1  0  0  0  0
 23 24  1  0  0  0  0
 24 25  1  0  0  0  0
 25 26  1  0  0  0  0
 26 27  1  0  0  0  0
M  END
> <PUBCHEM_COMPOUND_ID_TYPE>
0

> <PUBCHEM_TOTAL_CHARGE>
0

> <PUBCHEM_SUBSTANCE_ID>
310938859

> <PUBCHEM_SUBSTANCE_VERSION>
1

> <PUBCHEM_EXT_DATASOURCE_NAME>
4488

> <PUBCHEM_EXT_DATASOURCE_REGID>
SCHEMBL16116778

> <PUBCHEM_SUBSTANCE_COMMENT>
InChI=1S/C21H37NO5/c1-3-5-6-7-8-9-10-11-12-13-14-15-16-17-18(23)19(20(24)25)22-21(26)27-4-2/h16-17,19H,3-15H2,1-2H3,(H,22,26)(H,24,25)/b17-16+
InChIKey=FGJWYTWIGMTFBI-WUKNDPDISA-N

> <PUBCHEM_SUBSTANCE_SYNONYM>
SCHEMBL16116778

> <PUBCHEM_XREF_EXT_ID>
SCHEMBL16116778

> <PUBCHEM_EXT_DATASOURCE_URL>
https://www.surechembl.org/

> <PUBCHEM_EXT_SUBSTANCE_URL>
https://www.surechembl.org/chemical/SCHEMBL16116778

> <PUBCHEM_CID_ASSOCIATIONS>
117606258  1

> <PUBCHEM_COORDINATE_TYPE>
1
3

$$$$
