310949379
  -OEChem-07211613022D

 30 31  0     1  0  0  0  0  0999 V2000
   -1.0384    1.2610    0.0000 F   0  0  0  0  0  0  0  0  0  0  0  0
   -0.2349    1.0384    0.0000 F   0  0  0  0  0  0  0  0  0  0  0  0
   -0.0248    0.2473    0.0000 F   0  0  0  0  0  0  0  0  0  0  0  0
   -3.1648   -1.8668    0.0000 O   0  0  0  0  0  0  0  0  0  0  0  0
   -2.4230    0.8901    0.0000 O   0  0  0  0  0  0  0  0  0  0  0  0
   -1.4712    2.8434    0.0000 O   0  0  0  0  0  0  0  0  0  0  0  0
   -0.7665   -3.3750    0.0000 N   0  0  0  0  0  0  0  0  0  0  0  0
   -1.5577   -3.6346    0.0000 N   0  0  0  0  0  0  0  0  0  0  0  0
    0.6552   -2.5467    0.0000 N   0  0  3  0  0  0  0  0  0  0  0  0
    2.7940   -2.1387    0.0000 N   0  0  0  0  0  0  0  0  0  0  0  0
   -1.7679   -1.4835    0.0000 C   0  0  0  0  0  0  0  0  0  0  0  0
   -1.3970   -0.1113    0.0000 C   0  0  0  0  0  0  0  0  0  0  0  0
   -1.5701   -2.2871    0.0000 C   0  0  0  0  0  0  0  0  0  0  0  0
   -2.5715   -1.2733    0.0000 C   0  0  0  0  0  0  0  0  0  0  0  0
   -2.2129    0.0865    0.0000 C   0  0  0  0  0  0  0  0  0  0  0  0
   -1.1991   -0.9272    0.0000 C   0  0  0  0  0  0  0  0  0  0  0  0
   -0.8159    0.4822    0.0000 C   0  0  0  0  0  0  0  0  0  0  0  0
   -2.7692   -0.4822    0.0000 C   0  0  0  0  0  0  0  0  0  0  0  0
   -0.7789   -2.5467    0.0000 C   0  0  0  0  0  0  0  0  0  0  0  0
   -2.0398   -2.9670    0.0000 C   0  0  0  0  0  0  0  0  0  0  0  0
   -0.0742   -2.1387    0.0000 C   0  0  0  0  0  0  0  0  0  0  0  0
   -1.8296    1.4712    0.0000 C   0  0  0  0  0  0  0  0  0  0  0  0
   -2.9423   -2.6579    0.0000 C   0  0  0  0  0  0  0  0  0  0  0  0
    1.3722   -2.1387    0.0000 C   0  0  0  0  0  0  0  0  0  0  0  0
   -2.0398    2.2500    0.0000 C   0  0  0  0  0  0  0  0  0  0  0  0
    0.6676   -3.3750    0.0000 C   0  0  0  0  0  0  0  0  0  0  0  0
   -3.4986   -3.2514    0.0000 C   0  0  0  0  0  0  0  0  0  0  0  0
    2.0893   -2.5467    0.0000 C   0  0  0  0  0  0  0  0  0  0  0  0
   -1.6689    3.6346    0.0000 C   0  0  0  0  0  0  0  0  0  0  0  0
    3.4986   -2.5467    0.0000 C   0  0  0  0  0  0  0  0  0  0  0  0
  1 17  1  0  0  0  0
  2 17  1  0  0  0  0
  3 17  1  0  0  0  0
  4 14  1  0  0  0  0
  4 23  1  0  0  0  0
  5 15  1  0  0  0  0
  5 22  1  0  0  0  0
  6 25  1  0  0  0  0
  6 29  1  0  0  0  0
  7  8  1  0  0  0  0
  7 19  2  0  0  0  0
  8 20  1  0  0  0  0
  9 21  1  0  0  0  0
  9 24  1  0  0  0  0
  9 26  1  0  0  0  0
 10 28  1  0  0  0  0
 10 30  1  0  0  0  0
 11 13  1  0  0  0  0
 11 14  2  0  0  0  0
 11 16  1  0  0  0  0
 12 15  1  0  0  0  0
 12 16  2  0  0  0  0
 12 17  1  0  0  0  0
 13 19  1  0  0  0  0
 13 20  2  0  0  0  0
 14 18  1  0  0  0  0
 15 18  2  0  0  0  0
 19 21  1  0  0  0  0
 22 25  1  0  0  0  0
 23 27  1  0  0  0  0
 24 28  1  0  0  0  0
M  END
> <PUBCHEM_COMPOUND_ID_TYPE>
0

> <PUBCHEM_TOTAL_CHARGE>
0

> <PUBCHEM_SUBSTANCE_ID>
310949379

> <PUBCHEM_SUBSTANCE_VERSION>
1

> <PUBCHEM_EXT_DATASOURCE_NAME>
4488

> <PUBCHEM_EXT_DATASOURCE_REGID>
SCHEMBL16127571

> <PUBCHEM_SUBSTANCE_COMMENT>
InChI=1S/C20H29F3N4O3/c1-5-29-18-11-19(30-9-8-28-4)16(20(21,22)23)10-14(18)15-12-25-26-17(15)13-27(3)7-6-24-2/h10-12,24H,5-9,13H2,1-4H3,(H,25,26)
InChIKey=FKSFRCDBAFXSDD-UHFFFAOYSA-N

> <PUBCHEM_SUBSTANCE_SYNONYM>
SCHEMBL16127571

> <PUBCHEM_XREF_EXT_ID>
SCHEMBL16127571

> <PUBCHEM_EXT_DATASOURCE_URL>
https://www.surechembl.org/

> <PUBCHEM_EXT_SUBSTANCE_URL>
https://www.surechembl.org/chemical/SCHEMBL16127571

> <PUBCHEM_CID_ASSOCIATIONS>
117614836  1

> <PUBCHEM_COORDINATE_TYPE>
1
3

$$$$
