310948358
  -OEChem-07211613022D

 10 10  0     1  0  0  0  0  0999 V2000
   -0.8662   -1.8355    0.0000 Br  0  0  0  0  0  0  0  0  0  0  0  0
    0.1512    1.8630    0.0000 Br  0  0  0  0  0  0  0  0  0  0  0  0
    0.1512   -0.5981    0.0000 C   0  0  0  0  0  0  0  0  0  0  0  0
    0.1375   -1.4230    0.0000 C   0  0  3  0  0  0  0  0  0  0  0  0
   -0.5637   -0.1856    0.0000 C   0  0  0  0  0  0  0  0  0  0  0  0
    0.8525   -0.1856    0.0000 C   0  0  0  0  0  0  0  0  0  0  0  0
    0.1512    1.0380    0.0000 C   0  0  3  0  0  0  0  0  0  0  0  0
   -0.5637    0.6256    0.0000 C   0  0  0  0  0  0  0  0  0  0  0  0
    0.8525    0.6256    0.0000 C   0  0  0  0  0  0  0  0  0  0  0  0
    0.8662   -1.8630    0.0000 C   0  0  0  0  0  0  0  0  0  0  0  0
  1  4  1  0  0  0  0
  2  7  1  0  0  0  0
  3  4  1  0  0  0  0
  3  5  1  0  0  0  0
  3  6  2  0  0  0  0
  4 10  1  0  0  0  0
  5  8  2  0  0  0  0
  6  9  1  0  0  0  0
  7  8  1  0  0  0  0
  7  9  1  0  0  0  0
M  END
> <PUBCHEM_COMPOUND_ID_TYPE>
0

> <PUBCHEM_TOTAL_CHARGE>
0

> <PUBCHEM_SUBSTANCE_ID>
310948358

> <PUBCHEM_SUBSTANCE_VERSION>
1

> <PUBCHEM_EXT_DATASOURCE_NAME>
4488

> <PUBCHEM_EXT_DATASOURCE_REGID>
SCHEMBL16126536

> <PUBCHEM_SUBSTANCE_COMMENT>
InChI=1S/C8H10Br2/c1-6(9)7-2-4-8(10)5-3-7/h2-4,6,8H,5H2,1H3
InChIKey=CKHRCBXYMVAWFG-UHFFFAOYSA-N

> <PUBCHEM_SUBSTANCE_SYNONYM>
SCHEMBL16126536

> <PUBCHEM_XREF_EXT_ID>
SCHEMBL16126536

> <PUBCHEM_EXT_DATASOURCE_URL>
https://www.surechembl.org/

> <PUBCHEM_EXT_SUBSTANCE_URL>
https://www.surechembl.org/chemical/SCHEMBL16126536

> <PUBCHEM_CID_ASSOCIATIONS>
117613922  1

> <PUBCHEM_COORDINATE_TYPE>
1
3

$$$$
