310948073
  -OEChem-07211613022D

 46 51  0     1  0  0  0  0  0999 V2000
    3.2888   -2.1661    0.0000 S   0  0  0  0  0  0  0  0  0  0  0  0
    3.0659    3.9443    0.0000 F   0  0  0  0  0  0  0  0  0  0  0  0
    3.6046    3.3128    0.0000 F   0  0  0  0  0  0  0  0  0  0  0  0
    3.4002    0.7126    0.0000 F   0  0  0  0  0  0  0  0  0  0  0  0
   -1.5586    0.9726    0.0000 O   0  0  0  0  0  0  0  0  0  0  0  0
    1.9702    3.3685    0.0000 O   0  0  0  0  0  0  0  0  0  0  0  0
    2.8431    2.3470    0.0000 O   0  0  0  0  0  0  0  0  0  0  0  0
    3.2888   -2.1661    0.0000 O   0  0  0  0  0  0  0  0  0  0  0  0
    3.2888   -2.1661    0.0000 O   0  0  0  0  0  0  0  0  0  0  0  0
    4.6075   -0.0488    0.0000 O   0  0  0  0  0  0  0  0  0  0  0  0
   -0.9643    2.1799    0.0000 N   0  0  0  0  0  0  0  0  0  0  0  0
   -2.1158   -1.2004    0.0000 N   0  0  0  0  0  0  0  0  0  0  0  0
   -2.8958   -0.9217    0.0000 N   0  0  0  0  0  0  0  0  0  0  0  0
   -5.0131   -0.2346    0.0000 N   0  0  0  0  0  0  0  0  0  0  0  0
   -0.3514    0.1183    0.0000 C   0  0  0  0  0  0  0  0  0  0  0  0
   -0.7414    0.8612    0.0000 C   0  0  0  0  0  0  0  0  0  0  0  0
   -0.3514    1.6227    0.0000 C   0  0  0  0  0  0  0  0  0  0  0  0
   -0.7785   -0.5689    0.0000 C   0  0  0  0  0  0  0  0  0  0  0  0
    0.4472    1.7527    0.0000 C   0  0  0  0  0  0  0  0  0  0  0  0
   -1.6143   -0.5318    0.0000 C   0  0  0  0  0  0  0  0  0  0  0  0
    0.8558   -0.6246    0.0000 C   0  0  0  0  0  0  0  0  0  0  0  0
    0.4843    0.0812    0.0000 C   0  0  0  0  0  0  0  0  0  0  0  0
    1.5430    2.6628    0.0000 C   0  0  0  0  0  0  0  0  0  0  0  0
    1.6916   -0.6618    0.0000 C   0  0  0  0  0  0  0  0  0  0  0  0
    2.0816    2.0498    0.0000 C   0  0  0  0  0  0  0  0  0  0  0  0
   -1.6886    1.7899    0.0000 C   0  0  0  0  0  0  0  0  0  0  0  0
    0.7444    2.5142    0.0000 C   0  0  0  0  0  0  0  0  0  0  0  0
   -0.3886   -1.2932    0.0000 C   0  0  0  0  0  0  0  0  0  0  0  0
    2.7874    3.1828    0.0000 C   0  0  0  0  0  0  0  0  0  0  0  0
    2.9174   -1.4232    0.0000 C   0  0  0  0  0  0  0  0  0  0  0  0
    0.4287   -1.3304    0.0000 C   0  0  0  0  0  0  0  0  0  0  0  0
    0.9858    1.1213    0.0000 C   0  0  0  0  0  0  0  0  0  0  0  0
   -2.0601    0.1183    0.0000 C   0  0  0  0  0  0  0  0  0  0  0  0
    2.1002   -1.3860    0.0000 C   0  0  0  0  0  0  0  0  0  0  0  0
    3.3446   -0.7174    0.0000 C   0  0  0  0  0  0  0  0  0  0  0  0
   -2.8401   -0.0860    0.0000 C   0  0  0  0  0  0  0  0  0  0  0  0
    1.7844    1.2698    0.0000 C   0  0  0  0  0  0  0  0  0  0  0  0
    2.1374    0.0255    0.0000 C   0  0  0  0  0  0  0  0  0  0  0  0
    2.9545    0.0068    0.0000 C   0  0  0  0  0  0  0  0  0  0  0  0
   -3.5273    0.4340    0.0000 C   0  0  3  0  0  0  0  0  0  0  0  0
   -2.4501    2.1427    0.0000 C   0  0  0  0  0  0  0  0  0  0  0  0
    4.1804   -0.7546    0.0000 C   0  0  0  0  0  0  0  0  0  0  0  0
   -1.8743   -2.0175    0.0000 C   0  0  0  0  0  0  0  0  0  0  0  0
    5.0131   -3.9443    0.0000 C   0  0  0  0  0  0  0  0  0  0  0  0
   -4.2888    0.0997    0.0000 C   0  0  0  0  0  0  0  0  0  0  0  0
   -3.3973    1.2512    0.0000 C   0  0  0  0  0  0  0  0  0  0  0  0
  1  8  2  0  0  0  0
  1  9  2  0  0  0  0
  1 30  1  0  0  0  0
  1 44  1  0  0  0  0
  2 29  1  0  0  0  0
  3 29  1  0  0  0  0
  4 39  1  0  0  0  0
  5 16  1  0  0  0  0
  5 26  1  0  0  0  0
  6 23  1  0  0  0  0
  6 29  1  0  0  0  0
  7 25  1  0  0  0  0
  7 29  1  0  0  0  0
 10 42  1  0  0  0  0
 11 17  1  0  0  0  0
 11 26  2  0  0  0  0
 12 13  1  0  0  0  0
 12 20  1  0  0  0  0
 12 43  1  0  0  0  0
 13 36  2  0  0  0  0
 14 45  3  0  0  0  0
 15 16  1  0  0  0  0
 15 18  1  0  0  0  0
 15 22  2  0  0  0  0
 16 17  2  0  0  0  0
 17 19  1  0  0  0  0
 18 20  1  0  0  0  0
 18 28  2  0  0  0  0
 19 27  1  0  0  0  0
 19 32  2  0  0  0  0
 20 33  2  0  0  0  0
 21 22  1  0  0  0  0
 21 24  1  0  0  0  0
 21 31  2  0  0  0  0
 23 25  1  0  0  0  0
 23 27  2  0  0  0  0
 24 34  1  0  0  0  0
 24 38  2  0  0  0  0
 25 37  2  0  0  0  0
 26 41  1  0  0  0  0
 28 31  1  0  0  0  0
 30 34  2  0  0  0  0
 30 35  1  0  0  0  0
 32 37  1  0  0  0  0
 33 36  1  0  0  0  0
 35 39  2  0  0  0  0
 35 42  1  0  0  0  0
 36 40  1  0  0  0  0
 38 39  1  0  0  0  0
 40 45  1  0  0  0  0
 40 46  1  0  0  0  0
M  END
> <PUBCHEM_COMPOUND_ID_TYPE>
0

> <PUBCHEM_TOTAL_CHARGE>
0

> <PUBCHEM_SUBSTANCE_ID>
310948073

> <PUBCHEM_SUBSTANCE_VERSION>
1

> <PUBCHEM_EXT_DATASOURCE_NAME>
4488

> <PUBCHEM_EXT_DATASOURCE_REGID>
SCHEMBL16126249

> <PUBCHEM_SUBSTANCE_COMMENT>
InChI=1S/C32H25F3N4O6S/c1-16(14-36)25-13-26(39(3)38-25)21-7-5-18(20-10-24(33)23(15-40)29(12-20)46(4,41)42)9-22(21)31-30(37-17(2)43-31)19-6-8-27-28(11-19)45-32(34,35)44-27/h5-13,16,40H,15H2,1-4H3
InChIKey=UQBFQKCRWHFLJZ-UHFFFAOYSA-N

> <PUBCHEM_SUBSTANCE_SYNONYM>
SCHEMBL16126249

> <PUBCHEM_XREF_EXT_ID>
SCHEMBL16126249

> <PUBCHEM_EXT_DATASOURCE_URL>
https://www.surechembl.org/

> <PUBCHEM_EXT_SUBSTANCE_URL>
https://www.surechembl.org/chemical/SCHEMBL16126249

> <PUBCHEM_CID_ASSOCIATIONS>
117613693  1

> <PUBCHEM_COORDINATE_TYPE>
1
3

$$$$
