310947095
  -OEChem-07211613022D

 36 37  0     1  0  0  0  0  0999 V2000
   -4.2868   -0.0724    0.0000 O   0  0  0  0  0  0  0  0  0  0  0  0
   -6.3832    1.2375    0.0000 O   0  0  0  0  0  0  0  0  0  0  0  0
   -2.1904    0.4125    0.0000 O   0  0  0  0  0  0  0  0  0  0  0  0
   -1.4760   -0.8250    0.0000 O   0  0  0  0  0  0  0  0  0  0  0  0
   -5.6687    0.0000    0.0000 N   0  0  0  0  0  0  0  0  0  0  0  0
   -7.0977    0.0000    0.0000 N   0  0  0  0  0  0  0  0  0  0  0  0
   -7.8121   -1.2375    0.0000 N   0  0  0  0  0  0  0  0  0  0  0  0
   -4.9543    0.4125    0.0000 C   0  0  3  0  0  0  0  0  0  0  0  0
   -6.3832    0.4125    0.0000 C   0  0  0  0  0  0  0  0  0  0  0  0
   -3.6194    0.4125    0.0000 C   0  0  3  0  0  0  0  0  0  0  0  0
   -4.6993    1.1971    0.0000 C   0  0  0  0  0  0  0  0  0  0  0  0
   -5.6687   -0.8250    0.0000 C   0  0  0  0  0  0  0  0  0  0  0  0
   -3.8743    1.1971    0.0000 C   0  0  0  0  0  0  0  0  0  0  0  0
   -7.0977   -0.8250    0.0000 C   0  0  0  0  0  0  0  0  0  0  0  0
   -6.3832   -1.2375    0.0000 C   0  0  0  0  0  0  0  0  0  0  0  0
   -2.9049    0.0000    0.0000 C   0  0  0  0  0  0  0  0  0  0  0  0
   -1.4760    0.0000    0.0000 C   0  0  0  0  0  0  0  0  0  0  0  0
   -0.7615    0.4125    0.0000 C   0  0  0  0  0  0  0  0  0  0  0  0
   -0.0470    0.0000    0.0000 C   0  0  0  0  0  0  0  0  0  0  0  0
   -0.0470   -0.8250    0.0000 C   0  0  0  0  0  0  0  0  0  0  0  0
    0.6674   -1.2375    0.0000 C   0  0  0  0  0  0  0  0  0  0  0  0
    1.3819   -0.8250    0.0000 C   0  0  0  0  0  0  0  0  0  0  0  0
    1.3819    0.0000    0.0000 C   0  0  0  0  0  0  0  0  0  0  0  0
    2.0964    0.4125    0.0000 C   0  0  0  0  0  0  0  0  0  0  0  0
    2.8109    0.0000    0.0000 C   0  0  0  0  0  0  0  0  0  0  0  0
    2.8109   -0.8250    0.0000 C   0  0  0  0  0  0  0  0  0  0  0  0
    3.5253   -1.2375    0.0000 C   0  0  0  0  0  0  0  0  0  0  0  0
    4.2398   -0.8250    0.0000 C   0  0  0  0  0  0  0  0  0  0  0  0
    4.2398    0.0000    0.0000 C   0  0  0  0  0  0  0  0  0  0  0  0
    4.9543    0.4125    0.0000 C   0  0  0  0  0  0  0  0  0  0  0  0
    5.6687    0.0000    0.0000 C   0  0  0  0  0  0  0  0  0  0  0  0
    5.6687   -0.8250    0.0000 C   0  0  0  0  0  0  0  0  0  0  0  0
    6.3832   -1.2375    0.0000 C   0  0  0  0  0  0  0  0  0  0  0  0
    7.0977   -0.8250    0.0000 C   0  0  0  0  0  0  0  0  0  0  0  0
    7.0977    0.0000    0.0000 C   0  0  0  0  0  0  0  0  0  0  0  0
    7.8121    0.4125    0.0000 C   0  0  0  0  0  0  0  0  0  0  0  0
  1  8  1  0  0  0  0
  1 10  1  0  0  0  0
  2  9  2  0  0  0  0
  3 16  1  0  0  0  0
  3 17  1  0  0  0  0
  4 17  2  0  0  0  0
  5  8  1  0  0  0  0
  5  9  1  0  0  0  0
  5 12  1  0  0  0  0
  6  9  1  0  0  0  0
  6 14  2  0  0  0  0
  7 14  1  0  0  0  0
  8 11  1  0  0  0  0
 10 13  1  0  0  0  0
 10 16  1  0  0  0  0
 11 13  1  0  0  0  0
 12 15  2  0  0  0  0
 14 15  1  0  0  0  0
 17 18  1  0  0  0  0
 18 19  1  0  0  0  0
 19 20  1  0  0  0  0
 20 21  1  0  0  0  0
 21 22  2  0  0  0  0
 22 23  1  0  0  0  0
 23 24  1  0  0  0  0
 24 25  2  0  0  0  0
 25 26  1  0  0  0  0
 26 27  1  0  0  0  0
 27 28  2  0  0  0  0
 28 29  1  0  0  0  0
 29 30  1  0  0  0  0
 30 31  2  0  0  0  0
 31 32  1  0  0  0  0
 32 33  1  0  0  0  0
 33 34  2  0  0  0  0
 34 35  1  0  0  0  0
 35 36  1  0  0  0  0
M  END
> <PUBCHEM_COMPOUND_ID_TYPE>
0

> <PUBCHEM_TOTAL_CHARGE>
0

> <PUBCHEM_SUBSTANCE_ID>
310947095

> <PUBCHEM_SUBSTANCE_VERSION>
1

> <PUBCHEM_EXT_DATASOURCE_NAME>
4488

> <PUBCHEM_EXT_DATASOURCE_REGID>
SCHEMBL16125249

> <PUBCHEM_SUBSTANCE_COMMENT>
InChI=1S/C29H41N3O4/c1-2-3-4-5-6-7-8-9-10-11-12-13-14-15-16-17-18-19-28(33)35-24-25-20-21-27(36-25)32-23-22-26(30)31-29(32)34/h3-4,6-7,9-10,12-13,15-16,22-23,25,27H,2,5,8,11,14,17-21,24H2,1H3,(H2,30,31,34)/b4-3-,7-6-,10-9-,13-12-,16-15-
InChIKey=VMEVVFWDRVXHRT-JLNKQSITSA-N

> <PUBCHEM_SUBSTANCE_SYNONYM>
SCHEMBL16125249

> <PUBCHEM_XREF_EXT_ID>
SCHEMBL16125249

> <PUBCHEM_EXT_DATASOURCE_URL>
https://www.surechembl.org/

> <PUBCHEM_EXT_SUBSTANCE_URL>
https://www.surechembl.org/chemical/SCHEMBL16125249

> <PUBCHEM_CID_ASSOCIATIONS>
117612947  1

> <PUBCHEM_COORDINATE_TYPE>
1
3

$$$$
