310946584
  -OEChem-07211613022D

 14 13  0     1  0  0  0  0  0999 V2000
    3.5285  -10.0075    0.0000 O   0  0  0  0  0  0  0  0  0  0  0  0
    3.5285  -12.4825    0.0000 O   0  0  0  0  0  0  0  0  0  0  0  0
    4.2429  -11.2450    0.0000 O   0  0  0  0  0  0  0  0  0  0  0  0
    2.8140   -8.7700    0.0000 O   0  0  0  0  0  0  0  0  0  0  0  0
    2.0995  -11.6575    0.0000 N   0  0  0  0  0  0  0  0  0  0  0  0
    2.8140  -10.4200    0.0000 C   0  0  3  0  0  0  0  0  0  0  0  0
    2.8140  -11.2450    0.0000 C   0  0  3  0  0  0  0  0  0  0  0  0
    3.5285  -11.6575    0.0000 C   0  0  0  0  0  0  0  0  0  0  0  0
    3.5285   -9.1825    0.0000 C   0  0  0  0  0  0  0  0  0  0  0  0
    4.2429   -8.7700    0.0000 C   0  0  0  0  0  0  0  0  0  0  0  0
    2.0995  -10.0075    0.0000 C   0  0  0  0  0  0  0  0  0  0  0  0
    4.9574   -9.1825    0.0000 C   0  0  0  0  0  0  0  0  0  0  0  0
    5.6719   -8.7700    0.0000 C   0  0  0  0  0  0  0  0  0  0  0  0
    6.3863   -9.1825    0.0000 C   0  0  0  0  0  0  0  0  0  0  0  0
  1  6  1  0  0  0  0
  1  9  1  0  0  0  0
  2  8  2  0  0  0  0
  3  8  1  0  0  0  0
  4  9  2  0  0  0  0
  5  7  1  0  0  0  0
  6  7  1  0  0  0  0
  6 11  1  0  0  0  0
  7  8  1  0  0  0  0
  9 10  1  0  0  0  0
 10 12  1  0  0  0  0
 12 13  1  0  0  0  0
 13 14  1  0  0  0  0
M  END
> <PUBCHEM_COMPOUND_ID_TYPE>
0

> <PUBCHEM_TOTAL_CHARGE>
0

> <PUBCHEM_SUBSTANCE_ID>
310946584

> <PUBCHEM_SUBSTANCE_VERSION>
1

> <PUBCHEM_EXT_DATASOURCE_NAME>
4488

> <PUBCHEM_EXT_DATASOURCE_REGID>
SCHEMBL16124705

> <PUBCHEM_SUBSTANCE_COMMENT>
InChI=1S/C9H17NO4/c1-3-4-5-7(11)14-6(2)8(10)9(12)13/h6,8H,3-5,10H2,1-2H3,(H,12,13)
InChIKey=CYCHFUJHSXNWFC-UHFFFAOYSA-N

> <PUBCHEM_SUBSTANCE_SYNONYM>
SCHEMBL16124705

> <PUBCHEM_XREF_EXT_ID>
SCHEMBL16124705

> <PUBCHEM_EXT_DATASOURCE_URL>
https://www.surechembl.org/

> <PUBCHEM_EXT_SUBSTANCE_URL>
https://www.surechembl.org/chemical/SCHEMBL16124705

> <PUBCHEM_CID_ASSOCIATIONS>
117612484  1

> <PUBCHEM_COORDINATE_TYPE>
1
3

$$$$
