310939616
  -OEChem-07211613022D

 33 36  0     1  0  0  0  0  0999 V2000
   -1.4289    1.0313    0.0000 O   0  0  0  0  0  0  0  0  0  0  0  0
    5.0013    2.2687    0.0000 O   0  0  0  0  0  0  0  0  0  0  0  0
    4.2868   -2.2687    0.0000 O   0  0  0  0  0  0  0  0  0  0  0  0
   -2.8579    0.2062    0.0000 O   0  0  0  0  0  0  0  0  0  0  0  0
    1.4289    0.2062    0.0000 N   0  0  0  0  0  0  0  0  0  0  0  0
    2.1434    1.4437    0.0000 N   0  0  0  0  0  0  0  0  0  0  0  0
    2.1434   -1.0313    0.0000 N   0  0  0  0  0  0  0  0  0  0  0  0
    3.5724    1.4437    0.0000 N   0  0  0  0  0  0  0  0  0  0  0  0
   -4.2868    1.0313    0.0000 N   0  0  0  0  0  0  0  0  0  0  0  0
    1.4289    1.0313    0.0000 C   0  0  0  0  0  0  0  0  0  0  0  0
    2.1434   -0.2062    0.0000 C   0  0  0  0  0  0  0  0  0  0  0  0
    2.8579    1.0313    0.0000 C   0  0  0  0  0  0  0  0  0  0  0  0
    0.7145    1.4437    0.0000 C   0  0  0  0  0  0  0  0  0  0  0  0
    2.8579    0.2062    0.0000 C   0  0  0  0  0  0  0  0  0  0  0  0
    2.8579   -1.4437    0.0000 C   0  0  0  0  0  0  0  0  0  0  0  0
    0.0000    1.0313    0.0000 C   0  0  0  0  0  0  0  0  0  0  0  0
    0.7145    2.2687    0.0000 C   0  0  0  0  0  0  0  0  0  0  0  0
   -0.7145    1.4437    0.0000 C   0  0  0  0  0  0  0  0  0  0  0  0
    4.2868    1.0313    0.0000 C   0  0  0  0  0  0  0  0  0  0  0  0
    3.5724    2.2687    0.0000 C   0  0  0  0  0  0  0  0  0  0  0  0
    2.8579   -2.2687    0.0000 C   0  0  0  0  0  0  0  0  0  0  0  0
    3.5724   -1.0312    0.0000 C   0  0  0  0  0  0  0  0  0  0  0  0
    0.0000    2.6812    0.0000 C   0  0  0  0  0  0  0  0  0  0  0  0
    1.4289   -1.4437    0.0000 C   0  0  0  0  0  0  0  0  0  0  0  0
   -0.7145    2.2687    0.0000 C   0  0  0  0  0  0  0  0  0  0  0  0
    5.0013    1.4437    0.0000 C   0  0  0  0  0  0  0  0  0  0  0  0
    4.2868    2.6812    0.0000 C   0  0  0  0  0  0  0  0  0  0  0  0
    3.5724   -2.6812    0.0000 C   0  0  0  0  0  0  0  0  0  0  0  0
    4.2868   -1.4437    0.0000 C   0  0  0  0  0  0  0  0  0  0  0  0
   -2.1434    1.4437    0.0000 C   0  0  0  0  0  0  0  0  0  0  0  0
   -2.8579    1.0313    0.0000 C   0  0  3  0  0  0  0  0  0  0  0  0
   -3.5724    1.4437    0.0000 C   0  0  0  0  0  0  0  0  0  0  0  0
   -5.0013    1.4437    0.0000 C   0  0  0  0  0  0  0  0  0  0  0  0
  1 18  1  0  0  0  0
  1 30  1  0  0  0  0
  2 26  1  0  0  0  0
  2 27  1  0  0  0  0
  3 28  1  0  0  0  0
  3 29  1  0  0  0  0
  4 31  1  0  0  0  0
  5 10  1  0  0  0  0
  5 11  2  0  0  0  0
  6 10  2  0  0  0  0
  6 12  1  0  0  0  0
  7 11  1  0  0  0  0
  7 15  1  0  0  0  0
  7 24  1  0  0  0  0
  8 12  1  0  0  0  0
  8 19  1  0  0  0  0
  8 20  1  0  0  0  0
  9 32  1  0  0  0  0
  9 33  1  0  0  0  0
 10 13  1  0  0  0  0
 11 14  1  0  0  0  0
 12 14  2  0  0  0  0
 13 16  2  0  0  0  0
 13 17  1  0  0  0  0
 15 21  1  0  0  0  0
 15 22  1  0  0  0  0
 16 18  1  0  0  0  0
 17 23  2  0  0  0  0
 18 25  2  0  0  0  0
 19 26  1  0  0  0  0
 20 27  1  0  0  0  0
 21 28  1  0  0  0  0
 22 29  1  0  0  0  0
 23 25  1  0  0  0  0
 30 31  1  0  0  0  0
 31 32  1  0  0  0  0
M  END
> <PUBCHEM_COMPOUND_ID_TYPE>
0

> <PUBCHEM_TOTAL_CHARGE>
0

> <PUBCHEM_SUBSTANCE_ID>
310939616

> <PUBCHEM_SUBSTANCE_VERSION>
1

> <PUBCHEM_EXT_DATASOURCE_NAME>
4488

> <PUBCHEM_EXT_DATASOURCE_REGID>
SCHEMBL16117546

> <PUBCHEM_SUBSTANCE_COMMENT>
InChI=1S/C24H35N5O4/c1-25-16-20(30)17-33-21-5-3-4-18(14-21)24-26-22(28(2)19-6-10-31-11-7-19)15-23(27-24)29-8-12-32-13-9-29/h3-5,14-15,19-20,25,30H,6-13,16-17H2,1-2H3
InChIKey=QEIYTUBEANTGOL-UHFFFAOYSA-N

> <PUBCHEM_SUBSTANCE_SYNONYM>
SCHEMBL16117546

> <PUBCHEM_XREF_EXT_ID>
SCHEMBL16117546

> <PUBCHEM_EXT_DATASOURCE_URL>
https://www.surechembl.org/

> <PUBCHEM_EXT_SUBSTANCE_URL>
https://www.surechembl.org/chemical/SCHEMBL16117546

> <PUBCHEM_CID_ASSOCIATIONS>
85472160  1

> <PUBCHEM_COORDINATE_TYPE>
1
3

$$$$
