310947724
  -OEChem-07211613022D

 21 22  0     1  0  0  0  0  0999 V2000
   -0.9259    1.7735    0.0000 S   0  0  0  0  0  0  0  0  0  0  0  0
   -1.5243    2.3414    0.0000 O   0  0  0  0  0  0  0  0  0  0  0  0
   -0.3274    1.2056    0.0000 O   0  0  0  0  0  0  0  0  0  0  0  0
   -2.0050   -1.6894    0.0000 N   0  0  0  0  0  0  0  0  0  0  0  0
   -2.8369    0.7188    0.0000 N   0  0  0  0  0  0  0  0  0  0  0  0
   -1.5201   -2.3568    0.0000 N   0  0  0  0  0  0  0  0  0  0  0  0
    0.6935   -1.2769    0.0000 N   0  0  3  0  0  0  0  0  0  0  0  0
    2.8369   -0.8644    0.0000 N   0  0  0  0  0  0  0  0  0  0  0  0
   -1.5201   -1.0220    0.0000 C   0  0  0  0  0  0  0  0  0  0  0  0
   -1.7750   -0.2373    0.0000 C   0  0  0  0  0  0  0  0  0  0  0  0
   -1.4779    1.1604    0.0000 C   0  0  0  0  0  0  0  0  0  0  0  0
   -0.7354   -1.2769    0.0000 C   0  0  0  0  0  0  0  0  0  0  0  0
   -1.2230    0.3758    0.0000 C   0  0  0  0  0  0  0  0  0  0  0  0
   -2.5820   -0.0658    0.0000 C   0  0  0  0  0  0  0  0  0  0  0  0
   -2.2849    1.3319    0.0000 C   0  0  0  0  0  0  0  0  0  0  0  0
   -0.7354   -2.1019    0.0000 C   0  0  0  0  0  0  0  0  0  0  0  0
   -0.0210   -0.8644    0.0000 C   0  0  0  0  0  0  0  0  0  0  0  0
   -0.3425    2.3568    0.0000 C   0  0  0  0  0  0  0  0  0  0  0  0
    1.4080   -0.8644    0.0000 C   0  0  0  0  0  0  0  0  0  0  0  0
    0.6935   -2.1019    0.0000 C   0  0  0  0  0  0  0  0  0  0  0  0
    2.1224   -1.2769    0.0000 C   0  0  0  0  0  0  0  0  0  0  0  0
  1  2  2  0  0  0  0
  1  3  2  0  0  0  0
  1 11  1  0  0  0  0
  1 18  1  0  0  0  0
  4  6  1  0  0  0  0
  4  9  2  0  0  0  0
  5 14  2  0  0  0  0
  5 15  1  0  0  0  0
  6 16  1  0  0  0  0
  7 17  1  0  0  0  0
  7 19  1  0  0  0  0
  7 20  1  0  0  0  0
  8 21  1  0  0  0  0
  9 10  1  0  0  0  0
  9 12  1  0  0  0  0
 10 13  2  0  0  0  0
 10 14  1  0  0  0  0
 11 13  1  0  0  0  0
 11 15  2  0  0  0  0
 12 16  2  0  0  0  0
 12 17  1  0  0  0  0
 19 21  1  0  0  0  0
M  END
> <PUBCHEM_COMPOUND_ID_TYPE>
0

> <PUBCHEM_TOTAL_CHARGE>
0

> <PUBCHEM_SUBSTANCE_ID>
310947724

> <PUBCHEM_SUBSTANCE_VERSION>
1

> <PUBCHEM_EXT_DATASOURCE_NAME>
4488

> <PUBCHEM_EXT_DATASOURCE_REGID>
SCHEMBL16125896

> <PUBCHEM_SUBSTANCE_COMMENT>
InChI=1S/C13H19N5O2S/c1-18(4-3-14)9-11-7-16-17-13(11)10-5-12(8-15-6-10)21(2,19)20/h5-8H,3-4,9,14H2,1-2H3,(H,16,17)
InChIKey=HMMORVDKKJQYEA-UHFFFAOYSA-N

> <PUBCHEM_SUBSTANCE_SYNONYM>
SCHEMBL16125896

> <PUBCHEM_XREF_EXT_ID>
SCHEMBL16125896

> <PUBCHEM_EXT_DATASOURCE_URL>
https://www.surechembl.org/

> <PUBCHEM_EXT_SUBSTANCE_URL>
https://www.surechembl.org/chemical/SCHEMBL16125896

> <PUBCHEM_CID_ASSOCIATIONS>
86301371  1

> <PUBCHEM_COORDINATE_TYPE>
1
3

$$$$
