310946615
  -OEChem-07211613022D

 26 25  0     1  0  0  0  0  0999 V2000
   -6.4286   16.0328    0.0000 S   0  0  0  0  0  0  0  0  0  0  0  0
   -5.7141   13.9703    0.0000 O   0  0  0  0  0  0  0  0  0  0  0  0
   -9.2864   13.5578    0.0000 O   0  0  0  0  0  0  0  0  0  0  0  0
   -6.4286   12.7328    0.0000 O   0  0  0  0  0  0  0  0  0  0  0  0
   -8.5720   14.7953    0.0000 O   0  0  0  0  0  0  0  0  0  0  0  0
  -10.0009   11.4953    0.0000 O   0  0  0  0  0  0  0  0  0  0  0  0
  -10.0009    9.8453    0.0000 O   0  0  0  0  0  0  0  0  0  0  0  0
   -8.5720    9.8453    0.0000 O   0  5  0  0  0  0  0  0  0  0  0  0
   -9.2864   11.0828    0.0000 O   0  0  0  0  0  0  0  0  0  0  0  0
   -7.8575   13.5578    0.0000 N   0  0  0  0  0  0  0  0  0  0  0  0
   -9.2864   10.2578    0.0000 N   0  3  0  0  0  0  0  0  0  0  0  0
   -7.1430   13.9703    0.0000 C   0  0  3  0  0  0  0  0  0  0  0  0
   -6.4286   13.5578    0.0000 C   0  0  0  0  0  0  0  0  0  0  0  0
   -8.5720   13.9703    0.0000 C   0  0  0  0  0  0  0  0  0  0  0  0
   -7.1430   14.7953    0.0000 C   0  0  0  0  0  0  0  0  0  0  0  0
   -6.4286   15.2078    0.0000 C   0  0  0  0  0  0  0  0  0  0  0  0
   -4.9996   13.5578    0.0000 C   0  0  0  0  0  0  0  0  0  0  0  0
   -9.2864   12.7328    0.0000 C   0  0  0  0  0  0  0  0  0  0  0  0
  -10.0009   12.3203    0.0000 C   0  0  0  0  0  0  0  0  0  0  0  0
   -4.2851   13.9703    0.0000 C   0  0  0  0  0  0  0  0  0  0  0  0
  -10.7154   11.0828    0.0000 C   0  0  0  0  0  0  0  0  0  0  0  0
  -10.7154   10.2578    0.0000 C   0  0  0  0  0  0  0  0  0  0  0  0
   -3.5707   13.5578    0.0000 C   0  0  0  0  0  0  0  0  0  0  0  0
   -5.7141   16.4453    0.0000 C   0  0  0  0  0  0  0  0  0  0  0  0
   -2.8562   13.9703    0.0000 C   0  0  0  0  0  0  0  0  0  0  0  0
   -2.1417   13.5578    0.0000 C   0  0  0  0  0  0  0  0  0  0  0  0
  1 16  1  0  0  0  0
  1 24  1  0  0  0  0
  2 13  1  0  0  0  0
  2 17  1  0  0  0  0
  3 14  1  0  0  0  0
  3 18  1  0  0  0  0
  4 13  2  0  0  0  0
  5 14  2  0  0  0  0
  6 19  1  0  0  0  0
  6 21  1  0  0  0  0
  7 11  1  0  0  0  0
  7 22  1  0  0  0  0
  8 11  1  0  0  0  0
  9 11  2  0  0  0  0
 10 12  1  0  0  0  0
 10 14  1  0  0  0  0
 12 13  1  0  0  0  0
 12 15  1  0  0  0  0
 15 16  1  0  0  0  0
 17 20  1  0  0  0  0
 18 19  1  0  0  0  0
 20 23  1  0  0  0  0
 21 22  1  0  0  0  0
 23 25  1  0  0  0  0
 25 26  1  0  0  0  0
M  CHG  2   8  -1  11   1
M  END
> <PUBCHEM_COMPOUND_ID_TYPE>
0

> <PUBCHEM_TOTAL_CHARGE>
0

> <PUBCHEM_SUBSTANCE_ID>
310946615

> <PUBCHEM_SUBSTANCE_VERSION>
1

> <PUBCHEM_EXT_DATASOURCE_NAME>
4488

> <PUBCHEM_EXT_DATASOURCE_REGID>
SCHEMBL16124736

> <PUBCHEM_SUBSTANCE_COMMENT>
InChI=1S/C15H28N2O8S/c1-3-4-5-7-23-14(18)13(6-12-26-2)16-15(19)24-10-8-22-9-11-25-17(20)21/h13H,3-12H2,1-2H3,(H,16,19)
InChIKey=ODXWVMUZFOZNMP-UHFFFAOYSA-N

> <PUBCHEM_SUBSTANCE_SYNONYM>
SCHEMBL16124736

> <PUBCHEM_XREF_EXT_ID>
SCHEMBL16124736

> <PUBCHEM_EXT_DATASOURCE_URL>
https://www.surechembl.org/

> <PUBCHEM_EXT_SUBSTANCE_URL>
https://www.surechembl.org/chemical/SCHEMBL16124736

> <PUBCHEM_CID_ASSOCIATIONS>
117612515  1

> <PUBCHEM_COORDINATE_TYPE>
1
3

$$$$
