310940844
  -OEChem-07211613022D

 43 46  0     1  0  0  0  0  0999 V2000
    5.0782    0.6686    0.0000 O   0  0  0  0  0  0  0  0  0  0  0  0
    3.9402   -1.2802    0.0000 O   0  0  0  0  0  0  0  0  0  0  0  0
    1.7781    0.7824    0.0000 O   0  0  0  0  0  0  0  0  0  0  0  0
    0.3414   -1.6928    0.0000 O   0  0  0  0  0  0  0  0  0  0  0  0
   -0.3698   -1.2802    0.0000 O   0  0  0  0  0  0  0  0  0  0  0  0
    3.9402   -2.9303    0.0000 O   0  0  0  0  0  0  0  0  0  0  0  0
   -2.5319    0.7824    0.0000 O   0  0  0  0  0  0  0  0  0  0  0  0
   -5.4054    0.7824    0.0000 O   0  0  0  0  0  0  0  0  0  0  0  0
    2.5035   -0.4694    0.0000 N   0  0  0  0  0  0  0  0  0  0  0  0
    0.3556   -0.0569    0.0000 N   0  0  0  0  0  0  0  0  0  0  0  0
   -1.8065   -0.4694    0.0000 N   0  0  0  0  0  0  0  0  0  0  0  0
   -3.9686   -0.0569    0.0000 N   0  0  0  0  0  0  0  0  0  0  0  0
    4.6657   -0.0143    0.0000 C   0  0  3  0  0  0  0  0  0  0  0  0
    3.9545   -0.4125    0.0000 C   0  0  0  0  0  0  0  0  0  0  0  0
    4.2674    0.6827    0.0000 C   0  0  0  0  0  0  0  0  0  0  0  0
    3.2290   -0.0284    0.0000 C   0  0  3  0  0  0  0  0  0  0  0  0
    5.4054   -0.4268    0.0000 C   0  0  0  0  0  0  0  0  0  0  0  0
    1.7923   -0.0427    0.0000 C   0  0  0  0  0  0  0  0  0  0  0  0
    1.0811   -0.4268    0.0000 C   0  0  3  0  0  0  0  0  0  0  0  0
    3.2290    1.2802    0.0000 C   0  0  0  0  0  0  0  0  0  0  0  0
    1.0668   -1.2660    0.0000 C   0  0  3  0  0  0  0  0  0  0  0  0
    2.5035    1.7212    0.0000 C   0  0  0  0  0  0  0  0  0  0  0  0
    1.8065   -1.6785    0.0000 C   0  0  0  0  0  0  0  0  0  0  0  0
   -0.3556   -0.4125    0.0000 C   0  0  0  0  0  0  0  0  0  0  0  0
    2.4893   -1.2802    0.0000 C   0  0  0  0  0  0  0  0  0  0  0  0
    1.8065   -2.5035    0.0000 C   0  0  0  0  0  0  0  0  0  0  0  0
   -1.0953   -0.0284    0.0000 C   0  0  3  0  0  0  0  0  0  0  0  0
    1.7923    1.3087    0.0000 C   0  0  0  0  0  0  0  0  0  0  0  0
    2.5035    2.5319    0.0000 C   0  0  0  0  0  0  0  0  0  0  0  0
    3.2290   -2.4893    0.0000 C   0  0  0  0  0  0  0  0  0  0  0  0
    3.2290   -1.6928    0.0000 C   0  0  0  0  0  0  0  0  0  0  0  0
    2.5035   -2.9018    0.0000 C   0  0  0  0  0  0  0  0  0  0  0  0
    1.0811    1.7069    0.0000 C   0  0  0  0  0  0  0  0  0  0  0  0
    1.7781    2.9303    0.0000 C   0  0  0  0  0  0  0  0  0  0  0  0
   -2.5319   -0.0427    0.0000 C   0  0  0  0  0  0  0  0  0  0  0  0
    1.0811    2.5319    0.0000 C   0  0  0  0  0  0  0  0  0  0  0  0
   -1.0668    0.8250    0.0000 C   0  0  0  0  0  0  0  0  0  0  0  0
   -3.2148   -0.4268    0.0000 C   0  0  0  0  0  0  0  0  0  0  0  0
   -3.9545    0.7966    0.0000 C   0  0  0  0  0  0  0  0  0  0  0  0
   -4.6515   -0.4268    0.0000 C   0  0  0  0  0  0  0  0  0  0  0  0
    4.6515   -2.4893    0.0000 C   0  0  0  0  0  0  0  0  0  0  0  0
   -4.7083    1.2091    0.0000 C   0  0  0  0  0  0  0  0  0  0  0  0
   -5.3769   -0.0284    0.0000 C   0  0  0  0  0  0  0  0  0  0  0  0
  1 13  1  0  0  0  0
  1 15  1  0  0  0  0
  2 14  2  0  0  0  0
  3 18  2  0  0  0  0
  4 21  1  0  0  0  0
  5 24  2  0  0  0  0
  6 30  1  0  0  0  0
  6 41  1  0  0  0  0
  7 35  2  0  0  0  0
  8 42  1  0  0  0  0
  8 43  1  0  0  0  0
  9 16  1  0  0  0  0
  9 18  1  0  0  0  0
 10 19  1  0  0  0  0
 10 24  1  0  0  0  0
 11 27  1  0  0  0  0
 11 35  1  0  0  0  0
 12 38  1  0  0  0  0
 12 39  1  0  0  0  0
 12 40  1  0  0  0  0
 13 14  1  0  0  0  0
 13 15  1  0  0  0  0
 13 17  1  0  0  0  0
 14 16  1  0  0  0  0
 16 20  1  0  0  0  0
 18 19  1  0  0  0  0
 19 21  1  0  0  0  0
 20 22  1  0  0  0  0
 21 23  1  0  0  0  0
 22 28  2  0  0  0  0
 22 29  1  0  0  0  0
 23 25  2  0  0  0  0
 23 26  1  0  0  0  0
 24 27  1  0  0  0  0
 25 31  1  0  0  0  0
 26 32  2  0  0  0  0
 27 37  1  0  0  0  0
 28 33  1  0  0  0  0
 29 34  1  0  0  0  0
 30 31  2  0  0  0  0
 30 32  1  0  0  0  0
 33 36  1  0  0  0  0
 34 36  1  0  0  0  0
 35 38  1  0  0  0  0
 39 42  1  0  0  0  0
 40 43  1  0  0  0  0
M  END
> <PUBCHEM_COMPOUND_ID_TYPE>
0

> <PUBCHEM_TOTAL_CHARGE>
0

> <PUBCHEM_SUBSTANCE_ID>
310940844

> <PUBCHEM_SUBSTANCE_VERSION>
1

> <PUBCHEM_EXT_DATASOURCE_NAME>
4488

> <PUBCHEM_EXT_DATASOURCE_REGID>
SCHEMBL16118803

> <PUBCHEM_SUBSTANCE_COMMENT>
InChI=1S/C31H44N4O8/c1-20(32-25(36)18-35-13-15-42-16-14-35)29(39)34-26(27(37)22-9-11-23(41-3)12-10-22)30(40)33-24(28(38)31(2)19-43-31)17-21-7-5-4-6-8-21/h7,9-12,20,24,26-27,37H,4-6,8,13-19H2,1-3H3,(H,32,36)(H,33,40)(H,34,39)
InChIKey=HPONCKDIQFBPEM-UHFFFAOYSA-N

> <PUBCHEM_SUBSTANCE_SYNONYM>
SCHEMBL16118803

> <PUBCHEM_XREF_EXT_ID>
SCHEMBL16118803

> <PUBCHEM_EXT_DATASOURCE_URL>
https://www.surechembl.org/

> <PUBCHEM_EXT_SUBSTANCE_URL>
https://www.surechembl.org/chemical/SCHEMBL16118803

> <PUBCHEM_CID_ASSOCIATIONS>
86295702  1

> <PUBCHEM_COORDINATE_TYPE>
1
3

$$$$
