310933169
  -OEChem-07211613022D

 34 37  0     1  0  0  0  0  0999 V2000
    0.0000    0.0000    0.0000 F   0  0  0  0  0  0  0  0  0  0  0  0
    0.0306   -1.4400    0.0000 F   0  0  0  0  0  0  0  0  0  0  0  0
    0.8272    0.0000    0.0000 F   0  0  0  0  0  0  0  0  0  0  0  0
    6.0970   -3.9523    0.0000 O   0  0  0  0  0  0  0  0  0  0  0  0
    0.6127   -5.0553    0.0000 O   0  0  0  0  0  0  0  0  0  0  0  0
    3.9829   -1.8995    0.0000 O   0  0  0  0  0  0  0  0  0  0  0  0
    4.4731   -5.9744    0.0000 O   0  0  0  0  0  0  0  0  0  0  0  0
    5.8212   -5.5455    0.0000 O   0  0  0  0  0  0  0  0  0  0  0  0
    4.7796   -4.5957    0.0000 N   0  0  0  0  0  0  0  0  0  0  0  0
    4.7796   -3.2783    0.0000 N   0  0  0  0  0  0  0  0  0  0  0  0
    1.0111   -5.7599    0.0000 N   0  0  0  0  0  0  0  0  0  0  0  0
    1.8689   -2.3285    0.0000 N   0  0  0  0  0  0  0  0  0  0  0  0
    4.0136   -3.5234    0.0000 C   0  0  0  0  0  0  0  0  0  0  0  0
    4.0136   -4.3506    0.0000 C   0  0  0  0  0  0  0  0  0  0  0  0
    3.2783   -3.1251    0.0000 C   0  0  0  0  0  0  0  0  0  0  0  0
    2.6042   -4.3506    0.0000 C   0  0  0  0  0  0  0  0  0  0  0  0
    5.2697   -3.9523    0.0000 C   0  0  0  0  0  0  0  0  0  0  0  0
    3.2783   -4.7489    0.0000 C   0  0  0  0  0  0  0  0  0  0  0  0
    2.6042   -3.5234    0.0000 C   0  0  0  0  0  0  0  0  0  0  0  0
    1.8995   -4.7796    0.0000 C   0  0  0  0  0  0  0  0  0  0  0  0
    3.2783   -2.2979    0.0000 C   0  0  3  0  0  0  0  0  0  0  0  0
    5.0246   -5.3616    0.0000 C   0  0  0  0  0  0  0  0  0  0  0  0
    2.5736   -1.8995    0.0000 C   0  0  0  0  0  0  0  0  0  0  0  0
    1.1336   -4.4425    0.0000 C   0  0  0  0  0  0  0  0  0  0  0  0
    1.8076   -5.5761    0.0000 C   0  0  0  0  0  0  0  0  0  0  0  0
    2.5736   -1.0723    0.0000 C   0  0  0  0  0  0  0  0  0  0  0  0
    1.1643   -1.1030    0.0000 C   0  0  0  0  0  0  0  0  0  0  0  0
    1.1336   -1.9302    0.0000 C   0  0  0  0  0  0  0  0  0  0  0  0
    1.8383   -0.7047    0.0000 C   0  0  0  0  0  0  0  0  0  0  0  0
    0.4289   -0.7047    0.0000 C   0  0  0  0  0  0  0  0  0  0  0  0
    6.4953   -3.2476    0.0000 C   0  0  0  0  0  0  0  0  0  0  0  0
    0.9498   -3.6459    0.0000 C   0  0  0  0  0  0  0  0  0  0  0  0
    2.4204   -6.1276    0.0000 C   0  0  0  0  0  0  0  0  0  0  0  0
    6.0970   -2.5123    0.0000 C   0  0  0  0  0  0  0  0  0  0  0  0
  1 30  1  0  0  0  0
  2 30  1  0  0  0  0
  3 30  1  0  0  0  0
  4 17  1  0  0  0  0
  4 31  1  0  0  0  0
  5 11  1  0  0  0  0
  5 24  1  0  0  0  0
  6 21  1  0  0  0  0
  7 22  2  0  0  0  0
  8 22  1  0  0  0  0
  9 14  1  0  0  0  0
  9 17  1  0  0  0  0
  9 22  1  0  0  0  0
 10 13  1  0  0  0  0
 10 17  2  0  0  0  0
 11 25  2  0  0  0  0
 12 23  1  0  0  0  0
 12 28  2  0  0  0  0
 13 14  2  0  0  0  0
 13 15  1  0  0  0  0
 14 18  1  0  0  0  0
 15 19  2  0  0  0  0
 15 21  1  0  0  0  0
 16 18  2  0  0  0  0
 16 19  1  0  0  0  0
 16 20  1  0  0  0  0
 20 24  2  0  0  0  0
 20 25  1  0  0  0  0
 21 23  1  0  0  0  0
 23 26  2  0  0  0  0
 24 32  1  0  0  0  0
 25 33  1  0  0  0  0
 26 29  1  0  0  0  0
 27 28  1  0  0  0  0
 27 29  2  0  0  0  0
 27 30  1  0  0  0  0
 31 34  1  0  0  0  0
M  END
> <PUBCHEM_COMPOUND_ID_TYPE>
0

> <PUBCHEM_TOTAL_CHARGE>
0

> <PUBCHEM_SUBSTANCE_ID>
310933169

> <PUBCHEM_SUBSTANCE_VERSION>
1

> <PUBCHEM_EXT_DATASOURCE_NAME>
4488

> <PUBCHEM_EXT_DATASOURCE_REGID>
SCHEMBL16110578

> <PUBCHEM_SUBSTANCE_COMMENT>
InChI=1S/C22H19F3N4O5/c1-4-33-20-27-18-14(19(30)15-6-5-13(9-26-15)22(23,24)25)7-12(8-16(18)29(20)21(31)32)17-10(2)28-34-11(17)3/h5-9,19,30H,4H2,1-3H3,(H,31,32)
InChIKey=ZLVPJWPRWMTQSF-UHFFFAOYSA-N

> <PUBCHEM_SUBSTANCE_SYNONYM>
SCHEMBL16110578

> <PUBCHEM_XREF_EXT_ID>
SCHEMBL16110578

> <PUBCHEM_EXT_DATASOURCE_URL>
https://www.surechembl.org/

> <PUBCHEM_EXT_SUBSTANCE_URL>
https://www.surechembl.org/chemical/SCHEMBL16110578

> <PUBCHEM_CID_ASSOCIATIONS>
117601617  1

> <PUBCHEM_COORDINATE_TYPE>
1
3

$$$$
