310942365
  -OEChem-07211613022D

 23 24  0     1  0  0  0  0  0999 V2000
   -1.3720    1.3265    0.0000 Cl  0  0  0  0  0  0  0  0  0  0  0  0
   -2.2443    0.1636    0.0000 O   0  0  0  0  0  0  0  0  0  0  0  0
   -1.8081   -1.1994    0.0000 O   0  0  0  0  0  0  0  0  0  0  0  0
    0.4997   -0.1454    0.0000 N   0  0  0  0  0  0  0  0  0  0  0  0
    1.2448   -0.4725    0.0000 N   0  0  0  0  0  0  0  0  0  0  0  0
    3.1892    1.0722    0.0000 N   0  0  0  0  0  0  0  0  0  0  0  0
    0.2453    0.6542    0.0000 C   0  0  0  0  0  0  0  0  0  0  0  0
   -0.8450   -0.1090    0.0000 C   0  0  0  0  0  0  0  0  0  0  0  0
   -0.1545   -0.6178    0.0000 C   0  0  0  0  0  0  0  0  0  0  0  0
   -0.5906    0.6723    0.0000 C   0  0  0  0  0  0  0  0  0  0  0  0
    0.7178    1.3447    0.0000 C   0  0  3  0  0  0  0  0  0  0  0  0
   -1.6083   -0.3634    0.0000 C   0  0  0  0  0  0  0  0  0  0  0  0
   -0.0818   -1.4356    0.0000 C   0  0  0  0  0  0  0  0  0  0  0  0
    1.5356    1.2357    0.0000 C   0  0  3  0  0  0  0  0  0  0  0  0
    1.3538   -1.2902    0.0000 C   0  0  0  0  0  0  0  0  0  0  0  0
    0.6815   -1.7809    0.0000 C   0  0  0  0  0  0  0  0  0  0  0  0
    0.5179    1.7809    0.0000 C   0  0  0  0  0  0  0  0  0  0  0  0
    1.8990    0.4907    0.0000 C   0  0  0  0  0  0  0  0  0  0  0  0
    1.9717    1.7627    0.0000 C   0  0  0  0  0  0  0  0  0  0  0  0
   -3.0074   -0.0908    0.0000 C   0  0  0  0  0  0  0  0  0  0  0  0
    2.7167    0.3998    0.0000 C   0  0  0  0  0  0  0  0  0  0  0  0
   -3.1892   -0.9086    0.0000 C   0  0  0  0  0  0  0  0  0  0  0  0
    2.8803    1.7809    0.0000 C   0  0  0  0  0  0  0  0  0  0  0  0
  1 10  1  0  0  0  0
  2 12  1  0  0  0  0
  2 20  1  0  0  0  0
  3 12  2  0  0  0  0
  4  5  1  0  0  0  0
  4  7  1  0  0  0  0
  4  9  1  0  0  0  0
  5 15  2  0  0  0  0
  6 21  1  0  0  0  0
  6 23  1  0  0  0  0
  7 10  2  0  0  0  0
  7 11  1  0  0  0  0
  8  9  2  0  0  0  0
  8 10  1  0  0  0  0
  8 12  1  0  0  0  0
  9 13  1  0  0  0  0
 11 14  1  0  0  0  0
 11 17  1  0  0  0  0
 13 16  2  0  0  0  0
 14 18  1  0  0  0  0
 14 19  1  0  0  0  0
 15 16  1  0  0  0  0
 18 21  1  0  0  0  0
 20 22  1  0  0  0  0
M  END
> <PUBCHEM_COMPOUND_ID_TYPE>
0

> <PUBCHEM_TOTAL_CHARGE>
0

> <PUBCHEM_SUBSTANCE_ID>
310942365

> <PUBCHEM_SUBSTANCE_VERSION>
1

> <PUBCHEM_EXT_DATASOURCE_NAME>
4488

> <PUBCHEM_EXT_DATASOURCE_REGID>
SCHEMBL16120401

> <PUBCHEM_SUBSTANCE_COMMENT>
InChI=1S/C17H24ClN3O2/c1-5-23-17(22)14-13-7-6-9-20-21(13)16(15(14)18)12(3)11(2)8-10-19-4/h6-7,9,11-12,19H,5,8,10H2,1-4H3
InChIKey=KCBYCWNTAPFNNV-UHFFFAOYSA-N

> <PUBCHEM_SUBSTANCE_SYNONYM>
SCHEMBL16120401

> <PUBCHEM_XREF_EXT_ID>
SCHEMBL16120401

> <PUBCHEM_EXT_DATASOURCE_URL>
https://www.surechembl.org/

> <PUBCHEM_EXT_SUBSTANCE_URL>
https://www.surechembl.org/chemical/SCHEMBL16120401

> <PUBCHEM_CID_ASSOCIATIONS>
117608983  1

> <PUBCHEM_COORDINATE_TYPE>
1
3

$$$$
