310947043
  -OEChem-07211613022D

 43 46  0     1  0  0  0  0  0999 V2000
   -4.6509    5.1798    0.0000 F   0  0  0  0  0  0  0  0  0  0  0  0
   -6.0798    4.3548    0.0000 O   0  0  0  0  0  0  0  0  0  0  0  0
   -4.6509    1.8799    0.0000 O   0  0  0  0  0  0  0  0  0  0  0  0
   -2.5074    6.4174    0.0000 O   0  0  0  0  0  0  0  0  0  0  0  0
   -1.0785    5.5924    0.0000 O   0  0  0  0  0  0  0  0  0  0  0  0
    3.4996    6.8637    0.0000 O   0  0  0  0  0  0  0  0  0  0  0  0
    4.3246    5.4348    0.0000 O   0  0  0  0  0  0  0  0  0  0  0  0
   -3.2219    4.3548    0.0000 N   0  0  0  0  0  0  0  0  0  0  0  0
   -1.7930    4.3548    0.0000 N   0  0  0  0  0  0  0  0  0  0  0  0
   -0.3640    4.3548    0.0000 N   0  0  0  0  0  0  0  0  0  0  0  0
   -0.3640    2.7049    0.0000 N   0  0  0  0  0  0  0  0  0  0  0  0
    1.8495    5.4348    0.0000 N   0  0  0  0  0  0  0  0  0  0  0  0
    2.3345    4.7673    0.0000 N   0  0  0  0  0  0  0  0  0  0  0  0
   -3.9364    3.9423    0.0000 C   0  0  0  0  0  0  0  0  0  0  0  0
   -2.5074    3.9423    0.0000 C   0  0  0  0  0  0  0  0  0  0  0  0
   -1.0785    3.9423    0.0000 C   0  0  0  0  0  0  0  0  0  0  0  0
   -1.0785    3.1172    0.0000 C   0  0  0  0  0  0  0  0  0  0  0  0
   -4.6509    4.3548    0.0000 C   0  0  0  0  0  0  0  0  0  0  0  0
    0.3504    3.9423    0.0000 C   0  0  0  0  0  0  0  0  0  0  0  0
   -5.3654    3.9423    0.0000 C   0  0  0  0  0  0  0  0  0  0  0  0
   -3.9364    3.1172    0.0000 C   0  0  0  0  0  0  0  0  0  0  0  0
   -2.5074    3.1172    0.0000 C   0  0  0  0  0  0  0  0  0  0  0  0
    1.0649    4.3548    0.0000 C   0  0  0  0  0  0  0  0  0  0  0  0
   -1.7930    2.7049    0.0000 C   0  0  0  0  0  0  0  0  0  0  0  0
   -4.6509    2.7049    0.0000 C   0  0  0  0  0  0  0  0  0  0  0  0
   -3.2219    5.1798    0.0000 C   0  0  0  0  0  0  0  0  0  0  0  0
    0.3504    3.1172    0.0000 C   0  0  0  0  0  0  0  0  0  0  0  0
   -5.3654    3.1172    0.0000 C   0  0  0  0  0  0  0  0  0  0  0  0
    1.0649    5.1798    0.0000 C   0  0  0  0  0  0  0  0  0  0  0  0
   -2.5074    5.5924    0.0000 C   0  0  3  0  0  0  0  0  0  0  0  0
    1.8495    4.0999    0.0000 C   0  0  0  0  0  0  0  0  0  0  0  0
    2.2620    6.1492    0.0000 C   0  0  0  0  0  0  0  0  0  0  0  0
   -1.7930    5.1798    0.0000 C   0  0  0  0  0  0  0  0  0  0  0  0
    3.0871    6.1492    0.0000 C   0  0  3  0  0  0  0  0  0  0  0  0
   -6.7943    3.9423    0.0000 C   0  0  0  0  0  0  0  0  0  0  0  0
   -5.3654    1.4673    0.0000 C   0  0  0  0  0  0  0  0  0  0  0  0
    3.4996    5.4348    0.0000 C   0  0  0  0  0  0  0  0  0  0  0  0
   -1.0785    6.4174    0.0000 C   0  0  0  0  0  0  0  0  0  0  0  0
    4.7371    6.1492    0.0000 C   0  0  0  0  0  0  0  0  0  0  0  0
   -0.3640    6.8299    0.0000 C   0  0  0  0  0  0  0  0  0  0  0  0
   -1.7930    6.8299    0.0000 C   0  0  0  0  0  0  0  0  0  0  0  0
    5.5621    6.1492    0.0000 C   0  0  0  0  0  0  0  0  0  0  0  0
    4.3246    6.8637    0.0000 C   0  0  0  0  0  0  0  0  0  0  0  0
  1 18  1  0  0  0  0
  2 20  1  0  0  0  0
  2 35  1  0  0  0  0
  3 25  1  0  0  0  0
  3 36  1  0  0  0  0
  4 30  1  0  0  0  0
  5 33  1  0  0  0  0
  5 38  1  0  0  0  0
  6 34  1  0  0  0  0
  7 37  1  0  0  0  0
  7 39  1  0  0  0  0
  8 14  1  0  0  0  0
  8 15  1  0  0  0  0
  8 26  1  0  0  0  0
  9 15  2  0  0  0  0
  9 16  1  0  0  0  0
 10 16  2  0  0  0  0
 10 19  1  0  0  0  0
 11 17  2  0  0  0  0
 11 27  1  0  0  0  0
 12 13  1  0  0  0  0
 12 29  1  0  0  0  0
 12 32  1  0  0  0  0
 13 31  2  0  0  0  0
 14 18  2  0  0  0  0
 14 21  1  0  0  0  0
 15 22  1  0  0  0  0
 16 17  1  0  0  0  0
 17 24  1  0  0  0  0
 18 20  1  0  0  0  0
 19 23  1  0  0  0  0
 19 27  2  0  0  0  0
 20 28  2  0  0  0  0
 21 25  2  0  0  0  0
 22 24  2  0  0  0  0
 23 29  2  0  0  0  0
 23 31  1  0  0  0  0
 25 28  1  0  0  0  0
 26 30  1  0  0  0  0
 30 33  1  0  0  0  0
 32 34  1  0  0  0  0
 34 37  1  0  0  0  0
 38 40  1  0  0  0  0
 38 41  1  0  0  0  0
 39 42  1  0  0  0  0
 39 43  1  0  0  0  0
M  END
> <PUBCHEM_COMPOUND_ID_TYPE>
0

> <PUBCHEM_TOTAL_CHARGE>
0

> <PUBCHEM_SUBSTANCE_ID>
310947043

> <PUBCHEM_SUBSTANCE_VERSION>
1

> <PUBCHEM_EXT_DATASOURCE_NAME>
4488

> <PUBCHEM_EXT_DATASOURCE_REGID>
SCHEMBL16125196

> <PUBCHEM_SUBSTANCE_COMMENT>
InChI=1S/C30H39FN6O6/c1-18(2)42-16-21(38)14-36-13-20(11-33-36)25-12-32-24-7-8-28(35-30(24)34-25)37(15-22(39)17-43-19(3)4)26-9-23(40-5)10-27(41-6)29(26)31/h7-13,18-19,21-22,38-39H,14-17H2,1-6H3
InChIKey=VOLVHWDADDBKCZ-UHFFFAOYSA-N

> <PUBCHEM_SUBSTANCE_SYNONYM>
SCHEMBL16125196

> <PUBCHEM_XREF_EXT_ID>
SCHEMBL16125196

> <PUBCHEM_EXT_DATASOURCE_URL>
https://www.surechembl.org/

> <PUBCHEM_EXT_SUBSTANCE_URL>
https://www.surechembl.org/chemical/SCHEMBL16125196

> <PUBCHEM_CID_ASSOCIATIONS>
117612894  1

> <PUBCHEM_COORDINATE_TYPE>
1
3

$$$$
