310932369
  -OEChem-07211613022D

 13 12  0     1  0  0  0  0  0999 V2000
   -0.4125   -0.8250    0.0000 Cl  0  0  0  0  0  0  0  0  0  0  0  0
    0.4125   -0.8250    0.0000 Cl  0  0  0  0  0  0  0  0  0  0  0  0
    0.7145    0.3020    0.0000 S   0  0  0  0  0  0  0  0  0  0  0  0
   -1.4290   -0.1106    0.0000 S   0  0  0  0  0  0  0  0  0  0  0  0
    1.1270   -0.4125    0.0000 O   0  0  0  0  0  0  0  0  0  0  0  0
    0.3020    1.0165    0.0000 O   0  0  0  0  0  0  0  0  0  0  0  0
    1.4290    0.7145    0.0000 O   0  0  0  0  0  0  0  0  0  0  0  0
   -1.8415    0.6040    0.0000 O   0  0  0  0  0  0  0  0  0  0  0  0
   -1.0165   -0.8250    0.0000 O   0  0  0  0  0  0  0  0  0  0  0  0
   -2.1435   -0.5231    0.0000 O   0  0  0  0  0  0  0  0  0  0  0  0
    0.0000   -0.1106    0.0000 C   0  0  0  0  0  0  0  0  0  0  0  0
   -0.7145    0.3020    0.0000 C   0  0  3  0  0  0  0  0  0  0  0  0
   -0.7145    1.1270    0.0000 C   0  0  0  0  0  0  0  0  0  0  0  0
  1 11  1  0  0  0  0
  2 11  1  0  0  0  0
  3  5  2  0  0  0  0
  3  6  2  0  0  0  0
  3  7  1  0  0  0  0
  3 11  1  0  0  0  0
  4  8  2  0  0  0  0
  4  9  2  0  0  0  0
  4 10  1  0  0  0  0
  4 12  1  0  0  0  0
 11 12  1  0  0  0  0
 12 13  1  0  0  0  0
M  END
> <PUBCHEM_COMPOUND_ID_TYPE>
0

> <PUBCHEM_TOTAL_CHARGE>
0

> <PUBCHEM_SUBSTANCE_ID>
310932369

> <PUBCHEM_SUBSTANCE_VERSION>
1

> <PUBCHEM_EXT_DATASOURCE_NAME>
4488

> <PUBCHEM_EXT_DATASOURCE_REGID>
SCHEMBL16109735

> <PUBCHEM_SUBSTANCE_COMMENT>
InChI=1S/C3H6Cl2O6S2/c1-2(12(6,7)8)3(4,5)13(9,10)11/h2H,1H3,(H,6,7,8)(H,9,10,11)
InChIKey=RNKMQAQLQGEEKY-UHFFFAOYSA-N

> <PUBCHEM_SUBSTANCE_SYNONYM>
SCHEMBL16109735

> <PUBCHEM_XREF_EXT_ID>
SCHEMBL16109735

> <PUBCHEM_EXT_DATASOURCE_URL>
https://www.surechembl.org/

> <PUBCHEM_EXT_SUBSTANCE_URL>
https://www.surechembl.org/chemical/SCHEMBL16109735

> <PUBCHEM_CID_ASSOCIATIONS>
117600924  1

> <PUBCHEM_COORDINATE_TYPE>
1
3

$$$$
