310934973
  -OEChem-07211613022D

 22 22  0     1  0  0  0  0  0999 V2000
    0.0533   -2.0492    0.0000 O   0  0  0  0  0  0  0  0  0  0  0  0
    2.2089   -4.0984    0.0000 O   0  0  0  0  0  0  0  0  0  0  0  0
    4.3380   -2.0226    0.0000 O   0  0  0  0  0  0  0  0  0  0  0  0
    5.7751   -5.3227    0.0000 O   0  0  0  0  0  0  0  0  0  0  0  0
    1.4904   -2.8476    0.0000 N   0  0  0  0  0  0  0  0  0  0  0  0
    3.6460   -3.2734    0.0000 N   0  0  0  0  0  0  0  0  0  0  0  0
    5.0565   -4.0984    0.0000 N   0  0  0  0  0  0  0  0  0  0  0  0
    0.7718   -0.7984    0.0000 C   0  0  0  0  0  0  0  0  0  0  0  0
    0.7718   -1.6234    0.0000 C   0  0  0  0  0  0  0  0  0  0  0  0
    0.8783    0.0000    0.0000 C   0  0  0  0  0  0  0  0  0  0  0  0
    1.5436   -0.4791    0.0000 C   0  0  0  0  0  0  0  0  0  0  0  0
    1.4904   -2.0226    0.0000 C   0  0  3  0  0  0  0  0  0  0  0  0
    0.0000   -0.4791    0.0000 C   0  0  0  0  0  0  0  0  0  0  0  0
    2.2089   -3.2734    0.0000 C   0  0  0  0  0  0  0  0  0  0  0  0
    2.9275   -2.8476    0.0000 C   0  0  3  0  0  0  0  0  0  0  0  0
    4.3380   -2.8476    0.0000 C   0  0  0  0  0  0  0  0  0  0  0  0
    2.2089   -1.6234    0.0000 C   0  0  0  0  0  0  0  0  0  0  0  0
    5.0565   -3.2734    0.0000 C   0  0  3  0  0  0  0  0  0  0  0  0
    2.9275   -2.0226    0.0000 C   0  0  0  0  0  0  0  0  0  0  0  0
    5.7751   -4.4976    0.0000 C   0  0  0  0  0  0  0  0  0  0  0  0
    5.7751   -2.8476    0.0000 C   0  0  0  0  0  0  0  0  0  0  0  0
    6.4936   -4.0984    0.0000 C   0  0  0  0  0  0  0  0  0  0  0  0
  1  9  2  0  0  0  0
  2 14  2  0  0  0  0
  3 16  2  0  0  0  0
  4 20  2  0  0  0  0
  5 12  1  0  0  0  0
  5 14  1  0  0  0  0
  6 15  1  0  0  0  0
  6 16  1  0  0  0  0
  7 18  1  0  0  0  0
  7 20  1  0  0  0  0
  8  9  1  0  0  0  0
  8 10  1  0  0  0  0
  8 11  1  0  0  0  0
  8 13  1  0  0  0  0
  9 12  1  0  0  0  0
 10 11  1  0  0  0  0
 12 17  1  0  0  0  0
 14 15  1  0  0  0  0
 15 19  1  0  0  0  0
 16 18  1  0  0  0  0
 18 21  1  0  0  0  0
 20 22  1  0  0  0  0
M  END
> <PUBCHEM_COMPOUND_ID_TYPE>
0

> <PUBCHEM_TOTAL_CHARGE>
0

> <PUBCHEM_SUBSTANCE_ID>
310934973

> <PUBCHEM_SUBSTANCE_VERSION>
1

> <PUBCHEM_EXT_DATASOURCE_NAME>
4488

> <PUBCHEM_EXT_DATASOURCE_REGID>
SCHEMBL16112489

> <PUBCHEM_SUBSTANCE_COMMENT>
InChI=1S/C15H25N3O4/c1-8(12(20)15(5)6-7-15)17-14(22)10(3)18-13(21)9(2)16-11(4)19/h8-10H,6-7H2,1-5H3,(H,16,19)(H,17,22)(H,18,21)
InChIKey=KFTZLWCSRNEZDX-UHFFFAOYSA-N

> <PUBCHEM_SUBSTANCE_SYNONYM>
SCHEMBL16112489

> <PUBCHEM_XREF_EXT_ID>
SCHEMBL16112489

> <PUBCHEM_EXT_DATASOURCE_URL>
https://www.surechembl.org/

> <PUBCHEM_EXT_SUBSTANCE_URL>
https://www.surechembl.org/chemical/SCHEMBL16112489

> <PUBCHEM_CID_ASSOCIATIONS>
117603091  1

> <PUBCHEM_COORDINATE_TYPE>
1
3

$$$$
