310940339
  -OEChem-07211613022D

 21 21  0     1  0  0  0  0  0999 V2000
   -1.7770    0.8533    0.0000 Cl  0  0  0  0  0  0  0  0  0  0  0  0
   -0.2740   -1.6204    0.0000 Cl  0  0  0  0  0  0  0  0  0  0  0  0
    1.1194    0.0861    0.0000 S   0  0  0  0  0  0  0  0  0  0  0  0
    2.4659    1.0098    0.0000 F   0  0  0  0  0  0  0  0  0  0  0  0
    2.2467   -0.1174    0.0000 F   0  0  0  0  0  0  0  0  0  0  0  0
    1.3386    1.1977    0.0000 F   0  0  0  0  0  0  0  0  0  0  0  0
   -1.1037    0.8376    0.0000 F   0  0  0  0  0  0  0  0  0  0  0  0
   -0.3209    1.6361    0.0000 F   0  0  0  0  0  0  0  0  0  0  0  0
    0.4932    0.8533    0.0000 F   0  0  0  0  0  0  0  0  0  0  0  0
    0.4775   -0.3523    0.0000 O   0  0  0  0  0  0  0  0  0  0  0  0
    1.5735   -0.5715    0.0000 O   0  0  0  0  0  0  0  0  0  0  0  0
    0.6654    0.7594    0.0000 O   0  0  0  0  0  0  0  0  0  0  0  0
   -0.2896    0.0234    0.0000 C   0  0  3  0  0  0  0  0  0  0  0  0
   -0.9941   -0.3992    0.0000 C   0  0  0  0  0  0  0  0  0  0  0  0
    1.7770    0.5558    0.0000 C   0  0  0  0  0  0  0  0  0  0  0  0
   -0.3053    0.8533    0.0000 C   0  0  0  0  0  0  0  0  0  0  0  0
   -1.7457    0.0078    0.0000 C   0  0  0  0  0  0  0  0  0  0  0  0
   -0.9941   -1.2447    0.0000 C   0  0  0  0  0  0  0  0  0  0  0  0
   -2.4659   -0.3992    0.0000 C   0  0  0  0  0  0  0  0  0  0  0  0
   -1.7144   -1.6361    0.0000 C   0  0  0  0  0  0  0  0  0  0  0  0
   -2.4345   -1.2447    0.0000 C   0  0  0  0  0  0  0  0  0  0  0  0
  1 17  1  0  0  0  0
  2 18  1  0  0  0  0
  3 10  1  0  0  0  0
  3 11  2  0  0  0  0
  3 12  2  0  0  0  0
  3 15  1  0  0  0  0
  4 15  1  0  0  0  0
  5 15  1  0  0  0  0
  6 15  1  0  0  0  0
  7 16  1  0  0  0  0
  8 16  1  0  0  0  0
  9 16  1  0  0  0  0
 10 13  1  0  0  0  0
 13 14  1  0  0  0  0
 13 16  1  0  0  0  0
 14 17  2  0  0  0  0
 14 18  1  0  0  0  0
 17 19  1  0  0  0  0
 18 20  2  0  0  0  0
 19 21  2  0  0  0  0
 20 21  1  0  0  0  0
M  END
> <PUBCHEM_COMPOUND_ID_TYPE>
0

> <PUBCHEM_TOTAL_CHARGE>
0

> <PUBCHEM_SUBSTANCE_ID>
310940339

> <PUBCHEM_SUBSTANCE_VERSION>
1

> <PUBCHEM_EXT_DATASOURCE_NAME>
4488

> <PUBCHEM_EXT_DATASOURCE_REGID>
SCHEMBL16118283

> <PUBCHEM_SUBSTANCE_COMMENT>
InChI=1S/C9H4Cl2F6O3S/c10-4-2-1-3-5(11)6(4)7(8(12,13)14)20-21(18,19)9(15,16)17/h1-3,7H
InChIKey=WOTKQJGEQUXPFK-UHFFFAOYSA-N

> <PUBCHEM_SUBSTANCE_SYNONYM>
SCHEMBL16118283

> <PUBCHEM_XREF_EXT_ID>
SCHEMBL16118283

> <PUBCHEM_EXT_DATASOURCE_URL>
https://www.surechembl.org/

> <PUBCHEM_EXT_SUBSTANCE_URL>
https://www.surechembl.org/chemical/SCHEMBL16118283

> <PUBCHEM_CID_ASSOCIATIONS>
117607391  1

> <PUBCHEM_COORDINATE_TYPE>
1
3

$$$$
