310938717
  -OEChem-07211613022D

 17 19  0     1  0  0  0  0  0999 V2000
    5.2699   -3.6982    0.0000 O   0  0  0  0  0  0  0  0  0  0  0  0
    9.5007    0.2433    0.0000 O   0  0  0  0  0  0  0  0  0  0  0  0
    4.7767   -5.5386    0.0000 O   0  0  0  0  0  0  0  0  0  0  0  0
    7.5957    0.2433    0.0000 N   0  0  0  0  0  0  0  0  0  0  0  0
    7.0142   -0.8599    0.0000 C   0  0  0  0  0  0  0  0  0  0  0  0
    6.2998   -2.0966    0.0000 C   0  0  3  0  0  0  0  0  0  0  0  0
    6.6009   -2.7700    0.0000 C   0  0  3  0  0  0  0  0  0  0  0  0
    5.8531   -3.1150    0.0000 C   0  0  0  0  0  0  0  0  0  0  0  0
    7.7256   -2.0966    0.0000 C   0  0  0  0  0  0  0  0  0  0  0  0
    6.2998   -1.2716    0.0000 C   0  0  0  0  0  0  0  0  0  0  0  0
    6.6097   -1.4840    0.0000 C   0  0  0  0  0  0  0  0  0  0  0  0
    7.7256   -1.2716    0.0000 C   0  0  0  0  0  0  0  0  0  0  0  0
    7.2454   -3.1280    0.0000 C   0  0  0  0  0  0  0  0  0  0  0  0
    7.0142   -2.5097    0.0000 C   0  0  0  0  0  0  0  0  0  0  0  0
    8.5482    0.7933    0.0000 C   0  0  0  0  0  0  0  0  0  0  0  0
    5.5545   -4.7607    0.0000 C   0  0  0  0  0  0  0  0  0  0  0  0
    8.5482    1.8932    0.0000 C   0  0  0  0  0  0  0  0  0  0  0  0
  1  8  1  0  0  0  0
  1 16  1  0  0  0  0
  2 15  2  0  0  0  0
  3 16  2  0  0  0  0
  4  5  1  0  0  0  0
  4 15  1  0  0  0  0
  5 10  1  0  0  0  0
  5 11  1  0  0  0  0
  5 12  1  0  0  0  0
  6  8  1  0  0  0  0
  6 10  1  0  0  0  0
  6 14  1  0  0  0  0
  7  8  1  0  0  0  0
  7 11  1  0  0  0  0
  7 13  1  0  0  0  0
  9 12  1  0  0  0  0
  9 13  1  0  0  0  0
  9 14  1  0  0  0  0
 15 17  1  0  0  0  0
M  END
> <PUBCHEM_COMPOUND_ID_TYPE>
0

> <PUBCHEM_TOTAL_CHARGE>
0

> <PUBCHEM_SUBSTANCE_ID>
310938717

> <PUBCHEM_SUBSTANCE_VERSION>
1

> <PUBCHEM_EXT_DATASOURCE_NAME>
4488

> <PUBCHEM_EXT_DATASOURCE_REGID>
SCHEMBL16116631

> <PUBCHEM_SUBSTANCE_COMMENT>
InChI=1S/C13H19NO3/c1-8(16)14-13-4-9-2-10(5-13)12(17-7-15)11(3-9)6-13/h7,9-12H,2-6H2,1H3,(H,14,16)
InChIKey=CETHDTZQQBTRLX-UHFFFAOYSA-N

> <PUBCHEM_SUBSTANCE_SYNONYM>
SCHEMBL16116631

> <PUBCHEM_XREF_EXT_ID>
SCHEMBL16116631

> <PUBCHEM_EXT_DATASOURCE_URL>
https://www.surechembl.org/

> <PUBCHEM_EXT_SUBSTANCE_URL>
https://www.surechembl.org/chemical/SCHEMBL16116631

> <PUBCHEM_CID_ASSOCIATIONS>
117606145  1

> <PUBCHEM_COORDINATE_TYPE>
1
3

$$$$
