310935804
  -OEChem-07211613022D

 26 29  0     1  0  0  0  0  0999 V2000
    7.0005   -0.6767    0.0000 F   0  0  0  0  0  0  0  0  0  0  0  0
    5.8104   -2.9402    0.0000 O   0  0  0  0  0  0  0  0  0  0  0  0
    5.8104   -1.5168    0.0000 O   0  0  0  0  0  0  0  0  0  0  0  0
    0.4434   -3.0802    0.0000 N   0  0  0  0  0  0  0  0  0  0  0  0
    0.0000   -3.8036    0.0000 N   0  0  0  0  0  0  0  0  0  0  0  0
    4.5736   -2.2168    0.0000 C   0  0  3  0  0  0  0  0  0  0  0  0
    4.9703   -1.4701    0.0000 C   0  0  0  0  0  0  0  0  0  0  0  0
    3.3136   -2.6369    0.0000 C   0  0  0  0  0  0  0  0  0  0  0  0
    4.1070   -2.8935    0.0000 C   0  0  0  0  0  0  0  0  0  0  0  0
    4.1070   -1.5401    0.0000 C   0  0  0  0  0  0  0  0  0  0  0  0
    5.4137   -2.2168    0.0000 C   0  0  0  0  0  0  0  0  0  0  0  0
    2.6602   -3.1035    0.0000 C   0  0  0  0  0  0  0  0  0  0  0  0
    5.9504   -1.6101    0.0000 C   0  0  0  0  0  0  0  0  0  0  0  0
    3.3136   -1.8201    0.0000 C   0  0  0  0  0  0  0  0  0  0  0  0
    1.2368   -3.2435    0.0000 C   0  0  0  0  0  0  0  0  0  0  0  0
    4.5270   -0.7701    0.0000 C   0  0  0  0  0  0  0  0  0  0  0  0
    1.9135   -2.7768    0.0000 C   0  0  0  0  0  0  0  0  0  0  0  0
    1.3301   -4.1070    0.0000 C   0  0  0  0  0  0  0  0  0  0  0  0
    6.1604   -0.7000    0.0000 C   0  0  0  0  0  0  0  0  0  0  0  0
    2.7302   -3.9670    0.0000 C   0  0  0  0  0  0  0  0  0  0  0  0
    2.0768   -4.4336    0.0000 C   0  0  0  0  0  0  0  0  0  0  0  0
    4.9003   -0.0466    0.0000 C   0  0  0  0  0  0  0  0  0  0  0  0
    0.5600   -4.4103    0.0000 C   0  0  0  0  0  0  0  0  0  0  0  0
    5.7170    0.0000    0.0000 C   0  0  0  0  0  0  0  0  0  0  0  0
    6.2304   -2.1235    0.0000 C   0  0  0  0  0  0  0  0  0  0  0  0
    0.0933   -2.3335    0.0000 C   0  0  0  0  0  0  0  0  0  0  0  0
  1 19  1  0  0  0  0
  2 11  2  0  0  0  0
  3 11  1  0  0  0  0
  4  5  1  0  0  0  0
  4 15  1  0  0  0  0
  4 26  1  0  0  0  0
  5 23  2  0  0  0  0
  6  7  1  0  0  0  0
  6  9  1  0  0  0  0
  6 10  1  0  0  0  0
  6 11  1  0  0  0  0
  7 13  1  0  0  0  0
  7 16  2  0  0  0  0
  8  9  2  0  0  0  0
  8 12  1  0  0  0  0
  8 14  1  0  0  0  0
 10 14  1  0  0  0  0
 12 17  2  0  0  0  0
 12 20  1  0  0  0  0
 13 19  2  0  0  0  0
 13 25  1  0  0  0  0
 15 17  1  0  0  0  0
 15 18  2  0  0  0  0
 16 22  1  0  0  0  0
 18 21  1  0  0  0  0
 18 23  1  0  0  0  0
 19 24  1  0  0  0  0
 20 21  2  0  0  0  0
 22 24  2  0  0  0  0
M  END
> <PUBCHEM_COMPOUND_ID_TYPE>
0

> <PUBCHEM_TOTAL_CHARGE>
0

> <PUBCHEM_SUBSTANCE_ID>
310935804

> <PUBCHEM_SUBSTANCE_VERSION>
1

> <PUBCHEM_EXT_DATASOURCE_NAME>
4488

> <PUBCHEM_EXT_DATASOURCE_REGID>
SCHEMBL16113391

> <PUBCHEM_SUBSTANCE_COMMENT>
InChI=1S/C21H19FN2O2/c1-13-17(4-3-5-18(13)22)21(20(25)26)9-8-15(11-21)14-6-7-16-12-23-24(2)19(16)10-14/h3-7,10-12H,8-9H2,1-2H3,(H,25,26)
InChIKey=RNLUGNJIGSIGLQ-UHFFFAOYSA-N

> <PUBCHEM_SUBSTANCE_SYNONYM>
SCHEMBL16113391

> <PUBCHEM_XREF_EXT_ID>
SCHEMBL16113391

> <PUBCHEM_EXT_DATASOURCE_URL>
https://www.surechembl.org/

> <PUBCHEM_EXT_SUBSTANCE_URL>
https://www.surechembl.org/chemical/SCHEMBL16113391

> <PUBCHEM_CID_ASSOCIATIONS>
117603797  1

> <PUBCHEM_COORDINATE_TYPE>
1
3

$$$$
