310941247
  -OEChem-07211613022D

 45 49  0     1  0  0  0  0  0999 V2000
    5.0394    0.6806    0.0000 O   0  0  0  0  0  0  0  0  0  0  0  0
    3.9119   -1.2856    0.0000 O   0  0  0  0  0  0  0  0  0  0  0  0
    1.7668    0.7906    0.0000 O   0  0  0  0  0  0  0  0  0  0  0  0
   -0.3644   -1.2856    0.0000 O   0  0  0  0  0  0  0  0  0  0  0  0
    3.9119   -2.9356    0.0000 O   0  0  0  0  0  0  0  0  0  0  0  0
   -2.5094    0.7906    0.0000 O   0  0  0  0  0  0  0  0  0  0  0  0
   -5.3556    0.7906    0.0000 O   0  0  0  0  0  0  0  0  0  0  0  0
    2.4957   -0.4469    0.0000 N   0  0  0  0  0  0  0  0  0  0  0  0
    0.3506   -0.0344    0.0000 N   0  0  0  0  0  0  0  0  0  0  0  0
    0.2819    2.7844    0.0000 N   0  0  0  0  0  0  0  0  0  0  0  0
   -0.1994    2.1244    0.0000 N   0  0  0  0  0  0  0  0  0  0  0  0
   -1.7944   -0.4469    0.0000 N   0  0  0  0  0  0  0  0  0  0  0  0
   -3.9256   -0.0344    0.0000 N   0  0  0  0  0  0  0  0  0  0  0  0
    4.6269   -0.0069    0.0000 C   0  0  3  0  0  0  0  0  0  0  0  0
    3.9119   -0.4194    0.0000 C   0  0  0  0  0  0  0  0  0  0  0  0
    4.2281    0.6806    0.0000 C   0  0  0  0  0  0  0  0  0  0  0  0
    3.1831   -0.0207    0.0000 C   0  0  3  0  0  0  0  0  0  0  0  0
    5.3556   -0.4469    0.0000 C   0  0  0  0  0  0  0  0  0  0  0  0
    3.2106    1.2994    0.0000 C   0  0  0  0  0  0  0  0  0  0  0  0
    2.4819    1.7256    0.0000 C   0  0  0  0  0  0  0  0  0  0  0  0
    1.7668   -0.0344    0.0000 C   0  0  0  0  0  0  0  0  0  0  0  0
    1.0518    1.7119    0.0000 C   0  0  0  0  0  0  0  0  0  0  0  0
    1.0657   -0.4469    0.0000 C   0  0  3  0  0  0  0  0  0  0  0  0
    1.7944    1.2994    0.0000 C   0  0  0  0  0  0  0  0  0  0  0  0
    1.0657    2.5369    0.0000 C   0  0  0  0  0  0  0  0  0  0  0  0
    2.4819    2.5369    0.0000 C   0  0  0  0  0  0  0  0  0  0  0  0
    1.7668    2.9356    0.0000 C   0  0  0  0  0  0  0  0  0  0  0  0
    0.3094    1.4506    0.0000 C   0  0  0  0  0  0  0  0  0  0  0  0
    1.0657   -1.2719    0.0000 C   0  0  0  0  0  0  0  0  0  0  0  0
    1.7807   -1.6844    0.0000 C   0  0  0  0  0  0  0  0  0  0  0  0
   -0.3644   -0.4194    0.0000 C   0  0  0  0  0  0  0  0  0  0  0  0
   -1.0931   -0.0207    0.0000 C   0  0  3  0  0  0  0  0  0  0  0  0
    2.4819   -1.2856    0.0000 C   0  0  0  0  0  0  0  0  0  0  0  0
    1.7807   -2.5094    0.0000 C   0  0  0  0  0  0  0  0  0  0  0  0
    3.1969   -2.4957    0.0000 C   0  0  0  0  0  0  0  0  0  0  0  0
    3.1969   -1.6844    0.0000 C   0  0  0  0  0  0  0  0  0  0  0  0
    2.4957   -2.9219    0.0000 C   0  0  0  0  0  0  0  0  0  0  0  0
   -2.5231   -0.0481    0.0000 C   0  0  0  0  0  0  0  0  0  0  0  0
   -1.0794    0.8043    0.0000 C   0  0  0  0  0  0  0  0  0  0  0  0
   -3.2244   -0.4331    0.0000 C   0  0  0  0  0  0  0  0  0  0  0  0
   -3.9256    0.7906    0.0000 C   0  0  0  0  0  0  0  0  0  0  0  0
   -4.6544   -0.4331    0.0000 C   0  0  0  0  0  0  0  0  0  0  0  0
   -4.6406    1.2031    0.0000 C   0  0  0  0  0  0  0  0  0  0  0  0
   -5.3556   -0.0344    0.0000 C   0  0  0  0  0  0  0  0  0  0  0  0
    4.6406   -2.4957    0.0000 C   0  0  0  0  0  0  0  0  0  0  0  0
  1 14  1  0  0  0  0
  1 16  1  0  0  0  0
  2 15  2  0  0  0  0
  3 21  2  0  0  0  0
  4 31  2  0  0  0  0
  5 35  1  0  0  0  0
  5 45  1  0  0  0  0
  6 38  2  0  0  0  0
  7 43  1  0  0  0  0
  7 44  1  0  0  0  0
  8 17  1  0  0  0  0
  8 21  1  0  0  0  0
  9 23  1  0  0  0  0
  9 31  1  0  0  0  0
 10 11  1  0  0  0  0
 10 25  1  0  0  0  0
 11 28  2  0  0  0  0
 12 32  1  0  0  0  0
 12 38  1  0  0  0  0
 13 40  1  0  0  0  0
 13 41  1  0  0  0  0
 13 42  1  0  0  0  0
 14 15  1  0  0  0  0
 14 16  1  0  0  0  0
 14 18  1  0  0  0  0
 15 17  1  0  0  0  0
 17 19  1  0  0  0  0
 19 20  1  0  0  0  0
 20 24  1  0  0  0  0
 20 26  2  0  0  0  0
 21 23  1  0  0  0  0
 22 24  2  0  0  0  0
 22 25  1  0  0  0  0
 22 28  1  0  0  0  0
 23 29  1  0  0  0  0
 25 27  2  0  0  0  0
 26 27  1  0  0  0  0
 29 30  1  0  0  0  0
 30 33  2  0  0  0  0
 30 34  1  0  0  0  0
 31 32  1  0  0  0  0
 32 39  1  0  0  0  0
 33 36  1  0  0  0  0
 34 37  2  0  0  0  0
 35 36  2  0  0  0  0
 35 37  1  0  0  0  0
 38 40  1  0  0  0  0
 41 43  1  0  0  0  0
 42 44  1  0  0  0  0
M  END
> <PUBCHEM_COMPOUND_ID_TYPE>
0

> <PUBCHEM_TOTAL_CHARGE>
0

> <PUBCHEM_SUBSTANCE_ID>
310941247

> <PUBCHEM_SUBSTANCE_VERSION>
1

> <PUBCHEM_EXT_DATASOURCE_NAME>
4488

> <PUBCHEM_EXT_DATASOURCE_REGID>
SCHEMBL16119207

> <PUBCHEM_SUBSTANCE_COMMENT>
InChI=1S/C32H40N6O7/c1-20(34-28(39)18-38-10-12-44-13-11-38)30(41)36-27(15-21-4-7-24(43-3)8-5-21)31(42)35-26(29(40)32(2)19-45-32)16-22-6-9-25-23(14-22)17-33-37-25/h4-9,14,17,20,26-27H,10-13,15-16,18-19H2,1-3H3,(H,33,37)(H,34,39)(H,35,42)(H,36,41)
InChIKey=BTSFSWWIOMXPNL-UHFFFAOYSA-N

> <PUBCHEM_SUBSTANCE_SYNONYM>
SCHEMBL16119207

> <PUBCHEM_XREF_EXT_ID>
SCHEMBL16119207

> <PUBCHEM_EXT_DATASOURCE_URL>
https://www.surechembl.org/

> <PUBCHEM_EXT_SUBSTANCE_URL>
https://www.surechembl.org/chemical/SCHEMBL16119207

> <PUBCHEM_CID_ASSOCIATIONS>
117608106  1

> <PUBCHEM_COORDINATE_TYPE>
1
3

$$$$
