310947163
  -OEChem-07211613022D

 28 32  0     1  0  0  0  0  0999 V2000
    3.6667    0.4945    0.0000 O   0  0  0  0  0  0  0  0  0  0  0  0
    3.6667    1.8419    0.0000 O   0  0  0  0  0  0  0  0  0  0  0  0
   -1.6202   -1.7396    0.0000 O   0  0  0  0  0  0  0  0  0  0  0  0
   -2.7799   -1.0574    0.0000 O   0  0  0  0  0  0  0  0  0  0  0  0
    0.7163   -0.5458    0.0000 N   0  0  3  0  0  0  0  0  0  0  0  0
    0.7333    0.3411    0.0000 C   0  0  0  0  0  0  0  0  0  0  0  0
    0.0000    0.7504    0.0000 C   0  0  0  0  0  0  0  0  0  0  0  0
    1.4326    0.7504    0.0000 C   0  0  0  0  0  0  0  0  0  0  0  0
   -0.7163    0.3240    0.0000 C   0  0  0  0  0  0  0  0  0  0  0  0
   -0.7333   -0.4945    0.0000 C   0  0  0  0  0  0  0  0  0  0  0  0
    1.4496    1.5861    0.0000 C   0  0  0  0  0  0  0  0  0  0  0  0
    0.0341   -0.9210    0.0000 C   0  0  0  0  0  0  0  0  0  0  0  0
   -1.4326   -0.9210    0.0000 C   0  0  0  0  0  0  0  0  0  0  0  0
    0.0170    1.5690    0.0000 C   0  0  0  0  0  0  0  0  0  0  0  0
    2.1659    0.3411    0.0000 C   0  0  0  0  0  0  0  0  0  0  0  0
    2.8822    0.7504    0.0000 C   0  0  0  0  0  0  0  0  0  0  0  0
    2.8822    1.5690    0.0000 C   0  0  0  0  0  0  0  0  0  0  0  0
    0.7163    1.9784    0.0000 C   0  0  0  0  0  0  0  0  0  0  0  0
    2.1489    1.9784    0.0000 C   0  0  0  0  0  0  0  0  0  0  0  0
   -1.4496    0.7333    0.0000 C   0  0  0  0  0  0  0  0  0  0  0  0
   -2.1659   -0.5116    0.0000 C   0  0  0  0  0  0  0  0  0  0  0  0
   -2.1318    0.3240    0.0000 C   0  0  0  0  0  0  0  0  0  0  0  0
    1.3132   -1.1426    0.0000 C   0  0  0  0  0  0  0  0  0  0  0  0
    4.1443    1.1767    0.0000 C   0  0  0  0  0  0  0  0  0  0  0  0
    1.3473   -1.8760    0.0000 C   0  0  0  0  0  0  0  0  0  0  0  0
   -2.3877   -1.9784    0.0000 C   0  0  0  0  0  0  0  0  0  0  0  0
   -3.5303   -0.8186    0.0000 C   0  0  0  0  0  0  0  0  0  0  0  0
   -4.1443   -1.3473    0.0000 C   0  0  0  0  0  0  0  0  0  0  0  0
  1 16  1  0  0  0  0
  1 24  1  0  0  0  0
  2 17  1  0  0  0  0
  2 24  1  0  0  0  0
  3 13  1  0  0  0  0
  3 26  1  0  0  0  0
  4 21  1  0  0  0  0
  4 27  1  0  0  0  0
  5  6  1  0  0  0  0
  5 12  1  0  0  0  0
  5 23  1  0  0  0  0
  6  7  2  0  0  0  0
  6  8  1  0  0  0  0
  7  9  1  0  0  0  0
  7 14  1  0  0  0  0
  8 11  2  0  0  0  0
  8 15  1  0  0  0  0
  9 10  1  0  0  0  0
  9 20  2  0  0  0  0
 10 12  1  0  0  0  0
 10 13  2  0  0  0  0
 11 18  1  0  0  0  0
 11 19  1  0  0  0  0
 13 21  1  0  0  0  0
 14 18  2  0  0  0  0
 15 16  2  0  0  0  0
 16 17  1  0  0  0  0
 17 19  2  0  0  0  0
 20 22  1  0  0  0  0
 21 22  2  0  0  0  0
 23 25  1  0  0  0  0
 27 28  1  0  0  0  0
M  END
> <PUBCHEM_COMPOUND_ID_TYPE>
0

> <PUBCHEM_TOTAL_CHARGE>
0

> <PUBCHEM_SUBSTANCE_ID>
310947163

> <PUBCHEM_SUBSTANCE_VERSION>
1

> <PUBCHEM_EXT_DATASOURCE_NAME>
4488

> <PUBCHEM_EXT_DATASOURCE_REGID>
SCHEMBL16125317

> <PUBCHEM_SUBSTANCE_COMMENT>
InChI=1S/C23H23NO4/c1-4-24-12-18-15(8-9-19(26-5-2)23(18)25-3)16-7-6-14-10-20-21(28-13-27-20)11-17(14)22(16)24/h6-11H,4-5,12-13H2,1-3H3
InChIKey=AAAMMFWNFHGAAW-UHFFFAOYSA-N

> <PUBCHEM_SUBSTANCE_SYNONYM>
SCHEMBL16125317

> <PUBCHEM_XREF_EXT_ID>
SCHEMBL16125317

> <PUBCHEM_EXT_DATASOURCE_URL>
https://www.surechembl.org/

> <PUBCHEM_EXT_SUBSTANCE_URL>
https://www.surechembl.org/chemical/SCHEMBL16125317

> <PUBCHEM_CID_ASSOCIATIONS>
117612989  1

> <PUBCHEM_COORDINATE_TYPE>
1
3

$$$$
