310943869
  -OEChem-07211613022D

 31 33  0     1  0  0  0  0  0999 V2000
   -3.2739   -0.5929    0.0000 N   0  0  3  0  0  0  0  0  0  0  0  0
    3.2224    1.4591    0.0000 N   0  0  3  0  0  0  0  0  0  0  0  0
   -5.0476   -0.0464    0.0000 N   0  0  3  0  0  0  0  0  0  0  0  0
    4.9857    0.9126    0.0000 N   0  0  3  0  0  0  0  0  0  0  0  0
   -0.4176    0.2320    0.0000 C   0  0  0  0  0  0  0  0  0  0  0  0
   -1.8613   -0.5929    0.0000 C   0  0  0  0  0  0  0  0  0  0  0  0
    0.2836    0.6548    0.0000 C   0  0  0  0  0  0  0  0  0  0  0  0
   -1.1292   -0.9951    0.0000 C   0  0  0  0  0  0  0  0  0  0  0  0
   -0.4280   -0.5826    0.0000 C   0  0  0  0  0  0  0  0  0  0  0  0
   -1.1394    0.6342    0.0000 C   0  0  0  0  0  0  0  0  0  0  0  0
   -1.8406    0.2320    0.0000 C   0  0  0  0  0  0  0  0  0  0  0  0
   -2.5418   -0.9951    0.0000 C   0  0  0  0  0  0  0  0  0  0  0  0
    1.0054    0.2423    0.0000 C   0  0  0  0  0  0  0  0  0  0  0  0
    0.3042    1.4797    0.0000 C   0  0  0  0  0  0  0  0  0  0  0  0
    1.7272    1.4797    0.0000 C   0  0  0  0  0  0  0  0  0  0  0  0
    1.7169    0.6548    0.0000 C   0  0  0  0  0  0  0  0  0  0  0  0
    0.9951    1.8819    0.0000 C   0  0  0  0  0  0  0  0  0  0  0  0
   -1.1292   -2.0365    0.0000 C   0  0  0  0  0  0  0  0  0  0  0  0
   -3.9545   -1.0570    0.0000 C   0  0  0  0  0  0  0  0  0  0  0  0
    2.4181    1.8922    0.0000 C   0  0  0  0  0  0  0  0  0  0  0  0
   -3.2121    0.2217    0.0000 C   0  0  0  0  0  0  0  0  0  0  0  0
   -4.7485   -0.8095    0.0000 C   0  0  0  0  0  0  0  0  0  0  0  0
   -3.8204    0.7889    0.0000 C   0  0  0  0  0  0  0  0  0  0  0  0
   -4.6351    0.6754    0.0000 C   0  0  0  0  0  0  0  0  0  0  0  0
    3.5111    0.6960    0.0000 C   0  0  0  0  0  0  0  0  0  0  0  0
    3.5627    2.0263    0.0000 C   0  0  0  0  0  0  0  0  0  0  0  0
    4.3051    0.4485    0.0000 C   0  0  0  0  0  0  0  0  0  0  0  0
   -5.8725   -0.0464    0.0000 C   0  0  0  0  0  0  0  0  0  0  0  0
    5.0373    1.7375    0.0000 C   0  0  0  0  0  0  0  0  0  0  0  0
    5.8725    0.3970    0.0000 C   0  0  0  0  0  0  0  0  0  0  0  0
    4.7073    2.0365    0.0000 C   0  0  0  0  0  0  0  0  0  0  0  0
  1 12  1  0  0  0  0
  1 19  1  0  0  0  0
  1 21  1  0  0  0  0
  2 20  1  0  0  0  0
  2 25  1  0  0  0  0
  2 26  1  0  0  0  0
  3 22  1  0  0  0  0
  3 24  1  0  0  0  0
  3 28  1  0  0  0  0
  4 27  1  0  0  0  0
  4 29  1  0  0  0  0
  4 30  1  0  0  0  0
  5  7  1  0  0  0  0
  5  9  1  0  0  0  0
  5 10  2  0  0  0  0
  6  8  1  0  0  0  0
  6 11  2  0  0  0  0
  6 12  1  0  0  0  0
  7 13  2  0  0  0  0
  7 14  1  0  0  0  0
  8  9  2  0  0  0  0
  8 18  1  0  0  0  0
 10 11  1  0  0  0  0
 13 16  1  0  0  0  0
 14 17  2  0  0  0  0
 15 16  2  0  0  0  0
 15 17  1  0  0  0  0
 15 20  1  0  0  0  0
 19 22  1  0  0  0  0
 21 23  1  0  0  0  0
 23 24  1  0  0  0  0
 25 27  1  0  0  0  0
 29 31  1  0  0  0  0
M  END
> <PUBCHEM_COMPOUND_ID_TYPE>
0

> <PUBCHEM_TOTAL_CHARGE>
0

> <PUBCHEM_SUBSTANCE_ID>
310943869

> <PUBCHEM_SUBSTANCE_VERSION>
1

> <PUBCHEM_EXT_DATASOURCE_NAME>
4488

> <PUBCHEM_EXT_DATASOURCE_REGID>
SCHEMBL16121940

> <PUBCHEM_SUBSTANCE_COMMENT>
InChI=1S/C27H42N4/c1-6-28(3)16-17-30(5)21-24-8-10-25(11-9-24)26-12-13-27(23(2)20-26)22-31-15-7-14-29(4)18-19-31/h8-13,20H,6-7,14-19,21-22H2,1-5H3
InChIKey=UCKNHFPNMAEAEZ-UHFFFAOYSA-N

> <PUBCHEM_SUBSTANCE_SYNONYM>
SCHEMBL16121940

> <PUBCHEM_XREF_EXT_ID>
SCHEMBL16121940

> <PUBCHEM_EXT_DATASOURCE_URL>
https://www.surechembl.org/

> <PUBCHEM_EXT_SUBSTANCE_URL>
https://www.surechembl.org/chemical/SCHEMBL16121940

> <PUBCHEM_CID_ASSOCIATIONS>
117610198  1

> <PUBCHEM_COORDINATE_TYPE>
1
3

$$$$
