310942319
  -OEChem-07211613022D

 28 31  0     1  0  0  0  0  0999 V2000
    2.0251    1.2392    0.0000 O   0  0  0  0  0  0  0  0  0  0  0  0
   -2.6598   -0.2721    0.0000 N   0  0  3  0  0  0  0  0  0  0  0  0
    2.7203   -0.0302    0.0000 N   0  0  0  0  0  0  0  0  0  0  0  0
    4.2013   -0.8463    0.0000 N   0  0  0  0  0  0  0  0  0  0  0  0
   -2.4483   -1.0881    0.0000 C   0  0  3  0  0  0  0  0  0  0  0  0
   -1.6322   -0.8463    0.0000 C   0  0  0  0  0  0  0  0  0  0  0  0
   -1.8438   -0.0604    0.0000 C   0  0  0  0  0  0  0  0  0  0  0  0
   -0.8765   -1.2694    0.0000 C   0  0  0  0  0  0  0  0  0  0  0  0
   -3.3853    0.1511    0.0000 C   0  0  0  0  0  0  0  0  0  0  0  0
   -0.1813   -0.8765    0.0000 C   0  0  0  0  0  0  0  0  0  0  0  0
   -4.1409   -0.2721    0.0000 C   0  0  0  0  0  0  0  0  0  0  0  0
   -2.5087   -1.6019    0.0000 C   0  0  0  0  0  0  0  0  0  0  0  0
    1.2997    0.0000    0.0000 C   0  0  0  0  0  0  0  0  0  0  0  0
   -4.8965   -0.3325    0.0000 C   0  0  0  0  0  0  0  0  0  0  0  0
   -4.5036   -0.9673    0.0000 C   0  0  0  0  0  0  0  0  0  0  0  0
    2.0251    0.3929    0.0000 C   0  0  0  0  0  0  0  0  0  0  0  0
   -0.1511    0.0000    0.0000 C   0  0  0  0  0  0  0  0  0  0  0  0
    0.5440   -1.2694    0.0000 C   0  0  0  0  0  0  0  0  0  0  0  0
    0.5743    0.3929    0.0000 C   0  0  0  0  0  0  0  0  0  0  0  0
    1.2997   -0.8765    0.0000 C   0  0  0  0  0  0  0  0  0  0  0  0
    3.4457    0.4231    0.0000 C   0  0  0  0  0  0  0  0  0  0  0  0
    4.2013    0.0302    0.0000 C   0  0  0  0  0  0  0  0  0  0  0  0
   -2.7807   -1.2090    0.0000 C   0  0  0  0  0  0  0  0  0  0  0  0
    3.5061    1.2694    0.0000 C   0  0  0  0  0  0  0  0  0  0  0  0
    4.8965    0.3929    0.0000 C   0  0  0  0  0  0  0  0  0  0  0  0
    4.1711    1.6624    0.0000 C   0  0  0  0  0  0  0  0  0  0  0  0
    4.8965    1.2694    0.0000 C   0  0  0  0  0  0  0  0  0  0  0  0
   -2.7807   -1.6624    0.0000 C   0  0  0  0  0  0  0  0  0  0  0  0
  1 16  2  0  0  0  0
  2  5  1  0  0  0  0
  2  7  1  0  0  0  0
  2  9  1  0  0  0  0
  3 16  1  0  0  0  0
  3 21  1  0  0  0  0
  4 22  1  0  0  0  0
  5  6  1  0  0  0  0
  5 12  1  0  0  0  0
  6  7  1  0  0  0  0
  6  8  2  0  0  0  0
  8 10  1  0  0  0  0
  9 11  1  0  0  0  0
 10 17  2  0  0  0  0
 10 18  1  0  0  0  0
 11 14  1  0  0  0  0
 11 15  1  0  0  0  0
 12 23  1  0  0  0  0
 13 16  1  0  0  0  0
 13 19  2  0  0  0  0
 13 20  1  0  0  0  0
 14 15  1  0  0  0  0
 17 19  1  0  0  0  0
 18 20  2  0  0  0  0
 21 22  2  0  0  0  0
 21 24  1  0  0  0  0
 22 25  1  0  0  0  0
 23 28  1  0  0  0  0
 24 26  2  0  0  0  0
 25 27  2  0  0  0  0
 26 27  1  0  0  0  0
M  END
> <PUBCHEM_COMPOUND_ID_TYPE>
0

> <PUBCHEM_TOTAL_CHARGE>
0

> <PUBCHEM_SUBSTANCE_ID>
310942319

> <PUBCHEM_SUBSTANCE_VERSION>
1

> <PUBCHEM_EXT_DATASOURCE_NAME>
4488

> <PUBCHEM_EXT_DATASOURCE_REGID>
SCHEMBL16120355

> <PUBCHEM_SUBSTANCE_COMMENT>
InChI=1S/C24H29N3O/c1-2-5-23-20(16-27(23)15-18-8-9-18)14-17-10-12-19(13-11-17)24(28)26-22-7-4-3-6-21(22)25/h3-4,6-7,10-14,18,23H,2,5,8-9,15-16,25H2,1H3,(H,26,28)/b20-14+
InChIKey=DOYZOOUVMDRVNI-XSFVSMFZSA-N

> <PUBCHEM_SUBSTANCE_SYNONYM>
SCHEMBL16120355

> <PUBCHEM_XREF_EXT_ID>
SCHEMBL16120355

> <PUBCHEM_EXT_DATASOURCE_URL>
https://www.surechembl.org/

> <PUBCHEM_EXT_SUBSTANCE_URL>
https://www.surechembl.org/chemical/SCHEMBL16120355

> <PUBCHEM_CID_ASSOCIATIONS>
117608955  1

> <PUBCHEM_COORDINATE_TYPE>
1
3

$$$$
