310945872
  -OEChem-07211613022D

 10 11  0     1  0  0  0  0  0999 V2000
    1.5881    0.7700    0.0000 I   0  0  0  0  0  0  0  0  0  0  0  0
   -1.1069   -0.6738    0.0000 N   0  0  0  0  0  0  0  0  0  0  0  0
   -1.5881    0.0000    0.0000 N   0  0  0  0  0  0  0  0  0  0  0  0
   -0.3231    0.4125    0.0000 C   0  0  0  0  0  0  0  0  0  0  0  0
   -0.3231   -0.4125    0.0000 C   0  0  0  0  0  0  0  0  0  0  0  0
    0.4056    0.8113    0.0000 C   0  0  0  0  0  0  0  0  0  0  0  0
   -1.0931    0.6600    0.0000 C   0  0  0  0  0  0  0  0  0  0  0  0
    1.1206    0.4125    0.0000 C   0  0  3  0  0  0  0  0  0  0  0  0
    0.4056   -0.8113    0.0000 C   0  0  0  0  0  0  0  0  0  0  0  0
    1.1069   -0.4125    0.0000 C   0  0  0  0  0  0  0  0  0  0  0  0
  1  8  1  0  0  0  0
  2  3  1  0  0  0  0
  2  5  1  0  0  0  0
  3  7  2  0  0  0  0
  4  5  2  0  0  0  0
  4  6  1  0  0  0  0
  4  7  1  0  0  0  0
  5  9  1  0  0  0  0
  6  8  1  0  0  0  0
  8 10  1  0  0  0  0
  9 10  1  0  0  0  0
M  END
> <PUBCHEM_COMPOUND_ID_TYPE>
0

> <PUBCHEM_TOTAL_CHARGE>
0

> <PUBCHEM_SUBSTANCE_ID>
310945872

> <PUBCHEM_SUBSTANCE_VERSION>
1

> <PUBCHEM_EXT_DATASOURCE_NAME>
4488

> <PUBCHEM_EXT_DATASOURCE_REGID>
SCHEMBL16123977

> <PUBCHEM_SUBSTANCE_COMMENT>
InChI=1S/C7H9IN2/c8-6-1-2-7-5(3-6)4-9-10-7/h4,6H,1-3H2,(H,9,10)
InChIKey=JYSOQDMAVRMTCW-UHFFFAOYSA-N

> <PUBCHEM_SUBSTANCE_SYNONYM>
SCHEMBL16123977

> <PUBCHEM_XREF_EXT_ID>
SCHEMBL16123977

> <PUBCHEM_EXT_DATASOURCE_URL>
https://www.surechembl.org/

> <PUBCHEM_EXT_SUBSTANCE_URL>
https://www.surechembl.org/chemical/SCHEMBL16123977

> <PUBCHEM_CID_ASSOCIATIONS>
117611856  1

> <PUBCHEM_COORDINATE_TYPE>
1
3

$$$$
