310938633
  -OEChem-07211613022D

 12 13  0     1  0  0  0  0  0999 V2000
    5.0432   13.6699    0.0000 O   0  0  0  0  0  0  0  0  0  0  0  0
    3.6613   14.4224    0.0000 N   0  0  3  0  0  0  0  0  0  0  0  0
    2.9938   14.9074    0.0000 C   0  0  3  0  0  0  0  0  0  0  0  0
    3.2488   15.6920    0.0000 C   0  0  3  0  0  0  0  0  0  0  0  0
    4.3287   14.9074    0.0000 C   0  0  3  0  0  0  0  0  0  0  0  0
    2.4418   15.5205    0.0000 C   0  0  0  0  0  0  0  0  0  0  0  0
    3.6613   13.5974    0.0000 C   0  0  0  0  0  0  0  0  0  0  0  0
    4.0738   15.6920    0.0000 C   0  0  0  0  0  0  0  0  0  0  0  0
    5.0432   14.4949    0.0000 C   0  0  0  0  0  0  0  0  0  0  0  0
    4.4863   13.5974    0.0000 C   0  0  0  0  0  0  0  0  0  0  0  0
    2.8363   13.5974    0.0000 C   0  0  0  0  0  0  0  0  0  0  0  0
    3.6613   12.7724    0.0000 C   0  0  0  0  0  0  0  0  0  0  0  0
  1  9  1  0  0  0  0
  2  3  1  0  0  0  0
  2  5  1  0  0  0  0
  2  7  1  0  0  0  0
  3  4  1  0  0  0  0
  3  6  1  0  0  0  0
  4  6  1  0  0  0  0
  4  8  1  0  0  0  0
  5  8  1  0  0  0  0
  5  9  1  0  0  0  0
  7 10  1  0  0  0  0
  7 11  1  0  0  0  0
  7 12  1  0  0  0  0
M  END
> <PUBCHEM_COMPOUND_ID_TYPE>
0

> <PUBCHEM_TOTAL_CHARGE>
0

> <PUBCHEM_SUBSTANCE_ID>
310938633

> <PUBCHEM_SUBSTANCE_VERSION>
1

> <PUBCHEM_EXT_DATASOURCE_NAME>
4488

> <PUBCHEM_EXT_DATASOURCE_REGID>
SCHEMBL16116547

> <PUBCHEM_SUBSTANCE_COMMENT>
InChI=1S/C10H19NO/c1-10(2,3)11-8(6-12)4-7-5-9(7)11/h7-9,12H,4-6H2,1-3H3
InChIKey=TTZGHCDAZVLQJI-UHFFFAOYSA-N

> <PUBCHEM_SUBSTANCE_SYNONYM>
SCHEMBL16116547

> <PUBCHEM_XREF_EXT_ID>
SCHEMBL16116547

> <PUBCHEM_EXT_DATASOURCE_URL>
https://www.surechembl.org/

> <PUBCHEM_EXT_SUBSTANCE_URL>
https://www.surechembl.org/chemical/SCHEMBL16116547

> <PUBCHEM_CID_ASSOCIATIONS>
117606066  1

> <PUBCHEM_COORDINATE_TYPE>
1
3

> <PUBCHEM_BONDANNOTATIONS>
7  10  3
7  11  3

$$$$
