310934917
  -OEChem-07211613022D

 41 46  0     1  0  0  0  0  0999 V2000
    2.1524  -11.4143    0.0000 O   0  0  0  0  0  0  0  0  0  0  0  0
    0.7175  -11.4143    0.0000 O   0  0  0  0  0  0  0  0  0  0  0  0
    0.7175   -3.9787    0.0000 N   0  0  0  0  0  0  0  0  0  0  0  0
    0.1305   -3.4569    0.0000 N   0  0  0  0  0  0  0  0  0  0  0  0
    2.1524   -3.9787    0.0000 N   0  0  0  0  0  0  0  0  0  0  0  0
    1.4349   -8.5444    0.0000 N   0  0  0  0  0  0  0  0  0  0  0  0
    2.9351   -0.9784    0.0000 N   0  0  0  0  0  0  0  0  0  0  0  0
    1.4349  -10.1750    0.0000 N   0  0  0  0  0  0  0  0  0  0  0  0
    1.3045   -2.8047    0.0000 C   0  0  0  0  0  0  0  0  0  0  0  0
    1.5002   -3.5874    0.0000 C   0  0  0  0  0  0  0  0  0  0  0  0
    1.8263   -2.1524    0.0000 C   0  0  0  0  0  0  0  0  0  0  0  0
    2.6742   -2.3481    0.0000 C   0  0  0  0  0  0  0  0  0  0  0  0
    1.4349   -5.2179    0.0000 C   0  0  0  0  0  0  0  0  0  0  0  0
    0.4566   -2.6742    0.0000 C   0  0  0  0  0  0  0  0  0  0  0  0
    0.7175   -4.8266    0.0000 C   0  0  0  0  0  0  0  0  0  0  0  0
    3.1960   -1.7610    0.0000 C   0  0  0  0  0  0  0  0  0  0  0  0
    1.5654   -1.3697    0.0000 C   0  0  0  0  0  0  0  0  0  0  0  0
    1.4349   -6.0659    0.0000 C   0  0  0  0  0  0  0  0  0  0  0  0
    2.1524   -4.8266    0.0000 C   0  0  0  0  0  0  0  0  0  0  0  0
    1.4349   -7.6965    0.0000 C   0  0  0  0  0  0  0  0  0  0  0  0
    2.1524   -0.7827    0.0000 C   0  0  0  0  0  0  0  0  0  0  0  0
    0.7175   -8.9357    0.0000 C   0  0  3  0  0  0  0  0  0  0  0  0
    2.1524   -8.9357    0.0000 C   0  0  3  0  0  0  0  0  0  0  0  0
    2.8699   -3.1308    0.0000 C   0  0  0  0  0  0  0  0  0  0  0  0
    0.7175   -6.4572    0.0000 C   0  0  0  0  0  0  0  0  0  0  0  0
    2.1524   -6.4572    0.0000 C   0  0  0  0  0  0  0  0  0  0  0  0
    0.7175   -7.3052    0.0000 C   0  0  0  0  0  0  0  0  0  0  0  0
    2.1524   -7.3052    0.0000 C   0  0  0  0  0  0  0  0  0  0  0  0
    3.9787   -1.8915    0.0000 C   0  0  0  0  0  0  0  0  0  0  0  0
    2.1524   -9.7837    0.0000 C   0  0  0  0  0  0  0  0  0  0  0  0
    0.7175   -9.7837    0.0000 C   0  0  0  0  0  0  0  0  0  0  0  0
    3.7178   -3.2613    0.0000 C   0  0  0  0  0  0  0  0  0  0  0  0
    1.4349  -11.0230    0.0000 C   0  0  0  0  0  0  0  0  0  0  0  0
    4.2396   -2.6742    0.0000 C   0  0  0  0  0  0  0  0  0  0  0  0
    1.8915    0.0000    0.0000 C   0  0  0  0  0  0  0  0  0  0  0  0
    0.0000   -8.5444    0.0000 C   0  0  0  0  0  0  0  0  0  0  0  0
    2.8699   -8.5444    0.0000 C   0  0  0  0  0  0  0  0  0  0  0  0
    2.1524  -12.1970    0.0000 C   0  0  0  0  0  0  0  0  0  0  0  0
    1.3045  -12.1970    0.0000 C   0  0  0  0  0  0  0  0  0  0  0  0
    2.1524  -13.0449    0.0000 C   0  0  0  0  0  0  0  0  0  0  0  0
    2.9351  -12.1970    0.0000 C   0  0  0  0  0  0  0  0  0  0  0  0
  1 33  1  0  0  0  0
  1 38  1  0  0  0  0
  2 33  2  0  0  0  0
  3  4  1  0  0  0  0
  3 10  1  0  0  0  0
  3 15  1  0  0  0  0
  4 14  2  0  0  0  0
  5 10  1  0  0  0  0
  5 19  2  0  0  0  0
  6 20  1  0  0  0  0
  6 22  1  0  0  0  0
  6 23  1  0  0  0  0
  7 16  2  0  0  0  0
  7 21  1  0  0  0  0
  8 30  1  0  0  0  0
  8 31  1  0  0  0  0
  8 33  1  0  0  0  0
  9 10  2  0  0  0  0
  9 11  1  0  0  0  0
  9 14  1  0  0  0  0
 11 12  2  0  0  0  0
 11 17  1  0  0  0  0
 12 16  1  0  0  0  0
 12 24  1  0  0  0  0
 13 15  2  0  0  0  0
 13 18  1  0  0  0  0
 13 19  1  0  0  0  0
 16 29  1  0  0  0  0
 17 21  2  0  0  0  0
 18 25  2  0  0  0  0
 18 26  1  0  0  0  0
 20 27  2  0  0  0  0
 20 28  1  0  0  0  0
 21 35  1  0  0  0  0
 22 31  1  0  0  0  0
 22 36  1  0  0  0  0
 23 30  1  0  0  0  0
 23 37  1  0  0  0  0
 24 32  2  0  0  0  0
 25 27  1  0  0  0  0
 26 28  2  0  0  0  0
 29 34  2  0  0  0  0
 32 34  1  0  0  0  0
 38 39  1  0  0  0  0
 38 40  1  0  0  0  0
 38 41  1  0  0  0  0
M  END
> <PUBCHEM_COMPOUND_ID_TYPE>
0

> <PUBCHEM_TOTAL_CHARGE>
0

> <PUBCHEM_SUBSTANCE_ID>
310934917

> <PUBCHEM_SUBSTANCE_VERSION>
1

> <PUBCHEM_EXT_DATASOURCE_NAME>
4488

> <PUBCHEM_EXT_DATASOURCE_REGID>
SCHEMBL16112430

> <PUBCHEM_SUBSTANCE_COMMENT>
InChI=1S/C33H36N6O2/c1-21-15-28(27-9-7-8-10-30(27)36-21)29-17-35-38-20-25(16-34-31(29)38)24-11-13-26(14-12-24)39-22(2)18-37(19-23(39)3)32(40)41-33(4,5)6/h7-17,20,22-23H,18-19H2,1-6H3
InChIKey=ZETKVZHDXDJZEQ-UHFFFAOYSA-N

> <PUBCHEM_SUBSTANCE_SYNONYM>
SCHEMBL16112430

> <PUBCHEM_XREF_EXT_ID>
SCHEMBL16112430

> <PUBCHEM_EXT_DATASOURCE_URL>
https://www.surechembl.org/

> <PUBCHEM_EXT_SUBSTANCE_URL>
https://www.surechembl.org/chemical/SCHEMBL16112430

> <PUBCHEM_CID_ASSOCIATIONS>
117603042  1

> <PUBCHEM_COORDINATE_TYPE>
1
3

$$$$
