310946586
  -OEChem-07211613022D

 25 25  0     1  0  0  0  0  0999 V2000
   -5.4335   -1.5165    0.0000 O   0  0  0  0  0  0  0  0  0  0  0  0
   -4.6489   -2.5964    0.0000 O   0  0  0  0  0  0  0  0  0  0  0  0
   -7.3473   -2.1839    0.0000 O   0  0  0  0  0  0  0  0  0  0  0  0
   -8.0618   -0.9464    0.0000 O   0  0  0  0  0  0  0  0  0  0  0  0
   -8.0618   -3.4214    0.0000 O   0  0  0  0  0  0  0  0  0  0  0  0
   -8.7763    0.2911    0.0000 O   0  0  0  0  0  0  0  0  0  0  0  0
   -5.2039   -0.1214    0.0000 O   0  0  0  0  0  0  0  0  0  0  0  0
   -3.7750   -0.1214    0.0000 O   0  5  0  0  0  0  0  0  0  0  0  0
   -4.4895    1.1161    0.0000 O   0  0  0  0  0  0  0  0  0  0  0  0
   -9.4908   -2.5964    0.0000 N   0  0  0  0  0  0  0  0  0  0  0  0
   -4.4895    0.2911    0.0000 N   0  3  0  0  0  0  0  0  0  0  0  0
   -5.9184   -2.1839    0.0000 C   0  0  0  0  0  0  0  0  0  0  0  0
   -5.4335   -2.8513    0.0000 C   0  0  0  0  0  0  0  0  0  0  0  0
   -4.6489   -1.7714    0.0000 C   0  0  0  0  0  0  0  0  0  0  0  0
   -6.6329   -2.5964    0.0000 C   0  0  0  0  0  0  0  0  0  0  0  0
   -8.0618   -2.5964    0.0000 C   0  0  0  0  0  0  0  0  0  0  0  0
   -8.7763   -2.1839    0.0000 C   0  0  3  0  0  0  0  0  0  0  0  0
   -8.7763   -1.3589    0.0000 C   0  0  3  0  0  0  0  0  0  0  0  0
   -5.8460   -3.5658    0.0000 C   0  0  0  0  0  0  0  0  0  0  0  0
   -3.9344   -1.3589    0.0000 C   0  0  0  0  0  0  0  0  0  0  0  0
   -8.0618   -0.1214    0.0000 C   0  0  0  0  0  0  0  0  0  0  0  0
   -9.4908   -0.9464    0.0000 C   0  0  0  0  0  0  0  0  0  0  0  0
   -7.3473    0.2911    0.0000 C   0  0  0  0  0  0  0  0  0  0  0  0
   -6.6329   -0.1214    0.0000 C   0  0  0  0  0  0  0  0  0  0  0  0
   -5.9184    0.2911    0.0000 C   0  0  0  0  0  0  0  0  0  0  0  0
  1 12  1  0  0  0  0
  1 14  1  0  0  0  0
  2 13  1  0  0  0  0
  2 14  1  0  0  0  0
  3 15  1  0  0  0  0
  3 16  1  0  0  0  0
  4 18  1  0  0  0  0
  4 21  1  0  0  0  0
  5 16  2  0  0  0  0
  6 21  2  0  0  0  0
  7 11  1  0  0  0  0
  7 25  1  0  0  0  0
  8 11  1  0  0  0  0
  9 11  2  0  0  0  0
 10 17  1  0  0  0  0
 12 13  2  0  0  0  0
 12 15  1  0  0  0  0
 13 19  1  0  0  0  0
 14 20  2  0  0  0  0
 16 17  1  0  0  0  0
 17 18  1  0  0  0  0
 18 22  1  0  0  0  0
 21 23  1  0  0  0  0
 23 24  1  0  0  0  0
 24 25  1  0  0  0  0
M  CHG  2   8  -1  11   1
M  END
> <PUBCHEM_COMPOUND_ID_TYPE>
0

> <PUBCHEM_TOTAL_CHARGE>
0

> <PUBCHEM_SUBSTANCE_ID>
310946586

> <PUBCHEM_SUBSTANCE_VERSION>
1

> <PUBCHEM_EXT_DATASOURCE_NAME>
4488

> <PUBCHEM_EXT_DATASOURCE_REGID>
SCHEMBL16124707

> <PUBCHEM_SUBSTANCE_COMMENT>
InChI=1S/C14H20N2O9/c1-8-11(25-10(3)23-8)7-21-14(18)13(15)9(2)24-12(17)5-4-6-22-16(19)20/h9,13H,3-7,15H2,1-2H3
InChIKey=YDSQCVZIPYTTQO-UHFFFAOYSA-N

> <PUBCHEM_SUBSTANCE_SYNONYM>
SCHEMBL16124707

> <PUBCHEM_XREF_EXT_ID>
SCHEMBL16124707

> <PUBCHEM_EXT_DATASOURCE_URL>
https://www.surechembl.org/

> <PUBCHEM_EXT_SUBSTANCE_URL>
https://www.surechembl.org/chemical/SCHEMBL16124707

> <PUBCHEM_CID_ASSOCIATIONS>
117612486  1

> <PUBCHEM_COORDINATE_TYPE>
1
3

$$$$
