310936295
  -OEChem-07211613022D

 26 28  0     1  0  0  0  0  0999 V2000
   -8.5392   -2.2837    0.0000 Cl  0  0  0  0  0  0  0  0  0  0  0  0
   -7.1667   -2.8105    0.0000 S   0  0  0  0  0  0  0  0  0  0  0  0
   -5.6986   -3.7125    0.0000 O   0  0  0  0  0  0  0  0  0  0  0  0
   -2.8407   -3.7125    0.0000 O   0  0  0  0  0  0  0  0  0  0  0  0
   -2.1262   -2.4750    0.0000 O   0  0  0  0  0  0  0  0  0  0  0  0
   -3.5551   -2.4750    0.0000 N   0  0  0  0  0  0  0  0  0  0  0  0
   -4.9841   -2.4750    0.0000 C   0  0  3  0  0  0  0  0  0  0  0  0
   -4.9841   -1.6500    0.0000 C   0  0  0  0  0  0  0  0  0  0  0  0
   -5.6986   -2.8875    0.0000 C   0  0  3  0  0  0  0  0  0  0  0  0
   -6.4130   -2.4750    0.0000 C   0  0  0  0  0  0  0  0  0  0  0  0
   -5.6986   -0.4125    0.0000 C   0  0  0  0  0  0  0  0  0  0  0  0
   -5.6986   -1.2375    0.0000 C   0  0  0  0  0  0  0  0  0  0  0  0
   -4.2696   -2.8875    0.0000 C   0  0  0  0  0  0  0  0  0  0  0  0
   -4.9841    0.0000    0.0000 C   0  0  0  0  0  0  0  0  0  0  0  0
   -4.2696   -1.2375    0.0000 C   0  0  0  0  0  0  0  0  0  0  0  0
   -6.4992   -1.6545    0.0000 C   0  0  0  0  0  0  0  0  0  0  0  0
   -4.2696   -0.4125    0.0000 C   0  0  0  0  0  0  0  0  0  0  0  0
   -7.7187   -2.1974    0.0000 C   0  0  0  0  0  0  0  0  0  0  0  0
   -7.3062   -1.4830    0.0000 C   0  0  0  0  0  0  0  0  0  0  0  0
   -6.4130    0.0000    0.0000 C   0  0  0  0  0  0  0  0  0  0  0  0
   -4.9841    0.8250    0.0000 C   0  0  0  0  0  0  0  0  0  0  0  0
   -2.8407   -2.8875    0.0000 C   0  0  0  0  0  0  0  0  0  0  0  0
   -6.4130    0.8250    0.0000 C   0  0  0  0  0  0  0  0  0  0  0  0
   -3.5551   -1.6500    0.0000 C   0  0  0  0  0  0  0  0  0  0  0  0
   -5.6986    1.2375    0.0000 C   0  0  0  0  0  0  0  0  0  0  0  0
   -2.8407   -1.2375    0.0000 C   0  0  0  0  0  0  0  0  0  0  0  0
  1 18  1  0  0  0  0
  2 10  1  0  0  0  0
  2 18  1  0  0  0  0
  3  9  1  0  0  0  0
  4 22  2  0  0  0  0
  5 22  1  0  0  0  0
  6 13  1  0  0  0  0
  6 22  1  0  0  0  0
  6 24  1  0  0  0  0
  7  8  1  0  0  0  0
  7  9  1  0  0  0  0
  7 13  1  0  0  0  0
  8 12  1  0  0  0  0
  8 15  2  0  0  0  0
  9 10  1  0  0  0  0
 10 16  2  0  0  0  0
 11 12  2  0  0  0  0
 11 14  1  0  0  0  0
 11 20  1  0  0  0  0
 14 17  2  0  0  0  0
 14 21  1  0  0  0  0
 15 17  1  0  0  0  0
 16 19  1  0  0  0  0
 18 19  2  0  0  0  0
 20 23  2  0  0  0  0
 21 25  2  0  0  0  0
 23 25  1  0  0  0  0
 24 26  1  0  0  0  0
M  END
> <PUBCHEM_COMPOUND_ID_TYPE>
0

> <PUBCHEM_TOTAL_CHARGE>
0

> <PUBCHEM_SUBSTANCE_ID>
310936295

> <PUBCHEM_SUBSTANCE_VERSION>
1

> <PUBCHEM_EXT_DATASOURCE_NAME>
4488

> <PUBCHEM_EXT_DATASOURCE_REGID>
SCHEMBL16113918

> <PUBCHEM_SUBSTANCE_COMMENT>
InChI=1S/C20H20ClNO3S/c1-2-22(20(24)25)12-16(19(23)17-9-10-18(21)26-17)15-8-7-13-5-3-4-6-14(13)11-15/h3-11,16,19,23H,2,12H2,1H3,(H,24,25)
InChIKey=AGYBTRYWHJRSHW-UHFFFAOYSA-N

> <PUBCHEM_SUBSTANCE_SYNONYM>
SCHEMBL16113918

> <PUBCHEM_XREF_EXT_ID>
SCHEMBL16113918

> <PUBCHEM_EXT_DATASOURCE_URL>
https://www.surechembl.org/

> <PUBCHEM_EXT_SUBSTANCE_URL>
https://www.surechembl.org/chemical/SCHEMBL16113918

> <PUBCHEM_CID_ASSOCIATIONS>
117604238  1

> <PUBCHEM_COORDINATE_TYPE>
1
3

$$$$
