310935337
  -OEChem-07211613022D

 21 22  0     1  0  0  0  0  0999 V2000
    2.8987   -0.0579    0.0000 S   0  0  0  0  0  0  0  0  0  0  0  0
    0.7247   -1.2175    0.0000 O   0  0  0  0  0  0  0  0  0  0  0  0
    2.2320   -1.2175    0.0000 N   0  0  0  0  0  0  0  0  0  0  0  0
    1.4204    0.0000    0.0000 N   0  0  0  0  0  0  0  0  0  0  0  0
    4.7539   -1.2754    0.0000 N   0  0  3  0  0  0  0  0  0  0  0  0
    3.4495   -0.6667    0.0000 C   0  0  0  0  0  0  0  0  0  0  0  0
    2.1451   -0.4058    0.0000 C   0  0  0  0  0  0  0  0  0  0  0  0
    3.0437   -1.3914    0.0000 C   0  0  0  0  0  0  0  0  0  0  0  0
    4.2612   -0.5798    0.0000 C   0  0  0  0  0  0  0  0  0  0  0  0
    0.7247   -0.4058    0.0000 C   0  0  0  0  0  0  0  0  0  0  0  0
    5.5656   -1.1885    0.0000 C   0  0  0  0  0  0  0  0  0  0  0  0
    7.3628   -2.4349    0.0000 C   0  0  0  0  0  0  0  0  0  0  0  0
    6.0584   -1.8552    0.0000 C   0  0  0  0  0  0  0  0  0  0  0  0
    6.8990   -1.7682    0.0000 C   0  0  0  0  0  0  0  0  0  0  0  0
    4.4061   -2.0291    0.0000 C   0  0  0  0  0  0  0  0  0  0  0  0
    8.2034   -2.3480    0.0000 C   0  0  0  0  0  0  0  0  0  0  0  0
    7.0439   -3.1886    0.0000 C   0  0  0  0  0  0  0  0  0  0  0  0
    0.0000    0.0000    0.0000 C   0  0  0  0  0  0  0  0  0  0  0  0
    8.6962   -2.9857    0.0000 C   0  0  0  0  0  0  0  0  0  0  0  0
    7.5367   -3.8263    0.0000 C   0  0  0  0  0  0  0  0  0  0  0  0
    8.3483   -3.7684    0.0000 C   0  0  0  0  0  0  0  0  0  0  0  0
  1  6  1  0  0  0  0
  1  7  1  0  0  0  0
  2 10  2  0  0  0  0
  3  7  2  0  0  0  0
  3  8  1  0  0  0  0
  4  7  1  0  0  0  0
  4 10  1  0  0  0  0
  5  9  1  0  0  0  0
  5 11  1  0  0  0  0
  5 15  1  0  0  0  0
  6  8  2  0  0  0  0
  6  9  1  0  0  0  0
 10 18  1  0  0  0  0
 11 13  1  0  0  0  0
 12 14  1  0  0  0  0
 12 16  2  0  0  0  0
 12 17  1  0  0  0  0
 13 14  1  0  0  0  0
 16 19  1  0  0  0  0
 17 20  2  0  0  0  0
 19 21  2  0  0  0  0
 20 21  1  0  0  0  0
M  END
> <PUBCHEM_COMPOUND_ID_TYPE>
0

> <PUBCHEM_TOTAL_CHARGE>
0

> <PUBCHEM_SUBSTANCE_ID>
310935337

> <PUBCHEM_SUBSTANCE_VERSION>
1

> <PUBCHEM_EXT_DATASOURCE_NAME>
4488

> <PUBCHEM_EXT_DATASOURCE_REGID>
SCHEMBL16112873

> <PUBCHEM_SUBSTANCE_COMMENT>
InChI=1S/C16H21N3OS/c1-13(20)18-16-17-11-15(21-16)12-19(2)10-6-9-14-7-4-3-5-8-14/h3-5,7-8,11H,6,9-10,12H2,1-2H3,(H,17,18,20)
InChIKey=OFVAFTCOCFOWFS-UHFFFAOYSA-N

> <PUBCHEM_SUBSTANCE_SYNONYM>
SCHEMBL16112873

> <PUBCHEM_XREF_EXT_ID>
SCHEMBL16112873

> <PUBCHEM_EXT_DATASOURCE_URL>
https://www.surechembl.org/

> <PUBCHEM_EXT_SUBSTANCE_URL>
https://www.surechembl.org/chemical/SCHEMBL16112873

> <PUBCHEM_CID_ASSOCIATIONS>
86274811  1

> <PUBCHEM_COORDINATE_TYPE>
1
3

$$$$
