310935971
  -OEChem-07211613022D

 12 11  0     1  0  0  0  0  0999 V2000
    3.7125    0.0000    0.0000 O   0  0  0  0  0  0  0  0  0  0  0  0
    4.9500   -0.7260    0.0000 O   0  0  0  0  0  0  0  0  0  0  0  0
    2.8875    0.0000    0.0000 O   0  0  0  0  0  0  0  0  0  0  0  0
    3.7125   -1.4190    0.0000 N   0  0  0  0  0  0  0  0  0  0  0  0
    1.6500   -2.1450    0.0000 N   0  0  0  0  0  0  0  0  0  0  0  0
    0.0000   -0.7260    0.0000 N   0  0  0  0  0  0  0  0  0  0  0  0
    2.8875   -1.4190    0.0000 C   0  0  3  0  0  0  0  0  0  0  0  0
    4.1250   -0.7260    0.0000 C   0  0  0  0  0  0  0  0  0  0  0  0
    2.4750   -2.1450    0.0000 C   0  0  0  0  0  0  0  0  0  0  0  0
    2.4750   -0.7260    0.0000 C   0  0  0  0  0  0  0  0  0  0  0  0
    1.2375   -1.4355    0.0000 C   0  0  0  0  0  0  0  0  0  0  0  0
    0.4125   -1.4355    0.0000 C   0  0  0  0  0  0  0  0  0  0  0  0
  1  8  2  0  0  0  0
  2  8  1  0  0  0  0
  3 10  1  0  0  0  0
  4  7  1  0  0  0  0
  4  8  1  0  0  0  0
  5  9  1  0  0  0  0
  5 11  1  0  0  0  0
  6 12  1  0  0  0  0
  7  9  1  0  0  0  0
  7 10  1  0  0  0  0
 11 12  1  0  0  0  0
M  END
> <PUBCHEM_COMPOUND_ID_TYPE>
0

> <PUBCHEM_TOTAL_CHARGE>
0

> <PUBCHEM_SUBSTANCE_ID>
310935971

> <PUBCHEM_SUBSTANCE_VERSION>
1

> <PUBCHEM_EXT_DATASOURCE_NAME>
4488

> <PUBCHEM_EXT_DATASOURCE_REGID>
SCHEMBL16113570

> <PUBCHEM_SUBSTANCE_COMMENT>
InChI=1S/C6H15N3O3/c7-1-2-8-3-5(4-10)9-6(11)12/h5,8-10H,1-4,7H2,(H,11,12)
InChIKey=GMFDCLYVXXATJG-UHFFFAOYSA-N

> <PUBCHEM_SUBSTANCE_SYNONYM>
SCHEMBL16113570

> <PUBCHEM_XREF_EXT_ID>
SCHEMBL16113570

> <PUBCHEM_EXT_DATASOURCE_URL>
https://www.surechembl.org/

> <PUBCHEM_EXT_SUBSTANCE_URL>
https://www.surechembl.org/chemical/SCHEMBL16113570

> <PUBCHEM_CID_ASSOCIATIONS>
117603946  1

> <PUBCHEM_COORDINATE_TYPE>
1
3

$$$$
