310939590
  -OEChem-07211613022D

 35 38  0     1  0  0  0  0  0999 V2000
    2.8499   -2.0694    0.0000 O   0  0  0  0  0  0  0  0  0  0  0  0
    1.4369   -2.8875    0.0000 O   0  0  0  0  0  0  0  0  0  0  0  0
   -2.1434    1.6431    0.0000 O   0  0  0  0  0  0  0  0  0  0  0  0
   -3.5724    0.8181    0.0000 O   0  0  0  0  0  0  0  0  0  0  0  0
    0.7145    0.8181    0.0000 N   0  0  0  0  0  0  0  0  0  0  0  0
    1.4289    2.0556    0.0000 N   0  0  0  0  0  0  0  0  0  0  0  0
    2.8579    2.0556    0.0000 N   0  0  0  0  0  0  0  0  0  0  0  0
    5.7158    1.2306    0.0000 N   0  0  0  0  0  0  0  0  0  0  0  0
   -5.0013    1.6431    0.0000 N   0  0  0  0  0  0  0  0  0  0  0  0
    1.4289    0.4056    0.0000 C   0  0  0  0  0  0  0  0  0  0  0  0
    1.4289   -0.4194    0.0000 C   0  0  0  0  0  0  0  0  0  0  0  0
    0.7145    1.6431    0.0000 C   0  0  0  0  0  0  0  0  0  0  0  0
    2.1434    1.6431    0.0000 C   0  0  0  0  0  0  0  0  0  0  0  0
    2.1434    0.8181    0.0000 C   0  0  0  0  0  0  0  0  0  0  0  0
    0.0000    2.0556    0.0000 C   0  0  0  0  0  0  0  0  0  0  0  0
    2.1434   -1.6569    0.0000 C   0  0  0  0  0  0  0  0  0  0  0  0
    2.1434   -0.8319    0.0000 C   0  0  0  0  0  0  0  0  0  0  0  0
    1.4369   -2.0694    0.0000 C   0  0  0  0  0  0  0  0  0  0  0  0
    0.7224   -0.8319    0.0000 C   0  0  0  0  0  0  0  0  0  0  0  0
    0.7224   -1.6569    0.0000 C   0  0  0  0  0  0  0  0  0  0  0  0
   -0.7145    1.6431    0.0000 C   0  0  0  0  0  0  0  0  0  0  0  0
    0.0000    2.8806    0.0000 C   0  0  0  0  0  0  0  0  0  0  0  0
   -1.4289    2.0556    0.0000 C   0  0  0  0  0  0  0  0  0  0  0  0
   -0.7145    3.2931    0.0000 C   0  0  0  0  0  0  0  0  0  0  0  0
   -1.4289    2.8806    0.0000 C   0  0  0  0  0  0  0  0  0  0  0  0
    2.8499   -2.8875    0.0000 C   0  0  0  0  0  0  0  0  0  0  0  0
    3.5724    1.6431    0.0000 C   0  0  0  0  0  0  0  0  0  0  0  0
    2.1434   -3.2931    0.0000 C   0  0  0  0  0  0  0  0  0  0  0  0
    2.8579    2.8806    0.0000 C   0  0  0  0  0  0  0  0  0  0  0  0
    4.2868    2.0556    0.0000 C   0  0  0  0  0  0  0  0  0  0  0  0
   -2.8579    2.0556    0.0000 C   0  0  0  0  0  0  0  0  0  0  0  0
   -3.5724    1.6431    0.0000 C   0  0  3  0  0  0  0  0  0  0  0  0
    5.0013    1.6431    0.0000 C   0  0  0  0  0  0  0  0  0  0  0  0
   -4.2868    2.0556    0.0000 C   0  0  0  0  0  0  0  0  0  0  0  0
   -5.7158    2.0556    0.0000 C   0  0  0  0  0  0  0  0  0  0  0  0
  1 16  1  0  0  0  0
  1 26  1  0  0  0  0
  2 18  1  0  0  0  0
  2 28  1  0  0  0  0
  3 23  1  0  0  0  0
  3 31  1  0  0  0  0
  4 32  1  0  0  0  0
  5 10  1  0  0  0  0
  5 12  2  0  0  0  0
  6 12  1  0  0  0  0
  6 13  2  0  0  0  0
  7 13  1  0  0  0  0
  7 27  1  0  0  0  0
  7 29  1  0  0  0  0
  8 33  3  0  0  0  0
  9 34  1  0  0  0  0
  9 35  1  0  0  0  0
 10 11  1  0  0  0  0
 10 14  2  0  0  0  0
 11 17  1  0  0  0  0
 11 19  2  0  0  0  0
 12 15  1  0  0  0  0
 13 14  1  0  0  0  0
 15 21  2  0  0  0  0
 15 22  1  0  0  0  0
 16 17  2  0  0  0  0
 16 18  1  0  0  0  0
 18 20  2  0  0  0  0
 19 20  1  0  0  0  0
 21 23  1  0  0  0  0
 22 24  2  0  0  0  0
 23 25  2  0  0  0  0
 24 25  1  0  0  0  0
 26 28  1  0  0  0  0
 27 30  1  0  0  0  0
 30 33  1  0  0  0  0
 31 32  1  0  0  0  0
 32 34  1  0  0  0  0
M  END
> <PUBCHEM_COMPOUND_ID_TYPE>
0

> <PUBCHEM_TOTAL_CHARGE>
0

> <PUBCHEM_SUBSTANCE_ID>
310939590

> <PUBCHEM_SUBSTANCE_VERSION>
1

> <PUBCHEM_EXT_DATASOURCE_NAME>
4488

> <PUBCHEM_EXT_DATASOURCE_REGID>
SCHEMBL16117519

> <PUBCHEM_SUBSTANCE_COMMENT>
InChI=1S/C26H29N5O4/c1-28-16-20(32)17-35-21-6-3-5-19(13-21)26-29-22(15-25(30-26)31(2)10-4-9-27)18-7-8-23-24(14-18)34-12-11-33-23/h3,5-8,13-15,20,28,32H,4,10-12,16-17H2,1-2H3
InChIKey=BHNDCLNHVQZSLF-UHFFFAOYSA-N

> <PUBCHEM_SUBSTANCE_SYNONYM>
SCHEMBL16117519

> <PUBCHEM_XREF_EXT_ID>
SCHEMBL16117519

> <PUBCHEM_EXT_DATASOURCE_URL>
https://www.surechembl.org/

> <PUBCHEM_EXT_SUBSTANCE_URL>
https://www.surechembl.org/chemical/SCHEMBL16117519

> <PUBCHEM_CID_ASSOCIATIONS>
85472434  1

> <PUBCHEM_COORDINATE_TYPE>
1
3

$$$$
