310948996
  -OEChem-07211613022D

 30 29  0     1  0  0  0  0  0999 V2000
    6.1659   -0.9723    0.0000 P   0  0  3  0  0  0  0  0  0  0  0  0
    0.6064    1.8418    0.0000 O   0  0  0  0  0  0  0  0  0  0  0  0
    5.0448    0.5377    0.0000 O   0  0  0  0  0  0  0  0  0  0  0  0
    6.1659   -0.1029    0.0000 O   0  0  0  0  0  0  0  0  0  0  0  0
    6.1659   -1.8418    0.0000 O   0  0  0  0  0  0  0  0  0  0  0  0
    7.2412   -0.9723    0.0000 O   0  0  0  0  0  0  0  0  0  0  0  0
    1.7045   -0.1029    0.0000 N   0  0  0  0  0  0  0  0  0  0  0  0
   -2.2078    0.2403    0.0000 C   0  0  3  0  0  0  0  0  0  0  0  0
   -1.0868    0.2631    0.0000 C   0  0  3  0  0  0  0  0  0  0  0  0
   -1.6588    0.5606    0.0000 C   0  0  0  0  0  0  0  0  0  0  0  0
   -5.2965    0.1029    0.0000 C   0  0  0  0  0  0  0  0  0  0  0  0
   -2.7340   -0.0801    0.0000 C   0  0  0  0  0  0  0  0  0  0  0  0
   -0.4919   -0.0572    0.0000 C   0  0  0  0  0  0  0  0  0  0  0  0
   -4.4728   -0.0343    0.0000 C   0  0  3  0  0  0  0  0  0  0  0  0
   -3.9238    0.5606    0.0000 C   0  0  0  0  0  0  0  0  0  0  0  0
   -2.1621   -0.5835    0.0000 C   0  0  0  0  0  0  0  0  0  0  0  0
   -1.1325   -0.5148    0.0000 C   0  0  0  0  0  0  0  0  0  0  0  0
    0.5606    0.5377    0.0000 C   0  0  0  0  0  0  0  0  0  0  0  0
   -1.8874    1.1325    0.0000 C   0  0  0  0  0  0  0  0  0  0  0  0
   -1.3842    1.1325    0.0000 C   0  0  0  0  0  0  0  0  0  0  0  0
   -6.1430    0.5606    0.0000 C   0  0  0  0  0  0  0  0  0  0  0  0
   -5.2736   -0.6291    0.0000 C   0  0  0  0  0  0  0  0  0  0  0  0
   -5.0219    0.7435    0.0000 C   0  0  0  0  0  0  0  0  0  0  0  0
   -4.7474   -1.3384    0.0000 C   0  0  0  0  0  0  0  0  0  0  0  0
   -1.8874   -1.2240    0.0000 C   0  0  0  0  0  0  0  0  0  0  0  0
   -1.3842   -1.1782    0.0000 C   0  0  0  0  0  0  0  0  0  0  0  0
    2.8027    0.5606    0.0000 C   0  0  0  0  0  0  0  0  0  0  0  0
   -7.2412   -0.0801    0.0000 C   0  0  0  0  0  0  0  0  0  0  0  0
   -4.9991   -1.3613    0.0000 C   0  0  0  0  0  0  0  0  0  0  0  0
    3.9238   -0.0572    0.0000 C   0  0  0  0  0  0  0  0  0  0  0  0
  1  4  1  0  0  0  0
  1  5  2  0  0  0  0
  1  6  1  0  0  0  0
  2 18  2  0  0  0  0
  3  4  1  0  0  0  0
  3 30  1  0  0  0  0
  7 18  1  0  0  0  0
  7 27  1  0  0  0  0
  8 10  1  0  0  0  0
  8 12  1  0  0  0  0
  8 16  1  0  0  0  0
  8 19  1  0  0  0  0
  9 10  1  0  0  0  0
  9 13  1  0  0  0  0
  9 17  1  0  0  0  0
  9 20  1  0  0  0  0
 11 14  1  0  0  0  0
 11 21  1  0  0  0  0
 11 22  1  0  0  0  0
 11 23  1  0  0  0  0
 12 15  1  0  0  0  0
 13 18  1  0  0  0  0
 14 15  1  0  0  0  0
 14 24  1  0  0  0  0
 16 25  1  0  0  0  0
 17 26  1  0  0  0  0
 21 28  1  0  0  0  0
 22 29  1  0  0  0  0
 27 30  1  0  0  0  0
M  END
> <PUBCHEM_COMPOUND_ID_TYPE>
0

> <PUBCHEM_TOTAL_CHARGE>
0

> <PUBCHEM_SUBSTANCE_ID>
310948996

> <PUBCHEM_SUBSTANCE_VERSION>
1

> <PUBCHEM_EXT_DATASOURCE_NAME>
4488

> <PUBCHEM_EXT_DATASOURCE_REGID>
SCHEMBL16127184

> <PUBCHEM_SUBSTANCE_COMMENT>
InChI=1S/C23H48NO5P/c1-9-21(6,14-13-19(5)23(8,11-3)12-4)18-22(7,10-2)17-20(25)24-15-16-28-29-30(26)27/h19,30H,9-18H2,1-8H3,(H,24,25)(H,26,27)
InChIKey=MXNJGQVVKNEJOG-UHFFFAOYSA-N

> <PUBCHEM_SUBSTANCE_SYNONYM>
SCHEMBL16127184

> <PUBCHEM_XREF_EXT_ID>
SCHEMBL16127184

> <PUBCHEM_EXT_DATASOURCE_URL>
https://www.surechembl.org/

> <PUBCHEM_EXT_SUBSTANCE_URL>
https://www.surechembl.org/chemical/SCHEMBL16127184

> <PUBCHEM_CID_ASSOCIATIONS>
117614505  1

> <PUBCHEM_COORDINATE_TYPE>
1
3

> <PUBCHEM_BONDANNOTATIONS>
14  11  3

$$$$
