310938073
  -OEChem-07211613022D

 26 28  0     1  0  0  0  0  0999 V2000
    2.8864   -2.7732    0.0000 Br  0  0  0  0  0  0  0  0  0  0  0  0
    5.0652   -1.4715    0.0000 S   0  0  0  0  0  0  0  0  0  0  0  0
    2.8580   -4.4427    0.0000 O   0  0  0  0  0  0  0  0  0  0  0  0
    7.1875   -1.9525    0.0000 O   0  0  0  0  0  0  0  0  0  0  0  0
    7.8950   -3.1976    0.0000 O   0  0  0  0  0  0  0  0  0  0  0  0
    6.4235   -1.4715    0.0000 N   0  0  0  0  0  0  0  0  0  0  0  0
    5.7444   -2.7732    0.0000 C   0  0  3  0  0  0  0  0  0  0  0  0
    5.0370   -3.1976    0.0000 C   0  0  0  0  0  0  0  0  0  0  0  0
    5.7444   -1.9525    0.0000 C   0  0  0  0  0  0  0  0  0  0  0  0
    4.3012   -2.7732    0.0000 C   0  0  0  0  0  0  0  0  0  0  0  0
    3.5938   -3.1976    0.0000 C   0  0  0  0  0  0  0  0  0  0  0  0
    3.5938   -4.0183    0.0000 C   0  0  0  0  0  0  0  0  0  0  0  0
    5.0370   -4.0183    0.0000 C   0  0  0  0  0  0  0  0  0  0  0  0
    6.4801   -3.1976    0.0000 C   0  0  0  0  0  0  0  0  0  0  0  0
    4.3012   -4.4427    0.0000 C   0  0  0  0  0  0  0  0  0  0  0  0
    5.3482   -0.6791    0.0000 C   0  0  0  0  0  0  0  0  0  0  0  0
    6.1689   -0.6791    0.0000 C   0  0  0  0  0  0  0  0  0  0  0  0
    7.1875   -2.7732    0.0000 C   0  0  0  0  0  0  0  0  0  0  0  0
    2.1506   -4.0183    0.0000 C   0  0  0  0  0  0  0  0  0  0  0  0
    1.4149   -4.4144    0.0000 C   0  0  0  0  0  0  0  0  0  0  0  0
    4.8672    0.0000    0.0000 C   0  0  0  0  0  0  0  0  0  0  0  0
    0.7074   -3.9899    0.0000 C   0  0  0  0  0  0  0  0  0  0  0  0
    1.4149   -5.2634    0.0000 C   0  0  0  0  0  0  0  0  0  0  0  0
    0.0000   -4.4144    0.0000 C   0  0  0  0  0  0  0  0  0  0  0  0
    0.7074   -5.6595    0.0000 C   0  0  0  0  0  0  0  0  0  0  0  0
    0.0000   -5.2350    0.0000 C   0  0  0  0  0  0  0  0  0  0  0  0
  1 11  1  0  0  0  0
  2  9  1  0  0  0  0
  2 16  1  0  0  0  0
  3 12  1  0  0  0  0
  3 19  1  0  0  0  0
  4 18  2  0  0  0  0
  5 18  1  0  0  0  0
  6  9  2  0  0  0  0
  6 17  1  0  0  0  0
  7  8  1  0  0  0  0
  7  9  1  0  0  0  0
  7 14  1  0  0  0  0
  8 10  1  0  0  0  0
  8 13  2  0  0  0  0
 10 11  2  0  0  0  0
 11 12  1  0  0  0  0
 12 15  2  0  0  0  0
 13 15  1  0  0  0  0
 14 18  1  0  0  0  0
 16 17  2  0  0  0  0
 16 21  1  0  0  0  0
 19 20  1  0  0  0  0
 20 22  2  0  0  0  0
 20 23  1  0  0  0  0
 22 24  1  0  0  0  0
 23 25  2  0  0  0  0
 24 26  2  0  0  0  0
 25 26  1  0  0  0  0
M  END
> <PUBCHEM_COMPOUND_ID_TYPE>
0

> <PUBCHEM_TOTAL_CHARGE>
0

> <PUBCHEM_SUBSTANCE_ID>
310938073

> <PUBCHEM_SUBSTANCE_VERSION>
1

> <PUBCHEM_EXT_DATASOURCE_NAME>
4488

> <PUBCHEM_EXT_DATASOURCE_REGID>
SCHEMBL16115915

> <PUBCHEM_SUBSTANCE_COMMENT>
InChI=1S/C20H18BrNO3S/c1-13-11-22-20(26-13)16(10-19(23)24)15-7-8-18(17(21)9-15)25-12-14-5-3-2-4-6-14/h2-9,11,16H,10,12H2,1H3,(H,23,24)
InChIKey=WAHNXVUHPMCEPW-UHFFFAOYSA-N

> <PUBCHEM_SUBSTANCE_SYNONYM>
SCHEMBL16115915

> <PUBCHEM_XREF_EXT_ID>
SCHEMBL16115915

> <PUBCHEM_EXT_DATASOURCE_URL>
https://www.surechembl.org/

> <PUBCHEM_EXT_SUBSTANCE_URL>
https://www.surechembl.org/chemical/SCHEMBL16115915

> <PUBCHEM_CID_ASSOCIATIONS>
117605642  1

> <PUBCHEM_COORDINATE_TYPE>
1
3

$$$$
