310945878
  -OEChem-07211613022D

 38 41  0     1  0  0  0  0  0999 V2000
    3.6878    1.0457    0.0000 O   0  0  0  0  0  0  0  0  0  0  0  0
    1.4012    1.0457    0.0000 O   0  0  0  0  0  0  0  0  0  0  0  0
    0.6762    0.6274    0.0000 O   0  0  0  0  0  0  0  0  0  0  0  0
   -0.0488    1.0457    0.0000 O   0  0  0  0  0  0  0  0  0  0  0  0
   -2.2238    3.1231    0.0000 O   0  0  0  0  0  0  0  0  0  0  0  0
   -2.9488   -3.1231    0.0000 O   0  0  0  0  0  0  0  0  0  0  0  0
    1.4012   -0.6134    0.0000 N   0  0  0  0  0  0  0  0  0  0  0  0
   -0.7738   -0.1952    0.0000 N   0  0  0  0  0  0  0  0  0  0  0  0
   -1.4988    1.8962    0.0000 N   0  0  0  0  0  0  0  0  0  0  0  0
    2.8652    1.0596    0.0000 C   0  0  3  0  0  0  0  0  0  0  0  0
    2.1541    0.6413    0.0000 C   0  0  0  0  0  0  0  0  0  0  0  0
    3.2695    0.3625    0.0000 C   0  0  0  0  0  0  0  0  0  0  0  0
    2.1263   -0.1812    0.0000 C   0  0  3  0  0  0  0  0  0  0  0  0
   -1.4849    1.0735    0.0000 C   0  0  3  0  0  0  0  0  0  0  0  0
    2.8652    1.9101    0.0000 C   0  0  0  0  0  0  0  0  0  0  0  0
    0.6762   -0.2091    0.0000 C   0  0  0  0  0  0  0  0  0  0  0  0
   -0.0349   -0.5995    0.0000 C   0  0  3  0  0  0  0  0  0  0  0  0
   -0.7878    0.6413    0.0000 C   0  0  0  0  0  0  0  0  0  0  0  0
    2.8652   -0.6134    0.0000 C   0  0  0  0  0  0  0  0  0  0  0  0
   -2.1960    0.6553    0.0000 C   0  0  0  0  0  0  0  0  0  0  0  0
    2.8512   -1.4361    0.0000 C   0  0  0  0  0  0  0  0  0  0  0  0
   -0.0488   -1.4500    0.0000 C   0  0  0  0  0  0  0  0  0  0  0  0
   -2.2378    2.2866    0.0000 C   0  0  0  0  0  0  0  0  0  0  0  0
   -0.7599   -1.8543    0.0000 C   0  0  0  0  0  0  0  0  0  0  0  0
   -0.7599    1.4918    0.0000 C   0  0  0  0  0  0  0  0  0  0  0  0
   -2.9488    1.0596    0.0000 C   0  0  0  0  0  0  0  0  0  0  0  0
   -2.9349    1.8962    0.0000 C   0  0  0  0  0  0  0  0  0  0  0  0
    3.5763   -1.8543    0.0000 C   0  0  0  0  0  0  0  0  0  0  0  0
    2.1402   -1.8543    0.0000 C   0  0  0  0  0  0  0  0  0  0  0  0
   -1.4849   -1.4500    0.0000 C   0  0  0  0  0  0  0  0  0  0  0  0
   -0.7738   -2.6770    0.0000 C   0  0  0  0  0  0  0  0  0  0  0  0
   -2.2238   -2.6770    0.0000 C   0  0  0  0  0  0  0  0  0  0  0  0
   -2.2099   -1.8543    0.0000 C   0  0  0  0  0  0  0  0  0  0  0  0
   -1.4849   -3.0952    0.0000 C   0  0  0  0  0  0  0  0  0  0  0  0
    3.5763   -2.6770    0.0000 C   0  0  0  0  0  0  0  0  0  0  0  0
    2.1402   -2.6909    0.0000 C   0  0  0  0  0  0  0  0  0  0  0  0
    2.8791   -3.0952    0.0000 C   0  0  0  0  0  0  0  0  0  0  0  0
   -3.6878   -2.7048    0.0000 C   0  0  0  0  0  0  0  0  0  0  0  0
  1 10  1  0  0  0  0
  1 12  1  0  0  0  0
  2 11  2  0  0  0  0
  3 16  2  0  0  0  0
  4 18  2  0  0  0  0
  5 23  2  0  0  0  0
  6 32  1  0  0  0  0
  6 38  1  0  0  0  0
  7 13  1  0  0  0  0
  7 16  1  0  0  0  0
  8 17  1  0  0  0  0
  8 18  1  0  0  0  0
  9 14  1  0  0  0  0
  9 23  1  0  0  0  0
 10 11  1  0  0  0  0
 10 12  1  0  0  0  0
 10 15  1  0  0  0  0
 11 13  1  0  0  0  0
 13 19  1  0  0  0  0
 14 18  1  0  0  0  0
 14 20  1  0  0  0  0
 14 25  1  0  0  0  0
 16 17  1  0  0  0  0
 17 22  1  0  0  0  0
 19 21  1  0  0  0  0
 20 26  1  0  0  0  0
 21 28  2  0  0  0  0
 21 29  1  0  0  0  0
 22 24  1  0  0  0  0
 23 27  1  0  0  0  0
 24 30  2  0  0  0  0
 24 31  1  0  0  0  0
 26 27  1  0  0  0  0
 28 35  1  0  0  0  0
 29 36  2  0  0  0  0
 30 33  1  0  0  0  0
 31 34  2  0  0  0  0
 32 33  2  0  0  0  0
 32 34  1  0  0  0  0
 35 37  2  0  0  0  0
 36 37  1  0  0  0  0
M  END
> <PUBCHEM_COMPOUND_ID_TYPE>
0

> <PUBCHEM_TOTAL_CHARGE>
0

> <PUBCHEM_SUBSTANCE_ID>
310945878

> <PUBCHEM_SUBSTANCE_VERSION>
1

> <PUBCHEM_EXT_DATASOURCE_NAME>
4488

> <PUBCHEM_EXT_DATASOURCE_REGID>
SCHEMBL16123983

> <PUBCHEM_SUBSTANCE_COMMENT>
InChI=1S/C29H35N3O6/c1-28(15-7-10-24(33)32-28)27(36)31-23(17-20-11-13-21(37-3)14-12-20)26(35)30-22(25(34)29(2)18-38-29)16-19-8-5-4-6-9-19/h4-6,8-9,11-14,22-23H,7,10,15-18H2,1-3H3,(H,30,35)(H,31,36)(H,32,33)
InChIKey=XWPUPMGLKGABSO-UHFFFAOYSA-N

> <PUBCHEM_SUBSTANCE_SYNONYM>
SCHEMBL16123983

> <PUBCHEM_XREF_EXT_ID>
SCHEMBL16123983

> <PUBCHEM_EXT_DATASOURCE_URL>
https://www.surechembl.org/

> <PUBCHEM_EXT_SUBSTANCE_URL>
https://www.surechembl.org/chemical/SCHEMBL16123983

> <PUBCHEM_CID_ASSOCIATIONS>
117611862  1

> <PUBCHEM_COORDINATE_TYPE>
1
3

$$$$
