310938357
  -OEChem-07211613022D

 17 18  0     1  0  0  0  0  0999 V2000
    2.1763   -1.2370    0.0000 O   0  0  0  0  0  0  0  0  0  0  0  0
    2.9094   -2.4741    0.0000 O   0  0  0  0  0  0  0  0  0  0  0  0
    1.4890   -3.2988    0.0000 N   0  0  0  0  0  0  0  0  0  0  0  0
    0.8247   -3.8028    0.0000 N   0  0  0  0  0  0  0  0  0  0  0  0
    1.4661   -2.4741    0.0000 C   0  0  3  0  0  0  0  0  0  0  0  0
    1.4432   -1.6494    0.0000 C   0  0  0  0  0  0  0  0  0  0  0  0
    2.1763   -2.0618    0.0000 C   0  0  0  0  0  0  0  0  0  0  0  0
    0.7101   -2.0847    0.0000 C   0  0  0  0  0  0  0  0  0  0  0  0
    2.1534   -3.7799    0.0000 C   0  0  0  0  0  0  0  0  0  0  0  0
    0.7331   -1.2599    0.0000 C   0  0  0  0  0  0  0  0  0  0  0  0
    2.3138   -1.3974    0.0000 C   0  0  0  0  0  0  0  0  0  0  0  0
    1.1225   -4.5816    0.0000 C   0  0  0  0  0  0  0  0  0  0  0  0
    1.9243   -4.5587    0.0000 C   0  0  0  0  0  0  0  0  0  0  0  0
    0.7101   -0.4352    0.0000 C   0  0  0  0  0  0  0  0  0  0  0  0
    2.1305   -0.3894    0.0000 C   0  0  0  0  0  0  0  0  0  0  0  0
    0.0000   -2.4741    0.0000 C   0  0  0  0  0  0  0  0  0  0  0  0
    1.4203    0.0000    0.0000 C   0  0  0  0  0  0  0  0  0  0  0  0
  1  7  2  0  0  0  0
  2  7  1  0  0  0  0
  3  4  1  0  0  0  0
  3  5  1  0  0  0  0
  3  9  1  0  0  0  0
  4 12  2  0  0  0  0
  5  6  1  0  0  0  0
  5  7  1  0  0  0  0
  5  8  1  0  0  0  0
  6 10  2  0  0  0  0
  6 11  1  0  0  0  0
  8 16  1  0  0  0  0
  9 13  2  0  0  0  0
 10 14  1  0  0  0  0
 11 15  2  0  0  0  0
 12 13  1  0  0  0  0
 14 17  2  0  0  0  0
 15 17  1  0  0  0  0
M  END
> <PUBCHEM_COMPOUND_ID_TYPE>
0

> <PUBCHEM_TOTAL_CHARGE>
0

> <PUBCHEM_SUBSTANCE_ID>
310938357

> <PUBCHEM_SUBSTANCE_VERSION>
1

> <PUBCHEM_EXT_DATASOURCE_NAME>
4488

> <PUBCHEM_EXT_DATASOURCE_REGID>
SCHEMBL16116242

> <PUBCHEM_SUBSTANCE_COMMENT>
InChI=1S/C13H14N2O2/c1-2-13(12(16)17,15-10-6-9-14-15)11-7-4-3-5-8-11/h3-10H,2H2,1H3,(H,16,17)
InChIKey=MWPQGVFRCNBGSJ-UHFFFAOYSA-N

> <PUBCHEM_SUBSTANCE_SYNONYM>
SCHEMBL16116242

> <PUBCHEM_XREF_EXT_ID>
SCHEMBL16116242

> <PUBCHEM_EXT_DATASOURCE_URL>
https://www.surechembl.org/

> <PUBCHEM_EXT_SUBSTANCE_URL>
https://www.surechembl.org/chemical/SCHEMBL16116242

> <PUBCHEM_CID_ASSOCIATIONS>
114990900  1

> <PUBCHEM_COORDINATE_TYPE>
1
3

$$$$
