310942981
  -OEChem-07211613022D

 30 33  0     1  0  0  0  0  0999 V2000
   -1.5133    1.0462    0.0000 O   0  0  0  0  0  0  0  0  0  0  0  0
    4.2408   -2.2792    0.0000 O   0  0  0  0  0  0  0  0  0  0  0  0
   -2.9455    0.2117    0.0000 O   0  0  0  0  0  0  0  0  0  0  0  0
    2.1110    1.4572    0.0000 N   0  0  0  0  0  0  0  0  0  0  0  0
    1.3887    0.2117    0.0000 N   0  0  0  0  0  0  0  0  0  0  0  0
    3.5433    1.4572    0.0000 N   0  0  0  0  0  0  0  0  0  0  0  0
    2.1110   -1.0337    0.0000 N   0  0  0  0  0  0  0  0  0  0  0  0
   -4.3653    1.0462    0.0000 N   0  0  0  0  0  0  0  0  0  0  0  0
    1.3763    1.0462    0.0000 C   0  0  0  0  0  0  0  0  0  0  0  0
    2.8334    1.0586    0.0000 C   0  0  0  0  0  0  0  0  0  0  0  0
    0.6538    1.4696    0.0000 C   0  0  0  0  0  0  0  0  0  0  0  0
    2.0986   -0.1869    0.0000 C   0  0  0  0  0  0  0  0  0  0  0  0
    2.8209    0.2117    0.0000 C   0  0  0  0  0  0  0  0  0  0  0  0
    4.2657    1.0462    0.0000 C   0  0  0  0  0  0  0  0  0  0  0  0
   -0.0685    1.0586    0.0000 C   0  0  0  0  0  0  0  0  0  0  0  0
   -0.7784    1.4696    0.0000 C   0  0  0  0  0  0  0  0  0  0  0  0
    0.6663    2.2917    0.0000 C   0  0  0  0  0  0  0  0  0  0  0  0
    5.0752    1.0337    0.0000 C   0  0  0  0  0  0  0  0  0  0  0  0
    4.6767    0.3363    0.0000 C   0  0  0  0  0  0  0  0  0  0  0  0
    2.8334   -1.4323    0.0000 C   0  0  0  0  0  0  0  0  0  0  0  0
   -0.7660    2.2917    0.0000 C   0  0  0  0  0  0  0  0  0  0  0  0
   -0.0685    2.6901    0.0000 C   0  0  0  0  0  0  0  0  0  0  0  0
    2.8209   -2.2667    0.0000 C   0  0  0  0  0  0  0  0  0  0  0  0
    3.5308   -1.0337    0.0000 C   0  0  0  0  0  0  0  0  0  0  0  0
   -2.2232    1.4572    0.0000 C   0  0  0  0  0  0  0  0  0  0  0  0
    4.2532   -1.4448    0.0000 C   0  0  0  0  0  0  0  0  0  0  0  0
    3.5433   -2.6901    0.0000 C   0  0  0  0  0  0  0  0  0  0  0  0
   -2.9206    1.0586    0.0000 C   0  0  3  0  0  0  0  0  0  0  0  0
   -3.6554    1.4572    0.0000 C   0  0  0  0  0  0  0  0  0  0  0  0
   -5.0752    1.4448    0.0000 C   0  0  0  0  0  0  0  0  0  0  0  0
  1 16  1  0  0  0  0
  1 25  1  0  0  0  0
  2 26  1  0  0  0  0
  2 27  1  0  0  0  0
  3 28  1  0  0  0  0
  4  9  2  0  0  0  0
  4 10  1  0  0  0  0
  5  9  1  0  0  0  0
  5 12  2  0  0  0  0
  6 10  1  0  0  0  0
  6 14  1  0  0  0  0
  7 12  1  0  0  0  0
  7 20  1  0  0  0  0
  8 29  1  0  0  0  0
  8 30  1  0  0  0  0
  9 11  1  0  0  0  0
 10 13  2  0  0  0  0
 11 15  2  0  0  0  0
 11 17  1  0  0  0  0
 12 13  1  0  0  0  0
 14 18  1  0  0  0  0
 14 19  1  0  0  0  0
 15 16  1  0  0  0  0
 16 21  2  0  0  0  0
 17 22  2  0  0  0  0
 18 19  1  0  0  0  0
 20 23  1  0  0  0  0
 20 24  1  0  0  0  0
 21 22  1  0  0  0  0
 23 27  1  0  0  0  0
 24 26  1  0  0  0  0
 25 28  1  0  0  0  0
 28 29  1  0  0  0  0
M  END
> <PUBCHEM_COMPOUND_ID_TYPE>
0

> <PUBCHEM_TOTAL_CHARGE>
0

> <PUBCHEM_SUBSTANCE_ID>
310942981

> <PUBCHEM_SUBSTANCE_VERSION>
1

> <PUBCHEM_EXT_DATASOURCE_NAME>
4488

> <PUBCHEM_EXT_DATASOURCE_REGID>
SCHEMBL16121040

> <PUBCHEM_SUBSTANCE_COMMENT>
InChI=1S/C22H31N5O3/c1-23-13-18(28)14-30-19-4-2-3-15(11-19)22-26-20(24-16-5-6-16)12-21(27-22)25-17-7-9-29-10-8-17/h2-4,11-12,16-18,23,28H,5-10,13-14H2,1H3,(H2,24,25,26,27)
InChIKey=BGCTVTWJEJHRBS-UHFFFAOYSA-N

> <PUBCHEM_SUBSTANCE_SYNONYM>
SCHEMBL16121040

> <PUBCHEM_XREF_EXT_ID>
SCHEMBL16121040

> <PUBCHEM_EXT_DATASOURCE_URL>
https://www.surechembl.org/

> <PUBCHEM_EXT_SUBSTANCE_URL>
https://www.surechembl.org/chemical/SCHEMBL16121040

> <PUBCHEM_CID_ASSOCIATIONS>
85471639  1

> <PUBCHEM_COORDINATE_TYPE>
1
3

$$$$
