310940043
  -OEChem-07211613022D

 23 24  0     1  0  0  0  0  0999 V2000
  -10.4181   -1.7719    0.0000 O   0  0  0  0  0  0  0  0  0  0  0  0
  -10.4181   -3.2009    0.0000 O   0  0  0  0  0  0  0  0  0  0  0  0
   -4.3014   -3.2009    0.0000 O   0  0  0  0  0  0  0  0  0  0  0  0
   -7.9431   -0.3430    0.0000 O   0  0  0  0  0  0  0  0  0  0  0  0
   -7.5306   -2.4864    0.0000 N   0  0  3  0  0  0  0  0  0  0  0  0
   -5.5389   -2.4864    0.0000 N   0  0  0  0  0  0  0  0  0  0  0  0
   -9.1806   -2.4864    0.0000 N   0  0  0  0  0  0  0  0  0  0  0  0
   -6.7056   -2.4864    0.0000 C   0  0  0  0  0  0  0  0  0  0  0  0
   -7.9431   -1.7719    0.0000 C   0  0  3  0  0  0  0  0  0  0  0  0
   -6.1223   -3.0698    0.0000 C   0  0  0  0  0  0  0  0  0  0  0  0
   -6.1223   -1.9030    0.0000 C   0  0  0  0  0  0  0  0  0  0  0  0
   -7.9431   -3.2009    0.0000 C   0  0  0  0  0  0  0  0  0  0  0  0
   -8.7681   -1.7719    0.0000 C   0  0  0  0  0  0  0  0  0  0  0  0
   -8.7681   -3.2009    0.0000 C   0  0  0  0  0  0  0  0  0  0  0  0
  -10.0056   -2.4864    0.0000 C   0  0  0  0  0  0  0  0  0  0  0  0
   -4.7139   -2.4864    0.0000 C   0  0  0  0  0  0  0  0  0  0  0  0
   -7.5306   -1.0575    0.0000 C   0  0  0  0  0  0  0  0  0  0  0  0
  -11.2431   -1.7719    0.0000 C   0  0  0  0  0  0  0  0  0  0  0  0
   -4.3014   -1.7719    0.0000 C   0  0  0  0  0  0  0  0  0  0  0  0
  -12.0681   -1.7719    0.0000 C   0  0  0  0  0  0  0  0  0  0  0  0
  -11.6556   -2.4864    0.0000 C   0  0  0  0  0  0  0  0  0  0  0  0
  -11.6556   -1.0575    0.0000 C   0  0  0  0  0  0  0  0  0  0  0  0
   -4.7139   -1.0575    0.0000 C   0  0  0  0  0  0  0  0  0  0  0  0
  1 15  1  0  0  0  0
  1 18  1  0  0  0  0
  2 15  2  0  0  0  0
  3 16  2  0  0  0  0
  4 17  1  0  0  0  0
  5  8  1  0  0  0  0
  5  9  1  0  0  0  0
  5 12  1  0  0  0  0
  6 10  1  0  0  0  0
  6 11  1  0  0  0  0
  6 16  1  0  0  0  0
  7 13  1  0  0  0  0
  7 14  1  0  0  0  0
  7 15  1  0  0  0  0
  8 10  1  0  0  0  0
  8 11  1  0  0  0  0
  9 13  1  0  0  0  0
  9 17  1  0  0  0  0
 12 14  1  0  0  0  0
 16 19  1  0  0  0  0
 18 20  1  0  0  0  0
 18 21  1  0  0  0  0
 18 22  1  0  0  0  0
 19 23  2  0  0  0  0
M  END
> <PUBCHEM_COMPOUND_ID_TYPE>
0

> <PUBCHEM_TOTAL_CHARGE>
0

> <PUBCHEM_SUBSTANCE_ID>
310940043

> <PUBCHEM_SUBSTANCE_VERSION>
1

> <PUBCHEM_EXT_DATASOURCE_NAME>
4488

> <PUBCHEM_EXT_DATASOURCE_REGID>
SCHEMBL16117973

> <PUBCHEM_SUBSTANCE_COMMENT>
InChI=1S/C16H27N3O4/c1-5-14(21)18-8-12(9-18)19-7-6-17(10-13(19)11-20)15(22)23-16(2,3)4/h5,12-13,20H,1,6-11H2,2-4H3
InChIKey=NMWMPDHGSCLCDL-UHFFFAOYSA-N

> <PUBCHEM_SUBSTANCE_SYNONYM>
SCHEMBL16117973

> <PUBCHEM_XREF_EXT_ID>
SCHEMBL16117973

> <PUBCHEM_EXT_DATASOURCE_URL>
https://www.surechembl.org/

> <PUBCHEM_EXT_SUBSTANCE_URL>
https://www.surechembl.org/chemical/SCHEMBL16117973

> <PUBCHEM_CID_ASSOCIATIONS>
117607193  1

> <PUBCHEM_COORDINATE_TYPE>
1
3

$$$$
