310942286
  -OEChem-07211613022D

 31 33  0     1  0  0  0  0  0999 V2000
   -1.9136    1.5583    0.0000 O   0  0  0  0  0  0  0  0  0  0  0  0
   -3.9321   -0.9608    0.0000 O   0  0  0  0  0  0  0  0  0  0  0  0
   -3.2216   -2.2043    0.0000 O   0  0  0  0  0  0  0  0  0  0  0  0
    2.1235    2.2365    0.0000 O   0  0  0  0  0  0  0  0  0  0  0  0
    2.4303    0.8478    0.0000 O   0  0  0  0  0  0  0  0  0  0  0  0
   -1.2353   -0.5409    0.0000 N   0  0  0  0  0  0  0  0  0  0  0  0
   -0.4118   -0.6702    0.0000 N   0  0  0  0  0  0  0  0  0  0  0  0
    1.0577    1.3322    0.0000 N   0  0  0  0  0  0  0  0  0  0  0  0
   -1.6875    0.1372    0.0000 C   0  0  0  0  0  0  0  0  0  0  0  0
   -1.4291    0.9123    0.0000 C   0  0  3  0  0  0  0  0  0  0  0  0
   -2.4626   -0.0726    0.0000 C   0  0  0  0  0  0  0  0  0  0  0  0
   -2.5434   -0.8962    0.0000 C   0  0  0  0  0  0  0  0  0  0  0  0
   -1.7521   -1.2030    0.0000 C   0  0  0  0  0  0  0  0  0  0  0  0
   -0.5894    1.0416    0.0000 C   0  0  0  0  0  0  0  0  0  0  0  0
   -3.2054   -1.3322    0.0000 C   0  0  0  0  0  0  0  0  0  0  0  0
   -1.4453   -1.9620    0.0000 C   0  0  0  0  0  0  0  0  0  0  0  0
   -2.2527    0.9123    0.0000 C   0  0  0  0  0  0  0  0  0  0  0  0
   -3.1731    0.4602    0.0000 C   0  0  0  0  0  0  0  0  0  0  0  0
   -0.2826    1.8328    0.0000 C   0  0  0  0  0  0  0  0  0  0  0  0
   -0.0565    0.4118    0.0000 C   0  0  0  0  0  0  0  0  0  0  0  0
   -0.1211   -1.4453    0.0000 C   0  0  0  0  0  0  0  0  0  0  0  0
   -0.6379   -2.1074    0.0000 C   0  0  0  0  0  0  0  0  0  0  0  0
    0.5409    1.9297    0.0000 C   0  0  0  0  0  0  0  0  0  0  0  0
    0.7509    0.5409    0.0000 C   0  0  0  0  0  0  0  0  0  0  0  0
    1.8328    1.4776    0.0000 C   0  0  0  0  0  0  0  0  0  0  0  0
   -4.5780   -1.4130    0.0000 C   0  0  0  0  0  0  0  0  0  0  0  0
   -4.5134   -2.2365    0.0000 C   0  0  0  0  0  0  0  0  0  0  0  0
    2.9148    2.2365    0.0000 C   0  0  0  0  0  0  0  0  0  0  0  0
    3.3346    1.5421    0.0000 C   0  0  0  0  0  0  0  0  0  0  0  0
    4.1582    1.5421    0.0000 C   0  0  0  0  0  0  0  0  0  0  0  0
    4.5780    0.8316    0.0000 C   0  0  0  0  0  0  0  0  0  0  0  0
  1 10  1  0  0  0  0
  2 15  1  0  0  0  0
  2 26  1  0  0  0  0
  3 15  2  0  0  0  0
  4 25  1  0  0  0  0
  4 28  1  0  0  0  0
  5 25  2  0  0  0  0
  6  7  1  0  0  0  0
  6  9  1  0  0  0  0
  6 13  1  0  0  0  0
  7 21  2  0  0  0  0
  8 23  1  0  0  0  0
  8 24  1  0  0  0  0
  8 25  1  0  0  0  0
  9 10  1  0  0  0  0
  9 11  2  0  0  0  0
 10 14  1  0  0  0  0
 10 17  1  0  0  0  0
 11 12  1  0  0  0  0
 11 18  1  0  0  0  0
 12 13  2  0  0  0  0
 12 15  1  0  0  0  0
 13 16  1  0  0  0  0
 14 19  1  0  0  0  0
 14 20  1  0  0  0  0
 16 22  2  0  0  0  0
 19 23  1  0  0  0  0
 20 24  1  0  0  0  0
 21 22  1  0  0  0  0
 26 27  1  0  0  0  0
 28 29  1  0  0  0  0
 29 30  1  0  0  0  0
 30 31  1  0  0  0  0
M  END
> <PUBCHEM_COMPOUND_ID_TYPE>
0

> <PUBCHEM_TOTAL_CHARGE>
0

> <PUBCHEM_SUBSTANCE_ID>
310942286

> <PUBCHEM_SUBSTANCE_VERSION>
1

> <PUBCHEM_EXT_DATASOURCE_NAME>
4488

> <PUBCHEM_EXT_DATASOURCE_REGID>
SCHEMBL16120321

> <PUBCHEM_SUBSTANCE_COMMENT>
InChI=1S/C23H33N3O5/c1-5-7-15-31-22(28)25-13-10-17(11-14-25)23(4,29)20-16(3)19(21(27)30-6-2)18-9-8-12-24-26(18)20/h8-9,12,17,29H,5-7,10-11,13-15H2,1-4H3
InChIKey=PPHXHPKZWGPZAM-UHFFFAOYSA-N

> <PUBCHEM_SUBSTANCE_SYNONYM>
SCHEMBL16120321

> <PUBCHEM_XREF_EXT_ID>
SCHEMBL16120321

> <PUBCHEM_EXT_DATASOURCE_URL>
https://www.surechembl.org/

> <PUBCHEM_EXT_SUBSTANCE_URL>
https://www.surechembl.org/chemical/SCHEMBL16120321

> <PUBCHEM_CID_ASSOCIATIONS>
117608935  1

> <PUBCHEM_COORDINATE_TYPE>
1
3

$$$$
