310948968
  -OEChem-07211613022D

 14 15  0     1  0  0  0  0  0999 V2000
   -0.3165   -0.4795    0.0000 N   0  0  0  0  0  0  0  0  0  0  0  0
   -1.1604   -0.3261    0.0000 N   0  0  0  0  0  0  0  0  0  0  0  0
    1.0836    1.3426    0.0000 N   0  0  3  0  0  0  0  0  0  0  0  0
    0.0671    0.3069    0.0000 C   0  0  0  0  0  0  0  0  0  0  0  0
   -0.5659    0.9014    0.0000 C   0  0  0  0  0  0  0  0  0  0  0  0
   -1.2946    0.5179    0.0000 C   0  0  0  0  0  0  0  0  0  0  0  0
    0.8727    0.5179    0.0000 C   0  0  0  0  0  0  0  0  0  0  0  0
   -0.3357    1.6879    0.0000 C   0  0  0  0  0  0  0  0  0  0  0  0
    0.4508    1.9371    0.0000 C   0  0  0  0  0  0  0  0  0  0  0  0
    0.0671   -1.2083    0.0000 C   0  0  0  0  0  0  0  0  0  0  0  0
   -1.9658    0.7096    0.0000 C   0  0  0  0  0  0  0  0  0  0  0  0
    1.9658    1.5536    0.0000 C   0  0  0  0  0  0  0  0  0  0  0  0
   -0.3741   -1.9371    0.0000 C   0  0  0  0  0  0  0  0  0  0  0  0
   -1.8317    1.3809    0.0000 C   0  0  0  0  0  0  0  0  0  0  0  0
  1  2  1  0  0  0  0
  1  4  1  0  0  0  0
  1 10  1  0  0  0  0
  2  6  2  0  0  0  0
  3  7  1  0  0  0  0
  3  9  1  0  0  0  0
  3 12  1  0  0  0  0
  4  5  2  0  0  0  0
  4  7  1  0  0  0  0
  5  6  1  0  0  0  0
  5  8  1  0  0  0  0
  6 11  1  0  0  0  0
  8  9  1  0  0  0  0
 10 13  1  0  0  0  0
 11 14  1  0  0  0  0
M  END
> <PUBCHEM_COMPOUND_ID_TYPE>
0

> <PUBCHEM_TOTAL_CHARGE>
0

> <PUBCHEM_SUBSTANCE_ID>
310948968

> <PUBCHEM_SUBSTANCE_VERSION>
1

> <PUBCHEM_EXT_DATASOURCE_NAME>
4488

> <PUBCHEM_EXT_DATASOURCE_REGID>
SCHEMBL16127156

> <PUBCHEM_SUBSTANCE_COMMENT>
InChI=1S/C11H19N3/c1-4-10-9-6-7-13(3)8-11(9)14(5-2)12-10/h4-8H2,1-3H3
InChIKey=BPAIOSFVYJZKNT-UHFFFAOYSA-N

> <PUBCHEM_SUBSTANCE_SYNONYM>
SCHEMBL16127156

> <PUBCHEM_XREF_EXT_ID>
SCHEMBL16127156

> <PUBCHEM_EXT_DATASOURCE_URL>
https://www.surechembl.org/

> <PUBCHEM_EXT_SUBSTANCE_URL>
https://www.surechembl.org/chemical/SCHEMBL16127156

> <PUBCHEM_CID_ASSOCIATIONS>
117614477  1

> <PUBCHEM_COORDINATE_TYPE>
1
3

$$$$
