310930181
  -OEChem-07211613022D

 24 26  0     1  0  0  0  0  0999 V2000
    3.1251   -0.5209    0.0000 O   0  0  0  0  0  0  0  0  0  0  0  0
    1.7629    0.0000    0.0000 O   0  0  0  0  0  0  0  0  0  0  0  0
    2.8446   -4.2870    0.0000 O   0  0  0  0  0  0  0  0  0  0  0  0
    0.0000   -5.1283    0.0000 O   0  0  0  0  0  0  0  0  0  0  0  0
    0.7212   -8.0130    0.0000 O   0  0  0  0  0  0  0  0  0  0  0  0
    2.1235   -8.0130    0.0000 O   0  0  0  0  0  0  0  0  0  0  0  0
    1.4423   -5.1283    0.0000 N   0  0  0  0  0  0  0  0  0  0  0  0
    1.4423   -6.7710    0.0000 N   0  0  0  0  0  0  0  0  0  0  0  0
    2.8446   -1.8430    0.0000 C   0  0  0  0  0  0  0  0  0  0  0  0
    2.1235   -1.4023    0.0000 C   0  0  0  0  0  0  0  0  0  0  0  0
    2.8446   -2.6443    0.0000 C   0  0  0  0  0  0  0  0  0  0  0  0
    2.1635   -3.0850    0.0000 C   0  0  0  0  0  0  0  0  0  0  0  0
    2.3238   -0.6010    0.0000 C   0  0  0  0  0  0  0  0  0  0  0  0
    2.1635   -3.8863    0.0000 C   0  0  3  0  0  0  0  0  0  0  0  0
    1.4023   -1.8430    0.0000 C   0  0  0  0  0  0  0  0  0  0  0  0
    3.4456   -1.2821    0.0000 C   0  0  0  0  0  0  0  0  0  0  0  0
    1.4023   -2.6443    0.0000 C   0  0  0  0  0  0  0  0  0  0  0  0
    1.4423   -4.3270    0.0000 C   0  0  0  0  0  0  0  0  0  0  0  0
    0.7212   -5.5290    0.0000 C   0  0  0  0  0  0  0  0  0  0  0  0
    0.7212   -6.3703    0.0000 C   0  0  0  0  0  0  0  0  0  0  0  0
    2.1635   -5.5290    0.0000 C   0  0  0  0  0  0  0  0  0  0  0  0
    3.5257   -3.0850    0.0000 C   0  0  0  0  0  0  0  0  0  0  0  0
    2.1635   -6.3703    0.0000 C   0  0  0  0  0  0  0  0  0  0  0  0
    1.4423   -7.6123    0.0000 C   0  0  0  0  0  0  0  0  0  0  0  0
  1 13  1  0  0  0  0
  1 16  1  0  0  0  0
  2 13  2  0  0  0  0
  3 14  1  0  0  0  0
  4 19  2  0  0  0  0
  5 24  2  0  0  0  0
  6 24  1  0  0  0  0
  7 18  1  0  0  0  0
  7 19  1  0  0  0  0
  7 21  1  0  0  0  0
  8 20  1  0  0  0  0
  8 23  1  0  0  0  0
  8 24  1  0  0  0  0
  9 10  2  0  0  0  0
  9 11  1  0  0  0  0
  9 16  1  0  0  0  0
 10 13  1  0  0  0  0
 10 15  1  0  0  0  0
 11 12  2  0  0  0  0
 11 22  1  0  0  0  0
 12 14  1  0  0  0  0
 12 17  1  0  0  0  0
 14 18  1  0  0  0  0
 15 17  2  0  0  0  0
 19 20  1  0  0  0  0
 21 23  1  0  0  0  0
M  END
> <PUBCHEM_COMPOUND_ID_TYPE>
0

> <PUBCHEM_TOTAL_CHARGE>
0

> <PUBCHEM_SUBSTANCE_ID>
310930181

> <PUBCHEM_SUBSTANCE_VERSION>
1

> <PUBCHEM_EXT_DATASOURCE_NAME>
4488

> <PUBCHEM_EXT_DATASOURCE_REGID>
SCHEMBL16107442

> <PUBCHEM_SUBSTANCE_COMMENT>
InChI=1S/C16H18N2O6/c1-9-10(2-3-11-12(9)8-24-15(11)21)13(19)6-17-4-5-18(16(22)23)7-14(17)20/h2-3,13,19H,4-8H2,1H3,(H,22,23)
InChIKey=JANOWIFCVPTIKS-UHFFFAOYSA-N

> <PUBCHEM_SUBSTANCE_SYNONYM>
SCHEMBL16107442

> <PUBCHEM_XREF_EXT_ID>
SCHEMBL16107442

> <PUBCHEM_EXT_DATASOURCE_URL>
https://www.surechembl.org/

> <PUBCHEM_EXT_SUBSTANCE_URL>
https://www.surechembl.org/chemical/SCHEMBL16107442

> <PUBCHEM_CID_ASSOCIATIONS>
117599396  1

> <PUBCHEM_COORDINATE_TYPE>
1
3

$$$$
