310931957
  -OEChem-07211613022D

 33 36  0     1  0  0  0  0  0999 V2000
    2.8241   -0.0634    0.0000 F   0  0  0  0  0  0  0  0  0  0  0  0
    1.4914   -1.0471    0.0000 F   0  0  0  0  0  0  0  0  0  0  0  0
    5.7117   -1.6818    0.0000 O   0  0  0  0  0  0  0  0  0  0  0  0
    1.6183   -3.3953    0.0000 O   0  0  0  0  0  0  0  0  0  0  0  0
    5.3626   -3.0780    0.0000 N   0  0  0  0  0  0  0  0  0  0  0  0
    5.7752   -3.8078    0.0000 N   0  0  0  0  0  0  0  0  0  0  0  0
    1.7770   -1.9674    0.0000 N   0  0  0  0  0  0  0  0  0  0  0  0
    4.0617   -3.6491    0.0000 N   0  0  0  0  0  0  0  0  0  0  0  0
    0.6346   -0.5077    0.0000 N   0  0  3  0  0  0  0  0  0  0  0  0
    9.5195   -0.3173    0.0000 N   0  0  0  0  0  0  0  0  0  0  0  0
    6.6637   -2.7924    0.0000 C   0  0  0  0  0  0  0  0  0  0  0  0
    5.9021   -2.4750    0.0000 C   0  0  0  0  0  0  0  0  0  0  0  0
    4.5376   -2.9828    0.0000 C   0  0  0  0  0  0  0  0  0  0  0  0
    7.3618   -2.3799    0.0000 C   0  0  0  0  0  0  0  0  0  0  0  0
    6.5685   -3.6174    0.0000 C   0  0  0  0  0  0  0  0  0  0  0  0
    2.9193   -2.8241    0.0000 C   0  0  0  0  0  0  0  0  0  0  0  0
    2.0943   -2.7289    0.0000 C   0  0  0  0  0  0  0  0  0  0  0  0
    7.3618   -1.5549    0.0000 C   0  0  0  0  0  0  0  0  0  0  0  0
    4.2203   -2.2212    0.0000 C   0  0  0  0  0  0  0  0  0  0  0  0
    2.1895   -0.5394    0.0000 C   0  0  0  0  0  0  0  0  0  0  0  0
    3.2366   -3.5857    0.0000 C   0  0  0  0  0  0  0  0  0  0  0  0
    3.3953   -2.1578    0.0000 C   0  0  0  0  0  0  0  0  0  0  0  0
    8.0916   -2.7924    0.0000 C   0  0  0  0  0  0  0  0  0  0  0  0
    2.3164   -1.3327    0.0000 C   0  0  0  0  0  0  0  0  0  0  0  0
    8.0916   -1.1423    0.0000 C   0  0  0  0  0  0  0  0  0  0  0  0
    8.7897   -1.5549    0.0000 C   0  0  0  0  0  0  0  0  0  0  0  0
    0.9519   -1.9356    0.0000 C   0  0  0  0  0  0  0  0  0  0  0  0
    8.7897   -2.3799    0.0000 C   0  0  0  0  0  0  0  0  0  0  0  0
    1.3962   -0.1586    0.0000 C   0  0  0  0  0  0  0  0  0  0  0  0
    0.4442   -1.3010    0.0000 C   0  0  0  0  0  0  0  0  0  0  0  0
    6.6637   -1.1423    0.0000 C   0  0  0  0  0  0  0  0  0  0  0  0
    9.5195   -1.1423    0.0000 C   0  0  0  0  0  0  0  0  0  0  0  0
    0.0000    0.0000    0.0000 C   0  0  0  0  0  0  0  0  0  0  0  0
  1 20  1  0  0  0  0
  2 20  1  0  0  0  0
  3 12  1  0  0  0  0
  4 17  2  0  0  0  0
  5  6  1  0  0  0  0
  5 12  1  0  0  0  0
  5 13  1  0  0  0  0
  6 15  2  0  0  0  0
  7 17  1  0  0  0  0
  7 24  1  0  0  0  0
  7 27  1  0  0  0  0
  8 13  1  0  0  0  0
  8 21  2  0  0  0  0
  9 29  1  0  0  0  0
  9 30  1  0  0  0  0
  9 33  1  0  0  0  0
 10 32  3  0  0  0  0
 11 12  2  0  0  0  0
 11 14  1  0  0  0  0
 11 15  1  0  0  0  0
 13 19  2  0  0  0  0
 14 18  2  0  0  0  0
 14 23  1  0  0  0  0
 16 17  1  0  0  0  0
 16 21  1  0  0  0  0
 16 22  2  0  0  0  0
 18 25  1  0  0  0  0
 18 31  1  0  0  0  0
 19 22  1  0  0  0  0
 20 24  1  0  0  0  0
 20 29  1  0  0  0  0
 23 28  2  0  0  0  0
 25 26  2  0  0  0  0
 26 28  1  0  0  0  0
 26 32  1  0  0  0  0
 27 30  1  0  0  0  0
M  END
> <PUBCHEM_COMPOUND_ID_TYPE>
0

> <PUBCHEM_TOTAL_CHARGE>
0

> <PUBCHEM_SUBSTANCE_ID>
310931957

> <PUBCHEM_SUBSTANCE_VERSION>
1

> <PUBCHEM_EXT_DATASOURCE_NAME>
4488

> <PUBCHEM_EXT_DATASOURCE_REGID>
SCHEMBL16109294

> <PUBCHEM_SUBSTANCE_COMMENT>
InChI=1S/C23H22F2N6O2/c1-15-9-16(10-26)3-5-18(15)19-12-28-31(22(19)33)20-6-4-17(11-27-20)21(32)30-8-7-29(2)13-23(24,25)14-30/h3-6,9,11-12,33H,7-8,13-14H2,1-2H3
InChIKey=YBAHSUMYFQBXPY-UHFFFAOYSA-N

> <PUBCHEM_SUBSTANCE_SYNONYM>
SCHEMBL16109294

> <PUBCHEM_XREF_EXT_ID>
SCHEMBL16109294

> <PUBCHEM_EXT_DATASOURCE_URL>
https://www.surechembl.org/

> <PUBCHEM_EXT_SUBSTANCE_URL>
https://www.surechembl.org/chemical/SCHEMBL16109294

> <PUBCHEM_CID_ASSOCIATIONS>
117600606  1

> <PUBCHEM_COORDINATE_TYPE>
1
3

$$$$
