310931439
  -OEChem-07211613022D

 48 52  0     1  0  0  0  0  0999 V2000
   -6.3235   -2.9491    0.0000 Cl  0  0  0  0  0  0  0  0  0  0  0  0
    0.8212   -4.5991    0.0000 S   0  0  0  0  0  0  0  0  0  0  0  0
    0.8682   -6.3215    0.0000 S   0  0  0  0  0  0  0  0  0  0  0  0
   -0.6078   -5.4241    0.0000 F   0  0  0  0  0  0  0  0  0  0  0  0
   -0.6078   -2.1241    0.0000 F   0  0  0  0  0  0  0  0  0  0  0  0
   -2.1472   -6.6616    0.0000 F   0  0  0  0  0  0  0  0  0  0  0  0
   -0.4972   -6.6616    0.0000 F   0  0  0  0  0  0  0  0  0  0  0  0
   -1.3222   -7.4866    0.0000 F   0  0  0  0  0  0  0  0  0  0  0  0
    1.2337   -3.8846    0.0000 O   0  0  0  0  0  0  0  0  0  0  0  0
    0.4087   -5.3136    0.0000 O   0  0  0  0  0  0  0  0  0  0  0  0
   -2.0367   -2.9491    0.0000 O   0  0  0  0  0  0  0  0  0  0  0  0
    3.6791   -3.7741    0.0000 O   0  0  0  0  0  0  0  0  0  0  0  0
    5.1080   -6.2491    0.0000 O   0  0  0  0  0  0  0  0  0  0  0  0
    1.5356   -5.0116    0.0000 N   0  0  0  0  0  0  0  0  0  0  0  0
    2.2031   -6.3215    0.0000 N   0  0  0  0  0  0  0  0  0  0  0  0
    1.1231   -7.1062    0.0000 N   0  0  0  0  0  0  0  0  0  0  0  0
   -2.0367   -5.4241    0.0000 N   0  0  3  0  0  0  0  0  0  0  0  0
    0.1067   -4.1866    0.0000 C   0  0  0  0  0  0  0  0  0  0  0  0
   -0.6078   -4.5991    0.0000 C   0  0  0  0  0  0  0  0  0  0  0  0
    1.5356   -5.8366    0.0000 C   0  0  0  0  0  0  0  0  0  0  0  0
    0.1067   -3.3616    0.0000 C   0  0  0  0  0  0  0  0  0  0  0  0
    2.2501   -4.5991    0.0000 C   0  0  0  0  0  0  0  0  0  0  0  0
   -0.6078   -2.9491    0.0000 C   0  0  0  0  0  0  0  0  0  0  0  0
   -1.3222   -3.3616    0.0000 C   0  0  0  0  0  0  0  0  0  0  0  0
   -1.3222   -4.1866    0.0000 C   0  0  0  0  0  0  0  0  0  0  0  0
    2.9646   -5.0116    0.0000 C   0  0  0  0  0  0  0  0  0  0  0  0
    3.6791   -4.5991    0.0000 C   0  0  0  0  0  0  0  0  0  0  0  0
   -2.7512   -4.1866    0.0000 C   0  0  3  0  0  0  0  0  0  0  0  0
   -3.4656   -4.5991    0.0000 C   0  0  3  0  0  0  0  0  0  0  0  0
    2.9646   -5.8366    0.0000 C   0  0  0  0  0  0  0  0  0  0  0  0
    1.9481   -7.1062    0.0000 C   0  0  0  0  0  0  0  0  0  0  0  0
   -2.7512   -3.3616    0.0000 C   0  0  0  0  0  0  0  0  0  0  0  0
    4.3935   -5.0116    0.0000 C   0  0  0  0  0  0  0  0  0  0  0  0
   -4.1801   -4.1866    0.0000 C   0  0  0  0  0  0  0  0  0  0  0  0
    4.3935   -5.8366    0.0000 C   0  0  0  0  0  0  0  0  0  0  0  0
   -2.0367   -4.5991    0.0000 C   0  0  0  0  0  0  0  0  0  0  0  0
    3.6791   -6.2491    0.0000 C   0  0  0  0  0  0  0  0  0  0  0  0
   -3.4656   -5.4241    0.0000 C   0  0  0  0  0  0  0  0  0  0  0  0
   -2.7512   -5.8366    0.0000 C   0  0  0  0  0  0  0  0  0  0  0  0
   -4.8946   -4.5991    0.0000 C   0  0  0  0  0  0  0  0  0  0  0  0
   -4.1801   -3.3616    0.0000 C   0  0  0  0  0  0  0  0  0  0  0  0
   -1.3222   -5.8366    0.0000 C   0  0  0  0  0  0  0  0  0  0  0  0
   -1.3222   -6.6616    0.0000 C   0  0  0  0  0  0  0  0  0  0  0  0
   -5.6091   -4.1866    0.0000 C   0  0  0  0  0  0  0  0  0  0  0  0
   -4.8946   -2.9491    0.0000 C   0  0  0  0  0  0  0  0  0  0  0  0
   -5.6091   -3.3616    0.0000 C   0  0  0  0  0  0  0  0  0  0  0  0
    2.9646   -3.3616    0.0000 C   0  0  0  0  0  0  0  0  0  0  0  0
    5.1080   -7.0741    0.0000 C   0  0  0  0  0  0  0  0  0  0  0  0
  1 46  1  0  0  0  0
  2  9  2  0  0  0  0
  2 10  2  0  0  0  0
  2 14  1  0  0  0  0
  2 18  1  0  0  0  0
  3 16  1  0  0  0  0
  3 20  1  0  0  0  0
  4 19  1  0  0  0  0
  5 23  1  0  0  0  0
  6 43  1  0  0  0  0
  7 43  1  0  0  0  0
  8 43  1  0  0  0  0
 11 24  1  0  0  0  0
 11 32  1  0  0  0  0
 12 27  1  0  0  0  0
 12 47  1  0  0  0  0
 13 35  1  0  0  0  0
 13 48  1  0  0  0  0
 14 20  1  0  0  0  0
 14 22  1  0  0  0  0
 15 20  2  0  0  0  0
 15 31  1  0  0  0  0
 16 31  2  0  0  0  0
 17 36  1  0  0  0  0
 17 39  1  0  0  0  0
 17 42  1  0  0  0  0
 18 19  2  0  0  0  0
 18 21  1  0  0  0  0
 19 25  1  0  0  0  0
 21 23  2  0  0  0  0
 22 26  1  0  0  0  0
 23 24  1  0  0  0  0
 24 25  2  0  0  0  0
 26 27  2  0  0  0  0
 26 30  1  0  0  0  0
 27 33  1  0  0  0  0
 28 29  1  0  0  0  0
 28 32  1  0  0  0  0
 28 36  1  0  0  0  0
 29 34  1  0  0  0  0
 29 38  1  0  0  0  0
 30 37  2  0  0  0  0
 33 35  2  0  0  0  0
 34 40  2  0  0  0  0
 34 41  1  0  0  0  0
 35 37  1  0  0  0  0
 38 39  1  0  0  0  0
 40 44  1  0  0  0  0
 41 45  2  0  0  0  0
 42 43  1  0  0  0  0
 44 46  2  0  0  0  0
 45 46  1  0  0  0  0
M  END
> <PUBCHEM_COMPOUND_ID_TYPE>
0

> <PUBCHEM_TOTAL_CHARGE>
0

> <PUBCHEM_SUBSTANCE_ID>
310931439

> <PUBCHEM_SUBSTANCE_VERSION>
1

> <PUBCHEM_EXT_DATASOURCE_NAME>
4488

> <PUBCHEM_EXT_DATASOURCE_REGID>
SCHEMBL16108764

> <PUBCHEM_SUBSTANCE_COMMENT>
InChI=1S/C31H30ClF5N4O5S2/c1-44-23-8-5-20(27(11-23)45-2)15-41(30-38-18-39-47-30)48(42,43)29-13-25(33)28(12-26(29)34)46-16-21-14-40(17-31(35,36)37)10-9-24(21)19-3-6-22(32)7-4-19/h3-8,11-13,18,21,24H,9-10,14-17H2,1-2H3
InChIKey=SIGOYMOPJDHEFU-UHFFFAOYSA-N

> <PUBCHEM_SUBSTANCE_SYNONYM>
SCHEMBL16108764

> <PUBCHEM_XREF_EXT_ID>
SCHEMBL16108764

> <PUBCHEM_EXT_DATASOURCE_URL>
https://www.surechembl.org/

> <PUBCHEM_EXT_SUBSTANCE_URL>
https://www.surechembl.org/chemical/SCHEMBL16108764

> <PUBCHEM_CID_ASSOCIATIONS>
117600216  1

> <PUBCHEM_COORDINATE_TYPE>
1
3

$$$$
