310933119
  -OEChem-07211613022D

 31 34  0     1  0  0  0  0  0999 V2000
    4.0208   -2.7431    0.0000 O   0  0  0  0  0  0  0  0  0  0  0  0
    8.5301   -2.8559    0.0000 O   0  0  0  0  0  0  0  0  0  0  0  0
   11.2732   -4.7723    0.0000 O   0  0  0  0  0  0  0  0  0  0  0  0
    4.9226   -1.6158    0.0000 N   0  0  0  0  0  0  0  0  0  0  0  0
    4.8475   -0.7891    0.0000 N   0  0  0  0  0  0  0  0  0  0  0  0
    6.3506   -1.6158    0.0000 N   0  0  0  0  0  0  0  0  0  0  0  0
    7.8161   -4.0959    0.0000 N   0  0  0  0  0  0  0  0  0  0  0  0
    0.0000   -2.4801    0.0000 N   0  0  0  0  0  0  0  0  0  0  0  0
    3.6074   -1.3528    0.0000 C   0  0  0  0  0  0  0  0  0  0  0  0
    4.1711   -1.9540    0.0000 C   0  0  0  0  0  0  0  0  0  0  0  0
    2.7807   -1.4279    0.0000 C   0  0  0  0  0  0  0  0  0  0  0  0
    5.6366   -2.0292    0.0000 C   0  0  0  0  0  0  0  0  0  0  0  0
    4.0208   -0.6388    0.0000 C   0  0  0  0  0  0  0  0  0  0  0  0
    2.2922   -0.7516    0.0000 C   0  0  0  0  0  0  0  0  0  0  0  0
    2.4801   -2.1795    0.0000 C   0  0  0  0  0  0  0  0  0  0  0  0
    5.6366   -2.8559    0.0000 C   0  0  0  0  0  0  0  0  0  0  0  0
    7.0646   -2.8559    0.0000 C   0  0  0  0  0  0  0  0  0  0  0  0
    1.5031   -0.8643    0.0000 C   0  0  0  0  0  0  0  0  0  0  0  0
    1.1649   -1.6158    0.0000 C   0  0  0  0  0  0  0  0  0  0  0  0
    7.0646   -2.0292    0.0000 C   0  0  0  0  0  0  0  0  0  0  0  0
    6.3506   -3.2317    0.0000 C   0  0  0  0  0  0  0  0  0  0  0  0
    1.6534   -2.2922    0.0000 C   0  0  0  0  0  0  0  0  0  0  0  0
    7.8161   -3.2317    0.0000 C   0  0  0  0  0  0  0  0  0  0  0  0
    2.6304    0.0000    0.0000 C   0  0  0  0  0  0  0  0  0  0  0  0
    0.3382   -1.7286    0.0000 C   0  0  0  0  0  0  0  0  0  0  0  0
    8.5301   -4.5093    0.0000 C   0  0  0  0  0  0  0  0  0  0  0  0
    9.9580   -4.4717    0.0000 C   0  0  3  0  0  0  0  0  0  0  0  0
    9.2441   -4.0583    0.0000 C   0  0  0  0  0  0  0  0  0  0  0  0
   10.7095   -4.1711    0.0000 C   0  0  0  0  0  0  0  0  0  0  0  0
   10.0707   -5.2984    0.0000 C   0  0  0  0  0  0  0  0  0  0  0  0
   10.8599   -5.4863    0.0000 C   0  0  0  0  0  0  0  0  0  0  0  0
  1 10  1  0  0  0  0
  2 23  2  0  0  0  0
  3 29  1  0  0  0  0
  3 31  1  0  0  0  0
  4  5  1  0  0  0  0
  4 10  1  0  0  0  0
  4 12  1  0  0  0  0
  5 13  2  0  0  0  0
  6 12  2  0  0  0  0
  6 20  1  0  0  0  0
  7 23  1  0  0  0  0
  7 26  1  0  0  0  0
  8 25  3  0  0  0  0
  9 10  2  0  0  0  0
  9 11  1  0  0  0  0
  9 13  1  0  0  0  0
 11 14  1  0  0  0  0
 11 15  2  0  0  0  0
 12 16  1  0  0  0  0
 14 18  2  0  0  0  0
 14 24  1  0  0  0  0
 15 22  1  0  0  0  0
 16 21  2  0  0  0  0
 17 20  2  0  0  0  0
 17 21  1  0  0  0  0
 17 23  1  0  0  0  0
 18 19  1  0  0  0  0
 19 22  2  0  0  0  0
 19 25  1  0  0  0  0
 26 28  1  0  0  0  0
 27 28  1  0  0  0  0
 27 29  1  0  0  0  0
 27 30  1  0  0  0  0
 30 31  1  0  0  0  0
M  END
> <PUBCHEM_COMPOUND_ID_TYPE>
0

> <PUBCHEM_TOTAL_CHARGE>
0

> <PUBCHEM_SUBSTANCE_ID>
310933119

> <PUBCHEM_SUBSTANCE_VERSION>
1

> <PUBCHEM_EXT_DATASOURCE_NAME>
4488

> <PUBCHEM_EXT_DATASOURCE_REGID>
SCHEMBL16110521

> <PUBCHEM_SUBSTANCE_COMMENT>
InChI=1S/C23H23N5O3/c1-15-10-17(11-24)2-4-19(15)20-13-27-28(23(20)30)21-5-3-18(12-26-21)22(29)25-8-6-16-7-9-31-14-16/h2-5,10,12-13,16,30H,6-9,14H2,1H3,(H,25,29)
InChIKey=NTVHSHVUENVTSX-UHFFFAOYSA-N

> <PUBCHEM_SUBSTANCE_SYNONYM>
SCHEMBL16110521

> <PUBCHEM_XREF_EXT_ID>
SCHEMBL16110521

> <PUBCHEM_EXT_DATASOURCE_URL>
https://www.surechembl.org/

> <PUBCHEM_EXT_SUBSTANCE_URL>
https://www.surechembl.org/chemical/SCHEMBL16110521

> <PUBCHEM_CID_ASSOCIATIONS>
117601575  1

> <PUBCHEM_COORDINATE_TYPE>
1
3

$$$$
