310929991
  -OEChem-07211613022D

 23 25  0     1  0  0  0  0  0999 V2000
    0.6540   -0.4284    0.0000 O   0  0  0  0  0  0  0  0  0  0  0  0
    2.5110   -1.3771    0.0000 O   0  0  0  0  0  0  0  0  0  0  0  0
    1.9564   -3.0841    0.0000 O   0  0  0  0  0  0  0  0  0  0  0  0
   -1.4009    0.3077    0.0000 O   0  0  0  0  0  0  0  0  0  0  0  0
    1.4640   -0.4284    0.0000 N   0  0  3  0  0  0  0  0  0  0  0  0
   -0.3931   -1.3771    0.0000 N   0  0  3  0  0  0  0  0  0  0  0  0
    2.6939    0.2990    0.0000 N   0  0  0  0  0  0  0  0  0  0  0  0
   -1.7908   -1.6742    0.0000 N   0  0  0  0  0  0  0  0  0  0  0  0
    1.0590   -1.1471    0.0000 C   0  0  3  0  0  0  0  0  0  0  0  0
    0.3915   -1.6320    0.0000 C   0  0  3  0  0  0  0  0  0  0  0  0
    1.7264   -1.6320    0.0000 C   0  0  3  0  0  0  0  0  0  0  0  0
    1.4715   -2.4167    0.0000 C   0  0  3  0  0  0  0  0  0  0  0  0
    0.6465   -2.4167    0.0000 C   0  0  0  0  0  0  0  0  0  0  0  0
    2.2889   -0.4197    0.0000 C   0  0  0  0  0  0  0  0  0  0  0  0
    1.0440    0.2817    0.0000 C   0  0  0  0  0  0  0  0  0  0  0  0
   -1.0062   -1.9291    0.0000 C   0  0  0  0  0  0  0  0  0  0  0  0
   -0.5646   -0.5701    0.0000 C   0  0  0  0  0  0  0  0  0  0  0  0
   -0.1710   -0.4197    0.0000 C   0  0  0  0  0  0  0  0  0  0  0  0
    1.4490    1.0005    0.0000 C   0  0  0  0  0  0  0  0  0  0  0  0
   -1.3492   -0.3152    0.0000 C   0  0  0  0  0  0  0  0  0  0  0  0
    2.2740    1.0091    0.0000 C   0  0  0  0  0  0  0  0  0  0  0  0
   -1.9623   -0.8672    0.0000 C   0  0  0  0  0  0  0  0  0  0  0  0
   -0.5760    0.2990    0.0000 C   0  0  0  0  0  0  0  0  0  0  0  0
  1  9  1  0  0  0  0
  1 18  1  0  0  0  0
  2 11  1  0  0  0  0
  3 12  1  0  0  0  0
  4 23  1  0  0  0  0
  5  9  1  0  0  0  0
  5 14  1  0  0  0  0
  5 15  1  0  0  0  0
  6 10  1  0  0  0  0
  6 16  1  0  0  0  0
  6 17  1  0  0  0  0
  7 14  1  0  0  0  0
  7 21  2  0  0  0  0
  8 16  1  0  0  0  0
  8 22  2  0  0  0  0
  9 10  1  0  0  0  0
  9 11  1  0  0  0  0
 10 13  1  0  0  0  0
 11 12  1  0  0  0  0
 12 13  1  0  0  0  0
 15 19  2  0  0  0  0
 17 20  2  0  0  0  0
 18 23  1  0  0  0  0
 19 21  1  0  0  0  0
 20 22  1  0  0  0  0
M  END
> <PUBCHEM_COMPOUND_ID_TYPE>
0

> <PUBCHEM_TOTAL_CHARGE>
0

> <PUBCHEM_SUBSTANCE_ID>
310929991

> <PUBCHEM_SUBSTANCE_VERSION>
1

> <PUBCHEM_EXT_DATASOURCE_NAME>
4488

> <PUBCHEM_EXT_DATASOURCE_REGID>
SCHEMBL16107228

> <PUBCHEM_SUBSTANCE_COMMENT>
InChI=1S/C15H22N4O4/c20-7-8-23-15(19-6-2-4-17-11-19)13(9-12(21)14(15)22)18-5-1-3-16-10-18/h1-6,12-14,20-22H,7-11H2
InChIKey=JLKXNHIMLZTLSQ-UHFFFAOYSA-N

> <PUBCHEM_SUBSTANCE_SYNONYM>
SCHEMBL16107228

> <PUBCHEM_XREF_EXT_ID>
SCHEMBL16107228

> <PUBCHEM_EXT_DATASOURCE_URL>
https://www.surechembl.org/

> <PUBCHEM_EXT_SUBSTANCE_URL>
https://www.surechembl.org/chemical/SCHEMBL16107228

> <PUBCHEM_CID_ASSOCIATIONS>
117599248  1

> <PUBCHEM_COORDINATE_TYPE>
1
3

$$$$
