310935092
  -OEChem-07211613022D

 43 48  0     1  0  0  0  0  0999 V2000
    5.6892   -3.6859    0.0000 S   0  0  0  0  0  0  0  0  0  0  0  0
    5.3954   -2.3771    0.0000 F   0  0  0  0  0  0  0  0  0  0  0  0
    5.4221   -0.9348    0.0000 F   0  0  0  0  0  0  0  0  0  0  0  0
    4.5673   -2.3504    0.0000 F   0  0  0  0  0  0  0  0  0  0  0  0
    6.1432   -4.4872    0.0000 O   0  0  0  0  0  0  0  0  0  0  0  0
    5.2885   -2.9915    0.0000 O   0  0  0  0  0  0  0  0  0  0  0  0
    2.1368   -4.1132    0.0000 N   0  0  3  0  0  0  0  0  0  0  0  0
    0.7212   -4.1132    0.0000 N   0  0  0  0  0  0  0  0  0  0  0  0
    0.0000   -2.8579    0.0000 N   0  0  0  0  0  0  0  0  0  0  0  0
    6.3836   -3.2853    0.0000 N   0  0  3  0  0  0  0  0  0  0  0  0
    3.5791    0.0000    0.0000 N   0  0  0  0  0  0  0  0  0  0  0  0
    4.4338   -1.3889    0.0000 N   0  0  0  0  0  0  0  0  0  0  0  0
    1.4423   -2.8579    0.0000 C   0  0  0  0  0  0  0  0  0  0  0  0
    1.4156   -3.6859    0.0000 C   0  0  0  0  0  0  0  0  0  0  0  0
    0.7212   -2.4573    0.0000 C   0  0  0  0  0  0  0  0  0  0  0  0
    3.5791   -4.1132    0.0000 C   0  0  0  0  0  0  0  0  0  0  0  0
    2.1368   -1.6560    0.0000 C   0  0  0  0  0  0  0  0  0  0  0  0
    2.1368   -2.4840    0.0000 C   0  0  0  0  0  0  0  0  0  0  0  0
    0.7212   -1.6560    0.0000 C   0  0  0  0  0  0  0  0  0  0  0  0
    4.9947   -4.1132    0.0000 C   0  0  0  0  0  0  0  0  0  0  0  0
    3.5791   -4.9412    0.0000 C   0  0  0  0  0  0  0  0  0  0  0  0
    2.8579   -3.6859    0.0000 C   0  0  0  0  0  0  0  0  0  0  0  0
    4.2735   -3.6859    0.0000 C   0  0  0  0  0  0  0  0  0  0  0  0
    2.8579   -1.2286    0.0000 C   0  0  0  0  0  0  0  0  0  0  0  0
    1.4156   -1.2286    0.0000 C   0  0  0  0  0  0  0  0  0  0  0  0
    2.1368   -4.9412    0.0000 C   0  0  0  0  0  0  0  0  0  0  0  0
    2.8579   -5.3419    0.0000 C   0  0  0  0  0  0  0  0  0  0  0  0
    4.9947   -4.9412    0.0000 C   0  0  0  0  0  0  0  0  0  0  0  0
    4.2735   -5.3419    0.0000 C   0  0  0  0  0  0  0  0  0  0  0  0
    0.0000   -3.7126    0.0000 C   0  0  0  0  0  0  0  0  0  0  0  0
    3.5791   -1.6293    0.0000 C   0  0  0  0  0  0  0  0  0  0  0  0
    4.3002   -1.2286    0.0000 C   0  0  0  0  0  0  0  0  0  0  0  0
    2.8846   -0.4006    0.0000 C   0  0  0  0  0  0  0  0  0  0  0  0
    4.9947   -1.6560    0.0000 C   0  0  0  0  0  0  0  0  0  0  0  0
    0.0000   -1.2286    0.0000 C   0  0  0  0  0  0  0  0  0  0  0  0
    6.3836   -2.4840    0.0000 C   0  0  0  0  0  0  0  0  0  0  0  0
    4.3269   -0.4006    0.0000 C   0  0  0  0  0  0  0  0  0  0  0  0
    5.6625   -2.0566    0.0000 C   0  0  0  0  0  0  0  0  0  0  0  0
    7.1048   -3.7126    0.0000 C   0  0  0  0  0  0  0  0  0  0  0  0
    5.6892   -1.2286    0.0000 C   0  0  0  0  0  0  0  0  0  0  0  0
    4.9679   -2.4573    0.0000 C   0  0  0  0  0  0  0  0  0  0  0  0
    4.9679   -0.8013    0.0000 C   0  0  0  0  0  0  0  0  0  0  0  0
    4.2735   -2.0566    0.0000 C   0  0  0  0  0  0  0  0  0  0  0  0
  1  5  2  0  0  0  0
  1  6  2  0  0  0  0
  1 10  1  0  0  0  0
  1 20  1  0  0  0  0
  2 34  1  0  0  0  0
  3 34  1  0  0  0  0
  4 34  1  0  0  0  0
  7 14  1  0  0  0  0
  7 22  1  0  0  0  0
  7 26  1  0  0  0  0
  8 14  1  0  0  0  0
  8 30  2  0  0  0  0
  9 15  2  0  0  0  0
  9 30  1  0  0  0  0
 10 36  1  0  0  0  0
 10 39  1  0  0  0  0
 11 33  1  0  0  0  0
 11 37  2  0  0  0  0
 12 42  1  0  0  0  0
 12 43  1  0  0  0  0
 13 14  2  0  0  0  0
 13 15  1  0  0  0  0
 13 18  1  0  0  0  0
 15 19  1  0  0  0  0
 16 21  2  0  0  0  0
 16 22  1  0  0  0  0
 16 23  1  0  0  0  0
 17 18  2  0  0  0  0
 17 24  1  0  0  0  0
 17 25  1  0  0  0  0
 19 25  2  0  0  0  0
 19 35  1  0  0  0  0
 20 23  2  0  0  0  0
 20 28  1  0  0  0  0
 21 27  1  0  0  0  0
 21 29  1  0  0  0  0
 24 31  1  0  0  0  0
 24 33  2  0  0  0  0
 26 27  1  0  0  0  0
 28 29  2  0  0  0  0
 31 32  2  0  0  0  0
 32 34  1  0  0  0  0
 32 37  1  0  0  0  0
 36 38  1  0  0  0  0
 38 40  1  0  0  0  0
 38 41  1  0  0  0  0
 40 42  1  0  0  0  0
 41 43  1  0  0  0  0
M  END
> <PUBCHEM_COMPOUND_ID_TYPE>
0

> <PUBCHEM_TOTAL_CHARGE>
0

> <PUBCHEM_SUBSTANCE_ID>
310935092

> <PUBCHEM_SUBSTANCE_VERSION>
1

> <PUBCHEM_EXT_DATASOURCE_NAME>
4488

> <PUBCHEM_EXT_DATASOURCE_REGID>
SCHEMBL16112618

> <PUBCHEM_SUBSTANCE_COMMENT>
InChI=1S/C31H33F3N6O2S/c1-20-11-23(24-12-26(16-36-15-24)31(32,33)34)14-28-29(20)37-19-38-30(28)40-10-7-22-3-4-27(13-25(22)18-40)43(41,42)39(2)17-21-5-8-35-9-6-21/h3-4,11-16,19,21,35H,5-10,17-18H2,1-2H3
InChIKey=HCQGRLNQFLIPAV-UHFFFAOYSA-N

> <PUBCHEM_SUBSTANCE_SYNONYM>
SCHEMBL16112618

> <PUBCHEM_XREF_EXT_ID>
SCHEMBL16112618

> <PUBCHEM_EXT_DATASOURCE_URL>
https://www.surechembl.org/

> <PUBCHEM_EXT_SUBSTANCE_URL>
https://www.surechembl.org/chemical/SCHEMBL16112618

> <PUBCHEM_CID_ASSOCIATIONS>
86301056  1

> <PUBCHEM_COORDINATE_TYPE>
1
3

$$$$
