310943470
  -OEChem-07211613022D

 27 29  0     1  0  0  0  0  0999 V2000
   -0.3298   -1.8758    0.0000 O   0  0  0  0  0  0  0  0  0  0  0  0
   -0.3298    3.1126    0.0000 O   0  0  0  0  0  0  0  0  0  0  0  0
   -1.7727   -2.7141    0.0000 O   0  0  0  0  0  0  0  0  0  0  0  0
    0.3985    1.8758    0.0000 N   0  0  0  0  0  0  0  0  0  0  0  0
    2.2124    1.4498    0.0000 N   0  0  3  0  0  0  0  0  0  0  0  0
   -1.7727    0.6390    0.0000 C   0  0  0  0  0  0  0  0  0  0  0  0
   -1.7727   -0.2130    0.0000 C   0  0  0  0  0  0  0  0  0  0  0  0
   -1.0581    1.8758    0.0000 C   0  0  0  0  0  0  0  0  0  0  0  0
   -2.5011    1.0513    0.0000 C   0  0  0  0  0  0  0  0  0  0  0  0
   -1.0581    1.0376    0.0000 C   0  0  0  0  0  0  0  0  0  0  0  0
   -0.3298    2.2880    0.0000 C   0  0  0  0  0  0  0  0  0  0  0  0
   -1.0581   -0.6252    0.0000 C   0  0  0  0  0  0  0  0  0  0  0  0
   -1.0581   -1.4498    0.0000 C   0  0  0  0  0  0  0  0  0  0  0  0
   -1.7727   -1.8758    0.0000 C   0  0  0  0  0  0  0  0  0  0  0  0
   -1.8002    2.2743    0.0000 C   0  0  0  0  0  0  0  0  0  0  0  0
   -2.4736   -0.6252    0.0000 C   0  0  0  0  0  0  0  0  0  0  0  0
   -2.4736    1.8483    0.0000 C   0  0  0  0  0  0  0  0  0  0  0  0
   -2.4736   -1.4635    0.0000 C   0  0  0  0  0  0  0  0  0  0  0  0
    1.0306    2.3843    0.0000 C   0  0  0  0  0  0  0  0  0  0  0  0
    0.4122    1.0376    0.0000 C   0  0  0  0  0  0  0  0  0  0  0  0
   -3.0095    0.7215    0.0000 C   0  0  0  0  0  0  0  0  0  0  0  0
    1.8552    2.2056    0.0000 C   0  0  0  0  0  0  0  0  0  0  0  0
    1.0444    0.5291    0.0000 C   0  0  0  0  0  0  0  0  0  0  0  0
    1.8414    0.7077    0.0000 C   0  0  0  0  0  0  0  0  0  0  0  0
   -0.3298   -2.6866    0.0000 C   0  0  0  0  0  0  0  0  0  0  0  0
   -2.4599   -3.1126    0.0000 C   0  0  0  0  0  0  0  0  0  0  0  0
    3.0095    1.2437    0.0000 C   0  0  0  0  0  0  0  0  0  0  0  0
  1 13  1  0  0  0  0
  1 25  1  0  0  0  0
  2 11  2  0  0  0  0
  3 14  1  0  0  0  0
  3 26  1  0  0  0  0
  4 11  1  0  0  0  0
  4 19  1  0  0  0  0
  4 20  1  0  0  0  0
  5 22  1  0  0  0  0
  5 24  1  0  0  0  0
  5 27  1  0  0  0  0
  6  7  1  0  0  0  0
  6  9  1  0  0  0  0
  6 10  2  0  0  0  0
  7 12  1  0  0  0  0
  7 16  2  0  0  0  0
  8 10  1  0  0  0  0
  8 11  1  0  0  0  0
  8 15  2  0  0  0  0
  9 17  2  0  0  0  0
  9 21  1  0  0  0  0
 12 13  2  0  0  0  0
 13 14  1  0  0  0  0
 14 18  2  0  0  0  0
 15 17  1  0  0  0  0
 16 18  1  0  0  0  0
 19 22  1  0  0  0  0
 20 23  1  0  0  0  0
 23 24  1  0  0  0  0
M  END
> <PUBCHEM_COMPOUND_ID_TYPE>
0

> <PUBCHEM_TOTAL_CHARGE>
0

> <PUBCHEM_SUBSTANCE_ID>
310943470

> <PUBCHEM_SUBSTANCE_VERSION>
1

> <PUBCHEM_EXT_DATASOURCE_NAME>
4488

> <PUBCHEM_EXT_DATASOURCE_REGID>
SCHEMBL16121535

> <PUBCHEM_SUBSTANCE_COMMENT>
InChI=1S/C22H28N2O3/c1-16-6-7-18(22(25)24-11-5-10-23(2)12-13-24)14-19(16)17-8-9-20(26-3)21(15-17)27-4/h6-9,14-15H,5,10-13H2,1-4H3
InChIKey=VLMBTXKDNHVIID-UHFFFAOYSA-N

> <PUBCHEM_SUBSTANCE_SYNONYM>
SCHEMBL16121535

> <PUBCHEM_XREF_EXT_ID>
SCHEMBL16121535

> <PUBCHEM_EXT_DATASOURCE_URL>
https://www.surechembl.org/

> <PUBCHEM_EXT_SUBSTANCE_URL>
https://www.surechembl.org/chemical/SCHEMBL16121535

> <PUBCHEM_CID_ASSOCIATIONS>
117609893  1

> <PUBCHEM_COORDINATE_TYPE>
1
3

$$$$
