310931395
  -OEChem-07211613022D

 20 21  0     1  0  0  0  0  0999 V2000
    0.7428   -7.0740    0.0000 Cl  0  0  0  0  0  0  0  0  0  0  0  0
    0.0000    0.0000    0.0000 F   0  0  0  0  0  0  0  0  0  0  0  0
    2.9003   -3.3248    0.0000 O   0  0  0  0  0  0  0  0  0  0  0  0
    2.1576   -4.5627    0.0000 O   0  0  0  0  0  0  0  0  0  0  0  0
    0.7428   -2.0869    0.0000 N   0  0  3  0  0  0  0  0  0  0  0  0
    0.7428   -3.7493    0.0000 C   0  0  3  0  0  0  0  0  0  0  0  0
    1.4502   -3.3248    0.0000 C   0  0  3  0  0  0  0  0  0  0  0  0
    0.7428   -4.5627    0.0000 C   0  0  0  0  0  0  0  0  0  0  0  0
    1.4502   -2.4759    0.0000 C   0  0  0  0  0  0  0  0  0  0  0  0
    2.1576   -3.7493    0.0000 C   0  0  0  0  0  0  0  0  0  0  0  0
    0.0000   -3.3248    0.0000 C   0  0  0  0  0  0  0  0  0  0  0  0
    0.0000   -2.4759    0.0000 C   0  0  0  0  0  0  0  0  0  0  0  0
    1.4502   -4.9872    0.0000 C   0  0  0  0  0  0  0  0  0  0  0  0
    0.0000   -4.9872    0.0000 C   0  0  0  0  0  0  0  0  0  0  0  0
    0.7428   -6.2252    0.0000 C   0  0  0  0  0  0  0  0  0  0  0  0
    1.4502   -5.8007    0.0000 C   0  0  0  0  0  0  0  0  0  0  0  0
    0.0000   -5.8007    0.0000 C   0  0  0  0  0  0  0  0  0  0  0  0
    0.7428   -1.2379    0.0000 C   0  0  0  0  0  0  0  0  0  0  0  0
    0.0000   -0.8489    0.0000 C   0  0  0  0  0  0  0  0  0  0  0  0
    3.6078   -3.7493    0.0000 C   0  0  0  0  0  0  0  0  0  0  0  0
  1 15  1  0  0  0  0
  2 19  1  0  0  0  0
  3 10  1  0  0  0  0
  3 20  1  0  0  0  0
  4 10  2  0  0  0  0
  5  9  1  0  0  0  0
  5 12  1  0  0  0  0
  5 18  1  0  0  0  0
  6  7  1  0  0  0  0
  6  8  1  0  0  0  0
  6 11  1  0  0  0  0
  7  9  1  0  0  0  0
  7 10  1  0  0  0  0
  8 13  2  0  0  0  0
  8 14  1  0  0  0  0
 11 12  1  0  0  0  0
 13 16  1  0  0  0  0
 14 17  2  0  0  0  0
 15 16  2  0  0  0  0
 15 17  1  0  0  0  0
 18 19  1  0  0  0  0
M  END
> <PUBCHEM_COMPOUND_ID_TYPE>
0

> <PUBCHEM_TOTAL_CHARGE>
0

> <PUBCHEM_SUBSTANCE_ID>
310931395

> <PUBCHEM_SUBSTANCE_VERSION>
1

> <PUBCHEM_EXT_DATASOURCE_NAME>
4488

> <PUBCHEM_EXT_DATASOURCE_REGID>
SCHEMBL16108719

> <PUBCHEM_SUBSTANCE_COMMENT>
InChI=1S/C15H19ClFNO2/c1-20-15(19)14-10-18(9-7-17)8-6-13(14)11-2-4-12(16)5-3-11/h2-5,13-14H,6-10H2,1H3
InChIKey=BUYWDKIWDQQBIC-UHFFFAOYSA-N

> <PUBCHEM_SUBSTANCE_SYNONYM>
SCHEMBL16108719

> <PUBCHEM_XREF_EXT_ID>
SCHEMBL16108719

> <PUBCHEM_EXT_DATASOURCE_URL>
https://www.surechembl.org/

> <PUBCHEM_EXT_SUBSTANCE_URL>
https://www.surechembl.org/chemical/SCHEMBL16108719

> <PUBCHEM_CID_ASSOCIATIONS>
117600184  1

> <PUBCHEM_COORDINATE_TYPE>
1
3

$$$$
