310933209
  -OEChem-07211613022D

 30 34  0     1  0  0  0  0  0999 V2000
   -0.7096   -1.7900    0.0000 O   0  0  0  0  0  0  0  0  0  0  0  0
    1.2930   -2.3734    0.0000 O   0  0  0  0  0  0  0  0  0  0  0  0
    0.0000    0.8772    0.0000 N   0  0  0  0  0  0  0  0  0  0  0  0
    2.0264   -0.0493    0.0000 N   0  0  0  0  0  0  0  0  0  0  0  0
    1.7715   -0.8339    0.0000 N   0  0  0  0  0  0  0  0  0  0  0  0
   -0.0974   -1.9616    0.0000 N   0  0  0  0  0  0  0  0  0  0  0  0
    0.4125   -0.3923    0.0000 C   0  0  0  0  0  0  0  0  0  0  0  0
   -0.4125   -0.3923    0.0000 C   0  0  3  0  0  0  0  0  0  0  0  0
    0.6674    0.3923    0.0000 C   0  0  0  0  0  0  0  0  0  0  0  0
    0.9645   -1.0054    0.0000 C   0  0  0  0  0  0  0  0  0  0  0  0
   -0.6674    0.3923    0.0000 C   0  0  0  0  0  0  0  0  0  0  0  0
   -0.9645   -1.0054    0.0000 C   0  0  0  0  0  0  0  0  0  0  0  0
    1.4744    0.5638    0.0000 C   0  0  0  0  0  0  0  0  0  0  0  0
    0.7096   -1.7900    0.0000 C   0  0  0  0  0  0  0  0  0  0  0  0
   -1.4744    0.5638    0.0000 C   0  0  0  0  0  0  0  0  0  0  0  0
    2.8334    0.1223    0.0000 C   0  0  0  0  0  0  0  0  0  0  0  0
   -1.7715   -0.8339    0.0000 C   0  0  0  0  0  0  0  0  0  0  0  0
   -2.0264   -0.0493    0.0000 C   0  0  0  0  0  0  0  0  0  0  0  0
    3.3854   -0.4908    0.0000 C   0  0  0  0  0  0  0  0  0  0  0  0
    3.0883    0.9069    0.0000 C   0  0  0  0  0  0  0  0  0  0  0  0
   -0.3523   -2.7462    0.0000 C   0  0  0  0  0  0  0  0  0  0  0  0
    4.1924   -0.3193    0.0000 C   0  0  0  0  0  0  0  0  0  0  0  0
    3.8954    1.0784    0.0000 C   0  0  0  0  0  0  0  0  0  0  0  0
    4.4473    0.4653    0.0000 C   0  0  0  0  0  0  0  0  0  0  0  0
   -1.1593   -2.9177    0.0000 C   0  0  0  0  0  0  0  0  0  0  0  0
    0.1997   -3.3593    0.0000 C   0  0  0  0  0  0  0  0  0  0  0  0
   -1.4142   -3.7023    0.0000 C   0  0  0  0  0  0  0  0  0  0  0  0
   -0.0552   -4.1439    0.0000 C   0  0  0  0  0  0  0  0  0  0  0  0
    5.2543    0.6368    0.0000 C   0  0  0  0  0  0  0  0  0  0  0  0
   -0.8622   -4.3154    0.0000 C   0  0  0  0  0  0  0  0  0  0  0  0
  1 12  2  0  0  0  0
  2 14  2  0  0  0  0
  3  9  1  0  0  0  0
  3 11  1  0  0  0  0
  4  5  1  0  0  0  0
  4 13  1  0  0  0  0
  4 16  1  0  0  0  0
  5 10  2  0  0  0  0
  6 14  1  0  0  0  0
  6 21  1  0  0  0  0
  7  8  1  0  0  0  0
  7  9  2  0  0  0  0
  7 10  1  0  0  0  0
  8 11  1  0  0  0  0
  8 12  1  0  0  0  0
  9 13  1  0  0  0  0
 10 14  1  0  0  0  0
 11 15  2  0  0  0  0
 12 17  1  0  0  0  0
 15 18  1  0  0  0  0
 16 19  2  0  0  0  0
 16 20  1  0  0  0  0
 17 18  2  0  0  0  0
 19 22  1  0  0  0  0
 20 23  2  0  0  0  0
 21 25  2  0  0  0  0
 21 26  1  0  0  0  0
 22 24  2  0  0  0  0
 23 24  1  0  0  0  0
 24 29  1  0  0  0  0
 25 27  1  0  0  0  0
 26 28  2  0  0  0  0
 27 30  2  0  0  0  0
 28 30  1  0  0  0  0
M  END
> <PUBCHEM_COMPOUND_ID_TYPE>
0

> <PUBCHEM_TOTAL_CHARGE>
0

> <PUBCHEM_SUBSTANCE_ID>
310933209

> <PUBCHEM_SUBSTANCE_VERSION>
1

> <PUBCHEM_EXT_DATASOURCE_NAME>
4488

> <PUBCHEM_EXT_DATASOURCE_REGID>
SCHEMBL16110618

> <PUBCHEM_SUBSTANCE_COMMENT>
InChI=1S/C24H20N4O2/c1-15-10-12-17(13-11-15)28-14-19-22(21-18(26-19)8-5-9-20(21)29)23(27-28)24(30)25-16-6-3-2-4-7-16/h2-13,21,26H,14H2,1H3,(H,25,30)
InChIKey=UDGAVTTVUASTFV-UHFFFAOYSA-N

> <PUBCHEM_SUBSTANCE_SYNONYM>
SCHEMBL16110618

> <PUBCHEM_XREF_EXT_ID>
SCHEMBL16110618

> <PUBCHEM_EXT_DATASOURCE_URL>
https://www.surechembl.org/

> <PUBCHEM_EXT_SUBSTANCE_URL>
https://www.surechembl.org/chemical/SCHEMBL16110618

> <PUBCHEM_CID_ASSOCIATIONS>
117601647  1

> <PUBCHEM_COORDINATE_TYPE>
1
3

$$$$
