310937355
  -OEChem-07211613022D

 34 37  0     1  0  0  0  0  0999 V2000
    2.9634    1.8682    0.0000 S   0  0  0  0  0  0  0  0  0  0  0  0
   -1.1500   -1.1601    0.0000 O   0  0  0  0  0  0  0  0  0  0  0  0
   -1.3568    1.2607    0.0000 O   0  0  0  0  0  0  0  0  0  0  0  0
    0.2002    1.4904    0.0000 O   0  0  0  0  0  0  0  0  0  0  0  0
    2.6306   -1.1601    0.0000 O   0  0  0  0  0  0  0  0  0  0  0  0
    2.9006    0.2431    0.0000 O   0  0  0  0  0  0  0  0  0  0  0  0
   -2.2302   -0.2246    0.0000 N   0  0  0  0  0  0  0  0  0  0  0  0
   -2.6078    1.9511    0.0000 N   0  0  0  0  0  0  0  0  0  0  0  0
   -0.0698    0.0872    0.0000 N   0  0  0  0  0  0  0  0  0  0  0  0
    1.5504   -0.2246    0.0000 N   0  0  0  0  0  0  0  0  0  0  0  0
   -2.3145    4.1398    0.0000 N   0  0  0  0  0  0  0  0  0  0  0  0
   -3.4574    3.4502    0.0000 N   0  0  0  0  0  0  0  0  0  0  0  0
   -2.9381    4.6799    0.0000 N   0  0  0  0  0  0  0  0  0  0  0  0
   -3.6445    4.2537    0.0000 N   0  0  0  0  0  0  0  0  0  0  0  0
   -2.8325   -0.7884    0.0000 C   0  0  0  0  0  0  0  0  0  0  0  0
   -2.5803    0.5225    0.0000 C   0  0  3  0  0  0  0  0  0  0  0  0
   -3.5548   -0.3897    0.0000 C   0  0  0  0  0  0  0  0  0  0  0  0
   -3.3989    0.4204    0.0000 C   0  0  0  0  0  0  0  0  0  0  0  0
   -1.4201   -0.3805    0.0000 C   0  0  0  0  0  0  0  0  0  0  0  0
   -2.1816    1.2448    0.0000 C   0  0  0  0  0  0  0  0  0  0  0  0
   -2.8166   -1.6132    0.0000 C   0  0  0  0  0  0  0  0  0  0  0  0
   -4.2612   -0.8160    0.0000 C   0  0  0  0  0  0  0  0  0  0  0  0
   -0.8800    0.2431    0.0000 C   0  0  0  0  0  0  0  0  0  0  0  0
   -3.5230   -2.0394    0.0000 C   0  0  0  0  0  0  0  0  0  0  0  0
   -4.2453   -1.6408    0.0000 C   0  0  0  0  0  0  0  0  0  0  0  0
    1.2804    0.5550    0.0000 C   0  0  3  0  0  0  0  0  0  0  0  0
    0.4702    0.7109    0.0000 C   0  0  0  0  0  0  0  0  0  0  0  0
    1.8205    1.1786    0.0000 C   0  0  0  0  0  0  0  0  0  0  0  0
   -2.2092    2.6734    0.0000 C   0  0  0  0  0  0  0  0  0  0  0  0
   -2.6354    3.3798    0.0000 C   0  0  0  0  0  0  0  0  0  0  0  0
    2.6425    1.1082    0.0000 C   0  0  0  0  0  0  0  0  0  0  0  0
    1.6334    1.9821    0.0000 C   0  0  0  0  0  0  0  0  0  0  0  0
    2.3398    2.4083    0.0000 C   0  0  0  0  0  0  0  0  0  0  0  0
    2.3606   -0.3805    0.0000 C   0  0  0  0  0  0  0  0  0  0  0  0
  1 31  1  0  0  0  0
  1 33  1  0  0  0  0
  2 19  2  0  0  0  0
  3 20  2  0  0  0  0
  4 27  2  0  0  0  0
  5 34  2  0  0  0  0
  6 34  1  0  0  0  0
  7 15  1  0  0  0  0
  7 16  1  0  0  0  0
  7 19  1  6  0  0  0
  8 20  1  0  0  0  0
  8 29  1  0  0  0  0
  9 23  1  0  0  0  0
  9 27  1  0  0  0  0
 10 26  1  0  0  0  0
 10 34  1  0  0  0  0
 11 13  2  0  0  0  0
 11 30  1  0  0  0  0
 12 14  1  0  0  0  0
 12 30  2  0  0  0  0
 13 14  1  0  0  0  0
 15 17  2  0  0  0  0
 15 21  1  0  0  0  0
 16 18  1  0  0  0  0
 16 20  1  0  0  0  0
 17 18  1  0  0  0  0
 17 22  1  0  0  0  0
 19 23  1  0  0  0  0
 21 24  2  0  0  0  0
 22 25  2  0  0  0  0
 24 25  1  0  0  0  0
 26 27  1  6  0  0  0
 26 28  1  0  0  0  0
 28 31  2  0  0  0  0
 28 32  1  0  0  0  0
 29 30  1  0  0  0  0
 32 33  2  0  0  0  0
M  END
> <PUBCHEM_COMPOUND_ID_TYPE>
0

> <PUBCHEM_TOTAL_CHARGE>
0

> <PUBCHEM_SUBSTANCE_ID>
310937355

> <PUBCHEM_SUBSTANCE_VERSION>
1

> <PUBCHEM_EXT_DATASOURCE_NAME>
4488

> <PUBCHEM_EXT_DATASOURCE_REGID>
SCHEMBL16115111

> <PUBCHEM_SUBSTANCE_COMMENT>
InChI=1S/C20H20N8O5S/c29-16(9-22-19(31)17(23-20(32)33)12-5-6-34-10-12)28-13-4-2-1-3-11(13)7-14(28)18(30)21-8-15-24-26-27-25-15/h1-6,10,14,17,23H,7-9H2,(H,21,30)(H,22,31)(H,32,33)(H,24,25,26,27)/t14?,17-/m0/s1
InChIKey=BDLKYBKRVYGTGB-JRZJBTRGSA-N

> <PUBCHEM_SUBSTANCE_SYNONYM>
SCHEMBL16115111

> <PUBCHEM_XREF_EXT_ID>
SCHEMBL16115111

> <PUBCHEM_EXT_DATASOURCE_URL>
https://www.surechembl.org/

> <PUBCHEM_EXT_SUBSTANCE_URL>
https://www.surechembl.org/chemical/SCHEMBL16115111

> <PUBCHEM_CID_ASSOCIATIONS>
117605128  1

> <PUBCHEM_COORDINATE_TYPE>
1
3

> <PUBCHEM_BONDANNOTATIONS>
26  27  6
7  19  6

$$$$
