310934364
  -OEChem-07211613022D

 40 45  0     1  0  0  0  0  0999 V2000
    6.0722    0.0000    0.0000 Cl  0  0  0  0  0  0  0  0  0  0  0  0
    0.0000   -5.7469    0.0000 Cl  0  0  0  0  0  0  0  0  0  0  0  0
    8.6385   -5.6747    0.0000 F   0  0  0  0  0  0  0  0  0  0  0  0
    6.5060   -4.9879    0.0000 O   0  0  0  0  0  0  0  0  0  0  0  0
    5.3132   -4.2650    0.0000 N   0  0  0  0  0  0  0  0  0  0  0  0
    7.7710   -2.8554    0.0000 N   0  0  0  0  0  0  0  0  0  0  0  0
    3.6144   -5.7108    0.0000 N   0  0  0  0  0  0  0  0  0  0  0  0
    3.5783   -4.3373    0.0000 N   0  0  0  0  0  0  0  0  0  0  0  0
    8.6023   -2.8916    0.0000 N   0  0  0  0  0  0  0  0  0  0  0  0
    8.7830   -3.7229    0.0000 N   0  0  0  0  0  0  0  0  0  0  0  0
    8.0601   -4.1204    0.0000 N   0  0  0  0  0  0  0  0  0  0  0  0
    1.5542   -7.2288    0.0000 N   0  0  0  0  0  0  0  0  0  0  0  0
    4.9156   -4.9879    0.0000 C   0  0  3  0  0  0  0  0  0  0  0  0
    6.5060   -2.1325    0.0000 C   0  0  0  0  0  0  0  0  0  0  0  0
    6.1083   -2.8554    0.0000 C   0  0  0  0  0  0  0  0  0  0  0  0
    4.0843   -5.0241    0.0000 C   0  0  0  0  0  0  0  0  0  0  0  0
    7.3373   -2.1325    0.0000 C   0  0  0  0  0  0  0  0  0  0  0  0
    6.1083   -4.2650    0.0000 C   0  0  0  0  0  0  0  0  0  0  0  0
    6.5421   -3.5783    0.0000 C   0  0  0  0  0  0  0  0  0  0  0  0
    4.8795   -3.5783    0.0000 C   0  0  0  0  0  0  0  0  0  0  0  0
    2.8192   -5.4216    0.0000 C   0  0  0  0  0  0  0  0  0  0  0  0
    5.3132   -2.8554    0.0000 C   0  0  0  0  0  0  0  0  0  0  0  0
    6.1083   -1.4096    0.0000 C   0  0  0  0  0  0  0  0  0  0  0  0
    5.3132   -5.7108    0.0000 C   0  0  0  0  0  0  0  0  0  0  0  0
    2.1686   -5.9276    0.0000 C   0  0  0  0  0  0  0  0  0  0  0  0
    7.7710   -1.4096    0.0000 C   0  0  0  0  0  0  0  0  0  0  0  0
    2.8192   -4.6264    0.0000 C   0  0  0  0  0  0  0  0  0  0  0  0
    6.5060   -0.7229    0.0000 C   0  0  0  0  0  0  0  0  0  0  0  0
    6.1445   -5.7108    0.0000 C   0  0  0  0  0  0  0  0  0  0  0  0
    7.3373   -0.6867    0.0000 C   0  0  0  0  0  0  0  0  0  0  0  0
    7.4457   -3.5783    0.0000 C   0  0  0  0  0  0  0  0  0  0  0  0
    1.3735   -5.6023    0.0000 C   0  0  0  0  0  0  0  0  0  0  0  0
    2.2048   -6.7589    0.0000 C   0  0  0  0  0  0  0  0  0  0  0  0
    6.7228   -5.1324    0.0000 C   0  0  0  0  0  0  0  0  0  0  0  0
    6.5782   -6.3975    0.0000 C   0  0  0  0  0  0  0  0  0  0  0  0
    0.7229   -6.0722    0.0000 C   0  0  0  0  0  0  0  0  0  0  0  0
    0.7952   -6.9035    0.0000 C   0  0  0  0  0  0  0  0  0  0  0  0
    7.4095   -4.9879    0.0000 C   0  0  0  0  0  0  0  0  0  0  0  0
    7.4095   -6.3975    0.0000 C   0  0  0  0  0  0  0  0  0  0  0  0
    7.8072   -5.7108    0.0000 C   0  0  0  0  0  0  0  0  0  0  0  0
  1 28  1  0  0  0  0
  2 36  1  0  0  0  0
  3 40  1  0  0  0  0
  4 18  2  0  0  0  0
  5 13  1  0  0  0  0
  5 18  1  0  0  0  0
  5 20  1  0  0  0  0
  6  9  1  0  0  0  0
  6 17  1  0  0  0  0
  6 31  1  0  0  0  0
  7 16  1  0  0  0  0
  7 21  1  0  0  0  0
  8 16  2  0  0  0  0
  8 27  1  0  0  0  0
  9 10  2  0  0  0  0
 10 11  1  0  0  0  0
 11 31  2  0  0  0  0
 12 33  1  0  0  0  0
 12 37  2  0  0  0  0
 13 16  1  0  0  0  0
 13 24  1  0  0  0  0
 14 15  1  0  0  0  0
 14 17  1  0  0  0  0
 14 23  2  0  0  0  0
 15 19  2  0  0  0  0
 15 22  1  0  0  0  0
 17 26  2  0  0  0  0
 18 19  1  0  0  0  0
 20 22  2  0  0  0  0
 21 25  1  0  0  0  0
 21 27  2  0  0  0  0
 23 28  1  0  0  0  0
 24 29  1  0  0  0  0
 25 32  1  0  0  0  0
 25 33  2  0  0  0  0
 26 30  1  0  0  0  0
 28 30  2  0  0  0  0
 29 34  2  0  0  0  0
 29 35  1  0  0  0  0
 32 36  2  0  0  0  0
 34 38  1  0  0  0  0
 35 39  2  0  0  0  0
 36 37  1  0  0  0  0
 38 40  2  0  0  0  0
 39 40  1  0  0  0  0
M  END
> <PUBCHEM_COMPOUND_ID_TYPE>
0

> <PUBCHEM_TOTAL_CHARGE>
0

> <PUBCHEM_SUBSTANCE_ID>
310934364

> <PUBCHEM_SUBSTANCE_VERSION>
1

> <PUBCHEM_EXT_DATASOURCE_NAME>
4488

> <PUBCHEM_EXT_DATASOURCE_REGID>
SCHEMBL16111832

> <PUBCHEM_SUBSTANCE_COMMENT>
InChI=1S/C28H19Cl2FN8O/c29-20-3-6-25(39-16-34-36-37-39)23(12-20)18-7-8-38(27(40)11-18)26(9-17-1-4-22(31)5-2-17)28-33-15-24(35-28)19-10-21(30)14-32-13-19/h1-8,10-16,26H,9H2,(H,33,35)
InChIKey=KUOVNQBPUXAOPZ-UHFFFAOYSA-N

> <PUBCHEM_SUBSTANCE_SYNONYM>
SCHEMBL16111832

> <PUBCHEM_XREF_EXT_ID>
SCHEMBL16111832

> <PUBCHEM_EXT_DATASOURCE_URL>
https://www.surechembl.org/

> <PUBCHEM_EXT_SUBSTANCE_URL>
https://www.surechembl.org/chemical/SCHEMBL16111832

> <PUBCHEM_CID_ASSOCIATIONS>
117602593  1

> <PUBCHEM_COORDINATE_TYPE>
1
3

$$$$
