310949827
  -OEChem-07211613022D

  9  8  0     1  0  0  0  0  0999 V2000
   -2.3486   -0.6173    0.0000 I   0  0  0  0  0  0  0  0  0  0  0  0
    2.3486   -0.1916    0.0000 O   0  0  0  0  0  0  0  0  0  0  0  0
    0.9863    0.6173    0.0000 N   0  0  0  0  0  0  0  0  0  0  0  0
    0.9437   -0.1774    0.0000 C   0  0  3  0  0  0  0  0  0  0  0  0
    0.3193   -0.5605    0.0000 C   0  0  0  0  0  0  0  0  0  0  0  0
    1.6816   -0.5605    0.0000 C   0  0  0  0  0  0  0  0  0  0  0  0
   -0.4186   -0.1774    0.0000 C   0  0  0  0  0  0  0  0  0  0  0  0
   -1.0572   -0.5605    0.0000 C   0  0  0  0  0  0  0  0  0  0  0  0
   -1.7951   -0.1916    0.0000 C   0  0  0  0  0  0  0  0  0  0  0  0
  1  9  1  0  0  0  0
  2  6  1  0  0  0  0
  3  4  1  0  0  0  0
  4  5  1  0  0  0  0
  4  6  1  0  0  0  0
  5  7  1  0  0  0  0
  7  8  1  0  0  0  0
  8  9  1  0  0  0  0
M  END
> <PUBCHEM_COMPOUND_ID_TYPE>
0

> <PUBCHEM_TOTAL_CHARGE>
0

> <PUBCHEM_SUBSTANCE_ID>
310949827

> <PUBCHEM_SUBSTANCE_VERSION>
1

> <PUBCHEM_EXT_DATASOURCE_NAME>
4488

> <PUBCHEM_EXT_DATASOURCE_REGID>
SCHEMBL16128028

> <PUBCHEM_SUBSTANCE_COMMENT>
InChI=1S/C6H14INO/c7-4-2-1-3-6(8)5-9/h6,9H,1-5,8H2
InChIKey=AHKGPUXLHZCKDX-UHFFFAOYSA-N

> <PUBCHEM_SUBSTANCE_SYNONYM>
SCHEMBL16128028

> <PUBCHEM_XREF_EXT_ID>
SCHEMBL16128028

> <PUBCHEM_EXT_DATASOURCE_URL>
https://www.surechembl.org/

> <PUBCHEM_EXT_SUBSTANCE_URL>
https://www.surechembl.org/chemical/SCHEMBL16128028

> <PUBCHEM_CID_ASSOCIATIONS>
117615145  1

> <PUBCHEM_COORDINATE_TYPE>
1
3

$$$$
