310937937
  -OEChem-07211613022D

 33 37  0     1  0  0  0  0  0999 V2000
   -5.4300   -0.6794    0.0000 F   0  0  0  0  0  0  0  0  0  0  0  0
    0.8732    2.5321    0.0000 F   0  0  0  0  0  0  0  0  0  0  0  0
    0.3435    1.4925    0.0000 F   0  0  0  0  0  0  0  0  0  0  0  0
    1.9128    2.0024    0.0000 F   0  0  0  0  0  0  0  0  0  0  0  0
    0.8310    0.3498    0.0000 O   0  0  0  0  0  0  0  0  0  0  0  0
    2.1901    0.7913    0.0000 O   0  0  0  0  0  0  0  0  0  0  0  0
    0.1215   -2.3175    0.0000 N   0  0  0  0  0  0  0  0  0  0  0  0
    1.8930   -0.6064    0.0000 N   0  0  0  0  0  0  0  0  0  0  0  0
   -2.2021    0.0067    0.0000 N   0  0  0  0  0  0  0  0  0  0  0  0
   -3.5611    0.4483    0.0000 N   0  0  0  0  0  0  0  0  0  0  0  0
   -4.9201    0.8899    0.0000 N   0  0  0  0  0  0  0  0  0  0  0  0
   -3.2640   -0.9494    0.0000 N   0  0  0  0  0  0  0  0  0  0  0  0
   -5.4630    2.1093    0.0000 N   0  0  0  0  0  0  0  0  0  0  0  0
    0.5340   -1.0479    0.0000 C   0  0  0  0  0  0  0  0  0  0  0  0
   -0.2910   -1.0479    0.0000 C   0  0  0  0  0  0  0  0  0  0  0  0
    0.7889   -1.8326    0.0000 C   0  0  0  0  0  0  0  0  0  0  0  0
   -0.5460   -1.8326    0.0000 C   0  0  0  0  0  0  0  0  0  0  0  0
    1.0860   -0.4349    0.0000 C   0  0  3  0  0  0  0  0  0  0  0  0
   -0.8431   -0.4349    0.0000 C   0  0  0  0  0  0  0  0  0  0  0  0
   -1.6501   -0.6064    0.0000 C   0  0  0  0  0  0  0  0  0  0  0  0
   -1.3530   -2.0041    0.0000 C   0  0  0  0  0  0  0  0  0  0  0  0
    1.5959   -2.0041    0.0000 C   0  0  0  0  0  0  0  0  0  0  0  0
   -1.9050   -1.3910    0.0000 C   0  0  0  0  0  0  0  0  0  0  0  0
    2.1479   -1.3910    0.0000 C   0  0  0  0  0  0  0  0  0  0  0  0
   -3.0091   -0.1648    0.0000 C   0  0  0  0  0  0  0  0  0  0  0  0
   -4.3681    0.2768    0.0000 C   0  0  0  0  0  0  0  0  0  0  0  0
    1.3831    0.9629    0.0000 C   0  0  0  0  0  0  0  0  0  0  0  0
   -4.6230   -0.5079    0.0000 C   0  0  0  0  0  0  0  0  0  0  0  0
    1.1281    1.7475    0.0000 C   0  0  0  0  0  0  0  0  0  0  0  0
   -4.0710   -1.1210    0.0000 C   0  0  0  0  0  0  0  0  0  0  0  0
   -4.7486    1.6968    0.0000 C   0  0  0  0  0  0  0  0  0  0  0  0
   -5.7406    0.8036    0.0000 C   0  0  0  0  0  0  0  0  0  0  0  0
   -6.0761    1.5573    0.0000 C   0  0  0  0  0  0  0  0  0  0  0  0
  1 28  1  0  0  0  0
  2 29  1  0  0  0  0
  3 29  1  0  0  0  0
  4 29  1  0  0  0  0
  5 18  1  0  0  0  0
  5 27  1  0  0  0  0
  6 27  2  0  0  0  0
  7 16  1  0  0  0  0
  7 17  1  0  0  0  0
  8 18  1  0  0  0  0
  8 24  1  0  0  0  0
  9 20  1  0  0  0  0
  9 25  1  0  0  0  0
 10 25  2  0  0  0  0
 10 26  1  0  0  0  0
 11 26  1  0  0  0  0
 11 31  1  0  0  0  0
 11 32  1  0  0  0  0
 12 25  1  0  0  0  0
 12 30  2  0  0  0  0
 13 31  2  0  0  0  0
 13 33  1  0  0  0  0
 14 15  1  0  0  0  0
 14 16  2  0  0  0  0
 14 18  1  0  0  0  0
 15 17  1  0  0  0  0
 15 19  2  0  0  0  0
 16 22  1  0  0  0  0
 17 21  2  0  0  0  0
 19 20  1  0  0  0  0
 20 23  2  0  0  0  0
 21 23  1  0  0  0  0
 22 24  1  0  0  0  0
 26 28  2  0  0  0  0
 27 29  1  0  0  0  0
 28 30  1  0  0  0  0
 32 33  2  0  0  0  0
M  END
> <PUBCHEM_COMPOUND_ID_TYPE>
0

> <PUBCHEM_TOTAL_CHARGE>
0

> <PUBCHEM_SUBSTANCE_ID>
310937937

> <PUBCHEM_SUBSTANCE_VERSION>
1

> <PUBCHEM_EXT_DATASOURCE_NAME>
4488

> <PUBCHEM_EXT_DATASOURCE_REGID>
SCHEMBL16115766

> <PUBCHEM_SUBSTANCE_COMMENT>
InChI=1S/C20H15F4N7O2/c21-12-8-27-19(30-16(12)31-6-5-25-9-31)28-10-1-2-13-11(7-10)15-14(29-13)3-4-26-17(15)33-18(32)20(22,23)24/h1-2,5-9,17,26,29H,3-4H2,(H,27,28,30)
InChIKey=VUMRZHIBHSWGDF-UHFFFAOYSA-N

> <PUBCHEM_SUBSTANCE_SYNONYM>
SCHEMBL16115766

> <PUBCHEM_XREF_EXT_ID>
SCHEMBL16115766

> <PUBCHEM_EXT_DATASOURCE_URL>
https://www.surechembl.org/

> <PUBCHEM_EXT_SUBSTANCE_URL>
https://www.surechembl.org/chemical/SCHEMBL16115766

> <PUBCHEM_CID_ASSOCIATIONS>
117605543  1

> <PUBCHEM_COORDINATE_TYPE>
1
3

$$$$
