310930334
  -OEChem-07211613022D

 29 31  0     1  0  0  0  0  0999 V2000
    1.5150   -8.7820    0.0000 S   0  0  0  0  0  0  0  0  0  0  0  0
    2.2295   -8.3695    0.0000 O   0  0  0  0  0  0  0  0  0  0  0  0
    0.8006   -9.1945    0.0000 O   0  0  0  0  0  0  0  0  0  0  0  0
    1.9275   -9.4965    0.0000 O   0  0  0  0  0  0  0  0  0  0  0  0
    1.1025   -8.0675    0.0000 O   0  0  0  0  0  0  0  0  0  0  0  0
    5.0404   -0.8721    0.0000 N   0  0  0  0  0  0  0  0  0  0  0  0
    3.7055   -0.8721    0.0000 N   0  0  0  0  0  0  0  0  0  0  0  0
    4.3729   -2.1820    0.0000 N   0  0  0  0  0  0  0  0  0  0  0  0
    3.6584   -2.5945    0.0000 N   0  0  0  0  0  0  0  0  0  0  0  0
    3.6584   -5.8945    0.0000 N   0  0  3  0  0  0  0  0  0  0  0  0
    4.7854   -0.0875    0.0000 C   0  0  0  0  0  0  0  0  0  0  0  0
    3.9604   -0.0875    0.0000 C   0  0  0  0  0  0  0  0  0  0  0  0
    4.3729   -1.3570    0.0000 C   0  0  0  0  0  0  0  0  0  0  0  0
    3.6584   -3.4195    0.0000 C   0  0  0  0  0  0  0  0  0  0  0  0
    3.6584   -5.0695    0.0000 C   0  0  0  0  0  0  0  0  0  0  0  0
    4.3729   -3.8320    0.0000 C   0  0  0  0  0  0  0  0  0  0  0  0
    4.3729   -4.6570    0.0000 C   0  0  0  0  0  0  0  0  0  0  0  0
    5.1979    0.6270    0.0000 C   0  0  0  0  0  0  0  0  0  0  0  0
    3.5479    0.6270    0.0000 C   0  0  0  0  0  0  0  0  0  0  0  0
    2.9440   -3.8320    0.0000 C   0  0  0  0  0  0  0  0  0  0  0  0
    2.9440   -4.6570    0.0000 C   0  0  0  0  0  0  0  0  0  0  0  0
    4.7854    1.3415    0.0000 C   0  0  0  0  0  0  0  0  0  0  0  0
    3.9604    1.3415    0.0000 C   0  0  0  0  0  0  0  0  0  0  0  0
    2.9440   -6.3070    0.0000 C   0  0  0  0  0  0  0  0  0  0  0  0
    4.3729   -6.3070    0.0000 C   0  0  0  0  0  0  0  0  0  0  0  0
    5.0874   -3.4195    0.0000 C   0  0  0  0  0  0  0  0  0  0  0  0
    2.9440   -7.1320    0.0000 C   0  0  0  0  0  0  0  0  0  0  0  0
    2.2295   -7.5445    0.0000 C   0  0  0  0  0  0  0  0  0  0  0  0
    4.3729   -7.1320    0.0000 C   0  0  0  0  0  0  0  0  0  0  0  0
  1  2  1  0  0  0  0
  1  3  2  0  0  0  0
  1  4  2  0  0  0  0
  1  5  1  0  0  0  0
  2 28  1  0  0  0  0
  6 11  1  0  0  0  0
  6 13  2  0  0  0  0
  7 12  1  0  0  0  0
  7 13  1  0  0  0  0
  8  9  2  0  0  0  0
  8 13  1  0  0  0  0
  9 14  1  0  0  0  0
 10 15  1  0  0  0  0
 10 24  1  0  0  0  0
 10 25  1  0  0  0  0
 11 12  2  0  0  0  0
 11 18  1  0  0  0  0
 12 19  1  0  0  0  0
 14 16  2  0  0  0  0
 14 20  1  0  0  0  0
 15 17  2  0  0  0  0
 15 21  1  0  0  0  0
 16 17  1  0  0  0  0
 16 26  1  0  0  0  0
 18 22  2  0  0  0  0
 19 23  2  0  0  0  0
 20 21  2  0  0  0  0
 22 23  1  0  0  0  0
 24 27  1  0  0  0  0
 25 29  1  0  0  0  0
 27 28  1  0  0  0  0
M  END
> <PUBCHEM_COMPOUND_ID_TYPE>
0

> <PUBCHEM_TOTAL_CHARGE>
0

> <PUBCHEM_SUBSTANCE_ID>
310930334

> <PUBCHEM_SUBSTANCE_VERSION>
1

> <PUBCHEM_EXT_DATASOURCE_NAME>
4488

> <PUBCHEM_EXT_DATASOURCE_REGID>
SCHEMBL16107618

> <PUBCHEM_SUBSTANCE_COMMENT>
InChI=1S/C19H23N5O4S/c1-3-24(11-6-12-28-29(25,26)27)15-9-10-16(14(2)13-15)22-23-19-20-17-7-4-5-8-18(17)21-19/h4-5,7-10,13H,3,6,11-12H2,1-2H3,(H,20,21)(H,25,26,27)
InChIKey=JOPQWIDZDRPTTA-UHFFFAOYSA-N

> <PUBCHEM_SUBSTANCE_SYNONYM>
SCHEMBL16107618

> <PUBCHEM_XREF_EXT_ID>
SCHEMBL16107618

> <PUBCHEM_EXT_DATASOURCE_URL>
https://www.surechembl.org/

> <PUBCHEM_EXT_SUBSTANCE_URL>
https://www.surechembl.org/chemical/SCHEMBL16107618

> <PUBCHEM_CID_ASSOCIATIONS>
117599504  1

> <PUBCHEM_COORDINATE_TYPE>
1
3

> <PUBCHEM_BONDANNOTATIONS>
9  14  3

$$$$
