310937510
  -OEChem-07211613022D

 21 22  0     1  0  0  0  0  0999 V2000
    2.1330   -3.7213    0.0000 Cl  0  0  0  0  0  0  0  0  0  0  0  0
    3.5625   -4.5382    0.0000 Cl  0  0  0  0  0  0  0  0  0  0  0  0
    2.8591    0.0000    0.0000 O   0  0  0  0  0  0  0  0  0  0  0  0
    4.9920   -1.2480    0.0000 N   0  0  0  0  0  0  0  0  0  0  0  0
    0.0000   -0.8169    0.0000 N   0  0  0  0  0  0  0  0  0  0  0  0
    3.5625   -1.2480    0.0000 C   0  0  3  0  0  0  0  0  0  0  0  0
    3.5625   -2.0649    0.0000 C   0  0  0  0  0  0  0  0  0  0  0  0
    2.8591   -0.8169    0.0000 C   0  0  3  0  0  0  0  0  0  0  0  0
    2.1330   -1.2480    0.0000 C   0  0  0  0  0  0  0  0  0  0  0  0
    2.8591   -2.4733    0.0000 C   0  0  0  0  0  0  0  0  0  0  0  0
    2.8591   -3.2902    0.0000 C   0  0  0  0  0  0  0  0  0  0  0  0
    4.2886   -2.4733    0.0000 C   0  0  0  0  0  0  0  0  0  0  0  0
    3.5625   -3.7213    0.0000 C   0  0  0  0  0  0  0  0  0  0  0  0
    4.2659   -0.8169    0.0000 C   0  0  0  0  0  0  0  0  0  0  0  0
    4.2886   -3.2902    0.0000 C   0  0  0  0  0  0  0  0  0  0  0  0
    1.4069   -0.8396    0.0000 C   0  0  0  0  0  0  0  0  0  0  0  0
    2.1330   -2.0649    0.0000 C   0  0  0  0  0  0  0  0  0  0  0  0
    0.7034   -1.2480    0.0000 C   0  0  0  0  0  0  0  0  0  0  0  0
    1.4069   -2.4733    0.0000 C   0  0  0  0  0  0  0  0  0  0  0  0
    0.7034   -2.0649    0.0000 C   0  0  0  0  0  0  0  0  0  0  0  0
    5.6954   -0.8169    0.0000 C   0  0  0  0  0  0  0  0  0  0  0  0
  1 11  1  0  0  0  0
  2 13  1  0  0  0  0
  3  8  1  0  0  0  0
  4 14  1  0  0  0  0
  4 21  1  0  0  0  0
  5 18  1  0  0  0  0
  6  7  1  0  0  0  0
  6  8  1  0  0  0  0
  6 14  1  0  0  0  0
  7 10  1  0  0  0  0
  7 12  2  0  0  0  0
  8  9  1  0  0  0  0
  9 16  1  0  0  0  0
  9 17  2  0  0  0  0
 10 11  2  0  0  0  0
 11 13  1  0  0  0  0
 12 15  1  0  0  0  0
 13 15  2  0  0  0  0
 16 18  2  0  0  0  0
 17 19  1  0  0  0  0
 18 20  1  0  0  0  0
 19 20  2  0  0  0  0
M  END
> <PUBCHEM_COMPOUND_ID_TYPE>
0

> <PUBCHEM_TOTAL_CHARGE>
0

> <PUBCHEM_SUBSTANCE_ID>
310937510

> <PUBCHEM_SUBSTANCE_VERSION>
1

> <PUBCHEM_EXT_DATASOURCE_NAME>
4488

> <PUBCHEM_EXT_DATASOURCE_REGID>
SCHEMBL16115282

> <PUBCHEM_SUBSTANCE_COMMENT>
InChI=1S/C16H18Cl2N2O/c1-20-9-13(10-5-6-14(17)15(18)8-10)16(21)11-3-2-4-12(19)7-11/h2-8,13,16,20-21H,9,19H2,1H3
InChIKey=BQCHSJJIVZNPPW-UHFFFAOYSA-N

> <PUBCHEM_SUBSTANCE_SYNONYM>
SCHEMBL16115282

> <PUBCHEM_XREF_EXT_ID>
SCHEMBL16115282

> <PUBCHEM_EXT_DATASOURCE_URL>
https://www.surechembl.org/

> <PUBCHEM_EXT_SUBSTANCE_URL>
https://www.surechembl.org/chemical/SCHEMBL16115282

> <PUBCHEM_CID_ASSOCIATIONS>
117604765  1

> <PUBCHEM_COORDINATE_TYPE>
1
3

$$$$
