310934097
  -OEChem-07211613022D

 33 37  0     1  0  0  0  0  0999 V2000
    4.2650   -1.1566    0.0000 O   0  0  0  0  0  0  0  0  0  0  0  0
    6.5782   -2.5662    0.0000 O   0  0  0  0  0  0  0  0  0  0  0  0
   10.1565   -0.5060    0.0000 O   0  0  0  0  0  0  0  0  0  0  0  0
    2.8554   -1.5542    0.0000 N   0  0  0  0  0  0  0  0  0  0  0  0
    2.9999   -2.8554    0.0000 N   0  0  0  0  0  0  0  0  0  0  0  0
    1.6265   -2.3493    0.0000 N   0  0  0  0  0  0  0  0  0  0  0  0
   10.8432   -1.7349    0.0000 N   0  0  0  0  0  0  0  0  0  0  0  0
    2.5301   -0.7952    0.0000 C   0  0  0  0  0  0  0  0  0  0  0  0
    2.2771    0.0000    0.0000 C   0  0  0  0  0  0  0  0  0  0  0  0
    3.0723   -0.1807    0.0000 C   0  0  0  0  0  0  0  0  0  0  0  0
    1.6988   -0.7952    0.0000 C   0  0  0  0  0  0  0  0  0  0  0  0
    3.6505   -1.6988    0.0000 C   0  0  0  0  0  0  0  0  0  0  0  0
    2.4217   -2.2409    0.0000 C   0  0  0  0  0  0  0  0  0  0  0  0
    3.7228   -2.5301    0.0000 C   0  0  3  0  0  0  0  0  0  0  0  0
    4.4457   -2.9638    0.0000 C   0  0  0  0  0  0  0  0  0  0  0  0
    1.2651   -1.5181    0.0000 C   0  0  0  0  0  0  0  0  0  0  0  0
    1.2651   -0.1084    0.0000 C   0  0  0  0  0  0  0  0  0  0  0  0
    5.1325   -2.5301    0.0000 C   0  0  0  0  0  0  0  0  0  0  0  0
    4.4457   -3.7590    0.0000 C   0  0  0  0  0  0  0  0  0  0  0  0
    0.4699   -1.5542    0.0000 C   0  0  0  0  0  0  0  0  0  0  0  0
    0.4337   -0.1084    0.0000 C   0  0  0  0  0  0  0  0  0  0  0  0
    5.8553   -2.9638    0.0000 C   0  0  0  0  0  0  0  0  0  0  0  0
    0.0000   -0.8313    0.0000 C   0  0  0  0  0  0  0  0  0  0  0  0
    5.1325   -4.1927    0.0000 C   0  0  0  0  0  0  0  0  0  0  0  0
    5.8553   -3.7590    0.0000 C   0  0  0  0  0  0  0  0  0  0  0  0
    7.3011   -2.9638    0.0000 C   0  0  0  0  0  0  0  0  0  0  0  0
    8.0240   -2.5662    0.0000 C   0  0  0  0  0  0  0  0  0  0  0  0
    9.4336   -1.7349    0.0000 C   0  0  0  0  0  0  0  0  0  0  0  0
    8.0240   -1.7349    0.0000 C   0  0  0  0  0  0  0  0  0  0  0  0
    8.7107   -2.9638    0.0000 C   0  0  0  0  0  0  0  0  0  0  0  0
    8.7107   -1.3373    0.0000 C   0  0  0  0  0  0  0  0  0  0  0  0
    9.4336   -2.5662    0.0000 C   0  0  0  0  0  0  0  0  0  0  0  0
   10.1565   -1.3373    0.0000 C   0  0  0  0  0  0  0  0  0  0  0  0
  1 12  2  0  0  0  0
  2 22  1  0  0  0  0
  2 26  1  0  0  0  0
  3 33  2  0  0  0  0
  4  8  1  0  0  0  0
  4 12  1  0  0  0  0
  4 13  1  0  0  0  0
  5 13  1  0  0  0  0
  5 14  1  0  0  0  0
  6 13  2  3  0  0  0
  7 33  1  0  0  0  0
  8  9  1  0  0  0  0
  8 10  1  0  0  0  0
  8 11  1  0  0  0  0
  9 10  1  0  0  0  0
 11 16  1  0  0  0  0
 11 17  1  0  0  0  0
 12 14  1  0  0  0  0
 14 15  1  0  0  0  0
 15 18  1  0  0  0  0
 15 19  2  0  0  0  0
 16 20  1  0  0  0  0
 17 21  1  0  0  0  0
 18 22  2  0  0  0  0
 19 24  1  0  0  0  0
 20 23  1  0  0  0  0
 21 23  1  0  0  0  0
 22 25  1  0  0  0  0
 24 25  2  0  0  0  0
 26 27  1  0  0  0  0
 27 29  2  0  0  0  0
 27 30  1  0  0  0  0
 28 31  2  0  0  0  0
 28 32  1  0  0  0  0
 28 33  1  0  0  0  0
 29 31  1  0  0  0  0
 30 32  2  0  0  0  0
M  END
> <PUBCHEM_COMPOUND_ID_TYPE>
0

> <PUBCHEM_TOTAL_CHARGE>
0

> <PUBCHEM_SUBSTANCE_ID>
310934097

> <PUBCHEM_SUBSTANCE_VERSION>
1

> <PUBCHEM_EXT_DATASOURCE_NAME>
4488

> <PUBCHEM_EXT_DATASOURCE_REGID>
SCHEMBL16111543

> <PUBCHEM_SUBSTANCE_COMMENT>
InChI=1S/C26H30N4O3/c27-23(31)18-11-9-17(10-12-18)16-33-21-8-4-5-19(15-21)22-24(32)30(25(28)29-22)26(13-14-26)20-6-2-1-3-7-20/h4-5,8-12,15,20,22H,1-3,6-7,13-14,16H2,(H2,27,31)(H2,28,29)
InChIKey=GRWYWKULNXMKRL-UHFFFAOYSA-N

> <PUBCHEM_SUBSTANCE_SYNONYM>
SCHEMBL16111543

> <PUBCHEM_XREF_EXT_ID>
SCHEMBL16111543

> <PUBCHEM_EXT_DATASOURCE_URL>
https://www.surechembl.org/

> <PUBCHEM_EXT_SUBSTANCE_URL>
https://www.surechembl.org/chemical/SCHEMBL16111543

> <PUBCHEM_CID_ASSOCIATIONS>
117602380  1

> <PUBCHEM_COORDINATE_TYPE>
1
3

$$$$
