310947665
  -OEChem-07211613022D

 27 28  0     1  0  0  0  0  0999 V2000
    0.6348   -2.0844    0.0000 Cl  0  0  0  0  0  0  0  0  0  0  0  0
   -0.0797   -3.3219    0.0000 F   0  0  0  0  0  0  0  0  0  0  0  0
   -1.5086   -3.3219    0.0000 F   0  0  0  0  0  0  0  0  0  0  0  0
   -0.7942   -3.7344    0.0000 F   0  0  0  0  0  0  0  0  0  0  0  0
    0.6348   -0.4344    0.0000 O   0  0  0  0  0  0  0  0  0  0  0  0
    2.7782   -0.8469    0.0000 O   0  0  0  0  0  0  0  0  0  0  0  0
   -3.0077   -0.6894    0.0000 N   0  0  0  0  0  0  0  0  0  0  0  0
   -3.4927   -0.0219    0.0000 N   0  0  0  0  0  0  0  0  0  0  0  0
   -1.8533    1.7708    0.0000 N   0  0  3  0  0  0  0  0  0  0  0  0
   -0.9001    3.7344    0.0000 N   0  0  0  0  0  0  0  0  0  0  0  0
   -0.7942   -2.0844    0.0000 C   0  0  0  0  0  0  0  0  0  0  0  0
   -1.5086   -0.8469    0.0000 C   0  0  0  0  0  0  0  0  0  0  0  0
   -0.0797   -1.6719    0.0000 C   0  0  0  0  0  0  0  0  0  0  0  0
   -2.2231   -0.4344    0.0000 C   0  0  0  0  0  0  0  0  0  0  0  0
   -0.0797   -0.8469    0.0000 C   0  0  0  0  0  0  0  0  0  0  0  0
   -0.7942   -2.9094    0.0000 C   0  0  0  0  0  0  0  0  0  0  0  0
   -1.5086   -1.6719    0.0000 C   0  0  0  0  0  0  0  0  0  0  0  0
   -0.7942   -0.4344    0.0000 C   0  0  0  0  0  0  0  0  0  0  0  0
   -2.2231    0.3906    0.0000 C   0  0  0  0  0  0  0  0  0  0  0  0
   -3.0077    0.6455    0.0000 C   0  0  0  0  0  0  0  0  0  0  0  0
   -1.6397    0.9739    0.0000 C   0  0  0  0  0  0  0  0  0  0  0  0
    1.3492   -0.8469    0.0000 C   0  0  0  0  0  0  0  0  0  0  0  0
   -1.2699    2.3542    0.0000 C   0  0  0  0  0  0  0  0  0  0  0  0
    2.0637   -0.4344    0.0000 C   0  0  0  0  0  0  0  0  0  0  0  0
   -2.6502    1.9843    0.0000 C   0  0  0  0  0  0  0  0  0  0  0  0
   -1.4834    3.1511    0.0000 C   0  0  0  0  0  0  0  0  0  0  0  0
    3.4927   -0.4344    0.0000 C   0  0  0  0  0  0  0  0  0  0  0  0
  1 13  1  0  0  0  0
  2 16  1  0  0  0  0
  3 16  1  0  0  0  0
  4 16  1  0  0  0  0
  5 15  1  0  0  0  0
  5 22  1  0  0  0  0
  6 24  1  0  0  0  0
  6 27  1  0  0  0  0
  7  8  1  0  0  0  0
  7 14  2  0  0  0  0
  8 20  1  0  0  0  0
  9 21  1  0  0  0  0
  9 23  1  0  0  0  0
  9 25  1  0  0  0  0
 10 26  1  0  0  0  0
 11 13  1  0  0  0  0
 11 16  1  0  0  0  0
 11 17  2  0  0  0  0
 12 14  1  0  0  0  0
 12 17  1  0  0  0  0
 12 18  2  0  0  0  0
 13 15  2  0  0  0  0
 14 19  1  0  0  0  0
 15 18  1  0  0  0  0
 19 20  2  0  0  0  0
 19 21  1  0  0  0  0
 22 24  1  0  0  0  0
 23 26  1  0  0  0  0
M  END
> <PUBCHEM_COMPOUND_ID_TYPE>
0

> <PUBCHEM_TOTAL_CHARGE>
0

> <PUBCHEM_SUBSTANCE_ID>
310947665

> <PUBCHEM_SUBSTANCE_VERSION>
1

> <PUBCHEM_EXT_DATASOURCE_NAME>
4488

> <PUBCHEM_EXT_DATASOURCE_REGID>
SCHEMBL16125833

> <PUBCHEM_SUBSTANCE_COMMENT>
InChI=1S/C17H22ClF3N4O2/c1-25(4-3-22)10-12-9-23-24-16(12)11-7-13(17(19,20)21)15(18)14(8-11)27-6-5-26-2/h7-9H,3-6,10,22H2,1-2H3,(H,23,24)
InChIKey=VAEFYLQLDJJCJC-UHFFFAOYSA-N

> <PUBCHEM_SUBSTANCE_SYNONYM>
SCHEMBL16125833

> <PUBCHEM_XREF_EXT_ID>
SCHEMBL16125833

> <PUBCHEM_EXT_DATASOURCE_URL>
https://www.surechembl.org/

> <PUBCHEM_EXT_SUBSTANCE_URL>
https://www.surechembl.org/chemical/SCHEMBL16125833

> <PUBCHEM_CID_ASSOCIATIONS>
117613380  1

> <PUBCHEM_COORDINATE_TYPE>
1
3

$$$$
