310938519
  -OEChem-07211613022D

 44 47  0     1  0  0  0  0  0999 V2000
    1.8711   -7.8079    0.0000 O   0  0  0  0  0  0  0  0  0  0  0  0
    7.0807   -8.0854    0.0000 O   0  0  0  0  0  0  0  0  0  0  0  0
    1.0461   -4.9500    0.0000 O   0  0  0  0  0  0  0  0  0  0  0  0
   -1.8414   -5.6645    0.0000 O   0  0  0  0  0  0  0  0  0  0  0  0
    4.3461   -4.9500    0.0000 O   0  0  0  0  0  0  0  0  0  0  0  0
    3.1086   -4.2355    0.0000 O   0  0  0  0  0  0  0  0  0  0  0  0
    5.5655   -7.2649    0.0000 N   0  0  0  0  0  0  0  0  0  0  0  0
    1.0461   -6.3789    0.0000 N   0  0  0  0  0  0  0  0  0  0  0  0
    6.3662   -9.3229    0.0000 N   0  0  0  0  0  0  0  0  0  0  0  0
   -0.6039   -4.9500    0.0000 N   0  0  0  0  0  0  0  0  0  0  0  0
    6.4133  -11.0453    0.0000 N   0  0  0  0  0  0  0  0  0  0  0  0
    7.7481  -11.0453    0.0000 N   0  0  0  0  0  0  0  0  0  0  0  0
    6.6682  -11.8300    0.0000 N   0  0  0  0  0  0  0  0  0  0  0  0
    7.4932  -11.8300    0.0000 N   0  0  0  0  0  0  0  0  0  0  0  0
    4.3461   -7.8079    0.0000 C   0  0  0  0  0  0  0  0  0  0  0  0
    4.7586   -7.0934    0.0000 C   0  0  0  0  0  0  0  0  0  0  0  0
    5.6518   -8.0854    0.0000 C   0  0  3  0  0  0  0  0  0  0  0  0
    3.1086   -7.0934    0.0000 C   0  0  0  0  0  0  0  0  0  0  0  0
    4.8981   -8.4210    0.0000 C   0  0  0  0  0  0  0  0  0  0  0  0
    3.5211   -7.8079    0.0000 C   0  0  0  0  0  0  0  0  0  0  0  0
    2.2836   -7.0934    0.0000 C   0  0  0  0  0  0  0  0  0  0  0  0
    4.3461   -6.3789    0.0000 C   0  0  0  0  0  0  0  0  0  0  0  0
    3.5211   -6.3789    0.0000 C   0  0  0  0  0  0  0  0  0  0  0  0
    6.3662   -8.4979    0.0000 C   0  0  0  0  0  0  0  0  0  0  0  0
    1.8711   -6.3789    0.0000 C   0  0  3  0  0  0  0  0  0  0  0  0
    0.6336   -5.6645    0.0000 C   0  0  0  0  0  0  0  0  0  0  0  0
   -0.1914   -5.6645    0.0000 C   0  0  3  0  0  0  0  0  0  0  0  0
    2.2836   -5.6645    0.0000 C   0  0  0  0  0  0  0  0  0  0  0  0
   -0.6039   -6.3789    0.0000 C   0  0  3  0  0  0  0  0  0  0  0  0
    7.0807   -9.7354    0.0000 C   0  0  0  0  0  0  0  0  0  0  0  0
    3.1086   -5.6645    0.0000 C   0  0  0  0  0  0  0  0  0  0  0  0
    7.0807  -10.5604    0.0000 C   0  0  0  0  0  0  0  0  0  0  0  0
   -1.4289   -4.9500    0.0000 C   0  0  0  0  0  0  0  0  0  0  0  0
   -0.1914   -7.0934    0.0000 C   0  0  0  0  0  0  0  0  0  0  0  0
   -1.8414   -4.2355    0.0000 C   0  0  0  0  0  0  0  0  0  0  0  0
    3.5211   -4.9500    0.0000 C   0  0  0  0  0  0  0  0  0  0  0  0
   -1.4289   -6.3789    0.0000 C   0  0  0  0  0  0  0  0  0  0  0  0
   -2.6664   -4.2355    0.0000 C   0  0  0  0  0  0  0  0  0  0  0  0
   -3.0789   -4.9500    0.0000 C   0  0  0  0  0  0  0  0  0  0  0  0
   -3.0789   -3.5211    0.0000 C   0  0  0  0  0  0  0  0  0  0  0  0
   -0.6039   -7.8079    0.0000 C   0  0  0  0  0  0  0  0  0  0  0  0
   -3.9039   -4.9500    0.0000 C   0  0  0  0  0  0  0  0  0  0  0  0
   -3.9039   -3.5211    0.0000 C   0  0  0  0  0  0  0  0  0  0  0  0
   -4.3164   -4.2355    0.0000 C   0  0  0  0  0  0  0  0  0  0  0  0
  1 21  2  0  0  0  0
  2 24  2  0  0  0  0
  3 26  2  0  0  0  0
  4 33  2  0  0  0  0
  5 36  2  0  0  0  0
  6 36  1  0  0  0  0
  7 16  1  0  0  0  0
  7 17  1  0  0  0  0
  8 25  1  0  0  0  0
  8 26  1  0  0  0  0
  9 24  1  0  0  0  0
  9 30  1  0  0  0  0
 10 27  1  0  0  0  0
 10 33  1  0  0  0  0
 11 13  2  0  0  0  0
 11 32  1  0  0  0  0
 12 14  1  0  0  0  0
 12 32  2  0  0  0  0
 13 14  1  0  0  0  0
 15 16  1  0  0  0  0
 15 19  1  0  0  0  0
 15 20  2  0  0  0  0
 16 22  2  0  0  0  0
 17 19  1  0  0  0  0
 17 24  1  0  0  0  0
 18 20  1  0  0  0  0
 18 21  1  0  0  0  0
 18 23  2  0  0  0  0
 21 25  1  0  0  0  0
 22 23  1  0  0  0  0
 25 28  1  0  0  0  0
 26 27  1  0  0  0  0
 27 29  1  0  0  0  0
 28 31  1  0  0  0  0
 29 34  1  0  0  0  0
 29 37  1  0  0  0  0
 30 32  1  0  0  0  0
 31 36  1  0  0  0  0
 33 35  1  0  0  0  0
 34 41  1  0  0  0  0
 35 38  1  0  0  0  0
 38 39  2  0  0  0  0
 38 40  1  0  0  0  0
 39 42  1  0  0  0  0
 40 43  2  0  0  0  0
 42 44  2  0  0  0  0
 43 44  1  0  0  0  0
M  END
> <PUBCHEM_COMPOUND_ID_TYPE>
0

> <PUBCHEM_TOTAL_CHARGE>
0

> <PUBCHEM_SUBSTANCE_ID>
310938519

> <PUBCHEM_SUBSTANCE_VERSION>
1

> <PUBCHEM_EXT_DATASOURCE_NAME>
4488

> <PUBCHEM_EXT_DATASOURCE_REGID>
SCHEMBL16116427

> <PUBCHEM_SUBSTANCE_COMMENT>
InChI=1S/C30H36N8O6/c1-3-17(2)27(34-25(39)13-18-7-5-4-6-8-18)30(44)33-22(11-12-26(40)41)28(42)19-9-10-21-20(14-19)15-23(32-21)29(43)31-16-24-35-37-38-36-24/h4-10,14,17,22-23,27,32H,3,11-13,15-16H2,1-2H3,(H,31,43)(H,33,44)(H,34,39)(H,40,41)(H,35,36,37,38)
InChIKey=YRPCAMRGKBDWNC-UHFFFAOYSA-N

> <PUBCHEM_SUBSTANCE_SYNONYM>
SCHEMBL16116427

> <PUBCHEM_XREF_EXT_ID>
SCHEMBL16116427

> <PUBCHEM_EXT_DATASOURCE_URL>
https://www.surechembl.org/

> <PUBCHEM_EXT_SUBSTANCE_URL>
https://www.surechembl.org/chemical/SCHEMBL16116427

> <PUBCHEM_CID_ASSOCIATIONS>
117605972  1

> <PUBCHEM_COORDINATE_TYPE>
1
3

$$$$
