310939073
  -OEChem-07211613022D

 15 15  0     1  0  0  0  0  0999 V2000
    0.8381    0.2241    0.0000 O   0  0  0  0  0  0  0  0  0  0  0  0
   -0.6262   -0.0473    0.0000 O   0  0  0  0  0  0  0  0  0  0  0  0
    2.2200    0.1516    0.0000 O   0  0  0  0  0  0  0  0  0  0  0  0
    0.1707   -0.2609    0.0000 C   0  0  3  0  0  0  0  0  0  0  0  0
    0.4256   -1.0455    0.0000 C   0  0  0  0  0  0  0  0  0  0  0  0
    1.2506   -1.0455    0.0000 C   0  0  0  0  0  0  0  0  0  0  0  0
    1.5055   -0.2609    0.0000 C   0  0  0  0  0  0  0  0  0  0  0  0
   -0.8398    0.7495    0.0000 C   0  0  0  0  0  0  0  0  0  0  0  0
   -0.5438   -0.6734    0.0000 C   0  0  0  0  0  0  0  0  0  0  0  0
    0.0131   -1.7600    0.0000 C   0  0  0  0  0  0  0  0  0  0  0  0
    1.6631   -1.7600    0.0000 C   0  0  0  0  0  0  0  0  0  0  0  0
   -1.6366    0.9631    0.0000 C   0  0  0  0  0  0  0  0  0  0  0  0
   -0.2564    1.3329    0.0000 C   0  0  0  0  0  0  0  0  0  0  0  0
   -2.2200    0.3797    0.0000 C   0  0  0  0  0  0  0  0  0  0  0  0
   -1.8502    1.7600    0.0000 C   0  0  0  0  0  0  0  0  0  0  0  0
  1  4  1  0  0  0  0
  1  7  1  0  0  0  0
  2  4  1  0  0  0  0
  2  8  1  0  0  0  0
  3  7  2  0  0  0  0
  4  5  1  0  0  0  0
  4  9  1  0  0  0  0
  5  6  2  0  0  0  0
  5 10  1  0  0  0  0
  6  7  1  0  0  0  0
  6 11  1  0  0  0  0
  8 12  2  0  0  0  0
  8 13  1  0  0  0  0
 12 14  1  0  0  0  0
 12 15  1  0  0  0  0
M  END
> <PUBCHEM_COMPOUND_ID_TYPE>
0

> <PUBCHEM_TOTAL_CHARGE>
0

> <PUBCHEM_SUBSTANCE_ID>
310939073

> <PUBCHEM_SUBSTANCE_VERSION>
1

> <PUBCHEM_EXT_DATASOURCE_NAME>
4488

> <PUBCHEM_EXT_DATASOURCE_REGID>
SCHEMBL16116992

> <PUBCHEM_SUBSTANCE_COMMENT>
InChI=1S/C12H18O3/c1-7(2)10(5)14-12(6)9(4)8(3)11(13)15-12/h1-6H3
InChIKey=FXLPVYPIBUWLRP-UHFFFAOYSA-N

> <PUBCHEM_SUBSTANCE_SYNONYM>
SCHEMBL16116992

> <PUBCHEM_XREF_EXT_ID>
SCHEMBL16116992

> <PUBCHEM_EXT_DATASOURCE_URL>
https://www.surechembl.org/

> <PUBCHEM_EXT_SUBSTANCE_URL>
https://www.surechembl.org/chemical/SCHEMBL16116992

> <PUBCHEM_CID_ASSOCIATIONS>
117606436  1

> <PUBCHEM_COORDINATE_TYPE>
1
3

$$$$
