310936088
  -OEChem-07211613022D

 21 22  0     1  0  0  0  0  0999 V2000
    0.8420   -1.6489    0.0000 O   0  0  0  0  0  0  0  0  0  0  0  0
    2.2453   -1.6489    0.0000 O   0  0  0  0  0  0  0  0  0  0  0  0
    1.5437   -2.8768    0.0000 N   0  0  0  0  0  0  0  0  0  0  0  0
    1.5437   -4.5258    0.0000 C   0  0  0  0  0  0  0  0  0  0  0  0
    2.2804   -4.1048    0.0000 C   0  0  3  0  0  0  0  0  0  0  0  0
    1.5437   -2.0349    0.0000 C   0  0  0  0  0  0  0  0  0  0  0  0
    2.2804   -3.2978    0.0000 C   0  0  0  0  0  0  0  0  0  0  0  0
    0.8420   -3.2978    0.0000 C   0  0  0  0  0  0  0  0  0  0  0  0
    0.8420   -4.1048    0.0000 C   0  0  0  0  0  0  0  0  0  0  0  0
    1.5437   -5.3678    0.0000 C   0  0  0  0  0  0  0  0  0  0  0  0
    0.8420   -0.8069    0.0000 C   0  0  0  0  0  0  0  0  0  0  0  0
    2.2453   -5.7537    0.0000 C   0  0  0  0  0  0  0  0  0  0  0  0
    2.9821   -4.5258    0.0000 C   0  0  0  0  0  0  0  0  0  0  0  0
    2.9821   -5.3678    0.0000 C   0  0  0  0  0  0  0  0  0  0  0  0
    2.2453   -6.5957    0.0000 C   0  0  0  0  0  0  0  0  0  0  0  0
    1.6840   -0.8069    0.0000 C   0  0  0  0  0  0  0  0  0  0  0  0
    0.8420    0.0000    0.0000 C   0  0  0  0  0  0  0  0  0  0  0  0
    0.0000   -0.8069    0.0000 C   0  0  0  0  0  0  0  0  0  0  0  0
    3.6837   -5.7537    0.0000 C   0  0  0  0  0  0  0  0  0  0  0  0
    2.9821   -7.0167    0.0000 C   0  0  0  0  0  0  0  0  0  0  0  0
    3.6837   -6.5957    0.0000 C   0  0  0  0  0  0  0  0  0  0  0  0
  1  6  1  0  0  0  0
  1 11  1  0  0  0  0
  2  6  2  0  0  0  0
  3  6  1  0  0  0  0
  3  7  1  0  0  0  0
  3  8  1  0  0  0  0
  4  5  1  0  0  0  0
  4  9  1  0  0  0  0
  4 10  2  0  0  0  0
  5  7  1  0  0  0  0
  5 13  1  0  0  0  0
  8  9  1  0  0  0  0
 10 12  1  0  0  0  0
 11 16  1  0  0  0  0
 11 17  1  0  0  0  0
 11 18  1  0  0  0  0
 12 14  2  0  0  0  0
 12 15  1  0  0  0  0
 14 19  1  0  0  0  0
 15 20  2  0  0  0  0
 19 21  2  0  0  0  0
 20 21  1  0  0  0  0
M  END
> <PUBCHEM_COMPOUND_ID_TYPE>
0

> <PUBCHEM_TOTAL_CHARGE>
0

> <PUBCHEM_SUBSTANCE_ID>
310936088

> <PUBCHEM_SUBSTANCE_VERSION>
1

> <PUBCHEM_EXT_DATASOURCE_NAME>
4488

> <PUBCHEM_EXT_DATASOURCE_REGID>
SCHEMBL16113694

> <PUBCHEM_SUBSTANCE_COMMENT>
InChI=1S/C18H25NO2/c1-14-13-19(17(20)21-18(2,3)4)11-10-16(14)12-15-8-6-5-7-9-15/h5-9,12,14H,10-11,13H2,1-4H3/b16-12-
InChIKey=ZZNYRTKTYVJDQA-VBKFSLOCSA-N

> <PUBCHEM_SUBSTANCE_SYNONYM>
SCHEMBL16113694

> <PUBCHEM_XREF_EXT_ID>
SCHEMBL16113694

> <PUBCHEM_EXT_DATASOURCE_URL>
https://www.surechembl.org/

> <PUBCHEM_EXT_SUBSTANCE_URL>
https://www.surechembl.org/chemical/SCHEMBL16113694

> <PUBCHEM_CID_ASSOCIATIONS>
117604055  1

> <PUBCHEM_COORDINATE_TYPE>
1
3

$$$$
