310945655
  -OEChem-07211613022D

 26 27  0     1  0  0  0  0  0999 V2000
    4.0810    0.6181    0.0000 O   0  0  0  0  0  0  0  0  0  0  0  0
    4.3338   -0.8007    0.0000 O   0  0  0  0  0  0  0  0  0  0  0  0
   -0.6392   -1.6857    0.0000 N   0  0  0  0  0  0  0  0  0  0  0  0
    0.5830   -1.1379    0.0000 N   0  0  0  0  0  0  0  0  0  0  0  0
    0.1756   -1.8684    0.0000 N   0  0  0  0  0  0  0  0  0  0  0  0
    1.0044    0.5338    0.0000 N   0  0  3  0  0  0  0  0  0  0  0  0
    2.9711   -0.4215    0.0000 N   0  0  0  0  0  0  0  0  0  0  0  0
   -4.3338    1.1660    0.0000 N   0  0  0  0  0  0  0  0  0  0  0  0
   -0.7235   -0.8429    0.0000 C   0  0  0  0  0  0  0  0  0  0  0  0
    0.0210   -0.5057    0.0000 C   0  0  0  0  0  0  0  0  0  0  0  0
   -1.4680   -0.4215    0.0000 C   0  0  0  0  0  0  0  0  0  0  0  0
    0.2037    0.3090    0.0000 C   0  0  0  0  0  0  0  0  0  0  0  0
   -2.1704   -0.8429    0.0000 C   0  0  0  0  0  0  0  0  0  0  0  0
   -1.4680    0.3933    0.0000 C   0  0  0  0  0  0  0  0  0  0  0  0
   -2.9009    0.4074    0.0000 C   0  0  0  0  0  0  0  0  0  0  0  0
   -2.9009   -0.4355    0.0000 C   0  0  0  0  0  0  0  0  0  0  0  0
   -2.1985    0.8007    0.0000 C   0  0  0  0  0  0  0  0  0  0  0  0
    1.5804   -0.0281    0.0000 C   0  0  0  0  0  0  0  0  0  0  0  0
    3.5331    1.2644    0.0000 C   0  0  0  0  0  0  0  0  0  0  0  0
    3.7859   -0.1967    0.0000 C   0  0  0  0  0  0  0  0  0  0  0  0
   -3.6314    0.8007    0.0000 C   0  0  0  0  0  0  0  0  0  0  0  0
    2.3811    0.1685    0.0000 C   0  0  0  0  0  0  0  0  0  0  0  0
    1.2011    1.3767    0.0000 C   0  0  0  0  0  0  0  0  0  0  0  0
    4.0669    1.7981    0.0000 C   0  0  0  0  0  0  0  0  0  0  0  0
    2.9431    0.7445    0.0000 C   0  0  0  0  0  0  0  0  0  0  0  0
    2.9711    1.8684    0.0000 C   0  0  0  0  0  0  0  0  0  0  0  0
  1 19  1  0  0  0  0
  1 20  1  0  0  0  0
  2 20  2  0  0  0  0
  3  5  1  0  0  0  0
  3  9  2  0  0  0  0
  4  5  1  0  0  0  0
  4 10  2  0  0  0  0
  6 12  1  0  0  0  0
  6 18  1  0  0  0  0
  6 23  1  0  0  0  0
  7 20  1  0  0  0  0
  7 22  1  0  0  0  0
  8 21  3  0  0  0  0
  9 10  1  0  0  0  0
  9 11  1  0  0  0  0
 10 12  1  0  0  0  0
 11 13  2  0  0  0  0
 11 14  1  0  0  0  0
 13 16  1  0  0  0  0
 14 17  2  0  0  0  0
 15 16  2  0  0  0  0
 15 17  1  0  0  0  0
 15 21  1  0  0  0  0
 18 22  1  0  0  0  0
 19 24  1  0  0  0  0
 19 25  1  0  0  0  0
 19 26  1  0  0  0  0
M  END
> <PUBCHEM_COMPOUND_ID_TYPE>
0

> <PUBCHEM_TOTAL_CHARGE>
0

> <PUBCHEM_SUBSTANCE_ID>
310945655

> <PUBCHEM_SUBSTANCE_VERSION>
1

> <PUBCHEM_EXT_DATASOURCE_NAME>
4488

> <PUBCHEM_EXT_DATASOURCE_REGID>
SCHEMBL16123754

> <PUBCHEM_SUBSTANCE_COMMENT>
InChI=1S/C18H24N6O2/c1-18(2,3)26-17(25)20-9-10-24(4)12-15-16(22-23-21-15)14-7-5-13(11-19)6-8-14/h5-8H,9-10,12H2,1-4H3,(H,20,25)(H,21,22,23)
InChIKey=MZNGGXWSXMHEBA-UHFFFAOYSA-N

> <PUBCHEM_SUBSTANCE_SYNONYM>
SCHEMBL16123754

> <PUBCHEM_XREF_EXT_ID>
SCHEMBL16123754

> <PUBCHEM_EXT_DATASOURCE_URL>
https://www.surechembl.org/

> <PUBCHEM_EXT_SUBSTANCE_URL>
https://www.surechembl.org/chemical/SCHEMBL16123754

> <PUBCHEM_CID_ASSOCIATIONS>
117611656  1

> <PUBCHEM_COORDINATE_TYPE>
1
3

$$$$
