310933429
  -OEChem-07211613022D

 37 42  0     1  0  0  0  0  0999 V2000
    2.0870   -2.8652    0.0000 O   0  0  0  0  0  0  0  0  0  0  0  0
    6.2255   -2.9359    0.0000 O   0  0  0  0  0  0  0  0  0  0  0  0
    1.9101   -6.6500    0.0000 O   0  0  0  0  0  0  0  0  0  0  0  0
    4.7399   -3.0066    0.0000 N   0  0  0  0  0  0  0  0  0  0  0  0
    5.3766   -4.1386    0.0000 N   0  0  0  0  0  0  0  0  0  0  0  0
    1.6625   -2.1577    0.0000 N   0  0  0  0  0  0  0  0  0  0  0  0
    2.6175   -7.0744    0.0000 N   0  0  0  0  0  0  0  0  0  0  0  0
    2.9005   -2.8652    0.0000 C   0  0  3  0  0  0  0  0  0  0  0  0
    3.3250   -3.6079    0.0000 C   0  0  0  0  0  0  0  0  0  0  0  0
    4.1386   -3.5726    0.0000 C   0  0  0  0  0  0  0  0  0  0  0  0
    2.4761   -2.1577    0.0000 C   0  0  0  0  0  0  0  0  0  0  0  0
    4.5630   -4.3508    0.0000 C   0  0  0  0  0  0  0  0  0  0  0  0
    3.3250   -2.1577    0.0000 C   0  0  0  0  0  0  0  0  0  0  0  0
    3.3250   -5.0228    0.0000 C   0  0  0  0  0  0  0  0  0  0  0  0
    2.9005   -4.2800    0.0000 C   0  0  0  0  0  0  0  0  0  0  0  0
    4.1386   -5.0228    0.0000 C   0  0  0  0  0  0  0  0  0  0  0  0
    2.9005   -5.7303    0.0000 C   0  0  0  0  0  0  0  0  0  0  0  0
    5.4827   -3.3250    0.0000 C   0  0  0  0  0  0  0  0  0  0  0  0
    3.0774   -1.5917    0.0000 C   0  0  0  0  0  0  0  0  0  0  0  0
    1.2380   -1.4149    0.0000 C   0  0  0  0  0  0  0  0  0  0  0  0
    2.9005   -1.4149    0.0000 C   0  0  0  0  0  0  0  0  0  0  0  0
    4.1386   -2.1577    0.0000 C   0  0  0  0  0  0  0  0  0  0  0  0
    2.0870   -5.8364    0.0000 C   0  0  0  0  0  0  0  0  0  0  0  0
    3.2188   -6.5085    0.0000 C   0  0  0  0  0  0  0  0  0  0  0  0
    1.6271   -0.7074    0.0000 C   0  0  0  0  0  0  0  0  0  0  0  0
    2.4761   -0.7074    0.0000 C   0  0  0  0  0  0  0  0  0  0  0  0
    3.3250   -0.7074    0.0000 C   0  0  0  0  0  0  0  0  0  0  0  0
    4.5630   -1.4149    0.0000 C   0  0  0  0  0  0  0  0  0  0  0  0
    0.4244   -1.4503    0.0000 C   0  0  0  0  0  0  0  0  0  0  0  0
    1.2380    0.0000    0.0000 C   0  0  0  0  0  0  0  0  0  0  0  0
    4.1386   -0.7074    0.0000 C   0  0  0  0  0  0  0  0  0  0  0  0
    1.5210   -5.2351    0.0000 C   0  0  0  0  0  0  0  0  0  0  0  0
    4.0678   -6.6853    0.0000 C   0  0  0  0  0  0  0  0  0  0  0  0
    0.0000   -0.7074    0.0000 C   0  0  0  0  0  0  0  0  0  0  0  0
    0.4244    0.0000    0.0000 C   0  0  0  0  0  0  0  0  0  0  0  0
    6.2255   -2.0870    0.0000 C   0  0  0  0  0  0  0  0  0  0  0  0
    5.5180   -1.6625    0.0000 C   0  0  0  0  0  0  0  0  0  0  0  0
  1  8  1  0  0  0  0
  2 18  1  0  0  0  0
  2 36  1  0  0  0  0
  3  7  1  0  0  0  0
  3 23  1  0  0  0  0
  4 10  1  0  0  0  0
  4 18  2  0  0  0  0
  5 12  1  0  0  0  0
  5 18  1  0  0  0  0
  6 11  1  0  0  0  0
  6 20  2  0  0  0  0
  7 24  2  0  0  0  0
  8  9  1  0  0  0  0
  8 11  1  0  0  0  0
  8 13  1  0  0  0  0
  9 10  1  0  0  0  0
  9 15  2  0  0  0  0
 10 12  2  0  0  0  0
 11 19  2  0  0  0  0
 12 16  1  0  0  0  0
 13 21  2  0  0  0  0
 13 22  1  0  0  0  0
 14 15  1  0  0  0  0
 14 16  2  0  0  0  0
 14 17  1  0  0  0  0
 17 23  2  0  0  0  0
 17 24  1  0  0  0  0
 19 26  1  0  0  0  0
 20 25  1  0  0  0  0
 20 29  1  0  0  0  0
 21 27  1  0  0  0  0
 22 28  2  0  0  0  0
 23 32  1  0  0  0  0
 24 33  1  0  0  0  0
 25 26  2  0  0  0  0
 25 30  1  0  0  0  0
 27 31  2  0  0  0  0
 28 31  1  0  0  0  0
 29 34  2  0  0  0  0
 30 35  2  0  0  0  0
 34 35  1  0  0  0  0
 36 37  1  0  0  0  0
M  END
> <PUBCHEM_COMPOUND_ID_TYPE>
0

> <PUBCHEM_TOTAL_CHARGE>
0

> <PUBCHEM_SUBSTANCE_ID>
310933429

> <PUBCHEM_SUBSTANCE_VERSION>
1

> <PUBCHEM_EXT_DATASOURCE_NAME>
4488

> <PUBCHEM_EXT_DATASOURCE_REGID>
SCHEMBL16110846

> <PUBCHEM_SUBSTANCE_COMMENT>
InChI=1S/C30H26N4O3/c1-4-36-29-32-25-17-21(27-18(2)34-37-19(27)3)16-23(28(25)33-29)30(35,22-11-6-5-7-12-22)26-15-14-20-10-8-9-13-24(20)31-26/h5-17,35H,4H2,1-3H3,(H,32,33)
InChIKey=LXWCDSUJRMHCEP-UHFFFAOYSA-N

> <PUBCHEM_SUBSTANCE_SYNONYM>
SCHEMBL16110846

> <PUBCHEM_XREF_EXT_ID>
SCHEMBL16110846

> <PUBCHEM_EXT_DATASOURCE_URL>
https://www.surechembl.org/

> <PUBCHEM_EXT_SUBSTANCE_URL>
https://www.surechembl.org/chemical/SCHEMBL16110846

> <PUBCHEM_CID_ASSOCIATIONS>
117601831  1

> <PUBCHEM_COORDINATE_TYPE>
1
3

$$$$
