310930815
  -OEChem-07211613022D

 49 52  0     1  0  0  0  0  0999 V2000
    3.5724   -5.3625    0.0000 Cl  0  0  0  0  0  0  0  0  0  0  0  0
    7.8592   -2.0625    0.0000 S   0  0  0  0  0  0  0  0  0  0  0  0
    9.2881   -2.8875    0.0000 F   0  0  0  0  0  0  0  0  0  0  0  0
    6.4302   -4.5375    0.0000 F   0  0  0  0  0  0  0  0  0  0  0  0
    8.6842   -2.0625    0.0000 O   0  0  0  0  0  0  0  0  0  0  0  0
    7.0342   -2.0625    0.0000 O   0  0  0  0  0  0  0  0  0  0  0  0
    7.8592   -5.3625    0.0000 O   0  0  0  0  0  0  0  0  0  0  0  0
   10.0026    0.0000    0.0000 O   0  0  0  0  0  0  0  0  0  0  0  0
    9.2881   -7.8375    0.0000 O   0  0  0  0  0  0  0  0  0  0  0  0
    8.5737    2.4750    0.0000 O   0  0  0  0  0  0  0  0  0  0  0  0
    8.5737   -9.0750    0.0000 O   0  0  0  0  0  0  0  0  0  0  0  0
    7.8592   -1.2375    0.0000 N   0  0  3  0  0  0  0  0  0  0  0  0
    7.8592   -7.8375    0.0000 N   0  0  0  0  0  0  0  0  0  0  0  0
    7.8592   -2.8875    0.0000 C   0  0  0  0  0  0  0  0  0  0  0  0
    8.5737   -3.3000    0.0000 C   0  0  0  0  0  0  0  0  0  0  0  0
    7.1447   -3.3000    0.0000 C   0  0  0  0  0  0  0  0  0  0  0  0
    7.8592   -4.5375    0.0000 C   0  0  0  0  0  0  0  0  0  0  0  0
    7.1447   -4.1250    0.0000 C   0  0  0  0  0  0  0  0  0  0  0  0
    8.5737   -4.1250    0.0000 C   0  0  0  0  0  0  0  0  0  0  0  0
    8.5737   -0.8250    0.0000 C   0  0  0  0  0  0  0  0  0  0  0  0
    8.5737    0.0000    0.0000 C   0  0  0  0  0  0  0  0  0  0  0  0
    7.1447   -0.8250    0.0000 C   0  0  0  0  0  0  0  0  0  0  0  0
    7.1447   -6.6000    0.0000 C   0  0  3  0  0  0  0  0  0  0  0  0
    6.4302   -7.0125    0.0000 C   0  0  3  0  0  0  0  0  0  0  0  0
    9.2881    0.4125    0.0000 C   0  0  0  0  0  0  0  0  0  0  0  0
    7.1447   -5.7750    0.0000 C   0  0  0  0  0  0  0  0  0  0  0  0
    5.7158   -6.6000    0.0000 C   0  0  0  0  0  0  0  0  0  0  0  0
    7.8592   -7.0125    0.0000 C   0  0  0  0  0  0  0  0  0  0  0  0
    6.4302   -1.2375    0.0000 C   0  0  0  0  0  0  0  0  0  0  0  0
    6.4302   -7.8375    0.0000 C   0  0  0  0  0  0  0  0  0  0  0  0
    7.8592    0.4125    0.0000 C   0  0  0  0  0  0  0  0  0  0  0  0
    7.1447   -8.2500    0.0000 C   0  0  0  0  0  0  0  0  0  0  0  0
    9.2881    1.2375    0.0000 C   0  0  0  0  0  0  0  0  0  0  0  0
    8.5737   -8.2500    0.0000 C   0  0  0  0  0  0  0  0  0  0  0  0
    8.5737    1.6500    0.0000 C   0  0  0  0  0  0  0  0  0  0  0  0
    7.8592    1.2375    0.0000 C   0  0  0  0  0  0  0  0  0  0  0  0
    5.0013   -7.0125    0.0000 C   0  0  0  0  0  0  0  0  0  0  0  0
    5.7158   -5.7750    0.0000 C   0  0  0  0  0  0  0  0  0  0  0  0
    4.2868   -6.6000    0.0000 C   0  0  0  0  0  0  0  0  0  0  0  0
    5.0013   -5.3625    0.0000 C   0  0  0  0  0  0  0  0  0  0  0  0
    4.2868   -5.7750    0.0000 C   0  0  0  0  0  0  0  0  0  0  0  0
   10.0026   -8.2500    0.0000 C   0  0  0  0  0  0  0  0  0  0  0  0
    6.4302   -2.0625    0.0000 C   0  0  0  0  0  0  0  0  0  0  0  0
    5.7158   -0.8250    0.0000 C   0  0  0  0  0  0  0  0  0  0  0  0
   10.0026   -0.8250    0.0000 C   0  0  0  0  0  0  0  0  0  0  0  0
    9.5901   -8.9645    0.0000 C   0  0  0  0  0  0  0  0  0  0  0  0
   10.4151   -7.5355    0.0000 C   0  0  0  0  0  0  0  0  0  0  0  0
   10.7171   -8.6625    0.0000 C   0  0  0  0  0  0  0  0  0  0  0  0
    7.8592    2.8875    0.0000 C   0  0  0  0  0  0  0  0  0  0  0  0
  1 41  1  0  0  0  0
  2  5  2  0  0  0  0
  2  6  2  0  0  0  0
  2 12  1  0  0  0  0
  2 14  1  0  0  0  0
  3 15  1  0  0  0  0
  4 18  1  0  0  0  0
  7 17  1  0  0  0  0
  7 26  1  0  0  0  0
  8 25  1  0  0  0  0
  8 45  1  0  0  0  0
  9 34  1  0  0  0  0
  9 42  1  0  0  0  0
 10 35  1  0  0  0  0
 10 49  1  0  0  0  0
 11 34  2  0  0  0  0
 12 20  1  0  0  0  0
 12 22  1  0  0  0  0
 13 28  1  0  0  0  0
 13 32  1  0  0  0  0
 13 34  1  0  0  0  0
 14 15  1  0  0  0  0
 14 16  2  0  0  0  0
 15 19  2  0  0  0  0
 16 18  1  0  0  0  0
 17 18  2  0  0  0  0
 17 19  1  0  0  0  0
 20 21  1  0  0  0  0
 21 25  2  0  0  0  0
 21 31  1  0  0  0  0
 22 29  1  0  0  0  0
 23 24  1  0  0  0  0
 23 26  1  0  0  0  0
 23 28  1  0  0  0  0
 24 27  1  0  0  0  0
 24 30  1  0  0  0  0
 25 33  1  0  0  0  0
 27 37  2  0  0  0  0
 27 38  1  0  0  0  0
 29 43  1  0  0  0  0
 29 44  1  0  0  0  0
 30 32  1  0  0  0  0
 31 36  2  0  0  0  0
 33 35  2  0  0  0  0
 35 36  1  0  0  0  0
 37 39  1  0  0  0  0
 38 40  2  0  0  0  0
 39 41  2  0  0  0  0
 40 41  1  0  0  0  0
 42 46  1  0  0  0  0
 42 47  1  0  0  0  0
 42 48  1  0  0  0  0
M  END
> <PUBCHEM_COMPOUND_ID_TYPE>
0

> <PUBCHEM_TOTAL_CHARGE>
0

> <PUBCHEM_SUBSTANCE_ID>
310930815

> <PUBCHEM_SUBSTANCE_VERSION>
1

> <PUBCHEM_EXT_DATASOURCE_NAME>
4488

> <PUBCHEM_EXT_DATASOURCE_REGID>
SCHEMBL16108112

> <PUBCHEM_SUBSTANCE_COMMENT>
InChI=1S/C36H45ClF2N2O7S/c1-23(2)19-41(21-25-10-13-28(45-6)16-32(25)46-7)49(43,44)34-18-30(38)33(17-31(34)39)47-22-26-20-40(35(42)48-36(3,4)5)15-14-29(26)24-8-11-27(37)12-9-24/h8-13,16-18,23,26,29H,14-15,19-22H2,1-7H3
InChIKey=GJQDFPYGDCDJCU-UHFFFAOYSA-N

> <PUBCHEM_SUBSTANCE_SYNONYM>
SCHEMBL16108112

> <PUBCHEM_XREF_EXT_ID>
SCHEMBL16108112

> <PUBCHEM_EXT_DATASOURCE_URL>
https://www.surechembl.org/

> <PUBCHEM_EXT_SUBSTANCE_URL>
https://www.surechembl.org/chemical/SCHEMBL16108112

> <PUBCHEM_CID_ASSOCIATIONS>
117599819  1

> <PUBCHEM_COORDINATE_TYPE>
1
3

$$$$
