310930010
  -OEChem-07211613022D

 23 24  0     1  0  0  0  0  0999 V2000
    0.8251   -8.3420    0.0000 S   0  0  0  0  0  0  0  0  0  0  0  0
    2.2001   -0.7792    0.0000 S   0  0  0  0  0  0  0  0  0  0  0  0
    0.8251   -7.5170    0.0000 O   0  0  0  0  0  0  0  0  0  0  0  0
    1.6501   -8.3420    0.0000 O   0  0  0  0  0  0  0  0  0  0  0  0
    0.0000   -8.3420    0.0000 O   0  0  0  0  0  0  0  0  0  0  0  0
    0.8251   -9.1670    0.0000 O   0  0  0  0  0  0  0  0  0  0  0  0
    2.2918   -5.8669    0.0000 N   0  0  3  0  0  0  0  0  0  0  0  0
    2.2459   -2.5209    0.0000 N   0  0  0  0  0  0  0  0  0  0  0  0
    1.5125   -2.1084    0.0000 N   0  0  0  0  0  0  0  0  0  0  0  0
    0.8709   -0.7792    0.0000 N   0  0  0  0  0  0  0  0  0  0  0  0
    1.1001    0.0000    0.0000 N   0  0  0  0  0  0  0  0  0  0  0  0
    2.2459   -5.0418    0.0000 C   0  0  0  0  0  0  0  0  0  0  0  0
    2.2459   -3.3459    0.0000 C   0  0  0  0  0  0  0  0  0  0  0  0
    1.5584   -4.5835    0.0000 C   0  0  0  0  0  0  0  0  0  0  0  0
    2.9793   -4.5835    0.0000 C   0  0  0  0  0  0  0  0  0  0  0  0
    1.5125   -1.2834    0.0000 C   0  0  0  0  0  0  0  0  0  0  0  0
    1.5584   -3.7585    0.0000 C   0  0  0  0  0  0  0  0  0  0  0  0
    2.9793   -3.7585    0.0000 C   0  0  0  0  0  0  0  0  0  0  0  0
    1.5584   -6.2794    0.0000 C   0  0  0  0  0  0  0  0  0  0  0  0
    1.5584   -7.1044    0.0000 C   0  0  0  0  0  0  0  0  0  0  0  0
    2.9793   -6.2336    0.0000 C   0  0  0  0  0  0  0  0  0  0  0  0
    1.9709    0.0000    0.0000 C   0  0  0  0  0  0  0  0  0  0  0  0
    3.7127   -5.8669    0.0000 C   0  0  0  0  0  0  0  0  0  0  0  0
  1  3  1  0  0  0  0
  1  4  2  0  0  0  0
  1  5  2  0  0  0  0
  1  6  1  0  0  0  0
  2 16  1  0  0  0  0
  2 22  1  0  0  0  0
  3 20  1  0  0  0  0
  7 12  1  0  0  0  0
  7 19  1  0  0  0  0
  7 21  1  0  0  0  0
  8  9  2  0  0  0  0
  8 13  1  0  0  0  0
  9 16  1  0  0  0  0
 10 11  1  0  0  0  0
 10 16  2  0  0  0  0
 11 22  2  0  0  0  0
 12 14  2  0  0  0  0
 12 15  1  0  0  0  0
 13 17  2  0  0  0  0
 13 18  1  0  0  0  0
 14 17  1  0  0  0  0
 15 18  2  0  0  0  0
 19 20  1  0  0  0  0
 21 23  1  0  0  0  0
M  END
> <PUBCHEM_COMPOUND_ID_TYPE>
0

> <PUBCHEM_TOTAL_CHARGE>
0

> <PUBCHEM_SUBSTANCE_ID>
310930010

> <PUBCHEM_SUBSTANCE_VERSION>
1

> <PUBCHEM_EXT_DATASOURCE_NAME>
4488

> <PUBCHEM_EXT_DATASOURCE_REGID>
SCHEMBL16107249

> <PUBCHEM_SUBSTANCE_COMMENT>
InChI=1S/C12H15N5O4S2/c1-2-17(7-8-21-23(18,19)20)11-5-3-10(4-6-11)14-16-12-15-13-9-22-12/h3-6,9H,2,7-8H2,1H3,(H,18,19,20)/b16-14+
InChIKey=GACOPGVTYAMJLX-JQIJEIRASA-N

> <PUBCHEM_SUBSTANCE_SYNONYM>
SCHEMBL16107249

> <PUBCHEM_XREF_EXT_ID>
SCHEMBL16107249

> <PUBCHEM_EXT_DATASOURCE_URL>
https://www.surechembl.org/

> <PUBCHEM_EXT_SUBSTANCE_URL>
https://www.surechembl.org/chemical/SCHEMBL16107249

> <PUBCHEM_CID_ASSOCIATIONS>
89559013  1

> <PUBCHEM_COORDINATE_TYPE>
1
3

$$$$
