310948713
  -OEChem-07211613022D

 18 20  0     1  0  0  0  0  0999 V2000
   -0.7598    2.4188    0.0000 Br  0  0  0  0  0  0  0  0  0  0  0  0
   -0.5926   -0.9271    0.0000 S   0  0  0  0  0  0  0  0  0  0  0  0
   -0.7459   -1.7358    0.0000 O   0  0  0  0  0  0  0  0  0  0  0  0
   -1.4290   -0.9271    0.0000 O   0  0  0  0  0  0  0  0  0  0  0  0
    1.3872   -0.0628    0.0000 O   0  0  0  0  0  0  0  0  0  0  0  0
    0.2301   -0.9828    0.0000 C   0  0  0  0  0  0  0  0  0  0  0  0
   -0.7598   -0.0628    0.0000 C   0  0  0  0  0  0  0  0  0  0  0  0
    0.5786   -0.2022    0.0000 C   0  0  3  0  0  0  0  0  0  0  0  0
   -0.0628    0.3555    0.0000 C   0  0  0  0  0  0  0  0  0  0  0  0
   -0.1882   -1.7079    0.0000 C   0  0  0  0  0  0  0  0  0  0  0  0
    1.0665   -0.9968    0.0000 C   0  0  0  0  0  0  0  0  0  0  0  0
   -1.4848    0.3416    0.0000 C   0  0  0  0  0  0  0  0  0  0  0  0
   -0.0628    1.1780    0.0000 C   0  0  0  0  0  0  0  0  0  0  0  0
   -0.7738    1.5964    0.0000 C   0  0  0  0  0  0  0  0  0  0  0  0
   -1.4848    1.1780    0.0000 C   0  0  0  0  0  0  0  0  0  0  0  0
    0.2301   -2.4188    0.0000 C   0  0  0  0  0  0  0  0  0  0  0  0
    1.4848   -1.6800    0.0000 C   0  0  0  0  0  0  0  0  0  0  0  0
    1.0526   -2.4188    0.0000 C   0  0  0  0  0  0  0  0  0  0  0  0
  1 14  1  0  0  0  0
  2  3  2  0  0  0  0
  2  4  2  0  0  0  0
  2  6  1  0  0  0  0
  2  7  1  0  0  0  0
  5  8  1  0  0  0  0
  6  8  1  0  0  0  0
  6 10  1  0  0  0  0
  6 11  1  0  0  0  0
  7  9  2  0  0  0  0
  7 12  1  0  0  0  0
  8  9  1  0  0  0  0
  9 13  1  0  0  0  0
 10 16  1  0  0  0  0
 11 17  1  0  0  0  0
 12 15  2  0  0  0  0
 13 14  2  0  0  0  0
 14 15  1  0  0  0  0
 16 18  1  0  0  0  0
 17 18  1  0  0  0  0
M  END
> <PUBCHEM_COMPOUND_ID_TYPE>
0

> <PUBCHEM_TOTAL_CHARGE>
0

> <PUBCHEM_SUBSTANCE_ID>
310948713

> <PUBCHEM_SUBSTANCE_VERSION>
1

> <PUBCHEM_EXT_DATASOURCE_NAME>
4488

> <PUBCHEM_EXT_DATASOURCE_REGID>
SCHEMBL16126897

> <PUBCHEM_SUBSTANCE_COMMENT>
InChI=1S/C13H15BrO3S/c14-9-4-5-11-10(8-9)12(15)13(18(11,16)17)6-2-1-3-7-13/h4-5,8,12,15H,1-3,6-7H2
InChIKey=URKLKWSCVPAZJN-UHFFFAOYSA-N

> <PUBCHEM_SUBSTANCE_SYNONYM>
SCHEMBL16126897

> <PUBCHEM_XREF_EXT_ID>
SCHEMBL16126897

> <PUBCHEM_EXT_DATASOURCE_URL>
https://www.surechembl.org/

> <PUBCHEM_EXT_SUBSTANCE_URL>
https://www.surechembl.org/chemical/SCHEMBL16126897

> <PUBCHEM_CID_ASSOCIATIONS>
117614254  1

> <PUBCHEM_COORDINATE_TYPE>
1
3

$$$$
