310947961
  -OEChem-07211613022D

 28 31  0     1  0  0  0  0  0999 V2000
    1.1684    1.1684    0.0000 N   0  0  0  0  0  0  0  0  0  0  0  0
    1.1684   -0.1740    0.0000 N   0  0  0  0  0  0  0  0  0  0  0  0
    4.1143   -0.3356    0.0000 N   0  0  0  0  0  0  0  0  0  0  0  0
   -1.8769    0.4475    0.0000 N   0  0  0  0  0  0  0  0  0  0  0  0
   -1.8769   -0.8949    0.0000 N   0  0  0  0  0  0  0  0  0  0  0  0
   -2.6600   -0.6339    0.0000 N   0  0  0  0  0  0  0  0  0  0  0  0
    1.9515    0.0870    0.0000 C   0  0  0  0  0  0  0  0  0  0  0  0
    1.9515    0.9073    0.0000 C   0  0  0  0  0  0  0  0  0  0  0  0
    2.6724   -0.3231    0.0000 C   0  0  0  0  0  0  0  0  0  0  0  0
    0.6712    0.4972    0.0000 C   0  0  0  0  0  0  0  0  0  0  0  0
    3.3809    0.0870    0.0000 C   0  0  0  0  0  0  0  0  0  0  0  0
    2.6724    1.3176    0.0000 C   0  0  0  0  0  0  0  0  0  0  0  0
    3.3809    0.9073    0.0000 C   0  0  0  0  0  0  0  0  0  0  0  0
    2.6600   -1.1560    0.0000 C   0  0  0  0  0  0  0  0  0  0  0  0
   -0.1492    0.4972    0.0000 C   0  0  0  0  0  0  0  0  0  0  0  0
    0.7458    1.8769    0.0000 C   0  0  0  0  0  0  0  0  0  0  0  0
   -1.4046   -0.1989    0.0000 C   0  0  0  0  0  0  0  0  0  0  0  0
   -0.5718   -0.2113    0.0000 C   0  0  0  0  0  0  0  0  0  0  0  0
    3.3933   -1.5661    0.0000 C   0  0  0  0  0  0  0  0  0  0  0  0
   -2.6724    0.1989    0.0000 C   0  0  3  0  0  0  0  0  0  0  0  0
    4.1018   -1.1684    0.0000 C   0  0  0  0  0  0  0  0  0  0  0  0
   -3.3933    0.6090    0.0000 C   0  0  0  0  0  0  0  0  0  0  0  0
   -4.1018    0.1989    0.0000 C   0  0  0  0  0  0  0  0  0  0  0  0
   -3.3933    1.4294    0.0000 C   0  0  0  0  0  0  0  0  0  0  0  0
   -4.1143   -0.6215    0.0000 C   0  0  0  0  0  0  0  0  0  0  0  0
   -3.3933   -1.0441    0.0000 C   0  0  0  0  0  0  0  0  0  0  0  0
   -2.8713   -0.7458    0.0000 C   0  0  0  0  0  0  0  0  0  0  0  0
   -3.3809   -1.8769    0.0000 C   0  0  0  0  0  0  0  0  0  0  0  0
  1  8  1  0  0  0  0
  1 10  1  0  0  0  0
  1 16  1  0  0  0  0
  2  7  1  0  0  0  0
  2 10  2  0  0  0  0
  3 11  1  0  0  0  0
  3 21  2  0  0  0  0
  4 17  2  0  0  0  0
  4 20  1  0  0  0  0
  5  6  2  0  0  0  0
  5 17  1  0  0  0  0
  6 20  1  0  0  0  0
  7  8  2  0  0  0  0
  7  9  1  0  0  0  0
  8 12  1  0  0  0  0
  9 11  2  0  0  0  0
  9 14  1  0  0  0  0
 10 15  1  0  0  0  0
 11 13  1  0  0  0  0
 12 13  2  0  0  0  0
 14 19  2  0  0  0  0
 15 18  1  0  0  0  0
 17 18  1  0  0  0  0
 19 21  1  0  0  0  0
 20 22  1  0  0  0  0
 22 23  2  0  0  0  0
 22 24  1  0  0  0  0
 23 25  1  0  0  0  0
 25 26  2  0  0  0  0
 26 27  1  0  0  0  0
 26 28  1  0  0  0  0
M  END
> <PUBCHEM_COMPOUND_ID_TYPE>
0

> <PUBCHEM_TOTAL_CHARGE>
0

> <PUBCHEM_SUBSTANCE_ID>
310947961

> <PUBCHEM_SUBSTANCE_VERSION>
1

> <PUBCHEM_EXT_DATASOURCE_NAME>
4488

> <PUBCHEM_EXT_DATASOURCE_REGID>
SCHEMBL16126135

> <PUBCHEM_SUBSTANCE_COMMENT>
InChI=1S/C22H24N6/c1-14(2)7-8-15(3)22-24-19(26-27-22)11-12-20-25-21-16-6-5-13-23-17(16)9-10-18(21)28(20)4/h5-10,13,22H,11-12H2,1-4H3/b15-8-
InChIKey=ASZUOCRAOWCOKI-NVNXTCNLSA-N

> <PUBCHEM_SUBSTANCE_SYNONYM>
SCHEMBL16126135

> <PUBCHEM_XREF_EXT_ID>
SCHEMBL16126135

> <PUBCHEM_EXT_DATASOURCE_URL>
https://www.surechembl.org/

> <PUBCHEM_EXT_SUBSTANCE_URL>
https://www.surechembl.org/chemical/SCHEMBL16126135

> <PUBCHEM_CID_ASSOCIATIONS>
117613611  1

> <PUBCHEM_COORDINATE_TYPE>
1
3

$$$$
