310942376
  -OEChem-07211613022D

 26 28  0     1  0  0  0  0  0999 V2000
    2.5702    2.0991    0.0000 F   0  0  0  0  0  0  0  0  0  0  0  0
    3.3877    2.0160    0.0000 F   0  0  0  0  0  0  0  0  0  0  0  0
   -3.3184   -1.5311    0.0000 O   0  0  0  0  0  0  0  0  0  0  0  0
   -3.7479   -0.1594    0.0000 O   0  0  0  0  0  0  0  0  0  0  0  0
   -1.0461   -0.4503    0.0000 N   0  0  0  0  0  0  0  0  0  0  0  0
   -0.2979   -0.7828    0.0000 N   0  0  0  0  0  0  0  0  0  0  0  0
    1.6280    0.7551    0.0000 N   0  0  0  0  0  0  0  0  0  0  0  0
   -1.3093    0.3394    0.0000 C   0  0  0  0  0  0  0  0  0  0  0  0
   -1.6973   -0.9214    0.0000 C   0  0  0  0  0  0  0  0  0  0  0  0
   -2.3901   -0.4364    0.0000 C   0  0  0  0  0  0  0  0  0  0  0  0
   -2.1130    0.3533    0.0000 C   0  0  0  0  0  0  0  0  0  0  0  0
   -0.8244    1.0323    0.0000 C   0  0  3  0  0  0  0  0  0  0  0  0
   -3.1383   -0.6859    0.0000 C   0  0  0  0  0  0  0  0  0  0  0  0
   -0.0069    0.9214    0.0000 C   0  0  0  0  0  0  0  0  0  0  0  0
   -1.6142   -1.7527    0.0000 C   0  0  0  0  0  0  0  0  0  0  0  0
   -2.5979    1.0184    0.0000 C   0  0  0  0  0  0  0  0  0  0  0  0
   -0.2148   -1.6142    0.0000 C   0  0  0  0  0  0  0  0  0  0  0  0
   -0.8660   -2.0991    0.0000 C   0  0  0  0  0  0  0  0  0  0  0  0
    0.4780    1.6142    0.0000 C   0  0  0  0  0  0  0  0  0  0  0  0
    0.3256    0.1871    0.0000 C   0  0  0  0  0  0  0  0  0  0  0  0
   -1.1570    1.7943    0.0000 C   0  0  0  0  0  0  0  0  0  0  0  0
    1.2955    1.5172    0.0000 C   0  0  0  0  0  0  0  0  0  0  0  0
    1.1293    0.0901    0.0000 C   0  0  0  0  0  0  0  0  0  0  0  0
    2.4455    0.6859    0.0000 C   0  0  0  0  0  0  0  0  0  0  0  0
    2.9166    1.3786    0.0000 C   0  0  0  0  0  0  0  0  0  0  0  0
    3.7479    1.2678    0.0000 C   0  0  0  0  0  0  0  0  0  0  0  0
  1 25  1  0  0  0  0
  2 25  1  0  0  0  0
  3 13  2  0  0  0  0
  4 13  1  0  0  0  0
  5  6  1  0  0  0  0
  5  8  1  0  0  0  0
  5  9  1  0  0  0  0
  6 17  2  0  0  0  0
  7 22  1  0  0  0  0
  7 23  1  0  0  0  0
  7 24  1  0  0  0  0
  8 11  2  0  0  0  0
  8 12  1  0  0  0  0
  9 10  2  0  0  0  0
  9 15  1  0  0  0  0
 10 11  1  0  0  0  0
 10 13  1  0  0  0  0
 11 16  1  0  0  0  0
 12 14  1  0  0  0  0
 12 21  1  0  0  0  0
 14 19  1  0  0  0  0
 14 20  1  0  0  0  0
 15 18  2  0  0  0  0
 17 18  1  0  0  0  0
 19 22  1  0  0  0  0
 20 23  1  0  0  0  0
 24 25  1  0  0  0  0
 25 26  1  0  0  0  0
M  END
> <PUBCHEM_COMPOUND_ID_TYPE>
0

> <PUBCHEM_TOTAL_CHARGE>
0

> <PUBCHEM_SUBSTANCE_ID>
310942376

> <PUBCHEM_SUBSTANCE_VERSION>
1

> <PUBCHEM_EXT_DATASOURCE_NAME>
4488

> <PUBCHEM_EXT_DATASOURCE_REGID>
SCHEMBL16120412

> <PUBCHEM_SUBSTANCE_COMMENT>
InChI=1S/C19H25F2N3O2/c1-12(14-6-9-23(10-7-14)11-19(3,20)21)17-13(2)16(18(25)26)15-5-4-8-22-24(15)17/h4-5,8,12,14H,6-7,9-11H2,1-3H3,(H,25,26)
InChIKey=CQWARLGZDLFBIN-UHFFFAOYSA-N

> <PUBCHEM_SUBSTANCE_SYNONYM>
SCHEMBL16120412

> <PUBCHEM_XREF_EXT_ID>
SCHEMBL16120412

> <PUBCHEM_EXT_DATASOURCE_URL>
https://www.surechembl.org/

> <PUBCHEM_EXT_SUBSTANCE_URL>
https://www.surechembl.org/chemical/SCHEMBL16120412

> <PUBCHEM_CID_ASSOCIATIONS>
117608991  1

> <PUBCHEM_COORDINATE_TYPE>
1
3

$$$$
