310938509
  -OEChem-07211613022D

 36 39  0     1  0  0  0  0  0999 V2000
    6.2102    1.1104    0.0000 O   0  0  0  0  0  0  0  0  0  0  0  0
    5.6132    3.4655    0.0000 O   0  0  0  0  0  0  0  0  0  0  0  0
    6.5693    4.5274    0.0000 O   0  0  0  0  0  0  0  0  0  0  0  0
    4.0668    3.1729    0.0000 O   0  0  0  0  0  0  0  0  0  0  0  0
   -0.5837    0.8085    0.0000 O   0  0  0  0  0  0  0  0  0  0  0  0
    7.0109    3.1684    0.0000 N   0  0  0  0  0  0  0  0  0  0  0  0
    1.1387    0.8555    0.0000 N   0  0  0  0  0  0  0  0  0  0  0  0
    5.4957    2.3479    0.0000 N   0  0  0  0  0  0  0  0  0  0  0  0
   -0.5837    2.2374    0.0000 N   0  0  0  0  0  0  0  0  0  0  0  0
   -1.4856    3.7056    0.0000 N   0  0  0  0  0  0  0  0  0  0  0  0
   -2.6417    3.0381    0.0000 N   0  0  0  0  0  0  0  0  0  0  0  0
   -2.0987    4.2576    0.0000 N   0  0  0  0  0  0  0  0  0  0  0  0
   -2.8132    3.8451    0.0000 N   0  0  0  0  0  0  0  0  0  0  0  0
    7.8178    3.3400    0.0000 C   0  0  3  0  0  0  0  0  0  0  0  0
    6.9246    2.3479    0.0000 C   0  0  3  0  0  0  0  0  0  0  0  0
    8.1534    4.0936    0.0000 C   0  0  0  0  0  0  0  0  0  0  0  0
    8.2303    2.6255    0.0000 C   0  0  0  0  0  0  0  0  0  0  0  0
    7.6783    2.0124    0.0000 C   0  0  0  0  0  0  0  0  0  0  0  0
    6.2102    1.9354    0.0000 C   0  0  0  0  0  0  0  0  0  0  0  0
    1.9233    1.9354    0.0000 C   0  0  0  0  0  0  0  0  0  0  0  0
    6.3978    3.7205    0.0000 C   0  0  0  0  0  0  0  0  0  0  0  0
    1.9233    1.1104    0.0000 C   0  0  0  0  0  0  0  0  0  0  0  0
    0.6538    1.5229    0.0000 C   0  0  3  0  0  0  0  0  0  0  0  0
    3.3523    1.9354    0.0000 C   0  0  0  0  0  0  0  0  0  0  0  0
    1.1387    2.1904    0.0000 C   0  0  0  0  0  0  0  0  0  0  0  0
    2.6378    2.3479    0.0000 C   0  0  0  0  0  0  0  0  0  0  0  0
    2.6378    0.6979    0.0000 C   0  0  0  0  0  0  0  0  0  0  0  0
    4.0668    2.3479    0.0000 C   0  0  0  0  0  0  0  0  0  0  0  0
   -0.1712    1.5229    0.0000 C   0  0  0  0  0  0  0  0  0  0  0  0
    3.3523    1.1104    0.0000 C   0  0  0  0  0  0  0  0  0  0  0  0
    8.4890    4.8473    0.0000 C   0  0  0  0  0  0  0  0  0  0  0  0
    7.3997    4.4292    0.0000 C   0  0  0  0  0  0  0  0  0  0  0  0
    8.9071    3.7581    0.0000 C   0  0  0  0  0  0  0  0  0  0  0  0
    4.7812    1.9354    0.0000 C   0  0  0  0  0  0  0  0  0  0  0  0
   -1.4087    2.2374    0.0000 C   0  0  0  0  0  0  0  0  0  0  0  0
   -1.8212    2.9519    0.0000 C   0  0  0  0  0  0  0  0  0  0  0  0
  1 19  2  0  0  0  0
  2 21  2  0  0  0  0
  3 21  1  0  0  0  0
  4 28  2  0  0  0  0
  5 29  2  0  0  0  0
  6 14  1  0  0  0  0
  6 15  1  0  0  0  0
  6 21  1  0  0  0  0
  7 22  1  0  0  0  0
  7 23  1  0  0  0  0
  8 19  1  0  0  0  0
  8 34  1  0  0  0  0
  9 29  1  0  0  0  0
  9 35  1  0  0  0  0
 10 12  2  0  0  0  0
 10 36  1  0  0  0  0
 11 13  1  0  0  0  0
 11 36  2  0  0  0  0
 12 13  1  0  0  0  0
 14 16  1  0  0  0  0
 14 17  1  0  0  0  0
 15 18  1  0  0  0  0
 15 19  1  0  0  0  0
 16 31  1  0  0  0  0
 16 32  1  0  0  0  0
 16 33  1  0  0  0  0
 17 18  1  0  0  0  0
 20 22  1  0  0  0  0
 20 25  1  0  0  0  0
 20 26  2  0  0  0  0
 22 27  2  0  0  0  0
 23 25  1  0  0  0  0
 23 29  1  0  0  0  0
 24 26  1  0  0  0  0
 24 28  1  0  0  0  0
 24 30  2  0  0  0  0
 27 30  1  0  0  0  0
 28 34  1  0  0  0  0
 35 36  1  0  0  0  0
M  END
> <PUBCHEM_COMPOUND_ID_TYPE>
0

> <PUBCHEM_TOTAL_CHARGE>
0

> <PUBCHEM_SUBSTANCE_ID>
310938509

> <PUBCHEM_SUBSTANCE_VERSION>
1

> <PUBCHEM_EXT_DATASOURCE_NAME>
4488

> <PUBCHEM_EXT_DATASOURCE_REGID>
SCHEMBL16116416

> <PUBCHEM_SUBSTANCE_COMMENT>
InChI=1S/C23H30N8O5/c1-23(2,3)18-7-6-16(31(18)22(35)36)21(34)24-10-17(32)12-4-5-14-13(8-12)9-15(26-14)20(33)25-11-19-27-29-30-28-19/h4-5,8,15-16,18,26H,6-7,9-11H2,1-3H3,(H,24,34)(H,25,33)(H,35,36)(H,27,28,29,30)
InChIKey=LTPHIUGBWHNSPS-UHFFFAOYSA-N

> <PUBCHEM_SUBSTANCE_SYNONYM>
SCHEMBL16116416

> <PUBCHEM_XREF_EXT_ID>
SCHEMBL16116416

> <PUBCHEM_EXT_DATASOURCE_URL>
https://www.surechembl.org/

> <PUBCHEM_EXT_SUBSTANCE_URL>
https://www.surechembl.org/chemical/SCHEMBL16116416

> <PUBCHEM_CID_ASSOCIATIONS>
117605963  1

> <PUBCHEM_COORDINATE_TYPE>
1
3

$$$$
