310945962
  -OEChem-07211613022D

 28 30  0     1  0  0  0  0  0999 V2000
    3.3151    1.1254    0.0000 F   0  0  0  0  0  0  0  0  0  0  0  0
    3.9027    0.5377    0.0000 F   0  0  0  0  0  0  0  0  0  0  0  0
    3.6921   -0.2716    0.0000 F   0  0  0  0  0  0  0  0  0  0  0  0
    0.2772    0.9147    0.0000 O   0  0  0  0  0  0  0  0  0  0  0  0
    1.7297   -2.4337    0.0000 N   0  0  0  0  0  0  0  0  0  0  0  0
    1.3194   -3.1544    0.0000 N   0  0  0  0  0  0  0  0  0  0  0  0
   -1.0201   -2.1565    0.0000 N   0  0  3  0  0  0  0  0  0  0  0  0
   -3.1821   -1.7352    0.0000 N   0  0  0  0  0  0  0  0  0  0  0  0
    1.3527   -0.9812    0.0000 C   0  0  0  0  0  0  0  0  0  0  0  0
    1.1641   -1.8017    0.0000 C   0  0  0  0  0  0  0  0  0  0  0  0
    2.3173    0.0832    0.0000 C   0  0  0  0  0  0  0  0  0  0  0  0
    0.4213   -2.1343    0.0000 C   0  0  0  0  0  0  0  0  0  0  0  0
    2.1399   -0.7263    0.0000 C   0  0  0  0  0  0  0  0  0  0  0  0
    3.1156    0.3381    0.0000 C   0  0  0  0  0  0  0  0  0  0  0  0
    0.9092    0.3825    0.0000 C   0  0  0  0  0  0  0  0  0  0  0  0
    0.7428   -0.4268    0.0000 C   0  0  0  0  0  0  0  0  0  0  0  0
    1.6964    0.6264    0.0000 C   0  0  0  0  0  0  0  0  0  0  0  0
    0.4989   -2.9548    0.0000 C   0  0  0  0  0  0  0  0  0  0  0  0
   -0.3105   -1.7241    0.0000 C   0  0  0  0  0  0  0  0  0  0  0  0
    0.4989    1.7352    0.0000 C   0  0  0  0  0  0  0  0  0  0  0  0
   -0.0887    2.3339    0.0000 C   0  0  0  0  0  0  0  0  0  0  0  0
   -1.7518   -1.7241    0.0000 C   0  0  0  0  0  0  0  0  0  0  0  0
   -0.9092    2.3339    0.0000 C   0  0  0  0  0  0  0  0  0  0  0  0
   -0.0887    3.1544    0.0000 C   0  0  0  0  0  0  0  0  0  0  0  0
   -0.9092    3.1544    0.0000 C   0  0  0  0  0  0  0  0  0  0  0  0
   -1.0089   -2.9880    0.0000 C   0  0  0  0  0  0  0  0  0  0  0  0
   -2.4614   -2.1343    0.0000 C   0  0  0  0  0  0  0  0  0  0  0  0
   -3.9027   -2.1454    0.0000 C   0  0  0  0  0  0  0  0  0  0  0  0
  1 14  1  0  0  0  0
  2 14  1  0  0  0  0
  3 14  1  0  0  0  0
  4 15  1  0  0  0  0
  4 20  1  0  0  0  0
  5  6  1  0  0  0  0
  5 10  2  0  0  0  0
  6 18  1  0  0  0  0
  7 19  1  0  0  0  0
  7 22  1  0  0  0  0
  7 26  1  0  0  0  0
  8 27  1  0  0  0  0
  8 28  1  0  0  0  0
  9 10  1  0  0  0  0
  9 13  1  0  0  0  0
  9 16  2  0  0  0  0
 10 12  1  0  0  0  0
 11 13  2  0  0  0  0
 11 14  1  0  0  0  0
 11 17  1  0  0  0  0
 12 18  2  0  0  0  0
 12 19  1  0  0  0  0
 15 16  1  0  0  0  0
 15 17  2  0  0  0  0
 20 21  1  0  0  0  0
 21 23  1  0  0  0  0
 21 24  1  0  0  0  0
 22 27  1  0  0  0  0
 23 25  1  0  0  0  0
 24 25  1  0  0  0  0
M  END
> <PUBCHEM_COMPOUND_ID_TYPE>
0

> <PUBCHEM_TOTAL_CHARGE>
0

> <PUBCHEM_SUBSTANCE_ID>
310945962

> <PUBCHEM_SUBSTANCE_VERSION>
1

> <PUBCHEM_EXT_DATASOURCE_NAME>
4488

> <PUBCHEM_EXT_DATASOURCE_REGID>
SCHEMBL16124067

> <PUBCHEM_SUBSTANCE_COMMENT>
InChI=1S/C20H27F3N4O/c1-24-6-7-27(2)12-16-11-25-26-19(16)15-8-17(20(21,22)23)10-18(9-15)28-13-14-4-3-5-14/h8-11,14,24H,3-7,12-13H2,1-2H3,(H,25,26)
InChIKey=JYBGYAHPWYZRCA-UHFFFAOYSA-N

> <PUBCHEM_SUBSTANCE_SYNONYM>
SCHEMBL16124067

> <PUBCHEM_XREF_EXT_ID>
SCHEMBL16124067

> <PUBCHEM_EXT_DATASOURCE_URL>
https://www.surechembl.org/

> <PUBCHEM_EXT_SUBSTANCE_URL>
https://www.surechembl.org/chemical/SCHEMBL16124067

> <PUBCHEM_CID_ASSOCIATIONS>
86300778  1

> <PUBCHEM_COORDINATE_TYPE>
1
3

$$$$
