310937444
  -OEChem-07211613022D

 21 24  0     1  0  0  0  0  0999 V2000
    1.6180   -4.3039    0.0000 O   0  0  0  0  0  0  0  0  0  0  0  0
    2.6536   -0.8737    0.0000 O   0  0  0  0  0  0  0  0  0  0  0  0
    3.2037   -2.4594    0.0000 N   0  0  0  0  0  0  0  0  0  0  0  0
    1.3915   -1.2620    0.0000 N   0  0  0  0  0  0  0  0  0  0  0  0
    2.9448   -3.8509    0.0000 C   0  0  0  0  0  0  0  0  0  0  0  0
    2.1682   -3.6891    0.0000 C   0  0  0  0  0  0  0  0  0  0  0  0
    2.4270   -2.2976    0.0000 C   0  0  0  0  0  0  0  0  0  0  0  0
    3.1714   -4.5952    0.0000 C   0  0  0  0  0  0  0  0  0  0  0  0
    2.1682   -1.5209    0.0000 C   0  0  0  0  0  0  0  0  0  0  0  0
    1.8769   -2.9124    0.0000 C   0  0  0  0  0  0  0  0  0  0  0  0
    3.4949   -3.2360    0.0000 C   0  0  0  0  0  0  0  0  0  0  0  0
    3.7862   -5.1453    0.0000 C   0  0  0  0  0  0  0  0  0  0  0  0
    3.0095   -5.4366    0.0000 C   0  0  0  0  0  0  0  0  0  0  0  0
    1.3915   -0.4854    0.0000 C   0  0  3  0  0  0  0  0  0  0  0  0
    2.1682   -0.2266    0.0000 C   0  0  0  0  0  0  0  0  0  0  0  0
    1.3591   -5.6631    0.0000 C   0  0  0  0  0  0  0  0  0  0  0  0
    1.9093   -5.0806    0.0000 C   0  0  0  0  0  0  0  0  0  0  0  0
    1.2297   -6.4721    0.0000 C   0  0  0  0  0  0  0  0  0  0  0  0
    0.5825   -5.9543    0.0000 C   0  0  0  0  0  0  0  0  0  0  0  0
    0.7443    0.0000    0.0000 C   0  0  0  0  0  0  0  0  0  0  0  0
    0.0000   -0.3559    0.0000 C   0  0  0  0  0  0  0  0  0  0  0  0
  1  6  1  0  0  0  0
  1 17  1  0  0  0  0
  2  9  1  0  0  0  0
  2 15  1  0  0  0  0
  3  7  1  0  0  0  0
  3 11  2  0  0  0  0
  4  9  2  0  0  0  0
  4 14  1  0  0  0  0
  5  6  2  0  0  0  0
  5  8  1  0  0  0  0
  5 11  1  0  0  0  0
  6 10  1  0  0  0  0
  7  9  1  0  0  0  0
  7 10  2  0  0  0  0
  8 12  1  0  0  0  0
  8 13  1  0  0  0  0
 12 13  1  0  0  0  0
 14 15  1  0  0  0  0
 14 20  1  0  0  0  0
 16 17  1  0  0  0  0
 16 18  1  0  0  0  0
 16 19  1  0  0  0  0
 18 19  1  0  0  0  0
 20 21  1  0  0  0  0
M  END
> <PUBCHEM_COMPOUND_ID_TYPE>
0

> <PUBCHEM_TOTAL_CHARGE>
0

> <PUBCHEM_SUBSTANCE_ID>
310937444

> <PUBCHEM_SUBSTANCE_VERSION>
1

> <PUBCHEM_EXT_DATASOURCE_NAME>
4488

> <PUBCHEM_EXT_DATASOURCE_REGID>
SCHEMBL16115210

> <PUBCHEM_SUBSTANCE_COMMENT>
InChI=1S/C17H22N2O2/c1-2-13-10-21-17(19-13)15-7-16(20-9-11-3-4-11)14(8-18-15)12-5-6-12/h7-8,11-13H,2-6,9-10H2,1H3
InChIKey=KENVCMHAFPIUMM-UHFFFAOYSA-N

> <PUBCHEM_SUBSTANCE_SYNONYM>
SCHEMBL16115210

> <PUBCHEM_XREF_EXT_ID>
SCHEMBL16115210

> <PUBCHEM_EXT_DATASOURCE_URL>
https://www.surechembl.org/

> <PUBCHEM_EXT_SUBSTANCE_URL>
https://www.surechembl.org/chemical/SCHEMBL16115210

> <PUBCHEM_CID_ASSOCIATIONS>
86275894  1

> <PUBCHEM_COORDINATE_TYPE>
1
3

$$$$
