310938996
  -OEChem-07211613022D

 29 33  0     1  0  0  0  0  0999 V2000
   -0.9367   10.0648    0.0000 S   0  0  0  0  0  0  0  0  0  0  0  0
   -0.5242   10.7793    0.0000 O   0  0  0  0  0  0  0  0  0  0  0  0
   -1.3492   10.7793    0.0000 O   0  0  0  0  0  0  0  0  0  0  0  0
   -0.4517    9.3974    0.0000 N   0  0  3  0  0  0  0  0  0  0  0  0
    1.7683    5.7548    0.0000 N   0  0  0  0  0  0  0  0  0  0  0  0
   -1.7213    9.8099    0.0000 C   0  0  0  0  0  0  0  0  0  0  0  0
   -1.7213    8.9849    0.0000 C   0  0  0  0  0  0  0  0  0  0  0  0
   -0.9367    8.7299    0.0000 C   0  0  0  0  0  0  0  0  0  0  0  0
    0.3733    9.3974    0.0000 C   0  0  0  0  0  0  0  0  0  0  0  0
   -2.4358   10.2224    0.0000 C   0  0  0  0  0  0  0  0  0  0  0  0
   -2.4358    8.5724    0.0000 C   0  0  0  0  0  0  0  0  0  0  0  0
    0.7858    8.6829    0.0000 C   0  0  0  0  0  0  0  0  0  0  0  0
    1.6108    7.2539    0.0000 C   0  0  0  0  0  0  0  0  0  0  0  0
    2.0233    6.5395    0.0000 C   0  0  0  0  0  0  0  0  0  0  0  0
   -3.1502    9.8099    0.0000 C   0  0  0  0  0  0  0  0  0  0  0  0
   -3.1502    8.9849    0.0000 C   0  0  0  0  0  0  0  0  0  0  0  0
    2.4358    5.2699    0.0000 C   0  0  0  0  0  0  0  0  0  0  0  0
    0.3733    7.9684    0.0000 C   0  0  0  0  0  0  0  0  0  0  0  0
    1.6108    8.6829    0.0000 C   0  0  0  0  0  0  0  0  0  0  0  0
    0.7858    7.2539    0.0000 C   0  0  0  0  0  0  0  0  0  0  0  0
    2.0233    7.9684    0.0000 C   0  0  0  0  0  0  0  0  0  0  0  0
    2.8483    6.5395    0.0000 C   0  0  0  0  0  0  0  0  0  0  0  0
    2.4358    4.4449    0.0000 C   0  0  0  0  0  0  0  0  0  0  0  0
    3.1032    5.7548    0.0000 C   0  0  0  0  0  0  0  0  0  0  0  0
    1.7213    4.0324    0.0000 C   0  0  0  0  0  0  0  0  0  0  0  0
    3.1502    4.0324    0.0000 C   0  0  0  0  0  0  0  0  0  0  0  0
    1.7213    3.2074    0.0000 C   0  0  0  0  0  0  0  0  0  0  0  0
    3.1502    3.2074    0.0000 C   0  0  0  0  0  0  0  0  0  0  0  0
    2.4358    2.7949    0.0000 C   0  0  0  0  0  0  0  0  0  0  0  0
  1  2  2  0  0  0  0
  1  3  2  0  0  0  0
  1  4  1  0  0  0  0
  1  6  1  0  0  0  0
  4  8  1  0  0  0  0
  4  9  1  0  0  0  0
  5 14  1  0  0  0  0
  5 17  2  0  0  0  0
  6  7  1  0  0  0  0
  6 10  2  0  0  0  0
  7  8  1  0  0  0  0
  7 11  2  0  0  0  0
  9 12  1  0  0  0  0
 10 15  1  0  0  0  0
 11 16  1  0  0  0  0
 12 18  2  0  0  0  0
 12 19  1  0  0  0  0
 13 14  1  0  0  0  0
 13 20  2  0  0  0  0
 13 21  1  0  0  0  0
 14 22  2  0  0  0  0
 15 16  2  0  0  0  0
 17 23  1  0  0  0  0
 17 24  1  0  0  0  0
 18 20  1  0  0  0  0
 19 21  2  0  0  0  0
 22 24  1  0  0  0  0
 23 25  2  0  0  0  0
 23 26  1  0  0  0  0
 25 27  1  0  0  0  0
 26 28  2  0  0  0  0
 27 29  2  0  0  0  0
 28 29  1  0  0  0  0
M  END
> <PUBCHEM_COMPOUND_ID_TYPE>
0

> <PUBCHEM_TOTAL_CHARGE>
0

> <PUBCHEM_SUBSTANCE_ID>
310938996

> <PUBCHEM_SUBSTANCE_VERSION>
1

> <PUBCHEM_EXT_DATASOURCE_NAME>
4488

> <PUBCHEM_EXT_DATASOURCE_REGID>
SCHEMBL16116915

> <PUBCHEM_SUBSTANCE_COMMENT>
InChI=1S/C24H20N2O2S/c27-29(28)24-9-5-4-8-21(24)17-26(29)16-18-10-12-20(13-11-18)23-15-14-22(25-23)19-6-2-1-3-7-19/h1-13,15H,14,16-17H2
InChIKey=ZSRPWIJOGFBWIW-UHFFFAOYSA-N

> <PUBCHEM_SUBSTANCE_SYNONYM>
SCHEMBL16116915

> <PUBCHEM_XREF_EXT_ID>
SCHEMBL16116915

> <PUBCHEM_EXT_DATASOURCE_URL>
https://www.surechembl.org/

> <PUBCHEM_EXT_SUBSTANCE_URL>
https://www.surechembl.org/chemical/SCHEMBL16116915

> <PUBCHEM_CID_ASSOCIATIONS>
117606380  1

> <PUBCHEM_COORDINATE_TYPE>
1
3

$$$$
