310946800
  -OEChem-07211613022D

 18 19  0     1  0  0  0  0  0999 V2000
   -1.8111  -11.0584    0.0000 N   0  0  0  0  0  0  0  0  0  0  0  0
   -2.3243   -8.5141    0.0000 N   0  0  0  0  0  0  0  0  0  0  0  0
   -1.5397   -8.2592    0.0000 N   0  0  0  0  0  0  0  0  0  0  0  0
   -1.3261  -11.7258    0.0000 N   0  0  0  0  0  0  0  0  0  0  0  0
    0.8874  -10.6459    0.0000 N   0  0  3  0  0  0  0  0  0  0  0  0
   -1.5397   -9.5941    0.0000 C   0  0  0  0  0  0  0  0  0  0  0  0
   -1.3261  -10.3909    0.0000 C   0  0  0  0  0  0  0  0  0  0  0  0
   -0.5415  -10.6459    0.0000 C   0  0  0  0  0  0  0  0  0  0  0  0
   -2.3243   -9.3391    0.0000 C   0  0  0  0  0  0  0  0  0  0  0  0
   -1.0547   -8.9266    0.0000 C   0  0  0  0  0  0  0  0  0  0  0  0
   -0.5415  -11.4709    0.0000 C   0  0  0  0  0  0  0  0  0  0  0  0
    0.1729  -10.2334    0.0000 C   0  0  0  0  0  0  0  0  0  0  0  0
   -3.0388   -9.7516    0.0000 C   0  0  0  0  0  0  0  0  0  0  0  0
   -0.2297   -8.9266    0.0000 C   0  0  0  0  0  0  0  0  0  0  0  0
    1.6019  -10.2334    0.0000 C   0  0  0  0  0  0  0  0  0  0  0  0
    0.8874  -11.4709    0.0000 C   0  0  0  0  0  0  0  0  0  0  0  0
    2.3164  -10.6459    0.0000 C   0  0  0  0  0  0  0  0  0  0  0  0
    3.0308  -10.2334    0.0000 C   0  0  0  0  0  0  0  0  0  0  0  0
  1  4  1  0  0  0  0
  1  7  2  0  0  0  0
  2  3  1  0  0  0  0
  2  9  2  0  0  0  0
  3 10  1  0  0  0  0
  4 11  1  0  0  0  0
  5 12  1  0  0  0  0
  5 15  1  0  0  0  0
  5 16  1  0  0  0  0
  6  7  1  0  0  0  0
  6  9  1  0  0  0  0
  6 10  2  0  0  0  0
  7  8  1  0  0  0  0
  8 11  2  0  0  0  0
  8 12  1  0  0  0  0
  9 13  1  0  0  0  0
 10 14  1  0  0  0  0
 15 17  1  0  0  0  0
 17 18  1  0  0  0  0
M  END
> <PUBCHEM_COMPOUND_ID_TYPE>
0

> <PUBCHEM_TOTAL_CHARGE>
0

> <PUBCHEM_SUBSTANCE_ID>
310946800

> <PUBCHEM_SUBSTANCE_VERSION>
1

> <PUBCHEM_EXT_DATASOURCE_NAME>
4488

> <PUBCHEM_EXT_DATASOURCE_REGID>
SCHEMBL16124924

> <PUBCHEM_SUBSTANCE_COMMENT>
InChI=1S/C13H21N5/c1-5-6-18(4)8-11-7-14-17-13(11)12-9(2)15-16-10(12)3/h7H,5-6,8H2,1-4H3,(H,14,17)(H,15,16)
InChIKey=QQMIBRBMAKGWMQ-UHFFFAOYSA-N

> <PUBCHEM_SUBSTANCE_SYNONYM>
SCHEMBL16124924

> <PUBCHEM_XREF_EXT_ID>
SCHEMBL16124924

> <PUBCHEM_EXT_DATASOURCE_URL>
https://www.surechembl.org/

> <PUBCHEM_EXT_SUBSTANCE_URL>
https://www.surechembl.org/chemical/SCHEMBL16124924

> <PUBCHEM_CID_ASSOCIATIONS>
117612661  1

> <PUBCHEM_COORDINATE_TYPE>
1
3

$$$$
