310942417
  -OEChem-07211613022D

 28 30  0     1  0  0  0  0  0999 V2000
    3.2472    2.0758    0.0000 F   0  0  0  0  0  0  0  0  0  0  0  0
    4.0556    1.9936    0.0000 F   0  0  0  0  0  0  0  0  0  0  0  0
   -3.0417   -0.1576    0.0000 O   0  0  0  0  0  0  0  0  0  0  0  0
   -2.6032   -1.5140    0.0000 O   0  0  0  0  0  0  0  0  0  0  0  0
   -0.3425   -0.4453    0.0000 N   0  0  0  0  0  0  0  0  0  0  0  0
    0.3974   -0.7741    0.0000 N   0  0  0  0  0  0  0  0  0  0  0  0
    2.3019    0.7467    0.0000 N   0  0  0  0  0  0  0  0  0  0  0  0
   -0.6028    0.3357    0.0000 C   0  0  0  0  0  0  0  0  0  0  0  0
   -1.6579   -0.4316    0.0000 C   0  0  0  0  0  0  0  0  0  0  0  0
   -0.9865   -0.9111    0.0000 C   0  0  0  0  0  0  0  0  0  0  0  0
   -1.4112    0.3494    0.0000 C   0  0  0  0  0  0  0  0  0  0  0  0
   -0.1233    1.0207    0.0000 C   0  0  3  0  0  0  0  0  0  0  0  0
   -2.4251   -0.6782    0.0000 C   0  0  0  0  0  0  0  0  0  0  0  0
   -0.9180   -1.7332    0.0000 C   0  0  0  0  0  0  0  0  0  0  0  0
    0.6851    0.9111    0.0000 C   0  0  0  0  0  0  0  0  0  0  0  0
   -1.8908    1.0207    0.0000 C   0  0  0  0  0  0  0  0  0  0  0  0
    0.4796   -1.5962    0.0000 C   0  0  0  0  0  0  0  0  0  0  0  0
   -0.1644   -2.0758    0.0000 C   0  0  0  0  0  0  0  0  0  0  0  0
   -0.4659    1.7743    0.0000 C   0  0  0  0  0  0  0  0  0  0  0  0
    1.1646    1.5962    0.0000 C   0  0  0  0  0  0  0  0  0  0  0  0
    1.0139    0.1850    0.0000 C   0  0  0  0  0  0  0  0  0  0  0  0
    1.9867    1.5003    0.0000 C   0  0  0  0  0  0  0  0  0  0  0  0
    1.8223    0.0891    0.0000 C   0  0  0  0  0  0  0  0  0  0  0  0
    3.1102    0.6782    0.0000 C   0  0  0  0  0  0  0  0  0  0  0  0
   -3.7679   -0.3905    0.0000 C   0  0  0  0  0  0  0  0  0  0  0  0
    3.5898    1.3633    0.0000 C   0  0  0  0  0  0  0  0  0  0  0  0
    4.4119    1.2537    0.0000 C   0  0  0  0  0  0  0  0  0  0  0  0
   -4.4119    0.1576    0.0000 C   0  0  0  0  0  0  0  0  0  0  0  0
  1 26  1  0  0  0  0
  2 26  1  0  0  0  0
  3 13  1  0  0  0  0
  3 25  1  0  0  0  0
  4 13  2  0  0  0  0
  5  6  1  0  0  0  0
  5  8  1  0  0  0  0
  5 10  1  0  0  0  0
  6 17  2  0  0  0  0
  7 22  1  0  0  0  0
  7 23  1  0  0  0  0
  7 24  1  0  0  0  0
  8 11  2  0  0  0  0
  8 12  1  0  0  0  0
  9 10  2  0  0  0  0
  9 11  1  0  0  0  0
  9 13  1  0  0  0  0
 10 14  1  0  0  0  0
 11 16  1  0  0  0  0
 12 15  1  0  0  0  0
 12 19  1  0  0  0  0
 14 18  2  0  0  0  0
 15 20  1  0  0  0  0
 15 21  1  0  0  0  0
 17 18  1  0  0  0  0
 20 22  1  0  0  0  0
 21 23  1  0  0  0  0
 24 26  1  0  0  0  0
 25 28  1  0  0  0  0
 26 27  1  0  0  0  0
M  END
> <PUBCHEM_COMPOUND_ID_TYPE>
0

> <PUBCHEM_TOTAL_CHARGE>
0

> <PUBCHEM_SUBSTANCE_ID>
310942417

> <PUBCHEM_SUBSTANCE_VERSION>
1

> <PUBCHEM_EXT_DATASOURCE_NAME>
4488

> <PUBCHEM_EXT_DATASOURCE_REGID>
SCHEMBL16120453

> <PUBCHEM_SUBSTANCE_COMMENT>
InChI=1S/C21H29F2N3O2/c1-5-28-20(27)18-15(3)19(26-17(18)7-6-10-24-26)14(2)16-8-11-25(12-9-16)13-21(4,22)23/h6-7,10,14,16H,5,8-9,11-13H2,1-4H3
InChIKey=WZOBJKSPIQLUJZ-UHFFFAOYSA-N

> <PUBCHEM_SUBSTANCE_SYNONYM>
SCHEMBL16120453

> <PUBCHEM_XREF_EXT_ID>
SCHEMBL16120453

> <PUBCHEM_EXT_DATASOURCE_URL>
https://www.surechembl.org/

> <PUBCHEM_EXT_SUBSTANCE_URL>
https://www.surechembl.org/chemical/SCHEMBL16120453

> <PUBCHEM_CID_ASSOCIATIONS>
117609017  1

> <PUBCHEM_COORDINATE_TYPE>
1
3

$$$$
