310944283
  -OEChem-07211613022D

 33 36  0     1  0  0  0  0  0999 V2000
   -3.9357   -0.1370    0.0000 Cl  0  0  0  0  0  0  0  0  0  0  0  0
   -0.8968   -0.1370    0.0000 O   0  0  0  0  0  0  0  0  0  0  0  0
    0.5355    2.3540    0.0000 O   0  0  0  0  0  0  0  0  0  0  0  0
    5.4552   -1.9430    0.0000 O   0  0  0  0  0  0  0  0  0  0  0  0
    2.7276    0.2740    0.0000 N   0  0  0  0  0  0  0  0  0  0  0  0
    4.2347   -1.2206    0.0000 N   0  0  0  0  0  0  0  0  0  0  0  0
    1.2829    1.1085    0.0000 N   0  0  0  0  0  0  0  0  0  0  0  0
   -0.8843    1.5195    0.0000 N   0  0  0  0  0  0  0  0  0  0  0  0
   -3.0390    1.1085    0.0000 C   0  0  0  0  0  0  0  0  0  0  0  0
    3.4500   -0.1245    0.0000 C   0  0  3  0  0  0  0  0  0  0  0  0
   -1.6067    1.1209    0.0000 C   0  0  0  0  0  0  0  0  0  0  0  0
   -3.0514    0.2865    0.0000 C   0  0  0  0  0  0  0  0  0  0  0  0
   -1.6191    0.2865    0.0000 C   0  0  0  0  0  0  0  0  0  0  0  0
   -2.3166    1.5195    0.0000 C   0  0  0  0  0  0  0  0  0  0  0  0
   -3.9607    1.5195    0.0000 C   0  0  0  0  0  0  0  0  0  0  0  0
    3.4376   -0.9590    0.0000 C   0  0  0  0  0  0  0  0  0  0  0  0
   -2.3291   -0.1245    0.0000 C   0  0  0  0  0  0  0  0  0  0  0  0
    4.2222    0.1245    0.0000 C   0  0  0  0  0  0  0  0  0  0  0  0
    0.5480    1.5070    0.0000 C   0  0  0  0  0  0  0  0  0  0  0  0
    2.7152    1.1085    0.0000 C   0  0  0  0  0  0  0  0  0  0  0  0
    2.0053   -0.1370    0.0000 C   0  0  0  0  0  0  0  0  0  0  0  0
    4.7080   -0.5604    0.0000 C   0  0  0  0  0  0  0  0  0  0  0  0
    1.9928    1.5195    0.0000 C   0  0  0  0  0  0  0  0  0  0  0  0
    1.2953    0.2740    0.0000 C   0  0  0  0  0  0  0  0  0  0  0  0
    4.6208   -1.9305    0.0000 C   0  0  0  0  0  0  0  0  0  0  0  0
   -0.1619    1.1085    0.0000 C   0  0  0  0  0  0  0  0  0  0  0  0
   -4.0354    2.3166    0.0000 C   0  0  0  0  0  0  0  0  0  0  0  0
   -4.6083    1.0213    0.0000 C   0  0  0  0  0  0  0  0  0  0  0  0
   -4.7827    2.6529    0.0000 C   0  0  0  0  0  0  0  0  0  0  0  0
   -5.3681    1.3700    0.0000 C   0  0  0  0  0  0  0  0  0  0  0  0
    4.2222   -2.6529    0.0000 C   0  0  0  0  0  0  0  0  0  0  0  0
   -5.4552    2.1921    0.0000 C   0  0  0  0  0  0  0  0  0  0  0  0
    3.4002   -2.6155    0.0000 C   0  0  0  0  0  0  0  0  0  0  0  0
  1 12  1  0  0  0  0
  2 13  1  0  0  0  0
  3 19  2  0  0  0  0
  4 25  2  0  0  0  0
  5 10  1  0  0  0  0
  5 20  1  0  0  0  0
  5 21  1  0  0  0  0
  6 16  1  0  0  0  0
  6 22  1  0  0  0  0
  6 25  1  0  0  0  0
  7 19  1  0  0  0  0
  7 23  1  0  0  0  0
  7 24  1  0  0  0  0
  8 11  1  0  0  0  0
  8 26  1  0  0  0  0
  9 12  2  0  0  0  0
  9 14  1  0  0  0  0
  9 15  1  0  0  0  0
 10 16  1  0  0  0  0
 10 18  1  0  0  0  0
 11 13  1  0  0  0  0
 11 14  2  0  0  0  0
 12 17  1  0  0  0  0
 13 17  2  0  0  0  0
 15 27  2  0  0  0  0
 15 28  1  0  0  0  0
 18 22  1  0  0  0  0
 19 26  1  0  0  0  0
 20 23  1  0  0  0  0
 21 24  1  0  0  0  0
 25 31  1  0  0  0  0
 27 29  1  0  0  0  0
 28 30  2  0  0  0  0
 29 32  2  0  0  0  0
 30 32  1  0  0  0  0
 31 33  2  0  0  0  0
M  END
> <PUBCHEM_COMPOUND_ID_TYPE>
0

> <PUBCHEM_TOTAL_CHARGE>
0

> <PUBCHEM_SUBSTANCE_ID>
310944283

> <PUBCHEM_SUBSTANCE_VERSION>
1

> <PUBCHEM_EXT_DATASOURCE_NAME>
4488

> <PUBCHEM_EXT_DATASOURCE_REGID>
SCHEMBL16122358

> <PUBCHEM_SUBSTANCE_COMMENT>
InChI=1S/C25H29ClN4O3/c1-2-24(32)30-9-8-19(17-30)28-10-12-29(13-11-28)25(33)16-27-22-14-20(21(26)15-23(22)31)18-6-4-3-5-7-18/h2-7,14-15,19,27,31H,1,8-13,16-17H2
InChIKey=WGUFIBBXTSJDKH-UHFFFAOYSA-N

> <PUBCHEM_SUBSTANCE_SYNONYM>
SCHEMBL16122358

> <PUBCHEM_XREF_EXT_ID>
SCHEMBL16122358

> <PUBCHEM_EXT_DATASOURCE_URL>
https://www.surechembl.org/

> <PUBCHEM_EXT_SUBSTANCE_URL>
https://www.surechembl.org/chemical/SCHEMBL16122358

> <PUBCHEM_CID_ASSOCIATIONS>
117610550  1

> <PUBCHEM_COORDINATE_TYPE>
1
3

$$$$
