310940235
  -OEChem-07211613022D

 20 20  0     1  0  0  0  0  0999 V2000
   -0.5865   -1.9559    0.0000 O   0  0  0  0  0  0  0  0  0  0  0  0
   -2.7900   -3.9079    0.0000 O   0  0  0  0  0  0  0  0  0  0  0  0
   -1.3611   -3.9079    0.0000 O   0  0  0  0  0  0  0  0  0  0  0  0
   -0.7779   -2.6704    0.0000 O   0  0  0  0  0  0  0  0  0  0  0  0
    1.8885   -3.3848    0.0000 O   0  0  0  0  0  0  0  0  0  0  0  0
   -2.2069   -2.6704    0.0000 O   0  0  0  0  0  0  0  0  0  0  0  0
   -2.0755   -2.6704    0.0000 C   0  0  0  0  0  0  0  0  0  0  0  0
    0.6510   -2.6704    0.0000 C   0  0  3  0  0  0  0  0  0  0  0  0
   -1.6630   -1.9559    0.0000 C   0  0  0  0  0  0  0  0  0  0  0  0
   -2.7900   -3.0829    0.0000 C   0  0  0  0  0  0  0  0  0  0  0  0
   -1.3611   -3.0829    0.0000 C   0  0  0  0  0  0  0  0  0  0  0  0
    0.2385   -1.9559    0.0000 C   0  0  0  0  0  0  0  0  0  0  0  0
   -2.6040   -1.8012    0.0000 C   0  0  0  0  0  0  0  0  0  0  0  0
   -0.0635   -3.0829    0.0000 C   0  0  0  0  0  0  0  0  0  0  0  0
    1.0635   -3.3848    0.0000 C   0  0  0  0  0  0  0  0  0  0  0  0
    1.3655   -2.2579    0.0000 C   0  0  0  0  0  0  0  0  0  0  0  0
   -2.0755   -4.3204    0.0000 C   0  0  0  0  0  0  0  0  0  0  0  0
   -3.4288   -1.8200    0.0000 C   0  0  0  0  0  0  0  0  0  0  0  0
    2.0799   -2.6704    0.0000 C   0  0  0  0  0  0  0  0  0  0  0  0
   -1.4924   -3.0829    0.0000 C   0  0  0  0  0  0  0  0  0  0  0  0
  1  9  1  0  0  0  0
  1 12  1  0  0  0  0
  2 10  1  0  0  0  0
  2 17  1  0  0  0  0
  3 11  1  0  0  0  0
  3 17  1  0  0  0  0
  4 14  1  0  0  0  0
  4 20  1  0  0  0  0
  5 15  1  0  0  0  0
  6 20  1  0  0  0  0
  7  9  1  0  0  0  0
  7 10  1  0  0  0  0
  7 11  1  0  0  0  0
  7 13  1  0  0  0  0
  8 12  1  0  0  0  0
  8 14  1  0  0  0  0
  8 15  1  0  0  0  0
  8 16  1  0  0  0  0
 13 18  1  0  0  0  0
 16 19  1  0  0  0  0
M  END
> <PUBCHEM_COMPOUND_ID_TYPE>
0

> <PUBCHEM_TOTAL_CHARGE>
0

> <PUBCHEM_SUBSTANCE_ID>
310940235

> <PUBCHEM_SUBSTANCE_VERSION>
1

> <PUBCHEM_EXT_DATASOURCE_NAME>
4488

> <PUBCHEM_EXT_DATASOURCE_REGID>
SCHEMBL16118169

> <PUBCHEM_SUBSTANCE_COMMENT>
InChI=1S/C14H28O6/c1-3-13(5-15,7-18-11-16)6-17-8-14(4-2)9-19-12-20-10-14/h15-16H,3-12H2,1-2H3
InChIKey=QAQXAPQYGUEHRO-UHFFFAOYSA-N

> <PUBCHEM_SUBSTANCE_SYNONYM>
SCHEMBL16118169

> <PUBCHEM_XREF_EXT_ID>
SCHEMBL16118169

> <PUBCHEM_EXT_DATASOURCE_URL>
https://www.surechembl.org/

> <PUBCHEM_EXT_SUBSTANCE_URL>
https://www.surechembl.org/chemical/SCHEMBL16118169

> <PUBCHEM_CID_ASSOCIATIONS>
117607327  1

> <PUBCHEM_COORDINATE_TYPE>
1
3

$$$$
