310940917
  -OEChem-07211613022D

 10 10  0     1  0  0  0  0  0999 V2000
    1.3902   -0.4817    0.0000 I   0  0  0  0  0  0  0  0  0  0  0  0
    0.7432   -1.6516    0.0000 O   0  0  0  0  0  0  0  0  0  0  0  0
   -0.6882    0.8258    0.0000 N   0  0  3  0  0  0  0  0  0  0  0  0
    0.0275   -0.3854    0.0000 C   0  0  3  0  0  0  0  0  0  0  0  0
    0.7570   -0.7708    0.0000 C   0  0  0  0  0  0  0  0  0  0  0  0
    0.0413    0.4267    0.0000 C   0  0  0  0  0  0  0  0  0  0  0  0
   -0.6606   -0.7845    0.0000 C   0  0  0  0  0  0  0  0  0  0  0  0
   -1.3764    0.4542    0.0000 C   0  0  0  0  0  0  0  0  0  0  0  0
   -1.3902   -0.3854    0.0000 C   0  0  0  0  0  0  0  0  0  0  0  0
   -0.6744    1.6516    0.0000 C   0  0  0  0  0  0  0  0  0  0  0  0
  1  5  1  0  0  0  0
  2  5  2  0  0  0  0
  3  6  1  0  0  0  0
  3  8  1  0  0  0  0
  3 10  1  0  0  0  0
  4  5  1  0  0  0  0
  4  6  1  0  0  0  0
  4  7  1  0  0  0  0
  7  9  1  0  0  0  0
  8  9  1  0  0  0  0
M  END
> <PUBCHEM_COMPOUND_ID_TYPE>
0

> <PUBCHEM_TOTAL_CHARGE>
0

> <PUBCHEM_SUBSTANCE_ID>
310940917

> <PUBCHEM_SUBSTANCE_VERSION>
1

> <PUBCHEM_EXT_DATASOURCE_NAME>
4488

> <PUBCHEM_EXT_DATASOURCE_REGID>
SCHEMBL16118876

> <PUBCHEM_SUBSTANCE_COMMENT>
InChI=1S/C7H12INO/c1-9-4-2-3-6(5-9)7(8)10/h6H,2-5H2,1H3
InChIKey=QKOMOVPRIQDGFJ-UHFFFAOYSA-N

> <PUBCHEM_SUBSTANCE_SYNONYM>
SCHEMBL16118876

> <PUBCHEM_XREF_EXT_ID>
SCHEMBL16118876

> <PUBCHEM_EXT_DATASOURCE_URL>
https://www.surechembl.org/

> <PUBCHEM_EXT_SUBSTANCE_URL>
https://www.surechembl.org/chemical/SCHEMBL16118876

> <PUBCHEM_CID_ASSOCIATIONS>
117607826  1

> <PUBCHEM_COORDINATE_TYPE>
1
3

$$$$
