310947964
  -OEChem-07211613022D

 13 12  0     1  0  0  0  0  0999 V2000
   -1.5519   -1.0893    0.0000 O   0  0  0  0  0  0  0  0  0  0  0  0
   -2.2664    0.9732    0.0000 O   0  0  0  0  0  0  0  0  0  0  0  0
   -0.8374    0.9732    0.0000 O   0  0  0  0  0  0  0  0  0  0  0  0
   -0.1229   -0.2643    0.0000 N   0  0  0  0  0  0  0  0  0  0  0  0
   -1.5519   -0.2643    0.0000 C   0  0  3  0  0  0  0  0  0  0  0  0
   -2.2664    0.1482    0.0000 C   0  0  3  0  0  0  0  0  0  0  0  0
   -0.8374    0.1482    0.0000 C   0  0  0  0  0  0  0  0  0  0  0  0
   -2.9808   -0.2643    0.0000 C   0  0  0  0  0  0  0  0  0  0  0  0
    0.5915    0.1482    0.0000 C   0  0  0  0  0  0  0  0  0  0  0  0
   -3.3933    0.4502    0.0000 C   0  0  0  0  0  0  0  0  0  0  0  0
   -2.5683   -0.9787    0.0000 C   0  0  0  0  0  0  0  0  0  0  0  0
    1.3060   -0.2643    0.0000 C   0  0  0  0  0  0  0  0  0  0  0  0
    2.0205    0.1482    0.0000 C   0  0  0  0  0  0  0  0  0  0  0  0
  1  5  1  0  0  0  0
  2  6  1  0  0  0  0
  3  7  2  0  0  0  0
  4  7  1  0  0  0  0
  4  9  1  0  0  0  0
  5  6  1  0  0  0  0
  5  7  1  0  0  0  0
  6  8  1  0  0  0  0
  8 10  1  0  0  0  0
  8 11  1  0  0  0  0
  9 12  1  0  0  0  0
 12 13  1  0  0  0  0
M  END
> <PUBCHEM_COMPOUND_ID_TYPE>
0

> <PUBCHEM_TOTAL_CHARGE>
0

> <PUBCHEM_SUBSTANCE_ID>
310947964

> <PUBCHEM_SUBSTANCE_VERSION>
1

> <PUBCHEM_EXT_DATASOURCE_NAME>
4488

> <PUBCHEM_EXT_DATASOURCE_REGID>
SCHEMBL16126138

> <PUBCHEM_SUBSTANCE_COMMENT>
InChI=1S/C9H19NO3/c1-4-5-10-9(13)8(12)7(11)6(2)3/h6-8,11-12H,4-5H2,1-3H3,(H,10,13)
InChIKey=GRPAJGJJMWEBKN-UHFFFAOYSA-N

> <PUBCHEM_SUBSTANCE_SYNONYM>
SCHEMBL16126138

> <PUBCHEM_XREF_EXT_ID>
SCHEMBL16126138

> <PUBCHEM_EXT_DATASOURCE_URL>
https://www.surechembl.org/

> <PUBCHEM_EXT_SUBSTANCE_URL>
https://www.surechembl.org/chemical/SCHEMBL16126138

> <PUBCHEM_CID_ASSOCIATIONS>
117613614  1

> <PUBCHEM_COORDINATE_TYPE>
1
3

> <PUBCHEM_BONDANNOTATIONS>
8  10  3
8  11  3

$$$$
