310946063
  -OEChem-07211613022D

 37 40  0     1  0  0  0  0  0999 V2000
    3.6562    1.3892    0.0000 O   0  0  0  0  0  0  0  0  0  0  0  0
    1.3892    1.3892    0.0000 O   0  0  0  0  0  0  0  0  0  0  0  0
   -0.0484    1.3892    0.0000 O   0  0  0  0  0  0  0  0  0  0  0  0
    0.6704    0.9883    0.0000 O   0  0  0  0  0  0  0  0  0  0  0  0
   -2.2048    0.1589    0.0000 O   0  0  0  0  0  0  0  0  0  0  0  0
   -2.9236   -2.7300    0.0000 O   0  0  0  0  0  0  0  0  0  0  0  0
    1.3892   -0.2419    0.0000 N   0  0  0  0  0  0  0  0  0  0  0  0
   -0.7671    0.1589    0.0000 N   0  0  0  0  0  0  0  0  0  0  0  0
   -2.3153    1.4860    0.0000 N   0  0  0  0  0  0  0  0  0  0  0  0
    2.8268    1.4307    0.0000 C   0  0  3  0  0  0  0  0  0  0  0  0
    2.1218    1.0022    0.0000 C   0  0  0  0  0  0  0  0  0  0  0  0
    3.2553    0.7257    0.0000 C   0  0  0  0  0  0  0  0  0  0  0  0
    2.0942    0.1866    0.0000 C   0  0  3  0  0  0  0  0  0  0  0  0
   -1.4722    1.4169    0.0000 C   0  0  3  0  0  0  0  0  0  0  0  0
   -0.7810    1.0022    0.0000 C   0  0  0  0  0  0  0  0  0  0  0  0
    2.8406    2.2601    0.0000 C   0  0  0  0  0  0  0  0  0  0  0  0
   -0.0346   -0.2281    0.0000 C   0  0  3  0  0  0  0  0  0  0  0  0
    0.6704    0.1589    0.0000 C   0  0  0  0  0  0  0  0  0  0  0  0
    2.8268   -0.2281    0.0000 C   0  0  0  0  0  0  0  0  0  0  0  0
   -1.1543    2.1772    0.0000 C   0  0  0  0  0  0  0  0  0  0  0  0
   -1.4860    0.6013    0.0000 C   0  0  0  0  0  0  0  0  0  0  0  0
    2.8268   -1.0575    0.0000 C   0  0  0  0  0  0  0  0  0  0  0  0
   -0.0484   -1.0575    0.0000 C   0  0  0  0  0  0  0  0  0  0  0  0
   -2.4674    2.3153    0.0000 C   0  0  0  0  0  0  0  0  0  0  0  0
   -1.7763    2.7300    0.0000 C   0  0  0  0  0  0  0  0  0  0  0  0
   -0.7671   -1.4584    0.0000 C   0  0  0  0  0  0  0  0  0  0  0  0
    3.5456   -1.4722    0.0000 C   0  0  0  0  0  0  0  0  0  0  0  0
    2.1218   -1.4722    0.0000 C   0  0  0  0  0  0  0  0  0  0  0  0
   -1.4998   -1.0713    0.0000 C   0  0  0  0  0  0  0  0  0  0  0  0
   -0.7671   -2.2878    0.0000 C   0  0  0  0  0  0  0  0  0  0  0  0
   -2.2186   -2.2878    0.0000 C   0  0  0  0  0  0  0  0  0  0  0  0
   -2.1910   -1.4584    0.0000 C   0  0  0  0  0  0  0  0  0  0  0  0
   -1.4722   -2.7025    0.0000 C   0  0  0  0  0  0  0  0  0  0  0  0
    3.5456   -2.2878    0.0000 C   0  0  0  0  0  0  0  0  0  0  0  0
    2.1218   -2.2878    0.0000 C   0  0  0  0  0  0  0  0  0  0  0  0
    2.8406   -2.7025    0.0000 C   0  0  0  0  0  0  0  0  0  0  0  0
   -3.6562   -2.3015    0.0000 C   0  0  0  0  0  0  0  0  0  0  0  0
  1 10  1  0  0  0  0
  1 12  1  0  0  0  0
  2 11  2  0  0  0  0
  3 15  2  0  0  0  0
  4 18  2  0  0  0  0
  5 21  1  0  0  0  0
  6 31  1  0  0  0  0
  6 37  1  0  0  0  0
  7 13  1  0  0  0  0
  7 18  1  0  0  0  0
  8 15  1  0  0  0  0
  8 17  1  0  0  0  0
  9 14  1  0  0  0  0
  9 24  1  0  0  0  0
 10 11  1  0  0  0  0
 10 12  1  0  0  0  0
 10 16  1  0  0  0  0
 11 13  1  0  0  0  0
 13 19  1  0  0  0  0
 14 15  1  0  0  0  0
 14 20  1  0  0  0  0
 14 21  1  0  0  0  0
 17 18  1  0  0  0  0
 17 23  1  0  0  0  0
 19 22  1  0  0  0  0
 20 25  1  0  0  0  0
 22 27  2  0  0  0  0
 22 28  1  0  0  0  0
 23 26  1  0  0  0  0
 24 25  1  0  0  0  0
 26 29  2  0  0  0  0
 26 30  1  0  0  0  0
 27 34  1  0  0  0  0
 28 35  2  0  0  0  0
 29 32  1  0  0  0  0
 30 33  2  0  0  0  0
 31 32  2  0  0  0  0
 31 33  1  0  0  0  0
 34 36  2  0  0  0  0
 35 36  1  0  0  0  0
M  END
> <PUBCHEM_COMPOUND_ID_TYPE>
0

> <PUBCHEM_TOTAL_CHARGE>
0

> <PUBCHEM_SUBSTANCE_ID>
310946063

> <PUBCHEM_SUBSTANCE_VERSION>
1

> <PUBCHEM_EXT_DATASOURCE_NAME>
4488

> <PUBCHEM_EXT_DATASOURCE_REGID>
SCHEMBL16124169

> <PUBCHEM_SUBSTANCE_COMMENT>
InChI=1S/C28H35N3O6/c1-27(18-37-27)24(33)22(15-19-7-4-3-5-8-19)30-25(34)23(16-20-9-11-21(36-2)12-10-20)31-26(35)28(17-32)13-6-14-29-28/h3-5,7-12,22-23,29,32H,6,13-18H2,1-2H3,(H,30,34)(H,31,35)
InChIKey=XEIJPGARXIZOBO-UHFFFAOYSA-N

> <PUBCHEM_SUBSTANCE_SYNONYM>
SCHEMBL16124169

> <PUBCHEM_XREF_EXT_ID>
SCHEMBL16124169

> <PUBCHEM_EXT_DATASOURCE_URL>
https://www.surechembl.org/

> <PUBCHEM_EXT_SUBSTANCE_URL>
https://www.surechembl.org/chemical/SCHEMBL16124169

> <PUBCHEM_CID_ASSOCIATIONS>
117612034  1

> <PUBCHEM_COORDINATE_TYPE>
1
3

$$$$
