310941253
  -OEChem-07211613022D

 43 47  0     1  0  0  0  0  0999 V2000
    5.0781   -1.1362    0.0000 O   0  0  0  0  0  0  0  0  0  0  0  0
    3.9420    0.8313    0.0000 O   0  0  0  0  0  0  0  0  0  0  0  0
    2.6812    3.3116    0.0000 O   0  0  0  0  0  0  0  0  0  0  0  0
    3.8450    2.6465    0.0000 O   0  0  0  0  0  0  0  0  0  0  0  0
    1.7944   -1.2470    0.0000 O   0  0  0  0  0  0  0  0  0  0  0  0
   -0.3672    0.8313    0.0000 O   0  0  0  0  0  0  0  0  0  0  0  0
   -2.5287   -1.2470    0.0000 O   0  0  0  0  0  0  0  0  0  0  0  0
   -5.3969   -1.2470    0.0000 O   0  0  0  0  0  0  0  0  0  0  0  0
    2.5148    0.0139    0.0000 N   0  0  0  0  0  0  0  0  0  0  0  0
    0.3534   -0.4018    0.0000 N   0  0  0  0  0  0  0  0  0  0  0  0
   -1.7944    0.0139    0.0000 N   0  0  0  0  0  0  0  0  0  0  0  0
   -3.9559   -0.4018    0.0000 N   0  0  0  0  0  0  0  0  0  0  0  0
    4.6625   -0.4157    0.0000 C   0  0  3  0  0  0  0  0  0  0  0  0
    3.9420    0.0000    0.0000 C   0  0  0  0  0  0  0  0  0  0  0  0
    4.2745   -1.1223    0.0000 C   0  0  0  0  0  0  0  0  0  0  0  0
    3.2353   -0.4018    0.0000 C   0  0  3  0  0  0  0  0  0  0  0  0
    5.3969    0.0139    0.0000 C   0  0  0  0  0  0  0  0  0  0  0  0
    3.2215   -1.7458    0.0000 C   0  0  0  0  0  0  0  0  0  0  0  0
    1.7944   -0.3741    0.0000 C   0  0  0  0  0  0  0  0  0  0  0  0
    1.0600    0.0139    0.0000 C   0  0  3  0  0  0  0  0  0  0  0  0
    1.7944    1.2609    0.0000 C   0  0  0  0  0  0  0  0  0  0  0  0
    2.5148    2.5079    0.0000 C   0  0  0  0  0  0  0  0  0  0  0  0
    3.2353    2.0922    0.0000 C   0  0  0  0  0  0  0  0  0  0  0  0
    2.5148   -2.1476    0.0000 C   0  0  0  0  0  0  0  0  0  0  0  0
    1.0877    0.8452    0.0000 C   0  0  0  0  0  0  0  0  0  0  0  0
    1.7944    2.0922    0.0000 C   0  0  0  0  0  0  0  0  0  0  0  0
    2.5010    0.8591    0.0000 C   0  0  0  0  0  0  0  0  0  0  0  0
    3.2215    1.2609    0.0000 C   0  0  0  0  0  0  0  0  0  0  0  0
   -0.3811   -0.0139    0.0000 C   0  0  0  0  0  0  0  0  0  0  0  0
    3.5263    3.3947    0.0000 C   0  0  0  0  0  0  0  0  0  0  0  0
    1.7944   -1.7597    0.0000 C   0  0  0  0  0  0  0  0  0  0  0  0
    2.5010   -2.9790    0.0000 C   0  0  0  0  0  0  0  0  0  0  0  0
   -1.0738   -0.4018    0.0000 C   0  0  3  0  0  0  0  0  0  0  0  0
    1.0877   -2.1615    0.0000 C   0  0  0  0  0  0  0  0  0  0  0  0
    1.8082   -3.3947    0.0000 C   0  0  0  0  0  0  0  0  0  0  0  0
   -2.5148   -0.3741    0.0000 C   0  0  0  0  0  0  0  0  0  0  0  0
    1.0877   -2.9790    0.0000 C   0  0  0  0  0  0  0  0  0  0  0  0
   -1.0738   -1.2470    0.0000 C   0  0  0  0  0  0  0  0  0  0  0  0
   -3.2492    0.0000    0.0000 C   0  0  0  0  0  0  0  0  0  0  0  0
   -3.9559   -1.2470    0.0000 C   0  0  0  0  0  0  0  0  0  0  0  0
   -4.6763    0.0000    0.0000 C   0  0  0  0  0  0  0  0  0  0  0  0
   -4.6625   -1.6488    0.0000 C   0  0  0  0  0  0  0  0  0  0  0  0
   -5.3692   -0.3879    0.0000 C   0  0  0  0  0  0  0  0  0  0  0  0
  1 13  1  0  0  0  0
  1 15  1  0  0  0  0
  2 14  2  0  0  0  0
  3 22  1  0  0  0  0
  3 30  1  0  0  0  0
  4 23  1  0  0  0  0
  4 30  1  0  0  0  0
  5 19  2  0  0  0  0
  6 29  2  0  0  0  0
  7 36  2  0  0  0  0
  8 42  1  0  0  0  0
  8 43  1  0  0  0  0
  9 16  1  0  0  0  0
  9 19  1  0  0  0  0
 10 20  1  0  0  0  0
 10 29  1  0  0  0  0
 11 33  1  0  0  0  0
 11 36  1  0  0  0  0
 12 39  1  0  0  0  0
 12 40  1  0  0  0  0
 12 41  1  0  0  0  0
 13 14  1  0  0  0  0
 13 15  1  0  0  0  0
 13 17  1  0  0  0  0
 14 16  1  0  0  0  0
 16 18  1  0  0  0  0
 18 24  1  0  0  0  0
 19 20  1  0  0  0  0
 20 25  1  0  0  0  0
 21 25  1  0  0  0  0
 21 26  1  0  0  0  0
 21 27  2  0  0  0  0
 22 23  1  0  0  0  0
 22 26  2  0  0  0  0
 23 28  2  0  0  0  0
 24 31  2  0  0  0  0
 24 32  1  0  0  0  0
 27 28  1  0  0  0  0
 29 33  1  0  0  0  0
 31 34  1  0  0  0  0
 32 35  2  0  0  0  0
 33 38  1  0  0  0  0
 34 37  2  0  0  0  0
 35 37  1  0  0  0  0
 36 39  1  0  0  0  0
 40 42  1  0  0  0  0
 41 43  1  0  0  0  0
M  END
> <PUBCHEM_COMPOUND_ID_TYPE>
0

> <PUBCHEM_TOTAL_CHARGE>
0

> <PUBCHEM_SUBSTANCE_ID>
310941253

> <PUBCHEM_SUBSTANCE_VERSION>
1

> <PUBCHEM_EXT_DATASOURCE_NAME>
4488

> <PUBCHEM_EXT_DATASOURCE_REGID>
SCHEMBL16119213

> <PUBCHEM_SUBSTANCE_COMMENT>
InChI=1S/C31H38N4O8/c1-20(32-27(36)17-35-10-12-40-13-11-35)29(38)34-24(15-22-8-9-25-26(16-22)42-19-41-25)30(39)33-23(28(37)31(2)18-43-31)14-21-6-4-3-5-7-21/h3-9,16,20,23-24H,10-15,17-19H2,1-2H3,(H,32,36)(H,33,39)(H,34,38)
InChIKey=MXUBOAWVMTXPFF-UHFFFAOYSA-N

> <PUBCHEM_SUBSTANCE_SYNONYM>
SCHEMBL16119213

> <PUBCHEM_XREF_EXT_ID>
SCHEMBL16119213

> <PUBCHEM_EXT_DATASOURCE_URL>
https://www.surechembl.org/

> <PUBCHEM_EXT_SUBSTANCE_URL>
https://www.surechembl.org/chemical/SCHEMBL16119213

> <PUBCHEM_CID_ASSOCIATIONS>
117608112  1

> <PUBCHEM_COORDINATE_TYPE>
1
3

$$$$
