310936739
  -OEChem-07211613022D

 23 25  0     1  0  0  0  0  0999 V2000
    2.9250   -3.7500    0.0000 O   0  0  0  0  0  0  0  0  0  0  0  0
    3.6376   -0.8250    0.0000 O   0  0  0  0  0  0  0  0  0  0  0  0
    1.4625   -1.2375    0.0000 N   0  0  0  0  0  0  0  0  0  0  0  0
    0.0000   -2.9250    0.0000 N   0  0  0  0  0  0  0  0  0  0  0  0
    1.4625   -3.7500    0.0000 C   0  0  3  0  0  0  0  0  0  0  0  0
    1.4625   -4.5750    0.0000 C   0  0  0  0  0  0  0  0  0  0  0  0
    2.1750   -3.3375    0.0000 C   0  0  3  0  0  0  0  0  0  0  0  0
    2.1750   -2.5125    0.0000 C   0  0  0  0  0  0  0  0  0  0  0  0
    0.7500   -5.8126    0.0000 C   0  0  0  0  0  0  0  0  0  0  0  0
    1.4625   -6.2251    0.0000 C   0  0  0  0  0  0  0  0  0  0  0  0
    0.7500   -5.0251    0.0000 C   0  0  0  0  0  0  0  0  0  0  0  0
    2.1750   -4.9875    0.0000 C   0  0  0  0  0  0  0  0  0  0  0  0
    2.8875   -2.0625    0.0000 C   0  0  0  0  0  0  0  0  0  0  0  0
    2.1750   -5.8501    0.0000 C   0  0  0  0  0  0  0  0  0  0  0  0
    1.4625   -2.0625    0.0000 C   0  0  0  0  0  0  0  0  0  0  0  0
    2.8875   -1.2375    0.0000 C   0  0  0  0  0  0  0  0  0  0  0  0
    0.7500   -3.3375    0.0000 C   0  0  0  0  0  0  0  0  0  0  0  0
    0.0375   -6.2251    0.0000 C   0  0  0  0  0  0  0  0  0  0  0  0
    1.4625   -7.0501    0.0000 C   0  0  0  0  0  0  0  0  0  0  0  0
    2.1750   -0.7875    0.0000 C   0  0  0  0  0  0  0  0  0  0  0  0
    0.0375   -7.0876    0.0000 C   0  0  0  0  0  0  0  0  0  0  0  0
    0.7500   -7.5001    0.0000 C   0  0  0  0  0  0  0  0  0  0  0  0
    3.6376    0.0000    0.0000 C   0  0  0  0  0  0  0  0  0  0  0  0
  1  7  1  0  0  0  0
  2 16  1  0  0  0  0
  2 23  1  0  0  0  0
  3 15  1  0  0  0  0
  3 20  2  0  0  0  0
  4 17  3  0  0  0  0
  5  6  1  0  0  0  0
  5  7  1  0  0  0  0
  5 17  1  0  0  0  0
  6 11  2  0  0  0  0
  6 12  1  0  0  0  0
  7  8  1  0  0  0  0
  8 13  1  0  0  0  0
  8 15  2  0  0  0  0
  9 10  2  0  0  0  0
  9 11  1  0  0  0  0
  9 18  1  0  0  0  0
 10 14  1  0  0  0  0
 10 19  1  0  0  0  0
 12 14  2  0  0  0  0
 13 16  2  0  0  0  0
 16 20  1  0  0  0  0
 18 21  2  0  0  0  0
 19 22  2  0  0  0  0
 21 22  1  0  0  0  0
M  END
> <PUBCHEM_COMPOUND_ID_TYPE>
0

> <PUBCHEM_TOTAL_CHARGE>
0

> <PUBCHEM_SUBSTANCE_ID>
310936739

> <PUBCHEM_SUBSTANCE_VERSION>
1

> <PUBCHEM_EXT_DATASOURCE_NAME>
4488

> <PUBCHEM_EXT_DATASOURCE_REGID>
SCHEMBL16114421

> <PUBCHEM_SUBSTANCE_COMMENT>
InChI=1S/C19H16N2O2/c1-23-17-9-16(11-21-12-17)19(22)18(10-20)15-7-6-13-4-2-3-5-14(13)8-15/h2-9,11-12,18-19,22H,1H3
InChIKey=LLKCMDKCPRLFRG-UHFFFAOYSA-N

> <PUBCHEM_SUBSTANCE_SYNONYM>
SCHEMBL16114421

> <PUBCHEM_XREF_EXT_ID>
SCHEMBL16114421

> <PUBCHEM_EXT_DATASOURCE_URL>
https://www.surechembl.org/

> <PUBCHEM_EXT_SUBSTANCE_URL>
https://www.surechembl.org/chemical/SCHEMBL16114421

> <PUBCHEM_CID_ASSOCIATIONS>
117604638  1

> <PUBCHEM_COORDINATE_TYPE>
1
3

$$$$
