310931987
  -OEChem-07211613022D

 30 33  0     1  0  0  0  0  0999 V2000
    3.9874   -2.1066    0.0000 O   0  0  0  0  0  0  0  0  0  0  0  0
    8.4262   -2.1818    0.0000 O   0  0  0  0  0  0  0  0  0  0  0  0
    4.8902   -0.9780    0.0000 N   0  0  0  0  0  0  0  0  0  0  0  0
    4.7774   -0.1505    0.0000 N   0  0  0  0  0  0  0  0  0  0  0  0
    6.3197   -0.9780    0.0000 N   0  0  0  0  0  0  0  0  0  0  0  0
    7.7115   -3.4232    0.0000 N   0  0  0  0  0  0  0  0  0  0  0  0
   10.4575   -3.1598    0.0000 N   0  0  3  0  0  0  0  0  0  0  0  0
    0.0000   -1.8056    0.0000 N   0  0  0  0  0  0  0  0  0  0  0  0
    4.1379   -1.3166    0.0000 C   0  0  0  0  0  0  0  0  0  0  0  0
    3.5736   -0.7147    0.0000 C   0  0  0  0  0  0  0  0  0  0  0  0
    5.6049   -1.3918    0.0000 C   0  0  0  0  0  0  0  0  0  0  0  0
    2.7460   -0.7899    0.0000 C   0  0  0  0  0  0  0  0  0  0  0  0
    3.9874    0.0000    0.0000 C   0  0  0  0  0  0  0  0  0  0  0  0
    5.6049   -2.1818    0.0000 C   0  0  0  0  0  0  0  0  0  0  0  0
    6.9968   -2.1818    0.0000 C   0  0  0  0  0  0  0  0  0  0  0  0
    2.4451   -1.5423    0.0000 C   0  0  0  0  0  0  0  0  0  0  0  0
    2.2570   -0.1505    0.0000 C   0  0  0  0  0  0  0  0  0  0  0  0
    6.9968   -1.3918    0.0000 C   0  0  0  0  0  0  0  0  0  0  0  0
    6.3197   -2.5956    0.0000 C   0  0  0  0  0  0  0  0  0  0  0  0
    7.7115   -2.5956    0.0000 C   0  0  0  0  0  0  0  0  0  0  0  0
    1.1285   -0.9780    0.0000 C   0  0  0  0  0  0  0  0  0  0  0  0
    1.6175   -1.6551    0.0000 C   0  0  0  0  0  0  0  0  0  0  0  0
    1.4671   -0.2257    0.0000 C   0  0  0  0  0  0  0  0  0  0  0  0
    9.1410   -3.4232    0.0000 C   0  0  3  0  0  0  0  0  0  0  0  0
    8.4262   -3.8370    0.0000 C   0  0  0  0  0  0  0  0  0  0  0  0
    0.3010   -1.0909    0.0000 C   0  0  0  0  0  0  0  0  0  0  0  0
    9.8933   -3.7617    0.0000 C   0  0  0  0  0  0  0  0  0  0  0  0
    9.2538   -2.6332    0.0000 C   0  0  0  0  0  0  0  0  0  0  0  0
   10.0437   -2.4451    0.0000 C   0  0  0  0  0  0  0  0  0  0  0  0
   11.2851   -3.2351    0.0000 C   0  0  0  0  0  0  0  0  0  0  0  0
  1  9  1  0  0  0  0
  2 20  2  0  0  0  0
  3  4  1  0  0  0  0
  3  9  1  0  0  0  0
  3 11  1  0  0  0  0
  4 13  2  0  0  0  0
  5 11  2  0  0  0  0
  5 18  1  0  0  0  0
  6 20  1  0  0  0  0
  6 25  1  0  0  0  0
  7 27  1  0  0  0  0
  7 29  1  0  0  0  0
  7 30  1  0  0  0  0
  8 26  3  0  0  0  0
  9 10  2  0  0  0  0
 10 12  1  0  0  0  0
 10 13  1  0  0  0  0
 11 14  1  0  0  0  0
 12 16  2  0  0  0  0
 12 17  1  0  0  0  0
 14 19  2  0  0  0  0
 15 18  2  0  0  0  0
 15 19  1  0  0  0  0
 15 20  1  0  0  0  0
 16 22  1  0  0  0  0
 17 23  2  0  0  0  0
 21 22  2  0  0  0  0
 21 23  1  0  0  0  0
 21 26  1  0  0  0  0
 24 25  1  0  0  0  0
 24 27  1  0  0  0  0
 24 28  1  0  0  0  0
 28 29  1  0  0  0  0
M  END
> <PUBCHEM_COMPOUND_ID_TYPE>
0

> <PUBCHEM_TOTAL_CHARGE>
0

> <PUBCHEM_SUBSTANCE_ID>
310931987

> <PUBCHEM_SUBSTANCE_VERSION>
1

> <PUBCHEM_EXT_DATASOURCE_NAME>
4488

> <PUBCHEM_EXT_DATASOURCE_REGID>
SCHEMBL16109327

> <PUBCHEM_SUBSTANCE_COMMENT>
InChI=1S/C22H22N6O2/c1-27-9-8-16(14-27)11-25-21(29)18-6-7-20(24-12-18)28-22(30)19(13-26-28)17-4-2-15(10-23)3-5-17/h2-7,12-13,16,30H,8-9,11,14H2,1H3,(H,25,29)
InChIKey=YZEQXSDDEPKEPV-UHFFFAOYSA-N

> <PUBCHEM_SUBSTANCE_SYNONYM>
SCHEMBL16109327

> <PUBCHEM_XREF_EXT_ID>
SCHEMBL16109327

> <PUBCHEM_EXT_DATASOURCE_URL>
https://www.surechembl.org/

> <PUBCHEM_EXT_SUBSTANCE_URL>
https://www.surechembl.org/chemical/SCHEMBL16109327

> <PUBCHEM_CID_ASSOCIATIONS>
117600630  1

> <PUBCHEM_COORDINATE_TYPE>
1
3

$$$$
