310941235
  -OEChem-07211613022D

 41 44  0     1  0  0  0  0  0999 V2000
    5.1582    0.9853    0.0000 O   0  0  0  0  0  0  0  0  0  0  0  0
    4.0281   -0.9853    0.0000 O   0  0  0  0  0  0  0  0  0  0  0  0
    1.6663    0.9708    0.0000 O   0  0  0  0  0  0  0  0  0  0  0  0
   -0.4782   -1.1012    0.0000 O   0  0  0  0  0  0  0  0  0  0  0  0
   -2.6226    0.9708    0.0000 O   0  0  0  0  0  0  0  0  0  0  0  0
    3.8107   -2.7675    0.0000 O   0  0  0  0  0  0  0  0  0  0  0  0
   -5.4770   -1.5214    0.0000 O   0  0  0  0  0  0  0  0  0  0  0  0
    2.3763   -0.2898    0.0000 N   0  0  0  0  0  0  0  0  0  0  0  0
    0.2318    0.1304    0.0000 N   0  0  0  0  0  0  0  0  0  0  0  0
   -1.9126   -0.2898    0.0000 N   0  0  0  0  0  0  0  0  0  0  0  0
   -4.7670   -0.2898    0.0000 N   0  0  0  0  0  0  0  0  0  0  0  0
    4.7381    0.3043    0.0000 C   0  0  3  0  0  0  0  0  0  0  0  0
    4.0281   -0.1159    0.0000 C   0  0  0  0  0  0  0  0  0  0  0  0
    4.3468    0.9853    0.0000 C   0  0  0  0  0  0  0  0  0  0  0  0
    3.3181    0.2898    0.0000 C   0  0  3  0  0  0  0  0  0  0  0  0
    5.4770   -0.1304    0.0000 C   0  0  0  0  0  0  0  0  0  0  0  0
    3.3181    1.3475    0.0000 C   0  0  0  0  0  0  0  0  0  0  0  0
    1.6518    0.1304    0.0000 C   0  0  0  0  0  0  0  0  0  0  0  0
    0.9708   -0.2608    0.0000 C   0  0  3  0  0  0  0  0  0  0  0  0
    2.5792    1.7822    0.0000 C   0  0  0  0  0  0  0  0  0  0  0  0
    0.9563   -1.0867    0.0000 C   0  0  0  0  0  0  0  0  0  0  0  0
   -0.4637   -0.2318    0.0000 C   0  0  0  0  0  0  0  0  0  0  0  0
    1.6808   -1.4924    0.0000 C   0  0  0  0  0  0  0  0  0  0  0  0
    1.8401    1.4489    0.0000 C   0  0  0  0  0  0  0  0  0  0  0  0
    2.5067    2.5936    0.0000 C   0  0  0  0  0  0  0  0  0  0  0  0
   -1.1881    0.1594    0.0000 C   0  0  3  0  0  0  0  0  0  0  0  0
   -2.6371    0.1304    0.0000 C   0  0  0  0  0  0  0  0  0  0  0  0
   -3.3181   -0.2608    0.0000 C   0  0  3  0  0  0  0  0  0  0  0  0
    1.3041    2.0575    0.0000 C   0  0  0  0  0  0  0  0  0  0  0  0
    1.7097    2.7675    0.0000 C   0  0  0  0  0  0  0  0  0  0  0  0
    1.6808   -2.3328    0.0000 C   0  0  0  0  0  0  0  0  0  0  0  0
    2.3618   -1.1012    0.0000 C   0  0  0  0  0  0  0  0  0  0  0  0
    3.1007   -2.3183    0.0000 C   0  0  0  0  0  0  0  0  0  0  0  0
    2.3763   -2.7385    0.0000 C   0  0  0  0  0  0  0  0  0  0  0  0
    3.1007   -1.5214    0.0000 C   0  0  0  0  0  0  0  0  0  0  0  0
   -4.0860    0.1449    0.0000 C   0  0  0  0  0  0  0  0  0  0  0  0
   -3.3326   -1.0867    0.0000 C   0  0  0  0  0  0  0  0  0  0  0  0
   -1.1737    0.9997    0.0000 C   0  0  0  0  0  0  0  0  0  0  0  0
   -4.7526   -1.0722    0.0000 C   0  0  0  0  0  0  0  0  0  0  0  0
   -4.0281   -1.4924    0.0000 C   0  0  0  0  0  0  0  0  0  0  0  0
    4.5352   -2.3328    0.0000 C   0  0  0  0  0  0  0  0  0  0  0  0
  1 12  1  0  0  0  0
  1 14  1  0  0  0  0
  2 13  2  0  0  0  0
  3 18  2  0  0  0  0
  4 22  2  0  0  0  0
  5 27  2  0  0  0  0
  6 33  1  0  0  0  0
  6 41  1  0  0  0  0
  7 39  2  0  0  0  0
  8 15  1  0  0  0  0
  8 18  1  0  0  0  0
  9 19  1  0  0  0  0
  9 22  1  0  0  0  0
 10 26  1  0  0  0  0
 10 27  1  0  0  0  0
 11 36  1  0  0  0  0
 11 39  1  0  0  0  0
 12 13  1  0  0  0  0
 12 14  1  0  0  0  0
 12 16  1  0  0  0  0
 13 15  1  0  0  0  0
 15 17  1  0  0  0  0
 17 20  1  0  0  0  0
 18 19  1  0  0  0  0
 19 21  1  0  0  0  0
 20 24  1  0  0  0  0
 20 25  1  0  0  0  0
 21 23  1  0  0  0  0
 22 26  1  0  0  0  0
 23 31  2  0  0  0  0
 23 32  1  0  0  0  0
 24 29  1  0  0  0  0
 25 30  1  0  0  0  0
 26 38  1  0  0  0  0
 27 28  1  0  0  0  0
 28 36  1  0  0  0  0
 28 37  1  0  0  0  0
 29 30  1  0  0  0  0
 31 34  1  0  0  0  0
 32 35  2  0  0  0  0
 33 34  2  0  0  0  0
 33 35  1  0  0  0  0
 37 40  1  0  0  0  0
 39 40  1  0  0  0  0
M  END
> <PUBCHEM_COMPOUND_ID_TYPE>
0

> <PUBCHEM_TOTAL_CHARGE>
0

> <PUBCHEM_SUBSTANCE_ID>
310941235

> <PUBCHEM_SUBSTANCE_VERSION>
1

> <PUBCHEM_EXT_DATASOURCE_NAME>
4488

> <PUBCHEM_EXT_DATASOURCE_REGID>
SCHEMBL16119195

> <PUBCHEM_SUBSTANCE_COMMENT>
InChI=1S/C30H42N4O7/c1-18(32-28(38)21-10-13-25(35)31-16-21)27(37)34-24(15-20-8-11-22(40-3)12-9-20)29(39)33-23(14-19-6-4-5-7-19)26(36)30(2)17-41-30/h8-9,11-12,18-19,21,23-24H,4-7,10,13-17H2,1-3H3,(H,31,35)(H,32,38)(H,33,39)(H,34,37)
InChIKey=RKPFVMJLWKSSON-UHFFFAOYSA-N

> <PUBCHEM_SUBSTANCE_SYNONYM>
SCHEMBL16119195

> <PUBCHEM_XREF_EXT_ID>
SCHEMBL16119195

> <PUBCHEM_EXT_DATASOURCE_URL>
https://www.surechembl.org/

> <PUBCHEM_EXT_SUBSTANCE_URL>
https://www.surechembl.org/chemical/SCHEMBL16119195

> <PUBCHEM_CID_ASSOCIATIONS>
86298122  1

> <PUBCHEM_COORDINATE_TYPE>
1
3

$$$$
