310945929
  -OEChem-07211613022D

 34 36  0     1  0  0  0  0  0999 V2000
    3.6305    0.6790    0.0000 O   0  0  0  0  0  0  0  0  0  0  0  0
    2.4943   -1.2887    0.0000 O   0  0  0  0  0  0  0  0  0  0  0  0
    0.3464    0.7899    0.0000 O   0  0  0  0  0  0  0  0  0  0  0  0
   -1.8152   -1.2887    0.0000 O   0  0  0  0  0  0  0  0  0  0  0  0
    2.4943   -2.9515    0.0000 O   0  0  0  0  0  0  0  0  0  0  0  0
   -3.9631   -0.0416    0.0000 O   0  0  0  0  0  0  0  0  0  0  0  0
    1.0670   -0.4434    0.0000 N   0  0  0  0  0  0  0  0  0  0  0  0
   -1.0947   -0.0277    0.0000 N   0  0  0  0  0  0  0  0  0  0  0  0
   -2.5220    0.8037    0.0000 N   0  0  0  0  0  0  0  0  0  0  0  0
    3.2148   -0.0139    0.0000 C   0  0  3  0  0  0  0  0  0  0  0  0
    2.5081   -0.4157    0.0000 C   0  0  0  0  0  0  0  0  0  0  0  0
    2.8268    0.6928    0.0000 C   0  0  0  0  0  0  0  0  0  0  0  0
    1.7737   -0.0277    0.0000 C   0  0  3  0  0  0  0  0  0  0  0  0
    3.9631   -0.4434    0.0000 C   0  0  0  0  0  0  0  0  0  0  0  0
    1.7876    1.3026    0.0000 C   0  0  0  0  0  0  0  0  0  0  0  0
    0.3325   -0.0416    0.0000 C   0  0  0  0  0  0  0  0  0  0  0  0
   -0.3603   -0.4434    0.0000 C   0  0  3  0  0  0  0  0  0  0  0  0
    1.0532    1.7321    0.0000 C   0  0  0  0  0  0  0  0  0  0  0  0
   -0.3741   -1.2749    0.0000 C   0  0  0  0  0  0  0  0  0  0  0  0
    0.3464   -1.6905    0.0000 C   0  0  0  0  0  0  0  0  0  0  0  0
   -1.8152   -0.4157    0.0000 C   0  0  0  0  0  0  0  0  0  0  0  0
    1.0532    2.5496    0.0000 C   0  0  0  0  0  0  0  0  0  0  0  0
    0.3187    1.3164    0.0000 C   0  0  0  0  0  0  0  0  0  0  0  0
    1.0532   -1.2887    0.0000 C   0  0  0  0  0  0  0  0  0  0  0  0
    0.3464   -2.5081    0.0000 C   0  0  0  0  0  0  0  0  0  0  0  0
   -2.5220   -0.0277    0.0000 C   0  0  3  0  0  0  0  0  0  0  0  0
    1.7737   -2.5081    0.0000 C   0  0  0  0  0  0  0  0  0  0  0  0
    1.7737   -1.6905    0.0000 C   0  0  0  0  0  0  0  0  0  0  0  0
    1.0532   -2.9238    0.0000 C   0  0  0  0  0  0  0  0  0  0  0  0
    0.3325    2.9515    0.0000 C   0  0  0  0  0  0  0  0  0  0  0  0
   -0.3603    1.7183    0.0000 C   0  0  0  0  0  0  0  0  0  0  0  0
   -0.3603    2.5496    0.0000 C   0  0  0  0  0  0  0  0  0  0  0  0
   -3.2564   -0.4296    0.0000 C   0  0  0  0  0  0  0  0  0  0  0  0
    3.2425   -2.5081    0.0000 C   0  0  0  0  0  0  0  0  0  0  0  0
  1 10  1  0  0  0  0
  1 12  1  0  0  0  0
  2 11  2  0  0  0  0
  3 16  2  0  0  0  0
  4 21  2  0  0  0  0
  5 27  1  0  0  0  0
  5 34  1  0  0  0  0
  6 33  1  0  0  0  0
  7 13  1  0  0  0  0
  7 16  1  0  0  0  0
  8 17  1  0  0  0  0
  8 21  1  0  0  0  0
  9 26  1  0  0  0  0
 10 11  1  0  0  0  0
 10 12  1  0  0  0  0
 10 14  1  0  0  0  0
 11 13  1  0  0  0  0
 13 15  1  0  0  0  0
 15 18  1  0  0  0  0
 16 17  1  0  0  0  0
 17 19  1  0  0  0  0
 18 22  2  0  0  0  0
 18 23  1  0  0  0  0
 19 20  1  0  0  0  0
 20 24  2  0  0  0  0
 20 25  1  0  0  0  0
 21 26  1  0  0  0  0
 22 30  1  0  0  0  0
 23 31  2  0  0  0  0
 24 28  1  0  0  0  0
 25 29  2  0  0  0  0
 26 33  1  0  0  0  0
 27 28  2  0  0  0  0
 27 29  1  0  0  0  0
 30 32  2  0  0  0  0
 31 32  1  0  0  0  0
M  END
> <PUBCHEM_COMPOUND_ID_TYPE>
0

> <PUBCHEM_TOTAL_CHARGE>
0

> <PUBCHEM_SUBSTANCE_ID>
310945929

> <PUBCHEM_SUBSTANCE_VERSION>
1

> <PUBCHEM_EXT_DATASOURCE_NAME>
4488

> <PUBCHEM_EXT_DATASOURCE_REGID>
SCHEMBL16124034

> <PUBCHEM_SUBSTANCE_COMMENT>
InChI=1S/C25H31N3O6/c1-25(15-34-25)22(30)20(12-16-6-4-3-5-7-16)27-24(32)21(28-23(31)19(26)14-29)13-17-8-10-18(33-2)11-9-17/h3-11,19-21,29H,12-15,26H2,1-2H3,(H,27,32)(H,28,31)
InChIKey=WHCXOJUEQTXPKW-UHFFFAOYSA-N

> <PUBCHEM_SUBSTANCE_SYNONYM>
SCHEMBL16124034

> <PUBCHEM_XREF_EXT_ID>
SCHEMBL16124034

> <PUBCHEM_EXT_DATASOURCE_URL>
https://www.surechembl.org/

> <PUBCHEM_EXT_SUBSTANCE_URL>
https://www.surechembl.org/chemical/SCHEMBL16124034

> <PUBCHEM_CID_ASSOCIATIONS>
117611912  1

> <PUBCHEM_COORDINATE_TYPE>
1
3

$$$$
