310930322
  -OEChem-07211613022D

 24 25  0     1  0  0  0  0  0999 V2000
    0.8250   -4.7510    0.0000 S   0  0  0  0  0  0  0  0  0  0  0  0
    7.3114   -0.1991    0.0000 S   0  0  0  0  0  0  0  0  0  0  0  0
    0.8250   -3.9260    0.0000 O   0  0  0  0  0  0  0  0  0  0  0  0
    1.6501   -4.7510    0.0000 O   0  0  0  0  0  0  0  0  0  0  0  0
    0.0000   -4.7510    0.0000 O   0  0  0  0  0  0  0  0  0  0  0  0
    0.8250   -5.5760    0.0000 O   0  0  0  0  0  0  0  0  0  0  0  0
    3.6699   -3.9260    0.0000 N   0  0  3  0  0  0  0  0  0  0  0  0
    6.5149   -2.2475    0.0000 N   0  0  0  0  0  0  0  0  0  0  0  0
    6.5149   -1.4225    0.0000 N   0  0  0  0  0  0  0  0  0  0  0  0
    7.9942   -1.3371    0.0000 N   0  0  0  0  0  0  0  0  0  0  0  0
    8.1080    0.0000    0.0000 N   0  0  0  0  0  0  0  0  0  0  0  0
    4.3812   -3.4993    0.0000 C   0  0  0  0  0  0  0  0  0  0  0  0
    5.8036   -2.6742    0.0000 C   0  0  0  0  0  0  0  0  0  0  0  0
    4.3812   -2.6742    0.0000 C   0  0  0  0  0  0  0  0  0  0  0  0
    5.1209   -3.8975    0.0000 C   0  0  0  0  0  0  0  0  0  0  0  0
    7.2261   -0.9957    0.0000 C   0  0  0  0  0  0  0  0  0  0  0  0
    5.0924   -2.2759    0.0000 C   0  0  0  0  0  0  0  0  0  0  0  0
    5.8036   -3.4993    0.0000 C   0  0  0  0  0  0  0  0  0  0  0  0
    2.9587   -3.5277    0.0000 C   0  0  0  0  0  0  0  0  0  0  0  0
    3.6699   -4.7510    0.0000 C   0  0  0  0  0  0  0  0  0  0  0  0
    2.2475   -3.9260    0.0000 C   0  0  0  0  0  0  0  0  0  0  0  0
    8.5348   -0.7112    0.0000 C   0  0  0  0  0  0  0  0  0  0  0  0
    1.5362   -3.5277    0.0000 C   0  0  0  0  0  0  0  0  0  0  0  0
    4.4096   -5.1493    0.0000 C   0  0  0  0  0  0  0  0  0  0  0  0
  1  3  1  0  0  0  0
  1  4  2  0  0  0  0
  1  5  2  0  0  0  0
  1  6  1  0  0  0  0
  2 11  1  0  0  0  0
  2 16  1  0  0  0  0
  3 23  1  0  0  0  0
  7 12  1  0  0  0  0
  7 19  1  0  0  0  0
  7 20  1  0  0  0  0
  8  9  2  0  0  0  0
  8 13  1  0  0  0  0
  9 16  1  0  0  0  0
 10 16  2  0  0  0  0
 10 22  1  0  0  0  0
 11 22  2  0  0  0  0
 12 14  2  0  0  0  0
 12 15  1  0  0  0  0
 13 17  2  0  0  0  0
 13 18  1  0  0  0  0
 14 17  1  0  0  0  0
 15 18  2  0  0  0  0
 19 21  1  0  0  0  0
 20 24  1  0  0  0  0
 21 23  1  0  0  0  0
M  END
> <PUBCHEM_COMPOUND_ID_TYPE>
0

> <PUBCHEM_TOTAL_CHARGE>
0

> <PUBCHEM_SUBSTANCE_ID>
310930322

> <PUBCHEM_SUBSTANCE_VERSION>
1

> <PUBCHEM_EXT_DATASOURCE_NAME>
4488

> <PUBCHEM_EXT_DATASOURCE_REGID>
SCHEMBL16107603

> <PUBCHEM_SUBSTANCE_COMMENT>
InChI=1S/C13H17N5O4S2/c1-2-18(8-3-9-22-24(19,20)21)12-6-4-11(5-7-12)16-17-13-14-10-15-23-13/h4-7,10H,2-3,8-9H2,1H3,(H,19,20,21)/b17-16+
InChIKey=ZERQASBXWNOGDW-WUKNDPDISA-N

> <PUBCHEM_SUBSTANCE_SYNONYM>
SCHEMBL16107603

> <PUBCHEM_XREF_EXT_ID>
SCHEMBL16107603

> <PUBCHEM_EXT_DATASOURCE_URL>
https://www.surechembl.org/

> <PUBCHEM_EXT_SUBSTANCE_URL>
https://www.surechembl.org/chemical/SCHEMBL16107603

> <PUBCHEM_CID_ASSOCIATIONS>
89559190  1

> <PUBCHEM_COORDINATE_TYPE>
1
3

$$$$
