310947499
  -OEChem-07211613022D

 15 14  0     1  0  0  0  0  0999 V2000
   -0.7102    3.0235    0.0000 O   0  0  0  0  0  0  0  0  0  0  0  0
    3.4413    3.0261    0.0000 O   0  0  0  0  0  0  0  0  0  0  0  0
    2.7268    4.2636    0.0000 O   0  0  0  0  0  0  0  0  0  0  0  0
    0.6308    4.6406    0.0000 O   0  0  0  0  0  0  0  0  0  0  0  0
    2.0123    3.0261    0.0000 N   0  0  0  0  0  0  0  0  0  0  0  0
    1.3452    3.4031    0.0000 N   0  0  0  0  0  0  0  0  0  0  0  0
    2.5082    2.2301    0.0000 C   0  0  3  0  0  0  0  0  0  0  0  0
    2.7268    3.4386    0.0000 C   0  0  0  0  0  0  0  0  0  0  0  0
    0.6308    3.8156    0.0000 C   0  0  0  0  0  0  0  0  0  0  0  0
    3.1944    2.2301    0.0000 C   0  0  0  0  0  0  0  0  0  0  0  0
   -1.3030    2.4498    0.0000 C   0  0  0  0  0  0  0  0  0  0  0  0
   -0.0837    3.4031    0.0000 C   0  0  0  0  0  0  0  0  0  0  0  0
    4.1558    3.4386    0.0000 C   0  0  0  0  0  0  0  0  0  0  0  0
   -2.0963    2.6763    0.0000 C   0  0  0  0  0  0  0  0  0  0  0  0
    4.8702    3.0261    0.0000 C   0  0  0  0  0  0  0  0  0  0  0  0
  1  7  1  0  0  0  0
  1 11  1  0  0  0  0
  2  8  1  0  0  0  0
  2 13  1  0  0  0  0
  3  8  2  0  0  0  0
  4  9  2  0  0  0  0
  5  7  1  0  0  0  0
  5  8  1  0  0  0  0
  6  7  1  0  0  0  0
  6  9  1  0  0  0  0
  7 10  1  0  0  0  0
  9 12  1  0  0  0  0
 11 14  1  0  0  0  0
 13 15  1  0  0  0  0
M  END
> <PUBCHEM_COMPOUND_ID_TYPE>
0

> <PUBCHEM_TOTAL_CHARGE>
0

> <PUBCHEM_SUBSTANCE_ID>
310947499

> <PUBCHEM_SUBSTANCE_VERSION>
1

> <PUBCHEM_EXT_DATASOURCE_NAME>
4488

> <PUBCHEM_EXT_DATASOURCE_REGID>
SCHEMBL16125661

> <PUBCHEM_SUBSTANCE_COMMENT>
InChI=1S/C9H18N2O4/c1-5-14-8(13)11-9(4,15-6-2)10-7(3)12/h5-6H2,1-4H3,(H,10,12)(H,11,13)
InChIKey=FQOBPWPMVATDCJ-UHFFFAOYSA-N

> <PUBCHEM_SUBSTANCE_SYNONYM>
SCHEMBL16125661

> <PUBCHEM_XREF_EXT_ID>
SCHEMBL16125661

> <PUBCHEM_EXT_DATASOURCE_URL>
https://www.surechembl.org/

> <PUBCHEM_EXT_SUBSTANCE_URL>
https://www.surechembl.org/chemical/SCHEMBL16125661

> <PUBCHEM_CID_ASSOCIATIONS>
117613224  1

> <PUBCHEM_COORDINATE_TYPE>
1
3

$$$$
