310936038
  -OEChem-07211613022D

 28 31  0     1  0  0  0  0  0999 V2000
    6.9687   -1.3835    0.0000 F   0  0  0  0  0  0  0  0  0  0  0  0
    6.0720    0.0000    0.0000 F   0  0  0  0  0  0  0  0  0  0  0  0
    5.7902   -2.2290    0.0000 O   0  0  0  0  0  0  0  0  0  0  0  0
    5.7902   -3.6381    0.0000 O   0  0  0  0  0  0  0  0  0  0  0  0
    0.4356   -3.7918    0.0000 N   0  0  0  0  0  0  0  0  0  0  0  0
    0.0000   -4.5092    0.0000 N   0  0  0  0  0  0  0  0  0  0  0  0
    4.5604   -2.9207    0.0000 C   0  0  3  0  0  0  0  0  0  0  0  0
    4.9447   -2.2034    0.0000 C   0  0  0  0  0  0  0  0  0  0  0  0
    4.0992   -3.6125    0.0000 C   0  0  0  0  0  0  0  0  0  0  0  0
    3.3051   -3.3307    0.0000 C   0  0  0  0  0  0  0  0  0  0  0  0
    5.3803   -2.9207    0.0000 C   0  0  0  0  0  0  0  0  0  0  0  0
    4.0992   -2.2546    0.0000 C   0  0  0  0  0  0  0  0  0  0  0  0
    5.9439   -2.3314    0.0000 C   0  0  0  0  0  0  0  0  0  0  0  0
    2.6389   -3.8174    0.0000 C   0  0  0  0  0  0  0  0  0  0  0  0
    3.3051   -2.5364    0.0000 C   0  0  0  0  0  0  0  0  0  0  0  0
    4.5092   -1.5116    0.0000 C   0  0  0  0  0  0  0  0  0  0  0  0
    6.1489   -1.4347    0.0000 C   0  0  0  0  0  0  0  0  0  0  0  0
    1.2298   -3.9456    0.0000 C   0  0  0  0  0  0  0  0  0  0  0  0
    1.9215   -3.4844    0.0000 C   0  0  0  0  0  0  0  0  0  0  0  0
    1.3323   -4.8166    0.0000 C   0  0  0  0  0  0  0  0  0  0  0  0
    5.7133   -0.7430    0.0000 C   0  0  0  0  0  0  0  0  0  0  0  0
    2.7157   -4.6885    0.0000 C   0  0  0  0  0  0  0  0  0  0  0  0
    4.8679   -0.7686    0.0000 C   0  0  0  0  0  0  0  0  0  0  0  0
    2.0752   -5.1241    0.0000 C   0  0  0  0  0  0  0  0  0  0  0  0
    6.2258   -2.8439    0.0000 C   0  0  0  0  0  0  0  0  0  0  0  0
    0.5637   -5.1241    0.0000 C   0  0  0  0  0  0  0  0  0  0  0  0
    6.6101   -2.2290    0.0000 C   0  0  0  0  0  0  0  0  0  0  0  0
    0.1025   -3.0488    0.0000 C   0  0  0  0  0  0  0  0  0  0  0  0
  1 17  1  0  0  0  0
  2 21  1  0  0  0  0
  3 11  1  0  0  0  0
  3 27  1  0  0  0  0
  4 11  2  0  0  0  0
  5  6  1  0  0  0  0
  5 18  1  0  0  0  0
  5 28  1  0  0  0  0
  6 26  2  0  0  0  0
  7  8  1  0  0  0  0
  7  9  1  0  0  0  0
  7 11  1  0  0  0  0
  7 12  1  0  0  0  0
  8 13  1  0  0  0  0
  8 16  2  0  0  0  0
  9 10  2  0  0  0  0
 10 14  1  0  0  0  0
 10 15  1  0  0  0  0
 12 15  1  0  0  0  0
 13 17  2  0  0  0  0
 13 25  1  0  0  0  0
 14 19  2  0  0  0  0
 14 22  1  0  0  0  0
 16 23  1  0  0  0  0
 17 21  1  0  0  0  0
 18 19  1  0  0  0  0
 18 20  2  0  0  0  0
 20 24  1  0  0  0  0
 20 26  1  0  0  0  0
 21 23  2  0  0  0  0
 22 24  2  0  0  0  0
M  END
> <PUBCHEM_COMPOUND_ID_TYPE>
0

> <PUBCHEM_TOTAL_CHARGE>
0

> <PUBCHEM_SUBSTANCE_ID>
310936038

> <PUBCHEM_SUBSTANCE_VERSION>
1

> <PUBCHEM_EXT_DATASOURCE_NAME>
4488

> <PUBCHEM_EXT_DATASOURCE_REGID>
SCHEMBL16113641

> <PUBCHEM_SUBSTANCE_COMMENT>
InChI=1S/C22H20F2N2O2/c1-13-17(6-7-18(23)20(13)24)22(21(27)28-3)9-8-15(11-22)14-4-5-16-12-25-26(2)19(16)10-14/h4-7,10-12H,8-9H2,1-3H3
InChIKey=JBULJBUMIUHEBA-UHFFFAOYSA-N

> <PUBCHEM_SUBSTANCE_SYNONYM>
SCHEMBL16113641

> <PUBCHEM_XREF_EXT_ID>
SCHEMBL16113641

> <PUBCHEM_EXT_DATASOURCE_URL>
https://www.surechembl.org/

> <PUBCHEM_EXT_SUBSTANCE_URL>
https://www.surechembl.org/chemical/SCHEMBL16113641

> <PUBCHEM_CID_ASSOCIATIONS>
117604005  1

> <PUBCHEM_COORDINATE_TYPE>
1
3

$$$$
