310941395
  -OEChem-07211613022D

 39 42  0     1  0  0  0  0  0999 V2000
    4.9940    0.9904    0.0000 O   0  0  0  0  0  0  0  0  0  0  0  0
    3.8562   -0.9763    0.0000 O   0  0  0  0  0  0  0  0  0  0  0  0
    1.4680    0.9763    0.0000 O   0  0  0  0  0  0  0  0  0  0  0  0
   -0.6954   -1.1028    0.0000 O   0  0  0  0  0  0  0  0  0  0  0  0
   -2.8728    0.9763    0.0000 O   0  0  0  0  0  0  0  0  0  0  0  0
   -5.3312   -1.2854    0.0000 O   0  0  0  0  0  0  0  0  0  0  0  0
    3.6454   -2.7745    0.0000 O   0  0  0  0  0  0  0  0  0  0  0  0
    2.1985   -0.2739    0.0000 N   0  0  0  0  0  0  0  0  0  0  0  0
    0.0351    0.1334    0.0000 N   0  0  0  0  0  0  0  0  0  0  0  0
   -2.1423   -0.2739    0.0000 N   0  0  0  0  0  0  0  0  0  0  0  0
    4.6007    0.3021    0.0000 C   0  0  3  0  0  0  0  0  0  0  0  0
    3.8702   -0.1054    0.0000 C   0  0  0  0  0  0  0  0  0  0  0  0
    4.1933    0.9904    0.0000 C   0  0  0  0  0  0  0  0  0  0  0  0
    3.1537    0.2879    0.0000 C   0  0  3  0  0  0  0  0  0  0  0  0
    5.3312   -0.1194    0.0000 C   0  0  0  0  0  0  0  0  0  0  0  0
    3.1537    1.3556    0.0000 C   0  0  0  0  0  0  0  0  0  0  0  0
    1.4821    0.1475    0.0000 C   0  0  0  0  0  0  0  0  0  0  0  0
    0.7656   -0.2458    0.0000 C   0  0  3  0  0  0  0  0  0  0  0  0
    2.4092    1.7911    0.0000 C   0  0  0  0  0  0  0  0  0  0  0  0
   -3.5892   -0.2458    0.0000 C   0  0  0  0  0  0  0  0  0  0  0  0
    0.7656   -1.0887    0.0000 C   0  0  0  0  0  0  0  0  0  0  0  0
   -0.6813   -0.2318    0.0000 C   0  0  0  0  0  0  0  0  0  0  0  0
   -2.8587    0.1475    0.0000 C   0  0  0  0  0  0  0  0  0  0  0  0
   -1.4118    0.1616    0.0000 C   0  0  3  0  0  0  0  0  0  0  0  0
    1.4961   -1.4961    0.0000 C   0  0  0  0  0  0  0  0  0  0  0  0
   -4.5726   -0.8078    0.0000 C   0  0  0  0  0  0  0  0  0  0  0  0
   -4.3759   -0.0492    0.0000 C   0  0  0  0  0  0  0  0  0  0  0  0
   -3.8000   -1.0466    0.0000 C   0  0  0  0  0  0  0  0  0  0  0  0
    1.6787    1.4540    0.0000 C   0  0  0  0  0  0  0  0  0  0  0  0
    2.3250    2.6058    0.0000 C   0  0  0  0  0  0  0  0  0  0  0  0
    1.4961   -2.3250    0.0000 C   0  0  0  0  0  0  0  0  0  0  0  0
    2.1985   -1.0887    0.0000 C   0  0  0  0  0  0  0  0  0  0  0  0
    1.1168    2.0580    0.0000 C   0  0  0  0  0  0  0  0  0  0  0  0
    1.5242    2.7745    0.0000 C   0  0  0  0  0  0  0  0  0  0  0  0
    2.9150   -2.3250    0.0000 C   0  0  0  0  0  0  0  0  0  0  0  0
    2.2125   -2.7323    0.0000 C   0  0  0  0  0  0  0  0  0  0  0  0
    2.9290   -1.5101    0.0000 C   0  0  0  0  0  0  0  0  0  0  0  0
   -1.3978    1.0044    0.0000 C   0  0  0  0  0  0  0  0  0  0  0  0
    4.4040   -2.3250    0.0000 C   0  0  0  0  0  0  0  0  0  0  0  0
  1 11  1  0  0  0  0
  1 13  1  0  0  0  0
  2 12  2  0  0  0  0
  3 17  2  0  0  0  0
  4 22  2  0  0  0  0
  5 23  2  0  0  0  0
  6 26  2  0  0  0  0
  7 35  1  0  0  0  0
  7 39  1  0  0  0  0
  8 14  1  0  0  0  0
  8 17  1  0  0  0  0
  9 18  1  0  0  0  0
  9 22  1  0  0  0  0
 10 23  1  0  0  0  0
 10 24  1  0  0  0  0
 11 12  1  0  0  0  0
 11 13  1  0  0  0  0
 11 15  1  0  0  0  0
 12 14  1  0  0  0  0
 14 16  1  0  0  0  0
 16 19  1  0  0  0  0
 17 18  1  0  0  0  0
 18 21  1  0  0  0  0
 19 29  1  0  0  0  0
 19 30  1  0  0  0  0
 20 23  1  0  0  0  0
 20 27  1  0  0  0  0
 20 28  1  0  0  0  0
 21 25  1  0  0  0  0
 22 24  1  0  0  0  0
 24 38  1  0  0  0  0
 25 31  2  0  0  0  0
 25 32  1  0  0  0  0
 26 27  1  0  0  0  0
 26 28  1  0  0  0  0
 29 33  1  0  0  0  0
 30 34  1  0  0  0  0
 31 36  1  0  0  0  0
 32 37  2  0  0  0  0
 33 34  1  0  0  0  0
 35 36  2  0  0  0  0
 35 37  1  0  0  0  0
M  END
> <PUBCHEM_COMPOUND_ID_TYPE>
0

> <PUBCHEM_TOTAL_CHARGE>
0

> <PUBCHEM_SUBSTANCE_ID>
310941395

> <PUBCHEM_SUBSTANCE_VERSION>
1

> <PUBCHEM_EXT_DATASOURCE_NAME>
4488

> <PUBCHEM_EXT_DATASOURCE_REGID>
SCHEMBL16119355

> <PUBCHEM_SUBSTANCE_COMMENT>
InChI=1S/C29H39N3O7/c1-17(30-27(36)20-14-21(33)15-20)26(35)32-24(13-19-8-10-22(38-3)11-9-19)28(37)31-23(12-18-6-4-5-7-18)25(34)29(2)16-39-29/h8-11,17-18,20,23-24H,4-7,12-16H2,1-3H3,(H,30,36)(H,31,37)(H,32,35)
InChIKey=GDYKMAYHTRKLDG-UHFFFAOYSA-N

> <PUBCHEM_SUBSTANCE_SYNONYM>
SCHEMBL16119355

> <PUBCHEM_XREF_EXT_ID>
SCHEMBL16119355

> <PUBCHEM_EXT_DATASOURCE_URL>
https://www.surechembl.org/

> <PUBCHEM_EXT_SUBSTANCE_URL>
https://www.surechembl.org/chemical/SCHEMBL16119355

> <PUBCHEM_CID_ASSOCIATIONS>
86297120  1

> <PUBCHEM_COORDINATE_TYPE>
1
3

$$$$
