310946689
  -OEChem-07211613022D

 27 30  0     1  0  0  0  0  0999 V2000
    2.6359    1.7663    0.0000 Cl  0  0  0  0  0  0  0  0  0  0  0  0
   -1.4205    2.3984    0.0000 O   0  0  0  0  0  0  0  0  0  0  0  0
    2.3645   -1.1270    0.0000 O   0  0  0  0  0  0  0  0  0  0  0  0
    1.1270    1.0164    0.0000 N   0  0  0  0  0  0  0  0  0  0  0  0
   -0.1105    0.3020    0.0000 N   0  0  0  0  0  0  0  0  0  0  0  0
   -0.1105    1.7309    0.0000 N   0  0  0  0  0  0  0  0  0  0  0  0
    2.8494   -0.3655    0.0000 N   0  0  0  0  0  0  0  0  0  0  0  0
   -1.4205    1.0635    0.0000 N   0  0  0  0  0  0  0  0  0  0  0  0
    3.6340   -0.1105    0.0000 N   0  0  0  0  0  0  0  0  0  0  0  0
    1.1270   -1.8414    0.0000 N   0  0  0  0  0  0  0  0  0  0  0  0
    1.5395    0.3020    0.0000 C   0  0  3  0  0  0  0  0  0  0  0  0
    1.1270   -0.4125    0.0000 C   0  0  0  0  0  0  0  0  0  0  0  0
    2.3645    0.3020    0.0000 C   0  0  0  0  0  0  0  0  0  0  0  0
    0.3020    1.0164    0.0000 C   0  0  0  0  0  0  0  0  0  0  0  0
    0.3020   -0.4125    0.0000 C   0  0  0  0  0  0  0  0  0  0  0  0
   -0.9355    1.7309    0.0000 C   0  0  0  0  0  0  0  0  0  0  0  0
    1.5395   -1.1270    0.0000 C   0  0  0  0  0  0  0  0  0  0  0  0
    2.8494    0.9694    0.0000 C   0  0  0  0  0  0  0  0  0  0  0  0
   -2.2051    2.1434    0.0000 C   0  0  0  0  0  0  0  0  0  0  0  0
   -2.2051    1.3184    0.0000 C   0  0  0  0  0  0  0  0  0  0  0  0
    3.6340    0.7145    0.0000 C   0  0  0  0  0  0  0  0  0  0  0  0
   -0.1105   -1.1270    0.0000 C   0  0  0  0  0  0  0  0  0  0  0  0
   -2.9195    2.5559    0.0000 C   0  0  0  0  0  0  0  0  0  0  0  0
   -2.9195    0.9059    0.0000 C   0  0  0  0  0  0  0  0  0  0  0  0
   -3.6340    2.1434    0.0000 C   0  0  0  0  0  0  0  0  0  0  0  0
   -3.6340    1.3184    0.0000 C   0  0  0  0  0  0  0  0  0  0  0  0
    1.5395   -2.5559    0.0000 C   0  0  0  0  0  0  0  0  0  0  0  0
  1 18  1  0  0  0  0
  2 16  1  0  0  0  0
  2 19  1  0  0  0  0
  3 17  2  0  0  0  0
  4 11  1  0  0  0  0
  4 14  2  0  0  0  0
  5 14  1  0  0  0  0
  5 15  1  0  0  0  0
  6 14  1  0  0  0  0
  6 16  1  0  0  0  0
  7  9  1  0  0  0  0
  7 13  2  0  0  0  0
  8 16  2  0  0  0  0
  8 20  1  0  0  0  0
  9 21  1  0  0  0  0
 10 17  1  0  0  0  0
 10 27  1  0  0  0  0
 11 12  1  0  0  0  0
 11 13  1  0  0  0  0
 12 15  2  0  0  0  0
 12 17  1  0  0  0  0
 13 18  1  0  0  0  0
 15 22  1  0  0  0  0
 18 21  2  0  0  0  0
 19 20  1  0  0  0  0
 19 23  2  0  0  0  0
 20 24  2  0  0  0  0
 23 25  1  0  0  0  0
 24 26  1  0  0  0  0
 25 26  2  0  0  0  0
M  END
> <PUBCHEM_COMPOUND_ID_TYPE>
0

> <PUBCHEM_TOTAL_CHARGE>
0

> <PUBCHEM_SUBSTANCE_ID>
310946689

> <PUBCHEM_SUBSTANCE_VERSION>
1

> <PUBCHEM_EXT_DATASOURCE_NAME>
4488

> <PUBCHEM_EXT_DATASOURCE_REGID>
SCHEMBL16124812

> <PUBCHEM_SUBSTANCE_COMMENT>
InChI=1S/C17H16ClN7O2/c1-8-12(15(26)19-2)14(13-9(18)7-20-25-13)23-16(21-8)24-17-22-10-5-3-4-6-11(10)27-17/h3-7,14H,1-2H3,(H,19,26)(H,20,25)(H2,21,22,23,24)
InChIKey=FHTPSZPTMOZKQQ-UHFFFAOYSA-N

> <PUBCHEM_SUBSTANCE_SYNONYM>
SCHEMBL16124812

> <PUBCHEM_XREF_EXT_ID>
SCHEMBL16124812

> <PUBCHEM_EXT_DATASOURCE_URL>
https://www.surechembl.org/

> <PUBCHEM_EXT_SUBSTANCE_URL>
https://www.surechembl.org/chemical/SCHEMBL16124812

> <PUBCHEM_CID_ASSOCIATIONS>
46926064  1

> <PUBCHEM_COORDINATE_TYPE>
1
3

$$$$
