310943565
  -OEChem-07211613022D

 33 36  0     1  0  0  0  0  0999 V2000
   -0.4123    1.4559    0.0000 O   0  5  0  0  0  0  0  0  0  0  0  0
   -1.8424    1.4559    0.0000 O   0  0  0  0  0  0  0  0  0  0  0  0
   -1.1337    1.0565    0.0000 N   0  3  0  0  0  0  0  0  0  0  0  0
   -3.2853   -1.2239    0.0000 N   0  0  3  0  0  0  0  0  0  0  0  0
    3.2338    0.8503    0.0000 N   0  0  3  0  0  0  0  0  0  0  0  0
   -5.0503   -0.6828    0.0000 N   0  0  3  0  0  0  0  0  0  0  0  0
    4.9988    0.3092    0.0000 N   0  0  3  0  0  0  0  0  0  0  0  0
   -0.4251   -0.3736    0.0000 C   0  0  0  0  0  0  0  0  0  0  0  0
   -1.1337    0.0257    0.0000 C   0  0  0  0  0  0  0  0  0  0  0  0
    0.2963    0.0386    0.0000 C   0  0  0  0  0  0  0  0  0  0  0  0
   -1.8552   -1.2239    0.0000 C   0  0  0  0  0  0  0  0  0  0  0  0
   -1.8424   -0.3865    0.0000 C   0  0  0  0  0  0  0  0  0  0  0  0
   -0.4251   -1.2239    0.0000 C   0  0  0  0  0  0  0  0  0  0  0  0
   -1.1208   -1.6233    0.0000 C   0  0  0  0  0  0  0  0  0  0  0  0
    1.0178   -0.3736    0.0000 C   0  0  0  0  0  0  0  0  0  0  0  0
    0.3220    0.8632    0.0000 C   0  0  0  0  0  0  0  0  0  0  0  0
    1.7393    0.8632    0.0000 C   0  0  0  0  0  0  0  0  0  0  0  0
   -2.5509   -1.6233    0.0000 C   0  0  0  0  0  0  0  0  0  0  0  0
    1.7264    0.0386    0.0000 C   0  0  0  0  0  0  0  0  0  0  0  0
    1.0049    1.2625    0.0000 C   0  0  0  0  0  0  0  0  0  0  0  0
    2.4350    1.2755    0.0000 C   0  0  0  0  0  0  0  0  0  0  0  0
   -3.9423   -1.6748    0.0000 C   0  0  0  0  0  0  0  0  0  0  0  0
   -3.2209   -0.3994    0.0000 C   0  0  0  0  0  0  0  0  0  0  0  0
    3.5301    0.0773    0.0000 C   0  0  0  0  0  0  0  0  0  0  0  0
    3.6589    1.5589    0.0000 C   0  0  0  0  0  0  0  0  0  0  0  0
   -4.7540   -1.4430    0.0000 C   0  0  0  0  0  0  0  0  0  0  0  0
   -3.8006    0.1417    0.0000 C   0  0  0  0  0  0  0  0  0  0  0  0
    4.3417   -0.1546    0.0000 C   0  0  0  0  0  0  0  0  0  0  0  0
   -4.6251    0.0515    0.0000 C   0  0  0  0  0  0  0  0  0  0  0  0
    4.4706    1.6748    0.0000 C   0  0  0  0  0  0  0  0  0  0  0  0
    5.0633    1.1337    0.0000 C   0  0  0  0  0  0  0  0  0  0  0  0
   -5.8878   -0.6828    0.0000 C   0  0  0  0  0  0  0  0  0  0  0  0
    5.8878   -0.2061    0.0000 C   0  0  0  0  0  0  0  0  0  0  0  0
  1  3  1  0  0  0  0
  2  3  2  0  0  0  0
  3  9  1  0  0  0  0
  4 18  1  0  0  0  0
  4 22  1  0  0  0  0
  4 23  1  0  0  0  0
  5 21  1  0  0  0  0
  5 24  1  0  0  0  0
  5 25  1  0  0  0  0
  6 26  1  0  0  0  0
  6 29  1  0  0  0  0
  6 32  1  0  0  0  0
  7 28  1  0  0  0  0
  7 31  1  0  0  0  0
  7 33  1  0  0  0  0
  8  9  2  0  0  0  0
  8 10  1  0  0  0  0
  8 13  1  0  0  0  0
  9 12  1  0  0  0  0
 10 15  2  0  0  0  0
 10 16  1  0  0  0  0
 11 12  2  0  0  0  0
 11 14  1  0  0  0  0
 11 18  1  0  0  0  0
 13 14  2  0  0  0  0
 15 19  1  0  0  0  0
 16 20  2  0  0  0  0
 17 19  2  0  0  0  0
 17 20  1  0  0  0  0
 17 21  1  0  0  0  0
 22 26  1  0  0  0  0
 23 27  1  0  0  0  0
 24 28  1  0  0  0  0
 25 30  1  0  0  0  0
 27 29  1  0  0  0  0
 30 31  1  0  0  0  0
M  CHG  2   1  -1   3   1
M  END
> <PUBCHEM_COMPOUND_ID_TYPE>
0

> <PUBCHEM_TOTAL_CHARGE>
0

> <PUBCHEM_SUBSTANCE_ID>
310943565

> <PUBCHEM_SUBSTANCE_VERSION>
1

> <PUBCHEM_EXT_DATASOURCE_NAME>
4488

> <PUBCHEM_EXT_DATASOURCE_REGID>
SCHEMBL16121632

> <PUBCHEM_SUBSTANCE_COMMENT>
InChI=1S/C26H37N5O2/c1-27-11-3-13-29(17-15-27)20-22-5-8-24(9-6-22)25-10-7-23(19-26(25)31(32)33)21-30-14-4-12-28(2)16-18-30/h5-10,19H,3-4,11-18,20-21H2,1-2H3
InChIKey=IPJDOSKJJGLEGL-UHFFFAOYSA-N

> <PUBCHEM_SUBSTANCE_SYNONYM>
SCHEMBL16121632

> <PUBCHEM_XREF_EXT_ID>
SCHEMBL16121632

> <PUBCHEM_EXT_DATASOURCE_URL>
https://www.surechembl.org/

> <PUBCHEM_EXT_SUBSTANCE_URL>
https://www.surechembl.org/chemical/SCHEMBL16121632

> <PUBCHEM_CID_ASSOCIATIONS>
117609975  1

> <PUBCHEM_COORDINATE_TYPE>
1
3

$$$$
