310948021
  -OEChem-07211613022D

 18 18  0     1  0  0  0  0  0999 V2000
    1.0932    2.2624    0.0000 O   0  0  0  0  0  0  0  0  0  0  0  0
   -1.1236    1.7765    0.0000 O   0  0  0  0  0  0  0  0  0  0  0  0
   -2.0954    2.8090    0.0000 O   0  0  0  0  0  0  0  0  0  0  0  0
    2.7027   -1.4121    0.0000 O   0  0  0  0  0  0  0  0  0  0  0  0
   -2.7027    1.3514    0.0000 N   0  0  0  0  0  0  0  0  0  0  0  0
    1.4273   -2.0498    0.0000 N   0  0  0  0  0  0  0  0  0  0  0  0
    2.6116   -2.8090    0.0000 N   0  0  0  0  0  0  0  0  0  0  0  0
    0.3340    2.0802    0.0000 C   0  0  3  0  0  0  0  0  0  0  0  0
    0.8503    1.5032    0.0000 C   0  0  0  0  0  0  0  0  0  0  0  0
   -0.4859    2.3232    0.0000 C   0  0  0  0  0  0  0  0  0  0  0  0
   -1.9435    2.0195    0.0000 C   0  0  0  0  0  0  0  0  0  0  0  0
   -2.1865    0.3492    0.0000 C   0  0  0  0  0  0  0  0  0  0  0  0
   -1.3362    0.2581    0.0000 C   0  0  0  0  0  0  0  0  0  0  0  0
    2.2472   -2.0802    0.0000 C   0  0  0  0  0  0  0  0  0  0  0  0
   -1.0021   -0.4403    0.0000 C   0  0  0  0  0  0  0  0  0  0  0  0
    1.0629   -1.3210    0.0000 C   0  0  0  0  0  0  0  0  0  0  0  0
   -0.1215   -0.5618    0.0000 C   0  0  0  0  0  0  0  0  0  0  0  0
    0.2429   -1.2299    0.0000 C   0  0  0  0  0  0  0  0  0  0  0  0
  1  8  1  0  0  0  0
  1  9  1  0  0  0  0
  2 10  1  0  0  0  0
  2 11  1  0  0  0  0
  3 11  2  0  0  0  0
  4 14  2  0  0  0  0
  5 11  1  0  0  0  0
  5 12  1  0  0  0  0
  6 14  1  0  0  0  0
  6 16  1  0  0  0  0
  7 14  1  0  0  0  0
  8  9  1  0  0  0  0
  8 10  1  0  0  0  0
 12 13  1  0  0  0  0
 13 15  1  0  0  0  0
 15 17  1  0  0  0  0
 16 18  1  0  0  0  0
 17 18  1  0  0  0  0
M  END
> <PUBCHEM_COMPOUND_ID_TYPE>
0

> <PUBCHEM_TOTAL_CHARGE>
0

> <PUBCHEM_SUBSTANCE_ID>
310948021

> <PUBCHEM_SUBSTANCE_VERSION>
1

> <PUBCHEM_EXT_DATASOURCE_NAME>
4488

> <PUBCHEM_EXT_DATASOURCE_REGID>
SCHEMBL16126195

> <PUBCHEM_SUBSTANCE_COMMENT>
InChI=1S/C11H21N3O4/c12-10(15)13-5-3-1-2-4-6-14-11(16)18-8-9-7-17-9/h9H,1-8H2,(H,14,16)(H3,12,13,15)
InChIKey=XNTYUANUYJIBRD-UHFFFAOYSA-N

> <PUBCHEM_SUBSTANCE_SYNONYM>
SCHEMBL16126195

> <PUBCHEM_XREF_EXT_ID>
SCHEMBL16126195

> <PUBCHEM_EXT_DATASOURCE_URL>
https://www.surechembl.org/

> <PUBCHEM_EXT_SUBSTANCE_URL>
https://www.surechembl.org/chemical/SCHEMBL16126195

> <PUBCHEM_CID_ASSOCIATIONS>
117613659  1

> <PUBCHEM_COORDINATE_TYPE>
1
3

$$$$
