310946759
  -OEChem-07211613022D

 20 21  0     1  0  0  0  0  0999 V2000
   -1.9270    0.5874    0.0000 N   0  0  0  0  0  0  0  0  0  0  0  0
   -0.6895   -1.6963    0.0000 N   0  0  0  0  0  0  0  0  0  0  0  0
   -1.2596    1.0724    0.0000 N   0  0  0  0  0  0  0  0  0  0  0  0
   -0.0221   -2.1812    0.0000 N   0  0  0  0  0  0  0  0  0  0  0  0
    1.7707   -0.5418    0.0000 N   0  0  3  0  0  0  0  0  0  0  0  0
    3.7343    0.4114    0.0000 N   0  0  0  0  0  0  0  0  0  0  0  0
   -0.4346   -0.9117    0.0000 C   0  0  0  0  0  0  0  0  0  0  0  0
   -0.8471   -0.1972    0.0000 C   0  0  0  0  0  0  0  0  0  0  0  0
    0.3904   -0.9117    0.0000 C   0  0  0  0  0  0  0  0  0  0  0  0
   -1.6721   -0.1972    0.0000 C   0  0  0  0  0  0  0  0  0  0  0  0
   -0.5921    0.5874    0.0000 C   0  0  0  0  0  0  0  0  0  0  0  0
    0.6454   -1.6963    0.0000 C   0  0  0  0  0  0  0  0  0  0  0  0
    0.9738   -0.3283    0.0000 C   0  0  0  0  0  0  0  0  0  0  0  0
   -2.7239    0.8010    0.0000 C   0  0  0  0  0  0  0  0  0  0  0  0
   -2.9374    1.5978    0.0000 C   0  0  0  0  0  0  0  0  0  0  0  0
    2.3541    0.0415    0.0000 C   0  0  0  0  0  0  0  0  0  0  0  0
    1.9842   -1.3387    0.0000 C   0  0  0  0  0  0  0  0  0  0  0  0
   -3.7343    1.8114    0.0000 C   0  0  0  0  0  0  0  0  0  0  0  0
   -2.3541    2.1812    0.0000 C   0  0  0  0  0  0  0  0  0  0  0  0
    3.1509   -0.1720    0.0000 C   0  0  0  0  0  0  0  0  0  0  0  0
  1  3  1  0  0  0  0
  1 10  1  0  0  0  0
  1 14  1  0  0  0  0
  2  4  1  0  0  0  0
  2  7  2  0  0  0  0
  3 11  2  0  0  0  0
  4 12  1  0  0  0  0
  5 13  1  0  0  0  0
  5 16  1  0  0  0  0
  5 17  1  0  0  0  0
  6 20  1  0  0  0  0
  7  8  1  0  0  0  0
  7  9  1  0  0  0  0
  8 10  2  0  0  0  0
  8 11  1  0  0  0  0
  9 12  2  0  0  0  0
  9 13  1  0  0  0  0
 14 15  1  0  0  0  0
 15 18  1  0  0  0  0
 15 19  1  0  0  0  0
 16 20  1  0  0  0  0
M  END
> <PUBCHEM_COMPOUND_ID_TYPE>
0

> <PUBCHEM_TOTAL_CHARGE>
0

> <PUBCHEM_SUBSTANCE_ID>
310946759

> <PUBCHEM_SUBSTANCE_VERSION>
1

> <PUBCHEM_EXT_DATASOURCE_NAME>
4488

> <PUBCHEM_EXT_DATASOURCE_REGID>
SCHEMBL16124883

> <PUBCHEM_SUBSTANCE_COMMENT>
InChI=1S/C14H24N6/c1-11(2)8-20-10-13(7-17-20)14-12(6-16-18-14)9-19(3)5-4-15/h6-7,10-11H,4-5,8-9,15H2,1-3H3,(H,16,18)
InChIKey=ZBTBDRZUMSCGDL-UHFFFAOYSA-N

> <PUBCHEM_SUBSTANCE_SYNONYM>
SCHEMBL16124883

> <PUBCHEM_XREF_EXT_ID>
SCHEMBL16124883

> <PUBCHEM_EXT_DATASOURCE_URL>
https://www.surechembl.org/

> <PUBCHEM_EXT_SUBSTANCE_URL>
https://www.surechembl.org/chemical/SCHEMBL16124883

> <PUBCHEM_CID_ASSOCIATIONS>
86296345  1

> <PUBCHEM_COORDINATE_TYPE>
1
3

$$$$
