310936001
  -OEChem-07211613022D

 21 22  0     1  0  0  0  0  0999 V2000
    0.0000   -3.7582    0.0000 Cl  0  0  0  0  0  0  0  0  0  0  0  0
    1.4437   -4.5832    0.0000 Cl  0  0  0  0  0  0  0  0  0  0  0  0
    3.5978   -3.3228    0.0000 S   0  0  0  0  0  0  0  0  0  0  0  0
    2.1541    0.0000    0.0000 O   0  0  0  0  0  0  0  0  0  0  0  0
    0.0000   -0.4354    0.0000 N   0  0  0  0  0  0  0  0  0  0  0  0
    1.4437   -1.2604    0.0000 C   0  0  3  0  0  0  0  0  0  0  0  0
    1.4437   -2.0854    0.0000 C   0  0  0  0  0  0  0  0  0  0  0  0
    2.1541   -0.8250    0.0000 C   0  0  3  0  0  0  0  0  0  0  0  0
    2.8645   -1.2604    0.0000 C   0  0  0  0  0  0  0  0  0  0  0  0
    0.7333   -2.4979    0.0000 C   0  0  0  0  0  0  0  0  0  0  0  0
    0.7333   -3.3228    0.0000 C   0  0  0  0  0  0  0  0  0  0  0  0
    2.1541   -2.4979    0.0000 C   0  0  0  0  0  0  0  0  0  0  0  0
    1.4437   -3.7582    0.0000 C   0  0  0  0  0  0  0  0  0  0  0  0
    2.8874   -2.0854    0.0000 C   0  0  0  0  0  0  0  0  0  0  0  0
    2.1541   -3.3228    0.0000 C   0  0  0  0  0  0  0  0  0  0  0  0
    0.7104   -0.8250    0.0000 C   0  0  0  0  0  0  0  0  0  0  0  0
    3.5978   -0.8250    0.0000 C   0  0  0  0  0  0  0  0  0  0  0  0
    3.5978   -2.4979    0.0000 C   0  0  0  0  0  0  0  0  0  0  0  0
    4.3082   -1.2374    0.0000 C   0  0  0  0  0  0  0  0  0  0  0  0
    4.3082   -2.0854    0.0000 C   0  0  0  0  0  0  0  0  0  0  0  0
    4.3311   -3.7582    0.0000 C   0  0  0  0  0  0  0  0  0  0  0  0
  1 11  1  0  0  0  0
  2 13  1  0  0  0  0
  3 18  1  0  0  0  0
  3 21  1  0  0  0  0
  4  8  1  0  0  0  0
  5 16  3  0  0  0  0
  6  7  1  0  0  0  0
  6  8  1  0  0  0  0
  6 16  1  0  0  0  0
  7 10  1  0  0  0  0
  7 12  2  0  0  0  0
  8  9  1  0  0  0  0
  9 14  1  0  0  0  0
  9 17  2  0  0  0  0
 10 11  2  0  0  0  0
 11 13  1  0  0  0  0
 12 15  1  0  0  0  0
 13 15  2  0  0  0  0
 14 18  2  0  0  0  0
 17 19  1  0  0  0  0
 18 20  1  0  0  0  0
 19 20  2  0  0  0  0
M  END
> <PUBCHEM_COMPOUND_ID_TYPE>
0

> <PUBCHEM_TOTAL_CHARGE>
0

> <PUBCHEM_SUBSTANCE_ID>
310936001

> <PUBCHEM_SUBSTANCE_VERSION>
1

> <PUBCHEM_EXT_DATASOURCE_NAME>
4488

> <PUBCHEM_EXT_DATASOURCE_REGID>
SCHEMBL16113602

> <PUBCHEM_SUBSTANCE_COMMENT>
InChI=1S/C16H13Cl2NOS/c1-21-12-4-2-3-11(7-12)16(20)13(9-19)10-5-6-14(17)15(18)8-10/h2-8,13,16,20H,1H3
InChIKey=BDAHUXHWSUORRP-UHFFFAOYSA-N

> <PUBCHEM_SUBSTANCE_SYNONYM>
SCHEMBL16113602

> <PUBCHEM_XREF_EXT_ID>
SCHEMBL16113602

> <PUBCHEM_EXT_DATASOURCE_URL>
https://www.surechembl.org/

> <PUBCHEM_EXT_SUBSTANCE_URL>
https://www.surechembl.org/chemical/SCHEMBL16113602

> <PUBCHEM_CID_ASSOCIATIONS>
117603973  1

> <PUBCHEM_COORDINATE_TYPE>
1
3

$$$$
