310932594
  -OEChem-07211613022D

 32 35  0     1  0  0  0  0  0999 V2000
    4.0071   -2.1214    0.0000 O   0  0  0  0  0  0  0  0  0  0  0  0
    8.4465   -2.2000    0.0000 O   0  0  0  0  0  0  0  0  0  0  0  0
    4.9107   -0.9822    0.0000 N   0  0  0  0  0  0  0  0  0  0  0  0
    4.7928   -0.1572    0.0000 N   0  0  0  0  0  0  0  0  0  0  0  0
    6.3250   -0.9822    0.0000 N   0  0  0  0  0  0  0  0  0  0  0  0
    7.7393   -3.4179    0.0000 N   0  0  0  0  0  0  0  0  0  0  0  0
   10.4893   -3.1821    0.0000 N   0  0  3  0  0  0  0  0  0  0  0  0
    0.0000   -1.8072    0.0000 N   0  0  0  0  0  0  0  0  0  0  0  0
    4.1643   -1.2964    0.0000 C   0  0  0  0  0  0  0  0  0  0  0  0
    3.5750   -0.7071    0.0000 C   0  0  0  0  0  0  0  0  0  0  0  0
    5.6178   -1.3750    0.0000 C   0  0  0  0  0  0  0  0  0  0  0  0
    2.7893   -0.7857    0.0000 C   0  0  0  0  0  0  0  0  0  0  0  0
    4.0071    0.0000    0.0000 C   0  0  0  0  0  0  0  0  0  0  0  0
    7.0321   -2.2000    0.0000 C   0  0  0  0  0  0  0  0  0  0  0  0
    5.6178   -2.2000    0.0000 C   0  0  0  0  0  0  0  0  0  0  0  0
    7.7393   -2.5929    0.0000 C   0  0  0  0  0  0  0  0  0  0  0  0
    7.0321   -1.3750    0.0000 C   0  0  0  0  0  0  0  0  0  0  0  0
    6.3250   -2.5929    0.0000 C   0  0  0  0  0  0  0  0  0  0  0  0
    2.4357   -1.5714    0.0000 C   0  0  0  0  0  0  0  0  0  0  0  0
    2.2785   -0.1572    0.0000 C   0  0  0  0  0  0  0  0  0  0  0  0
    1.1393   -0.9822    0.0000 C   0  0  0  0  0  0  0  0  0  0  0  0
    1.6107   -1.6500    0.0000 C   0  0  0  0  0  0  0  0  0  0  0  0
    1.4535   -0.2357    0.0000 C   0  0  0  0  0  0  0  0  0  0  0  0
    9.1929   -3.4179    0.0000 C   0  0  3  0  0  0  0  0  0  0  0  0
    8.4465   -3.8500    0.0000 C   0  0  0  0  0  0  0  0  0  0  0  0
    9.9393   -3.7714    0.0000 C   0  0  0  0  0  0  0  0  0  0  0  0
    9.2715   -2.6322    0.0000 C   0  0  0  0  0  0  0  0  0  0  0  0
   10.0572   -2.4357    0.0000 C   0  0  0  0  0  0  0  0  0  0  0  0
    7.0321   -3.8500    0.0000 C   0  0  0  0  0  0  0  0  0  0  0  0
    0.3143   -1.0607    0.0000 C   0  0  0  0  0  0  0  0  0  0  0  0
   11.2750   -3.2607    0.0000 C   0  0  0  0  0  0  0  0  0  0  0  0
   11.7857   -2.5929    0.0000 C   0  0  0  0  0  0  0  0  0  0  0  0
  1  9  1  0  0  0  0
  2 16  2  0  0  0  0
  3  4  1  0  0  0  0
  3  9  1  0  0  0  0
  3 11  1  0  0  0  0
  4 13  2  0  0  0  0
  5 11  2  0  0  0  0
  5 17  1  0  0  0  0
  6 16  1  0  0  0  0
  6 25  1  0  0  0  0
  6 29  1  0  0  0  0
  7 26  1  0  0  0  0
  7 28  1  0  0  0  0
  7 31  1  0  0  0  0
  8 30  3  0  0  0  0
  9 10  2  0  0  0  0
 10 12  1  0  0  0  0
 10 13  1  0  0  0  0
 11 15  1  0  0  0  0
 12 19  2  0  0  0  0
 12 20  1  0  0  0  0
 14 16  1  0  0  0  0
 14 17  2  0  0  0  0
 14 18  1  0  0  0  0
 15 18  2  0  0  0  0
 19 22  1  0  0  0  0
 20 23  2  0  0  0  0
 21 22  2  0  0  0  0
 21 23  1  0  0  0  0
 21 30  1  0  0  0  0
 24 25  1  0  0  0  0
 24 26  1  0  0  0  0
 24 27  1  0  0  0  0
 27 28  1  0  0  0  0
 31 32  1  0  0  0  0
M  END
> <PUBCHEM_COMPOUND_ID_TYPE>
0

> <PUBCHEM_TOTAL_CHARGE>
0

> <PUBCHEM_SUBSTANCE_ID>
310932594

> <PUBCHEM_SUBSTANCE_VERSION>
1

> <PUBCHEM_EXT_DATASOURCE_NAME>
4488

> <PUBCHEM_EXT_DATASOURCE_REGID>
SCHEMBL16109972

> <PUBCHEM_SUBSTANCE_COMMENT>
InChI=1S/C24H26N6O2/c1-3-29-11-10-18(16-29)15-28(2)23(31)20-8-9-22(26-13-20)30-24(32)21(14-27-30)19-6-4-17(12-25)5-7-19/h4-9,13-14,18,32H,3,10-11,15-16H2,1-2H3
InChIKey=OPXNAVBUYUNQQA-UHFFFAOYSA-N

> <PUBCHEM_SUBSTANCE_SYNONYM>
SCHEMBL16109972

> <PUBCHEM_XREF_EXT_ID>
SCHEMBL16109972

> <PUBCHEM_EXT_DATASOURCE_URL>
https://www.surechembl.org/

> <PUBCHEM_EXT_SUBSTANCE_URL>
https://www.surechembl.org/chemical/SCHEMBL16109972

> <PUBCHEM_CID_ASSOCIATIONS>
117601116  1

> <PUBCHEM_COORDINATE_TYPE>
1
3

$$$$
