310945173
  -OEChem-07211613022D

 28 31  0     1  0  0  0  0  0999 V2000
    3.7770    0.8351    0.0000 O   0  0  0  0  0  0  0  0  0  0  0  0
   -0.8998   -1.4495    0.0000 O   0  0  0  0  0  0  0  0  0  0  0  0
   -2.3439    1.8589    0.0000 O   0  0  0  0  0  0  0  0  0  0  0  0
    2.0421   -0.4580    0.0000 N   0  0  0  0  0  0  0  0  0  0  0  0
    3.6908   -0.6304    0.0000 N   0  0  0  0  0  0  0  0  0  0  0  0
   -1.6218   -0.2101    0.0000 N   0  0  0  0  0  0  0  0  0  0  0  0
   -3.0659    0.6196    0.0000 N   0  0  0  0  0  0  0  0  0  0  0  0
    1.2447   -0.1994    0.0000 C   0  0  0  0  0  0  0  0  0  0  0  0
    2.5270    0.2101    0.0000 C   0  0  0  0  0  0  0  0  0  0  0  0
    1.2555    0.6196    0.0000 C   0  0  0  0  0  0  0  0  0  0  0  0
    2.0528    0.8567    0.0000 C   0  0  0  0  0  0  0  0  0  0  0  0
    0.5442   -0.6196    0.0000 C   0  0  0  0  0  0  0  0  0  0  0  0
    3.3460    0.1024    0.0000 C   0  0  0  0  0  0  0  0  0  0  0  0
   -0.1886   -0.2101    0.0000 C   0  0  0  0  0  0  0  0  0  0  0  0
    0.5334    1.0184    0.0000 C   0  0  0  0  0  0  0  0  0  0  0  0
    2.3762   -1.2124    0.0000 C   0  0  0  0  0  0  0  0  0  0  0  0
   -0.1778    0.6088    0.0000 C   0  0  0  0  0  0  0  0  0  0  0  0
   -0.8998   -0.6088    0.0000 C   0  0  0  0  0  0  0  0  0  0  0  0
    3.2059   -1.3093    0.0000 C   0  0  0  0  0  0  0  0  0  0  0  0
   -2.3439   -0.6196    0.0000 C   0  0  3  0  0  0  0  0  0  0  0  0
   -3.0659   -0.2101    0.0000 C   0  0  3  0  0  0  0  0  0  0  0  0
   -2.3439   -1.4495    0.0000 C   0  0  0  0  0  0  0  0  0  0  0  0
   -3.7770   -0.6196    0.0000 C   0  0  0  0  0  0  0  0  0  0  0  0
   -3.0551   -1.8589    0.0000 C   0  0  0  0  0  0  0  0  0  0  0  0
   -3.7770   -1.4495    0.0000 C   0  0  0  0  0  0  0  0  0  0  0  0
   -2.3439    1.0184    0.0000 C   0  0  0  0  0  0  0  0  0  0  0  0
   -1.6218    0.6196    0.0000 C   0  0  0  0  0  0  0  0  0  0  0  0
   -0.9321    1.0723    0.0000 C   0  0  0  0  0  0  0  0  0  0  0  0
  1 13  2  0  0  0  0
  2 18  2  0  0  0  0
  3 26  2  0  0  0  0
  4  8  1  0  0  0  0
  4  9  1  0  0  0  0
  4 16  1  0  0  0  0
  5 13  1  0  0  0  0
  5 19  1  0  0  0  0
  6 18  1  0  0  0  0
  6 20  1  0  0  0  0
  7 21  1  0  0  0  0
  7 26  1  0  0  0  0
  8 10  1  0  0  0  0
  8 12  2  0  0  0  0
  9 11  2  0  0  0  0
  9 13  1  0  0  0  0
 10 11  1  0  0  0  0
 10 15  2  0  0  0  0
 12 14  1  0  0  0  0
 14 17  2  0  0  0  0
 14 18  1  0  0  0  0
 15 17  1  0  0  0  0
 16 19  1  0  0  0  0
 20 21  1  0  0  0  0
 20 22  1  0  0  0  0
 21 23  1  0  0  0  0
 22 24  1  0  0  0  0
 23 25  1  0  0  0  0
 24 25  1  0  0  0  0
 26 27  1  0  0  0  0
 27 28  2  0  0  0  0
M  END
> <PUBCHEM_COMPOUND_ID_TYPE>
0

> <PUBCHEM_TOTAL_CHARGE>
0

> <PUBCHEM_SUBSTANCE_ID>
310945173

> <PUBCHEM_SUBSTANCE_VERSION>
1

> <PUBCHEM_EXT_DATASOURCE_NAME>
4488

> <PUBCHEM_EXT_DATASOURCE_REGID>
SCHEMBL16123263

> <PUBCHEM_SUBSTANCE_COMMENT>
InChI=1S/C21H24N4O3/c1-2-19(26)23-15-5-3-4-6-16(15)24-20(27)14-8-7-13-11-18-21(28)22-9-10-25(18)17(13)12-14/h2,7-8,11-12,15-16H,1,3-6,9-10H2,(H,22,28)(H,23,26)(H,24,27)
InChIKey=JWWBYMBMTLRQNM-UHFFFAOYSA-N

> <PUBCHEM_SUBSTANCE_SYNONYM>
SCHEMBL16123263

> <PUBCHEM_XREF_EXT_ID>
SCHEMBL16123263

> <PUBCHEM_EXT_DATASOURCE_URL>
https://www.surechembl.org/

> <PUBCHEM_EXT_SUBSTANCE_URL>
https://www.surechembl.org/chemical/SCHEMBL16123263

> <PUBCHEM_CID_ASSOCIATIONS>
117611259  1

> <PUBCHEM_COORDINATE_TYPE>
1
3

$$$$
