310934682
  -OEChem-07211613022D

 14 15  0     1  0  0  0  0  0999 V2000
   -1.2885    1.4045    0.0000 O   0  0  0  0  0  0  0  0  0  0  0  0
    0.1405    0.5795    0.0000 O   0  0  0  0  0  0  0  0  0  0  0  0
   -4.1291   -0.0243    0.0000 N   0  0  0  0  0  0  0  0  0  0  0  0
   -0.5740    0.1670    0.0000 N   0  0  0  0  0  0  0  0  0  0  0  0
   -3.3087   -0.1106    0.0000 C   0  0  3  0  0  0  0  0  0  0  0  0
   -2.0030    0.1670    0.0000 C   0  0  3  0  0  0  0  0  0  0  0  0
   -2.7566    0.5025    0.0000 C   0  0  0  0  0  0  0  0  0  0  0  0
   -2.8962   -0.8250    0.0000 C   0  0  0  0  0  0  0  0  0  0  0  0
   -2.0892   -0.6535    0.0000 C   0  0  0  0  0  0  0  0  0  0  0  0
   -1.2885    0.5795    0.0000 C   0  0  0  0  0  0  0  0  0  0  0  0
   -4.5416    0.6902    0.0000 C   0  0  0  0  0  0  0  0  0  0  0  0
   -4.6812   -0.6374    0.0000 C   0  0  0  0  0  0  0  0  0  0  0  0
   -5.3486    0.5186    0.0000 C   0  0  0  0  0  0  0  0  0  0  0  0
   -5.4349   -0.3018    0.0000 C   0  0  0  0  0  0  0  0  0  0  0  0
  1 10  2  0  0  0  0
  2  4  1  0  0  0  0
  3  5  1  0  0  0  0
  3 11  1  0  0  0  0
  3 12  1  0  0  0  0
  4 10  1  0  0  0  0
  5  7  1  0  0  0  0
  5  8  1  0  0  0  0
  6  7  1  0  0  0  0
  6  9  1  0  0  0  0
  6 10  1  0  0  0  0
  8  9  1  0  0  0  0
 11 13  1  0  0  0  0
 12 14  1  0  0  0  0
 13 14  1  0  0  0  0
M  END
> <PUBCHEM_COMPOUND_ID_TYPE>
0

> <PUBCHEM_TOTAL_CHARGE>
0

> <PUBCHEM_SUBSTANCE_ID>
310934682

> <PUBCHEM_SUBSTANCE_VERSION>
1

> <PUBCHEM_EXT_DATASOURCE_NAME>
4488

> <PUBCHEM_EXT_DATASOURCE_REGID>
SCHEMBL16112181

> <PUBCHEM_SUBSTANCE_COMMENT>
InChI=1S/C10H18N2O2/c13-10(11-14)8-3-4-9(7-8)12-5-1-2-6-12/h8-9,14H,1-7H2,(H,11,13)
InChIKey=BIVNLYYFYRQRQW-UHFFFAOYSA-N

> <PUBCHEM_SUBSTANCE_SYNONYM>
SCHEMBL16112181

> <PUBCHEM_XREF_EXT_ID>
SCHEMBL16112181

> <PUBCHEM_EXT_DATASOURCE_URL>
https://www.surechembl.org/

> <PUBCHEM_EXT_SUBSTANCE_URL>
https://www.surechembl.org/chemical/SCHEMBL16112181

> <PUBCHEM_CID_ASSOCIATIONS>
117602846  1

> <PUBCHEM_COORDINATE_TYPE>
1
3

$$$$
