310948019
  -OEChem-07211613022D

 65 72  0     1  0  0  0  0  0999 V2000
    7.3211   -0.0072    0.0000 Cl  0  0  0  0  0  0  0  0  0  0  0  0
   -2.2532   -2.9298    0.0000 S   0  0  0  0  0  0  0  0  0  0  0  0
    5.9389    2.4115    0.0000 F   0  0  0  0  0  0  0  0  0  0  0  0
   -7.2347    1.0870    0.0000 O   0  0  0  0  0  0  0  0  0  0  0  0
    3.8225   -1.2310    0.0000 O   0  0  0  0  0  0  0  0  0  0  0  0
   -5.7517    3.6210    0.0000 O   0  0  0  0  0  0  0  0  0  0  0  0
   -8.7320   -1.4325    0.0000 O   0  0  0  0  0  0  0  0  0  0  0  0
   -4.9743    1.4613    0.0000 O   0  0  0  0  0  0  0  0  0  0  0  0
   -3.5777    1.4901    0.0000 O   0  0  0  0  0  0  0  0  0  0  0  0
    4.5135   -0.0072    0.0000 O   0  0  0  0  0  0  0  0  0  0  0  0
    1.2885   -1.3893    0.0000 O   0  0  0  0  0  0  0  0  0  0  0  0
    6.6300   -1.2310    0.0000 N   0  0  0  0  0  0  0  0  0  0  0  0
    5.9389   -2.4403    0.0000 N   0  0  0  0  0  0  0  0  0  0  0  0
    3.7217   -2.4403    0.0000 N   0  0  0  0  0  0  0  0  0  0  0  0
   -2.8579   -1.4757    0.0000 N   0  0  0  0  0  0  0  0  0  0  0  0
    7.3354   -3.2466    0.0000 N   0  0  0  0  0  0  0  0  0  0  0  0
    2.1093   -2.4403    0.0000 N   0  0  0  0  0  0  0  0  0  0  0  0
   -1.4469   -1.8356    0.0000 N   0  0  0  0  0  0  0  0  0  0  0  0
   -5.7949    0.2663    0.0000 C   0  0  0  0  0  0  0  0  0  0  0  0
   -5.7661    1.1158    0.0000 C   0  0  0  0  0  0  0  0  0  0  0  0
   -6.5148   -0.1511    0.0000 C   0  0  0  0  0  0  0  0  0  0  0  0
   -5.0463   -0.1655    0.0000 C   0  0  0  0  0  0  0  0  0  0  0  0
   -6.5004    1.5477    0.0000 C   0  0  0  0  0  0  0  0  0  0  0  0
   -7.2491    0.2663    0.0000 C   0  0  0  0  0  0  0  0  0  0  0  0
   -4.3263    0.2519    0.0000 C   0  0  0  0  0  0  0  0  0  0  0  0
    5.9102   -0.7847    0.0000 C   0  0  3  0  0  0  0  0  0  0  0  0
   -5.0463    1.5333    0.0000 C   0  0  0  0  0  0  0  0  0  0  0  0
   -6.5292   -0.9863    0.0000 C   0  0  0  0  0  0  0  0  0  0  0  0
    5.2334   -1.2022    0.0000 C   0  0  0  0  0  0  0  0  0  0  0  0
   -6.4860    2.3972    0.0000 C   0  0  0  0  0  0  0  0  0  0  0  0
   -7.9689   -0.1367    0.0000 C   0  0  0  0  0  0  0  0  0  0  0  0
   -5.0463   -1.0150    0.0000 C   0  0  0  0  0  0  0  0  0  0  0  0
    5.2190   -1.9941    0.0000 C   0  0  0  0  0  0  0  0  0  0  0  0
    5.9246    0.0216    0.0000 C   0  0  0  0  0  0  0  0  0  0  0  0
   -3.5921   -0.1799    0.0000 C   0  0  0  0  0  0  0  0  0  0  0  0
    6.6300   -1.9941    0.0000 C   0  0  0  0  0  0  0  0  0  0  0  0
   -5.7661    2.7858    0.0000 C   0  0  0  0  0  0  0  0  0  0  0  0
   -7.9977   -0.9863    0.0000 C   0  0  0  0  0  0  0  0  0  0  0  0
   -4.2975    1.0726    0.0000 C   0  0  0  0  0  0  0  0  0  0  0  0
   -3.6066   -1.0150    0.0000 C   0  0  0  0  0  0  0  0  0  0  0  0
   -5.0319    2.3684    0.0000 C   0  0  0  0  0  0  0  0  0  0  0  0
   -7.2635   -1.4037    0.0000 C   0  0  0  0  0  0  0  0  0  0  0  0
   -4.3263   -1.4325    0.0000 C   0  0  0  0  0  0  0  0  0  0  0  0
    4.4991   -0.7991    0.0000 C   0  0  0  0  0  0  0  0  0  0  0  0
    6.6300    0.4391    0.0000 C   0  0  0  0  0  0  0  0  0  0  0  0
    7.3354   -2.3972    0.0000 C   0  0  0  0  0  0  0  0  0  0  0  0
    4.5279   -2.4115    0.0000 C   0  0  0  0  0  0  0  0  0  0  0  0
    5.2334    0.4247    0.0000 C   0  0  0  0  0  0  0  0  0  0  0  0
    6.6300    1.2310    0.0000 C   0  0  0  0  0  0  0  0  0  0  0  0
    5.9102    1.6341    0.0000 C   0  0  0  0  0  0  0  0  0  0  0  0
    5.2334    1.2454    0.0000 C   0  0  0  0  0  0  0  0  0  0  0  0
    8.0265   -2.0085    0.0000 C   0  0  0  0  0  0  0  0  0  0  0  0
   -2.2676   -2.0229    0.0000 C   0  0  0  0  0  0  0  0  0  0  0  0
    3.3042   -3.1026    0.0000 C   0  0  0  0  0  0  0  0  0  0  0  0
    3.3042   -1.7205    0.0000 C   0  0  0  0  0  0  0  0  0  0  0  0
    8.0409   -3.6210    0.0000 C   0  0  0  0  0  0  0  0  0  0  0  0
    8.7320   -2.4115    0.0000 C   0  0  0  0  0  0  0  0  0  0  0  0
    2.4836   -3.1026    0.0000 C   0  0  0  0  0  0  0  0  0  0  0  0
    2.4980   -1.7061    0.0000 C   0  0  0  0  0  0  0  0  0  0  0  0
    8.7320   -3.2177    0.0000 C   0  0  0  0  0  0  0  0  0  0  0  0
    3.0882   -0.7991    0.0000 C   0  0  0  0  0  0  0  0  0  0  0  0
    1.0726   -2.1524    0.0000 C   0  0  0  0  0  0  0  0  0  0  0  0
    0.3815   -2.5411    0.0000 C   0  0  0  0  0  0  0  0  0  0  0  0
   -0.8998   -2.3684    0.0000 C   0  0  0  0  0  0  0  0  0  0  0  0
   -0.2088   -1.9797    0.0000 C   0  0  0  0  0  0  0  0  0  0  0  0
  1 45  1  0  0  0  0
  2 53  2  0  0  0  0
  3 50  1  0  0  0  0
  4 23  1  0  0  0  0
  4 24  1  0  0  0  0
  5 44  1  0  0  0  0
  5 61  1  0  0  0  0
  6 37  2  0  0  0  0
  7 38  1  0  0  0  0
  8 39  2  0  0  0  0
  9 39  1  0  0  0  0
 10 44  2  0  0  0  0
 11 62  2  0  0  0  0
 12 26  1  0  0  0  0
 12 36  2  0  0  0  0
 13 33  1  0  0  0  0
 13 36  1  0  0  0  0
 14 47  1  0  0  0  0
 14 54  1  0  0  0  0
 14 55  1  0  0  0  0
 15 40  1  0  0  0  0
 15 53  1  0  0  0  0
 16 46  2  0  0  0  0
 16 56  1  0  0  0  0
 17 58  1  0  0  0  0
 17 59  1  0  0  0  0
 17 62  1  0  0  0  0
 18 53  1  0  0  0  0
 18 64  1  0  0  0  0
 19 20  2  0  0  0  0
 19 21  1  0  0  0  0
 19 22  1  0  0  0  0
 20 23  1  0  0  0  0
 20 27  1  0  0  0  0
 21 24  2  0  0  0  0
 21 28  1  0  0  0  0
 22 25  1  0  0  0  0
 22 32  2  0  0  0  0
 23 30  2  0  0  0  0
 24 31  1  0  0  0  0
 25 35  2  0  0  0  0
 25 39  1  0  0  0  0
 26 29  1  0  0  0  0
 26 34  1  0  0  0  0
 27 41  2  0  0  0  0
 28 42  2  0  0  0  0
 29 33  2  0  0  0  0
 29 44  1  0  0  0  0
 30 37  1  0  0  0  0
 31 38  2  0  0  0  0
 32 43  1  0  0  0  0
 33 47  1  0  0  0  0
 34 45  2  0  0  0  0
 34 48  1  0  0  0  0
 35 40  1  0  0  0  0
 36 46  1  0  0  0  0
 37 41  1  0  0  0  0
 38 42  1  0  0  0  0
 40 43  2  0  0  0  0
 45 49  1  0  0  0  0
 46 52  1  0  0  0  0
 48 51  2  0  0  0  0
 49 50  2  0  0  0  0
 50 51  1  0  0  0  0
 52 57  2  0  0  0  0
 54 58  1  0  0  0  0
 55 59  1  0  0  0  0
 56 60  2  0  0  0  0
 57 60  1  0  0  0  0
 62 63  1  0  0  0  0
 63 65  1  0  0  0  0
 64 65  1  0  0  0  0
M  END
> <PUBCHEM_COMPOUND_ID_TYPE>
0

> <PUBCHEM_TOTAL_CHARGE>
0

> <PUBCHEM_SUBSTANCE_ID>
310948019

> <PUBCHEM_SUBSTANCE_VERSION>
1

> <PUBCHEM_EXT_DATASOURCE_NAME>
4488

> <PUBCHEM_EXT_DATASOURCE_REGID>
SCHEMBL16126193

> <PUBCHEM_SUBSTANCE_COMMENT>
InChI=1S/C47H41ClFN7O8S/c1-63-46(62)42-37(53-44(36-5-2-3-15-50-36)54-43(42)31-11-7-26(49)21-35(31)48)25-55-17-19-56(20-18-55)40(59)6-4-16-51-47(65)52-27-8-12-30(34(22-27)45(60)61)41-32-13-9-28(57)23-38(32)64-39-24-29(58)10-14-33(39)41/h2-3,5,7-15,21-24,43,57H,4,6,16-20,25H2,1H3,(H,53,54)(H,60,61)(H2,51,52,65)
InChIKey=ZFSVMVVYMSRCHL-UHFFFAOYSA-N

> <PUBCHEM_SUBSTANCE_SYNONYM>
SCHEMBL16126193

> <PUBCHEM_XREF_EXT_ID>
SCHEMBL16126193

> <PUBCHEM_EXT_DATASOURCE_URL>
https://www.surechembl.org/

> <PUBCHEM_EXT_SUBSTANCE_URL>
https://www.surechembl.org/chemical/SCHEMBL16126193

> <PUBCHEM_CID_ASSOCIATIONS>
86275763  1

> <PUBCHEM_COORDINATE_TYPE>
1
3

$$$$
