310937424
  -OEChem-07211613022D

 38 43  0     1  0  0  0  0  0999 V2000
   -5.1605   -0.2424    0.0000 F   0  0  0  0  0  0  0  0  0  0  0  0
   -4.7655   -3.7860    0.0000 F   0  0  0  0  0  0  0  0  0  0  0  0
  -12.2250   -0.6125    0.0000 F   0  0  0  0  0  0  0  0  0  0  0  0
  -11.3183    0.1217    0.0000 F   0  0  0  0  0  0  0  0  0  0  0  0
  -12.9592    0.2942    0.0000 F   0  0  0  0  0  0  0  0  0  0  0  0
  -11.2988    1.3640    0.0000 O   0  0  0  0  0  0  0  0  0  0  0  0
  -12.7200    1.5133    0.0000 O   0  0  0  0  0  0  0  0  0  0  0  0
   -6.2646   -1.4686    0.0000 N   0  0  0  0  0  0  0  0  0  0  0  0
   -9.5657    3.5120    0.0000 N   0  0  0  0  0  0  0  0  0  0  0  0
   -7.3265   -0.5125    0.0000 N   0  0  0  0  0  0  0  0  0  0  0  0
   -6.2646   -2.8035    0.0000 N   0  0  0  0  0  0  0  0  0  0  0  0
  -11.8801    2.6694    0.0000 N   0  0  0  0  0  0  0  0  0  0  0  0
   -8.3884    0.4437    0.0000 N   0  0  0  0  0  0  0  0  0  0  0  0
   -7.0294    0.8853    0.0000 N   0  0  0  0  0  0  0  0  0  0  0  0
  -10.4589    2.5200    0.0000 C   0  0  0  0  0  0  0  0  0  0  0  0
   -9.7053    2.1845    0.0000 C   0  0  0  0  0  0  0  0  0  0  0  0
  -10.3727    3.3405    0.0000 C   0  0  0  0  0  0  0  0  0  0  0  0
   -9.1532    2.7976    0.0000 C   0  0  0  0  0  0  0  0  0  0  0  0
  -11.2126    2.1845    0.0000 C   0  0  3  0  0  0  0  0  0  0  0  0
   -5.4800   -1.7235    0.0000 C   0  0  0  0  0  0  0  0  0  0  0  0
   -6.5195   -0.6840    0.0000 C   0  0  0  0  0  0  0  0  0  0  0  0
   -5.4800   -2.5485    0.0000 C   0  0  0  0  0  0  0  0  0  0  0  0
   -9.4503    1.3998    0.0000 C   0  0  0  0  0  0  0  0  0  0  0  0
   -8.6434    1.2283    0.0000 C   0  0  0  0  0  0  0  0  0  0  0  0
   -8.3463    2.6260    0.0000 C   0  0  0  0  0  0  0  0  0  0  0  0
   -6.7495   -2.1360    0.0000 C   0  0  0  0  0  0  0  0  0  0  0  0
  -11.0401    3.8254    0.0000 C   0  0  0  0  0  0  0  0  0  0  0  0
   -7.5814    0.2722    0.0000 C   0  0  0  0  0  0  0  0  0  0  0  0
   -5.9675   -0.0709    0.0000 C   0  0  0  0  0  0  0  0  0  0  0  0
   -4.7655   -2.9610    0.0000 C   0  0  0  0  0  0  0  0  0  0  0  0
   -8.0913    1.8414    0.0000 C   0  0  0  0  0  0  0  0  0  0  0  0
   -4.7655   -1.3110    0.0000 C   0  0  0  0  0  0  0  0  0  0  0  0
  -11.7938    3.4899    0.0000 C   0  0  0  0  0  0  0  0  0  0  0  0
  -12.0525    1.0284    0.0000 C   0  0  0  0  0  0  0  0  0  0  0  0
   -6.2224    0.7137    0.0000 C   0  0  0  0  0  0  0  0  0  0  0  0
   -4.0510   -2.5485    0.0000 C   0  0  0  0  0  0  0  0  0  0  0  0
   -4.0510   -1.7235    0.0000 C   0  0  0  0  0  0  0  0  0  0  0  0
  -12.1388    0.2079    0.0000 C   0  0  0  0  0  0  0  0  0  0  0  0
  1 29  1  0  0  0  0
  2 30  1  0  0  0  0
  3 38  1  0  0  0  0
  4 38  1  0  0  0  0
  5 38  1  0  0  0  0
  6 19  1  0  0  0  0
  6 34  1  0  0  0  0
  7 34  2  0  0  0  0
  8 20  1  0  0  0  0
  8 21  1  0  0  0  0
  8 26  1  0  0  0  0
  9 17  1  0  0  0  0
  9 18  1  0  0  0  0
 10 21  1  0  0  0  0
 10 28  2  0  0  0  0
 11 22  1  0  0  0  0
 11 26  2  0  0  0  0
 12 19  1  0  0  0  0
 12 33  1  0  0  0  0
 13 24  1  0  0  0  0
 13 28  1  0  0  0  0
 14 28  1  0  0  0  0
 14 35  2  0  0  0  0
 15 16  1  0  0  0  0
 15 17  2  0  0  0  0
 15 19  1  0  0  0  0
 16 18  1  0  0  0  0
 16 23  2  0  0  0  0
 17 27  1  0  0  0  0
 18 25  2  0  0  0  0
 20 22  2  0  0  0  0
 20 32  1  0  0  0  0
 21 29  2  0  0  0  0
 22 30  1  0  0  0  0
 23 24  1  0  0  0  0
 24 31  2  0  0  0  0
 25 31  1  0  0  0  0
 27 33  1  0  0  0  0
 29 35  1  0  0  0  0
 30 36  2  0  0  0  0
 32 37  2  0  0  0  0
 34 38  1  0  0  0  0
 36 37  1  0  0  0  0
M  END
> <PUBCHEM_COMPOUND_ID_TYPE>
0

> <PUBCHEM_TOTAL_CHARGE>
0

> <PUBCHEM_SUBSTANCE_ID>
310937424

> <PUBCHEM_SUBSTANCE_VERSION>
1

> <PUBCHEM_EXT_DATASOURCE_NAME>
4488

> <PUBCHEM_EXT_DATASOURCE_REGID>
SCHEMBL16115183

> <PUBCHEM_SUBSTANCE_COMMENT>
InChI=1S/C24H16F5N7O2/c25-13-2-1-3-17-19(13)32-10-36(17)20-14(26)9-31-23(35-20)33-11-4-5-15-12(8-11)18-16(34-15)6-7-30-21(18)38-22(37)24(27,28)29/h1-5,8-10,21,30,34H,6-7H2,(H,31,33,35)
InChIKey=VWQKNAGGRUDQDZ-UHFFFAOYSA-N

> <PUBCHEM_SUBSTANCE_SYNONYM>
SCHEMBL16115183

> <PUBCHEM_XREF_EXT_ID>
SCHEMBL16115183

> <PUBCHEM_EXT_DATASOURCE_URL>
https://www.surechembl.org/

> <PUBCHEM_EXT_SUBSTANCE_URL>
https://www.surechembl.org/chemical/SCHEMBL16115183

> <PUBCHEM_CID_ASSOCIATIONS>
117605178  1

> <PUBCHEM_COORDINATE_TYPE>
1
3

$$$$
