310939559
  -OEChem-07211613022D

 35 38  0     1  0  0  0  0  0999 V2000
   -1.4289    2.0785    0.0000 O   0  0  0  0  0  0  0  0  0  0  0  0
    2.1080   -2.7304    0.0000 O   0  0  0  0  0  0  0  0  0  0  0  0
   -2.8579    1.2535    0.0000 O   0  0  0  0  0  0  0  0  0  0  0  0
    2.1434    2.4910    0.0000 N   0  0  0  0  0  0  0  0  0  0  0  0
    1.4289    1.2535    0.0000 N   0  0  0  0  0  0  0  0  0  0  0  0
    2.1434    0.0160    0.0000 N   0  0  0  0  0  0  0  0  0  0  0  0
    5.0013    2.4910    0.0000 N   0  0  0  0  0  0  0  0  0  0  0  0
    4.2868    3.7208    0.0000 N   0  0  0  0  0  0  0  0  0  0  0  0
    3.5724   -2.4590    0.0000 N   0  0  0  0  0  0  0  0  0  0  0  0
   -4.2868    2.0785    0.0000 N   0  0  0  0  0  0  0  0  0  0  0  0
    1.4289    2.0785    0.0000 C   0  0  0  0  0  0  0  0  0  0  0  0
    2.8579    2.0785    0.0000 C   0  0  0  0  0  0  0  0  0  0  0  0
    0.7145    2.4910    0.0000 C   0  0  0  0  0  0  0  0  0  0  0  0
    2.1434    0.8410    0.0000 C   0  0  0  0  0  0  0  0  0  0  0  0
    3.5724    2.4910    0.0000 C   0  0  0  0  0  0  0  0  0  0  0  0
    2.8579    1.2535    0.0000 C   0  0  0  0  0  0  0  0  0  0  0  0
    0.0000    2.0785    0.0000 C   0  0  0  0  0  0  0  0  0  0  0  0
    0.7145    3.3160    0.0000 C   0  0  0  0  0  0  0  0  0  0  0  0
   -0.7145    2.4910    0.0000 C   0  0  0  0  0  0  0  0  0  0  0  0
    4.2868    2.0785    0.0000 C   0  0  0  0  0  0  0  0  0  0  0  0
    3.5724    3.3160    0.0000 C   0  0  0  0  0  0  0  0  0  0  0  0
    0.0000    3.7285    0.0000 C   0  0  0  0  0  0  0  0  0  0  0  0
   -0.7145    3.3160    0.0000 C   0  0  0  0  0  0  0  0  0  0  0  0
    2.8579   -0.3965    0.0000 C   0  0  0  0  0  0  0  0  0  0  0  0
    4.9968    3.3083    0.0000 C   0  0  0  0  0  0  0  0  0  0  0  0
    2.9049   -2.9439    0.0000 C   0  0  0  0  0  0  0  0  0  0  0  0
    2.8579   -1.2215    0.0000 C   0  0  0  0  0  0  0  0  0  0  0  0
    3.5724   -1.6340    0.0000 C   0  0  0  0  0  0  0  0  0  0  0  0
   -2.1434    2.4910    0.0000 C   0  0  0  0  0  0  0  0  0  0  0  0
    4.2398   -2.9439    0.0000 C   0  0  0  0  0  0  0  0  0  0  0  0
    3.1599   -3.7285    0.0000 C   0  0  0  0  0  0  0  0  0  0  0  0
    3.9849   -3.7285    0.0000 C   0  0  0  0  0  0  0  0  0  0  0  0
   -2.8579    2.0785    0.0000 C   0  0  3  0  0  0  0  0  0  0  0  0
   -3.5724    2.4910    0.0000 C   0  0  0  0  0  0  0  0  0  0  0  0
   -5.0013    2.4910    0.0000 C   0  0  0  0  0  0  0  0  0  0  0  0
  1 19  1  0  0  0  0
  1 29  1  0  0  0  0
  2 26  2  0  0  0  0
  3 33  1  0  0  0  0
  4 11  2  0  0  0  0
  4 12  1  0  0  0  0
  5 11  1  0  0  0  0
  5 14  2  0  0  0  0
  6 14  1  0  0  0  0
  6 24  1  0  0  0  0
  7 20  2  0  0  0  0
  7 25  1  0  0  0  0
  8 21  1  0  0  0  0
  8 25  2  0  0  0  0
  9 26  1  0  0  0  0
  9 28  1  0  0  0  0
  9 30  1  0  0  0  0
 10 34  1  0  0  0  0
 10 35  1  0  0  0  0
 11 13  1  0  0  0  0
 12 15  1  0  0  0  0
 12 16  2  0  0  0  0
 13 17  2  0  0  0  0
 13 18  1  0  0  0  0
 14 16  1  0  0  0  0
 15 20  1  0  0  0  0
 15 21  2  0  0  0  0
 17 19  1  0  0  0  0
 18 22  2  0  0  0  0
 19 23  2  0  0  0  0
 22 23  1  0  0  0  0
 24 27  1  0  0  0  0
 26 31  1  0  0  0  0
 27 28  1  0  0  0  0
 29 33  1  0  0  0  0
 30 32  1  0  0  0  0
 31 32  1  0  0  0  0
 33 34  1  0  0  0  0
M  END
> <PUBCHEM_COMPOUND_ID_TYPE>
0

> <PUBCHEM_TOTAL_CHARGE>
0

> <PUBCHEM_SUBSTANCE_ID>
310939559

> <PUBCHEM_SUBSTANCE_VERSION>
1

> <PUBCHEM_EXT_DATASOURCE_NAME>
4488

> <PUBCHEM_EXT_DATASOURCE_REGID>
SCHEMBL16117488

> <PUBCHEM_SUBSTANCE_COMMENT>
InChI=1S/C25H31N7O3/c1-26-15-20(33)16-35-21-6-2-5-18(11-21)25-30-22(19-13-27-17-28-14-19)12-23(31-25)29-8-4-10-32-9-3-7-24(32)34/h2,5-6,11-14,17,20,26,33H,3-4,7-10,15-16H2,1H3,(H,29,30,31)
InChIKey=VUHIVCIIXDPGDE-UHFFFAOYSA-N

> <PUBCHEM_SUBSTANCE_SYNONYM>
SCHEMBL16117488

> <PUBCHEM_XREF_EXT_ID>
SCHEMBL16117488

> <PUBCHEM_EXT_DATASOURCE_URL>
https://www.surechembl.org/

> <PUBCHEM_EXT_SUBSTANCE_URL>
https://www.surechembl.org/chemical/SCHEMBL16117488

> <PUBCHEM_CID_ASSOCIATIONS>
85472436  1

> <PUBCHEM_COORDINATE_TYPE>
1
3

$$$$
