310939892
  -OEChem-07211613022D

 22 24  0     1  0  0  0  0  0999 V2000
   -3.9508   -0.3572    0.0000 Cl  0  0  0  0  0  0  0  0  0  0  0  0
   -3.1258   -1.7862    0.0000 Cl  0  0  0  0  0  0  0  0  0  0  0  0
   -1.8883    1.7862    0.0000 O   0  0  0  0  0  0  0  0  0  0  0  0
    3.1258    1.7862    0.0000 O   0  0  0  0  0  0  0  0  0  0  0  0
   -0.6508    1.0717    0.0000 N   0  0  0  0  0  0  0  0  0  0  0  0
    1.8883    1.0717    0.0000 N   0  0  0  0  0  0  0  0  0  0  0  0
    0.6187    0.6592    0.0000 C   0  0  3  0  0  0  0  0  0  0  0  0
    0.6187    1.4842    0.0000 C   0  0  3  0  0  0  0  0  0  0  0  0
   -0.1659    1.7391    0.0000 C   0  0  0  0  0  0  0  0  0  0  0  0
   -0.1659    0.4043    0.0000 C   0  0  0  0  0  0  0  0  0  0  0  0
   -1.4758    1.0717    0.0000 C   0  0  0  0  0  0  0  0  0  0  0  0
    1.4034    0.4043    0.0000 C   0  0  0  0  0  0  0  0  0  0  0  0
    1.4034    1.7391    0.0000 C   0  0  0  0  0  0  0  0  0  0  0  0
   -1.8883    0.3572    0.0000 C   0  0  0  0  0  0  0  0  0  0  0  0
    2.7133    1.0717    0.0000 C   0  0  0  0  0  0  0  0  0  0  0  0
   -2.7133    0.3572    0.0000 C   0  0  0  0  0  0  0  0  0  0  0  0
   -1.4758   -0.3572    0.0000 C   0  0  0  0  0  0  0  0  0  0  0  0
   -3.1258   -0.3572    0.0000 C   0  0  0  0  0  0  0  0  0  0  0  0
   -2.7133   -1.0717    0.0000 C   0  0  0  0  0  0  0  0  0  0  0  0
   -1.8883   -1.0717    0.0000 C   0  0  0  0  0  0  0  0  0  0  0  0
    3.1258    0.3572    0.0000 C   0  0  0  0  0  0  0  0  0  0  0  0
    3.9508    0.3572    0.0000 C   0  0  0  0  0  0  0  0  0  0  0  0
  1 18  1  0  0  0  0
  2 19  1  0  0  0  0
  3 11  2  0  0  0  0
  4 15  2  0  0  0  0
  5  9  1  0  0  0  0
  5 10  1  0  0  0  0
  5 11  1  0  0  0  0
  6 12  1  0  0  0  0
  6 13  1  0  0  0  0
  6 15  1  0  0  0  0
  7  8  1  0  0  0  0
  7 10  1  0  0  0  0
  7 12  1  0  0  0  0
  8  9  1  0  0  0  0
  8 13  1  0  0  0  0
 11 14  1  0  0  0  0
 14 16  2  0  0  0  0
 14 17  1  0  0  0  0
 15 21  1  0  0  0  0
 16 18  1  0  0  0  0
 17 20  2  0  0  0  0
 18 19  2  0  0  0  0
 19 20  1  0  0  0  0
 21 22  2  0  0  0  0
M  END
> <PUBCHEM_COMPOUND_ID_TYPE>
0

> <PUBCHEM_TOTAL_CHARGE>
0

> <PUBCHEM_SUBSTANCE_ID>
310939892

> <PUBCHEM_SUBSTANCE_VERSION>
1

> <PUBCHEM_EXT_DATASOURCE_NAME>
4488

> <PUBCHEM_EXT_DATASOURCE_REGID>
SCHEMBL16117822

> <PUBCHEM_SUBSTANCE_COMMENT>
InChI=1S/C16H16Cl2N2O2/c1-2-15(21)19-6-11-8-20(9-12(11)7-19)16(22)10-3-4-13(17)14(18)5-10/h2-5,11-12H,1,6-9H2
InChIKey=CUKPNHRFIYRTQA-UHFFFAOYSA-N

> <PUBCHEM_SUBSTANCE_SYNONYM>
SCHEMBL16117822

> <PUBCHEM_XREF_EXT_ID>
SCHEMBL16117822

> <PUBCHEM_EXT_DATASOURCE_URL>
https://www.surechembl.org/

> <PUBCHEM_EXT_SUBSTANCE_URL>
https://www.surechembl.org/chemical/SCHEMBL16117822

> <PUBCHEM_CID_ASSOCIATIONS>
117607106  1

> <PUBCHEM_COORDINATE_TYPE>
1
3

$$$$
