310937117
  -OEChem-07211613022D

 17 18  0     1  0  0  0  0  0999 V2000
    0.0000   -2.0856    0.0000 Br  0  0  0  0  0  0  0  0  0  0  0  0
    2.1983   -0.7891    0.0000 O   0  0  0  0  0  0  0  0  0  0  0  0
    4.3026   -1.2588    0.0000 O   0  0  0  0  0  0  0  0  0  0  0  0
    5.0166   -2.4989    0.0000 O   0  0  0  0  0  0  0  0  0  0  0  0
    3.5511   -0.7891    0.0000 N   0  0  0  0  0  0  0  0  0  0  0  0
    2.8747   -2.0856    0.0000 C   0  0  3  0  0  0  0  0  0  0  0  0
    2.8747   -1.2588    0.0000 C   0  0  0  0  0  0  0  0  0  0  0  0
    2.1607   -2.4989    0.0000 C   0  0  0  0  0  0  0  0  0  0  0  0
    3.5886   -2.4989    0.0000 C   0  0  0  0  0  0  0  0  0  0  0  0
    1.4279   -2.1044    0.0000 C   0  0  0  0  0  0  0  0  0  0  0  0
    2.1419   -3.3444    0.0000 C   0  0  0  0  0  0  0  0  0  0  0  0
    0.7140   -2.4989    0.0000 C   0  0  0  0  0  0  0  0  0  0  0  0
    2.4613    0.0000    0.0000 C   0  0  0  0  0  0  0  0  0  0  0  0
    3.2880    0.0000    0.0000 C   0  0  0  0  0  0  0  0  0  0  0  0
    4.3026   -2.0856    0.0000 C   0  0  0  0  0  0  0  0  0  0  0  0
    1.4279   -3.7577    0.0000 C   0  0  0  0  0  0  0  0  0  0  0  0
    0.7140   -3.3444    0.0000 C   0  0  0  0  0  0  0  0  0  0  0  0
  1 12  1  0  0  0  0
  2  7  1  0  0  0  0
  2 13  1  0  0  0  0
  3 15  2  0  0  0  0
  4 15  1  0  0  0  0
  5  7  2  0  0  0  0
  5 14  1  0  0  0  0
  6  7  1  0  0  0  0
  6  8  1  0  0  0  0
  6  9  1  0  0  0  0
  8 10  1  0  0  0  0
  8 11  2  0  0  0  0
  9 15  1  0  0  0  0
 10 12  2  0  0  0  0
 11 16  1  0  0  0  0
 12 17  1  0  0  0  0
 13 14  2  0  0  0  0
 16 17  2  0  0  0  0
M  END
> <PUBCHEM_COMPOUND_ID_TYPE>
0

> <PUBCHEM_TOTAL_CHARGE>
0

> <PUBCHEM_SUBSTANCE_ID>
310937117

> <PUBCHEM_SUBSTANCE_VERSION>
1

> <PUBCHEM_EXT_DATASOURCE_NAME>
4488

> <PUBCHEM_EXT_DATASOURCE_REGID>
SCHEMBL16114834

> <PUBCHEM_SUBSTANCE_COMMENT>
InChI=1S/C12H10BrNO3/c13-9-3-1-2-8(6-9)10(7-11(15)16)12-14-4-5-17-12/h1-6,10H,7H2,(H,15,16)
InChIKey=USYFANDLGKJRFE-UHFFFAOYSA-N

> <PUBCHEM_SUBSTANCE_SYNONYM>
SCHEMBL16114834

> <PUBCHEM_XREF_EXT_ID>
SCHEMBL16114834

> <PUBCHEM_EXT_DATASOURCE_URL>
https://www.surechembl.org/

> <PUBCHEM_EXT_SUBSTANCE_URL>
https://www.surechembl.org/chemical/SCHEMBL16114834

> <PUBCHEM_CID_ASSOCIATIONS>
117604947  1

> <PUBCHEM_COORDINATE_TYPE>
1
3

$$$$
