310934400
  -OEChem-07211613022D

 39 44  0     1  0  0  0  0  0999 V2000
    5.6317   -7.8218    0.0000 Cl  0  0  0  0  0  0  0  0  0  0  0  0
    2.7768   -3.6762    0.0000 O   0  0  0  0  0  0  0  0  0  0  0  0
    3.4807   -1.6426    0.0000 O   0  0  0  0  0  0  0  0  0  0  0  0
    4.1847   -3.7154    0.0000 N   0  0  0  0  0  0  0  0  0  0  0  0
    2.7768   -6.1792    0.0000 N   0  0  0  0  0  0  0  0  0  0  0  0
    2.7768   -2.8940    0.0000 N   0  0  0  0  0  0  0  0  0  0  0  0
    1.9946   -6.5312    0.0000 N   0  0  0  0  0  0  0  0  0  0  0  0
    1.1733   -0.4693    0.0000 N   0  0  0  0  0  0  0  0  0  0  0  0
    1.4471   -5.9054    0.0000 N   0  0  0  0  0  0  0  0  0  0  0  0
    1.8773   -5.2015    0.0000 N   0  0  0  0  0  0  0  0  0  0  0  0
    0.0000   -1.0951    0.0000 N   0  0  0  0  0  0  0  0  0  0  0  0
    4.1847   -6.1792    0.0000 C   0  0  0  0  0  0  0  0  0  0  0  0
    4.1847   -5.3579    0.0000 C   0  0  0  0  0  0  0  0  0  0  0  0
    3.4807   -6.6094    0.0000 C   0  0  0  0  0  0  0  0  0  0  0  0
    4.1847   -2.8940    0.0000 C   0  0  3  0  0  0  0  0  0  0  0  0
    3.4807   -4.1065    0.0000 C   0  0  0  0  0  0  0  0  0  0  0  0
    3.4807   -4.9277    0.0000 C   0  0  0  0  0  0  0  0  0  0  0  0
    4.8887   -4.9669    0.0000 C   0  0  0  0  0  0  0  0  0  0  0  0
    4.9277   -4.1065    0.0000 C   0  0  0  0  0  0  0  0  0  0  0  0
    4.9277   -6.6094    0.0000 C   0  0  0  0  0  0  0  0  0  0  0  0
    3.4807   -2.4639    0.0000 C   0  0  0  0  0  0  0  0  0  0  0  0
    3.4807   -7.3916    0.0000 C   0  0  0  0  0  0  0  0  0  0  0  0
    4.9277   -7.3916    0.0000 C   0  0  0  0  0  0  0  0  0  0  0  0
    4.9277   -2.4639    0.0000 C   0  0  0  0  0  0  0  0  0  0  0  0
    2.0728   -2.4639    0.0000 C   0  0  0  0  0  0  0  0  0  0  0  0
    1.3297   -1.2515    0.0000 C   0  0  0  0  0  0  0  0  0  0  0  0
    4.1847   -7.8218    0.0000 C   0  0  0  0  0  0  0  0  0  0  0  0
    0.5866   -1.6817    0.0000 C   0  0  0  0  0  0  0  0  0  0  0  0
    2.6985   -5.3579    0.0000 C   0  0  0  0  0  0  0  0  0  0  0  0
    2.0728   -1.6817    0.0000 C   0  0  0  0  0  0  0  0  0  0  0  0
    4.9277   -1.6426    0.0000 C   0  0  0  0  0  0  0  0  0  0  0  0
    1.3297   -2.8940    0.0000 C   0  0  0  0  0  0  0  0  0  0  0  0
    0.6258   -2.5030    0.0000 C   0  0  0  0  0  0  0  0  0  0  0  0
    0.3520   -0.3520    0.0000 C   0  0  0  0  0  0  0  0  0  0  0  0
    4.1847   -1.2124    0.0000 C   0  0  0  0  0  0  0  0  0  0  0  0
    5.6317   -1.2124    0.0000 C   0  0  0  0  0  0  0  0  0  0  0  0
    4.1847   -0.4302    0.0000 C   0  0  0  0  0  0  0  0  0  0  0  0
    5.6317   -0.4302    0.0000 C   0  0  0  0  0  0  0  0  0  0  0  0
    4.9277    0.0000    0.0000 C   0  0  0  0  0  0  0  0  0  0  0  0
  1 23  1  0  0  0  0
  2 16  2  0  0  0  0
  3 21  2  0  0  0  0
  4 15  1  0  0  0  0
  4 16  1  0  0  0  0
  4 19  1  0  0  0  0
  5  7  1  0  0  0  0
  5 14  1  0  0  0  0
  5 29  1  0  0  0  0
  6 21  1  0  0  0  0
  6 25  1  0  0  0  0
  7  9  2  0  0  0  0
  8 26  1  0  0  0  0
  8 34  1  0  0  0  0
  9 10  1  0  0  0  0
 10 29  2  0  0  0  0
 11 28  1  0  0  0  0
 11 34  2  0  0  0  0
 12 13  1  0  0  0  0
 12 14  1  0  0  0  0
 12 20  2  0  0  0  0
 13 17  2  0  0  0  0
 13 18  1  0  0  0  0
 14 22  2  0  0  0  0
 15 21  1  0  0  0  0
 15 24  1  0  0  0  0
 16 17  1  0  0  0  0
 18 19  2  0  0  0  0
 20 23  1  0  0  0  0
 22 27  1  0  0  0  0
 23 27  2  0  0  0  0
 24 31  1  0  0  0  0
 25 30  2  0  0  0  0
 25 32  1  0  0  0  0
 26 28  2  0  0  0  0
 26 30  1  0  0  0  0
 28 33  1  0  0  0  0
 31 35  2  0  0  0  0
 31 36  1  0  0  0  0
 32 33  2  0  0  0  0
 35 37  1  0  0  0  0
 36 38  2  0  0  0  0
 37 39  2  0  0  0  0
 38 39  1  0  0  0  0
M  END
> <PUBCHEM_COMPOUND_ID_TYPE>
0

> <PUBCHEM_TOTAL_CHARGE>
0

> <PUBCHEM_SUBSTANCE_ID>
310934400

> <PUBCHEM_SUBSTANCE_VERSION>
1

> <PUBCHEM_EXT_DATASOURCE_NAME>
4488

> <PUBCHEM_EXT_DATASOURCE_REGID>
SCHEMBL16111873

> <PUBCHEM_SUBSTANCE_COMMENT>
InChI=1S/C28H21ClN8O2/c29-20-6-9-25(37-17-32-34-35-37)22(14-20)19-10-11-36(27(38)13-19)26(12-18-4-2-1-3-5-18)28(39)33-21-7-8-23-24(15-21)31-16-30-23/h1-11,13-17,26H,12H2,(H,30,31)(H,33,39)
InChIKey=IKSNTUFCVJRTLQ-UHFFFAOYSA-N

> <PUBCHEM_SUBSTANCE_SYNONYM>
SCHEMBL16111873

> <PUBCHEM_XREF_EXT_ID>
SCHEMBL16111873

> <PUBCHEM_EXT_DATASOURCE_URL>
https://www.surechembl.org/

> <PUBCHEM_EXT_SUBSTANCE_URL>
https://www.surechembl.org/chemical/SCHEMBL16111873

> <PUBCHEM_CID_ASSOCIATIONS>
86300045  1

> <PUBCHEM_COORDINATE_TYPE>
1
3

$$$$
