310949340
  -OEChem-07211613022D

  9  9  0     1  0  0  0  0  0999 V2000
    0.3891    0.1987    0.0000 S   0  0  3  0  0  0  0  0  0  0  0  0
    0.8196    0.9438    0.0000 O   0  0  0  0  0  0  0  0  0  0  0  0
   -0.3726   -0.2483    0.0000 N   0  0  0  0  0  0  0  0  0  0  0  0
    1.1507   -0.2483    0.0000 C   0  0  0  0  0  0  0  0  0  0  0  0
    1.5647   -0.9438    0.0000 C   0  0  0  0  0  0  0  0  0  0  0  0
    2.0117   -0.2318    0.0000 C   0  0  0  0  0  0  0  0  0  0  0  0
   -1.3494    0.1821    0.0000 C   0  0  0  0  0  0  0  0  0  0  0  0
   -1.3494    0.9438    0.0000 C   0  0  0  0  0  0  0  0  0  0  0  0
   -2.0117   -0.2318    0.0000 C   0  0  0  0  0  0  0  0  0  0  0  0
  1  2  2  0  0  0  0
  1  3  1  0  0  0  0
  1  4  1  0  0  0  0
  3  7  1  0  0  0  0
  4  5  1  0  0  0  0
  4  6  1  0  0  0  0
  5  6  1  0  0  0  0
  7  8  2  0  0  0  0
  7  9  1  0  0  0  0
M  END
> <PUBCHEM_COMPOUND_ID_TYPE>
0

> <PUBCHEM_TOTAL_CHARGE>
0

> <PUBCHEM_SUBSTANCE_ID>
310949340

> <PUBCHEM_SUBSTANCE_VERSION>
1

> <PUBCHEM_EXT_DATASOURCE_NAME>
4488

> <PUBCHEM_EXT_DATASOURCE_REGID>
SCHEMBL16127530

> <PUBCHEM_SUBSTANCE_COMMENT>
InChI=1S/C6H11NOS/c1-5(2)7-9(8)6-3-4-6/h6-7H,1,3-4H2,2H3
InChIKey=LQQNQZAWZNCWSH-UHFFFAOYSA-N

> <PUBCHEM_SUBSTANCE_SYNONYM>
SCHEMBL16127530

> <PUBCHEM_XREF_EXT_ID>
SCHEMBL16127530

> <PUBCHEM_EXT_DATASOURCE_URL>
https://www.surechembl.org/

> <PUBCHEM_EXT_SUBSTANCE_URL>
https://www.surechembl.org/chemical/SCHEMBL16127530

> <PUBCHEM_CID_ASSOCIATIONS>
117614815  1

> <PUBCHEM_COORDINATE_TYPE>
1
3

$$$$
