310934695
  -OEChem-07211613022D

 44 50  0     1  0  0  0  0  0999 V2000
    7.0386   -2.8296    0.0000 F   0  0  0  0  0  0  0  0  0  0  0  0
    7.5338   -3.5370    0.0000 F   0  0  0  0  0  0  0  0  0  0  0  0
    2.9004   -7.0740    0.0000 O   0  0  0  0  0  0  0  0  0  0  0  0
    5.9776   -3.9261    0.0000 O   0  0  0  0  0  0  0  0  0  0  0  0
    0.7428   -3.3248    0.0000 N   0  0  3  0  0  0  0  0  0  0  0  0
    0.0000   -2.0868    0.0000 N   0  0  0  0  0  0  0  0  0  0  0  0
    0.7428   -0.8489    0.0000 N   0  0  0  0  0  0  0  0  0  0  0  0
    3.6077   -5.8007    0.0000 N   0  0  0  0  0  0  0  0  0  0  0  0
    5.8007   -4.5981    0.0000 N   0  0  3  0  0  0  0  0  0  0  0  0
    3.6431   -3.3248    0.0000 N   0  0  0  0  0  0  0  0  0  0  0  0
    4.3505   -3.7492    0.0000 N   0  0  0  0  0  0  0  0  0  0  0  0
    1.4502   -2.0868    0.0000 C   0  0  0  0  0  0  0  0  0  0  0  0
    0.7428   -2.5113    0.0000 C   0  0  0  0  0  0  0  0  0  0  0  0
    1.4502   -1.2379    0.0000 C   0  0  0  0  0  0  0  0  0  0  0  0
    2.8650   -2.0868    0.0000 C   0  0  0  0  0  0  0  0  0  0  0  0
    2.1575   -0.8489    0.0000 C   0  0  0  0  0  0  0  0  0  0  0  0
    2.1575   -2.5113    0.0000 C   0  0  0  0  0  0  0  0  0  0  0  0
    1.4502   -4.5981    0.0000 C   0  0  0  0  0  0  0  0  0  0  0  0
    0.7428   -5.0226    0.0000 C   0  0  0  0  0  0  0  0  0  0  0  0
    1.4502   -3.7492    0.0000 C   0  0  0  0  0  0  0  0  0  0  0  0
    2.8650   -1.2379    0.0000 C   0  0  0  0  0  0  0  0  0  0  0  0
    2.1929   -5.8007    0.0000 C   0  0  0  0  0  0  0  0  0  0  0  0
    0.0354   -3.7492    0.0000 C   0  0  0  0  0  0  0  0  0  0  0  0
    3.6077   -2.5113    0.0000 C   0  0  0  0  0  0  0  0  0  0  0  0
    2.1575   -4.9872    0.0000 C   0  0  0  0  0  0  0  0  0  0  0  0
    0.0354   -4.5981    0.0000 C   0  0  0  0  0  0  0  0  0  0  0  0
    0.0000   -1.2379    0.0000 C   0  0  0  0  0  0  0  0  0  0  0  0
    2.9004   -6.2251    0.0000 C   0  0  0  0  0  0  0  0  0  0  0  0
    0.7428   -5.8007    0.0000 C   0  0  0  0  0  0  0  0  0  0  0  0
    1.4502   -6.2251    0.0000 C   0  0  0  0  0  0  0  0  0  0  0  0
    5.0579   -4.9872    0.0000 C   0  0  0  0  0  0  0  0  0  0  0  0
    6.6849   -3.5724    0.0000 C   0  0  0  0  0  0  0  0  0  0  0  0
    5.8715   -3.7492    0.0000 C   0  0  0  0  0  0  0  0  0  0  0  0
    2.1575    0.0000    0.0000 C   0  0  0  0  0  0  0  0  0  0  0  0
    4.3505   -2.0868    0.0000 C   0  0  0  0  0  0  0  0  0  0  0  0
    3.6077   -4.9872    0.0000 C   0  0  0  0  0  0  0  0  0  0  0  0
    4.3505   -6.2251    0.0000 C   0  0  0  0  0  0  0  0  0  0  0  0
    4.3152   -4.5627    0.0000 C   0  0  0  0  0  0  0  0  0  0  0  0
    5.0579   -5.8361    0.0000 C   0  0  0  0  0  0  0  0  0  0  0  0
    6.5435   -4.9165    0.0000 C   0  0  0  0  0  0  0  0  0  0  0  0
    7.1094   -4.3152    0.0000 C   0  0  0  0  0  0  0  0  0  0  0  0
    5.0579   -2.5113    0.0000 C   0  0  0  0  0  0  0  0  0  0  0  0
    5.0933   -3.3602    0.0000 C   0  0  0  0  0  0  0  0  0  0  0  0
    6.5435   -3.3248    0.0000 C   0  0  0  0  0  0  0  0  0  0  0  0
  1 32  1  0  0  0  0
  2 32  1  0  0  0  0
  3 28  2  0  0  0  0
  4 43  1  0  0  0  0
  4 44  1  0  0  0  0
  5 13  1  0  0  0  0
  5 20  1  0  0  0  0
  5 23  1  0  0  0  0
  6 13  1  0  0  0  0
  6 27  2  0  0  0  0
  7 14  2  0  0  0  0
  7 27  1  0  0  0  0
  8 28  1  0  0  0  0
  8 36  1  0  0  0  0
  8 37  1  0  0  0  0
  9 31  1  0  0  0  0
  9 33  1  0  0  0  0
  9 40  1  0  0  0  0
 10 11  2  0  0  0  0
 10 24  1  0  0  0  0
 11 43  1  0  0  0  0
 12 13  2  0  0  0  0
 12 14  1  0  0  0  0
 12 17  1  0  0  0  0
 14 16  1  0  0  0  0
 15 17  2  0  0  0  0
 15 21  1  0  0  0  0
 15 24  1  0  0  0  0
 16 21  2  0  0  0  0
 16 34  1  0  0  0  0
 18 19  2  0  0  0  0
 18 20  1  0  0  0  0
 18 25  1  0  0  0  0
 19 26  1  0  0  0  0
 19 29  1  0  0  0  0
 22 25  2  0  0  0  0
 22 28  1  0  0  0  0
 22 30  1  0  0  0  0
 23 26  1  0  0  0  0
 24 35  2  0  0  0  0
 29 30  2  0  0  0  0
 31 38  1  0  0  0  0
 31 39  1  0  0  0  0
 32 33  1  0  0  0  0
 32 41  1  0  0  0  0
 35 42  1  0  0  0  0
 36 38  1  0  0  0  0
 37 39  1  0  0  0  0
 40 41  1  0  0  0  0
 42 43  2  0  0  0  0
M  END
> <PUBCHEM_COMPOUND_ID_TYPE>
0

> <PUBCHEM_TOTAL_CHARGE>
0

> <PUBCHEM_SUBSTANCE_ID>
310934695

> <PUBCHEM_SUBSTANCE_VERSION>
1

> <PUBCHEM_EXT_DATASOURCE_NAME>
4488

> <PUBCHEM_EXT_DATASOURCE_REGID>
SCHEMBL16112196

> <PUBCHEM_SUBSTANCE_COMMENT>
InChI=1S/C33H35F2N7O2/c1-21-15-24(28-5-6-29(44-2)39-38-28)17-27-30(21)36-20-37-31(27)41-11-7-22-3-4-23(16-25(22)18-41)32(43)40-12-8-26(9-13-40)42-14-10-33(34,35)19-42/h3-6,15-17,20,26H,7-14,18-19H2,1-2H3
InChIKey=YRYOMJNFNNCKOF-UHFFFAOYSA-N

> <PUBCHEM_SUBSTANCE_SYNONYM>
SCHEMBL16112196

> <PUBCHEM_XREF_EXT_ID>
SCHEMBL16112196

> <PUBCHEM_EXT_DATASOURCE_URL>
https://www.surechembl.org/

> <PUBCHEM_EXT_SUBSTANCE_URL>
https://www.surechembl.org/chemical/SCHEMBL16112196

> <PUBCHEM_CID_ASSOCIATIONS>
117602856  1

> <PUBCHEM_COORDINATE_TYPE>
1
3

$$$$
