310934042
  -OEChem-07211613022D

 38 43  0     1  0  0  0  0  0999 V2000
    5.3370    0.0000    0.0000 Cl  0  0  0  0  0  0  0  0  0  0  0  0
    5.8079   -4.9838    0.0000 O   0  0  0  0  0  0  0  0  0  0  0  0
    4.5914   -4.2774    0.0000 N   0  0  0  0  0  0  0  0  0  0  0  0
    7.0244   -2.8255    0.0000 N   0  0  0  0  0  0  0  0  0  0  0  0
    2.8647   -4.3167    0.0000 N   0  0  0  0  0  0  0  0  0  0  0  0
    2.9039   -5.6902    0.0000 N   0  0  0  0  0  0  0  0  0  0  0  0
    7.8485   -2.9039    0.0000 N   0  0  0  0  0  0  0  0  0  0  0  0
    8.0447   -3.6888    0.0000 N   0  0  0  0  0  0  0  0  0  0  0  0
    7.3384   -4.1205    0.0000 N   0  0  0  0  0  0  0  0  0  0  0  0
    0.0000   -4.0027    0.0000 N   0  0  0  0  0  0  0  0  0  0  0  0
    5.8079   -2.1584    0.0000 C   0  0  0  0  0  0  0  0  0  0  0  0
    4.1597   -4.9838    0.0000 C   0  0  3  0  0  0  0  0  0  0  0  0
    5.3762   -2.8647    0.0000 C   0  0  0  0  0  0  0  0  0  0  0  0
    6.5927   -2.1191    0.0000 C   0  0  0  0  0  0  0  0  0  0  0  0
    3.3356   -4.9838    0.0000 C   0  0  0  0  0  0  0  0  0  0  0  0
    5.3762   -4.2774    0.0000 C   0  0  0  0  0  0  0  0  0  0  0  0
    5.8079   -3.5711    0.0000 C   0  0  0  0  0  0  0  0  0  0  0  0
    4.1597   -3.5711    0.0000 C   0  0  0  0  0  0  0  0  0  0  0  0
    4.5914   -2.8647    0.0000 C   0  0  0  0  0  0  0  0  0  0  0  0
    2.0799   -4.5914    0.0000 C   0  0  0  0  0  0  0  0  0  0  0  0
    5.3762   -1.4127    0.0000 C   0  0  0  0  0  0  0  0  0  0  0  0
    4.5914   -5.6902    0.0000 C   0  0  0  0  0  0  0  0  0  0  0  0
    7.0244   -1.4127    0.0000 C   0  0  0  0  0  0  0  0  0  0  0  0
    5.7686   -0.7064    0.0000 C   0  0  0  0  0  0  0  0  0  0  0  0
    2.0799   -5.4155    0.0000 C   0  0  0  0  0  0  0  0  0  0  0  0
    1.4127   -4.1205    0.0000 C   0  0  0  0  0  0  0  0  0  0  0  0
    6.5927   -0.7064    0.0000 C   0  0  0  0  0  0  0  0  0  0  0  0
    4.1989   -6.3966    0.0000 C   0  0  0  0  0  0  0  0  0  0  0  0
    6.7104   -3.5711    0.0000 C   0  0  0  0  0  0  0  0  0  0  0  0
    0.6672   -4.4737    0.0000 C   0  0  0  0  0  0  0  0  0  0  0  0
    1.4520   -3.2964    0.0000 C   0  0  0  0  0  0  0  0  0  0  0  0
    4.6306   -7.1421    0.0000 C   0  0  0  0  0  0  0  0  0  0  0  0
    3.3749   -6.4358    0.0000 C   0  0  0  0  0  0  0  0  0  0  0  0
    0.8241   -2.8255    0.0000 C   0  0  0  0  0  0  0  0  0  0  0  0
    4.1989   -7.8485    0.0000 C   0  0  0  0  0  0  0  0  0  0  0  0
    2.9824   -7.1421    0.0000 C   0  0  0  0  0  0  0  0  0  0  0  0
    0.0392   -3.1787    0.0000 C   0  0  0  0  0  0  0  0  0  0  0  0
    3.3749   -7.8485    0.0000 C   0  0  0  0  0  0  0  0  0  0  0  0
  1 24  1  0  0  0  0
  2 16  2  0  0  0  0
  3 12  1  0  0  0  0
  3 16  1  0  0  0  0
  3 18  1  0  0  0  0
  4  7  1  0  0  0  0
  4 14  1  0  0  0  0
  4 29  1  0  0  0  0
  5 15  2  0  0  0  0
  5 20  1  0  0  0  0
  6 15  1  0  0  0  0
  6 25  1  0  0  0  0
  7  8  2  0  0  0  0
  8  9  1  0  0  0  0
  9 29  2  0  0  0  0
 10 30  1  0  0  0  0
 10 37  2  0  0  0  0
 11 13  1  0  0  0  0
 11 14  1  0  0  0  0
 11 21  2  0  0  0  0
 12 15  1  0  0  0  0
 12 22  1  0  0  0  0
 13 17  2  0  0  0  0
 13 19  1  0  0  0  0
 14 23  2  0  0  0  0
 16 17  1  0  0  0  0
 18 19  2  0  0  0  0
 20 25  2  0  0  0  0
 20 26  1  0  0  0  0
 21 24  1  0  0  0  0
 22 28  1  0  0  0  0
 23 27  1  0  0  0  0
 24 27  2  0  0  0  0
 26 30  2  0  0  0  0
 26 31  1  0  0  0  0
 28 32  2  0  0  0  0
 28 33  1  0  0  0  0
 31 34  2  0  0  0  0
 32 35  1  0  0  0  0
 33 36  2  0  0  0  0
 34 37  1  0  0  0  0
 35 38  2  0  0  0  0
 36 38  1  0  0  0  0
M  END
> <PUBCHEM_COMPOUND_ID_TYPE>
0

> <PUBCHEM_TOTAL_CHARGE>
0

> <PUBCHEM_SUBSTANCE_ID>
310934042

> <PUBCHEM_SUBSTANCE_VERSION>
1

> <PUBCHEM_EXT_DATASOURCE_NAME>
4488

> <PUBCHEM_EXT_DATASOURCE_REGID>
SCHEMBL16111486

> <PUBCHEM_SUBSTANCE_COMMENT>
InChI=1S/C28H21ClN8O/c29-22-8-9-25(37-18-32-34-35-37)23(15-22)20-10-12-36(27(38)14-20)26(13-19-5-2-1-3-6-19)28-31-17-24(33-28)21-7-4-11-30-16-21/h1-12,14-18,26H,13H2,(H,31,33)
InChIKey=MLIZXZSXXMTQND-UHFFFAOYSA-N

> <PUBCHEM_SUBSTANCE_SYNONYM>
SCHEMBL16111486

> <PUBCHEM_XREF_EXT_ID>
SCHEMBL16111486

> <PUBCHEM_EXT_DATASOURCE_URL>
https://www.surechembl.org/

> <PUBCHEM_EXT_SUBSTANCE_URL>
https://www.surechembl.org/chemical/SCHEMBL16111486

> <PUBCHEM_CID_ASSOCIATIONS>
78425876  1

> <PUBCHEM_COORDINATE_TYPE>
1
3

$$$$
