310929444
  -OEChem-07211613022D

 20 21  0     1  0  0  0  0  0999 V2000
    2.8313    0.0000    0.0000 Cl  0  0  0  0  0  0  0  0  0  0  0  0
    0.0000    0.0000    0.0000 Cl  0  0  0  0  0  0  0  0  0  0  0  0
    0.0000   -1.6560    0.0000 O   0  0  0  0  0  0  0  0  0  0  0  0
    1.4157   -2.4574    0.0000 N   0  0  0  0  0  0  0  0  0  0  0  0
    2.8580   -4.1134    0.0000 N   0  0  3  0  0  0  0  0  0  0  0  0
    1.4157   -1.6293    0.0000 C   0  0  0  0  0  0  0  0  0  0  0  0
    2.1101   -1.2287    0.0000 C   0  0  0  0  0  0  0  0  0  0  0  0
    0.7212   -1.2287    0.0000 C   0  0  0  0  0  0  0  0  0  0  0  0
    2.1368   -0.4007    0.0000 C   0  0  0  0  0  0  0  0  0  0  0  0
    0.6945   -0.4007    0.0000 C   0  0  0  0  0  0  0  0  0  0  0  0
    2.1368   -2.8847    0.0000 C   0  0  0  0  0  0  0  0  0  0  0  0
    1.4157    0.0000    0.0000 C   0  0  0  0  0  0  0  0  0  0  0  0
    2.8313   -1.6293    0.0000 C   0  0  0  0  0  0  0  0  0  0  0  0
    2.8580   -2.4574    0.0000 C   0  0  0  0  0  0  0  0  0  0  0  0
    2.1368   -3.6860    0.0000 C   0  0  0  0  0  0  0  0  0  0  0  0
    0.0000   -2.4841    0.0000 C   0  0  0  0  0  0  0  0  0  0  0  0
    2.8580   -4.9414    0.0000 C   0  0  0  0  0  0  0  0  0  0  0  0
    3.5525   -3.6860    0.0000 C   0  0  0  0  0  0  0  0  0  0  0  0
    3.5525   -5.3421    0.0000 C   0  0  0  0  0  0  0  0  0  0  0  0
    4.2737   -4.9414    0.0000 C   0  0  0  0  0  0  0  0  0  0  0  0
  1  9  1  0  0  0  0
  2 10  1  0  0  0  0
  3  8  1  0  0  0  0
  3 16  1  0  0  0  0
  4  6  2  0  0  0  0
  4 11  1  0  0  0  0
  5 15  1  0  0  0  0
  5 17  1  0  0  0  0
  5 18  1  0  0  0  0
  6  7  1  0  0  0  0
  6  8  1  0  0  0  0
  7  9  1  0  0  0  0
  7 13  2  0  0  0  0
  8 10  2  0  0  0  0
  9 12  2  0  0  0  0
 10 12  1  0  0  0  0
 11 14  2  0  0  0  0
 11 15  1  0  0  0  0
 13 14  1  0  0  0  0
 17 19  1  0  0  0  0
 19 20  3  0  0  0  0
M  END
> <PUBCHEM_COMPOUND_ID_TYPE>
0

> <PUBCHEM_TOTAL_CHARGE>
0

> <PUBCHEM_SUBSTANCE_ID>
310929444

> <PUBCHEM_SUBSTANCE_VERSION>
1

> <PUBCHEM_EXT_DATASOURCE_NAME>
4488

> <PUBCHEM_EXT_DATASOURCE_REGID>
SCHEMBL16106618

> <PUBCHEM_SUBSTANCE_COMMENT>
InChI=1S/C15H14Cl2N2O/c1-4-7-19(2)9-10-5-6-11-12(16)8-13(17)15(20-3)14(11)18-10/h1,5-6,8H,7,9H2,2-3H3
InChIKey=WKGGMMSXXOTXOO-UHFFFAOYSA-N

> <PUBCHEM_SUBSTANCE_SYNONYM>
SCHEMBL16106618

> <PUBCHEM_XREF_EXT_ID>
SCHEMBL16106618

> <PUBCHEM_EXT_DATASOURCE_URL>
https://www.surechembl.org/

> <PUBCHEM_EXT_SUBSTANCE_URL>
https://www.surechembl.org/chemical/SCHEMBL16106618

> <PUBCHEM_CID_ASSOCIATIONS>
86300015  1

> <PUBCHEM_COORDINATE_TYPE>
1
3

$$$$
