310946582
  -OEChem-07211613022D

 23 22  0     1  0  0  0  0  0999 V2000
   -9.1487  -16.1253    0.0000 O   0  0  0  0  0  0  0  0  0  0  0  0
   -7.7198  -16.1253    0.0000 O   0  0  0  0  0  0  0  0  0  0  0  0
   -6.2909  -16.1253    0.0000 O   0  0  0  0  0  0  0  0  0  0  0  0
   -2.7187  -14.8878    0.0000 O   0  0  0  0  0  0  0  0  0  0  0  0
   -9.8632  -14.8878    0.0000 O   0  0  0  0  0  0  0  0  0  0  0  0
   -7.0054  -14.8878    0.0000 O   0  0  0  0  0  0  0  0  0  0  0  0
   -3.4707  -13.5853    0.0000 O   0  5  0  0  0  0  0  0  0  0  0  0
   -4.2228  -14.8878    0.0000 O   0  0  0  0  0  0  0  0  0  0  0  0
   -3.4707  -14.4537    0.0000 N   0  3  0  0  0  0  0  0  0  0  0  0
  -11.2921  -15.7128    0.0000 N   0  0  0  0  0  0  0  0  0  0  0  0
   -8.4343  -15.7128    0.0000 C   0  0  3  0  0  0  0  0  0  0  0  0
   -9.8632  -15.7128    0.0000 C   0  0  0  0  0  0  0  0  0  0  0  0
   -7.0054  -15.7128    0.0000 C   0  0  0  0  0  0  0  0  0  0  0  0
  -10.5777  -16.1253    0.0000 C   0  0  3  0  0  0  0  0  0  0  0  0
   -2.7187  -15.7128    0.0000 C   0  0  3  0  0  0  0  0  0  0  0  0
   -3.4331  -16.1253    0.0000 C   0  0  0  0  0  0  0  0  0  0  0  0
   -5.5765  -15.7128    0.0000 C   0  0  0  0  0  0  0  0  0  0  0  0
   -8.4343  -14.8878    0.0000 C   0  0  0  0  0  0  0  0  0  0  0  0
   -4.1476  -15.7128    0.0000 C   0  0  0  0  0  0  0  0  0  0  0  0
   -4.8620  -16.1253    0.0000 C   0  0  0  0  0  0  0  0  0  0  0  0
   -2.0041  -16.1253    0.0000 C   0  0  0  0  0  0  0  0  0  0  0  0
  -10.5777  -16.9503    0.0000 C   0  0  0  0  0  0  0  0  0  0  0  0
   -1.2898  -15.7128    0.0000 C   0  0  0  0  0  0  0  0  0  0  0  0
  1 11  1  0  0  0  0
  1 12  1  0  0  0  0
  2 11  1  0  0  0  0
  2 13  1  0  0  0  0
  3 13  1  0  0  0  0
  3 17  1  0  0  0  0
  4  9  1  0  0  0  0
  4 15  1  0  0  0  0
  5 12  2  0  0  0  0
  6 13  2  0  0  0  0
  7  9  1  0  0  0  0
  8  9  2  0  0  0  0
 10 14  1  0  0  0  0
 11 18  1  0  0  0  0
 12 14  1  0  0  0  0
 14 22  1  0  0  0  0
 15 16  1  0  0  0  0
 15 21  1  0  0  0  0
 16 19  1  0  0  0  0
 17 20  1  0  0  0  0
 19 20  1  0  0  0  0
 21 23  1  0  0  0  0
M  CHG  2   7  -1   9   1
M  END
> <PUBCHEM_COMPOUND_ID_TYPE>
0

> <PUBCHEM_TOTAL_CHARGE>
0

> <PUBCHEM_SUBSTANCE_ID>
310946582

> <PUBCHEM_SUBSTANCE_VERSION>
1

> <PUBCHEM_EXT_DATASOURCE_NAME>
4488

> <PUBCHEM_EXT_DATASOURCE_REGID>
SCHEMBL16124703

> <PUBCHEM_SUBSTANCE_COMMENT>
InChI=1S/C13H24N2O8/c1-4-11(23-15(18)19)7-5-6-8-20-13(17)22-10(3)21-12(16)9(2)14/h9-11H,4-8,14H2,1-3H3
InChIKey=CNVPJQLZKFPQIV-UHFFFAOYSA-N

> <PUBCHEM_SUBSTANCE_SYNONYM>
SCHEMBL16124703

> <PUBCHEM_XREF_EXT_ID>
SCHEMBL16124703

> <PUBCHEM_EXT_DATASOURCE_URL>
https://www.surechembl.org/

> <PUBCHEM_EXT_SUBSTANCE_URL>
https://www.surechembl.org/chemical/SCHEMBL16124703

> <PUBCHEM_CID_ASSOCIATIONS>
117612482  1

> <PUBCHEM_COORDINATE_TYPE>
1
3

$$$$
