310943941
  -OEChem-07211613022D

 35 39  0     1  0  0  0  0  0999 V2000
    1.0774    3.1058    0.0000 F   0  0  0  0  0  0  0  0  0  0  0  0
    0.3367   -0.6481    0.0000 N   0  0  0  0  0  0  0  0  0  0  0  0
    1.7844   -0.6481    0.0000 N   0  0  0  0  0  0  0  0  0  0  0  0
    1.0605   -1.8938    0.0000 N   0  0  0  0  0  0  0  0  0  0  0  0
    3.2152    2.6513    0.0000 N   0  0  0  0  0  0  0  0  0  0  0  0
   -1.0605    2.6513    0.0000 N   0  0  0  0  0  0  0  0  0  0  0  0
    1.0437   -0.2104    0.0000 C   0  0  0  0  0  0  0  0  0  0  0  0
    1.0774    0.6313    0.0000 C   0  0  0  0  0  0  0  0  0  0  0  0
    0.3198   -1.4561    0.0000 C   0  0  0  0  0  0  0  0  0  0  0  0
    1.7675   -1.4561    0.0000 C   0  0  0  0  0  0  0  0  0  0  0  0
   -0.3703   -1.8769    0.0000 C   0  0  0  0  0  0  0  0  0  0  0  0
    1.7844    1.8769    0.0000 C   0  0  0  0  0  0  0  0  0  0  0  0
    0.3535    1.8769    0.0000 C   0  0  0  0  0  0  0  0  0  0  0  0
    1.7844    1.0521    0.0000 C   0  0  0  0  0  0  0  0  0  0  0  0
    0.3703    1.0521    0.0000 C   0  0  0  0  0  0  0  0  0  0  0  0
    1.0605    2.2978    0.0000 C   0  0  0  0  0  0  0  0  0  0  0  0
    2.5082   -1.8769    0.0000 C   0  0  0  0  0  0  0  0  0  0  0  0
   -1.0774   -1.4730    0.0000 C   0  0  0  0  0  0  0  0  0  0  0  0
   -1.8012   -1.8769    0.0000 C   0  0  0  0  0  0  0  0  0  0  0  0
   -0.3872   -2.7018    0.0000 C   0  0  0  0  0  0  0  0  0  0  0  0
   -2.5251   -1.4561    0.0000 C   0  0  3  0  0  0  0  0  0  0  0  0
    2.5251   -2.7018    0.0000 C   0  0  0  0  0  0  0  0  0  0  0  0
    3.2152   -1.4730    0.0000 C   0  0  0  0  0  0  0  0  0  0  0  0
    2.5082    2.2810    0.0000 C   0  0  0  0  0  0  0  0  0  0  0  0
   -0.3703    2.2810    0.0000 C   0  0  0  0  0  0  0  0  0  0  0  0
   -1.7675   -2.7186    0.0000 C   0  0  0  0  0  0  0  0  0  0  0  0
   -1.0774   -3.1058    0.0000 C   0  0  0  0  0  0  0  0  0  0  0  0
    3.2321   -3.1058    0.0000 C   0  0  0  0  0  0  0  0  0  0  0  0
    3.9390   -1.8769    0.0000 C   0  0  0  0  0  0  0  0  0  0  0  0
   -3.2152   -1.8602    0.0000 C   0  0  0  0  0  0  0  0  0  0  0  0
   -2.5251   -0.6144    0.0000 C   0  0  0  0  0  0  0  0  0  0  0  0
    3.9390   -2.7355    0.0000 C   0  0  0  0  0  0  0  0  0  0  0  0
   -3.9390   -1.4393    0.0000 C   0  0  0  0  0  0  0  0  0  0  0  0
   -3.2152   -0.2104    0.0000 C   0  0  0  0  0  0  0  0  0  0  0  0
   -3.9390   -0.6144    0.0000 C   0  0  0  0  0  0  0  0  0  0  0  0
  1 16  1  0  0  0  0
  2  7  2  0  0  0  0
  2  9  1  0  0  0  0
  3  7  1  0  0  0  0
  3 10  2  0  0  0  0
  4  9  2  0  0  0  0
  4 10  1  0  0  0  0
  5 24  3  0  0  0  0
  6 25  3  0  0  0  0
  7  8  1  0  0  0  0
  8 14  2  0  0  0  0
  8 15  1  0  0  0  0
  9 11  1  0  0  0  0
 10 17  1  0  0  0  0
 11 18  2  0  0  0  0
 11 20  1  0  0  0  0
 12 14  1  0  0  0  0
 12 16  2  0  0  0  0
 12 24  1  0  0  0  0
 13 15  2  0  0  0  0
 13 16  1  0  0  0  0
 13 25  1  0  0  0  0
 17 22  2  0  0  0  0
 17 23  1  0  0  0  0
 18 19  1  0  0  0  0
 19 21  1  0  0  0  0
 19 26  2  0  0  0  0
 20 27  2  0  0  0  0
 21 30  1  0  0  0  0
 21 31  1  0  0  0  0
 22 28  1  0  0  0  0
 23 29  2  0  0  0  0
 26 27  1  0  0  0  0
 28 32  2  0  0  0  0
 29 32  1  0  0  0  0
 30 33  2  0  0  0  0
 31 34  1  0  0  0  0
 33 35  1  0  0  0  0
 34 35  2  0  0  0  0
M  END
> <PUBCHEM_COMPOUND_ID_TYPE>
0

> <PUBCHEM_TOTAL_CHARGE>
0

> <PUBCHEM_SUBSTANCE_ID>
310943941

> <PUBCHEM_SUBSTANCE_VERSION>
1

> <PUBCHEM_EXT_DATASOURCE_NAME>
4488

> <PUBCHEM_EXT_DATASOURCE_REGID>
SCHEMBL16122012

> <PUBCHEM_SUBSTANCE_COMMENT>
InChI=1S/C29H18FN5/c30-26-24(17-31)15-23(16-25(26)18-32)29-34-27(20-10-5-2-6-11-20)33-28(35-29)22-13-7-12-21(14-22)19-8-3-1-4-9-19/h1-8,10-16,19H,9H2
InChIKey=GQVQSKAFOWVRBQ-UHFFFAOYSA-N

> <PUBCHEM_SUBSTANCE_SYNONYM>
SCHEMBL16122012

> <PUBCHEM_XREF_EXT_ID>
SCHEMBL16122012

> <PUBCHEM_EXT_DATASOURCE_URL>
https://www.surechembl.org/

> <PUBCHEM_EXT_SUBSTANCE_URL>
https://www.surechembl.org/chemical/SCHEMBL16122012

> <PUBCHEM_CID_ASSOCIATIONS>
117610249  1

> <PUBCHEM_COORDINATE_TYPE>
1
3

$$$$
