310931909
  -OEChem-07211613022D

 19 20  0     1  0  0  0  0  0999 V2000
    0.0000   -2.7712    0.0000 Br  0  0  0  0  0  0  0  0  0  0  0  0
    2.1947   -1.4631    0.0000 S   0  0  0  0  0  0  0  0  0  0  0  0
    4.3008   -1.9287    0.0000 O   0  0  0  0  0  0  0  0  0  0  0  0
    5.0102   -3.1702    0.0000 O   0  0  0  0  0  0  0  0  0  0  0  0
    3.5471   -1.4631    0.0000 N   0  0  0  0  0  0  0  0  0  0  0  0
    2.8598   -1.9287    0.0000 C   0  0  0  0  0  0  0  0  0  0  0  0
    2.8598   -2.7712    0.0000 C   0  0  3  0  0  0  0  0  0  0  0  0
    2.1504   -3.1702    0.0000 C   0  0  0  0  0  0  0  0  0  0  0  0
    2.4608   -0.6651    0.0000 C   0  0  0  0  0  0  0  0  0  0  0  0
    3.2811   -0.6651    0.0000 C   0  0  0  0  0  0  0  0  0  0  0  0
    3.5914   -3.1702    0.0000 C   0  0  0  0  0  0  0  0  0  0  0  0
    1.4188   -2.7712    0.0000 C   0  0  0  0  0  0  0  0  0  0  0  0
    2.1504   -4.0126    0.0000 C   0  0  0  0  0  0  0  0  0  0  0  0
    0.7094   -3.1702    0.0000 C   0  0  0  0  0  0  0  0  0  0  0  0
    4.3008   -2.7712    0.0000 C   0  0  0  0  0  0  0  0  0  0  0  0
    1.4188   -4.4338    0.0000 C   0  0  0  0  0  0  0  0  0  0  0  0
    0.7094   -4.0126    0.0000 C   0  0  0  0  0  0  0  0  0  0  0  0
    1.9730    0.0000    0.0000 C   0  0  0  0  0  0  0  0  0  0  0  0
    3.7466    0.0000    0.0000 C   0  0  0  0  0  0  0  0  0  0  0  0
  1 14  1  0  0  0  0
  2  6  1  0  0  0  0
  2  9  1  0  0  0  0
  3 15  2  0  0  0  0
  4 15  1  0  0  0  0
  5  6  2  0  0  0  0
  5 10  1  0  0  0  0
  6  7  1  0  0  0  0
  7  8  1  0  0  0  0
  7 11  1  0  0  0  0
  8 12  1  0  0  0  0
  8 13  2  0  0  0  0
  9 10  2  0  0  0  0
  9 18  1  0  0  0  0
 10 19  1  0  0  0  0
 11 15  1  0  0  0  0
 12 14  2  0  0  0  0
 13 16  1  0  0  0  0
 14 17  1  0  0  0  0
 16 17  2  0  0  0  0
M  END
> <PUBCHEM_COMPOUND_ID_TYPE>
0

> <PUBCHEM_TOTAL_CHARGE>
0

> <PUBCHEM_SUBSTANCE_ID>
310931909

> <PUBCHEM_SUBSTANCE_VERSION>
1

> <PUBCHEM_EXT_DATASOURCE_NAME>
4488

> <PUBCHEM_EXT_DATASOURCE_REGID>
SCHEMBL16109244

> <PUBCHEM_SUBSTANCE_COMMENT>
InChI=1S/C14H14BrNO2S/c1-8-9(2)19-14(16-8)12(7-13(17)18)10-4-3-5-11(15)6-10/h3-6,12H,7H2,1-2H3,(H,17,18)
InChIKey=UJQZIOCBKCFRDY-UHFFFAOYSA-N

> <PUBCHEM_SUBSTANCE_SYNONYM>
SCHEMBL16109244

> <PUBCHEM_XREF_EXT_ID>
SCHEMBL16109244

> <PUBCHEM_EXT_DATASOURCE_URL>
https://www.surechembl.org/

> <PUBCHEM_EXT_SUBSTANCE_URL>
https://www.surechembl.org/chemical/SCHEMBL16109244

> <PUBCHEM_CID_ASSOCIATIONS>
86301829  1

> <PUBCHEM_COORDINATE_TYPE>
1
3

$$$$
