310935483
  -OEChem-07211613022D

 25 29  0     1  0  0  0  0  0999 V2000
    1.2804   -3.4724    0.0000 O   0  0  0  0  0  0  0  0  0  0  0  0
    2.7345   -4.3405    0.0000 O   0  0  0  0  0  0  0  0  0  0  0  0
    5.6861   -3.3639    0.0000 N   0  0  0  0  0  0  0  0  0  0  0  0
    6.1852   -2.6911    0.0000 N   0  0  0  0  0  0  0  0  0  0  0  0
    3.4724   -2.2571    0.0000 C   0  0  3  0  0  0  0  0  0  0  0  0
    2.7345   -1.8881    0.0000 C   0  0  3  0  0  0  0  0  0  0  0  0
    1.9966   -2.2571    0.0000 C   0  0  3  0  0  0  0  0  0  0  0  0
    3.4724   -3.0818    0.0000 C   0  0  3  0  0  0  0  0  0  0  0  0
    1.3238   -1.8881    0.0000 C   0  0  3  0  0  0  0  0  0  0  0  0
    1.3238   -1.0200    0.0000 C   0  0  3  0  0  0  0  0  0  0  0  0
    1.9966   -3.0818    0.0000 C   0  0  3  0  0  0  0  0  0  0  0  0
    2.7345   -3.5158    0.0000 C   0  0  3  0  0  0  0  0  0  0  0  0
    4.2103   -1.8881    0.0000 C   0  0  0  0  0  0  0  0  0  0  0  0
    2.7345   -1.0200    0.0000 C   0  0  0  0  0  0  0  0  0  0  0  0
    4.8614   -2.2571    0.0000 C   0  0  0  0  0  0  0  0  0  0  0  0
    1.9966   -0.6293    0.0000 C   0  0  0  0  0  0  0  0  0  0  0  0
    4.2103   -3.5158    0.0000 C   0  0  0  0  0  0  0  0  0  0  0  0
    0.5209   -0.7813    0.0000 C   0  0  0  0  0  0  0  0  0  0  0  0
    4.8614   -3.0818    0.0000 C   0  0  0  0  0  0  0  0  0  0  0  0
    0.5209   -2.1051    0.0000 C   0  0  0  0  0  0  0  0  0  0  0  0
    3.4724   -1.4324    0.0000 C   0  0  0  0  0  0  0  0  0  0  0  0
    0.0000   -1.4540    0.0000 C   0  0  0  0  0  0  0  0  0  0  0  0
    1.2370   -0.1953    0.0000 C   0  0  0  0  0  0  0  0  0  0  0  0
    5.6861   -2.0400    0.0000 C   0  0  0  0  0  0  0  0  0  0  0  0
    0.2604    0.0000    0.0000 C   0  0  0  0  0  0  0  0  0  0  0  0
  1 11  1  0  0  0  0
  2 12  1  0  0  0  0
  3  4  1  0  0  0  0
  3 19  1  0  0  0  0
  4 24  2  0  0  0  0
  5  6  1  0  0  0  0
  5  8  1  0  0  0  0
  5 13  1  0  0  0  0
  5 21  1  0  0  0  0
  6  7  1  0  0  0  0
  6 14  1  0  0  0  0
  7  9  1  0  0  0  0
  7 11  1  0  0  0  0
  8 12  1  0  0  0  0
  8 17  1  0  0  0  0
  9 10  1  0  0  0  0
  9 20  1  0  0  0  0
 10 16  1  0  0  0  0
 10 18  1  0  0  0  0
 10 23  1  0  0  0  0
 11 12  1  0  0  0  0
 13 15  1  0  0  0  0
 14 16  1  0  0  0  0
 15 19  2  0  0  0  0
 15 24  1  0  0  0  0
 17 19  1  0  0  0  0
 18 22  1  0  0  0  0
 18 25  2  0  0  0  0
 20 22  1  0  0  0  0
M  END
> <PUBCHEM_COMPOUND_ID_TYPE>
0

> <PUBCHEM_TOTAL_CHARGE>
0

> <PUBCHEM_SUBSTANCE_ID>
310935483

> <PUBCHEM_SUBSTANCE_VERSION>
1

> <PUBCHEM_EXT_DATASOURCE_NAME>
4488

> <PUBCHEM_EXT_DATASOURCE_REGID>
SCHEMBL16113045

> <PUBCHEM_SUBSTANCE_COMMENT>
InChI=1S/C21H30N2O2/c1-11-4-5-13-17-14(6-7-20(11,13)2)21(3)9-12-10-22-23-16(12)8-15(21)18(24)19(17)25/h10,13-15,17-19,24-25H,1,4-9H2,2-3H3,(H,22,23)
InChIKey=PGJPFXGYKWCALQ-UHFFFAOYSA-N

> <PUBCHEM_SUBSTANCE_SYNONYM>
SCHEMBL16113045

> <PUBCHEM_XREF_EXT_ID>
SCHEMBL16113045

> <PUBCHEM_EXT_DATASOURCE_URL>
https://www.surechembl.org/

> <PUBCHEM_EXT_SUBSTANCE_URL>
https://www.surechembl.org/chemical/SCHEMBL16113045

> <PUBCHEM_CID_ASSOCIATIONS>
20597042  1

> <PUBCHEM_COORDINATE_TYPE>
1
3

$$$$
