310949371
  -OEChem-07211613022D

 28 29  0     1  0  0  0  0  0999 V2000
   -1.4086    1.4335    0.0000 F   0  0  0  0  0  0  0  0  0  0  0  0
   -1.1853    2.2402    0.0000 F   0  0  0  0  0  0  0  0  0  0  0  0
   -0.3909    2.4512    0.0000 F   0  0  0  0  0  0  0  0  0  0  0  0
    2.1533    0.9122    0.0000 O   0  0  0  0  0  0  0  0  0  0  0  0
    4.1267   -0.0434    0.0000 O   0  0  0  0  0  0  0  0  0  0  0  0
    0.6268   -1.7810    0.0000 N   0  0  0  0  0  0  0  0  0  0  0  0
    0.2668   -2.4512    0.0000 N   0  0  0  0  0  0  0  0  0  0  0  0
   -2.0789   -1.3714    0.0000 N   0  0  3  0  0  0  0  0  0  0  0  0
   -4.2260   -0.9618    0.0000 N   0  0  0  0  0  0  0  0  0  0  0  0
    0.3537   -0.3165    0.0000 C   0  0  0  0  0  0  0  0  0  0  0  0
    0.1303   -1.1232    0.0000 C   0  0  0  0  0  0  0  0  0  0  0  0
    1.1480   -0.0930    0.0000 C   0  0  0  0  0  0  0  0  0  0  0  0
   -0.0062    1.0735    0.0000 C   0  0  0  0  0  0  0  0  0  0  0  0
    1.3714    0.7012    0.0000 C   0  0  0  0  0  0  0  0  0  0  0  0
   -0.2172    0.2668    0.0000 C   0  0  0  0  0  0  0  0  0  0  0  0
   -0.6516   -1.3714    0.0000 C   0  0  0  0  0  0  0  0  0  0  0  0
   -0.6144    1.6694    0.0000 C   0  0  0  0  0  0  0  0  0  0  0  0
    0.7758    1.2721    0.0000 C   0  0  0  0  0  0  0  0  0  0  0  0
   -0.6516   -2.1906    0.0000 C   0  0  0  0  0  0  0  0  0  0  0  0
   -1.3714   -0.9618    0.0000 C   0  0  0  0  0  0  0  0  0  0  0  0
    1.7438   -0.6889    0.0000 C   0  0  0  0  0  0  0  0  0  0  0  0
    2.7490    0.3289    0.0000 C   0  0  0  0  0  0  0  0  0  0  0  0
   -2.8111   -0.9618    0.0000 C   0  0  0  0  0  0  0  0  0  0  0  0
   -2.0665   -2.2029    0.0000 C   0  0  0  0  0  0  0  0  0  0  0  0
    3.5433    0.5398    0.0000 C   0  0  0  0  0  0  0  0  0  0  0  0
   -3.5061   -1.3714    0.0000 C   0  0  0  0  0  0  0  0  0  0  0  0
    4.9334    0.1676    0.0000 C   0  0  0  0  0  0  0  0  0  0  0  0
   -4.9334   -1.3838    0.0000 C   0  0  0  0  0  0  0  0  0  0  0  0
  1 17  1  0  0  0  0
  2 17  1  0  0  0  0
  3 17  1  0  0  0  0
  4 14  1  0  0  0  0
  4 22  1  0  0  0  0
  5 25  1  0  0  0  0
  5 27  1  0  0  0  0
  6  7  1  0  0  0  0
  6 11  2  0  0  0  0
  7 19  1  0  0  0  0
  8 20  1  0  0  0  0
  8 23  1  0  0  0  0
  8 24  1  0  0  0  0
  9 26  1  0  0  0  0
  9 28  1  0  0  0  0
 10 11  1  0  0  0  0
 10 12  2  0  0  0  0
 10 15  1  0  0  0  0
 11 16  1  0  0  0  0
 12 14  1  0  0  0  0
 12 21  1  0  0  0  0
 13 15  2  0  0  0  0
 13 17  1  0  0  0  0
 13 18  1  0  0  0  0
 14 18  2  0  0  0  0
 16 19  2  0  0  0  0
 16 20  1  0  0  0  0
 22 25  1  0  0  0  0
 23 26  1  0  0  0  0
M  END
> <PUBCHEM_COMPOUND_ID_TYPE>
0

> <PUBCHEM_TOTAL_CHARGE>
0

> <PUBCHEM_SUBSTANCE_ID>
310949371

> <PUBCHEM_SUBSTANCE_VERSION>
1

> <PUBCHEM_EXT_DATASOURCE_NAME>
4488

> <PUBCHEM_EXT_DATASOURCE_REGID>
SCHEMBL16127563

> <PUBCHEM_SUBSTANCE_COMMENT>
InChI=1S/C19H27F3N4O2/c1-13-16(18-14(11-24-25-18)12-26(3)6-5-23-2)9-15(19(20,21)22)10-17(13)28-8-7-27-4/h9-11,23H,5-8,12H2,1-4H3,(H,24,25)
InChIKey=PEECKYIDPNPSBI-UHFFFAOYSA-N

> <PUBCHEM_SUBSTANCE_SYNONYM>
SCHEMBL16127563

> <PUBCHEM_XREF_EXT_ID>
SCHEMBL16127563

> <PUBCHEM_EXT_DATASOURCE_URL>
https://www.surechembl.org/

> <PUBCHEM_EXT_SUBSTANCE_URL>
https://www.surechembl.org/chemical/SCHEMBL16127563

> <PUBCHEM_CID_ASSOCIATIONS>
85473016  1

> <PUBCHEM_COORDINATE_TYPE>
1
3

$$$$
