310933605
  -OEChem-07211613022D

 17 18  0     1  0  0  0  0  0999 V2000
    2.8694    0.0000    0.0000 Cl  0  0  0  0  0  0  0  0  0  0  0  0
    2.8694   -1.6396    0.0000 F   0  0  0  0  0  0  0  0  0  0  0  0
    0.0000   -2.6900    0.0000 O   0  0  0  0  0  0  0  0  0  0  0  0
    1.9983   -5.1239    0.0000 O   0  0  0  0  0  0  0  0  0  0  0  0
    3.1512   -4.2784    0.0000 O   0  0  0  0  0  0  0  0  0  0  0  0
    1.4347   -2.4595    0.0000 N   0  0  0  0  0  0  0  0  0  0  0  0
    1.4347   -1.6396    0.0000 C   0  0  0  0  0  0  0  0  0  0  0  0
    0.7686   -2.9462    0.0000 C   0  0  0  0  0  0  0  0  0  0  0  0
    2.1520   -1.2297    0.0000 C   0  0  0  0  0  0  0  0  0  0  0  0
    1.8446   -3.7148    0.0000 C   0  0  3  0  0  0  0  0  0  0  0  0
    2.1008   -2.9462    0.0000 C   0  0  0  0  0  0  0  0  0  0  0  0
    1.0248   -3.7148    0.0000 C   0  0  0  0  0  0  0  0  0  0  0  0
    2.1520   -0.4099    0.0000 C   0  0  0  0  0  0  0  0  0  0  0  0
    0.7173   -1.2297    0.0000 C   0  0  0  0  0  0  0  0  0  0  0  0
    2.3313   -4.3809    0.0000 C   0  0  0  0  0  0  0  0  0  0  0  0
    1.4347    0.0000    0.0000 C   0  0  0  0  0  0  0  0  0  0  0  0
    0.7173   -0.4099    0.0000 C   0  0  0  0  0  0  0  0  0  0  0  0
  1 13  1  0  0  0  0
  2  9  1  0  0  0  0
  3  8  2  0  0  0  0
  4 15  2  0  0  0  0
  5 15  1  0  0  0  0
  6  7  1  0  0  0  0
  6  8  1  0  0  0  0
  6 11  1  0  0  0  0
  7  9  1  0  0  0  0
  7 14  2  0  0  0  0
  8 12  1  0  0  0  0
  9 13  2  0  0  0  0
 10 11  1  0  0  0  0
 10 12  1  0  0  0  0
 10 15  1  0  0  0  0
 13 16  1  0  0  0  0
 14 17  1  0  0  0  0
 16 17  2  0  0  0  0
M  END
> <PUBCHEM_COMPOUND_ID_TYPE>
0

> <PUBCHEM_TOTAL_CHARGE>
0

> <PUBCHEM_SUBSTANCE_ID>
310933605

> <PUBCHEM_SUBSTANCE_VERSION>
1

> <PUBCHEM_EXT_DATASOURCE_NAME>
4488

> <PUBCHEM_EXT_DATASOURCE_REGID>
SCHEMBL16111034

> <PUBCHEM_SUBSTANCE_COMMENT>
InChI=1S/C11H9ClFNO3/c12-7-2-1-3-8(10(7)13)14-5-6(11(16)17)4-9(14)15/h1-3,6H,4-5H2,(H,16,17)
InChIKey=DTPSCOKGXYBDJF-UHFFFAOYSA-N

> <PUBCHEM_SUBSTANCE_SYNONYM>
SCHEMBL16111034

> <PUBCHEM_XREF_EXT_ID>
SCHEMBL16111034

> <PUBCHEM_EXT_DATASOURCE_URL>
https://www.surechembl.org/

> <PUBCHEM_EXT_SUBSTANCE_URL>
https://www.surechembl.org/chemical/SCHEMBL16111034

> <PUBCHEM_CID_ASSOCIATIONS>
43122858  1

> <PUBCHEM_COORDINATE_TYPE>
1
3

$$$$
