310946444
  -OEChem-07211613022D

 22 21  0     1  0  0  0  0  0999 V2000
   -0.3872    0.0663    0.0000 O   0  0  0  0  0  0  0  0  0  0  0  0
   -1.6247   -2.5193    0.0000 O   0  0  0  0  0  0  0  0  0  0  0  0
   -0.3872    1.4952    0.0000 O   0  0  0  0  0  0  0  0  0  0  0  0
   -2.3392   -3.7568    0.0000 O   0  0  0  0  0  0  0  0  0  0  0  0
   -1.6247    0.7807    0.0000 N   0  0  0  0  0  0  0  0  0  0  0  0
   -3.7681   -2.9318    0.0000 N   0  0  0  0  0  0  0  0  0  0  0  0
    0.4378    0.0663    0.0000 C   0  0  0  0  0  0  0  0  0  0  0  0
   -3.0536   -2.5193    0.0000 C   0  0  3  0  0  0  0  0  0  0  0  0
   -0.7997    0.7807    0.0000 C   0  0  0  0  0  0  0  0  0  0  0  0
   -2.3392   -2.9318    0.0000 C   0  0  0  0  0  0  0  0  0  0  0  0
   -3.0536   -1.6943    0.0000 C   0  0  0  0  0  0  0  0  0  0  0  0
   -2.3392   -1.2818    0.0000 C   0  0  0  0  0  0  0  0  0  0  0  0
   -1.6247   -0.0443    0.0000 C   0  0  0  0  0  0  0  0  0  0  0  0
    0.4378    0.8913    0.0000 C   0  0  0  0  0  0  0  0  0  0  0  0
    0.4378   -0.7587    0.0000 C   0  0  0  0  0  0  0  0  0  0  0  0
    1.1523   -0.3462    0.0000 C   0  0  0  0  0  0  0  0  0  0  0  0
   -2.3392   -0.4568    0.0000 C   0  0  0  0  0  0  0  0  0  0  0  0
   -0.9102   -2.9318    0.0000 C   0  0  0  0  0  0  0  0  0  0  0  0
   -0.1957   -2.5193    0.0000 C   0  0  0  0  0  0  0  0  0  0  0  0
    0.5187   -2.9318    0.0000 C   0  0  0  0  0  0  0  0  0  0  0  0
    1.2332   -2.5193    0.0000 C   0  0  0  0  0  0  0  0  0  0  0  0
    1.9477   -2.9318    0.0000 C   0  0  0  0  0  0  0  0  0  0  0  0
  1  7  1  0  0  0  0
  1  9  1  0  0  0  0
  2 10  1  0  0  0  0
  2 18  1  0  0  0  0
  3  9  2  0  0  0  0
  4 10  2  0  0  0  0
  5  9  1  0  0  0  0
  5 13  1  0  0  0  0
  6  8  1  0  0  0  0
  7 14  1  0  0  0  0
  7 15  1  0  0  0  0
  7 16  1  0  0  0  0
  8 10  1  0  0  0  0
  8 11  1  0  0  0  0
 11 12  1  0  0  0  0
 12 17  1  0  0  0  0
 13 17  1  0  0  0  0
 18 19  1  0  0  0  0
 19 20  1  0  0  0  0
 20 21  1  0  0  0  0
 21 22  1  0  0  0  0
M  END
> <PUBCHEM_COMPOUND_ID_TYPE>
0

> <PUBCHEM_TOTAL_CHARGE>
0

> <PUBCHEM_SUBSTANCE_ID>
310946444

> <PUBCHEM_SUBSTANCE_VERSION>
1

> <PUBCHEM_EXT_DATASOURCE_NAME>
4488

> <PUBCHEM_EXT_DATASOURCE_REGID>
SCHEMBL16124565

> <PUBCHEM_SUBSTANCE_COMMENT>
InChI=1S/C16H32N2O4/c1-5-6-9-12-21-14(19)13(17)10-7-8-11-18-15(20)22-16(2,3)4/h13H,5-12,17H2,1-4H3,(H,18,20)
InChIKey=NMFSXQIFQJECAO-UHFFFAOYSA-N

> <PUBCHEM_SUBSTANCE_SYNONYM>
SCHEMBL16124565

> <PUBCHEM_XREF_EXT_ID>
SCHEMBL16124565

> <PUBCHEM_EXT_DATASOURCE_URL>
https://www.surechembl.org/

> <PUBCHEM_EXT_SUBSTANCE_URL>
https://www.surechembl.org/chemical/SCHEMBL16124565

> <PUBCHEM_CID_ASSOCIATIONS>
117612356  1

> <PUBCHEM_COORDINATE_TYPE>
1
3

$$$$
