310942126
  -OEChem-07211613022D

 21 23  0     1  0  0  0  0  0999 V2000
   -2.1545    1.8148    0.0000 S   0  0  3  0  0  0  0  0  0  0  0  0
    2.9949   -1.3142    0.0000 F   0  0  0  0  0  0  0  0  0  0  0  0
    2.6194   -2.2440    0.0000 F   0  0  0  0  0  0  0  0  0  0  0  0
    0.0268   -0.2771    0.0000 O   0  0  0  0  0  0  0  0  0  0  0  0
   -2.9949    1.8148    0.0000 O   0  0  0  0  0  0  0  0  0  0  0  0
   -1.4215    2.2261    0.0000 N   0  0  0  0  0  0  0  0  0  0  0  0
   -2.1545    0.9745    0.0000 N   0  0  0  0  0  0  0  0  0  0  0  0
   -1.4394   -0.2771    0.0000 N   0  0  0  0  0  0  0  0  0  0  0  0
   -0.7241    1.0103    0.0000 C   0  0  0  0  0  0  0  0  0  0  0  0
   -0.7063    1.8327    0.0000 C   0  0  0  0  0  0  0  0  0  0  0  0
    0.0268    0.5990    0.0000 C   0  0  0  0  0  0  0  0  0  0  0  0
   -1.4215    0.5990    0.0000 C   0  0  0  0  0  0  0  0  0  0  0  0
    0.7420   -0.6526    0.0000 C   0  0  0  0  0  0  0  0  0  0  0  0
    0.0089    2.2440    0.0000 C   0  0  0  0  0  0  0  0  0  0  0  0
    0.7420    1.0103    0.0000 C   0  0  0  0  0  0  0  0  0  0  0  0
    2.1903   -1.5108    0.0000 C   0  0  0  0  0  0  0  0  0  0  0  0
    0.7420    1.8327    0.0000 C   0  0  0  0  0  0  0  0  0  0  0  0
    0.7420   -1.5108    0.0000 C   0  0  0  0  0  0  0  0  0  0  0  0
    1.4572   -0.2414    0.0000 C   0  0  0  0  0  0  0  0  0  0  0  0
    1.4572   -1.8863    0.0000 C   0  0  0  0  0  0  0  0  0  0  0  0
    2.1724   -0.6526    0.0000 C   0  0  0  0  0  0  0  0  0  0  0  0
  1  5  2  0  0  0  0
  1  6  1  0  0  0  0
  1  7  1  0  0  0  0
  2 16  1  0  0  0  0
  3 16  1  0  0  0  0
  4 11  1  0  0  0  0
  4 13  1  0  0  0  0
  6 10  1  0  0  0  0
  7 12  2  0  0  0  0
  8 12  1  0  0  0  0
  9 10  1  0  0  0  0
  9 11  2  0  0  0  0
  9 12  1  0  0  0  0
 10 14  2  0  0  0  0
 11 15  1  0  0  0  0
 13 18  1  0  0  0  0
 13 19  1  0  0  0  0
 14 17  1  0  0  0  0
 15 17  2  0  0  0  0
 16 20  1  0  0  0  0
 16 21  1  0  0  0  0
 18 20  1  0  0  0  0
 19 21  1  0  0  0  0
M  END
> <PUBCHEM_COMPOUND_ID_TYPE>
0

> <PUBCHEM_TOTAL_CHARGE>
0

> <PUBCHEM_SUBSTANCE_ID>
310942126

> <PUBCHEM_SUBSTANCE_VERSION>
1

> <PUBCHEM_EXT_DATASOURCE_NAME>
4488

> <PUBCHEM_EXT_DATASOURCE_REGID>
SCHEMBL16120161

> <PUBCHEM_SUBSTANCE_COMMENT>
InChI=1S/C13H15F2N3O2S/c14-13(15)6-4-8(5-7-13)20-10-3-1-2-9-11(10)12(16)18-21(19)17-9/h1-3,8,17H,4-7H2,(H2,16,18)
InChIKey=PPHRXRDFBMHSKC-UHFFFAOYSA-N

> <PUBCHEM_SUBSTANCE_SYNONYM>
SCHEMBL16120161

> <PUBCHEM_XREF_EXT_ID>
SCHEMBL16120161

> <PUBCHEM_EXT_DATASOURCE_URL>
https://www.surechembl.org/

> <PUBCHEM_EXT_SUBSTANCE_URL>
https://www.surechembl.org/chemical/SCHEMBL16120161

> <PUBCHEM_CID_ASSOCIATIONS>
117608786  1

> <PUBCHEM_COORDINATE_TYPE>
1
3

$$$$
