310946619
  -OEChem-07211613022D

 32 31  0     1  0  0  0  0  0999 V2000
    6.3279  -10.7685    0.0000 O   0  0  0  0  0  0  0  0  0  0  0  0
    2.7556  -11.1810    0.0000 O   0  0  0  0  0  0  0  0  0  0  0  0
    5.6135  -12.0060    0.0000 O   0  0  0  0  0  0  0  0  0  0  0  0
    3.4701   -9.9435    0.0000 O   0  0  0  0  0  0  0  0  0  0  0  0
   10.6148  -10.7685    0.0000 O   0  0  0  0  0  0  0  0  0  0  0  0
    5.6135   -8.7060    0.0000 O   0  0  0  0  0  0  0  0  0  0  0  0
    6.3279   -9.9435    0.0000 O   0  0  0  0  0  0  0  0  0  0  0  0
    2.0411  -13.2435    0.0000 O   0  0  0  0  0  0  0  0  0  0  0  0
   11.3292   -9.5310    0.0000 O   0  5  0  0  0  0  0  0  0  0  0  0
    9.9003   -9.5310    0.0000 O   0  0  0  0  0  0  0  0  0  0  0  0
    2.0411  -14.8935    0.0000 O   0  0  0  0  0  0  0  0  0  0  0  0
    3.4701  -14.8935    0.0000 O   0  5  0  0  0  0  0  0  0  0  0  0
    2.7556  -13.6560    0.0000 O   0  0  0  0  0  0  0  0  0  0  0  0
    4.1845  -11.1810    0.0000 N   0  0  0  0  0  0  0  0  0  0  0  0
   10.6148   -9.9435    0.0000 N   0  3  0  0  0  0  0  0  0  0  0  0
    2.7556  -14.4810    0.0000 N   0  3  0  0  0  0  0  0  0  0  0  0
    4.8990  -10.7685    0.0000 C   0  0  3  0  0  0  0  0  0  0  0  0
    5.6135  -11.1810    0.0000 C   0  0  0  0  0  0  0  0  0  0  0  0
    4.8990   -9.9435    0.0000 C   0  0  0  0  0  0  0  0  0  0  0  0
    3.4701  -10.7685    0.0000 C   0  0  0  0  0  0  0  0  0  0  0  0
    5.6135   -9.5310    0.0000 C   0  0  0  0  0  0  0  0  0  0  0  0
    7.0424  -11.1810    0.0000 C   0  0  0  0  0  0  0  0  0  0  0  0
    9.9003  -11.1810    0.0000 C   0  0  3  0  0  0  0  0  0  0  0  0
    7.7569  -10.7685    0.0000 C   0  0  0  0  0  0  0  0  0  0  0  0
    2.7556  -12.0060    0.0000 C   0  0  0  0  0  0  0  0  0  0  0  0
    9.1858  -10.7685    0.0000 C   0  0  0  0  0  0  0  0  0  0  0  0
    8.4713  -11.1810    0.0000 C   0  0  0  0  0  0  0  0  0  0  0  0
    2.0411  -12.4185    0.0000 C   0  0  0  0  0  0  0  0  0  0  0  0
    9.9003  -12.0060    0.0000 C   0  0  0  0  0  0  0  0  0  0  0  0
    1.3266  -13.6560    0.0000 C   0  0  0  0  0  0  0  0  0  0  0  0
    1.3266  -14.4810    0.0000 C   0  0  0  0  0  0  0  0  0  0  0  0
   10.6148  -12.4185    0.0000 C   0  0  0  0  0  0  0  0  0  0  0  0
  1 18  1  0  0  0  0
  1 22  1  0  0  0  0
  2 20  1  0  0  0  0
  2 25  1  0  0  0  0
  3 18  2  0  0  0  0
  4 20  2  0  0  0  0
  5 15  1  0  0  0  0
  5 23  1  0  0  0  0
  6 21  2  0  0  0  0
  7 21  1  0  0  0  0
  8 28  1  0  0  0  0
  8 30  1  0  0  0  0
  9 15  1  0  0  0  0
 10 15  2  0  0  0  0
 11 16  1  0  0  0  0
 11 31  1  0  0  0  0
 12 16  1  0  0  0  0
 13 16  2  0  0  0  0
 14 17  1  0  0  0  0
 14 20  1  0  0  0  0
 17 18  1  0  0  0  0
 17 19  1  0  0  0  0
 19 21  1  0  0  0  0
 22 24  1  0  0  0  0
 23 26  1  0  0  0  0
 23 29  1  0  0  0  0
 24 27  1  0  0  0  0
 25 28  1  0  0  0  0
 26 27  1  0  0  0  0
 29 32  1  0  0  0  0
 30 31  1  0  0  0  0
M  CHG  4   9  -1  12  -1  15   1  16   1
M  END
> <PUBCHEM_COMPOUND_ID_TYPE>
0

> <PUBCHEM_TOTAL_CHARGE>
0

> <PUBCHEM_SUBSTANCE_ID>
310946619

> <PUBCHEM_SUBSTANCE_VERSION>
1

> <PUBCHEM_EXT_DATASOURCE_NAME>
4488

> <PUBCHEM_EXT_DATASOURCE_REGID>
SCHEMBL16124740

> <PUBCHEM_SUBSTANCE_COMMENT>
InChI=1S/C16H27N3O13/c1-2-12(32-19(26)27)5-3-4-6-29-15(22)13(11-14(20)21)17-16(23)30-9-7-28-8-10-31-18(24)25/h12-13H,2-11H2,1H3,(H,17,23)(H,20,21)
InChIKey=MJOPJHJUCNOJPM-UHFFFAOYSA-N

> <PUBCHEM_SUBSTANCE_SYNONYM>
SCHEMBL16124740

> <PUBCHEM_XREF_EXT_ID>
SCHEMBL16124740

> <PUBCHEM_EXT_DATASOURCE_URL>
https://www.surechembl.org/

> <PUBCHEM_EXT_SUBSTANCE_URL>
https://www.surechembl.org/chemical/SCHEMBL16124740

> <PUBCHEM_CID_ASSOCIATIONS>
117612519  1

> <PUBCHEM_COORDINATE_TYPE>
1
3

$$$$
