310936527
  -OEChem-07211613022D

 29 34  0     1  0  0  0  0  0999 V2000
    1.5406    0.0881    0.0000 O   0  0  0  0  0  0  0  0  0  0  0  0
    2.2944    0.5775    0.0000 O   0  0  0  0  0  0  0  0  0  0  0  0
   -4.8004   -2.2294    0.0000 O   0  0  0  0  0  0  0  0  0  0  0  0
   -5.5149   -0.9919    0.0000 O   0  0  0  0  0  0  0  0  0  0  0  0
    0.2711    0.5006    0.0000 C   0  0  3  0  0  0  0  0  0  0  0  0
   -0.5136    0.2456    0.0000 C   0  0  3  0  0  0  0  0  0  0  0  0
   -0.5136   -0.5794    0.0000 C   0  0  3  0  0  0  0  0  0  0  0  0
    0.7560   -0.1669    0.0000 C   0  0  3  0  0  0  0  0  0  0  0  0
    1.5406    0.9131    0.0000 C   0  0  3  0  0  0  0  0  0  0  0  0
   -1.2280   -0.9919    0.0000 C   0  0  3  0  0  0  0  0  0  0  0  0
   -1.9425   -0.5794    0.0000 C   0  0  3  0  0  0  0  0  0  0  0  0
    0.2711   -0.8343    0.0000 C   0  0  0  0  0  0  0  0  0  0  0  0
    0.7560    1.1680    0.0000 C   0  0  0  0  0  0  0  0  0  0  0  0
   -2.6570   -0.9919    0.0000 C   0  0  3  0  0  0  0  0  0  0  0  0
   -1.2280    0.6581    0.0000 C   0  0  0  0  0  0  0  0  0  0  0  0
   -1.9425    0.2456    0.0000 C   0  0  0  0  0  0  0  0  0  0  0  0
   -2.6570   -1.8169    0.0000 C   0  0  3  0  0  0  0  0  0  0  0  0
   -1.2280   -1.8169    0.0000 C   0  0  0  0  0  0  0  0  0  0  0  0
    1.4544    1.7336    0.0000 C   0  0  0  0  0  0  0  0  0  0  0  0
   -1.9425   -2.2294    0.0000 C   0  0  0  0  0  0  0  0  0  0  0  0
   -3.3715   -0.5794    0.0000 C   0  0  0  0  0  0  0  0  0  0  0  0
   -3.3715   -2.2294    0.0000 C   0  0  0  0  0  0  0  0  0  0  0  0
   -4.0859   -1.8169    0.0000 C   0  0  3  0  0  0  0  0  0  0  0  0
    2.9618    1.0624    0.0000 C   0  0  0  0  0  0  0  0  0  0  0  0
    2.1219    2.2185    0.0000 C   0  0  0  0  0  0  0  0  0  0  0  0
   -4.0859   -0.9919    0.0000 C   0  0  0  0  0  0  0  0  0  0  0  0
    2.8755    1.8830    0.0000 C   0  0  0  0  0  0  0  0  0  0  0  0
   -5.5149   -1.8169    0.0000 C   0  0  0  0  0  0  0  0  0  0  0  0
   -6.2294   -2.2294    0.0000 C   0  0  0  0  0  0  0  0  0  0  0  0
  1  8  1  0  0  0  0
  1  9  1  0  0  0  0
  2  9  1  0  0  0  0
  2 24  1  0  0  0  0
  3 23  1  0  0  0  0
  3 28  1  0  0  0  0
  4 28  2  0  0  0  0
  5  6  1  0  0  0  0
  5  8  1  0  0  0  0
  5 13  1  0  0  0  0
  6  7  1  0  0  0  0
  6 15  1  0  0  0  0
  7 10  1  0  0  0  0
  7 12  1  0  0  0  0
  8 12  1  0  0  0  0
  9 13  1  0  0  0  0
  9 19  1  0  0  0  0
 10 11  1  0  0  0  0
 10 18  1  0  0  0  0
 11 14  1  0  0  0  0
 11 16  1  0  0  0  0
 14 17  1  0  0  0  0
 14 21  1  0  0  0  0
 15 16  1  0  0  0  0
 17 20  1  0  0  0  0
 17 22  1  0  0  0  0
 18 20  1  0  0  0  0
 19 25  1  0  0  0  0
 21 26  1  0  0  0  0
 22 23  1  0  0  0  0
 23 26  1  0  0  0  0
 24 27  2  0  0  0  0
 25 27  1  0  0  0  0
 28 29  1  0  0  0  0
M  END
> <PUBCHEM_COMPOUND_ID_TYPE>
0

> <PUBCHEM_TOTAL_CHARGE>
0

> <PUBCHEM_SUBSTANCE_ID>
310936527

> <PUBCHEM_SUBSTANCE_VERSION>
1

> <PUBCHEM_EXT_DATASOURCE_NAME>
4488

> <PUBCHEM_EXT_DATASOURCE_REGID>
SCHEMBL16114178

> <PUBCHEM_SUBSTANCE_COMMENT>
InChI=1S/C25H36O4/c1-15(26)28-17-5-7-18-16(12-17)4-6-20-19(18)8-9-21-22(20)13-24-23(21)14-25(29-24)10-2-3-11-27-25/h3,11,16-24H,2,4-10,12-14H2,1H3
InChIKey=ZWKOOYZIRCLJQT-UHFFFAOYSA-N

> <PUBCHEM_SUBSTANCE_SYNONYM>
SCHEMBL16114178

> <PUBCHEM_XREF_EXT_ID>
SCHEMBL16114178

> <PUBCHEM_EXT_DATASOURCE_URL>
https://www.surechembl.org/

> <PUBCHEM_EXT_SUBSTANCE_URL>
https://www.surechembl.org/chemical/SCHEMBL16114178

> <PUBCHEM_CID_ASSOCIATIONS>
117604454  1

> <PUBCHEM_COORDINATE_TYPE>
1
3

$$$$
