310933498
  -OEChem-07211613022D

 26 29  0     1  0  0  0  0  0999 V2000
    5.4724   -0.0275    0.0000 F   0  0  0  0  0  0  0  0  0  0  0  0
    0.0000   -4.4274    0.0000 O   0  0  0  0  0  0  0  0  0  0  0  0
    1.9525   -1.2650    0.0000 O   0  0  0  0  0  0  0  0  0  0  0  0
    5.4724   -3.2999    0.0000 O   0  0  0  0  0  0  0  0  0  0  0  0
    4.1799   -2.6399    0.0000 N   0  0  0  0  0  0  0  0  0  0  0  0
    4.1799   -3.9599    0.0000 N   0  0  0  0  0  0  0  0  0  0  0  0
    0.3850   -5.1424    0.0000 N   0  0  0  0  0  0  0  0  0  0  0  0
    3.3549   -0.4400    0.0000 N   0  0  0  0  0  0  0  0  0  0  0  0
    3.3825   -2.8875    0.0000 C   0  0  0  0  0  0  0  0  0  0  0  0
    2.6675   -2.4750    0.0000 C   0  0  0  0  0  0  0  0  0  0  0  0
    3.3825   -3.7400    0.0000 C   0  0  0  0  0  0  0  0  0  0  0  0
    1.9800   -3.7400    0.0000 C   0  0  0  0  0  0  0  0  0  0  0  0
    1.2925   -4.1524    0.0000 C   0  0  0  0  0  0  0  0  0  0  0  0
    1.9800   -2.8875    0.0000 C   0  0  0  0  0  0  0  0  0  0  0  0
    2.6675   -4.1250    0.0000 C   0  0  0  0  0  0  0  0  0  0  0  0
    2.6675   -1.6775    0.0000 C   0  0  3  0  0  0  0  0  0  0  0  0
    4.6474   -3.2999    0.0000 C   0  0  0  0  0  0  0  0  0  0  0  0
    0.5225   -3.8224    0.0000 C   0  0  0  0  0  0  0  0  0  0  0  0
    1.1825   -4.9499    0.0000 C   0  0  0  0  0  0  0  0  0  0  0  0
    3.3549   -1.2650    0.0000 C   0  0  0  0  0  0  0  0  0  0  0  0
    4.0700   -1.6775    0.0000 C   0  0  0  0  0  0  0  0  0  0  0  0
    0.3575   -3.0249    0.0000 C   0  0  0  0  0  0  0  0  0  0  0  0
    1.8150   -5.4999    0.0000 C   0  0  0  0  0  0  0  0  0  0  0  0
    4.0424    0.0000    0.0000 C   0  0  0  0  0  0  0  0  0  0  0  0
    4.7849   -1.2375    0.0000 C   0  0  0  0  0  0  0  0  0  0  0  0
    4.7574   -0.4125    0.0000 C   0  0  0  0  0  0  0  0  0  0  0  0
  1 26  1  0  0  0  0
  2  7  1  0  0  0  0
  2 18  1  0  0  0  0
  3 16  1  0  0  0  0
  4 17  2  0  0  0  0
  5  9  1  0  0  0  0
  5 17  1  0  0  0  0
  6 11  1  0  0  0  0
  6 17  1  0  0  0  0
  7 19  2  0  0  0  0
  8 20  1  0  0  0  0
  8 24  2  0  0  0  0
  9 10  1  0  0  0  0
  9 11  2  0  0  0  0
 10 14  2  0  0  0  0
 10 16  1  0  0  0  0
 11 15  1  0  0  0  0
 12 13  1  0  0  0  0
 12 14  1  0  0  0  0
 12 15  2  0  0  0  0
 13 18  2  0  0  0  0
 13 19  1  0  0  0  0
 16 20  1  0  0  0  0
 18 22  1  0  0  0  0
 19 23  1  0  0  0  0
 20 21  2  0  0  0  0
 21 25  1  0  0  0  0
 24 26  1  0  0  0  0
 25 26  2  0  0  0  0
M  END
> <PUBCHEM_COMPOUND_ID_TYPE>
0

> <PUBCHEM_TOTAL_CHARGE>
0

> <PUBCHEM_SUBSTANCE_ID>
310933498

> <PUBCHEM_SUBSTANCE_VERSION>
1

> <PUBCHEM_EXT_DATASOURCE_NAME>
4488

> <PUBCHEM_EXT_DATASOURCE_REGID>
SCHEMBL16110918

> <PUBCHEM_SUBSTANCE_COMMENT>
InChI=1S/C18H15FN4O3/c1-8-15(9(2)26-23-8)10-5-12(16-14(6-10)21-18(25)22-16)17(24)13-4-3-11(19)7-20-13/h3-7,17,24H,1-2H3,(H2,21,22,25)
InChIKey=IKYZENGMTVVJKJ-UHFFFAOYSA-N

> <PUBCHEM_SUBSTANCE_SYNONYM>
SCHEMBL16110918

> <PUBCHEM_XREF_EXT_ID>
SCHEMBL16110918

> <PUBCHEM_EXT_DATASOURCE_URL>
https://www.surechembl.org/

> <PUBCHEM_EXT_SUBSTANCE_URL>
https://www.surechembl.org/chemical/SCHEMBL16110918

> <PUBCHEM_CID_ASSOCIATIONS>
117601891  1

> <PUBCHEM_COORDINATE_TYPE>
1
3

$$$$
