310943528
  -OEChem-07211613022D

 24 26  0     1  0  0  0  0  0999 V2000
    4.1694    1.1836    0.0000 O   0  0  0  0  0  0  0  0  0  0  0  0
   -1.5524   -1.3026    0.0000 N   0  0  3  0  0  0  0  0  0  0  0  0
   -3.3249   -0.7673    0.0000 N   0  0  3  0  0  0  0  0  0  0  0  0
    0.5889    1.7546    0.0000 N   0  0  0  0  0  0  0  0  0  0  0  0
    1.3145   -0.4699    0.0000 C   0  0  0  0  0  0  0  0  0  0  0  0
    0.5889   -0.0654    0.0000 C   0  0  0  0  0  0  0  0  0  0  0  0
    2.0282   -0.0535    0.0000 C   0  0  0  0  0  0  0  0  0  0  0  0
   -0.1368   -1.2906    0.0000 C   0  0  0  0  0  0  0  0  0  0  0  0
   -0.1130   -0.4699    0.0000 C   0  0  0  0  0  0  0  0  0  0  0  0
    1.3026   -1.2906    0.0000 C   0  0  0  0  0  0  0  0  0  0  0  0
    0.6007   -1.6952    0.0000 C   0  0  0  0  0  0  0  0  0  0  0  0
   -0.8506   -1.7070    0.0000 C   0  0  0  0  0  0  0  0  0  0  0  0
    2.0401    0.7791    0.0000 C   0  0  0  0  0  0  0  0  0  0  0  0
    2.7301   -0.4580    0.0000 C   0  0  0  0  0  0  0  0  0  0  0  0
    0.5889    0.9576    0.0000 C   0  0  0  0  0  0  0  0  0  0  0  0
    3.4557    0.7791    0.0000 C   0  0  0  0  0  0  0  0  0  0  0  0
    2.7301    1.1717    0.0000 C   0  0  0  0  0  0  0  0  0  0  0  0
    3.4438   -0.0535    0.0000 C   0  0  0  0  0  0  0  0  0  0  0  0
   -2.2304   -1.7546    0.0000 C   0  0  0  0  0  0  0  0  0  0  0  0
   -1.4929   -0.4818    0.0000 C   0  0  0  0  0  0  0  0  0  0  0  0
   -3.0274   -1.5167    0.0000 C   0  0  0  0  0  0  0  0  0  0  0  0
   -2.0877    0.0535    0.0000 C   0  0  0  0  0  0  0  0  0  0  0  0
   -2.9085   -0.0535    0.0000 C   0  0  0  0  0  0  0  0  0  0  0  0
   -4.1694   -0.7673    0.0000 C   0  0  0  0  0  0  0  0  0  0  0  0
  1 16  1  0  0  0  0
  2 12  1  0  0  0  0
  2 19  1  0  0  0  0
  2 20  1  0  0  0  0
  3 21  1  0  0  0  0
  3 23  1  0  0  0  0
  3 24  1  0  0  0  0
  4 15  3  0  0  0  0
  5  6  2  0  0  0  0
  5  7  1  0  0  0  0
  5 10  1  0  0  0  0
  6  9  1  0  0  0  0
  6 15  1  0  0  0  0
  7 13  2  0  0  0  0
  7 14  1  0  0  0  0
  8  9  2  0  0  0  0
  8 11  1  0  0  0  0
  8 12  1  0  0  0  0
 10 11  2  0  0  0  0
 13 17  1  0  0  0  0
 14 18  2  0  0  0  0
 16 17  2  0  0  0  0
 16 18  1  0  0  0  0
 19 21  1  0  0  0  0
 20 22  1  0  0  0  0
 22 23  1  0  0  0  0
M  END
> <PUBCHEM_COMPOUND_ID_TYPE>
0

> <PUBCHEM_TOTAL_CHARGE>
0

> <PUBCHEM_SUBSTANCE_ID>
310943528

> <PUBCHEM_SUBSTANCE_VERSION>
1

> <PUBCHEM_EXT_DATASOURCE_NAME>
4488

> <PUBCHEM_EXT_DATASOURCE_REGID>
SCHEMBL16121594

> <PUBCHEM_SUBSTANCE_COMMENT>
InChI=1S/C20H23N3O/c1-22-9-2-10-23(12-11-22)15-16-3-8-20(18(13-16)14-21)17-4-6-19(24)7-5-17/h3-8,13,24H,2,9-12,15H2,1H3
InChIKey=PJJFJMNIANJAOW-UHFFFAOYSA-N

> <PUBCHEM_SUBSTANCE_SYNONYM>
SCHEMBL16121594

> <PUBCHEM_XREF_EXT_ID>
SCHEMBL16121594

> <PUBCHEM_EXT_DATASOURCE_URL>
https://www.surechembl.org/

> <PUBCHEM_EXT_SUBSTANCE_URL>
https://www.surechembl.org/chemical/SCHEMBL16121594

> <PUBCHEM_CID_ASSOCIATIONS>
117609942  1

> <PUBCHEM_COORDINATE_TYPE>
1
3

$$$$
