310946438
  -OEChem-07211613022D

 37 36  0     1  0  0  0  0  0999 V2000
   -1.2333  -10.9086    0.0000 O   0  0  0  0  0  0  0  0  0  0  0  0
    2.3391   -9.6711    0.0000 O   0  0  0  0  0  0  0  0  0  0  0  0
   -1.6162  -14.5915    0.0000 O   0  0  0  0  0  0  0  0  0  0  0  0
   -4.0912  -11.7336    0.0000 O   0  0  0  0  0  0  0  0  0  0  0  0
    3.7680  -10.4961    0.0000 O   0  0  0  0  0  0  0  0  0  0  0  0
    0.0338  -14.5915    0.0000 O   0  0  0  0  0  0  0  0  0  0  0  0
   -1.9478   -9.6711    0.0000 O   0  0  0  0  0  0  0  0  0  0  0  0
   -4.8057  -10.4961    0.0000 O   0  0  0  0  0  0  0  0  0  0  0  0
    1.6246   -8.4336    0.0000 O   0  5  0  0  0  0  0  0  0  0  0  0
    0.9101   -9.6711    0.0000 O   0  0  0  0  0  0  0  0  0  0  0  0
   -1.6162  -16.0205    0.0000 O   0  5  0  0  0  0  0  0  0  0  0  0
   -0.3787  -15.3060    0.0000 O   0  0  0  0  0  0  0  0  0  0  0  0
    4.4825   -9.2586    0.0000 O   0  5  0  0  0  0  0  0  0  0  0  0
    3.0535   -9.2586    0.0000 O   0  0  0  0  0  0  0  0  0  0  0  0
    1.2713  -15.3060    0.0000 O   0  5  0  0  0  0  0  0  0  0  0  0
    1.2713  -13.8771    0.0000 O   0  0  0  0  0  0  0  0  0  0  0  0
    1.6246   -9.2586    0.0000 N   0  3  0  0  0  0  0  0  0  0  0  0
   -1.2037  -15.3060    0.0000 N   0  3  0  0  0  0  0  0  0  0  0  0
   -2.6622  -11.7336    0.0000 N   0  0  0  0  0  0  0  0  0  0  0  0
    3.7680   -9.6711    0.0000 N   0  3  0  0  0  0  0  0  0  0  0  0
    0.8588  -14.5915    0.0000 N   0  3  0  0  0  0  0  0  0  0  0  0
   -2.6622  -10.9086    0.0000 C   0  0  3  0  0  0  0  0  0  0  0  0
   -1.9478  -10.4961    0.0000 C   0  0  0  0  0  0  0  0  0  0  0  0
    2.3391  -10.4961    0.0000 C   0  0  3  0  0  0  0  0  0  0  0  0
   -1.2037  -13.8771    0.0000 C   0  0  3  0  0  0  0  0  0  0  0  0
   -3.3767  -10.4961    0.0000 C   0  0  0  0  0  0  0  0  0  0  0  0
   -4.0912  -10.9086    0.0000 C   0  0  0  0  0  0  0  0  0  0  0  0
    1.6246  -10.9086    0.0000 C   0  0  0  0  0  0  0  0  0  0  0  0
   -1.6162  -13.1626    0.0000 C   0  0  0  0  0  0  0  0  0  0  0  0
    3.0535  -10.9086    0.0000 C   0  0  0  0  0  0  0  0  0  0  0  0
   -0.3787  -13.8771    0.0000 C   0  0  0  0  0  0  0  0  0  0  0  0
   -0.5188  -10.4961    0.0000 C   0  0  0  0  0  0  0  0  0  0  0  0
    0.9101  -10.4961    0.0000 C   0  0  0  0  0  0  0  0  0  0  0  0
   -2.4412  -13.1626    0.0000 C   0  0  0  0  0  0  0  0  0  0  0  0
    0.1956  -10.9086    0.0000 C   0  0  0  0  0  0  0  0  0  0  0  0
   -3.6787  -12.4481    0.0000 C   0  0  0  0  0  0  0  0  0  0  0  0
   -2.8537  -12.4481    0.0000 C   0  0  0  0  0  0  0  0  0  0  0  0
  1 23  1  0  0  0  0
  1 32  1  0  0  0  0
  2 17  1  0  0  0  0
  2 24  1  0  0  0  0
  3 18  1  0  0  0  0
  3 25  1  0  0  0  0
  4 27  1  0  0  0  0
  4 36  1  0  0  0  0
  5 20  1  0  0  0  0
  5 30  1  0  0  0  0
  6 21  1  0  0  0  0
  6 31  1  0  0  0  0
  7 23  2  0  0  0  0
  8 27  2  0  0  0  0
  9 17  1  0  0  0  0
 10 17  2  0  0  0  0
 11 18  1  0  0  0  0
 12 18  2  0  0  0  0
 13 20  1  0  0  0  0
 14 20  2  0  0  0  0
 15 21  1  0  0  0  0
 16 21  2  0  0  0  0
 19 22  1  0  0  0  0
 22 23  1  0  0  0  0
 22 26  1  0  0  0  0
 24 28  1  0  0  0  0
 24 30  1  0  0  0  0
 25 29  1  0  0  0  0
 25 31  1  0  0  0  0
 26 27  1  0  0  0  0
 28 33  1  0  0  0  0
 29 34  1  0  0  0  0
 32 35  1  0  0  0  0
 33 35  1  0  0  0  0
 34 37  1  0  0  0  0
 36 37  1  0  0  0  0
M  CHG  8   9  -1  11  -1  13  -1  15  -1  17   1  18   1  20   1  21   1
M  END
> <PUBCHEM_COMPOUND_ID_TYPE>
0

> <PUBCHEM_TOTAL_CHARGE>
0

> <PUBCHEM_SUBSTANCE_ID>
310946438

> <PUBCHEM_SUBSTANCE_VERSION>
1

> <PUBCHEM_EXT_DATASOURCE_NAME>
4488

> <PUBCHEM_EXT_DATASOURCE_REGID>
SCHEMBL16124559

> <PUBCHEM_SUBSTANCE_COMMENT>
InChI=1S/C16H27N5O16/c17-14(16(23)33-8-4-2-6-13(37-21(30)31)11-35-19(26)27)9-15(22)32-7-3-1-5-12(36-20(28)29)10-34-18(24)25/h12-14H,1-11,17H2
InChIKey=VOAGNUDCIJWCTH-UHFFFAOYSA-N

> <PUBCHEM_SUBSTANCE_SYNONYM>
SCHEMBL16124559

> <PUBCHEM_XREF_EXT_ID>
SCHEMBL16124559

> <PUBCHEM_EXT_DATASOURCE_URL>
https://www.surechembl.org/

> <PUBCHEM_EXT_SUBSTANCE_URL>
https://www.surechembl.org/chemical/SCHEMBL16124559

> <PUBCHEM_CID_ASSOCIATIONS>
117612350  1

> <PUBCHEM_COORDINATE_TYPE>
1
3

$$$$
