310938163
  -OEChem-07211613022D

 17 18  0     1  0  0  0  0  0999 V2000
    0.0000   -1.2744    0.0000 Br  0  0  0  0  0  0  0  0  0  0  0  0
    2.1490   -4.1731    0.0000 O   0  0  0  0  0  0  0  0  0  0  0  0
    0.6997   -4.1731    0.0000 O   0  0  0  0  0  0  0  0  0  0  0  0
    2.9486   -1.4244    0.0000 N   0  0  3  0  0  0  0  0  0  0  0  0
    2.1490   -2.4989    0.0000 C   0  0  0  0  0  0  0  0  0  0  0  0
    2.1490   -1.6742    0.0000 C   0  0  0  0  0  0  0  0  0  0  0  0
    1.4244   -2.9237    0.0000 C   0  0  0  0  0  0  0  0  0  0  0  0
    2.9486   -2.7737    0.0000 C   0  0  0  0  0  0  0  0  0  0  0  0
    1.4244   -1.2495    0.0000 C   0  0  0  0  0  0  0  0  0  0  0  0
    0.7246   -1.6742    0.0000 C   0  0  0  0  0  0  0  0  0  0  0  0
    0.7246   -2.4989    0.0000 C   0  0  0  0  0  0  0  0  0  0  0  0
    3.4234   -2.0990    0.0000 C   0  0  0  0  0  0  0  0  0  0  0  0
    1.4244   -3.7483    0.0000 C   0  0  0  0  0  0  0  0  0  0  0  0
    3.1986   -0.6247    0.0000 C   0  0  0  0  0  0  0  0  0  0  0  0
    2.6488    0.0000    0.0000 C   0  0  0  0  0  0  0  0  0  0  0  0
    4.0232   -0.4498    0.0000 C   0  0  0  0  0  0  0  0  0  0  0  0
    2.1490   -4.9977    0.0000 C   0  0  0  0  0  0  0  0  0  0  0  0
  1 10  1  0  0  0  0
  2 13  1  0  0  0  0
  2 17  1  0  0  0  0
  3 13  2  0  0  0  0
  4  6  1  0  0  0  0
  4 12  1  0  0  0  0
  4 14  1  0  0  0  0
  5  6  2  0  0  0  0
  5  7  1  0  0  0  0
  5  8  1  0  0  0  0
  6  9  1  0  0  0  0
  7 11  2  0  0  0  0
  7 13  1  0  0  0  0
  8 12  1  0  0  0  0
  9 10  2  0  0  0  0
 10 11  1  0  0  0  0
 14 15  1  0  0  0  0
 14 16  1  0  0  0  0
M  END
> <PUBCHEM_COMPOUND_ID_TYPE>
0

> <PUBCHEM_TOTAL_CHARGE>
0

> <PUBCHEM_SUBSTANCE_ID>
310938163

> <PUBCHEM_SUBSTANCE_VERSION>
1

> <PUBCHEM_EXT_DATASOURCE_NAME>
4488

> <PUBCHEM_EXT_DATASOURCE_REGID>
SCHEMBL16116016

> <PUBCHEM_SUBSTANCE_COMMENT>
InChI=1S/C13H16BrNO2/c1-8(2)15-5-4-10-11(13(16)17-3)6-9(14)7-12(10)15/h6-8H,4-5H2,1-3H3
InChIKey=ADJOHYQKWMFNOQ-UHFFFAOYSA-N

> <PUBCHEM_SUBSTANCE_SYNONYM>
SCHEMBL16116016

> <PUBCHEM_XREF_EXT_ID>
SCHEMBL16116016

> <PUBCHEM_EXT_DATASOURCE_URL>
https://www.surechembl.org/

> <PUBCHEM_EXT_SUBSTANCE_URL>
https://www.surechembl.org/chemical/SCHEMBL16116016

> <PUBCHEM_CID_ASSOCIATIONS>
117605707  1

> <PUBCHEM_COORDINATE_TYPE>
1
3

$$$$
