310938835
  -OEChem-07211613022D

 11 11  0     1  0  0  0  0  0999 V2000
    0.7209    1.2872    0.0000 O   0  0  0  0  0  0  0  0  0  0  0  0
    1.4270    0.0221    0.0000 O   0  0  0  0  0  0  0  0  0  0  0  0
    0.0000    0.0221    0.0000 C   0  0  3  0  0  0  0  0  0  0  0  0
   -0.6767   -0.4192    0.0000 C   0  0  3  0  0  0  0  0  0  0  0  0
    0.7061    0.4340    0.0000 C   0  0  0  0  0  0  0  0  0  0  0  0
    0.6326   -0.5075    0.0000 C   0  0  0  0  0  0  0  0  0  0  0  0
   -0.7355    0.4487    0.0000 C   0  0  0  0  0  0  0  0  0  0  0  0
   -0.4708   -1.2430    0.0000 C   0  0  0  0  0  0  0  0  0  0  0  0
    0.3384   -1.2872    0.0000 C   0  0  0  0  0  0  0  0  0  0  0  0
   -1.4270    0.5075    0.0000 C   0  0  0  0  0  0  0  0  0  0  0  0
   -1.4270    0.0367    0.0000 C   0  0  0  0  0  0  0  0  0  0  0  0
  1  5  2  0  0  0  0
  2  5  1  0  0  0  0
  3  4  1  0  0  0  0
  3  5  1  0  0  0  0
  3  6  1  0  0  0  0
  3  7  1  0  0  0  0
  4  8  1  0  0  0  0
  4 10  1  0  0  0  0
  6  9  1  0  0  0  0
  7 11  1  0  0  0  0
  8  9  1  0  0  0  0
M  END
> <PUBCHEM_COMPOUND_ID_TYPE>
0

> <PUBCHEM_TOTAL_CHARGE>
0

> <PUBCHEM_SUBSTANCE_ID>
310938835

> <PUBCHEM_SUBSTANCE_VERSION>
1

> <PUBCHEM_EXT_DATASOURCE_NAME>
4488

> <PUBCHEM_EXT_DATASOURCE_REGID>
SCHEMBL16116754

> <PUBCHEM_SUBSTANCE_COMMENT>
InChI=1S/C9H16O2/c1-3-9(8(10)11)6-4-5-7(9)2/h7H,3-6H2,1-2H3,(H,10,11)
InChIKey=DGCIRRQSRZXQAW-UHFFFAOYSA-N

> <PUBCHEM_SUBSTANCE_SYNONYM>
SCHEMBL16116754

> <PUBCHEM_XREF_EXT_ID>
SCHEMBL16116754

> <PUBCHEM_EXT_DATASOURCE_URL>
https://www.surechembl.org/

> <PUBCHEM_EXT_SUBSTANCE_URL>
https://www.surechembl.org/chemical/SCHEMBL16116754

> <PUBCHEM_CID_ASSOCIATIONS>
83529018  1

> <PUBCHEM_COORDINATE_TYPE>
1
3

> <PUBCHEM_BONDANNOTATIONS>
4  10  3

$$$$
