310933606
  -OEChem-07211613022D

 49 54  0     1  0  0  0  0  0999 V2000
    7.5220   -0.5824    0.0000 Cl  0  0  0  0  0  0  0  0  0  0  0  0
    6.8426   -2.0868    0.0000 F   0  0  0  0  0  0  0  0  0  0  0  0
    2.9117   -3.2029    0.0000 O   0  0  0  0  0  0  0  0  0  0  0  0
    4.9985   -3.6397    0.0000 O   0  0  0  0  0  0  0  0  0  0  0  0
    0.0000   -8.0559    0.0000 O   0  0  0  0  0  0  0  0  0  0  0  0
    8.5412   -2.3779    0.0000 O   0  0  0  0  0  0  0  0  0  0  0  0
    9.2690   -3.6397    0.0000 O   0  0  0  0  0  0  0  0  0  0  0  0
    3.5912   -4.4161    0.0000 N   0  0  0  0  0  0  0  0  0  0  0  0
    5.1926   -2.2323    0.0000 N   0  0  0  0  0  0  0  0  0  0  0  0
    5.1926   -3.7367    0.0000 N   0  0  0  0  0  0  0  0  0  0  0  0
    5.6294   -2.9603    0.0000 N   0  0  0  0  0  0  0  0  0  0  0  0
    5.7264   -4.8529    0.0000 N   0  0  0  0  0  0  0  0  0  0  0  0
    0.7279   -9.2690    0.0000 N   0  0  0  0  0  0  0  0  0  0  0  0
    4.3191   -4.8529    0.0000 C   0  0  3  0  0  0  0  0  0  0  0  0
    4.3191   -5.6779    0.0000 C   0  0  0  0  0  0  0  0  0  0  0  0
    3.5912   -6.0662    0.0000 C   0  0  0  0  0  0  0  0  0  0  0  0
    3.5912   -3.6397    0.0000 C   0  0  0  0  0  0  0  0  0  0  0  0
    4.3191   -3.2029    0.0000 C   0  0  0  0  0  0  0  0  0  0  0  0
    3.5912   -6.8911    0.0000 C   0  0  0  0  0  0  0  0  0  0  0  0
    4.4161   -2.3779    0.0000 C   0  0  0  0  0  0  0  0  0  0  0  0
    4.9985   -4.4647    0.0000 C   0  0  0  0  0  0  0  0  0  0  0  0
    2.9117   -4.8529    0.0000 C   0  0  0  0  0  0  0  0  0  0  0  0
    2.8632   -5.6779    0.0000 C   0  0  0  0  0  0  0  0  0  0  0  0
    4.9985   -6.0662    0.0000 C   0  0  0  0  0  0  0  0  0  0  0  0
    5.5323   -1.5044    0.0000 C   0  0  0  0  0  0  0  0  0  0  0  0
    2.8632   -7.2793    0.0000 C   0  0  0  0  0  0  0  0  0  0  0  0
    4.2705   -7.2793    0.0000 C   0  0  0  0  0  0  0  0  0  0  0  0
    4.9985   -6.8911    0.0000 C   0  0  0  0  0  0  0  0  0  0  0  0
    6.3573   -1.4073    0.0000 C   0  0  0  0  0  0  0  0  0  0  0  0
    5.0471   -0.8250    0.0000 C   0  0  0  0  0  0  0  0  0  0  0  0
    3.7852   -1.8441    0.0000 C   0  0  0  0  0  0  0  0  0  0  0  0
    2.8632   -8.1044    0.0000 C   0  0  0  0  0  0  0  0  0  0  0  0
    2.1353   -6.8426    0.0000 C   0  0  0  0  0  0  0  0  0  0  0  0
    6.6970   -0.6794    0.0000 C   0  0  0  0  0  0  0  0  0  0  0  0
    6.4544   -4.4647    0.0000 C   0  0  0  0  0  0  0  0  0  0  0  0
    1.4559   -8.0559    0.0000 C   0  0  0  0  0  0  0  0  0  0  0  0
    5.3867   -0.0971    0.0000 C   0  0  0  0  0  0  0  0  0  0  0  0
    2.1353   -8.4926    0.0000 C   0  0  0  0  0  0  0  0  0  0  0  0
    1.4559   -7.2308    0.0000 C   0  0  0  0  0  0  0  0  0  0  0  0
    6.2117    0.0000    0.0000 C   0  0  0  0  0  0  0  0  0  0  0  0
    6.4544   -3.6397    0.0000 C   0  0  0  0  0  0  0  0  0  0  0  0
    7.1338   -4.8529    0.0000 C   0  0  0  0  0  0  0  0  0  0  0  0
    0.7279   -8.4926    0.0000 C   0  0  0  0  0  0  0  0  0  0  0  0
    7.8617   -3.6397    0.0000 C   0  0  0  0  0  0  0  0  0  0  0  0
    7.1338   -3.2029    0.0000 C   0  0  0  0  0  0  0  0  0  0  0  0
    7.8617   -4.4647    0.0000 C   0  0  0  0  0  0  0  0  0  0  0  0
    8.5412   -3.2029    0.0000 C   0  0  0  0  0  0  0  0  0  0  0  0
    0.0000   -9.6573    0.0000 C   0  0  0  0  0  0  0  0  0  0  0  0
    1.4073   -9.7058    0.0000 C   0  0  0  0  0  0  0  0  0  0  0  0
  1 34  1  0  0  0  0
  2 29  1  0  0  0  0
  3 17  2  0  0  0  0
  4 21  2  0  0  0  0
  5 43  2  0  0  0  0
  6 47  2  0  0  0  0
  7 47  1  0  0  0  0
  8 14  1  0  0  0  0
  8 17  1  0  0  0  0
  8 22  1  0  0  0  0
  9 11  1  0  0  0  0
  9 20  1  0  0  0  0
  9 25  1  0  0  0  0
 10 11  2  0  0  0  0
 10 18  1  0  0  0  0
 12 21  1  0  0  0  0
 12 35  1  0  0  0  0
 13 43  1  0  0  0  0
 13 48  1  0  0  0  0
 13 49  1  0  0  0  0
 14 15  1  0  0  0  0
 14 21  1  0  0  0  0
 15 16  2  0  0  0  0
 15 24  1  0  0  0  0
 16 19  1  0  0  0  0
 16 23  1  0  0  0  0
 17 18  1  0  0  0  0
 18 20  2  0  0  0  0
 19 26  1  0  0  0  0
 19 27  2  0  0  0  0
 20 31  1  0  0  0  0
 22 23  1  0  0  0  0
 24 28  2  0  0  0  0
 25 29  1  0  0  0  0
 25 30  2  0  0  0  0
 26 32  2  0  0  0  0
 26 33  1  0  0  0  0
 27 28  1  0  0  0  0
 29 34  2  0  0  0  0
 30 37  1  0  0  0  0
 32 38  1  0  0  0  0
 33 39  2  0  0  0  0
 34 40  1  0  0  0  0
 35 41  2  0  0  0  0
 35 42  1  0  0  0  0
 36 38  2  0  0  0  0
 36 39  1  0  0  0  0
 36 43  1  0  0  0  0
 37 40  2  0  0  0  0
 41 45  1  0  0  0  0
 42 46  2  0  0  0  0
 44 45  2  0  0  0  0
 44 46  1  0  0  0  0
 44 47  1  0  0  0  0
M  END
> <PUBCHEM_COMPOUND_ID_TYPE>
0

> <PUBCHEM_TOTAL_CHARGE>
0

> <PUBCHEM_SUBSTANCE_ID>
310933606

> <PUBCHEM_SUBSTANCE_VERSION>
1

> <PUBCHEM_EXT_DATASOURCE_NAME>
4488

> <PUBCHEM_EXT_DATASOURCE_REGID>
SCHEMBL16111035

> <PUBCHEM_SUBSTANCE_COMMENT>
InChI=1S/C36H30ClFN6O5/c1-20-31(40-41-44(20)29-9-5-8-28(37)30(29)38)35(47)43-19-18-26-25(21-10-12-22(13-11-21)34(46)42(2)3)6-4-7-27(26)32(43)33(45)39-24-16-14-23(15-17-24)36(48)49/h4-17,32H,18-19H2,1-3H3,(H,39,45)(H,48,49)
InChIKey=UTWSISMNNOGZOP-UHFFFAOYSA-N

> <PUBCHEM_SUBSTANCE_SYNONYM>
SCHEMBL16111035

> <PUBCHEM_XREF_EXT_ID>
SCHEMBL16111035

> <PUBCHEM_EXT_DATASOURCE_URL>
https://www.surechembl.org/

> <PUBCHEM_EXT_SUBSTANCE_URL>
https://www.surechembl.org/chemical/SCHEMBL16111035

> <PUBCHEM_CID_ASSOCIATIONS>
86298357  1

> <PUBCHEM_COORDINATE_TYPE>
1
3

$$$$
