310931621
  -OEChem-07211613022D

 29 33  0     1  0  0  0  0  0999 V2000
    2.4837   -8.8703    0.0000 Cl  0  0  0  0  0  0  0  0  0  0  0  0
    0.7540   -2.7498    0.0000 O   0  0  0  0  0  0  0  0  0  0  0  0
    2.2176    0.0000    0.0000 O   0  0  0  0  0  0  0  0  0  0  0  0
    2.2176   -2.5280    0.0000 N   0  0  0  0  0  0  0  0  0  0  0  0
    2.6167   -3.7699    0.0000 N   0  0  0  0  0  0  0  0  0  0  0  0
    3.6368   -2.7498    0.0000 N   0  0  0  0  0  0  0  0  0  0  0  0
    1.7740   -3.7699    0.0000 C   0  0  3  0  0  0  0  0  0  0  0  0
    1.5523   -2.9715    0.0000 C   0  0  0  0  0  0  0  0  0  0  0  0
    0.9757   -3.6368    0.0000 C   0  0  0  0  0  0  0  0  0  0  0  0
    1.2862   -4.4352    0.0000 C   0  0  0  0  0  0  0  0  0  0  0  0
    2.8829   -2.9715    0.0000 C   0  0  0  0  0  0  0  0  0  0  0  0
    0.2218   -3.9473    0.0000 C   0  0  0  0  0  0  0  0  0  0  0  0
    0.3105   -3.1046    0.0000 C   0  0  0  0  0  0  0  0  0  0  0  0
    2.2176   -1.6854    0.0000 C   0  0  0  0  0  0  0  0  0  0  0  0
    1.6410   -5.1892    0.0000 C   0  0  0  0  0  0  0  0  0  0  0  0
    0.4879   -4.3465    0.0000 C   0  0  0  0  0  0  0  0  0  0  0  0
    1.1532   -5.8544    0.0000 C   0  0  0  0  0  0  0  0  0  0  0  0
    0.0000   -5.0117    0.0000 C   0  0  0  0  0  0  0  0  0  0  0  0
    2.9272   -1.2418    0.0000 C   0  0  0  0  0  0  0  0  0  0  0  0
    1.5080   -1.2418    0.0000 C   0  0  0  0  0  0  0  0  0  0  0  0
    0.3548   -5.7657    0.0000 C   0  0  0  0  0  0  0  0  0  0  0  0
    1.5080   -6.6084    0.0000 C   0  0  0  0  0  0  0  0  0  0  0  0
    2.9272   -0.4435    0.0000 C   0  0  0  0  0  0  0  0  0  0  0  0
    1.5080   -0.4435    0.0000 C   0  0  0  0  0  0  0  0  0  0  0  0
    2.3063   -6.6971    0.0000 C   0  0  0  0  0  0  0  0  0  0  0  0
    1.0201   -7.2737    0.0000 C   0  0  0  0  0  0  0  0  0  0  0  0
    2.6611   -7.4511    0.0000 C   0  0  0  0  0  0  0  0  0  0  0  0
    1.3305   -8.0276    0.0000 C   0  0  0  0  0  0  0  0  0  0  0  0
    2.1732   -8.1164    0.0000 C   0  0  0  0  0  0  0  0  0  0  0  0
  1 29  1  0  0  0  0
  2  8  2  0  0  0  0
  3 23  1  0  0  0  0
  3 24  1  0  0  0  0
  4  8  1  0  0  0  0
  4 11  1  0  0  0  0
  4 14  1  0  0  0  0
  5  7  1  0  0  0  0
  5 11  1  0  0  0  0
  6 11  2  3  0  0  0
  7  8  1  0  0  0  0
  7  9  1  0  0  0  0
  7 10  1  0  0  0  0
  9 12  1  0  0  0  0
  9 13  1  0  0  0  0
 10 15  2  0  0  0  0
 10 16  1  0  0  0  0
 12 13  1  0  0  0  0
 14 19  1  0  0  0  0
 14 20  1  0  0  0  0
 15 17  1  0  0  0  0
 16 18  2  0  0  0  0
 17 21  2  0  0  0  0
 17 22  1  0  0  0  0
 18 21  1  0  0  0  0
 19 23  1  0  0  0  0
 20 24  1  0  0  0  0
 22 25  2  0  0  0  0
 22 26  1  0  0  0  0
 25 27  1  0  0  0  0
 26 28  2  0  0  0  0
 27 29  2  0  0  0  0
 28 29  1  0  0  0  0
M  END
> <PUBCHEM_COMPOUND_ID_TYPE>
0

> <PUBCHEM_TOTAL_CHARGE>
0

> <PUBCHEM_SUBSTANCE_ID>
310931621

> <PUBCHEM_SUBSTANCE_VERSION>
1

> <PUBCHEM_EXT_DATASOURCE_NAME>
4488

> <PUBCHEM_EXT_DATASOURCE_REGID>
SCHEMBL16108947

> <PUBCHEM_SUBSTANCE_COMMENT>
InChI=1S/C23H24ClN3O2/c24-19-8-4-15(5-9-19)16-2-1-3-18(14-16)23(17-6-7-17)21(28)27(22(25)26-23)20-10-12-29-13-11-20/h1-5,8-9,14,17,20H,6-7,10-13H2,(H2,25,26)
InChIKey=LHPJWPDUKZHGIN-UHFFFAOYSA-N

> <PUBCHEM_SUBSTANCE_SYNONYM>
SCHEMBL16108947

> <PUBCHEM_XREF_EXT_ID>
SCHEMBL16108947

> <PUBCHEM_EXT_DATASOURCE_URL>
https://www.surechembl.org/

> <PUBCHEM_EXT_SUBSTANCE_URL>
https://www.surechembl.org/chemical/SCHEMBL16108947

> <PUBCHEM_CID_ASSOCIATIONS>
86274553  1

> <PUBCHEM_COORDINATE_TYPE>
1
3

$$$$
