310931361
  -OEChem-07211613022D

 26 29  0     1  0  0  0  0  0999 V2000
    3.2810    0.0000    0.0000 O   0  0  0  0  0  0  0  0  0  0  0  0
    4.4175   -1.9514    0.0000 O   0  0  0  0  0  0  0  0  0  0  0  0
    5.1252   -0.7077    0.0000 O   0  0  0  0  0  0  0  0  0  0  0  0
    0.0000   -2.3589    0.0000 O   0  0  0  0  0  0  0  0  0  0  0  0
    3.7099   -0.7077    0.0000 C   0  0  3  0  0  0  0  0  0  0  0  0
    2.8735   -0.7077    0.0000 C   0  0  3  0  0  0  0  0  0  0  0  0
    3.4954   -1.5226    0.0000 C   0  0  0  0  0  0  0  0  0  0  0  0
    4.4175   -1.1151    0.0000 C   0  0  0  0  0  0  0  0  0  0  0  0
    2.1659   -1.1151    0.0000 C   0  0  0  0  0  0  0  0  0  0  0  0
    4.0744   -2.1015    0.0000 C   0  0  0  0  0  0  0  0  0  0  0  0
    2.7020   -1.7370    0.0000 C   0  0  0  0  0  0  0  0  0  0  0  0
    2.1444   -1.9514    0.0000 C   0  0  0  0  0  0  0  0  0  0  0  0
    1.4367   -0.7291    0.0000 C   0  0  0  0  0  0  0  0  0  0  0  0
    5.1252   -2.3589    0.0000 C   0  0  0  0  0  0  0  0  0  0  0  0
    3.8600   -2.8950    0.0000 C   0  0  0  0  0  0  0  0  0  0  0  0
    2.4876   -2.5304    0.0000 C   0  0  0  0  0  0  0  0  0  0  0  0
    3.0666   -3.1095    0.0000 C   0  0  0  0  0  0  0  0  0  0  0  0
    1.4367   -2.3803    0.0000 C   0  0  0  0  0  0  0  0  0  0  0  0
    0.7291   -1.1151    0.0000 C   0  0  0  0  0  0  0  0  0  0  0  0
    0.7291   -1.9514    0.0000 C   0  0  0  0  0  0  0  0  0  0  0  0
    5.8757   -2.0157    0.0000 C   0  0  0  0  0  0  0  0  0  0  0  0
    5.2110   -3.1738    0.0000 C   0  0  0  0  0  0  0  0  0  0  0  0
    2.8307   -3.9029    0.0000 C   0  0  0  0  0  0  0  0  0  0  0  0
    6.4333   -2.6376    0.0000 C   0  0  0  0  0  0  0  0  0  0  0  0
    6.0259   -3.3453    0.0000 C   0  0  0  0  0  0  0  0  0  0  0  0
    0.0000   -3.1952    0.0000 C   0  0  0  0  0  0  0  0  0  0  0  0
  1  5  1  0  0  0  0
  1  6  1  0  0  0  0
  2  8  1  0  0  0  0
  2 14  1  0  0  0  0
  3  8  2  0  0  0  0
  4 20  1  0  0  0  0
  4 26  1  0  0  0  0
  5  6  1  0  0  0  0
  5  7  1  0  0  0  0
  5  8  1  0  0  0  0
  6  9  1  0  0  0  0
  7 10  2  0  0  0  0
  7 11  1  0  0  0  0
  9 12  2  0  0  0  0
  9 13  1  0  0  0  0
 10 15  1  0  0  0  0
 11 16  2  0  0  0  0
 12 18  1  0  0  0  0
 13 19  2  0  0  0  0
 14 21  1  0  0  0  0
 14 22  1  0  0  0  0
 15 17  2  0  0  0  0
 16 17  1  0  0  0  0
 17 23  1  0  0  0  0
 18 20  2  0  0  0  0
 19 20  1  0  0  0  0
 21 24  1  0  0  0  0
 22 25  1  0  0  0  0
 24 25  1  0  0  0  0
M  END
> <PUBCHEM_COMPOUND_ID_TYPE>
0

> <PUBCHEM_TOTAL_CHARGE>
0

> <PUBCHEM_SUBSTANCE_ID>
310931361

> <PUBCHEM_SUBSTANCE_VERSION>
1

> <PUBCHEM_EXT_DATASOURCE_NAME>
4488

> <PUBCHEM_EXT_DATASOURCE_REGID>
SCHEMBL16108684

> <PUBCHEM_SUBSTANCE_COMMENT>
InChI=1S/C22H24O4/c1-15-7-11-17(12-8-15)22(21(23)25-19-5-3-4-6-19)20(26-22)16-9-13-18(24-2)14-10-16/h7-14,19-20H,3-6H2,1-2H3
InChIKey=IBMZRUNHUJHDJK-UHFFFAOYSA-N

> <PUBCHEM_SUBSTANCE_SYNONYM>
SCHEMBL16108684

> <PUBCHEM_XREF_EXT_ID>
SCHEMBL16108684

> <PUBCHEM_EXT_DATASOURCE_URL>
https://www.surechembl.org/

> <PUBCHEM_EXT_SUBSTANCE_URL>
https://www.surechembl.org/chemical/SCHEMBL16108684

> <PUBCHEM_CID_ASSOCIATIONS>
117600161  1

> <PUBCHEM_COORDINATE_TYPE>
1
3

$$$$
