310931761
  -OEChem-07211613022D

 30 33  0     1  0  0  0  0  0999 V2000
    2.8652   -2.1489    0.0000 O   0  0  0  0  0  0  0  0  0  0  0  0
    0.1024   -2.3876    0.0000 O   0  0  0  0  0  0  0  0  0  0  0  0
    7.3676   -2.2171    0.0000 O   0  0  0  0  0  0  0  0  0  0  0  0
    3.7520   -0.9892    0.0000 N   0  0  0  0  0  0  0  0  0  0  0  0
    3.6838   -0.1706    0.0000 N   0  0  0  0  0  0  0  0  0  0  0  0
    5.1846   -0.9892    0.0000 N   0  0  0  0  0  0  0  0  0  0  0  0
    0.0000   -0.9892    0.0000 N   0  0  0  0  0  0  0  0  0  0  0  0
    6.6512   -3.4791    0.0000 N   0  0  0  0  0  0  0  0  0  0  0  0
    9.3800   -3.2062    0.0000 N   0  0  3  0  0  0  0  0  0  0  0  0
    2.4217   -0.7163    0.0000 C   0  0  0  0  0  0  0  0  0  0  0  0
    3.0016   -1.3303    0.0000 C   0  0  0  0  0  0  0  0  0  0  0  0
    4.4683   -1.3985    0.0000 C   0  0  0  0  0  0  0  0  0  0  0  0
    1.6031   -0.8186    0.0000 C   0  0  0  0  0  0  0  0  0  0  0  0
    2.8652    0.0000    0.0000 C   0  0  0  0  0  0  0  0  0  0  0  0
    4.4683   -2.2171    0.0000 C   0  0  0  0  0  0  0  0  0  0  0  0
    1.2961   -1.6031    0.0000 C   0  0  0  0  0  0  0  0  0  0  0  0
    5.9009   -2.2171    0.0000 C   0  0  0  0  0  0  0  0  0  0  0  0
    1.1597   -0.1706    0.0000 C   0  0  0  0  0  0  0  0  0  0  0  0
    5.9009   -1.3985    0.0000 C   0  0  0  0  0  0  0  0  0  0  0  0
    5.1846   -2.6264    0.0000 C   0  0  0  0  0  0  0  0  0  0  0  0
    0.4434   -1.6373    0.0000 C   0  0  0  0  0  0  0  0  0  0  0  0
    6.6512   -2.6264    0.0000 C   0  0  0  0  0  0  0  0  0  0  0  0
    0.3070   -0.2046    0.0000 C   0  0  0  0  0  0  0  0  0  0  0  0
    8.0838   -3.4791    0.0000 C   0  0  3  0  0  0  0  0  0  0  0  0
    7.3676   -3.8884    0.0000 C   0  0  0  0  0  0  0  0  0  0  0  0
    8.8343   -3.8202    0.0000 C   0  0  0  0  0  0  0  0  0  0  0  0
    8.1861   -2.6605    0.0000 C   0  0  0  0  0  0  0  0  0  0  0  0
    8.9707   -2.4900    0.0000 C   0  0  0  0  0  0  0  0  0  0  0  0
    0.5798   -3.0698    0.0000 C   0  0  0  0  0  0  0  0  0  0  0  0
   10.2327   -3.2744    0.0000 C   0  0  0  0  0  0  0  0  0  0  0  0
  1 11  1  0  0  0  0
  2 21  1  0  0  0  0
  2 29  1  0  0  0  0
  3 22  2  0  0  0  0
  4  5  1  0  0  0  0
  4 11  1  0  0  0  0
  4 12  1  0  0  0  0
  5 14  2  0  0  0  0
  6 12  2  0  0  0  0
  6 19  1  0  0  0  0
  7 21  1  0  0  0  0
  7 23  2  0  0  0  0
  8 22  1  0  0  0  0
  8 25  1  0  0  0  0
  9 26  1  0  0  0  0
  9 28  1  0  0  0  0
  9 30  1  0  0  0  0
 10 11  2  0  0  0  0
 10 13  1  0  0  0  0
 10 14  1  0  0  0  0
 12 15  1  0  0  0  0
 13 16  1  0  0  0  0
 13 18  2  0  0  0  0
 15 20  2  0  0  0  0
 16 21  2  0  0  0  0
 17 19  2  0  0  0  0
 17 20  1  0  0  0  0
 17 22  1  0  0  0  0
 18 23  1  0  0  0  0
 24 25  1  0  0  0  0
 24 26  1  0  0  0  0
 24 27  1  0  0  0  0
 27 28  1  0  0  0  0
M  END
> <PUBCHEM_COMPOUND_ID_TYPE>
0

> <PUBCHEM_TOTAL_CHARGE>
0

> <PUBCHEM_SUBSTANCE_ID>
310931761

> <PUBCHEM_SUBSTANCE_VERSION>
1

> <PUBCHEM_EXT_DATASOURCE_NAME>
4488

> <PUBCHEM_EXT_DATASOURCE_REGID>
SCHEMBL16109090

> <PUBCHEM_SUBSTANCE_COMMENT>
InChI=1S/C21H24N6O3/c1-26-8-6-14(13-26)10-24-20(28)16-3-4-18(23-11-16)27-21(29)17(12-25-27)15-5-7-22-19(9-15)30-2/h3-5,7,9,11-12,14,29H,6,8,10,13H2,1-2H3,(H,24,28)
InChIKey=FGUBVTWOCYPZFR-UHFFFAOYSA-N

> <PUBCHEM_SUBSTANCE_SYNONYM>
SCHEMBL16109090

> <PUBCHEM_XREF_EXT_ID>
SCHEMBL16109090

> <PUBCHEM_EXT_DATASOURCE_URL>
https://www.surechembl.org/

> <PUBCHEM_EXT_SUBSTANCE_URL>
https://www.surechembl.org/chemical/SCHEMBL16109090

> <PUBCHEM_CID_ASSOCIATIONS>
117600449  1

> <PUBCHEM_COORDINATE_TYPE>
1
3

$$$$
