310934913
  -OEChem-07211613022D

 22 24  0     1  0  0  0  0  0999 V2000
    3.8841    0.0000    0.0000 F   0  0  0  0  0  0  0  0  0  0  0  0
    3.4128   -1.3387    0.0000 O   0  0  0  0  0  0  0  0  0  0  0  0
    4.2424   -2.5077    0.0000 O   0  0  0  0  0  0  0  0  0  0  0  0
    0.0000   -3.0356    0.0000 O   0  0  0  0  0  0  0  0  0  0  0  0
    2.8283   -2.6397    0.0000 C   0  0  3  0  0  0  0  0  0  0  0  0
    1.6592   -3.0356    0.0000 C   0  0  0  0  0  0  0  0  0  0  0  0
    2.7152   -1.8290    0.0000 C   0  0  0  0  0  0  0  0  0  0  0  0
    2.0363   -2.3569    0.0000 C   0  0  0  0  0  0  0  0  0  0  0  0
    2.8283   -3.4505    0.0000 C   0  0  0  0  0  0  0  0  0  0  0  0
    3.4882   -2.1494    0.0000 C   0  0  0  0  0  0  0  0  0  0  0  0
    2.0363   -3.7333    0.0000 C   0  0  0  0  0  0  0  0  0  0  0  0
    3.5071   -1.4707    0.0000 C   0  0  0  0  0  0  0  0  0  0  0  0
    1.2444   -3.7710    0.0000 C   0  0  0  0  0  0  0  0  0  0  0  0
    1.2444   -2.3192    0.0000 C   0  0  0  0  0  0  0  0  0  0  0  0
    1.9421   -1.5084    0.0000 C   0  0  0  0  0  0  0  0  0  0  0  0
    3.2242   -0.4902    0.0000 C   0  0  0  0  0  0  0  0  0  0  0  0
    1.8290   -0.6976    0.0000 C   0  0  0  0  0  0  0  0  0  0  0  0
    0.4148   -3.7710    0.0000 C   0  0  0  0  0  0  0  0  0  0  0  0
    0.4148   -2.3192    0.0000 C   0  0  0  0  0  0  0  0  0  0  0  0
    2.4700   -0.1886    0.0000 C   0  0  0  0  0  0  0  0  0  0  0  0
    4.1104   -1.6216    0.0000 C   0  0  0  0  0  0  0  0  0  0  0  0
    4.0727   -0.8673    0.0000 C   0  0  0  0  0  0  0  0  0  0  0  0
  1 16  1  0  0  0  0
  2 10  1  0  0  0  0
  2 22  1  0  0  0  0
  3 10  2  0  0  0  0
  4 18  1  0  0  0  0
  4 19  1  0  0  0  0
  5  7  1  0  0  0  0
  5  8  1  0  0  0  0
  5  9  1  0  0  0  0
  5 10  1  0  0  0  0
  6  8  1  0  0  0  0
  6 11  1  0  0  0  0
  6 13  1  0  0  0  0
  6 14  1  0  0  0  0
  7 12  1  0  0  0  0
  7 15  2  0  0  0  0
  9 11  1  0  0  0  0
 12 16  2  0  0  0  0
 12 21  1  0  0  0  0
 13 18  1  0  0  0  0
 14 19  1  0  0  0  0
 15 17  1  0  0  0  0
 16 20  1  0  0  0  0
 17 20  2  0  0  0  0
M  END
> <PUBCHEM_COMPOUND_ID_TYPE>
0

> <PUBCHEM_TOTAL_CHARGE>
0

> <PUBCHEM_SUBSTANCE_ID>
310934913

> <PUBCHEM_SUBSTANCE_VERSION>
1

> <PUBCHEM_EXT_DATASOURCE_NAME>
4488

> <PUBCHEM_EXT_DATASOURCE_REGID>
SCHEMBL16112426

> <PUBCHEM_SUBSTANCE_COMMENT>
InChI=1S/C18H23FO3/c1-13-14(4-3-5-15(13)19)18(16(20)21-2)7-6-17(12-18)8-10-22-11-9-17/h3-5H,6-12H2,1-2H3
InChIKey=JAMPINIOMOPKBN-UHFFFAOYSA-N

> <PUBCHEM_SUBSTANCE_SYNONYM>
SCHEMBL16112426

> <PUBCHEM_XREF_EXT_ID>
SCHEMBL16112426

> <PUBCHEM_EXT_DATASOURCE_URL>
https://www.surechembl.org/

> <PUBCHEM_EXT_SUBSTANCE_URL>
https://www.surechembl.org/chemical/SCHEMBL16112426

> <PUBCHEM_CID_ASSOCIATIONS>
117603039  1

> <PUBCHEM_COORDINATE_TYPE>
1
3

$$$$
