310935540
  -OEChem-07211613022D

 48 51  0     1  0  0  0  0  0999 V2000
    5.6794   -8.1354    0.0000 O   0  0  0  0  0  0  0  0  0  0  0  0
    7.8795   -7.7260    0.0000 O   0  0  0  0  0  0  0  0  0  0  0  0
    2.8141   -8.1354    0.0000 O   0  0  0  0  0  0  0  0  0  0  0  0
    7.1632   -8.9540    0.0000 O   0  0  0  0  0  0  0  0  0  0  0  0
    5.4235   -2.8653    0.0000 O   0  0  0  0  0  0  0  0  0  0  0  0
    2.5071   -2.1489    0.0000 O   0  0  0  0  0  0  0  0  0  0  0  0
    1.6373   -2.1489    0.0000 O   0  0  0  0  0  0  0  0  0  0  0  0
    6.4469   -5.2189    0.0000 N   0  0  0  0  0  0  0  0  0  0  0  0
    4.9631   -6.9073    0.0000 N   0  0  0  0  0  0  0  0  0  0  0  0
    6.2422   -4.4002    0.0000 N   0  0  0  0  0  0  0  0  0  0  0  0
    4.1444   -3.5816    0.0000 N   0  0  0  0  0  0  0  0  0  0  0  0
    5.7306   -6.4469    0.0000 C   0  0  0  0  0  0  0  0  0  0  0  0
    5.7306   -5.6282    0.0000 C   0  0  0  0  0  0  0  0  0  0  0  0
    6.4469   -6.9073    0.0000 C   0  0  0  0  0  0  0  0  0  0  0  0
    7.1632   -6.4469    0.0000 C   0  0  0  0  0  0  0  0  0  0  0  0
    6.4469   -7.7260    0.0000 C   0  0  3  0  0  0  0  0  0  0  0  0
    5.0654   -5.0654    0.0000 C   0  0  0  0  0  0  0  0  0  0  0  0
    7.1632   -5.6282    0.0000 C   0  0  0  0  0  0  0  0  0  0  0  0
    5.4235   -4.2979    0.0000 C   0  0  0  0  0  0  0  0  0  0  0  0
    7.1632   -8.1354    0.0000 C   0  0  0  0  0  0  0  0  0  0  0  0
    5.0142   -7.7260    0.0000 C   0  0  0  0  0  0  0  0  0  0  0  0
    4.2979   -6.4469    0.0000 C   0  0  0  0  0  0  0  0  0  0  0  0
    5.0142   -3.5816    0.0000 C   0  0  0  0  0  0  0  0  0  0  0  0
    3.5304   -7.7260    0.0000 C   0  0  0  0  0  0  0  0  0  0  0  0
    4.2979   -8.1354    0.0000 C   0  0  0  0  0  0  0  0  0  0  0  0
    3.5304   -6.9073    0.0000 C   0  0  0  0  0  0  0  0  0  0  0  0
    7.8795   -6.9073    0.0000 C   0  0  0  0  0  0  0  0  0  0  0  0
    5.6794   -8.9540    0.0000 C   0  0  0  0  0  0  0  0  0  0  0  0
    2.8141   -7.3167    0.0000 C   0  0  0  0  0  0  0  0  0  0  0  0
    5.6794   -9.8238    0.0000 C   0  0  0  0  0  0  0  0  0  0  0  0
    4.8607   -8.9540    0.0000 C   0  0  0  0  0  0  0  0  0  0  0  0
    6.4980   -9.0051    0.0000 C   0  0  0  0  0  0  0  0  0  0  0  0
    3.7351   -2.8653    0.0000 C   0  0  0  0  0  0  0  0  0  0  0  0
    2.8141   -8.9540    0.0000 C   0  0  0  0  0  0  0  0  0  0  0  0
    8.5958   -8.1354    0.0000 C   0  0  0  0  0  0  0  0  0  0  0  0
    2.9164   -2.8653    0.0000 C   0  0  3  0  0  0  0  0  0  0  0  0
    2.5071   -3.5816    0.0000 C   0  0  0  0  0  0  0  0  0  0  0  0
    1.6373   -3.5816    0.0000 C   0  0  0  0  0  0  0  0  0  0  0  0
    2.0978   -9.3633    0.0000 C   0  0  0  0  0  0  0  0  0  0  0  0
    1.2280   -2.8653    0.0000 C   0  0  0  0  0  0  0  0  0  0  0  0
    1.2280   -4.3491    0.0000 C   0  0  0  0  0  0  0  0  0  0  0  0
    0.4093   -2.9164    0.0000 C   0  0  0  0  0  0  0  0  0  0  0  0
    0.4093   -4.3491    0.0000 C   0  0  0  0  0  0  0  0  0  0  0  0
    0.0000   -3.6327    0.0000 C   0  0  0  0  0  0  0  0  0  0  0  0
    2.0978  -10.2331    0.0000 C   0  0  0  0  0  0  0  0  0  0  0  0
    1.2280   -1.4326    0.0000 C   0  0  0  0  0  0  0  0  0  0  0  0
    1.5861   -0.7163    0.0000 C   0  0  0  0  0  0  0  0  0  0  0  0
    1.1768    0.0000    0.0000 C   0  0  0  0  0  0  0  0  0  0  0  0
  1 16  1  0  0  0  0
  1 28  1  0  0  0  0
  2 20  1  0  0  0  0
  2 35  1  0  0  0  0
  3 24  1  0  0  0  0
  3 34  1  0  0  0  0
  4 20  2  0  0  0  0
  5 23  2  0  0  0  0
  6 36  1  0  0  0  0
  7 40  1  0  0  0  0
  7 46  1  0  0  0  0
  8 10  1  0  0  0  0
  8 13  1  0  0  0  0
  8 18  1  0  0  0  0
  9 12  1  0  0  0  0
  9 21  1  0  0  0  0
  9 22  1  0  0  0  0
 10 19  2  0  0  0  0
 11 23  1  0  0  0  0
 11 33  1  0  0  0  0
 12 13  1  0  0  0  0
 12 14  2  0  0  0  0
 13 17  2  0  0  0  0
 14 15  1  0  0  0  0
 14 16  1  0  0  0  0
 15 18  2  0  0  0  0
 15 27  1  0  0  0  0
 16 20  1  0  0  0  0
 17 19  1  0  0  0  0
 19 23  1  0  0  0  0
 21 25  1  0  0  0  0
 22 26  1  0  0  0  0
 24 25  1  0  0  0  0
 24 26  1  0  0  0  0
 24 29  1  0  0  0  0
 28 30  1  0  0  0  0
 28 31  1  0  0  0  0
 28 32  1  0  0  0  0
 33 36  1  0  0  0  0
 34 39  1  0  0  0  0
 36 37  1  0  0  0  0
 37 38  1  0  0  0  0
 38 40  1  0  0  0  0
 38 41  2  0  0  0  0
 39 45  2  0  0  0  0
 40 42  2  0  0  0  0
 41 43  1  0  0  0  0
 42 44  1  0  0  0  0
 43 44  2  0  0  0  0
 46 47  1  0  0  0  0
 47 48  2  0  0  0  0
M  END
> <PUBCHEM_COMPOUND_ID_TYPE>
0

> <PUBCHEM_TOTAL_CHARGE>
0

> <PUBCHEM_SUBSTANCE_ID>
310935540

> <PUBCHEM_SUBSTANCE_VERSION>
1

> <PUBCHEM_EXT_DATASOURCE_NAME>
4488

> <PUBCHEM_EXT_DATASOURCE_REGID>
SCHEMBL16113110

> <PUBCHEM_SUBSTANCE_COMMENT>
InChI=1S/C37H50N4O7/c1-9-19-46-30-14-12-11-13-26(30)21-27(42)23-38-34(43)28-22-29-32(40-17-15-37(7,16-18-40)47-20-10-2)31(25(3)24-41(29)39-28)33(35(44)45-8)48-36(4,5)6/h9-14,22,24,27,33,42H,1-2,15-21,23H2,3-8H3,(H,38,43)
InChIKey=RPMDOLCECWQQFG-UHFFFAOYSA-N

> <PUBCHEM_SUBSTANCE_SYNONYM>
SCHEMBL16113110

> <PUBCHEM_XREF_EXT_ID>
SCHEMBL16113110

> <PUBCHEM_EXT_DATASOURCE_URL>
https://www.surechembl.org/

> <PUBCHEM_EXT_SUBSTANCE_URL>
https://www.surechembl.org/chemical/SCHEMBL16113110

> <PUBCHEM_CID_ASSOCIATIONS>
117603564  1

> <PUBCHEM_COORDINATE_TYPE>
1
3

$$$$
