310938031
  -OEChem-07211613022D

 39 43  0     1  0  0  0  0  0999 V2000
    4.3143   -5.3029    0.0000 O   0  0  0  0  0  0  0  0  0  0  0  0
    7.1455   -5.3029    0.0000 O   0  0  0  0  0  0  0  0  0  0  0  0
    0.0000   -0.4044    0.0000 O   0  0  0  0  0  0  0  0  0  0  0  0
    6.5163   -2.5616    0.0000 N   0  0  3  0  0  0  0  0  0  0  0  0
    5.7074   -5.3029    0.0000 N   0  0  0  0  0  0  0  0  0  0  0  0
    1.4381   -1.2134    0.0000 N   0  0  0  0  0  0  0  0  0  0  0  0
    7.8646   -6.5163    0.0000 N   0  0  0  0  0  0  0  0  0  0  0  0
    5.7074   -3.6402    0.0000 C   0  0  0  0  0  0  0  0  0  0  0  0
    5.7074   -2.8313    0.0000 C   0  0  0  0  0  0  0  0  0  0  0  0
    4.9884   -4.0446    0.0000 C   0  0  0  0  0  0  0  0  0  0  0  0
    4.3143   -2.8313    0.0000 C   0  0  0  0  0  0  0  0  0  0  0  0
    4.9884   -2.4268    0.0000 C   0  0  0  0  0  0  0  0  0  0  0  0
    4.3143   -3.6402    0.0000 C   0  0  0  0  0  0  0  0  0  0  0  0
    6.5163   -3.9098    0.0000 C   0  0  0  0  0  0  0  0  0  0  0  0
    4.9884   -4.8985    0.0000 C   0  0  0  0  0  0  0  0  0  0  0  0
    6.9658   -3.2357    0.0000 C   0  0  0  0  0  0  0  0  0  0  0  0
    3.5952   -2.4268    0.0000 C   0  0  0  0  0  0  0  0  0  0  0  0
    6.7410   -1.7976    0.0000 C   0  0  0  0  0  0  0  0  0  0  0  0
    2.8762   -2.8762    0.0000 C   0  0  0  0  0  0  0  0  0  0  0  0
    3.5952   -1.6179    0.0000 C   0  0  0  0  0  0  0  0  0  0  0  0
    6.4265   -6.5163    0.0000 C   0  0  0  0  0  0  0  0  0  0  0  0
    2.1571   -1.6179    0.0000 C   0  0  0  0  0  0  0  0  0  0  0  0
    5.7074   -6.1119    0.0000 C   0  0  0  0  0  0  0  0  0  0  0  0
    6.4265   -7.3702    0.0000 C   0  0  0  0  0  0  0  0  0  0  0  0
    2.1571   -2.4717    0.0000 C   0  0  0  0  0  0  0  0  0  0  0  0
    2.8762   -1.2134    0.0000 C   0  0  0  0  0  0  0  0  0  0  0  0
    7.1455   -6.1119    0.0000 C   0  0  0  0  0  0  0  0  0  0  0  0
    6.2017   -1.1684    0.0000 C   0  0  0  0  0  0  0  0  0  0  0  0
    7.5500   -1.6179    0.0000 C   0  0  0  0  0  0  0  0  0  0  0  0
    7.1455   -7.7747    0.0000 C   0  0  0  0  0  0  0  0  0  0  0  0
    7.8646   -7.3702    0.0000 C   0  0  0  0  0  0  0  0  0  0  0  0
    5.7524   -7.7747    0.0000 C   0  0  0  0  0  0  0  0  0  0  0  0
    0.7190   -1.6179    0.0000 C   0  0  0  0  0  0  0  0  0  0  0  0
    1.4381   -0.4044    0.0000 C   0  0  0  0  0  0  0  0  0  0  0  0
    8.5836   -7.7747    0.0000 C   0  0  0  0  0  0  0  0  0  0  0  0
    0.0449   -1.2134    0.0000 C   0  0  0  0  0  0  0  0  0  0  0  0
    0.7640    0.0000    0.0000 C   0  0  0  0  0  0  0  0  0  0  0  0
    5.7524   -8.5836    0.0000 C   0  0  0  0  0  0  0  0  0  0  0  0
    6.4714   -8.9881    0.0000 C   0  0  0  0  0  0  0  0  0  0  0  0
  1 15  2  0  0  0  0
  2 27  2  0  0  0  0
  3 36  1  0  0  0  0
  3 37  1  0  0  0  0
  4  9  1  0  0  0  0
  4 16  1  0  0  0  0
  4 18  1  0  0  0  0
  5 15  1  0  0  0  0
  5 23  1  0  0  0  0
  6 22  1  0  0  0  0
  6 33  1  0  0  0  0
  6 34  1  0  0  0  0
  7 27  1  0  0  0  0
  7 31  1  0  0  0  0
  8  9  2  0  0  0  0
  8 10  1  0  0  0  0
  8 14  1  0  0  0  0
  9 12  1  0  0  0  0
 10 13  2  0  0  0  0
 10 15  1  0  0  0  0
 11 12  2  0  0  0  0
 11 13  1  0  0  0  0
 11 17  1  0  0  0  0
 14 16  1  0  0  0  0
 17 19  2  0  0  0  0
 17 20  1  0  0  0  0
 18 28  1  0  0  0  0
 18 29  1  0  0  0  0
 19 25  1  0  0  0  0
 20 26  2  0  0  0  0
 21 23  1  0  0  0  0
 21 24  2  0  0  0  0
 21 27  1  0  0  0  0
 22 25  2  0  0  0  0
 22 26  1  0  0  0  0
 24 30  1  0  0  0  0
 24 32  1  0  0  0  0
 30 31  2  0  0  0  0
 31 35  1  0  0  0  0
 32 38  1  0  0  0  0
 33 36  1  0  0  0  0
 34 37  1  0  0  0  0
 38 39  1  0  0  0  0
M  END
> <PUBCHEM_COMPOUND_ID_TYPE>
0

> <PUBCHEM_TOTAL_CHARGE>
0

> <PUBCHEM_SUBSTANCE_ID>
310938031

> <PUBCHEM_SUBSTANCE_VERSION>
1

> <PUBCHEM_EXT_DATASOURCE_NAME>
4488

> <PUBCHEM_EXT_DATASOURCE_REGID>
SCHEMBL16115871

> <PUBCHEM_SUBSTANCE_COMMENT>
InChI=1S/C32H40N4O3/c1-5-6-24-17-22(4)34-32(38)29(24)20-33-31(37)28-18-25(19-30-27(28)11-12-36(30)21(2)3)23-7-9-26(10-8-23)35-13-15-39-16-14-35/h7-10,17-19,21H,5-6,11-16,20H2,1-4H3,(H,33,37)(H,34,38)
InChIKey=XFFSYGZLGIHBFE-UHFFFAOYSA-N

> <PUBCHEM_SUBSTANCE_SYNONYM>
SCHEMBL16115871

> <PUBCHEM_XREF_EXT_ID>
SCHEMBL16115871

> <PUBCHEM_EXT_DATASOURCE_URL>
https://www.surechembl.org/

> <PUBCHEM_EXT_SUBSTANCE_URL>
https://www.surechembl.org/chemical/SCHEMBL16115871

> <PUBCHEM_CID_ASSOCIATIONS>
86273637  1

> <PUBCHEM_COORDINATE_TYPE>
1
3

$$$$
