310936138
  -OEChem-07211613022D

 34 36  0     1  0  0  0  0  0999 V2000
    3.3651   -2.2476    0.0000 S   0  0  0  0  0  0  0  0  0  0  0  0
    1.9772   -0.8274    0.0000 O   0  0  0  0  0  0  0  0  0  0  0  0
    2.6244    0.4466    0.0000 O   0  0  0  0  0  0  0  0  0  0  0  0
    3.4835   -0.5053    0.0000 O   0  0  0  0  0  0  0  0  0  0  0  0
    0.0765   -3.9019    0.0000 O   0  0  0  0  0  0  0  0  0  0  0  0
   -1.1975   -3.2547    0.0000 O   0  0  0  0  0  0  0  0  0  0  0  0
    0.0000   -2.4750    0.0000 N   0  0  0  0  0  0  0  0  0  0  0  0
    2.0213   -1.6512    0.0000 C   0  0  3  0  0  0  0  0  0  0  0  0
    1.1975   -1.6953    0.0000 C   0  0  3  0  0  0  0  0  0  0  0  0
    2.0655   -2.4750    0.0000 C   0  0  0  0  0  0  0  0  0  0  0  0
    2.8451   -1.6070    0.0000 C   0  0  0  0  0  0  0  0  0  0  0  0
    0.7474   -1.0040    0.0000 C   0  0  0  0  0  0  0  0  0  0  0  0
    0.8238   -2.4309    0.0000 C   0  0  0  0  0  0  0  0  0  0  0  0
    3.2936   -0.9146    0.0000 C   0  0  0  0  0  0  0  0  0  0  0  0
    2.6685   -0.3772    0.0000 C   0  0  0  0  0  0  0  0  0  0  0  0
   -0.0765   -1.0481    0.0000 C   0  0  0  0  0  0  0  0  0  0  0  0
    1.2416   -2.5191    0.0000 C   0  0  0  0  0  0  0  0  0  0  0  0
    2.8893   -2.4309    0.0000 C   0  0  0  0  0  0  0  0  0  0  0  0
    2.1096   -3.2988    0.0000 C   0  0  0  0  0  0  0  0  0  0  0  0
    1.1210   -0.2684    0.0000 C   0  0  0  0  0  0  0  0  0  0  0  0
   -0.5266   -0.3567    0.0000 C   0  0  0  0  0  0  0  0  0  0  0  0
    4.1349   -1.9510    0.0000 C   0  0  0  0  0  0  0  0  0  0  0  0
    4.0908   -1.1272    0.0000 C   0  0  0  0  0  0  0  0  0  0  0  0
   -0.1529    0.3788    0.0000 C   0  0  0  0  0  0  0  0  0  0  0  0
    0.6709    0.4229    0.0000 C   0  0  0  0  0  0  0  0  0  0  0  0
   -1.3504   -0.4009    0.0000 C   0  0  0  0  0  0  0  0  0  0  0  0
    3.3158    0.8967    0.0000 C   0  0  0  0  0  0  0  0  0  0  0  0
   -0.6031    1.0702    0.0000 C   0  0  0  0  0  0  0  0  0  0  0  0
   -0.3737   -3.2105    0.0000 C   0  0  0  0  0  0  0  0  0  0  0  0
   -1.8006    0.2905    0.0000 C   0  0  0  0  0  0  0  0  0  0  0  0
   -1.4269    1.0260    0.0000 C   0  0  0  0  0  0  0  0  0  0  0  0
    4.0071    1.3469    0.0000 C   0  0  0  0  0  0  0  0  0  0  0  0
    2.8656    1.5881    0.0000 C   0  0  0  0  0  0  0  0  0  0  0  0
    3.7659    0.2054    0.0000 C   0  0  0  0  0  0  0  0  0  0  0  0
  1 11  1  0  0  0  0
  1 22  1  0  0  0  0
  2  8  1  0  0  0  0
  2 15  1  0  0  0  0
  3 15  1  0  0  0  0
  3 27  1  0  0  0  0
  4 15  2  0  0  0  0
  5 29  2  0  0  0  0
  6 29  1  0  0  0  0
  7 13  1  0  0  0  0
  7 29  1  0  0  0  0
  8  9  1  0  0  0  0
  8 10  1  0  0  0  0
  8 11  1  0  0  0  0
  9 12  1  0  0  0  0
  9 13  1  0  0  0  0
 10 17  1  0  0  0  0
 10 18  1  0  0  0  0
 10 19  1  0  0  0  0
 11 14  2  0  0  0  0
 12 16  2  0  0  0  0
 12 20  1  0  0  0  0
 14 23  1  0  0  0  0
 16 21  1  0  0  0  0
 20 25  2  0  0  0  0
 21 24  1  0  0  0  0
 21 26  2  0  0  0  0
 22 23  2  0  0  0  0
 24 25  1  0  0  0  0
 24 28  2  0  0  0  0
 26 30  1  0  0  0  0
 27 32  1  0  0  0  0
 27 33  1  0  0  0  0
 27 34  1  0  0  0  0
 28 31  1  0  0  0  0
 30 31  2  0  0  0  0
M  END
> <PUBCHEM_COMPOUND_ID_TYPE>
0

> <PUBCHEM_TOTAL_CHARGE>
0

> <PUBCHEM_SUBSTANCE_ID>
310936138

> <PUBCHEM_SUBSTANCE_VERSION>
1

> <PUBCHEM_EXT_DATASOURCE_NAME>
4488

> <PUBCHEM_EXT_DATASOURCE_REGID>
SCHEMBL16113748

> <PUBCHEM_SUBSTANCE_COMMENT>
InChI=1S/C27H33NO5S/c1-25(2,3)27(22-12-9-15-34-22,33-24(31)32-26(4,5)6)21(17-28-23(29)30)20-14-13-18-10-7-8-11-19(18)16-20/h7-16,21,28H,17H2,1-6H3,(H,29,30)
InChIKey=ABOVBBYHOSXTOE-UHFFFAOYSA-N

> <PUBCHEM_SUBSTANCE_SYNONYM>
SCHEMBL16113748

> <PUBCHEM_XREF_EXT_ID>
SCHEMBL16113748

> <PUBCHEM_EXT_DATASOURCE_URL>
https://www.surechembl.org/

> <PUBCHEM_EXT_SUBSTANCE_URL>
https://www.surechembl.org/chemical/SCHEMBL16113748

> <PUBCHEM_CID_ASSOCIATIONS>
117604101  1

> <PUBCHEM_COORDINATE_TYPE>
1
3

$$$$
