310945730
  -OEChem-07211613022D

 15 16  0     1  0  0  0  0  0999 V2000
   -2.0082   -0.4698    0.0000 I   0  0  0  0  0  0  0  0  0  0  0  0
    0.2027    1.9806    0.0000 Cl  0  0  0  0  0  0  0  0  0  0  0  0
    1.2160    0.9489    0.0000 S   0  0  0  0  0  0  0  0  0  0  0  0
    1.9346    1.3542    0.0000 O   0  0  0  0  0  0  0  0  0  0  0  0
    2.0082    0.7646    0.0000 O   0  0  0  0  0  0  0  0  0  0  0  0
    0.4422    0.2856    0.0000 N   0  0  3  0  0  0  0  0  0  0  0  0
   -0.5159   -1.9806    0.0000 N   0  0  0  0  0  0  0  0  0  0  0  0
   -1.3081   -1.7964    0.0000 N   0  0  0  0  0  0  0  0  0  0  0  0
   -0.6633   -0.6725    0.0000 C   0  0  0  0  0  0  0  0  0  0  0  0
   -0.0921   -1.2437    0.0000 C   0  0  0  0  0  0  0  0  0  0  0  0
   -0.3869    0.1197    0.0000 C   0  0  0  0  0  0  0  0  0  0  0  0
   -1.3450   -0.9672    0.0000 C   0  0  0  0  0  0  0  0  0  0  0  0
    0.9581   -0.3040    0.0000 C   0  0  0  0  0  0  0  0  0  0  0  0
    0.7186   -1.0778    0.0000 C   0  0  0  0  0  0  0  0  0  0  0  0
    1.1976    1.7779    0.0000 C   0  0  0  0  0  0  0  0  0  0  0  0
  1 12  1  0  0  0  0
  2 15  1  0  0  0  0
  3  4  2  0  0  0  0
  3  5  2  0  0  0  0
  3  6  1  0  0  0  0
  3 15  1  0  0  0  0
  6 11  1  0  0  0  0
  6 13  1  0  0  0  0
  7  8  1  0  0  0  0
  7 10  1  0  0  0  0
  8 12  2  0  0  0  0
  9 10  2  0  0  0  0
  9 11  1  0  0  0  0
  9 12  1  0  0  0  0
 10 14  1  0  0  0  0
 13 14  1  0  0  0  0
M  END
> <PUBCHEM_COMPOUND_ID_TYPE>
0

> <PUBCHEM_TOTAL_CHARGE>
0

> <PUBCHEM_SUBSTANCE_ID>
310945730

> <PUBCHEM_SUBSTANCE_VERSION>
1

> <PUBCHEM_EXT_DATASOURCE_NAME>
4488

> <PUBCHEM_EXT_DATASOURCE_REGID>
SCHEMBL16123834

> <PUBCHEM_SUBSTANCE_COMMENT>
InChI=1S/C7H9ClIN3O2S/c8-4-15(13,14)12-2-1-6-5(3-12)7(9)11-10-6/h1-4H2,(H,10,11)
InChIKey=JRVSWZBWCUZZAM-UHFFFAOYSA-N

> <PUBCHEM_SUBSTANCE_SYNONYM>
SCHEMBL16123834

> <PUBCHEM_XREF_EXT_ID>
SCHEMBL16123834

> <PUBCHEM_EXT_DATASOURCE_URL>
https://www.surechembl.org/

> <PUBCHEM_EXT_SUBSTANCE_URL>
https://www.surechembl.org/chemical/SCHEMBL16123834

> <PUBCHEM_CID_ASSOCIATIONS>
117611727  1

> <PUBCHEM_COORDINATE_TYPE>
1
3

$$$$
