310946629
  -OEChem-07211613022D

 31 30  0     1  0  0  0  0  0999 V2000
   -7.0804  -10.1255    0.0000 O   0  0  0  0  0  0  0  0  0  0  0  0
   -6.4970  -11.1921    0.0000 O   0  0  0  0  0  0  0  0  0  0  0  0
   -7.0804  -12.6005    0.0000 O   0  0  0  0  0  0  0  0  0  0  0  0
   -9.2238  -10.5380    0.0000 O   0  0  0  0  0  0  0  0  0  0  0  0
   -7.7949   -8.8880    0.0000 O   0  0  0  0  0  0  0  0  0  0  0  0
  -10.6528  -13.8380    0.0000 O   0  0  0  0  0  0  0  0  0  0  0  0
   -4.2225   -9.3005    0.0000 O   0  0  0  0  0  0  0  0  0  0  0  0
   -9.9383  -15.0755    0.0000 O   0  5  0  0  0  0  0  0  0  0  0  0
   -9.2238  -13.8380    0.0000 O   0  0  0  0  0  0  0  0  0  0  0  0
   -2.7936   -9.3005    0.0000 O   0  5  0  0  0  0  0  0  0  0  0  0
   -3.5080   -8.0630    0.0000 O   0  0  0  0  0  0  0  0  0  0  0  0
   -8.5093  -11.7755    0.0000 N   0  0  0  0  0  0  0  0  0  0  0  0
   -9.9383  -14.2505    0.0000 N   0  3  0  0  0  0  0  0  0  0  0  0
   -3.5080   -8.8880    0.0000 N   0  3  0  0  0  0  0  0  0  0  0  0
   -7.7949  -11.3630    0.0000 C   0  0  3  0  0  0  0  0  0  0  0  0
   -7.7949  -10.5380    0.0000 C   0  0  3  0  0  0  0  0  0  0  0  0
   -7.0804  -11.7755    0.0000 C   0  0  0  0  0  0  0  0  0  0  0  0
   -9.2238  -11.3630    0.0000 C   0  0  0  0  0  0  0  0  0  0  0  0
   -7.0804   -9.3005    0.0000 C   0  0  0  0  0  0  0  0  0  0  0  0
   -8.5093  -10.1255    0.0000 C   0  0  0  0  0  0  0  0  0  0  0  0
   -9.9383  -11.7755    0.0000 C   0  0  0  0  0  0  0  0  0  0  0  0
   -6.3659   -8.8880    0.0000 C   0  0  0  0  0  0  0  0  0  0  0  0
   -5.7001  -11.4057    0.0000 C   0  0  0  0  0  0  0  0  0  0  0  0
   -9.9383  -12.6005    0.0000 C   0  0  0  0  0  0  0  0  0  0  0  0
   -5.6515   -9.3005    0.0000 C   0  0  0  0  0  0  0  0  0  0  0  0
   -5.1168  -10.8223    0.0000 C   0  0  0  0  0  0  0  0  0  0  0  0
  -10.6528  -13.0130    0.0000 C   0  0  0  0  0  0  0  0  0  0  0  0
   -4.9370   -8.8880    0.0000 C   0  0  0  0  0  0  0  0  0  0  0  0
   -4.3199  -11.0358    0.0000 C   0  0  0  0  0  0  0  0  0  0  0  0
   -3.7365  -10.4525    0.0000 C   0  0  0  0  0  0  0  0  0  0  0  0
   -2.9396  -10.6660    0.0000 C   0  0  0  0  0  0  0  0  0  0  0  0
  1 16  1  0  0  0  0
  1 19  1  0  0  0  0
  2 17  1  0  0  0  0
  2 23  1  0  0  0  0
  3 17  2  0  0  0  0
  4 18  2  0  0  0  0
  5 19  2  0  0  0  0
  6 13  1  0  0  0  0
  6 27  1  0  0  0  0
  7 14  1  0  0  0  0
  7 28  1  0  0  0  0
  8 13  1  0  0  0  0
  9 13  2  0  0  0  0
 10 14  1  0  0  0  0
 11 14  2  0  0  0  0
 12 15  1  0  0  0  0
 12 18  1  0  0  0  0
 15 16  1  0  0  0  0
 15 17  1  0  0  0  0
 16 20  1  0  0  0  0
 18 21  1  0  0  0  0
 19 22  1  0  0  0  0
 21 24  1  0  0  0  0
 22 25  1  0  0  0  0
 23 26  1  0  0  0  0
 24 27  1  0  0  0  0
 25 28  1  0  0  0  0
 26 29  1  0  0  0  0
 29 30  1  0  0  0  0
 30 31  1  0  0  0  0
M  CHG  4   8  -1  10  -1  13   1  14   1
M  END
> <PUBCHEM_COMPOUND_ID_TYPE>
0

> <PUBCHEM_TOTAL_CHARGE>
0

> <PUBCHEM_SUBSTANCE_ID>
310946629

> <PUBCHEM_SUBSTANCE_VERSION>
1

> <PUBCHEM_EXT_DATASOURCE_NAME>
4488

> <PUBCHEM_EXT_DATASOURCE_REGID>
SCHEMBL16124750

> <PUBCHEM_SUBSTANCE_COMMENT>
InChI=1S/C17H29N3O11/c1-3-4-5-10-28-17(23)16(18-14(21)8-6-11-29-19(24)25)13(2)31-15(22)9-7-12-30-20(26)27/h13,16H,3-12H2,1-2H3,(H,18,21)
InChIKey=KZKDDMYEMJXGNC-UHFFFAOYSA-N

> <PUBCHEM_SUBSTANCE_SYNONYM>
SCHEMBL16124750

> <PUBCHEM_XREF_EXT_ID>
SCHEMBL16124750

> <PUBCHEM_EXT_DATASOURCE_URL>
https://www.surechembl.org/

> <PUBCHEM_EXT_SUBSTANCE_URL>
https://www.surechembl.org/chemical/SCHEMBL16124750

> <PUBCHEM_CID_ASSOCIATIONS>
117612529  1

> <PUBCHEM_COORDINATE_TYPE>
1
3

$$$$
