310946504
  -OEChem-07211613022D

 17 16  0     1  0  0  0  0  0999 V2000
   -6.2226   -2.4024    0.0000 O   0  0  0  0  0  0  0  0  0  0  0  0
   -7.6515   -5.7024    0.0000 O   0  0  0  0  0  0  0  0  0  0  0  0
   -8.3660   -4.4649    0.0000 O   0  0  0  0  0  0  0  0  0  0  0  0
   -7.6515   -2.4024    0.0000 O   0  0  0  0  0  0  0  0  0  0  0  0
   -6.9370   -3.6399    0.0000 N   0  0  0  0  0  0  0  0  0  0  0  0
   -6.9370   -4.4649    0.0000 C   0  0  3  0  0  0  0  0  0  0  0  0
   -6.2226   -4.8774    0.0000 C   0  0  3  0  0  0  0  0  0  0  0  0
   -7.6515   -4.8774    0.0000 C   0  0  0  0  0  0  0  0  0  0  0  0
   -6.9370   -2.8149    0.0000 C   0  0  0  0  0  0  0  0  0  0  0  0
   -5.5081   -4.4649    0.0000 C   0  0  0  0  0  0  0  0  0  0  0  0
   -6.2226   -5.7024    0.0000 C   0  0  0  0  0  0  0  0  0  0  0  0
   -5.8101   -1.6879    0.0000 C   0  0  0  0  0  0  0  0  0  0  0  0
   -4.9851   -1.6879    0.0000 C   0  0  0  0  0  0  0  0  0  0  0  0
   -4.7936   -4.8774    0.0000 C   0  0  0  0  0  0  0  0  0  0  0  0
   -4.5726   -0.9734    0.0000 C   0  0  0  0  0  0  0  0  0  0  0  0
   -3.7476   -0.9734    0.0000 C   0  0  0  0  0  0  0  0  0  0  0  0
   -3.3351   -0.2589    0.0000 C   0  0  0  0  0  0  0  0  0  0  0  0
  1  9  1  0  0  0  0
  1 12  1  0  0  0  0
  2  8  2  0  0  0  0
  3  8  1  0  0  0  0
  4  9  2  0  0  0  0
  5  6  1  0  0  0  0
  5  9  1  0  0  0  0
  6  7  1  0  0  0  0
  6  8  1  0  0  0  0
  7 10  1  0  0  0  0
  7 11  1  0  0  0  0
 10 14  1  0  0  0  0
 12 13  1  0  0  0  0
 13 15  1  0  0  0  0
 15 16  1  0  0  0  0
 16 17  1  0  0  0  0
M  END
> <PUBCHEM_COMPOUND_ID_TYPE>
0

> <PUBCHEM_TOTAL_CHARGE>
0

> <PUBCHEM_SUBSTANCE_ID>
310946504

> <PUBCHEM_SUBSTANCE_VERSION>
1

> <PUBCHEM_EXT_DATASOURCE_NAME>
4488

> <PUBCHEM_EXT_DATASOURCE_REGID>
SCHEMBL16124625

> <PUBCHEM_SUBSTANCE_COMMENT>
InChI=1S/C12H23NO4/c1-4-6-7-8-17-12(16)13-10(11(14)15)9(3)5-2/h9-10H,4-8H2,1-3H3,(H,13,16)(H,14,15)
InChIKey=JMZXLMDKEOISEQ-UHFFFAOYSA-N

> <PUBCHEM_SUBSTANCE_SYNONYM>
SCHEMBL16124625

> <PUBCHEM_XREF_EXT_ID>
SCHEMBL16124625

> <PUBCHEM_EXT_DATASOURCE_URL>
https://www.surechembl.org/

> <PUBCHEM_EXT_SUBSTANCE_URL>
https://www.surechembl.org/chemical/SCHEMBL16124625

> <PUBCHEM_CID_ASSOCIATIONS>
117612409  1

> <PUBCHEM_COORDINATE_TYPE>
1
3

$$$$
