310934871
  -OEChem-07211613022D

 38 42  0     1  0  0  0  0  0999 V2000
    5.6991   -4.1671    0.0000 S   0  0  0  0  0  0  0  0  0  0  0  0
    4.0752    0.0000    0.0000 F   0  0  0  0  0  0  0  0  0  0  0  0
    4.5654   -0.7047    0.0000 F   0  0  0  0  0  0  0  0  0  0  0  0
    6.1281   -4.9638    0.0000 O   0  0  0  0  0  0  0  0  0  0  0  0
    5.3008   -3.4930    0.0000 O   0  0  0  0  0  0  0  0  0  0  0  0
    2.1448   -4.5961    0.0000 N   0  0  3  0  0  0  0  0  0  0  0  0
    2.8496   -1.7465    0.0000 N   0  0  3  0  0  0  0  0  0  0  0  0
    0.7354   -4.5961    0.0000 N   0  0  0  0  0  0  0  0  0  0  0  0
    0.0306   -3.3398    0.0000 N   0  0  0  0  0  0  0  0  0  0  0  0
    6.3732   -3.7994    0.0000 N   0  0  3  0  0  0  0  0  0  0  0  0
    8.4874   -4.1977    0.0000 N   0  0  0  0  0  0  0  0  0  0  0  0
    1.4401   -3.3705    0.0000 C   0  0  0  0  0  0  0  0  0  0  0  0
    1.4401   -4.1671    0.0000 C   0  0  0  0  0  0  0  0  0  0  0  0
    0.7354   -2.9415    0.0000 C   0  0  0  0  0  0  0  0  0  0  0  0
    2.1448   -2.1448    0.0000 C   0  0  0  0  0  0  0  0  0  0  0  0
    3.5849   -4.5961    0.0000 C   0  0  0  0  0  0  0  0  0  0  0  0
    2.1448   -2.9721    0.0000 C   0  0  0  0  0  0  0  0  0  0  0  0
    0.7354   -2.1448    0.0000 C   0  0  0  0  0  0  0  0  0  0  0  0
    3.5849   -5.4234    0.0000 C   0  0  0  0  0  0  0  0  0  0  0  0
    4.9638   -4.5961    0.0000 C   0  0  0  0  0  0  0  0  0  0  0  0
    2.8496   -4.1671    0.0000 C   0  0  0  0  0  0  0  0  0  0  0  0
    1.4401   -1.7465    0.0000 C   0  0  0  0  0  0  0  0  0  0  0  0
    4.2590   -4.1671    0.0000 C   0  0  0  0  0  0  0  0  0  0  0  0
    2.1448   -5.4234    0.0000 C   0  0  0  0  0  0  0  0  0  0  0  0
    3.7382   -0.7660    0.0000 C   0  0  0  0  0  0  0  0  0  0  0  0
    2.8496   -5.8217    0.0000 C   0  0  0  0  0  0  0  0  0  0  0  0
    2.9415   -0.9192    0.0000 C   0  0  0  0  0  0  0  0  0  0  0  0
    4.9638   -5.4234    0.0000 C   0  0  0  0  0  0  0  0  0  0  0  0
    4.2590   -5.8217    0.0000 C   0  0  0  0  0  0  0  0  0  0  0  0
    0.0000   -4.1977    0.0000 C   0  0  0  0  0  0  0  0  0  0  0  0
    3.6156   -2.0529    0.0000 C   0  0  0  0  0  0  0  0  0  0  0  0
    4.1671   -1.4708    0.0000 C   0  0  0  0  0  0  0  0  0  0  0  0
    0.0000   -1.7465    0.0000 C   0  0  0  0  0  0  0  0  0  0  0  0
    7.0780   -4.1977    0.0000 C   0  0  0  0  0  0  0  0  0  0  0  0
    6.3732   -2.9721    0.0000 C   0  0  0  0  0  0  0  0  0  0  0  0
    7.7827   -3.7688    0.0000 C   0  0  0  0  0  0  0  0  0  0  0  0
    8.5181   -4.9944    0.0000 C   0  0  0  0  0  0  0  0  0  0  0  0
    9.1922   -3.7688    0.0000 C   0  0  0  0  0  0  0  0  0  0  0  0
  1  4  2  0  0  0  0
  1  5  2  0  0  0  0
  1 10  1  0  0  0  0
  1 20  1  0  0  0  0
  2 25  1  0  0  0  0
  3 25  1  0  0  0  0
  6 13  1  0  0  0  0
  6 21  1  0  0  0  0
  6 24  1  0  0  0  0
  7 15  1  0  0  0  0
  7 27  1  0  0  0  0
  7 31  1  0  0  0  0
  8 13  1  0  0  0  0
  8 30  2  0  0  0  0
  9 14  2  0  0  0  0
  9 30  1  0  0  0  0
 10 34  1  0  0  0  0
 10 35  1  0  0  0  0
 11 36  1  0  0  0  0
 11 37  1  0  0  0  0
 11 38  1  0  0  0  0
 12 13  2  0  0  0  0
 12 14  1  0  0  0  0
 12 17  1  0  0  0  0
 14 18  1  0  0  0  0
 15 17  2  0  0  0  0
 15 22  1  0  0  0  0
 16 19  2  0  0  0  0
 16 21  1  0  0  0  0
 16 23  1  0  0  0  0
 18 22  2  0  0  0  0
 18 33  1  0  0  0  0
 19 26  1  0  0  0  0
 19 29  1  0  0  0  0
 20 23  2  0  0  0  0
 20 28  1  0  0  0  0
 24 26  1  0  0  0  0
 25 27  1  0  0  0  0
 25 32  1  0  0  0  0
 28 29  2  0  0  0  0
 31 32  1  0  0  0  0
 34 36  1  0  0  0  0
M  END
> <PUBCHEM_COMPOUND_ID_TYPE>
0

> <PUBCHEM_TOTAL_CHARGE>
0

> <PUBCHEM_SUBSTANCE_ID>
310934871

> <PUBCHEM_SUBSTANCE_VERSION>
1

> <PUBCHEM_EXT_DATASOURCE_NAME>
4488

> <PUBCHEM_EXT_DATASOURCE_REGID>
SCHEMBL16112380

> <PUBCHEM_SUBSTANCE_COMMENT>
InChI=1S/C27H34F2N6O2S/c1-19-13-22(35-10-8-27(28,29)17-35)15-24-25(19)30-18-31-26(24)34-9-7-20-5-6-23(14-21(20)16-34)38(36,37)33(4)12-11-32(2)3/h5-6,13-15,18H,7-12,16-17H2,1-4H3
InChIKey=KAYAMWPLBCIONO-UHFFFAOYSA-N

> <PUBCHEM_SUBSTANCE_SYNONYM>
SCHEMBL16112380

> <PUBCHEM_XREF_EXT_ID>
SCHEMBL16112380

> <PUBCHEM_EXT_DATASOURCE_URL>
https://www.surechembl.org/

> <PUBCHEM_EXT_SUBSTANCE_URL>
https://www.surechembl.org/chemical/SCHEMBL16112380

> <PUBCHEM_CID_ASSOCIATIONS>
86300188  1

> <PUBCHEM_COORDINATE_TYPE>
1
3

$$$$
