310934713
  -OEChem-07211613022D

 34 38  0     1  0  0  0  0  0999 V2000
    2.0730   -2.1306    0.0000 O   0  0  0  0  0  0  0  0  0  0  0  0
    5.3841   -2.1882    0.0000 N   0  0  3  0  0  0  0  0  0  0  0  0
    6.5933   -2.9079    0.0000 N   0  0  0  0  0  0  0  0  0  0  0  0
    6.5645   -4.3476    0.0000 N   0  0  0  0  0  0  0  0  0  0  0  0
    2.1018   -0.6910    0.0000 N   0  0  0  0  0  0  0  0  0  0  0  0
    2.0154   -4.9522    0.0000 N   0  0  0  0  0  0  0  0  0  0  0  0
    0.4031   -2.1018    0.0000 N   0  0  0  0  0  0  0  0  0  0  0  0
    5.3265   -3.6278    0.0000 C   0  0  0  0  0  0  0  0  0  0  0  0
    5.7583   -2.9079    0.0000 C   0  0  0  0  0  0  0  0  0  0  0  0
    5.7296   -4.3476    0.0000 C   0  0  0  0  0  0  0  0  0  0  0  0
    5.3265   -5.0386    0.0000 C   0  0  0  0  0  0  0  0  0  0  0  0
    4.1172   -4.2899    0.0000 C   0  0  0  0  0  0  0  0  0  0  0  0
    4.5203   -3.5989    0.0000 C   0  0  0  0  0  0  0  0  0  0  0  0
    4.1460   -1.4396    0.0000 C   0  0  0  0  0  0  0  0  0  0  0  0
    4.5491   -2.1594    0.0000 C   0  0  0  0  0  0  0  0  0  0  0  0
    4.5491   -0.7198    0.0000 C   0  0  0  0  0  0  0  0  0  0  0  0
    4.4915   -5.0098    0.0000 C   0  0  0  0  0  0  0  0  0  0  0  0
    5.8159   -1.4972    0.0000 C   0  0  0  0  0  0  0  0  0  0  0  0
    3.2822   -4.2899    0.0000 C   0  0  0  0  0  0  0  0  0  0  0  0
    6.9964   -3.6278    0.0000 C   0  0  0  0  0  0  0  0  0  0  0  0
    5.3841   -0.7486    0.0000 C   0  0  0  0  0  0  0  0  0  0  0  0
    3.3399   -1.4396    0.0000 C   0  0  0  0  0  0  0  0  0  0  0  0
    2.9367   -0.7198    0.0000 C   0  0  0  0  0  0  0  0  0  0  0  0
    4.1748   -0.0288    0.0000 C   0  0  0  0  0  0  0  0  0  0  0  0
    3.3686    0.0000    0.0000 C   0  0  0  0  0  0  0  0  0  0  0  0
    5.7296   -5.7583    0.0000 C   0  0  0  0  0  0  0  0  0  0  0  0
    2.8216   -4.9810    0.0000 C   0  0  0  0  0  0  0  0  0  0  0  0
    2.8504   -3.5702    0.0000 C   0  0  0  0  0  0  0  0  0  0  0  0
    1.6699   -1.4108    0.0000 C   0  0  0  0  0  0  0  0  0  0  0  0
    0.8350   -1.4108    0.0000 C   0  0  0  0  0  0  0  0  0  0  0  0
    2.0442   -3.5414    0.0000 C   0  0  0  0  0  0  0  0  0  0  0  0
    1.5835   -4.2324    0.0000 C   0  0  0  0  0  0  0  0  0  0  0  0
    0.4319   -0.6910    0.0000 C   0  0  0  0  0  0  0  0  0  0  0  0
    0.0000   -1.4108    0.0000 C   0  0  0  0  0  0  0  0  0  0  0  0
  1 29  2  0  0  0  0
  2  9  1  0  0  0  0
  2 15  1  0  0  0  0
  2 18  1  0  0  0  0
  3  9  1  0  0  0  0
  3 20  2  0  0  0  0
  4 10  2  0  0  0  0
  4 20  1  0  0  0  0
  5 23  1  0  0  0  0
  5 29  1  0  0  0  0
  6 27  1  0  0  0  0
  6 32  2  0  0  0  0
  7 30  1  0  0  0  0
  8  9  2  0  0  0  0
  8 10  1  0  0  0  0
  8 13  1  0  0  0  0
 10 11  1  0  0  0  0
 11 17  2  0  0  0  0
 11 26  1  0  0  0  0
 12 13  2  0  0  0  0
 12 17  1  0  0  0  0
 12 19  1  0  0  0  0
 14 15  1  0  0  0  0
 14 16  2  0  0  0  0
 14 22  1  0  0  0  0
 16 21  1  0  0  0  0
 16 24  1  0  0  0  0
 18 21  1  0  0  0  0
 19 27  2  0  0  0  0
 19 28  1  0  0  0  0
 22 23  2  0  0  0  0
 23 25  1  0  0  0  0
 24 25  2  0  0  0  0
 28 31  2  0  0  0  0
 29 30  1  0  0  0  0
 30 33  1  0  0  0  0
 30 34  1  0  0  0  0
 31 32  1  0  0  0  0
M  END
> <PUBCHEM_COMPOUND_ID_TYPE>
0

> <PUBCHEM_TOTAL_CHARGE>
0

> <PUBCHEM_SUBSTANCE_ID>
310934713

> <PUBCHEM_SUBSTANCE_VERSION>
1

> <PUBCHEM_EXT_DATASOURCE_NAME>
4488

> <PUBCHEM_EXT_DATASOURCE_REGID>
SCHEMBL16112214

> <PUBCHEM_SUBSTANCE_COMMENT>
InChI=1S/C27H28N6O/c1-17-11-20(19-5-4-9-29-14-19)13-23-24(17)30-16-31-25(23)33-10-8-18-6-7-22(12-21(18)15-33)32-26(34)27(2,3)28/h4-7,9,11-14,16H,8,10,15,28H2,1-3H3,(H,32,34)
InChIKey=BQVLJEQTYKYDJE-UHFFFAOYSA-N

> <PUBCHEM_SUBSTANCE_SYNONYM>
SCHEMBL16112214

> <PUBCHEM_XREF_EXT_ID>
SCHEMBL16112214

> <PUBCHEM_EXT_DATASOURCE_URL>
https://www.surechembl.org/

> <PUBCHEM_EXT_SUBSTANCE_URL>
https://www.surechembl.org/chemical/SCHEMBL16112214

> <PUBCHEM_CID_ASSOCIATIONS>
117602872  1

> <PUBCHEM_COORDINATE_TYPE>
1
3

$$$$
