310934822
  -OEChem-07211613022D

 29 32  0     1  0  0  0  0  0999 V2000
   -4.3125   -1.8485    0.0000 F   0  0  0  0  0  0  0  0  0  0  0  0
    0.4875    2.0652    0.0000 F   0  0  0  0  0  0  0  0  0  0  0  0
    1.8465    1.6236    0.0000 F   0  0  0  0  0  0  0  0  0  0  0  0
   -4.1636    2.3401    0.0000 O   0  0  0  0  0  0  0  0  0  0  0  0
   -5.5926    1.5151    0.0000 O   0  0  0  0  0  0  0  0  0  0  0  0
    0.7846    0.6674    0.0000 N   0  0  0  0  0  0  0  0  0  0  0  0
    1.2696    0.0000    0.0000 N   0  0  0  0  0  0  0  0  0  0  0  0
   -4.8780    1.1026    0.0000 N   0  0  0  0  0  0  0  0  0  0  0  0
   -3.4491    1.1026    0.0000 C   0  0  3  0  0  0  0  0  0  0  0  0
   -4.1941    0.3311    0.0000 C   0  0  0  0  0  0  0  0  0  0  0  0
   -2.1434    0.8250    0.0000 C   0  0  3  0  0  0  0  0  0  0  0  0
   -2.8971    0.4895    0.0000 C   0  0  0  0  0  0  0  0  0  0  0  0
   -4.1636    1.5151    0.0000 C   0  0  0  0  0  0  0  0  0  0  0  0
   -3.0366    1.8170    0.0000 C   0  0  0  0  0  0  0  0  0  0  0  0
   -1.4290    0.4125    0.0000 C   0  0  0  0  0  0  0  0  0  0  0  0
    0.0000    0.4125    0.0000 C   0  0  0  0  0  0  0  0  0  0  0  0
   -2.2296    1.6455    0.0000 C   0  0  0  0  0  0  0  0  0  0  0  0
   -3.9667   -0.4620    0.0000 C   0  0  0  0  0  0  0  0  0  0  0  0
    0.0000   -0.4125    0.0000 C   0  0  0  0  0  0  0  0  0  0  0  0
   -0.7144    0.8250    0.0000 C   0  0  0  0  0  0  0  0  0  0  0  0
   -4.9946    0.5307    0.0000 C   0  0  0  0  0  0  0  0  0  0  0  0
   -1.4290   -0.4125    0.0000 C   0  0  0  0  0  0  0  0  0  0  0  0
   -4.5399   -1.0555    0.0000 C   0  0  0  0  0  0  0  0  0  0  0  0
   -0.7144   -0.8250    0.0000 C   0  0  0  0  0  0  0  0  0  0  0  0
    0.7846   -0.6674    0.0000 C   0  0  0  0  0  0  0  0  0  0  0  0
    1.0396    1.4521    0.0000 C   0  0  0  0  0  0  0  0  0  0  0  0
   -5.5677   -0.0628    0.0000 C   0  0  0  0  0  0  0  0  0  0  0  0
   -5.3403   -0.8559    0.0000 C   0  0  0  0  0  0  0  0  0  0  0  0
   -3.1662   -0.6616    0.0000 C   0  0  0  0  0  0  0  0  0  0  0  0
  1 23  1  0  0  0  0
  2 26  1  0  0  0  0
  3 26  1  0  0  0  0
  4 13  2  0  0  0  0
  5  8  1  0  0  0  0
  6  7  1  0  0  0  0
  6 16  1  0  0  0  0
  6 26  1  0  0  0  0
  7 25  2  0  0  0  0
  8 13  1  0  0  0  0
  9 10  1  0  0  0  0
  9 12  1  0  0  0  0
  9 13  1  0  0  0  0
  9 14  1  0  0  0  0
 10 18  1  0  0  0  0
 10 21  2  0  0  0  0
 11 12  1  0  0  0  0
 11 15  1  0  0  0  0
 11 17  1  0  0  0  0
 14 17  1  0  0  0  0
 15 20  2  0  0  0  0
 15 22  1  0  0  0  0
 16 19  2  0  0  0  0
 16 20  1  0  0  0  0
 18 23  2  0  0  0  0
 18 29  1  0  0  0  0
 19 24  1  0  0  0  0
 19 25  1  0  0  0  0
 21 27  1  0  0  0  0
 22 24  2  0  0  0  0
 23 28  1  0  0  0  0
 27 28  2  0  0  0  0
M  END
> <PUBCHEM_COMPOUND_ID_TYPE>
0

> <PUBCHEM_TOTAL_CHARGE>
0

> <PUBCHEM_SUBSTANCE_ID>
310934822

> <PUBCHEM_SUBSTANCE_VERSION>
1

> <PUBCHEM_EXT_DATASOURCE_NAME>
4488

> <PUBCHEM_EXT_DATASOURCE_REGID>
SCHEMBL16112327

> <PUBCHEM_SUBSTANCE_COMMENT>
InChI=1S/C21H20F3N3O2/c1-12-16(3-2-4-17(12)22)21(19(28)26-29)8-7-14(10-21)13-5-6-15-11-25-27(20(23)24)18(15)9-13/h2-6,9,11,14,20,29H,7-8,10H2,1H3,(H,26,28)
InChIKey=STLBNVLRCLGAHR-UHFFFAOYSA-N

> <PUBCHEM_SUBSTANCE_SYNONYM>
SCHEMBL16112327

> <PUBCHEM_XREF_EXT_ID>
SCHEMBL16112327

> <PUBCHEM_EXT_DATASOURCE_URL>
https://www.surechembl.org/

> <PUBCHEM_EXT_SUBSTANCE_URL>
https://www.surechembl.org/chemical/SCHEMBL16112327

> <PUBCHEM_CID_ASSOCIATIONS>
117602966  1

> <PUBCHEM_COORDINATE_TYPE>
1
3

$$$$
