310935197
  -OEChem-07211613022D

 27 30  0     1  0  0  0  0  0999 V2000
    1.3556    0.9521    0.0000 F   0  0  0  0  0  0  0  0  0  0  0  0
    6.9292    0.0761    0.0000 F   0  0  0  0  0  0  0  0  0  0  0  0
    5.5714   -0.2364    0.0000 O   0  0  0  0  0  0  0  0  0  0  0  0
    4.6851   -0.8947    0.0000 O   0  0  0  0  0  0  0  0  0  0  0  0
   -0.1435   -0.0305    0.0000 N   0  0  0  0  0  0  0  0  0  0  0  0
   -0.6284   -0.6979    0.0000 N   0  0  0  0  0  0  0  0  0  0  0  0
    4.0902    0.4046    0.0000 C   0  0  3  0  0  0  0  0  0  0  0  0
    2.7845    0.1271    0.0000 C   0  0  3  0  0  0  0  0  0  0  0  0
    4.8474    0.7322    0.0000 C   0  0  0  0  0  0  0  0  0  0  0  0
    2.0701   -0.2854    0.0000 C   0  0  0  0  0  0  0  0  0  0  0  0
    3.5382   -0.2085    0.0000 C   0  0  0  0  0  0  0  0  0  0  0  0
    3.6777    1.1191    0.0000 C   0  0  0  0  0  0  0  0  0  0  0  0
    1.3556    0.1271    0.0000 C   0  0  0  0  0  0  0  0  0  0  0  0
    0.6411   -0.2854    0.0000 C   0  0  0  0  0  0  0  0  0  0  0  0
    4.7627   -0.0733    0.0000 C   0  0  0  0  0  0  0  0  0  0  0  0
    2.8708    0.9475    0.0000 C   0  0  0  0  0  0  0  0  0  0  0  0
    0.6411   -1.1104    0.0000 C   0  0  0  0  0  0  0  0  0  0  0  0
    5.5097    0.2404    0.0000 C   0  0  0  0  0  0  0  0  0  0  0  0
    2.0701   -1.1104    0.0000 C   0  0  0  0  0  0  0  0  0  0  0  0
    4.9422    1.5518    0.0000 C   0  0  0  0  0  0  0  0  0  0  0  0
    1.3556   -1.5229    0.0000 C   0  0  0  0  0  0  0  0  0  0  0  0
    6.2669    0.5680    0.0000 C   0  0  0  0  0  0  0  0  0  0  0  0
   -0.1435   -1.3654    0.0000 C   0  0  0  0  0  0  0  0  0  0  0  0
    5.6994    1.8794    0.0000 C   0  0  0  0  0  0  0  0  0  0  0  0
    6.3617    1.3875    0.0000 C   0  0  0  0  0  0  0  0  0  0  0  0
    5.9147   -0.4784    0.0000 C   0  0  0  0  0  0  0  0  0  0  0  0
   -0.3984    0.7541    0.0000 C   0  0  0  0  0  0  0  0  0  0  0  0
  1 13  1  0  0  0  0
  2 22  1  0  0  0  0
  3 15  2  0  0  0  0
  4 15  1  0  0  0  0
  5  6  1  0  0  0  0
  5 14  1  0  0  0  0
  5 27  1  0  0  0  0
  6 23  2  0  0  0  0
  7  9  1  0  0  0  0
  7 11  1  0  0  0  0
  7 12  1  0  0  0  0
  7 15  1  0  0  0  0
  8 10  1  0  0  0  0
  8 11  1  0  0  0  0
  8 16  1  0  0  0  0
  9 18  2  0  0  0  0
  9 20  1  0  0  0  0
 10 13  2  0  0  0  0
 10 19  1  0  0  0  0
 12 16  1  0  0  0  0
 13 14  1  0  0  0  0
 14 17  2  0  0  0  0
 17 21  1  0  0  0  0
 17 23  1  0  0  0  0
 18 22  1  0  0  0  0
 18 26  1  0  0  0  0
 19 21  2  0  0  0  0
 20 24  2  0  0  0  0
 22 25  2  0  0  0  0
 24 25  1  0  0  0  0
M  END
> <PUBCHEM_COMPOUND_ID_TYPE>
0

> <PUBCHEM_TOTAL_CHARGE>
0

> <PUBCHEM_SUBSTANCE_ID>
310935197

> <PUBCHEM_SUBSTANCE_VERSION>
1

> <PUBCHEM_EXT_DATASOURCE_NAME>
4488

> <PUBCHEM_EXT_DATASOURCE_REGID>
SCHEMBL16112725

> <PUBCHEM_SUBSTANCE_COMMENT>
InChI=1S/C21H20F2N2O2/c1-12-16(4-3-5-17(12)22)21(20(26)27)9-8-13(10-21)15-7-6-14-11-24-25(2)19(14)18(15)23/h3-7,11,13H,8-10H2,1-2H3,(H,26,27)
InChIKey=YIANERSMMIVHDQ-UHFFFAOYSA-N

> <PUBCHEM_SUBSTANCE_SYNONYM>
SCHEMBL16112725

> <PUBCHEM_XREF_EXT_ID>
SCHEMBL16112725

> <PUBCHEM_EXT_DATASOURCE_URL>
https://www.surechembl.org/

> <PUBCHEM_EXT_SUBSTANCE_URL>
https://www.surechembl.org/chemical/SCHEMBL16112725

> <PUBCHEM_CID_ASSOCIATIONS>
117603277  1

> <PUBCHEM_COORDINATE_TYPE>
1
3

$$$$
