310947890
  -OEChem-07211613022D

 24 27  0     1  0  0  0  0  0999 V2000
    0.3984    0.9111    0.0000 N   0  0  0  0  0  0  0  0  0  0  0  0
    2.4249    1.8375    0.0000 N   0  0  0  0  0  0  0  0  0  0  0  0
   -0.3160   -1.1514    0.0000 N   0  0  0  0  0  0  0  0  0  0  0  0
    1.0659    1.3960    0.0000 C   0  0  0  0  0  0  0  0  0  0  0  0
    0.8109    2.1806    0.0000 C   0  0  0  0  0  0  0  0  0  0  0  0
   -0.2690    1.3960    0.0000 C   0  0  0  0  0  0  0  0  0  0  0  0
   -0.0141    2.1806    0.0000 C   0  0  0  0  0  0  0  0  0  0  0  0
    1.8729    1.2245    0.0000 C   0  0  0  0  0  0  0  0  0  0  0  0
   -1.0760    1.2245    0.0000 C   0  0  0  0  0  0  0  0  0  0  0  0
    0.3984    0.0861    0.0000 C   0  0  0  0  0  0  0  0  0  0  0  0
    1.3630    2.7937    0.0000 C   0  0  0  0  0  0  0  0  0  0  0  0
   -0.5661    2.7937    0.0000 C   0  0  0  0  0  0  0  0  0  0  0  0
   -1.6280    1.8375    0.0000 C   0  0  0  0  0  0  0  0  0  0  0  0
   -0.3160   -0.3264    0.0000 C   0  0  3  0  0  0  0  0  0  0  0  0
   -1.3731    2.6222    0.0000 C   0  0  0  0  0  0  0  0  0  0  0  0
    2.1699    2.6222    0.0000 C   0  0  0  0  0  0  0  0  0  0  0  0
    2.0864    0.4276    0.0000 C   0  0  0  0  0  0  0  0  0  0  0  0
   -2.4249    1.6240    0.0000 C   0  0  0  0  0  0  0  0  0  0  0  0
   -1.0305    0.0861    0.0000 C   0  0  0  0  0  0  0  0  0  0  0  0
    0.3984   -1.5639    0.0000 C   0  0  0  0  0  0  0  0  0  0  0  0
   -1.0305   -1.5639    0.0000 C   0  0  0  0  0  0  0  0  0  0  0  0
   -1.0171   -2.3812    0.0000 C   0  0  0  0  0  0  0  0  0  0  0  0
    0.3984   -2.3812    0.0000 C   0  0  0  0  0  0  0  0  0  0  0  0
   -0.3071   -2.7937    0.0000 C   0  0  0  0  0  0  0  0  0  0  0  0
  1  4  1  0  0  0  0
  1  6  1  0  0  0  0
  1 10  1  0  0  0  0
  2  8  2  0  0  0  0
  2 16  1  0  0  0  0
  3 14  1  0  0  0  0
  3 20  1  0  0  0  0
  3 21  1  0  0  0  0
  4  5  2  0  0  0  0
  4  8  1  0  0  0  0
  5  7  1  0  0  0  0
  5 11  1  0  0  0  0
  6  7  1  0  0  0  0
  6  9  2  0  0  0  0
  7 12  2  0  0  0  0
  8 17  1  0  0  0  0
  9 13  1  0  0  0  0
 10 14  1  0  0  0  0
 11 16  2  0  0  0  0
 12 15  1  0  0  0  0
 13 15  2  0  0  0  0
 13 18  1  0  0  0  0
 14 19  1  0  0  0  0
 20 23  1  0  0  0  0
 21 22  1  0  0  0  0
 22 24  1  0  0  0  0
 23 24  1  0  0  0  0
M  END
> <PUBCHEM_COMPOUND_ID_TYPE>
0

> <PUBCHEM_TOTAL_CHARGE>
0

> <PUBCHEM_SUBSTANCE_ID>
310947890

> <PUBCHEM_SUBSTANCE_VERSION>
1

> <PUBCHEM_EXT_DATASOURCE_NAME>
4488

> <PUBCHEM_EXT_DATASOURCE_REGID>
SCHEMBL16126064

> <PUBCHEM_SUBSTANCE_COMMENT>
InChI=1S/C21H27N3/c1-15-7-8-18-19-9-10-22-17(3)21(19)24(20(18)13-15)14-16(2)23-11-5-4-6-12-23/h7-10,13,16H,4-6,11-12,14H2,1-3H3
InChIKey=AAPSLQXGOYICCS-UHFFFAOYSA-N

> <PUBCHEM_SUBSTANCE_SYNONYM>
SCHEMBL16126064

> <PUBCHEM_XREF_EXT_ID>
SCHEMBL16126064

> <PUBCHEM_EXT_DATASOURCE_URL>
https://www.surechembl.org/

> <PUBCHEM_EXT_SUBSTANCE_URL>
https://www.surechembl.org/chemical/SCHEMBL16126064

> <PUBCHEM_CID_ASSOCIATIONS>
117613554  1

> <PUBCHEM_COORDINATE_TYPE>
1
3

$$$$
