310932913
  -OEChem-07211613022D

 20 22  0     1  0  0  0  0  0999 V2000
    3.2567    0.0000    0.0000 O   0  0  0  0  0  0  0  0  0  0  0  0
    4.3639   -1.9323    0.0000 O   0  0  0  0  0  0  0  0  0  0  0  0
    5.0804   -0.6948    0.0000 O   0  0  0  0  0  0  0  0  0  0  0  0
    3.6692   -0.6948    0.0000 C   0  0  3  0  0  0  0  0  0  0  0  0
    2.8442   -0.6948    0.0000 C   0  0  3  0  0  0  0  0  0  0  0  0
    4.3639   -1.1073    0.0000 C   0  0  0  0  0  0  0  0  0  0  0  0
    2.1494   -1.1073    0.0000 C   0  0  0  0  0  0  0  0  0  0  0  0
    3.4521   -1.4981    0.0000 C   0  0  0  0  0  0  0  0  0  0  0  0
    2.1277   -1.9323    0.0000 C   0  0  0  0  0  0  0  0  0  0  0  0
    1.4329   -0.7165    0.0000 C   0  0  0  0  0  0  0  0  0  0  0  0
    5.0804   -2.3448    0.0000 C   0  0  0  0  0  0  0  0  0  0  0  0
    1.4329   -2.3448    0.0000 C   0  0  0  0  0  0  0  0  0  0  0  0
    0.7165   -1.1073    0.0000 C   0  0  0  0  0  0  0  0  0  0  0  0
    0.7165   -1.9323    0.0000 C   0  0  0  0  0  0  0  0  0  0  0  0
    5.8186   -1.9540    0.0000 C   0  0  0  0  0  0  0  0  0  0  0  0
    5.1021   -3.1698    0.0000 C   0  0  0  0  0  0  0  0  0  0  0  0
    6.4916   -2.3448    0.0000 C   0  0  0  0  0  0  0  0  0  0  0  0
    5.7969   -3.5606    0.0000 C   0  0  0  0  0  0  0  0  0  0  0  0
    0.0000   -2.3448    0.0000 C   0  0  0  0  0  0  0  0  0  0  0  0
    6.5133   -3.1698    0.0000 C   0  0  0  0  0  0  0  0  0  0  0  0
  1  4  1  0  0  0  0
  1  5  1  0  0  0  0
  2  6  1  0  0  0  0
  2 11  1  0  0  0  0
  3  6  2  0  0  0  0
  4  5  1  0  0  0  0
  4  6  1  0  0  0  0
  4  8  1  0  0  0  0
  5  7  1  0  0  0  0
  7  9  2  0  0  0  0
  7 10  1  0  0  0  0
  9 12  1  0  0  0  0
 10 13  2  0  0  0  0
 11 15  1  0  0  0  0
 11 16  1  0  0  0  0
 12 14  2  0  0  0  0
 13 14  1  0  0  0  0
 14 19  1  0  0  0  0
 15 17  1  0  0  0  0
 16 18  1  0  0  0  0
 17 20  1  0  0  0  0
 18 20  1  0  0  0  0
M  END
> <PUBCHEM_COMPOUND_ID_TYPE>
0

> <PUBCHEM_TOTAL_CHARGE>
0

> <PUBCHEM_SUBSTANCE_ID>
310932913

> <PUBCHEM_SUBSTANCE_VERSION>
1

> <PUBCHEM_EXT_DATASOURCE_NAME>
4488

> <PUBCHEM_EXT_DATASOURCE_REGID>
SCHEMBL16110307

> <PUBCHEM_SUBSTANCE_COMMENT>
InChI=1S/C17H22O3/c1-12-8-10-13(11-9-12)15-17(2,20-15)16(18)19-14-6-4-3-5-7-14/h8-11,14-15H,3-7H2,1-2H3
InChIKey=JVXMBMGZEMCRRY-UHFFFAOYSA-N

> <PUBCHEM_SUBSTANCE_SYNONYM>
SCHEMBL16110307

> <PUBCHEM_XREF_EXT_ID>
SCHEMBL16110307

> <PUBCHEM_EXT_DATASOURCE_URL>
https://www.surechembl.org/

> <PUBCHEM_EXT_SUBSTANCE_URL>
https://www.surechembl.org/chemical/SCHEMBL16110307

> <PUBCHEM_CID_ASSOCIATIONS>
117601394  1

> <PUBCHEM_COORDINATE_TYPE>
1
3

$$$$
