310947221
  -OEChem-07211613022D

 23 24  0     1  0  0  0  0  0999 V2000
   -2.3609    2.4430    0.0000 Cl  0  0  0  0  0  0  0  0  0  0  0  0
   -0.9806    2.8129    0.0000 F   0  0  0  0  0  0  0  0  0  0  0  0
    0.0298    1.8024    0.0000 F   0  0  0  0  0  0  0  0  0  0  0  0
   -0.1837    2.5993    0.0000 F   0  0  0  0  0  0  0  0  0  0  0  0
   -1.9917   -1.4120    0.0000 N   0  0  0  0  0  0  0  0  0  0  0  0
   -1.5068   -2.0794    0.0000 N   0  0  0  0  0  0  0  0  0  0  0  0
    0.7068   -0.9995    0.0000 N   0  0  3  0  0  0  0  0  0  0  0  0
   -1.7203    0.0523    0.0000 C   0  0  0  0  0  0  0  0  0  0  0  0
   -1.3504    1.4326    0.0000 C   0  0  0  0  0  0  0  0  0  0  0  0
   -1.5068   -0.7445    0.0000 C   0  0  0  0  0  0  0  0  0  0  0  0
   -2.5172    0.2659    0.0000 C   0  0  0  0  0  0  0  0  0  0  0  0
   -1.1369    0.6357    0.0000 C   0  0  0  0  0  0  0  0  0  0  0  0
   -0.7671    2.0160    0.0000 C   0  0  0  0  0  0  0  0  0  0  0  0
   -2.1473    1.6461    0.0000 C   0  0  0  0  0  0  0  0  0  0  0  0
   -0.7221   -0.9995    0.0000 C   0  0  0  0  0  0  0  0  0  0  0  0
   -2.7307    1.0628    0.0000 C   0  0  0  0  0  0  0  0  0  0  0  0
   -0.7221   -1.8245    0.0000 C   0  0  0  0  0  0  0  0  0  0  0  0
   -0.0077   -0.5870    0.0000 C   0  0  0  0  0  0  0  0  0  0  0  0
   -3.1005   -0.3175    0.0000 C   0  0  0  0  0  0  0  0  0  0  0  0
    1.4213   -0.5870    0.0000 C   0  0  0  0  0  0  0  0  0  0  0  0
    0.7068   -1.8245    0.0000 C   0  0  0  0  0  0  0  0  0  0  0  0
    2.1357   -0.9995    0.0000 C   0  0  0  0  0  0  0  0  0  0  0  0
    2.8502   -0.5870    0.0000 C   0  0  0  0  0  0  0  0  0  0  0  0
  1 14  1  0  0  0  0
  2 13  1  0  0  0  0
  3 13  1  0  0  0  0
  4 13  1  0  0  0  0
  5  6  1  0  0  0  0
  5 10  2  0  0  0  0
  6 17  1  0  0  0  0
  7 18  1  0  0  0  0
  7 20  1  0  0  0  0
  7 21  1  0  0  0  0
  8 10  1  0  0  0  0
  8 11  2  0  0  0  0
  8 12  1  0  0  0  0
  9 12  2  0  0  0  0
  9 13  1  0  0  0  0
  9 14  1  0  0  0  0
 10 15  1  0  0  0  0
 11 16  1  0  0  0  0
 11 19  1  0  0  0  0
 14 16  2  0  0  0  0
 15 17  2  0  0  0  0
 15 18  1  0  0  0  0
 20 22  1  0  0  0  0
 22 23  1  0  0  0  0
M  END
> <PUBCHEM_COMPOUND_ID_TYPE>
0

> <PUBCHEM_TOTAL_CHARGE>
0

> <PUBCHEM_SUBSTANCE_ID>
310947221

> <PUBCHEM_SUBSTANCE_VERSION>
1

> <PUBCHEM_EXT_DATASOURCE_NAME>
4488

> <PUBCHEM_EXT_DATASOURCE_REGID>
SCHEMBL16125376

> <PUBCHEM_SUBSTANCE_COMMENT>
InChI=1S/C16H19ClF3N3/c1-4-5-23(3)9-11-8-21-22-15(11)12-7-13(16(18,19)20)14(17)6-10(12)2/h6-8H,4-5,9H2,1-3H3,(H,21,22)
InChIKey=AGQQHENSUIGLAW-UHFFFAOYSA-N

> <PUBCHEM_SUBSTANCE_SYNONYM>
SCHEMBL16125376

> <PUBCHEM_XREF_EXT_ID>
SCHEMBL16125376

> <PUBCHEM_EXT_DATASOURCE_URL>
https://www.surechembl.org/

> <PUBCHEM_EXT_SUBSTANCE_URL>
https://www.surechembl.org/chemical/SCHEMBL16125376

> <PUBCHEM_CID_ASSOCIATIONS>
117613036  1

> <PUBCHEM_COORDINATE_TYPE>
1
3

$$$$
