310937751
  -OEChem-07211613022D

 36 40  0     1  0  0  0  0  0999 V2000
    4.3420   -5.3406    0.0000 O   0  0  0  0  0  0  0  0  0  0  0  0
    7.2511   -5.3840    0.0000 O   0  0  0  0  0  0  0  0  0  0  0  0
    6.5998   -2.6052    0.0000 N   0  0  3  0  0  0  0  0  0  0  0  0
    5.7748   -5.3406    0.0000 N   0  0  0  0  0  0  0  0  0  0  0  0
    2.2144   -2.4749    0.0000 N   0  0  0  0  0  0  0  0  0  0  0  0
    1.4328   -1.2592    0.0000 N   0  0  0  0  0  0  0  0  0  0  0  0
    7.9458   -6.5998    0.0000 N   0  0  0  0  0  0  0  0  0  0  0  0
    0.0000   -0.4342    0.0000 N   0  0  0  0  0  0  0  0  0  0  0  0
    5.7748   -3.6907    0.0000 C   0  0  0  0  0  0  0  0  0  0  0  0
    5.7748   -2.8657    0.0000 C   0  0  0  0  0  0  0  0  0  0  0  0
    5.0801   -4.1249    0.0000 C   0  0  0  0  0  0  0  0  0  0  0  0
    4.3420   -2.8657    0.0000 C   0  0  0  0  0  0  0  0  0  0  0  0
    5.0801   -2.4749    0.0000 C   0  0  0  0  0  0  0  0  0  0  0  0
    4.3420   -3.6907    0.0000 C   0  0  0  0  0  0  0  0  0  0  0  0
    5.0801   -4.9498    0.0000 C   0  0  0  0  0  0  0  0  0  0  0  0
    3.6473   -2.4749    0.0000 C   0  0  0  0  0  0  0  0  0  0  0  0
    6.5998   -3.9512    0.0000 C   0  0  0  0  0  0  0  0  0  0  0  0
    7.0774   -3.2999    0.0000 C   0  0  0  0  0  0  0  0  0  0  0  0
    2.9091   -2.8657    0.0000 C   0  0  0  0  0  0  0  0  0  0  0  0
    3.6038   -1.6499    0.0000 C   0  0  0  0  0  0  0  0  0  0  0  0
    6.5130   -6.5998    0.0000 C   0  0  0  0  0  0  0  0  0  0  0  0
    2.1710   -1.6499    0.0000 C   0  0  0  0  0  0  0  0  0  0  0  0
    5.7748   -6.2090    0.0000 C   0  0  0  0  0  0  0  0  0  0  0  0
    6.5130   -7.4248    0.0000 C   0  0  0  0  0  0  0  0  0  0  0  0
    6.8168   -1.8236    0.0000 C   0  0  0  0  0  0  0  0  0  0  0  0
    2.9091   -1.2592    0.0000 C   0  0  0  0  0  0  0  0  0  0  0  0
    7.2511   -6.2090    0.0000 C   0  0  0  0  0  0  0  0  0  0  0  0
    7.2077   -7.8589    0.0000 C   0  0  0  0  0  0  0  0  0  0  0  0
    7.9458   -7.4682    0.0000 C   0  0  0  0  0  0  0  0  0  0  0  0
    5.8182   -7.8589    0.0000 C   0  0  0  0  0  0  0  0  0  0  0  0
    1.4328   -0.4342    0.0000 C   0  0  0  0  0  0  0  0  0  0  0  0
    0.7381   -1.6499    0.0000 C   0  0  0  0  0  0  0  0  0  0  0  0
    0.0000   -1.2592    0.0000 C   0  0  0  0  0  0  0  0  0  0  0  0
    0.7381    0.0000    0.0000 C   0  0  0  0  0  0  0  0  0  0  0  0
    8.6839   -7.8589    0.0000 C   0  0  0  0  0  0  0  0  0  0  0  0
    5.8182   -8.6839    0.0000 C   0  0  0  0  0  0  0  0  0  0  0  0
  1 15  2  0  0  0  0
  2 27  2  0  0  0  0
  3 10  1  0  0  0  0
  3 18  1  0  0  0  0
  3 25  1  0  0  0  0
  4 15  1  0  0  0  0
  4 23  1  0  0  0  0
  5 19  1  0  0  0  0
  5 22  2  0  0  0  0
  6 22  1  0  0  0  0
  6 31  1  0  0  0  0
  6 32  1  0  0  0  0
  7 27  1  0  0  0  0
  7 29  1  0  0  0  0
  8 33  1  0  0  0  0
  8 34  1  0  0  0  0
  9 10  2  0  0  0  0
  9 11  1  0  0  0  0
  9 17  1  0  0  0  0
 10 13  1  0  0  0  0
 11 14  2  0  0  0  0
 11 15  1  0  0  0  0
 12 13  2  0  0  0  0
 12 14  1  0  0  0  0
 12 16  1  0  0  0  0
 16 19  2  0  0  0  0
 16 20  1  0  0  0  0
 17 18  1  0  0  0  0
 20 26  2  0  0  0  0
 21 23  1  0  0  0  0
 21 24  2  0  0  0  0
 21 27  1  0  0  0  0
 22 26  1  0  0  0  0
 24 28  1  0  0  0  0
 24 30  1  0  0  0  0
 28 29  2  0  0  0  0
 29 35  1  0  0  0  0
 30 36  1  0  0  0  0
 31 34  1  0  0  0  0
 32 33  1  0  0  0  0
M  END
> <PUBCHEM_COMPOUND_ID_TYPE>
0

> <PUBCHEM_TOTAL_CHARGE>
0

> <PUBCHEM_SUBSTANCE_ID>
310937751

> <PUBCHEM_SUBSTANCE_VERSION>
1

> <PUBCHEM_EXT_DATASOURCE_NAME>
4488

> <PUBCHEM_EXT_DATASOURCE_REGID>
SCHEMBL16115555

> <PUBCHEM_SUBSTANCE_COMMENT>
InChI=1S/C28H34N6O2/c1-4-19-13-18(2)32-28(36)24(19)17-31-27(35)23-14-21(15-25-22(23)7-10-33(25)3)20-5-6-26(30-16-20)34-11-8-29-9-12-34/h5-6,13-16,29H,4,7-12,17H2,1-3H3,(H,31,35)(H,32,36)
InChIKey=DTKGXNXKYNERDU-UHFFFAOYSA-N

> <PUBCHEM_SUBSTANCE_SYNONYM>
SCHEMBL16115555

> <PUBCHEM_XREF_EXT_ID>
SCHEMBL16115555

> <PUBCHEM_EXT_DATASOURCE_URL>
https://www.surechembl.org/

> <PUBCHEM_EXT_SUBSTANCE_URL>
https://www.surechembl.org/chemical/SCHEMBL16115555

> <PUBCHEM_CID_ASSOCIATIONS>
86273401  1

> <PUBCHEM_COORDINATE_TYPE>
1
3

$$$$
