310944158
  -OEChem-07211613022D

 35 37  0     1  0  0  0  0  0999 V2000
    1.3708   -1.6546    0.0000 O   0  0  0  0  0  0  0  0  0  0  0  0
    4.0845    1.6407    0.0000 O   0  0  0  0  0  0  0  0  0  0  0  0
    4.3476    0.2146    0.0000 O   0  0  0  0  0  0  0  0  0  0  0  0
    0.1939   -0.8239    0.0000 N   0  0  0  0  0  0  0  0  0  0  0  0
   -0.6092   -0.6577    0.0000 N   0  0  0  0  0  0  0  0  0  0  0  0
    1.0246    1.5577    0.0000 N   0  0  3  0  0  0  0  0  0  0  0  0
   -2.8799    1.4054    0.0000 N   0  0  0  0  0  0  0  0  0  0  0  0
    3.0046    0.6023    0.0000 N   0  0  0  0  0  0  0  0  0  0  0  0
   -0.7061    0.1869    0.0000 C   0  0  0  0  0  0  0  0  0  0  0  0
    0.0277    0.5192    0.0000 C   0  0  0  0  0  0  0  0  0  0  0  0
   -1.4538    0.6023    0.0000 C   0  0  0  0  0  0  0  0  0  0  0  0
    0.5953   -0.0900    0.0000 C   0  0  0  0  0  0  0  0  0  0  0  0
    0.5123   -1.5438    0.0000 C   0  0  3  0  0  0  0  0  0  0  0  0
    0.2215    1.3223    0.0000 C   0  0  0  0  0  0  0  0  0  0  0  0
   -2.1599    0.1869    0.0000 C   0  0  0  0  0  0  0  0  0  0  0  0
   -1.4538    1.4192    0.0000 C   0  0  0  0  0  0  0  0  0  0  0  0
    0.0277   -2.2223    0.0000 C   0  0  0  0  0  0  0  0  0  0  0  0
   -2.8799    0.6023    0.0000 C   0  0  0  0  0  0  0  0  0  0  0  0
   -2.1599    1.8346    0.0000 C   0  0  0  0  0  0  0  0  0  0  0  0
    1.6199    1.0038    0.0000 C   0  0  0  0  0  0  0  0  0  0  0  0
    1.6892   -2.3885    0.0000 C   0  0  0  0  0  0  0  0  0  0  0  0
    0.3738   -2.9699    0.0000 C   0  0  0  0  0  0  0  0  0  0  0  0
   -3.6276    1.8346    0.0000 C   0  0  0  0  0  0  0  0  0  0  0  0
    1.2046   -3.0530    0.0000 C   0  0  0  0  0  0  0  0  0  0  0  0
    2.3953    1.2116    0.0000 C   0  0  0  0  0  0  0  0  0  0  0  0
    1.2323    2.3885    0.0000 C   0  0  0  0  0  0  0  0  0  0  0  0
    3.8076    0.8239    0.0000 C   0  0  0  0  0  0  0  0  0  0  0  0
   -3.6138    2.6515    0.0000 C   0  0  0  0  0  0  0  0  0  0  0  0
    3.5584    2.2915    0.0000 C   0  0  0  0  0  0  0  0  0  0  0  0
    2.7831   -0.1869    0.0000 C   0  0  0  0  0  0  0  0  0  0  0  0
    4.0845    2.8176    0.0000 C   0  0  0  0  0  0  0  0  0  0  0  0
    2.9769    1.7654    0.0000 C   0  0  0  0  0  0  0  0  0  0  0  0
    2.9769    2.9007    0.0000 C   0  0  0  0  0  0  0  0  0  0  0  0
   -4.3476    3.0530    0.0000 C   0  0  0  0  0  0  0  0  0  0  0  0
   -2.8661    3.0530    0.0000 C   0  0  0  0  0  0  0  0  0  0  0  0
  1 13  1  0  0  0  0
  1 21  1  0  0  0  0
  2 27  1  0  0  0  0
  2 29  1  0  0  0  0
  3 27  2  0  0  0  0
  4  5  1  0  0  0  0
  4 12  1  0  0  0  0
  4 13  1  0  0  0  0
  5  9  2  0  0  0  0
  6 14  1  0  0  0  0
  6 20  1  0  0  0  0
  6 26  1  0  0  0  0
  7 18  1  0  0  0  0
  7 19  1  0  0  0  0
  7 23  1  0  0  0  0
  8 25  1  0  0  0  0
  8 27  1  0  0  0  0
  8 30  1  0  0  0  0
  9 10  1  0  0  0  0
  9 11  1  0  0  0  0
 10 12  2  0  0  0  0
 10 14  1  0  0  0  0
 11 15  1  0  0  0  0
 11 16  1  0  0  0  0
 13 17  1  0  0  0  0
 15 18  1  0  0  0  0
 16 19  1  0  0  0  0
 17 22  1  0  0  0  0
 20 25  1  0  0  0  0
 21 24  1  0  0  0  0
 22 24  1  0  0  0  0
 23 28  1  0  0  0  0
 28 34  1  0  0  0  0
 28 35  1  0  0  0  0
 29 31  1  0  0  0  0
 29 32  1  0  0  0  0
 29 33  1  0  0  0  0
M  END
> <PUBCHEM_COMPOUND_ID_TYPE>
0

> <PUBCHEM_TOTAL_CHARGE>
0

> <PUBCHEM_SUBSTANCE_ID>
310944158

> <PUBCHEM_SUBSTANCE_VERSION>
1

> <PUBCHEM_EXT_DATASOURCE_NAME>
4488

> <PUBCHEM_EXT_DATASOURCE_REGID>
SCHEMBL16122233

> <PUBCHEM_SUBSTANCE_COMMENT>
InChI=1S/C27H49N5O3/c1-21(2)18-31-13-11-22(12-14-31)25-23(20-32(28-25)24-10-8-9-17-34-24)19-29(6)15-16-30(7)26(33)35-27(3,4)5/h20-22,24H,8-19H2,1-7H3
InChIKey=MFEIGRYJFSWNMR-UHFFFAOYSA-N

> <PUBCHEM_SUBSTANCE_SYNONYM>
SCHEMBL16122233

> <PUBCHEM_XREF_EXT_ID>
SCHEMBL16122233

> <PUBCHEM_EXT_DATASOURCE_URL>
https://www.surechembl.org/

> <PUBCHEM_EXT_SUBSTANCE_URL>
https://www.surechembl.org/chemical/SCHEMBL16122233

> <PUBCHEM_CID_ASSOCIATIONS>
117610439  1

> <PUBCHEM_COORDINATE_TYPE>
1
3

$$$$
