310931493
  -OEChem-07211613022D

 40 43  0     1  0  0  0  0  0999 V2000
  -10.7171    4.2911    0.0000 Cl  0  0  0  0  0  0  0  0  0  0  0  0
   -5.7158    6.3536    0.0000 S   0  0  0  0  0  0  0  0  0  0  0  0
   -4.3339    4.6312    0.0000 S   0  0  0  0  0  0  0  0  0  0  0  0
   -7.1447    5.5286    0.0000 F   0  0  0  0  0  0  0  0  0  0  0  0
   -7.1447    8.8286    0.0000 F   0  0  0  0  0  0  0  0  0  0  0  0
   -8.5737    8.0036    0.0000 O   0  0  0  0  0  0  0  0  0  0  0  0
   -6.1283    5.6391    0.0000 O   0  0  0  0  0  0  0  0  0  0  0  0
   -5.3033    7.0680    0.0000 O   0  0  0  0  0  0  0  0  0  0  0  0
  -11.4315   10.4786    0.0000 O   0  0  0  0  0  0  0  0  0  0  0  0
  -10.0026   10.4786    0.0000 O   0  0  0  0  0  0  0  0  0  0  0  0
   -5.0013    5.9411    0.0000 N   0  0  0  0  0  0  0  0  0  0  0  0
   -5.6687    4.6312    0.0000 N   0  0  0  0  0  0  0  0  0  0  0  0
  -10.7171    9.2411    0.0000 N   0  0  0  0  0  0  0  0  0  0  0  0
   -4.5888    3.8465    0.0000 N   0  0  0  0  0  0  0  0  0  0  0  0
   -6.4302    6.7661    0.0000 C   0  0  0  0  0  0  0  0  0  0  0  0
   -7.1447    6.3536    0.0000 C   0  0  0  0  0  0  0  0  0  0  0  0
   -7.8592    7.5911    0.0000 C   0  0  0  0  0  0  0  0  0  0  0  0
   -6.4302    7.5911    0.0000 C   0  0  0  0  0  0  0  0  0  0  0  0
   -7.1447    8.0036    0.0000 C   0  0  0  0  0  0  0  0  0  0  0  0
   -7.8592    6.7661    0.0000 C   0  0  0  0  0  0  0  0  0  0  0  0
   -5.0013    5.1161    0.0000 C   0  0  0  0  0  0  0  0  0  0  0  0
  -10.0026    8.0036    0.0000 C   0  0  3  0  0  0  0  0  0  0  0  0
  -10.7171    7.5911    0.0000 C   0  0  3  0  0  0  0  0  0  0  0  0
   -9.2881    7.5911    0.0000 C   0  0  0  0  0  0  0  0  0  0  0  0
  -10.7171    6.7661    0.0000 C   0  0  0  0  0  0  0  0  0  0  0  0
  -10.0026    8.8286    0.0000 C   0  0  0  0  0  0  0  0  0  0  0  0
  -11.4315    8.0036    0.0000 C   0  0  0  0  0  0  0  0  0  0  0  0
  -11.4315    8.8286    0.0000 C   0  0  0  0  0  0  0  0  0  0  0  0
  -10.7171   10.0661    0.0000 C   0  0  0  0  0  0  0  0  0  0  0  0
   -5.4138    3.8465    0.0000 C   0  0  0  0  0  0  0  0  0  0  0  0
  -10.0026    6.3536    0.0000 C   0  0  0  0  0  0  0  0  0  0  0  0
  -11.4315    6.3536    0.0000 C   0  0  0  0  0  0  0  0  0  0  0  0
   -6.4534    4.8861    0.0000 C   0  0  0  0  0  0  0  0  0  0  0  0
  -11.4315   11.3036    0.0000 C   0  0  0  0  0  0  0  0  0  0  0  0
  -10.0026    5.5286    0.0000 C   0  0  0  0  0  0  0  0  0  0  0  0
  -11.4315    5.5286    0.0000 C   0  0  0  0  0  0  0  0  0  0  0  0
  -10.7171    5.1161    0.0000 C   0  0  0  0  0  0  0  0  0  0  0  0
  -11.4315   12.1286    0.0000 C   0  0  0  0  0  0  0  0  0  0  0  0
  -12.2565   11.3036    0.0000 C   0  0  0  0  0  0  0  0  0  0  0  0
  -10.6065   11.3036    0.0000 C   0  0  0  0  0  0  0  0  0  0  0  0
  1 37  1  0  0  0  0
  2  7  2  0  0  0  0
  2  8  2  0  0  0  0
  2 11  1  0  0  0  0
  2 15  1  0  0  0  0
  3 14  1  0  0  0  0
  3 21  1  0  0  0  0
  4 16  1  0  0  0  0
  5 19  1  0  0  0  0
  6 17  1  0  0  0  0
  6 24  1  0  0  0  0
  9 29  1  0  0  0  0
  9 34  1  0  0  0  0
 10 29  2  0  0  0  0
 11 21  2  0  0  0  0
 12 21  1  0  0  0  0
 12 30  1  0  0  0  0
 12 33  1  0  0  0  0
 13 26  1  0  0  0  0
 13 28  1  0  0  0  0
 13 29  1  0  0  0  0
 14 30  2  0  0  0  0
 15 16  1  0  0  0  0
 15 18  2  0  0  0  0
 16 20  2  0  0  0  0
 17 19  2  0  0  0  0
 17 20  1  0  0  0  0
 18 19  1  0  0  0  0
 22 23  1  0  0  0  0
 22 24  1  0  0  0  0
 22 26  1  0  0  0  0
 23 25  1  0  0  0  0
 23 27  1  0  0  0  0
 25 31  2  0  0  0  0
 25 32  1  0  0  0  0
 27 28  1  0  0  0  0
 31 35  1  0  0  0  0
 32 36  2  0  0  0  0
 34 38  1  0  0  0  0
 34 39  1  0  0  0  0
 34 40  1  0  0  0  0
 35 37  2  0  0  0  0
 36 37  1  0  0  0  0
M  END
> <PUBCHEM_COMPOUND_ID_TYPE>
0

> <PUBCHEM_TOTAL_CHARGE>
0

> <PUBCHEM_SUBSTANCE_ID>
310931493

> <PUBCHEM_SUBSTANCE_VERSION>
1

> <PUBCHEM_EXT_DATASOURCE_NAME>
4488

> <PUBCHEM_EXT_DATASOURCE_REGID>
SCHEMBL16108818

> <PUBCHEM_SUBSTANCE_COMMENT>
InChI=1S/C26H29ClF2N4O5S2/c1-26(2,3)38-25(34)33-10-9-19(16-5-7-18(27)8-6-16)17(13-33)14-37-22-11-21(29)23(12-20(22)28)40(35,36)31-24-32(4)15-30-39-24/h5-8,11-12,15,17,19H,9-10,13-14H2,1-4H3
InChIKey=OQONJWZKBIXROV-UHFFFAOYSA-N

> <PUBCHEM_SUBSTANCE_SYNONYM>
SCHEMBL16108818

> <PUBCHEM_XREF_EXT_ID>
SCHEMBL16108818

> <PUBCHEM_EXT_DATASOURCE_URL>
https://www.surechembl.org/

> <PUBCHEM_EXT_SUBSTANCE_URL>
https://www.surechembl.org/chemical/SCHEMBL16108818

> <PUBCHEM_CID_ASSOCIATIONS>
117600253  1

> <PUBCHEM_COORDINATE_TYPE>
1
3

> <PUBCHEM_BONDANNOTATIONS>
11  2  3

$$$$
