310944303
  -OEChem-07211613022D

 16 18  0     1  0  0  0  0  0999 V2000
    2.4417    0.7094    0.0000 O   0  0  0  0  0  0  0  0  0  0  0  0
   -1.1329   -0.5335    0.0000 N   0  0  0  0  0  0  0  0  0  0  0  0
   -1.8808   -0.1925    0.0000 N   0  0  0  0  0  0  0  0  0  0  0  0
   -2.4417   -0.8084    0.0000 N   0  0  0  0  0  0  0  0  0  0  0  0
   -2.0238   -1.5343    0.0000 N   0  0  0  0  0  0  0  0  0  0  0  0
   -1.8478    1.5343    0.0000 N   0  0  0  0  0  0  0  0  0  0  0  0
   -0.4180   -0.1155    0.0000 C   0  0  0  0  0  0  0  0  0  0  0  0
    1.0229    0.7094    0.0000 C   0  0  0  0  0  0  0  0  0  0  0  0
   -0.4070    0.7094    0.0000 C   0  0  0  0  0  0  0  0  0  0  0  0
    1.7268    1.1054    0.0000 C   0  0  3  0  0  0  0  0  0  0  0  0
    0.2970    1.1054    0.0000 C   0  0  0  0  0  0  0  0  0  0  0  0
    0.3080   -0.5335    0.0000 C   0  0  0  0  0  0  0  0  0  0  0  0
    1.0119   -0.1155    0.0000 C   0  0  0  0  0  0  0  0  0  0  0  0
    2.4417    1.5233    0.0000 C   0  0  0  0  0  0  0  0  0  0  0  0
   -1.2208   -1.3583    0.0000 C   0  0  0  0  0  0  0  0  0  0  0  0
   -1.1329    1.1164    0.0000 C   0  0  0  0  0  0  0  0  0  0  0  0
 10  1  1  1  0  0  0
  1 14  1  0  0  0  0
  2  3  1  0  0  0  0
  2  7  1  0  0  0  0
  2 15  1  0  0  0  0
  3  4  2  0  0  0  0
  4  5  1  0  0  0  0
  5 15  2  0  0  0  0
  6 16  3  0  0  0  0
  7  9  2  0  0  0  0
  7 12  1  0  0  0  0
  8 10  1  0  0  0  0
  8 11  2  0  0  0  0
  8 13  1  0  0  0  0
  9 11  1  0  0  0  0
  9 16  1  0  0  0  0
 10 14  1  0  0  0  0
 12 13  2  0  0  0  0
M  END
> <PUBCHEM_COMPOUND_ID_TYPE>
0

> <PUBCHEM_TOTAL_CHARGE>
0

> <PUBCHEM_SUBSTANCE_ID>
310944303

> <PUBCHEM_SUBSTANCE_VERSION>
1

> <PUBCHEM_EXT_DATASOURCE_NAME>
4488

> <PUBCHEM_EXT_DATASOURCE_REGID>
SCHEMBL16122378

> <PUBCHEM_SUBSTANCE_COMMENT>
InChI=1S/C10H7N5O/c11-4-8-3-7(10-5-16-10)1-2-9(8)15-6-12-13-14-15/h1-3,6,10H,5H2/t10-/m1/s1
InChIKey=LBAJMKMQJNMGDR-SNVBAGLBSA-N

> <PUBCHEM_SUBSTANCE_SYNONYM>
SCHEMBL16122378

> <PUBCHEM_XREF_EXT_ID>
SCHEMBL16122378

> <PUBCHEM_EXT_DATASOURCE_URL>
https://www.surechembl.org/

> <PUBCHEM_EXT_SUBSTANCE_URL>
https://www.surechembl.org/chemical/SCHEMBL16122378

> <PUBCHEM_CID_ASSOCIATIONS>
117610568  1

> <PUBCHEM_COORDINATE_TYPE>
1
3

> <PUBCHEM_BONDANNOTATIONS>
10  1  5

$$$$
