310946537
  -OEChem-07211613022D

 22 22  0     1  0  0  0  0  0999 V2000
   -6.0291  -10.2804    0.0000 O   0  0  0  0  0  0  0  0  0  0  0  0
   -6.7436  -11.5179    0.0000 O   0  0  0  0  0  0  0  0  0  0  0  0
   -6.7436   -8.2179    0.0000 O   0  0  0  0  0  0  0  0  0  0  0  0
   -6.0291   -9.4554    0.0000 O   0  0  0  0  0  0  0  0  0  0  0  0
   -9.6015   -9.0429    0.0000 O   0  0  0  0  0  0  0  0  0  0  0  0
   -8.8870  -10.2804    0.0000 O   0  0  0  0  0  0  0  0  0  0  0  0
   -7.4581  -10.2804    0.0000 N   0  0  0  0  0  0  0  0  0  0  0  0
   -7.4581   -9.4554    0.0000 C   0  0  3  0  0  0  0  0  0  0  0  0
   -5.3146  -10.6929    0.0000 C   0  0  0  0  0  0  0  0  0  0  0  0
   -6.7436  -10.6929    0.0000 C   0  0  0  0  0  0  0  0  0  0  0  0
   -6.7436   -9.0429    0.0000 C   0  0  0  0  0  0  0  0  0  0  0  0
   -3.8857  -11.5179    0.0000 C   0  0  0  0  0  0  0  0  0  0  0  0
   -5.3146  -11.5179    0.0000 C   0  0  0  0  0  0  0  0  0  0  0  0
   -4.6002  -10.2804    0.0000 C   0  0  0  0  0  0  0  0  0  0  0  0
   -8.1725   -9.0429    0.0000 C   0  0  0  0  0  0  0  0  0  0  0  0
   -4.6002  -11.9304    0.0000 C   0  0  0  0  0  0  0  0  0  0  0  0
   -3.8857  -10.6929    0.0000 C   0  0  0  0  0  0  0  0  0  0  0  0
   -8.8870   -9.4554    0.0000 C   0  0  0  0  0  0  0  0  0  0  0  0
   -3.1712  -11.9304    0.0000 C   0  0  0  0  0  0  0  0  0  0  0  0
   -2.4568  -11.5179    0.0000 C   0  0  0  0  0  0  0  0  0  0  0  0
   -1.7423  -11.9304    0.0000 C   0  0  0  0  0  0  0  0  0  0  0  0
   -1.0278  -11.5179    0.0000 C   0  0  0  0  0  0  0  0  0  0  0  0
  1  9  1  0  0  0  0
  1 10  1  0  0  0  0
  2 10  2  0  0  0  0
  3 11  2  0  0  0  0
  4 11  1  0  0  0  0
  5 18  2  0  0  0  0
  6 18  1  0  0  0  0
  7  8  1  0  0  0  0
  7 10  1  0  0  0  0
  8 11  1  0  0  0  0
  8 15  1  0  0  0  0
  9 13  2  0  0  0  0
  9 14  1  0  0  0  0
 12 16  2  0  0  0  0
 12 17  1  0  0  0  0
 12 19  1  0  0  0  0
 13 16  1  0  0  0  0
 14 17  2  0  0  0  0
 15 18  1  0  0  0  0
 19 20  1  0  0  0  0
 20 21  1  0  0  0  0
 21 22  1  0  0  0  0
M  END
> <PUBCHEM_COMPOUND_ID_TYPE>
0

> <PUBCHEM_TOTAL_CHARGE>
0

> <PUBCHEM_SUBSTANCE_ID>
310946537

> <PUBCHEM_SUBSTANCE_VERSION>
1

> <PUBCHEM_EXT_DATASOURCE_NAME>
4488

> <PUBCHEM_EXT_DATASOURCE_REGID>
SCHEMBL16124658

> <PUBCHEM_SUBSTANCE_COMMENT>
InChI=1S/C15H19NO6/c1-2-3-4-10-5-7-11(8-6-10)22-15(21)16-12(14(19)20)9-13(17)18/h5-8,12H,2-4,9H2,1H3,(H,16,21)(H,17,18)(H,19,20)
InChIKey=WWMXOAIADZNCTB-UHFFFAOYSA-N

> <PUBCHEM_SUBSTANCE_SYNONYM>
SCHEMBL16124658

> <PUBCHEM_XREF_EXT_ID>
SCHEMBL16124658

> <PUBCHEM_EXT_DATASOURCE_URL>
https://www.surechembl.org/

> <PUBCHEM_EXT_SUBSTANCE_URL>
https://www.surechembl.org/chemical/SCHEMBL16124658

> <PUBCHEM_CID_ASSOCIATIONS>
117612442  1

> <PUBCHEM_COORDINATE_TYPE>
1
3

$$$$
