310946320
  -OEChem-07211613022D

 27 29  0     1  0  0  0  0  0999 V2000
   -1.9308   12.2445    0.0000 I   0  0  0  0  0  0  0  0  0  0  0  0
   -0.5018   14.7195    0.0000 I   0  0  0  0  0  0  0  0  0  0  0  0
   -1.9308   13.8945    0.0000 O   0  0  0  0  0  0  0  0  0  0  0  0
    3.7850   14.7195    0.0000 O   0  0  0  0  0  0  0  0  0  0  0  0
   -4.7887   12.2445    0.0000 O   0  0  0  0  0  0  0  0  0  0  0  0
    2.3560   11.4195    0.0000 O   0  0  0  0  0  0  0  0  0  0  0  0
    3.0705   12.6570    0.0000 N   0  0  0  0  0  0  0  0  0  0  0  0
   -1.2163   13.4820    0.0000 C   0  0  0  0  0  0  0  0  0  0  0  0
   -1.2163   12.6570    0.0000 C   0  0  0  0  0  0  0  0  0  0  0  0
   -0.5018   13.8945    0.0000 C   0  0  0  0  0  0  0  0  0  0  0  0
    0.2126   12.6570    0.0000 C   0  0  0  0  0  0  0  0  0  0  0  0
   -0.5018   12.2445    0.0000 C   0  0  0  0  0  0  0  0  0  0  0  0
    0.2126   13.4820    0.0000 C   0  0  0  0  0  0  0  0  0  0  0  0
   -2.6453   13.4820    0.0000 C   0  0  0  0  0  0  0  0  0  0  0  0
    0.9271   12.2445    0.0000 C   0  0  0  0  0  0  0  0  0  0  0  0
   -3.3597   13.8945    0.0000 C   0  0  0  0  0  0  0  0  0  0  0  0
   -2.6453   12.6570    0.0000 C   0  0  0  0  0  0  0  0  0  0  0  0
    1.6416   12.6570    0.0000 C   0  0  0  0  0  0  0  0  0  0  0  0
   -4.0742   12.6570    0.0000 C   0  0  0  0  0  0  0  0  0  0  0  0
   -4.0742   13.4820    0.0000 C   0  0  0  0  0  0  0  0  0  0  0  0
   -3.3597   12.2445    0.0000 C   0  0  0  0  0  0  0  0  0  0  0  0
    2.3560   12.2445    0.0000 C   0  0  0  0  0  0  0  0  0  0  0  0
    3.7850   13.8945    0.0000 C   0  0  3  0  0  0  0  0  0  0  0  0
    3.0705   13.4820    0.0000 C   0  0  0  0  0  0  0  0  0  0  0  0
    4.5696   13.6395    0.0000 C   0  0  0  0  0  0  0  0  0  0  0  0
    4.5696   14.9744    0.0000 C   0  0  0  0  0  0  0  0  0  0  0  0
    5.0545   14.3070    0.0000 C   0  0  0  0  0  0  0  0  0  0  0  0
  1  9  1  0  0  0  0
  2 10  1  0  0  0  0
  3  8  1  0  0  0  0
  3 14  1  0  0  0  0
  4 23  1  0  0  0  0
  4 26  1  0  0  0  0
  5 19  1  0  0  0  0
  6 22  2  0  0  0  0
  7 22  1  0  0  0  0
  7 24  1  0  0  0  0
  8  9  2  0  0  0  0
  8 10  1  0  0  0  0
  9 12  1  0  0  0  0
 10 13  2  0  0  0  0
 11 12  2  0  0  0  0
 11 13  1  0  0  0  0
 11 15  1  0  0  0  0
 14 16  2  0  0  0  0
 14 17  1  0  0  0  0
 15 18  1  0  0  0  0
 16 20  1  0  0  0  0
 17 21  2  0  0  0  0
 18 22  1  0  0  0  0
 19 20  2  0  0  0  0
 19 21  1  0  0  0  0
 23 24  1  0  0  0  0
 23 25  1  0  0  0  0
 25 27  1  0  0  0  0
 26 27  1  0  0  0  0
M  END
> <PUBCHEM_COMPOUND_ID_TYPE>
0

> <PUBCHEM_TOTAL_CHARGE>
0

> <PUBCHEM_SUBSTANCE_ID>
310946320

> <PUBCHEM_SUBSTANCE_VERSION>
1

> <PUBCHEM_EXT_DATASOURCE_NAME>
4488

> <PUBCHEM_EXT_DATASOURCE_REGID>
SCHEMBL16124439

> <PUBCHEM_SUBSTANCE_COMMENT>
InChI=1S/C20H21I2NO4/c21-17-10-13(3-8-19(25)23-12-16-2-1-9-26-16)11-18(22)20(17)27-15-6-4-14(24)5-7-15/h4-7,10-11,16,24H,1-3,8-9,12H2,(H,23,25)
InChIKey=DTSTVRHGZCKBPH-UHFFFAOYSA-N

> <PUBCHEM_SUBSTANCE_SYNONYM>
SCHEMBL16124439

> <PUBCHEM_XREF_EXT_ID>
SCHEMBL16124439

> <PUBCHEM_EXT_DATASOURCE_URL>
https://www.surechembl.org/

> <PUBCHEM_EXT_SUBSTANCE_URL>
https://www.surechembl.org/chemical/SCHEMBL16124439

> <PUBCHEM_CID_ASSOCIATIONS>
71487299  1

> <PUBCHEM_COORDINATE_TYPE>
1
3

$$$$
