310938620
  -OEChem-07211613022D

 25 26  0     1  0  0  0  0  0999 V2000
   -4.8936    3.5138    0.0000 Cl  0  0  0  0  0  0  0  0  0  0  0  0
    0.1077    5.5763    0.0000 S   0  0  3  0  0  0  0  0  0  0  0  0
   -1.3212    3.1013    0.0000 O   0  0  0  0  0  0  0  0  0  0  0  0
    0.8222    1.8638    0.0000 O   0  0  0  0  0  0  0  0  0  0  0  0
   -0.6068    1.8638    0.0000 O   0  0  0  0  0  0  0  0  0  0  0  0
   -0.6068    5.9888    0.0000 O   0  0  0  0  0  0  0  0  0  0  0  0
   -4.8936    1.0388    0.0000 O   0  0  0  0  0  0  0  0  0  0  0  0
   -0.6068    4.3388    0.0000 N   0  0  0  0  0  0  0  0  0  0  0  0
    0.8222    4.3388    0.0000 N   0  0  0  0  0  0  0  0  0  0  0  0
   -0.6068    3.5138    0.0000 C   0  0  0  0  0  0  0  0  0  0  0  0
    0.1077    3.1013    0.0000 C   0  0  0  0  0  0  0  0  0  0  0  0
    0.1077    4.7513    0.0000 C   0  0  0  0  0  0  0  0  0  0  0  0
    0.1077    2.2763    0.0000 C   0  0  0  0  0  0  0  0  0  0  0  0
    0.8222    3.5138    0.0000 C   0  0  0  0  0  0  0  0  0  0  0  0
   -2.7502    3.1013    0.0000 C   0  0  0  0  0  0  0  0  0  0  0  0
   -2.0357    3.5138    0.0000 C   0  0  0  0  0  0  0  0  0  0  0  0
   -4.1791    3.1013    0.0000 C   0  0  0  0  0  0  0  0  0  0  0  0
   -4.1791    2.2763    0.0000 C   0  0  0  0  0  0  0  0  0  0  0  0
   -3.4647    3.5138    0.0000 C   0  0  0  0  0  0  0  0  0  0  0  0
   -2.7502    2.2763    0.0000 C   0  0  0  0  0  0  0  0  0  0  0  0
   -3.4647    1.8638    0.0000 C   0  0  0  0  0  0  0  0  0  0  0  0
    0.8222    5.9888    0.0000 C   0  0  0  0  0  0  0  0  0  0  0  0
   -4.8936    1.8638    0.0000 C   0  0  0  0  0  0  0  0  0  0  0  0
    1.5366    2.2763    0.0000 C   0  0  0  0  0  0  0  0  0  0  0  0
    2.2511    1.8638    0.0000 C   0  0  0  0  0  0  0  0  0  0  0  0
  1 17  1  0  0  0  0
  2  6  2  0  0  0  0
  2 12  1  0  0  0  0
  2 22  1  0  0  0  0
  3 10  1  0  0  0  0
  3 16  1  0  0  0  0
  4 13  1  0  0  0  0
  4 24  1  0  0  0  0
  5 13  2  0  0  0  0
  7 23  1  0  0  0  0
  8 10  2  0  0  0  0
  8 12  1  0  0  0  0
  9 12  2  0  0  0  0
  9 14  1  0  0  0  0
 10 11  1  0  0  0  0
 11 13  1  0  0  0  0
 11 14  2  0  0  0  0
 15 16  1  0  0  0  0
 15 19  2  0  0  0  0
 15 20  1  0  0  0  0
 17 18  2  0  0  0  0
 17 19  1  0  0  0  0
 18 21  1  0  0  0  0
 18 23  1  0  0  0  0
 20 21  2  0  0  0  0
 24 25  1  0  0  0  0
M  END
> <PUBCHEM_COMPOUND_ID_TYPE>
0

> <PUBCHEM_TOTAL_CHARGE>
0

> <PUBCHEM_SUBSTANCE_ID>
310938620

> <PUBCHEM_SUBSTANCE_VERSION>
1

> <PUBCHEM_EXT_DATASOURCE_NAME>
4488

> <PUBCHEM_EXT_DATASOURCE_REGID>
SCHEMBL16116534

> <PUBCHEM_SUBSTANCE_COMMENT>
InChI=1S/C16H17ClN2O5S/c1-3-23-15(21)12-7-18-16(25(2)22)19-14(12)24-9-10-4-5-11(8-20)13(17)6-10/h4-7,20H,3,8-9H2,1-2H3
InChIKey=AHAAIXJGGGQYSS-UHFFFAOYSA-N

> <PUBCHEM_SUBSTANCE_SYNONYM>
SCHEMBL16116534

> <PUBCHEM_XREF_EXT_ID>
SCHEMBL16116534

> <PUBCHEM_EXT_DATASOURCE_URL>
https://www.surechembl.org/

> <PUBCHEM_EXT_SUBSTANCE_URL>
https://www.surechembl.org/chemical/SCHEMBL16116534

> <PUBCHEM_CID_ASSOCIATIONS>
117606053  1

> <PUBCHEM_COORDINATE_TYPE>
1
3

$$$$
