310932960
  -OEChem-07211613022D

 32 36  0     1  0  0  0  0  0999 V2000
    5.1284    0.0000    0.0000 Cl  0  0  0  0  0  0  0  0  0  0  0  0
    2.2704   -0.7746    0.0000 O   0  0  0  0  0  0  0  0  0  0  0  0
    0.0000   -4.2470    0.0000 O   0  0  0  0  0  0  0  0  0  0  0  0
    5.5291   -3.1252    0.0000 O   0  0  0  0  0  0  0  0  0  0  0  0
    4.1936   -2.4841    0.0000 N   0  0  0  0  0  0  0  0  0  0  0  0
    4.1936   -3.7929    0.0000 N   0  0  0  0  0  0  0  0  0  0  0  0
    3.8998   -0.7746    0.0000 N   0  0  0  0  0  0  0  0  0  0  0  0
    1.4691   -2.1902    0.0000 N   0  0  0  0  0  0  0  0  0  0  0  0
    0.4006   -4.9682    0.0000 N   0  0  0  0  0  0  0  0  0  0  0  0
    2.6978   -1.4958    0.0000 C   0  0  3  0  0  0  0  0  0  0  0  0
    2.6978   -2.2971    0.0000 C   0  0  0  0  0  0  0  0  0  0  0  0
    3.4190   -2.6978    0.0000 C   0  0  0  0  0  0  0  0  0  0  0  0
    3.4190   -3.5525    0.0000 C   0  0  0  0  0  0  0  0  0  0  0  0
    3.5258   -1.4691    0.0000 C   0  0  0  0  0  0  0  0  0  0  0  0
    1.8698   -1.4958    0.0000 C   0  0  0  0  0  0  0  0  0  0  0  0
    2.0033   -3.5525    0.0000 C   0  0  0  0  0  0  0  0  0  0  0  0
    2.0033   -2.6978    0.0000 C   0  0  0  0  0  0  0  0  0  0  0  0
    2.6978   -3.9532    0.0000 C   0  0  0  0  0  0  0  0  0  0  0  0
    1.2821   -3.9799    0.0000 C   0  0  0  0  0  0  0  0  0  0  0  0
    4.7010   -3.1252    0.0000 C   0  0  0  0  0  0  0  0  0  0  0  0
    3.9264   -2.1902    0.0000 C   0  0  0  0  0  0  0  0  0  0  0  0
    0.5342   -3.6594    0.0000 C   0  0  0  0  0  0  0  0  0  0  0  0
    1.2020   -4.7812    0.0000 C   0  0  0  0  0  0  0  0  0  0  0  0
    1.4424   -0.7746    0.0000 C   0  0  0  0  0  0  0  0  0  0  0  0
    4.7545   -0.7212    0.0000 C   0  0  0  0  0  0  0  0  0  0  0  0
    4.7545   -2.1636    0.0000 C   0  0  0  0  0  0  0  0  0  0  0  0
    0.6410   -2.2437    0.0000 C   0  0  0  0  0  0  0  0  0  0  0  0
    0.6144   -0.8013    0.0000 C   0  0  0  0  0  0  0  0  0  0  0  0
    5.1551   -1.4424    0.0000 C   0  0  0  0  0  0  0  0  0  0  0  0
    0.2404   -1.5225    0.0000 C   0  0  0  0  0  0  0  0  0  0  0  0
    0.3472   -2.8313    0.0000 C   0  0  0  0  0  0  0  0  0  0  0  0
    1.8163   -5.3421    0.0000 C   0  0  0  0  0  0  0  0  0  0  0  0
  1 25  1  0  0  0  0
  2 10  1  0  0  0  0
  3  9  1  0  0  0  0
  3 22  1  0  0  0  0
  4 20  2  0  0  0  0
  5 12  1  0  0  0  0
  5 20  1  0  0  0  0
  6 13  1  0  0  0  0
  6 20  1  0  0  0  0
  7 14  1  0  0  0  0
  7 25  2  0  0  0  0
  8 15  1  0  0  0  0
  8 27  2  0  0  0  0
  9 23  2  0  0  0  0
 10 11  1  0  0  0  0
 10 14  1  0  0  0  0
 10 15  1  0  0  0  0
 11 12  1  0  0  0  0
 11 17  2  0  0  0  0
 12 13  2  0  0  0  0
 13 18  1  0  0  0  0
 14 21  2  0  0  0  0
 15 24  2  0  0  0  0
 16 17  1  0  0  0  0
 16 18  2  0  0  0  0
 16 19  1  0  0  0  0
 19 22  2  0  0  0  0
 19 23  1  0  0  0  0
 21 26  1  0  0  0  0
 22 31  1  0  0  0  0
 23 32  1  0  0  0  0
 24 28  1  0  0  0  0
 25 29  1  0  0  0  0
 26 29  2  0  0  0  0
 27 30  1  0  0  0  0
 28 30  2  0  0  0  0
M  END
> <PUBCHEM_COMPOUND_ID_TYPE>
0

> <PUBCHEM_TOTAL_CHARGE>
0

> <PUBCHEM_SUBSTANCE_ID>
310932960

> <PUBCHEM_SUBSTANCE_VERSION>
1

> <PUBCHEM_EXT_DATASOURCE_NAME>
4488

> <PUBCHEM_EXT_DATASOURCE_REGID>
SCHEMBL16110356

> <PUBCHEM_SUBSTANCE_COMMENT>
InChI=1S/C23H18ClN5O3/c1-12-20(13(2)32-29-12)14-10-15(21-16(11-14)26-22(30)28-21)23(31,17-6-3-4-9-25-17)18-7-5-8-19(24)27-18/h3-11,31H,1-2H3,(H2,26,28,30)
InChIKey=GMMCAJNXWZBWKM-UHFFFAOYSA-N

> <PUBCHEM_SUBSTANCE_SYNONYM>
SCHEMBL16110356

> <PUBCHEM_XREF_EXT_ID>
SCHEMBL16110356

> <PUBCHEM_EXT_DATASOURCE_URL>
https://www.surechembl.org/

> <PUBCHEM_EXT_SUBSTANCE_URL>
https://www.surechembl.org/chemical/SCHEMBL16110356

> <PUBCHEM_CID_ASSOCIATIONS>
117601437  1

> <PUBCHEM_COORDINATE_TYPE>
1
3

$$$$
