310945687
  -OEChem-07211613022D

 39 43  0     1  0  0  0  0  0999 V2000
   -5.8436   -0.6970    0.0000 S   0  0  0  0  0  0  0  0  0  0  0  0
    5.8007    0.8041    0.0000 O   0  0  0  0  0  0  0  0  0  0  0  0
    2.8413    0.9758    0.0000 O   0  0  0  0  0  0  0  0  0  0  0  0
   -2.9272   -0.6970    0.0000 O   0  0  0  0  0  0  0  0  0  0  0  0
   -6.4011   -1.2760    0.0000 O   0  0  0  0  0  0  0  0  0  0  0  0
   -5.2217   -1.2760    0.0000 O   0  0  0  0  0  0  0  0  0  0  0  0
    7.1088   -2.2838    0.0000 O   0  0  0  0  0  0  0  0  0  0  0  0
    7.4091   -0.8685    0.0000 O   0  0  0  0  0  0  0  0  0  0  0  0
   -5.0931   -0.2680    0.0000 N   0  0  0  0  0  0  0  0  0  0  0  0
    4.9000   -0.1822    0.0000 C   0  0  0  0  0  0  0  0  0  0  0  0
    4.9215    0.6326    0.0000 C   0  0  0  0  0  0  0  0  0  0  0  0
   -0.8470    0.6326    0.0000 C   0  0  0  0  0  0  0  0  0  0  0  0
    5.6935   -0.4610    0.0000 C   0  0  3  0  0  0  0  0  0  0  0  0
   -6.6370   -0.1822    0.0000 C   0  0  0  0  0  0  0  0  0  0  0  0
   -0.1180    1.0400    0.0000 C   0  0  0  0  0  0  0  0  0  0  0  0
   -1.5762    1.0615    0.0000 C   0  0  0  0  0  0  0  0  0  0  0  0
   -0.8685   -0.1822    0.0000 C   0  0  0  0  0  0  0  0  0  0  0  0
    3.4847    0.6326    0.0000 C   0  0  0  0  0  0  0  0  0  0  0  0
    4.1710    1.0400    0.0000 C   0  0  0  0  0  0  0  0  0  0  0  0
    4.2139   -0.5897    0.0000 C   0  0  0  0  0  0  0  0  0  0  0  0
    6.1867    0.2251    0.0000 C   0  0  0  0  0  0  0  0  0  0  0  0
   -7.4091   -0.1822    0.0000 C   0  0  0  0  0  0  0  0  0  0  0  0
   -7.0230    0.4825    0.0000 C   0  0  0  0  0  0  0  0  0  0  0  0
   -2.2838   -0.2037    0.0000 C   0  0  0  0  0  0  0  0  0  0  0  0
    3.5062   -0.2037    0.0000 C   0  0  0  0  0  0  0  0  0  0  0  0
    0.6112    0.6541    0.0000 C   0  0  0  0  0  0  0  0  0  0  0  0
    1.2974    1.0615    0.0000 C   0  0  0  0  0  0  0  0  0  0  0  0
   -2.2624    0.6326    0.0000 C   0  0  0  0  0  0  0  0  0  0  0  0
   -1.5547   -0.5897    0.0000 C   0  0  0  0  0  0  0  0  0  0  0  0
    5.9508   -1.2331    0.0000 C   0  0  0  0  0  0  0  0  0  0  0  0
   -0.0965    1.8764    0.0000 C   0  0  0  0  0  0  0  0  0  0  0  0
    2.0479    0.6326    0.0000 C   0  0  0  0  0  0  0  0  0  0  0  0
    1.2974    1.8764    0.0000 C   0  0  0  0  0  0  0  0  0  0  0  0
    0.5683    2.2838    0.0000 C   0  0  0  0  0  0  0  0  0  0  0  0
   -4.4283   -0.6112    0.0000 C   0  0  0  0  0  0  0  0  0  0  0  0
    6.7657   -1.4046    0.0000 C   0  0  0  0  0  0  0  0  0  0  0  0
   -1.5547    1.8978    0.0000 C   0  0  0  0  0  0  0  0  0  0  0  0
   -0.0965   -0.6112    0.0000 C   0  0  0  0  0  0  0  0  0  0  0  0
   -3.7206   -0.2037    0.0000 C   0  0  0  0  0  0  0  0  0  0  0  0
  1  5  2  0  0  0  0
  1  6  2  0  0  0  0
  1  9  1  0  0  0  0
  1 14  1  0  0  0  0
  2 11  1  0  0  0  0
  2 21  1  0  0  0  0
  3 18  1  0  0  0  0
  3 32  1  0  0  0  0
  4 24  1  0  0  0  0
  4 39  1  0  0  0  0
  7 36  2  0  0  0  0
  8 36  1  0  0  0  0
  9 35  1  0  0  0  0
 10 11  1  0  0  0  0
 10 13  1  0  0  0  0
 10 20  2  0  0  0  0
 11 19  2  0  0  0  0
 12 15  1  0  0  0  0
 12 16  2  0  0  0  0
 12 17  1  0  0  0  0
 13 21  1  0  0  0  0
 13 30  1  0  0  0  0
 14 22  1  0  0  0  0
 14 23  1  0  0  0  0
 15 26  2  0  0  0  0
 15 31  1  0  0  0  0
 16 28  1  0  0  0  0
 16 37  1  0  0  0  0
 17 29  2  0  0  0  0
 17 38  1  0  0  0  0
 18 19  1  0  0  0  0
 18 25  2  0  0  0  0
 20 25  1  0  0  0  0
 22 23  1  0  0  0  0
 24 28  2  0  0  0  0
 24 29  1  0  0  0  0
 26 27  1  0  0  0  0
 27 32  1  0  0  0  0
 27 33  2  0  0  0  0
 30 36  1  0  0  0  0
 31 34  2  0  0  0  0
 33 34  1  0  0  0  0
 35 39  1  0  0  0  0
M  END
> <PUBCHEM_COMPOUND_ID_TYPE>
0

> <PUBCHEM_TOTAL_CHARGE>
0

> <PUBCHEM_SUBSTANCE_ID>
310945687

> <PUBCHEM_SUBSTANCE_VERSION>
1

> <PUBCHEM_EXT_DATASOURCE_NAME>
4488

> <PUBCHEM_EXT_DATASOURCE_REGID>
SCHEMBL16123788

> <PUBCHEM_SUBSTANCE_COMMENT>
InChI=1S/C30H33NO7S/c1-19-12-25(36-11-10-31-39(34,35)26-7-8-26)13-20(2)30(19)22-5-3-4-21(14-22)17-37-24-6-9-27-23(15-29(32)33)18-38-28(27)16-24/h3-6,9,12-14,16,23,26,31H,7-8,10-11,15,17-18H2,1-2H3,(H,32,33)
InChIKey=ODNPRXIORRZOSR-UHFFFAOYSA-N

> <PUBCHEM_SUBSTANCE_SYNONYM>
SCHEMBL16123788

> <PUBCHEM_XREF_EXT_ID>
SCHEMBL16123788

> <PUBCHEM_EXT_DATASOURCE_URL>
https://www.surechembl.org/

> <PUBCHEM_EXT_SUBSTANCE_URL>
https://www.surechembl.org/chemical/SCHEMBL16123788

> <PUBCHEM_CID_ASSOCIATIONS>
86269039  1

> <PUBCHEM_COORDINATE_TYPE>
1
3

$$$$
