310948577
  -OEChem-07211613022D

 54 57  0     1  0  0  0  0  0999 V2000
    1.7776    1.4979    0.0000 O   0  0  0  0  0  0  0  0  0  0  0  0
    0.5345    2.2188    0.0000 O   0  0  0  0  0  0  0  0  0  0  0  0
    0.1367   -0.4910    0.0000 N   0  0  0  0  0  0  0  0  0  0  0  0
    1.4792   -0.4910    0.0000 N   0  0  0  0  0  0  0  0  0  0  0  0
    0.3978   -1.2741    0.0000 N   0  0  0  0  0  0  0  0  0  0  0  0
   -1.3549    0.0062    0.0000 N   0  0  0  0  0  0  0  0  0  0  0  0
   -1.1063    2.1939    0.0000 N   0  0  0  0  0  0  0  0  0  0  0  0
   -4.6738    0.0062    0.0000 N   0  0  0  0  0  0  0  0  0  0  0  0
    0.7956    0.0062    0.0000 C   0  0  0  0  0  0  0  0  0  0  0  0
    0.5345    0.7893    0.0000 C   0  0  0  0  0  0  0  0  0  0  0  0
   -0.5221    0.0062    0.0000 C   0  0  0  0  0  0  0  0  0  0  0  0
   -0.2859    0.8018    0.0000 C   0  0  0  0  0  0  0  0  0  0  0  0
    1.2182   -1.2741    0.0000 C   0  0  0  0  0  0  0  0  0  0  0  0
    0.9696    1.5103    0.0000 C   0  0  0  0  0  0  0  0  0  0  0  0
    1.6408   -1.9950    0.0000 C   0  0  0  0  0  0  0  0  0  0  0  0
    2.6228    1.5103    0.0000 C   0  0  0  0  0  0  0  0  0  0  0  0
   -0.6961    1.4979    0.0000 C   0  0  0  0  0  0  0  0  0  0  0  0
   -2.2126    0.0062    0.0000 C   0  0  0  0  0  0  0  0  0  0  0  0
    3.0330    0.8018    0.0000 C   0  0  3  0  0  0  0  0  0  0  0  0
    3.0330    2.2312    0.0000 C   0  0  3  0  0  0  0  0  0  0  0  0
   -2.6104    0.7147    0.0000 C   0  0  0  0  0  0  0  0  0  0  0  0
   -2.6104   -0.7147    0.0000 C   0  0  0  0  0  0  0  0  0  0  0  0
    3.0330   -0.0435    0.0000 C   0  0  0  0  0  0  0  0  0  0  0  0
    2.6104    2.9398    0.0000 C   0  0  0  0  0  0  0  0  0  0  0  0
    3.8659    2.2188    0.0000 C   0  0  0  0  0  0  0  0  0  0  0  0
    3.8535    0.7893    0.0000 C   0  0  0  0  0  0  0  0  0  0  0  0
    4.2636    1.5103    0.0000 C   0  0  0  0  0  0  0  0  0  0  0  0
    1.2306   -2.7161    0.0000 C   0  0  0  0  0  0  0  0  0  0  0  0
    2.0386   -2.7036    0.0000 C   0  0  0  0  0  0  0  0  0  0  0  0
    2.4612   -1.9950    0.0000 C   0  0  0  0  0  0  0  0  0  0  0  0
   -3.8535    0.0062    0.0000 C   0  0  0  0  0  0  0  0  0  0  0  0
   -3.4308    0.7147    0.0000 C   0  0  0  0  0  0  0  0  0  0  0  0
   -3.4308   -0.7147    0.0000 C   0  0  0  0  0  0  0  0  0  0  0  0
   -2.2002    1.4357    0.0000 C   0  0  0  0  0  0  0  0  0  0  0  0
   -2.1877   -1.4357    0.0000 C   0  0  0  0  0  0  0  0  0  0  0  0
    2.6352   -0.7645    0.0000 C   0  0  0  0  0  0  0  0  0  0  0  0
    3.4432   -0.7520    0.0000 C   0  0  0  0  0  0  0  0  0  0  0  0
    1.8024    2.9273    0.0000 C   0  0  0  0  0  0  0  0  0  0  0  0
    2.2002    3.6483    0.0000 C   0  0  0  0  0  0  0  0  0  0  0  0
    3.0206    3.6483    0.0000 C   0  0  0  0  0  0  0  0  0  0  0  0
    3.8659   -0.0311    0.0000 C   0  0  0  0  0  0  0  0  0  0  0  0
    5.0965    1.5103    0.0000 C   0  0  0  0  0  0  0  0  0  0  0  0
   -5.0965    0.7147    0.0000 C   0  0  0  0  0  0  0  0  0  0  0  0
   -5.0965   -0.7147    0.0000 C   0  0  0  0  0  0  0  0  0  0  0  0
   -4.6862    1.4481    0.0000 C   0  0  0  0  0  0  0  0  0  0  0  0
   -4.6862   -1.4232    0.0000 C   0  0  0  0  0  0  0  0  0  0  0  0
   -5.0965    2.1567    0.0000 C   0  0  0  0  0  0  0  0  0  0  0  0
   -5.0965   -2.1443    0.0000 C   0  0  0  0  0  0  0  0  0  0  0  0
   -4.6862    2.8777    0.0000 C   0  0  0  0  0  0  0  0  0  0  0  0
   -4.6862   -2.8528    0.0000 C   0  0  0  0  0  0  0  0  0  0  0  0
   -5.0965    3.5862    0.0000 C   0  0  0  0  0  0  0  0  0  0  0  0
   -5.0965   -3.5862    0.0000 C   0  0  0  0  0  0  0  0  0  0  0  0
   -4.6862    4.3071    0.0000 C   0  0  0  0  0  0  0  0  0  0  0  0
   -4.6738   -4.3071    0.0000 C   0  0  0  0  0  0  0  0  0  0  0  0
  1 14  1  0  0  0  0
  1 16  1  0  0  0  0
  2 14  2  0  0  0  0
  3  5  1  0  0  0  0
  3  9  1  0  0  0  0
  3 11  1  0  0  0  0
  4  9  2  0  0  0  0
  4 13  1  0  0  0  0
  5 13  2  0  0  0  0
  6 11  2  3  0  0  0
  6 18  1  0  0  0  0
  7 17  3  0  0  0  0
  8 31  1  0  0  0  0
  8 43  1  0  0  0  0
  8 44  1  0  0  0  0
  9 10  1  0  0  0  0
 10 12  2  0  0  0  0
 10 14  1  0  0  0  0
 11 12  1  0  0  0  0
 12 17  1  0  0  0  0
 13 15  1  0  0  0  0
 15 28  1  0  0  0  0
 15 29  1  0  0  0  0
 15 30  1  0  0  0  0
 16 19  1  0  0  0  0
 16 20  1  0  0  0  0
 18 21  2  0  0  0  0
 18 22  1  0  0  0  0
 19 23  1  0  0  0  0
 19 26  1  0  0  0  0
 20 24  1  0  0  0  0
 20 25  1  0  0  0  0
 21 32  1  0  0  0  0
 21 34  1  0  0  0  0
 22 33  2  0  0  0  0
 22 35  1  0  0  0  0
 23 36  1  0  0  0  0
 23 37  1  0  0  0  0
 23 41  1  0  0  0  0
 24 38  1  0  0  0  0
 24 39  1  0  0  0  0
 24 40  1  0  0  0  0
 25 27  1  0  0  0  0
 26 27  1  0  0  0  0
 27 42  1  0  0  0  0
 31 32  2  0  0  0  0
 31 33  1  0  0  0  0
 43 45  1  0  0  0  0
 44 46  1  0  0  0  0
 45 47  1  0  0  0  0
 46 48  1  0  0  0  0
 47 49  1  0  0  0  0
 48 50  1  0  0  0  0
 49 51  1  0  0  0  0
 50 52  1  0  0  0  0
 51 53  1  0  0  0  0
 52 54  1  0  0  0  0
M  END
> <PUBCHEM_COMPOUND_ID_TYPE>
0

> <PUBCHEM_TOTAL_CHARGE>
0

> <PUBCHEM_SUBSTANCE_ID>
310948577

> <PUBCHEM_SUBSTANCE_VERSION>
1

> <PUBCHEM_EXT_DATASOURCE_NAME>
4488

> <PUBCHEM_EXT_DATASOURCE_REGID>
SCHEMBL16126760

> <PUBCHEM_SUBSTANCE_COMMENT>
InChI=1S/C46H72N6O2/c1-15-17-19-21-23-51(24-22-20-18-16-2)33-27-31(4)38(32(5)28-33)48-40-34(29-47)37(41-49-43(46(12,13)14)50-52(40)41)42(53)54-39-35(44(6,7)8)25-30(3)26-36(39)45(9,10)11/h27-28,30,35-36,39H,15-26H2,1-14H3
InChIKey=FVXSZNOQEFYCAY-UHFFFAOYSA-N

> <PUBCHEM_SUBSTANCE_SYNONYM>
SCHEMBL16126760

> <PUBCHEM_XREF_EXT_ID>
SCHEMBL16126760

> <PUBCHEM_EXT_DATASOURCE_URL>
https://www.surechembl.org/

> <PUBCHEM_EXT_SUBSTANCE_URL>
https://www.surechembl.org/chemical/SCHEMBL16126760

> <PUBCHEM_CID_ASSOCIATIONS>
117614126  1

> <PUBCHEM_COORDINATE_TYPE>
1
3

$$$$
