310936657
  -OEChem-07211613022D

 22 23  0     1  0  0  0  0  0999 V2000
    0.0988   -3.9313    0.0000 F   0  0  0  0  0  0  0  0  0  0  0  0
    1.5212   -3.9511    0.0000 F   0  0  0  0  0  0  0  0  0  0  0  0
    0.1185   -3.1214    0.0000 F   0  0  0  0  0  0  0  0  0  0  0  0
    4.5833   -0.3161    0.0000 O   0  0  0  0  0  0  0  0  0  0  0  0
    3.5363   -2.1731    0.0000 O   0  0  0  0  0  0  0  0  0  0  0  0
    0.0000   -0.6717    0.0000 O   0  0  0  0  0  0  0  0  0  0  0  0
    2.4892   -0.7112    0.0000 N   0  0  3  0  0  0  0  0  0  0  0  0
    2.4694   -2.1138    0.0000 N   0  0  0  0  0  0  0  0  0  0  0  0
    2.0743   -1.4224    0.0000 C   0  0  0  0  0  0  0  0  0  0  0  0
    3.3189   -0.7309    0.0000 C   0  0  3  0  0  0  0  0  0  0  0  0
    1.2446   -1.3829    0.0000 C   0  0  0  0  0  0  0  0  0  0  0  0
    1.2446   -2.8250    0.0000 C   0  0  0  0  0  0  0  0  0  0  0  0
    3.7930   -1.3829    0.0000 C   0  0  3  0  0  0  0  0  0  0  0  0
    0.8297   -3.5363    0.0000 C   0  0  0  0  0  0  0  0  0  0  0  0
    0.8495   -2.1336    0.0000 C   0  0  0  0  0  0  0  0  0  0  0  0
    2.0743   -2.8448    0.0000 C   0  0  0  0  0  0  0  0  0  0  0  0
    3.7930   -0.0593    0.0000 C   0  0  0  0  0  0  0  0  0  0  0  0
    4.5833   -1.1458    0.0000 C   0  0  0  0  0  0  0  0  0  0  0  0
    0.8297   -0.6717    0.0000 C   0  0  0  0  0  0  0  0  0  0  0  0
    2.0743    0.0000    0.0000 C   0  0  0  0  0  0  0  0  0  0  0  0
    4.0894   -2.7855    0.0000 C   0  0  0  0  0  0  0  0  0  0  0  0
    4.8994   -2.6077    0.0000 C   0  0  0  0  0  0  0  0  0  0  0  0
  1 14  1  0  0  0  0
  2 14  1  0  0  0  0
  3 14  1  0  0  0  0
  4 17  1  0  0  0  0
  4 18  1  0  0  0  0
  5 13  1  0  0  0  0
  5 21  1  0  0  0  0
  6 19  1  0  0  0  0
  7  9  1  0  0  0  0
  7 10  1  0  0  0  0
  7 20  1  0  0  0  0
  8  9  1  0  0  0  0
  8 16  2  0  0  0  0
  9 11  2  0  0  0  0
 10 13  1  0  0  0  0
 10 17  1  0  0  0  0
 11 15  1  0  0  0  0
 11 19  1  0  0  0  0
 12 14  1  0  0  0  0
 12 15  2  0  0  0  0
 12 16  1  0  0  0  0
 13 18  1  0  0  0  0
 21 22  1  0  0  0  0
M  END
> <PUBCHEM_COMPOUND_ID_TYPE>
0

> <PUBCHEM_TOTAL_CHARGE>
0

> <PUBCHEM_SUBSTANCE_ID>
310936657

> <PUBCHEM_SUBSTANCE_VERSION>
1

> <PUBCHEM_EXT_DATASOURCE_NAME>
4488

> <PUBCHEM_EXT_DATASOURCE_REGID>
SCHEMBL16114327

> <PUBCHEM_SUBSTANCE_COMMENT>
InChI=1S/C14H19F3N2O3/c1-3-22-12-8-21-7-11(12)19(2)13-9(6-20)4-10(5-18-13)14(15,16)17/h4-5,11-12,20H,3,6-8H2,1-2H3
InChIKey=KQMHINBXQMOAAN-UHFFFAOYSA-N

> <PUBCHEM_SUBSTANCE_SYNONYM>
SCHEMBL16114327

> <PUBCHEM_XREF_EXT_ID>
SCHEMBL16114327

> <PUBCHEM_EXT_DATASOURCE_URL>
https://www.surechembl.org/

> <PUBCHEM_EXT_SUBSTANCE_URL>
https://www.surechembl.org/chemical/SCHEMBL16114327

> <PUBCHEM_CID_ASSOCIATIONS>
117604568  1

> <PUBCHEM_COORDINATE_TYPE>
1
3

$$$$
