310942408
  -OEChem-07211613022D

 18 20  0     1  0  0  0  0  0999 V2000
   -1.2927   -1.9355    0.0000 O   0  0  0  0  0  0  0  0  0  0  0  0
   -2.0753   -0.6918    0.0000 O   0  0  0  0  0  0  0  0  0  0  0  0
    0.6638   -0.2445    0.0000 N   0  0  0  0  0  0  0  0  0  0  0  0
    1.4883   -0.3703    0.0000 N   0  0  0  0  0  0  0  0  0  0  0  0
    0.2026    0.4681    0.0000 C   0  0  0  0  0  0  0  0  0  0  0  0
    0.1328   -0.9014    0.0000 C   0  0  0  0  0  0  0  0  0  0  0  0
   -0.6498   -0.6079    0.0000 C   0  0  0  0  0  0  0  0  0  0  0  0
   -0.5800    0.2445    0.0000 C   0  0  0  0  0  0  0  0  0  0  0  0
    0.5101    1.2647    0.0000 C   0  0  3  0  0  0  0  0  0  0  0  0
    1.3206    1.4185    0.0000 C   0  0  0  0  0  0  0  0  0  0  0  0
   -1.3346   -1.0551    0.0000 C   0  0  0  0  0  0  0  0  0  0  0  0
    0.4542   -1.7119    0.0000 C   0  0  0  0  0  0  0  0  0  0  0  0
    1.9355    1.9075    0.0000 C   0  0  0  0  0  0  0  0  0  0  0  0
    2.0753    1.1250    0.0000 C   0  0  0  0  0  0  0  0  0  0  0  0
   -1.2787    0.7756    0.0000 C   0  0  0  0  0  0  0  0  0  0  0  0
    1.7678   -1.1949    0.0000 C   0  0  0  0  0  0  0  0  0  0  0  0
    1.2647   -1.8377    0.0000 C   0  0  0  0  0  0  0  0  0  0  0  0
   -0.0629    1.9355    0.0000 C   0  0  0  0  0  0  0  0  0  0  0  0
  1 11  2  0  0  0  0
  2 11  1  0  0  0  0
  3  4  1  0  0  0  0
  3  5  1  0  0  0  0
  3  6  1  0  0  0  0
  4 16  2  0  0  0  0
  5  8  2  0  0  0  0
  5  9  1  0  0  0  0
  6  7  2  0  0  0  0
  6 12  1  0  0  0  0
  7  8  1  0  0  0  0
  7 11  1  0  0  0  0
  8 15  1  0  0  0  0
  9 10  1  0  0  0  0
  9 18  1  0  0  0  0
 10 13  1  0  0  0  0
 10 14  1  0  0  0  0
 12 17  2  0  0  0  0
 13 14  1  0  0  0  0
 16 17  1  0  0  0  0
M  END
> <PUBCHEM_COMPOUND_ID_TYPE>
0

> <PUBCHEM_TOTAL_CHARGE>
0

> <PUBCHEM_SUBSTANCE_ID>
310942408

> <PUBCHEM_SUBSTANCE_VERSION>
1

> <PUBCHEM_EXT_DATASOURCE_NAME>
4488

> <PUBCHEM_EXT_DATASOURCE_REGID>
SCHEMBL16120444

> <PUBCHEM_SUBSTANCE_COMMENT>
InChI=1S/C14H16N2O2/c1-8(10-5-6-10)13-9(2)12(14(17)18)11-4-3-7-15-16(11)13/h3-4,7-8,10H,5-6H2,1-2H3,(H,17,18)
InChIKey=HVEBFFMOPJFBPS-UHFFFAOYSA-N

> <PUBCHEM_SUBSTANCE_SYNONYM>
SCHEMBL16120444

> <PUBCHEM_XREF_EXT_ID>
SCHEMBL16120444

> <PUBCHEM_EXT_DATASOURCE_URL>
https://www.surechembl.org/

> <PUBCHEM_EXT_SUBSTANCE_URL>
https://www.surechembl.org/chemical/SCHEMBL16120444

> <PUBCHEM_CID_ASSOCIATIONS>
117609012  1

> <PUBCHEM_COORDINATE_TYPE>
1
3

$$$$
