310945972
  -OEChem-07211613022D

 14 13  0     1  0  0  0  0  0999 V2000
    0.1104    0.2263    0.0000 N   0  0  3  0  0  0  0  0  0  0  0  0
   -2.6494    0.5134    0.0000 N   0  0  0  0  0  0  0  0  0  0  0  0
   -2.2299    1.2309    0.0000 N   0  0  0  0  0  0  0  0  0  0  0  0
    2.2630   -0.1932    0.0000 N   0  0  0  0  0  0  0  0  0  0  0  0
   -1.3357    0.2594    0.0000 C   0  0  0  0  0  0  0  0  0  0  0  0
   -2.0864   -0.0828    0.0000 C   0  0  0  0  0  0  0  0  0  0  0  0
   -0.5851   -0.1601    0.0000 C   0  0  0  0  0  0  0  0  0  0  0  0
   -2.2740   -0.9108    0.0000 C   0  0  0  0  0  0  0  0  0  0  0  0
    0.8500   -0.1601    0.0000 C   0  0  0  0  0  0  0  0  0  0  0  0
   -1.4792    1.0101    0.0000 C   0  0  0  0  0  0  0  0  0  0  0  0
    0.1215    1.0984    0.0000 C   0  0  0  0  0  0  0  0  0  0  0  0
    1.5565    0.2484    0.0000 C   0  0  0  0  0  0  0  0  0  0  0  0
   -2.9916   -1.2309    0.0000 C   0  0  0  0  0  0  0  0  0  0  0  0
    2.9916    0.2594    0.0000 C   0  0  0  0  0  0  0  0  0  0  0  0
  1  7  1  0  0  0  0
  1  9  1  0  0  0  0
  1 11  1  0  0  0  0
  2  3  1  0  0  0  0
  2  6  2  0  0  0  0
  4 12  1  0  0  0  0
  4 14  1  0  0  0  0
  5  6  1  0  0  0  0
  5  7  1  0  0  0  0
  5 10  2  0  0  0  0
  6  8  1  0  0  0  0
  8 13  2  0  0  0  0
  9 12  1  0  0  0  0
M  END
> <PUBCHEM_COMPOUND_ID_TYPE>
0

> <PUBCHEM_TOTAL_CHARGE>
0

> <PUBCHEM_SUBSTANCE_ID>
310945972

> <PUBCHEM_SUBSTANCE_VERSION>
1

> <PUBCHEM_EXT_DATASOURCE_NAME>
4488

> <PUBCHEM_EXT_DATASOURCE_REGID>
SCHEMBL16124077

> <PUBCHEM_SUBSTANCE_COMMENT>
InChI=1S/C10H20N4/c1-5-10(13-11)9(2)8-14(4)7-6-12-3/h5,12H,1-2,6-8,11H2,3-4H3/b13-10-
InChIKey=SJYZIXFLZHEIEH-RAXLEYEMSA-N

> <PUBCHEM_SUBSTANCE_SYNONYM>
SCHEMBL16124077

> <PUBCHEM_XREF_EXT_ID>
SCHEMBL16124077

> <PUBCHEM_EXT_DATASOURCE_URL>
https://www.surechembl.org/

> <PUBCHEM_EXT_SUBSTANCE_URL>
https://www.surechembl.org/chemical/SCHEMBL16124077

> <PUBCHEM_CID_ASSOCIATIONS>
117611948  1

> <PUBCHEM_COORDINATE_TYPE>
1
3

$$$$
