310933726
  -OEChem-07211613022D

 22 24  0     1  0  0  0  0  0999 V2000
    0.7423    0.0000    0.0000 F   0  0  0  0  0  0  0  0  0  0  0  0
    0.0000   -1.2372    0.0000 F   0  0  0  0  0  0  0  0  0  0  0  0
    1.4537   -0.4021    0.0000 F   0  0  0  0  0  0  0  0  0  0  0  0
    0.0310   -3.7115    0.0000 O   0  0  0  0  0  0  0  0  0  0  0  0
    1.4537   -3.7115    0.0000 N   0  0  0  0  0  0  0  0  0  0  0  0
    1.4537   -2.0723    0.0000 N   0  0  3  0  0  0  0  0  0  0  0  0
    3.5878   -5.7529    0.0000 N   0  0  0  0  0  0  0  0  0  0  0  0
    1.4537   -4.5466    0.0000 C   0  0  0  0  0  0  0  0  0  0  0  0
    2.1341   -4.9487    0.0000 C   0  0  0  0  0  0  0  0  0  0  0  0
    0.7423   -3.3094    0.0000 C   0  0  0  0  0  0  0  0  0  0  0  0
    2.1341   -5.7529    0.0000 C   0  0  0  0  0  0  0  0  0  0  0  0
    2.1651   -3.3094    0.0000 C   0  0  0  0  0  0  0  0  0  0  0  0
    0.7423   -2.4743    0.0000 C   0  0  0  0  0  0  0  0  0  0  0  0
    0.7423   -4.9487    0.0000 C   0  0  0  0  0  0  0  0  0  0  0  0
    2.1651   -2.4743    0.0000 C   0  0  0  0  0  0  0  0  0  0  0  0
    2.8455   -4.5157    0.0000 C   0  0  0  0  0  0  0  0  0  0  0  0
    1.4537   -1.2372    0.0000 C   0  0  0  0  0  0  0  0  0  0  0  0
    1.4537   -6.1859    0.0000 C   0  0  0  0  0  0  0  0  0  0  0  0
    0.7423   -0.8351    0.0000 C   0  0  0  0  0  0  0  0  0  0  0  0
    0.7423   -5.7838    0.0000 C   0  0  0  0  0  0  0  0  0  0  0  0
    2.8764   -6.1549    0.0000 C   0  0  0  0  0  0  0  0  0  0  0  0
    3.5878   -4.9177    0.0000 C   0  0  0  0  0  0  0  0  0  0  0  0
  1 19  1  0  0  0  0
  2 19  1  0  0  0  0
  3 19  1  0  0  0  0
  4 10  2  0  0  0  0
  5  8  1  0  0  0  0
  5 10  1  0  0  0  0
  5 12  1  0  0  0  0
  6 13  1  0  0  0  0
  6 15  1  0  0  0  0
  6 17  1  0  0  0  0
  7 21  2  0  0  0  0
  7 22  1  0  0  0  0
  8  9  1  0  0  0  0
  8 14  2  0  0  0  0
  9 11  2  0  0  0  0
  9 16  1  0  0  0  0
 10 13  1  0  0  0  0
 11 18  1  0  0  0  0
 11 21  1  0  0  0  0
 12 15  1  0  0  0  0
 14 20  1  0  0  0  0
 16 22  1  0  0  0  0
 17 19  1  0  0  0  0
 18 20  2  0  0  0  0
M  END
> <PUBCHEM_COMPOUND_ID_TYPE>
0

> <PUBCHEM_TOTAL_CHARGE>
0

> <PUBCHEM_SUBSTANCE_ID>
310933726

> <PUBCHEM_SUBSTANCE_VERSION>
1

> <PUBCHEM_EXT_DATASOURCE_NAME>
4488

> <PUBCHEM_EXT_DATASOURCE_REGID>
SCHEMBL16111161

> <PUBCHEM_SUBSTANCE_COMMENT>
InChI=1S/C15H16F3N3O/c16-15(17,18)10-20-6-7-21(14(22)9-20)13-3-1-2-11-8-19-5-4-12(11)13/h1-3,8H,4-7,9-10H2
InChIKey=SGYQLEIDAJLUNP-UHFFFAOYSA-N

> <PUBCHEM_SUBSTANCE_SYNONYM>
SCHEMBL16111161

> <PUBCHEM_XREF_EXT_ID>
SCHEMBL16111161

> <PUBCHEM_EXT_DATASOURCE_URL>
https://www.surechembl.org/

> <PUBCHEM_EXT_SUBSTANCE_URL>
https://www.surechembl.org/chemical/SCHEMBL16111161

> <PUBCHEM_CID_ASSOCIATIONS>
117602089  1

> <PUBCHEM_COORDINATE_TYPE>
1
3

$$$$
