310935482
  -OEChem-07211613022D

 29 32  0     1  0  0  0  0  0999 V2000
    0.1536   -0.5422    0.0000 F   0  0  0  0  0  0  0  0  0  0  0  0
   -1.2054   -0.1006    0.0000 F   0  0  0  0  0  0  0  0  0  0  0  0
    3.3790   -3.1363    0.0000 F   0  0  0  0  0  0  0  0  0  0  0  0
    5.3956   -0.1608    0.0000 O   0  0  0  0  0  0  0  0  0  0  0  0
    6.0668    1.3466    0.0000 O   0  0  0  0  0  0  0  0  0  0  0  0
   -0.1435    0.8555    0.0000 N   0  0  0  0  0  0  0  0  0  0  0  0
   -0.6284    1.5229    0.0000 N   0  0  0  0  0  0  0  0  0  0  0  0
    5.2463    1.2603    0.0000 N   0  0  0  0  0  0  0  0  0  0  0  0
    3.6777   -0.2941    0.0000 C   0  0  3  0  0  0  0  0  0  0  0  0
    2.7845    0.6979    0.0000 C   0  0  0  0  0  0  0  0  0  0  0  0
    4.0902    0.4204    0.0000 C   0  0  3  0  0  0  0  0  0  0  0  0
    0.6411    1.1104    0.0000 C   0  0  0  0  0  0  0  0  0  0  0  0
    2.0701    1.1104    0.0000 C   0  0  0  0  0  0  0  0  0  0  0  0
    0.6411    1.9354    0.0000 C   0  0  0  0  0  0  0  0  0  0  0  0
    4.0133   -1.0477    0.0000 C   0  0  0  0  0  0  0  0  0  0  0  0
    2.8708   -0.1225    0.0000 C   0  0  0  0  0  0  0  0  0  0  0  0
    3.5382    1.0335    0.0000 C   0  0  0  0  0  0  0  0  0  0  0  0
    1.3556    0.6979    0.0000 C   0  0  0  0  0  0  0  0  0  0  0  0
    2.0701    1.9354    0.0000 C   0  0  0  0  0  0  0  0  0  0  0  0
    3.5284   -1.7152    0.0000 C   0  0  0  0  0  0  0  0  0  0  0  0
    4.9107    0.5066    0.0000 C   0  0  0  0  0  0  0  0  0  0  0  0
    1.3556    2.3479    0.0000 C   0  0  0  0  0  0  0  0  0  0  0  0
   -0.1435    2.1904    0.0000 C   0  0  0  0  0  0  0  0  0  0  0  0
   -0.3984    0.0709    0.0000 C   0  0  0  0  0  0  0  0  0  0  0  0
    4.8338   -1.1340    0.0000 C   0  0  0  0  0  0  0  0  0  0  0  0
    3.8639   -2.4689    0.0000 C   0  0  0  0  0  0  0  0  0  0  0  0
    5.1693   -1.8877    0.0000 C   0  0  0  0  0  0  0  0  0  0  0  0
    4.6844   -2.5551    0.0000 C   0  0  0  0  0  0  0  0  0  0  0  0
    2.7079   -1.6289    0.0000 C   0  0  0  0  0  0  0  0  0  0  0  0
  1 24  1  0  0  0  0
  2 24  1  0  0  0  0
  3 26  1  0  0  0  0
  4 21  2  0  0  0  0
  5  8  1  0  0  0  0
  6  7  1  0  0  0  0
  6 12  1  0  0  0  0
  6 24  1  0  0  0  0
  7 23  2  0  0  0  0
  8 21  1  0  0  0  0
  9 11  1  0  0  0  0
  9 15  1  0  0  0  0
  9 16  1  0  0  0  0
 10 13  1  0  0  0  0
 10 16  2  0  0  0  0
 10 17  1  0  0  0  0
 11 17  1  0  0  0  0
 11 21  1  0  0  0  0
 12 14  2  0  0  0  0
 12 18  1  0  0  0  0
 13 18  2  0  0  0  0
 13 19  1  0  0  0  0
 14 22  1  0  0  0  0
 14 23  1  0  0  0  0
 15 20  2  0  0  0  0
 15 25  1  0  0  0  0
 19 22  2  0  0  0  0
 20 26  1  0  0  0  0
 20 29  1  0  0  0  0
 25 27  2  0  0  0  0
 26 28  2  0  0  0  0
 27 28  1  0  0  0  0
M  END
> <PUBCHEM_COMPOUND_ID_TYPE>
0

> <PUBCHEM_TOTAL_CHARGE>
0

> <PUBCHEM_SUBSTANCE_ID>
310935482

> <PUBCHEM_SUBSTANCE_VERSION>
1

> <PUBCHEM_EXT_DATASOURCE_NAME>
4488

> <PUBCHEM_EXT_DATASOURCE_REGID>
SCHEMBL16113043

> <PUBCHEM_SUBSTANCE_COMMENT>
InChI=1S/C21H18F3N3O2/c1-11-15(3-2-4-18(11)22)16-7-14(8-17(16)20(28)26-29)12-5-6-13-10-25-27(21(23)24)19(13)9-12/h2-7,9-10,16-17,21,29H,8H2,1H3,(H,26,28)
InChIKey=FOBSEHABYALZLP-UHFFFAOYSA-N

> <PUBCHEM_SUBSTANCE_SYNONYM>
SCHEMBL16113043

> <PUBCHEM_XREF_EXT_ID>
SCHEMBL16113043

> <PUBCHEM_EXT_DATASOURCE_URL>
https://www.surechembl.org/

> <PUBCHEM_EXT_SUBSTANCE_URL>
https://www.surechembl.org/chemical/SCHEMBL16113043

> <PUBCHEM_CID_ASSOCIATIONS>
117603517  1

> <PUBCHEM_COORDINATE_TYPE>
1
3

$$$$
