310941887
  -OEChem-07211613022D

 21 25  0     1  0  0  0  0  0999 V2000
   -0.0141    0.9320    0.0000 Br  0  0  0  0  0  0  0  0  0  0  0  0
    0.5225   -0.7203    0.0000 O   0  0  0  0  0  0  0  0  0  0  0  0
    2.5560    0.8050    0.0000 N   0  0  0  0  0  0  0  0  0  0  0  0
    3.4881   -0.1836    0.0000 N   0  0  0  0  0  0  0  0  0  0  0  0
    3.8975    0.5507    0.0000 N   0  0  0  0  0  0  0  0  0  0  0  0
   -3.3609   -0.5931    0.0000 C   0  0  3  0  0  0  0  0  0  0  0  0
   -3.1491   -0.9462    0.0000 C   0  0  3  0  0  0  0  0  0  0  0  0
   -2.4431   -0.9885    0.0000 C   0  0  0  0  0  0  0  0  0  0  0  0
   -3.2479    0.0423    0.0000 C   0  0  0  0  0  0  0  0  0  0  0  0
   -3.8975   -1.1580    0.0000 C   0  0  0  0  0  0  0  0  0  0  0  0
   -1.7510   -0.5931    0.0000 C   0  0  0  0  0  0  0  0  0  0  0  0
   -2.5701    0.4378    0.0000 C   0  0  0  0  0  0  0  0  0  0  0  0
   -1.7228    0.2259    0.0000 C   0  0  0  0  0  0  0  0  0  0  0  0
    2.6548    0.0000    0.0000 C   0  0  0  0  0  0  0  0  0  0  0  0
   -0.9180   -0.9038    0.0000 C   0  0  0  0  0  0  0  0  0  0  0  0
    1.1862   -0.2118    0.0000 C   0  0  0  0  0  0  0  0  0  0  0  0
    1.0874    0.6072    0.0000 C   0  0  0  0  0  0  0  0  0  0  0  0
    1.9912   -0.5225    0.0000 C   0  0  0  0  0  0  0  0  0  0  0  0
    1.7652    1.1157    0.0000 C   0  0  0  0  0  0  0  0  0  0  0  0
    3.2761    1.1580    0.0000 C   0  0  0  0  0  0  0  0  0  0  0  0
   -0.2683   -0.4095    0.0000 C   0  0  0  0  0  0  0  0  0  0  0  0
  1 17  1  0  0  0  0
  2 16  1  0  0  0  0
  2 21  1  0  0  0  0
  3 14  1  0  0  0  0
  3 19  1  0  0  0  0
  3 20  1  0  0  0  0
  4  5  1  0  0  0  0
  4 14  2  0  0  0  0
  5 20  2  0  0  0  0
  6  8  1  0  0  0  0
  6  9  1  0  0  0  0
  6 10  1  0  0  0  0
  7  8  1  0  0  0  0
  7  9  1  0  0  0  0
  7 10  1  0  0  0  0
  8 11  2  0  0  0  0
  9 12  2  0  0  0  0
 11 13  1  0  0  0  0
 11 15  1  0  0  0  0
 12 13  1  0  0  0  0
 14 18  1  0  0  0  0
 15 21  1  0  0  0  0
 16 17  1  0  0  0  0
 16 18  2  0  0  0  0
 17 19  2  0  0  0  0
M  END
> <PUBCHEM_COMPOUND_ID_TYPE>
0

> <PUBCHEM_TOTAL_CHARGE>
0

> <PUBCHEM_SUBSTANCE_ID>
310941887

> <PUBCHEM_SUBSTANCE_VERSION>
1

> <PUBCHEM_EXT_DATASOURCE_NAME>
4488

> <PUBCHEM_EXT_DATASOURCE_REGID>
SCHEMBL16119919

> <PUBCHEM_SUBSTANCE_COMMENT>
InChI=1S/C16H14BrN3O/c17-13-7-20-8-18-19-15(20)6-14(13)21-4-3-9-1-2-10-11-5-12(10)16(9)11/h2,6-8,11-12H,1,3-5H2
InChIKey=ZEGVOFRFDQJXSW-UHFFFAOYSA-N

> <PUBCHEM_SUBSTANCE_SYNONYM>
SCHEMBL16119919

> <PUBCHEM_XREF_EXT_ID>
SCHEMBL16119919

> <PUBCHEM_EXT_DATASOURCE_URL>
https://www.surechembl.org/

> <PUBCHEM_EXT_SUBSTANCE_URL>
https://www.surechembl.org/chemical/SCHEMBL16119919

> <PUBCHEM_CID_ASSOCIATIONS>
117608623  1

> <PUBCHEM_COORDINATE_TYPE>
1
3

$$$$
