310946563
  -OEChem-07211613022D

 25 25  0     1  0  0  0  0  0999 V2000
   -9.4707    2.3669    0.0000 O   0  0  0  0  0  0  0  0  0  0  0  0
  -10.5507    1.5823    0.0000 O   0  0  0  0  0  0  0  0  0  0  0  0
   -7.7869    1.5823    0.0000 O   0  0  0  0  0  0  0  0  0  0  0  0
  -10.7082    3.0814    0.0000 O   0  0  0  0  0  0  0  0  0  0  0  0
   -7.0724    0.3448    0.0000 O   0  0  0  0  0  0  0  0  0  0  0  0
   -5.6435    3.6448    0.0000 O   0  0  0  0  0  0  0  0  0  0  0  0
   -7.0724    3.6448    0.0000 O   0  0  0  0  0  0  0  0  0  0  0  0
   -6.3579    2.4073    0.0000 N   0  0  0  0  0  0  0  0  0  0  0  0
   -9.2158    1.5823    0.0000 C   0  0  0  0  0  0  0  0  0  0  0  0
   -9.8832    1.0974    0.0000 C   0  0  0  0  0  0  0  0  0  0  0  0
  -10.2957    2.3669    0.0000 C   0  0  0  0  0  0  0  0  0  0  0  0
   -8.5013    1.1698    0.0000 C   0  0  0  0  0  0  0  0  0  0  0  0
   -7.0724    1.1698    0.0000 C   0  0  0  0  0  0  0  0  0  0  0  0
   -6.3579    1.5823    0.0000 C   0  0  3  0  0  0  0  0  0  0  0  0
   -5.6435    1.1698    0.0000 C   0  0  0  0  0  0  0  0  0  0  0  0
   -9.8832    0.2724    0.0000 C   0  0  0  0  0  0  0  0  0  0  0  0
   -6.3579    3.2323    0.0000 C   0  0  0  0  0  0  0  0  0  0  0  0
   -4.9290    1.5823    0.0000 C   0  0  0  0  0  0  0  0  0  0  0  0
   -5.2310    4.3593    0.0000 C   0  0  0  0  0  0  0  0  0  0  0  0
   -4.2145    1.1698    0.0000 C   0  0  0  0  0  0  0  0  0  0  0  0
   -4.9290    2.4073    0.0000 C   0  0  0  0  0  0  0  0  0  0  0  0
   -4.4060    4.3593    0.0000 C   0  0  0  0  0  0  0  0  0  0  0  0
   -3.9935    5.0737    0.0000 C   0  0  0  0  0  0  0  0  0  0  0  0
   -3.1685    5.0737    0.0000 C   0  0  0  0  0  0  0  0  0  0  0  0
   -2.7560    5.7882    0.0000 C   0  0  0  0  0  0  0  0  0  0  0  0
  1  9  1  0  0  0  0
  1 11  1  0  0  0  0
  2 10  1  0  0  0  0
  2 11  1  0  0  0  0
  3 12  1  0  0  0  0
  3 13  1  0  0  0  0
  4 11  2  0  0  0  0
  5 13  2  0  0  0  0
  6 17  1  0  0  0  0
  6 19  1  0  0  0  0
  7 17  2  0  0  0  0
  8 14  1  0  0  0  0
  8 17  1  0  0  0  0
  9 10  2  0  0  0  0
  9 12  1  0  0  0  0
 10 16  1  0  0  0  0
 13 14  1  0  0  0  0
 14 15  1  0  0  0  0
 15 18  1  0  0  0  0
 18 20  1  0  0  0  0
 18 21  1  0  0  0  0
 19 22  1  0  0  0  0
 22 23  1  0  0  0  0
 23 24  1  0  0  0  0
 24 25  1  0  0  0  0
M  END
> <PUBCHEM_COMPOUND_ID_TYPE>
0

> <PUBCHEM_TOTAL_CHARGE>
0

> <PUBCHEM_SUBSTANCE_ID>
310946563

> <PUBCHEM_SUBSTANCE_VERSION>
1

> <PUBCHEM_EXT_DATASOURCE_NAME>
4488

> <PUBCHEM_EXT_DATASOURCE_REGID>
SCHEMBL16124684

> <PUBCHEM_SUBSTANCE_COMMENT>
InChI=1S/C17H27NO7/c1-5-6-7-8-22-16(20)18-13(9-11(2)3)15(19)23-10-14-12(4)24-17(21)25-14/h11,13H,5-10H2,1-4H3,(H,18,20)
InChIKey=UBVQWYJJYCETQF-UHFFFAOYSA-N

> <PUBCHEM_SUBSTANCE_SYNONYM>
SCHEMBL16124684

> <PUBCHEM_XREF_EXT_ID>
SCHEMBL16124684

> <PUBCHEM_EXT_DATASOURCE_URL>
https://www.surechembl.org/

> <PUBCHEM_EXT_SUBSTANCE_URL>
https://www.surechembl.org/chemical/SCHEMBL16124684

> <PUBCHEM_CID_ASSOCIATIONS>
117612465  1

> <PUBCHEM_COORDINATE_TYPE>
1
3

$$$$
