310941015
  -OEChem-07211613022D

 43 47  0     1  0  0  0  0  0999 V2000
    5.2020   -1.8339    0.0000 O   0  0  0  0  0  0  0  0  0  0  0  0
    4.0622    0.1388    0.0000 O   0  0  0  0  0  0  0  0  0  0  0  0
    1.6804   -1.8192    0.0000 O   0  0  0  0  0  0  0  0  0  0  0  0
    3.8284    3.5581    0.0000 O   0  0  0  0  0  0  0  0  0  0  0  0
   -0.4822    0.2703    0.0000 O   0  0  0  0  0  0  0  0  0  0  0  0
   -2.6448   -1.8192    0.0000 O   0  0  0  0  0  0  0  0  0  0  0  0
   -5.5234   -1.8192    0.0000 O   0  0  0  0  0  0  0  0  0  0  0  0
    2.3964   -0.5626    0.0000 N   0  0  0  0  0  0  0  0  0  0  0  0
    3.7407    2.0676    0.0000 N   0  0  0  0  0  0  0  0  0  0  0  0
    0.2338   -0.9863    0.0000 N   0  0  0  0  0  0  0  0  0  0  0  0
   -1.9288   -0.5626    0.0000 N   0  0  0  0  0  0  0  0  0  0  0  0
   -4.0914   -0.9863    0.0000 N   0  0  0  0  0  0  0  0  0  0  0  0
    4.7782   -1.0886    0.0000 C   0  0  3  0  0  0  0  0  0  0  0  0
    4.0622   -0.6795    0.0000 C   0  0  0  0  0  0  0  0  0  0  0  0
    4.3837   -1.8046    0.0000 C   0  0  0  0  0  0  0  0  0  0  0  0
    3.3462   -1.0740    0.0000 C   0  0  3  0  0  0  0  0  0  0  0  0
    5.5234   -0.6795    0.0000 C   0  0  0  0  0  0  0  0  0  0  0  0
    3.3462   -2.1553    0.0000 C   0  0  0  0  0  0  0  0  0  0  0  0
    1.6950   -0.9279    0.0000 C   0  0  0  0  0  0  0  0  0  0  0  0
    0.9644   -0.5333    0.0000 C   0  0  3  0  0  0  0  0  0  0  0  0
    2.3964    1.9654    0.0000 C   0  0  0  0  0  0  0  0  0  0  0  0
    3.1270    1.5416    0.0000 C   0  0  0  0  0  0  0  0  0  0  0  0
    1.6804    0.7087    0.0000 C   0  0  0  0  0  0  0  0  0  0  0  0
    2.6156   -2.5791    0.0000 C   0  0  0  0  0  0  0  0  0  0  0  0
    0.9790    0.2996    0.0000 C   0  0  0  0  0  0  0  0  0  0  0  0
    1.6950    1.5416    0.0000 C   0  0  0  0  0  0  0  0  0  0  0  0
    2.5863    2.7690    0.0000 C   0  0  0  0  0  0  0  0  0  0  0  0
    3.3754    2.8275    0.0000 C   0  0  0  0  0  0  0  0  0  0  0  0
    3.1270    0.7087    0.0000 C   0  0  0  0  0  0  0  0  0  0  0  0
    2.4110    0.2996    0.0000 C   0  0  0  0  0  0  0  0  0  0  0  0
   -0.4968   -0.5626    0.0000 C   0  0  0  0  0  0  0  0  0  0  0  0
    1.8558   -2.2576    0.0000 C   0  0  0  0  0  0  0  0  0  0  0  0
    2.5133   -3.3974    0.0000 C   0  0  0  0  0  0  0  0  0  0  0  0
   -1.1836   -0.9571    0.0000 C   0  0  3  0  0  0  0  0  0  0  0  0
    1.3151   -2.8567    0.0000 C   0  0  0  0  0  0  0  0  0  0  0  0
    1.7096   -3.5581    0.0000 C   0  0  0  0  0  0  0  0  0  0  0  0
   -2.6302   -0.9279    0.0000 C   0  0  0  0  0  0  0  0  0  0  0  0
   -1.1982   -1.8046    0.0000 C   0  0  0  0  0  0  0  0  0  0  0  0
   -3.3754   -0.5480    0.0000 C   0  0  0  0  0  0  0  0  0  0  0  0
   -4.0914   -1.7900    0.0000 C   0  0  0  0  0  0  0  0  0  0  0  0
   -4.8366   -0.5480    0.0000 C   0  0  0  0  0  0  0  0  0  0  0  0
   -4.7928   -2.1991    0.0000 C   0  0  0  0  0  0  0  0  0  0  0  0
   -5.5088   -0.9425    0.0000 C   0  0  0  0  0  0  0  0  0  0  0  0
  1 13  1  0  0  0  0
  1 15  1  0  0  0  0
  2 14  2  0  0  0  0
  3 19  2  0  0  0  0
  4 28  2  0  0  0  0
  5 31  2  0  0  0  0
  6 37  2  0  0  0  0
  7 42  1  0  0  0  0
  7 43  1  0  0  0  0
  8 16  1  0  0  0  0
  8 19  1  0  0  0  0
  9 22  1  0  0  0  0
  9 28  1  0  0  0  0
 10 20  1  0  0  0  0
 10 31  1  0  0  0  0
 11 34  1  0  0  0  0
 11 37  1  0  0  0  0
 12 39  1  0  0  0  0
 12 40  1  0  0  0  0
 12 41  1  0  0  0  0
 13 14  1  0  0  0  0
 13 15  1  0  0  0  0
 13 17  1  0  0  0  0
 14 16  1  0  0  0  0
 16 18  1  0  0  0  0
 18 24  1  0  0  0  0
 19 20  1  0  0  0  0
 20 25  1  0  0  0  0
 21 22  1  0  0  0  0
 21 26  2  0  0  0  0
 21 27  1  0  0  0  0
 22 29  2  0  0  0  0
 23 25  1  0  0  0  0
 23 26  1  0  0  0  0
 23 30  2  0  0  0  0
 24 32  1  0  0  0  0
 24 33  1  0  0  0  0
 27 28  1  0  0  0  0
 29 30  1  0  0  0  0
 31 34  1  0  0  0  0
 32 35  1  0  0  0  0
 33 36  1  0  0  0  0
 34 38  1  0  0  0  0
 35 36  1  0  0  0  0
 37 39  1  0  0  0  0
 40 42  1  0  0  0  0
 41 43  1  0  0  0  0
M  END
> <PUBCHEM_COMPOUND_ID_TYPE>
0

> <PUBCHEM_TOTAL_CHARGE>
0

> <PUBCHEM_SUBSTANCE_ID>
310941015

> <PUBCHEM_SUBSTANCE_VERSION>
1

> <PUBCHEM_EXT_DATASOURCE_NAME>
4488

> <PUBCHEM_EXT_DATASOURCE_REGID>
SCHEMBL16118974

> <PUBCHEM_SUBSTANCE_COMMENT>
InChI=1S/C31H43N5O7/c1-19(32-27(38)17-36-9-11-42-12-10-36)29(40)35-25(15-21-7-8-23-22(13-21)16-26(37)33-23)30(41)34-24(14-20-5-3-4-6-20)28(39)31(2)18-43-31/h7-8,13,19-20,24-25H,3-6,9-12,14-18H2,1-2H3,(H,32,38)(H,33,37)(H,34,41)(H,35,40)
InChIKey=OXRPLZRGDSEUSH-UHFFFAOYSA-N

> <PUBCHEM_SUBSTANCE_SYNONYM>
SCHEMBL16118974

> <PUBCHEM_XREF_EXT_ID>
SCHEMBL16118974

> <PUBCHEM_EXT_DATASOURCE_URL>
https://www.surechembl.org/

> <PUBCHEM_EXT_SUBSTANCE_URL>
https://www.surechembl.org/chemical/SCHEMBL16118974

> <PUBCHEM_CID_ASSOCIATIONS>
117607915  1

> <PUBCHEM_COORDINATE_TYPE>
1
3

$$$$
