310937253
  -OEChem-07211613022D

 20 21  0     1  0  0  0  0  0999 V2000
    0.7104   -0.0229    0.0000 I   0  0  0  0  0  0  0  0  0  0  0  0
    1.4438   -3.7583    0.0000 Cl  0  0  0  0  0  0  0  0  0  0  0  0
    2.8874   -4.5833    0.0000 Cl  0  0  0  0  0  0  0  0  0  0  0  0
    2.1541    0.0000    0.0000 O   0  0  0  0  0  0  0  0  0  0  0  0
    4.3312   -1.2604    0.0000 N   0  0  0  0  0  0  0  0  0  0  0  0
    2.8874   -1.2604    0.0000 C   0  0  3  0  0  0  0  0  0  0  0  0
    2.8874   -2.0854    0.0000 C   0  0  0  0  0  0  0  0  0  0  0  0
    2.1541   -0.8250    0.0000 C   0  0  3  0  0  0  0  0  0  0  0  0
    1.4438   -1.2604    0.0000 C   0  0  0  0  0  0  0  0  0  0  0  0
    2.1770   -2.4979    0.0000 C   0  0  0  0  0  0  0  0  0  0  0  0
    0.7104   -0.8479    0.0000 C   0  0  0  0  0  0  0  0  0  0  0  0
    2.1770   -3.3229    0.0000 C   0  0  0  0  0  0  0  0  0  0  0  0
    3.5979   -2.4979    0.0000 C   0  0  0  0  0  0  0  0  0  0  0  0
    2.8874   -3.7583    0.0000 C   0  0  0  0  0  0  0  0  0  0  0  0
    1.4208   -2.0854    0.0000 C   0  0  0  0  0  0  0  0  0  0  0  0
    3.5979   -0.8250    0.0000 C   0  0  0  0  0  0  0  0  0  0  0  0
    3.5979   -3.3229    0.0000 C   0  0  0  0  0  0  0  0  0  0  0  0
    0.0000   -1.2604    0.0000 C   0  0  0  0  0  0  0  0  0  0  0  0
    0.7104   -2.4979    0.0000 C   0  0  0  0  0  0  0  0  0  0  0  0
    0.0000   -2.0854    0.0000 C   0  0  0  0  0  0  0  0  0  0  0  0
  1 11  1  0  0  0  0
  2 12  1  0  0  0  0
  3 14  1  0  0  0  0
  4  8  1  0  0  0  0
  5 16  1  0  0  0  0
  6  7  1  0  0  0  0
  6  8  1  0  0  0  0
  6 16  1  0  0  0  0
  7 10  1  0  0  0  0
  7 13  2  0  0  0  0
  8  9  1  0  0  0  0
  9 11  1  0  0  0  0
  9 15  2  0  0  0  0
 10 12  2  0  0  0  0
 11 18  2  0  0  0  0
 12 14  1  0  0  0  0
 13 17  1  0  0  0  0
 14 17  2  0  0  0  0
 15 19  1  0  0  0  0
 18 20  1  0  0  0  0
 19 20  2  0  0  0  0
M  END
> <PUBCHEM_COMPOUND_ID_TYPE>
0

> <PUBCHEM_TOTAL_CHARGE>
0

> <PUBCHEM_SUBSTANCE_ID>
310937253

> <PUBCHEM_SUBSTANCE_VERSION>
1

> <PUBCHEM_EXT_DATASOURCE_NAME>
4488

> <PUBCHEM_EXT_DATASOURCE_REGID>
SCHEMBL16114991

> <PUBCHEM_SUBSTANCE_COMMENT>
InChI=1S/C15H14Cl2INO/c16-12-6-5-9(7-13(12)17)11(8-19)15(20)10-3-1-2-4-14(10)18/h1-7,11,15,20H,8,19H2
InChIKey=RUNIHPUOGZFPMD-UHFFFAOYSA-N

> <PUBCHEM_SUBSTANCE_SYNONYM>
SCHEMBL16114991

> <PUBCHEM_XREF_EXT_ID>
SCHEMBL16114991

> <PUBCHEM_EXT_DATASOURCE_URL>
https://www.surechembl.org/

> <PUBCHEM_EXT_SUBSTANCE_URL>
https://www.surechembl.org/chemical/SCHEMBL16114991

> <PUBCHEM_CID_ASSOCIATIONS>
117605050  1

> <PUBCHEM_COORDINATE_TYPE>
1
3

$$$$
