310937339
  -OEChem-07211613022D

 37 42  0     1  0  0  0  0  0999 V2000
   -7.8785   -3.1465    0.0000 F   0  0  0  0  0  0  0  0  0  0  0  0
   -1.9457   -6.9995    0.0000 F   0  0  0  0  0  0  0  0  0  0  0  0
   -3.1108   -7.0606    0.0000 F   0  0  0  0  0  0  0  0  0  0  0  0
   -1.8846   -8.1646    0.0000 F   0  0  0  0  0  0  0  0  0  0  0  0
   -3.8567   -8.0542    0.0000 O   0  0  0  0  0  0  0  0  0  0  0  0
   -2.7948   -9.0103    0.0000 O   0  0  0  0  0  0  0  0  0  0  0  0
   -6.5215   -8.7733    0.0000 N   0  0  0  0  0  0  0  0  0  0  0  0
   -5.4800   -2.5485    0.0000 N   0  0  0  0  0  0  0  0  0  0  0  0
   -4.1538   -9.4519    0.0000 N   0  0  0  0  0  0  0  0  0  0  0  0
   -5.9675   -4.2012    0.0000 N   0  0  0  0  0  0  0  0  0  0  0  0
   -5.6704   -5.5989    0.0000 N   0  0  0  0  0  0  0  0  0  0  0  0
   -6.2646   -1.4686    0.0000 N   0  0  0  0  0  0  0  0  0  0  0  0
   -4.7655   -2.9610    0.0000 N   0  0  0  0  0  0  0  0  0  0  0  0
   -7.0294   -5.1574    0.0000 N   0  0  0  0  0  0  0  0  0  0  0  0
   -5.2157   -8.4957    0.0000 C   0  0  0  0  0  0  0  0  0  0  0  0
   -5.6282   -7.7813    0.0000 C   0  0  0  0  0  0  0  0  0  0  0  0
   -5.7678   -9.1088    0.0000 C   0  0  0  0  0  0  0  0  0  0  0  0
   -6.4352   -7.9528    0.0000 C   0  0  0  0  0  0  0  0  0  0  0  0
   -4.4088   -8.6673    0.0000 C   0  0  3  0  0  0  0  0  0  0  0  0
   -6.2646   -2.8035    0.0000 C   0  0  0  0  0  0  0  0  0  0  0  0
   -6.5195   -3.5881    0.0000 C   0  0  0  0  0  0  0  0  0  0  0  0
   -5.3733   -6.9966    0.0000 C   0  0  0  0  0  0  0  0  0  0  0  0
   -5.9253   -6.3835    0.0000 C   0  0  0  0  0  0  0  0  0  0  0  0
   -5.4800   -1.7235    0.0000 C   0  0  0  0  0  0  0  0  0  0  0  0
   -6.9873   -7.3397    0.0000 C   0  0  0  0  0  0  0  0  0  0  0  0
   -5.5128   -9.8934    0.0000 C   0  0  0  0  0  0  0  0  0  0  0  0
   -6.2224   -4.9858    0.0000 C   0  0  0  0  0  0  0  0  0  0  0  0
   -7.3265   -3.7596    0.0000 C   0  0  0  0  0  0  0  0  0  0  0  0
   -6.7495   -2.1360    0.0000 C   0  0  0  0  0  0  0  0  0  0  0  0
   -6.7323   -6.5551    0.0000 C   0  0  0  0  0  0  0  0  0  0  0  0
   -4.7059  -10.0650    0.0000 C   0  0  0  0  0  0  0  0  0  0  0  0
   -3.0498   -8.2257    0.0000 C   0  0  0  0  0  0  0  0  0  0  0  0
   -7.5814   -4.5443    0.0000 C   0  0  0  0  0  0  0  0  0  0  0  0
   -4.7655   -1.3110    0.0000 C   0  0  0  0  0  0  0  0  0  0  0  0
   -2.4977   -7.6126    0.0000 C   0  0  0  0  0  0  0  0  0  0  0  0
   -4.0510   -2.5485    0.0000 C   0  0  0  0  0  0  0  0  0  0  0  0
   -4.0510   -1.7235    0.0000 C   0  0  0  0  0  0  0  0  0  0  0  0
  1 28  1  0  0  0  0
  2 35  1  0  0  0  0
  3 35  1  0  0  0  0
  4 35  1  0  0  0  0
  5 19  1  0  0  0  0
  5 32  1  0  0  0  0
  6 32  2  0  0  0  0
  7 17  1  0  0  0  0
  7 18  1  0  0  0  0
  8 13  1  0  0  0  0
  8 20  1  0  0  0  0
  8 24  1  0  0  0  0
  9 19  1  0  0  0  0
  9 31  1  0  0  0  0
 10 21  1  0  0  0  0
 10 27  2  0  0  0  0
 11 23  1  0  0  0  0
 11 27  1  0  0  0  0
 12 24  2  0  0  0  0
 12 29  1  0  0  0  0
 13 36  2  0  0  0  0
 14 27  1  0  0  0  0
 14 33  2  0  0  0  0
 15 16  1  0  0  0  0
 15 17  2  0  0  0  0
 15 19  1  0  0  0  0
 16 18  1  0  0  0  0
 16 22  2  0  0  0  0
 17 26  1  0  0  0  0
 18 25  2  0  0  0  0
 20 21  1  0  0  0  0
 20 29  2  0  0  0  0
 21 28  2  0  0  0  0
 22 23  1  0  0  0  0
 23 30  2  0  0  0  0
 24 34  1  0  0  0  0
 25 30  1  0  0  0  0
 26 31  1  0  0  0  0
 28 33  1  0  0  0  0
 32 35  1  0  0  0  0
 34 37  2  0  0  0  0
 36 37  1  0  0  0  0
M  END
> <PUBCHEM_COMPOUND_ID_TYPE>
0

> <PUBCHEM_TOTAL_CHARGE>
0

> <PUBCHEM_SUBSTANCE_ID>
310937339

> <PUBCHEM_SUBSTANCE_VERSION>
1

> <PUBCHEM_EXT_DATASOURCE_NAME>
4488

> <PUBCHEM_EXT_DATASOURCE_REGID>
SCHEMBL16115093

> <PUBCHEM_SUBSTANCE_COMMENT>
InChI=1S/C23H16F4N8O2/c24-13-9-30-22(34-19(13)16-10-29-17-2-1-6-31-35(16)17)32-11-3-4-14-12(8-11)18-15(33-14)5-7-28-20(18)37-21(36)23(25,26)27/h1-4,6,8-10,20,28,33H,5,7H2,(H,30,32,34)
InChIKey=VTBHPMBASAFXMA-UHFFFAOYSA-N

> <PUBCHEM_SUBSTANCE_SYNONYM>
SCHEMBL16115093

> <PUBCHEM_XREF_EXT_ID>
SCHEMBL16115093

> <PUBCHEM_EXT_DATASOURCE_URL>
https://www.surechembl.org/

> <PUBCHEM_EXT_SUBSTANCE_URL>
https://www.surechembl.org/chemical/SCHEMBL16115093

> <PUBCHEM_CID_ASSOCIATIONS>
117605115  1

> <PUBCHEM_COORDINATE_TYPE>
1
3

$$$$
