310945807
  -OEChem-07211613022D

 10  9  0     1  0  0  0  0  0999 V2000
   -1.0335    0.9247    0.0000 S   0  0  0  0  0  0  0  0  0  0  0  0
   -0.3416    0.5156    0.0000 O   0  0  0  0  0  0  0  0  0  0  0  0
   -1.4426    0.2328    0.0000 O   0  0  0  0  0  0  0  0  0  0  0  0
   -0.6202    1.6166    0.0000 O   0  0  0  0  0  0  0  0  0  0  0  0
   -1.7297    1.3294    0.0000 O   0  0  0  0  0  0  0  0  0  0  0  0
    1.7297   -0.0718    0.0000 O   0  0  0  0  0  0  0  0  0  0  0  0
   -0.3503   -0.3242    0.0000 C   0  0  0  0  0  0  0  0  0  0  0  0
    0.4591   -0.7637    0.0000 C   0  0  3  0  0  0  0  0  0  0  0  0
    0.9204   -0.0369    0.0000 C   0  0  0  0  0  0  0  0  0  0  0  0
    0.9421   -0.7680    0.0000 C   0  0  0  0  0  0  0  0  0  0  0  0
  1  2  1  0  0  0  0
  1  3  2  0  0  0  0
  1  4  2  0  0  0  0
  1  5  1  0  0  0  0
  2  7  1  0  0  0  0
  6  9  1  0  0  0  0
  7  8  1  0  0  0  0
  8  9  1  0  0  0  0
  8 10  1  0  0  0  0
M  END
> <PUBCHEM_COMPOUND_ID_TYPE>
0

> <PUBCHEM_TOTAL_CHARGE>
0

> <PUBCHEM_SUBSTANCE_ID>
310945807

> <PUBCHEM_SUBSTANCE_VERSION>
1

> <PUBCHEM_EXT_DATASOURCE_NAME>
4488

> <PUBCHEM_EXT_DATASOURCE_REGID>
SCHEMBL16123911

> <PUBCHEM_SUBSTANCE_COMMENT>
InChI=1S/C4H10O5S/c1-4(2-5)3-9-10(6,7)8/h4-5H,2-3H2,1H3,(H,6,7,8)
InChIKey=YQMDVRSXEQCWNS-UHFFFAOYSA-N

> <PUBCHEM_SUBSTANCE_SYNONYM>
SCHEMBL16123911

> <PUBCHEM_XREF_EXT_ID>
SCHEMBL16123911

> <PUBCHEM_EXT_DATASOURCE_URL>
https://www.surechembl.org/

> <PUBCHEM_EXT_SUBSTANCE_URL>
https://www.surechembl.org/chemical/SCHEMBL16123911

> <PUBCHEM_CID_ASSOCIATIONS>
91275224  1

> <PUBCHEM_COORDINATE_TYPE>
1
3

$$$$
