310946783
  -OEChem-07211613022D

 33 35  0     1  0  0  0  0  0999 V2000
    1.6272   -3.2101    0.0000 O   0  0  0  0  0  0  0  0  0  0  0  0
    3.5060    0.3265    0.0000 O   0  0  0  0  0  0  0  0  0  0  0  0
    2.2685   -0.3880    0.0000 O   0  0  0  0  0  0  0  0  0  0  0  0
    0.2061   -3.0607    0.0000 N   0  0  0  0  0  0  0  0  0  0  0  0
   -0.4613   -2.5758    0.0000 N   0  0  0  0  0  0  0  0  0  0  0  0
   -1.6988   -0.2921    0.0000 N   0  0  0  0  0  0  0  0  0  0  0  0
   -1.0314    0.1928    0.0000 N   0  0  0  0  0  0  0  0  0  0  0  0
    1.8561   -1.0767    0.0000 N   0  0  3  0  0  0  0  0  0  0  0  0
    3.5060   -1.1025    0.0000 N   0  0  0  0  0  0  0  0  0  0  0  0
   -0.2064   -1.7912    0.0000 C   0  0  0  0  0  0  0  0  0  0  0  0
    0.6186   -1.7912    0.0000 C   0  0  0  0  0  0  0  0  0  0  0  0
   -0.6189   -1.0767    0.0000 C   0  0  0  0  0  0  0  0  0  0  0  0
    0.8736   -2.5758    0.0000 C   0  0  0  0  0  0  0  0  0  0  0  0
    0.9598   -2.7252    0.0000 C   0  0  3  0  0  0  0  0  0  0  0  0
   -1.4439   -1.0767    0.0000 C   0  0  0  0  0  0  0  0  0  0  0  0
    1.0311   -1.0767    0.0000 C   0  0  0  0  0  0  0  0  0  0  0  0
   -0.3639   -0.2921    0.0000 C   0  0  0  0  0  0  0  0  0  0  0  0
    1.0460   -1.9047    0.0000 C   0  0  0  0  0  0  0  0  0  0  0  0
   -2.4957   -0.0786    0.0000 C   0  0  0  0  0  0  0  0  0  0  0  0
    2.3809   -2.8745    0.0000 C   0  0  0  0  0  0  0  0  0  0  0  0
    1.7997   -1.5691    0.0000 C   0  0  0  0  0  0  0  0  0  0  0  0
    2.2686   -0.3623    0.0000 C   0  0  0  0  0  0  0  0  0  0  0  0
    2.4671   -2.0541    0.0000 C   0  0  0  0  0  0  0  0  0  0  0  0
   -2.7092    0.7183    0.0000 C   0  0  0  0  0  0  0  0  0  0  0  0
    2.2686   -1.7912    0.0000 C   0  0  0  0  0  0  0  0  0  0  0  0
    3.0936   -0.3623    0.0000 C   0  0  0  0  0  0  0  0  0  0  0  0
    3.0935   -0.3880    0.0000 C   0  0  0  0  0  0  0  0  0  0  0  0
    3.0935    1.0409    0.0000 C   0  0  0  0  0  0  0  0  0  0  0  0
   -3.5061    0.9318    0.0000 C   0  0  0  0  0  0  0  0  0  0  0  0
   -2.1259    1.3017    0.0000 C   0  0  0  0  0  0  0  0  0  0  0  0
    3.5060    1.7554    0.0000 C   0  0  0  0  0  0  0  0  0  0  0  0
    2.6810    1.7554    0.0000 C   0  0  0  0  0  0  0  0  0  0  0  0
    2.2685    1.0409    0.0000 C   0  0  0  0  0  0  0  0  0  0  0  0
  1 14  1  0  0  0  0
  1 20  1  0  0  0  0
  2 27  1  0  0  0  0
  2 28  1  0  0  0  0
  3 27  2  0  0  0  0
  4  5  1  0  0  0  0
  4 13  1  0  0  0  0
  4 14  1  0  0  0  0
  5 10  2  0  0  0  0
  6  7  1  0  0  0  0
  6 15  1  0  0  0  0
  6 19  1  0  0  0  0
  7 17  2  0  0  0  0
  8 16  1  0  0  0  0
  8 22  1  0  0  0  0
  8 25  1  0  0  0  0
  9 26  1  0  0  0  0
  9 27  1  0  0  0  0
 10 11  1  0  0  0  0
 10 12  1  0  0  0  0
 11 13  2  0  0  0  0
 11 16  1  0  0  0  0
 12 15  2  0  0  0  0
 12 17  1  0  0  0  0
 14 18  1  0  0  0  0
 18 21  1  0  0  0  0
 19 24  1  0  0  0  0
 20 23  1  0  0  0  0
 21 23  1  0  0  0  0
 22 26  1  0  0  0  0
 24 29  1  0  0  0  0
 24 30  1  0  0  0  0
 28 31  1  0  0  0  0
 28 32  1  0  0  0  0
 28 33  1  0  0  0  0
M  END
> <PUBCHEM_COMPOUND_ID_TYPE>
0

> <PUBCHEM_TOTAL_CHARGE>
0

> <PUBCHEM_SUBSTANCE_ID>
310946783

> <PUBCHEM_SUBSTANCE_VERSION>
1

> <PUBCHEM_EXT_DATASOURCE_NAME>
4488

> <PUBCHEM_EXT_DATASOURCE_REGID>
SCHEMBL16124907

> <PUBCHEM_SUBSTANCE_COMMENT>
InChI=1S/C24H40N6O3/c1-18(2)14-29-16-19(13-26-29)22-20(17-30(27-22)21-9-7-8-12-32-21)15-28(6)11-10-25-23(31)33-24(3,4)5/h13,16-18,21H,7-12,14-15H2,1-6H3,(H,25,31)
InChIKey=DJUFXAFZGIAUDM-UHFFFAOYSA-N

> <PUBCHEM_SUBSTANCE_SYNONYM>
SCHEMBL16124907

> <PUBCHEM_XREF_EXT_ID>
SCHEMBL16124907

> <PUBCHEM_EXT_DATASOURCE_URL>
https://www.surechembl.org/

> <PUBCHEM_EXT_SUBSTANCE_URL>
https://www.surechembl.org/chemical/SCHEMBL16124907

> <PUBCHEM_CID_ASSOCIATIONS>
117612644  1

> <PUBCHEM_COORDINATE_TYPE>
1
3

$$$$
