310943557
  -OEChem-07211613022D

 32 35  0     1  0  0  0  0  0999 V2000
    2.6424    2.1706    0.0000 O   0  0  0  0  0  0  0  0  0  0  0  0
    5.6770    1.2704    0.0000 O   0  0  0  0  0  0  0  0  0  0  0  0
    3.3684    0.7332    0.0000 N   0  0  0  0  0  0  0  0  0  0  0  0
   -3.0635   -1.3866    0.0000 N   0  0  3  0  0  0  0  0  0  0  0  0
    1.2341   -2.1706    0.0000 N   0  0  0  0  0  0  0  0  0  0  0  0
   -4.8349   -0.8493    0.0000 N   0  0  3  0  0  0  0  0  0  0  0  0
   -0.2323   -0.5299    0.0000 C   0  0  0  0  0  0  0  0  0  0  0  0
    0.4937   -0.1089    0.0000 C   0  0  0  0  0  0  0  0  0  0  0  0
   -0.2323   -1.3576    0.0000 C   0  0  0  0  0  0  0  0  0  0  0  0
    1.9310    0.7332    0.0000 C   0  0  0  0  0  0  0  0  0  0  0  0
    2.6280    1.1543    0.0000 C   0  0  0  0  0  0  0  0  0  0  0  0
   -1.6406   -1.3576    0.0000 C   0  0  0  0  0  0  0  0  0  0  0  0
   -0.9292   -0.1379    0.0000 C   0  0  0  0  0  0  0  0  0  0  0  0
    1.2196   -0.5009    0.0000 C   0  0  0  0  0  0  0  0  0  0  0  0
    0.5227    0.7332    0.0000 C   0  0  0  0  0  0  0  0  0  0  0  0
   -0.9292   -1.7786    0.0000 C   0  0  0  0  0  0  0  0  0  0  0  0
    1.9310   -0.0944    0.0000 C   0  0  0  0  0  0  0  0  0  0  0  0
    1.2051    1.1252    0.0000 C   0  0  0  0  0  0  0  0  0  0  0  0
   -1.6406   -0.5445    0.0000 C   0  0  0  0  0  0  0  0  0  0  0  0
   -2.3521   -1.7931    0.0000 C   0  0  0  0  0  0  0  0  0  0  0  0
    0.5081   -1.7786    0.0000 C   0  0  0  0  0  0  0  0  0  0  0  0
    4.0654    1.1543    0.0000 C   0  0  0  0  0  0  0  0  0  0  0  0
    3.3830   -0.0944    0.0000 C   0  0  0  0  0  0  0  0  0  0  0  0
    4.8058    0.7332    0.0000 C   0  0  3  0  0  0  0  0  0  0  0  0
    4.1234   -0.4864    0.0000 C   0  0  0  0  0  0  0  0  0  0  0  0
    4.7913   -0.0653    0.0000 C   0  0  0  0  0  0  0  0  0  0  0  0
   -3.7459   -1.8512    0.0000 C   0  0  0  0  0  0  0  0  0  0  0  0
   -3.0200   -0.5445    0.0000 C   0  0  0  0  0  0  0  0  0  0  0  0
   -4.5299   -1.6044    0.0000 C   0  0  0  0  0  0  0  0  0  0  0  0
   -3.6007   -0.0072    0.0000 C   0  0  0  0  0  0  0  0  0  0  0  0
   -4.4283   -0.1234    0.0000 C   0  0  0  0  0  0  0  0  0  0  0  0
   -5.6770   -0.8639    0.0000 C   0  0  0  0  0  0  0  0  0  0  0  0
  1 11  2  0  0  0  0
  2 24  1  0  0  0  0
  3 11  1  0  0  0  0
  3 22  1  0  0  0  0
  3 23  1  0  0  0  0
  4 20  1  0  0  0  0
  4 27  1  0  0  0  0
  4 28  1  0  0  0  0
  5 21  3  0  0  0  0
  6 29  1  0  0  0  0
  6 31  1  0  0  0  0
  6 32  1  0  0  0  0
  7  8  1  0  0  0  0
  7  9  1  0  0  0  0
  7 13  2  0  0  0  0
  8 14  2  0  0  0  0
  8 15  1  0  0  0  0
  9 16  2  0  0  0  0
  9 21  1  0  0  0  0
 10 11  1  0  0  0  0
 10 17  2  0  0  0  0
 10 18  1  0  0  0  0
 12 16  1  0  0  0  0
 12 19  2  0  0  0  0
 12 20  1  0  0  0  0
 13 19  1  0  0  0  0
 14 17  1  0  0  0  0
 15 18  2  0  0  0  0
 22 24  1  0  0  0  0
 23 25  1  0  0  0  0
 24 26  1  0  0  0  0
 25 26  1  0  0  0  0
 27 29  1  0  0  0  0
 28 30  1  0  0  0  0
 30 31  1  0  0  0  0
M  END
> <PUBCHEM_COMPOUND_ID_TYPE>
0

> <PUBCHEM_TOTAL_CHARGE>
0

> <PUBCHEM_SUBSTANCE_ID>
310943557

> <PUBCHEM_SUBSTANCE_VERSION>
1

> <PUBCHEM_EXT_DATASOURCE_NAME>
4488

> <PUBCHEM_EXT_DATASOURCE_REGID>
SCHEMBL16121624

> <PUBCHEM_SUBSTANCE_COMMENT>
InChI=1S/C26H32N4O2/c1-28-11-3-12-29(15-14-28)18-20-5-10-25(23(16-20)17-27)21-6-8-22(9-7-21)26(32)30-13-2-4-24(31)19-30/h5-10,16,24,31H,2-4,11-15,18-19H2,1H3
InChIKey=WJWSBWGVXJSEMG-UHFFFAOYSA-N

> <PUBCHEM_SUBSTANCE_SYNONYM>
SCHEMBL16121624

> <PUBCHEM_XREF_EXT_ID>
SCHEMBL16121624

> <PUBCHEM_EXT_DATASOURCE_URL>
https://www.surechembl.org/

> <PUBCHEM_EXT_SUBSTANCE_URL>
https://www.surechembl.org/chemical/SCHEMBL16121624

> <PUBCHEM_CID_ASSOCIATIONS>
117609968  1

> <PUBCHEM_COORDINATE_TYPE>
1
3

> <PUBCHEM_BONDANNOTATIONS>
24  2  3

$$$$
