310940366
  -OEChem-07211613022D

 36 40  0     1  0  0  0  0  0999 V2000
   -0.0852   -0.4349    0.0000 O   0  0  0  0  0  0  0  0  0  0  0  0
    2.2001   -2.8737    0.0000 O   0  0  0  0  0  0  0  0  0  0  0  0
    1.2621    1.0829    0.0000 O   0  0  0  0  0  0  0  0  0  0  0  0
    1.2279   -1.5264    0.0000 N   0  0  0  0  0  0  0  0  0  0  0  0
   -0.3752    1.2535    0.0000 N   0  0  0  0  0  0  0  0  0  0  0  0
    0.0171   -2.0721    0.0000 N   0  0  0  0  0  0  0  0  0  0  0  0
   -1.4667    0.4690    0.0000 N   0  0  0  0  0  0  0  0  0  0  0  0
    0.8186   -2.2598    0.0000 N   0  0  0  0  0  0  0  0  0  0  0  0
   -1.2109    1.2535    0.0000 N   0  0  0  0  0  0  0  0  0  0  0  0
   -0.7845   -0.8271    0.0000 C   0  0  3  0  0  0  0  0  0  0  0  0
   -0.0683   -1.2535    0.0000 C   0  0  0  0  0  0  0  0  0  0  0  0
   -0.7845   -0.0085    0.0000 C   0  0  0  0  0  0  0  0  0  0  0  0
   -1.5179   -1.2535    0.0000 C   0  0  0  0  0  0  0  0  0  0  0  0
    0.6993   -0.9295    0.0000 C   0  0  0  0  0  0  0  0  0  0  0  0
   -0.1364    0.4861    0.0000 C   0  0  0  0  0  0  0  0  0  0  0  0
    2.0295   -1.4411    0.0000 C   0  0  0  0  0  0  0  0  0  0  0  0
    0.1023    1.9357    0.0000 C   0  0  0  0  0  0  0  0  0  0  0  0
   -2.2341   -0.8613    0.0000 C   0  0  0  0  0  0  0  0  0  0  0  0
   -1.5179   -2.0892    0.0000 C   0  0  0  0  0  0  0  0  0  0  0  0
   -2.9334   -1.2535    0.0000 C   0  0  0  0  0  0  0  0  0  0  0  0
   -2.2171   -2.4815    0.0000 C   0  0  0  0  0  0  0  0  0  0  0  0
    2.5411   -2.1063    0.0000 C   0  0  0  0  0  0  0  0  0  0  0  0
    2.3876   -0.6907    0.0000 C   0  0  0  0  0  0  0  0  0  0  0  0
    0.9209    1.8334    0.0000 C   0  0  0  0  0  0  0  0  0  0  0  0
   -0.2387    2.6861    0.0000 C   0  0  0  0  0  0  0  0  0  0  0  0
   -2.9163   -2.0892    0.0000 C   0  0  0  0  0  0  0  0  0  0  0  0
    3.3598   -2.0209    0.0000 C   0  0  0  0  0  0  0  0  0  0  0  0
    3.2063   -0.6054    0.0000 C   0  0  0  0  0  0  0  0  0  0  0  0
    1.3985    2.4985    0.0000 C   0  0  0  0  0  0  0  0  0  0  0  0
    0.2729    3.3512    0.0000 C   0  0  0  0  0  0  0  0  0  0  0  0
    3.6838   -1.3047    0.0000 C   0  0  0  0  0  0  0  0  0  0  0  0
    1.0744    3.2489    0.0000 C   0  0  0  0  0  0  0  0  0  0  0  0
   -3.6838   -0.8442    0.0000 C   0  0  0  0  0  0  0  0  0  0  0  0
   -2.2171   -3.3512    0.0000 C   0  0  0  0  0  0  0  0  0  0  0  0
    1.8931    0.0085    0.0000 C   0  0  0  0  0  0  0  0  0  0  0  0
   -1.0744    2.7373    0.0000 C   0  0  0  0  0  0  0  0  0  0  0  0
  1 10  1  0  0  0  0
  2 22  1  0  0  0  0
  3 24  1  0  0  0  0
  4  8  1  0  0  0  0
  4 14  1  0  0  0  0
  4 16  1  0  0  0  0
  5  9  1  0  0  0  0
  5 15  1  0  0  0  0
  5 17  1  0  0  0  0
  6  8  2  0  0  0  0
  6 11  1  0  0  0  0
  7  9  1  0  0  0  0
  7 12  1  0  0  0  0
 10 11  1  0  0  0  0
 10 12  1  0  0  0  0
 10 13  1  0  0  0  0
 11 14  2  0  0  0  0
 12 15  2  0  0  0  0
 13 18  2  0  0  0  0
 13 19  1  0  0  0  0
 16 22  2  0  0  0  0
 16 23  1  0  0  0  0
 17 24  2  0  0  0  0
 17 25  1  0  0  0  0
 18 20  1  0  0  0  0
 19 21  2  0  0  0  0
 20 26  2  0  0  0  0
 20 33  1  0  0  0  0
 21 26  1  0  0  0  0
 21 34  1  0  0  0  0
 22 27  1  0  0  0  0
 23 28  2  0  0  0  0
 23 35  1  0  0  0  0
 24 29  1  0  0  0  0
 25 30  2  0  0  0  0
 25 36  1  0  0  0  0
 27 31  2  0  0  0  0
 28 31  1  0  0  0  0
 29 32  2  0  0  0  0
 30 32  1  0  0  0  0
M  END
> <PUBCHEM_COMPOUND_ID_TYPE>
0

> <PUBCHEM_TOTAL_CHARGE>
0

> <PUBCHEM_SUBSTANCE_ID>
310940366

> <PUBCHEM_SUBSTANCE_VERSION>
1

> <PUBCHEM_EXT_DATASOURCE_NAME>
4488

> <PUBCHEM_EXT_DATASOURCE_REGID>
SCHEMBL16118310

> <PUBCHEM_SUBSTANCE_COMMENT>
InChI=1S/C27H28N6O3/c1-16-11-17(2)13-20(12-16)27(36,23-14-32(30-28-23)25-18(3)7-5-9-21(25)34)24-15-33(31-29-24)26-19(4)8-6-10-22(26)35/h5-15,28,30,34-36H,1-4H3
InChIKey=ZXLRLFWNPCCQOG-UHFFFAOYSA-N

> <PUBCHEM_SUBSTANCE_SYNONYM>
SCHEMBL16118310

> <PUBCHEM_XREF_EXT_ID>
SCHEMBL16118310

> <PUBCHEM_EXT_DATASOURCE_URL>
https://www.surechembl.org/

> <PUBCHEM_EXT_SUBSTANCE_URL>
https://www.surechembl.org/chemical/SCHEMBL16118310

> <PUBCHEM_CID_ASSOCIATIONS>
117607406  1

> <PUBCHEM_COORDINATE_TYPE>
1
3

$$$$
