310947337
  -OEChem-07211613022D

 34 37  0     1  0  0  0  0  0999 V2000
    0.8881   -1.7348    0.0000 O   0  0  0  0  0  0  0  0  0  0  0  0
    4.2320   -0.4118    0.0000 O   0  0  0  0  0  0  0  0  0  0  0  0
   -1.6701    1.9629    0.0000 O   0  0  0  0  0  0  0  0  0  0  0  0
    4.6591   -2.0055    0.0000 O   0  0  0  0  0  0  0  0  0  0  0  0
    1.2580   -0.3546    0.0000 N   0  0  0  0  0  0  0  0  0  0  0  0
    1.7429    0.3129    0.0000 N   0  0  0  0  0  0  0  0  0  0  0  0
   -2.3845    0.7254    0.0000 N   0  0  0  0  0  0  0  0  0  0  0  0
    0.4734   -0.0996    0.0000 C   0  0  0  0  0  0  0  0  0  0  0  0
    0.4734    0.7254    0.0000 C   0  0  0  0  0  0  0  0  0  0  0  0
    1.2580    0.9803    0.0000 C   0  0  0  0  0  0  0  0  0  0  0  0
    1.4715   -1.1514    0.0000 C   0  0  0  0  0  0  0  0  0  0  0  0
   -0.2411    1.1379    0.0000 C   0  0  0  0  0  0  0  0  0  0  0  0
   -0.9556    0.7254    0.0000 C   0  0  0  0  0  0  0  0  0  0  0  0
   -0.2411   -0.5121    0.0000 C   0  0  0  0  0  0  0  0  0  0  0  0
    2.2684   -1.3650    0.0000 C   0  0  0  0  0  0  0  0  0  0  0  0
   -0.9556   -0.0996    0.0000 C   0  0  0  0  0  0  0  0  0  0  0  0
   -1.6701    1.1379    0.0000 C   0  0  0  0  0  0  0  0  0  0  0  0
    2.8517   -0.7816    0.0000 C   0  0  0  0  0  0  0  0  0  0  0  0
    3.6486   -0.9951    0.0000 C   0  0  0  0  0  0  0  0  0  0  0  0
    2.4819   -2.1619    0.0000 C   0  0  0  0  0  0  0  0  0  0  0  0
    1.6705    1.6948    0.0000 C   0  0  0  0  0  0  0  0  0  0  0  0
    3.8622   -1.7920    0.0000 C   0  0  0  0  0  0  0  0  0  0  0  0
    3.2788   -2.3754    0.0000 C   0  0  0  0  0  0  0  0  0  0  0  0
   -3.0990    1.1379    0.0000 C   0  0  3  0  0  0  0  0  0  0  0  0
   -3.8135    0.7254    0.0000 C   0  0  0  0  0  0  0  0  0  0  0  0
   -3.0990    1.9629    0.0000 C   0  0  0  0  0  0  0  0  0  0  0  0
   -4.5279    1.1379    0.0000 C   0  0  0  0  0  0  0  0  0  0  0  0
   -3.8135   -0.0996    0.0000 C   0  0  0  0  0  0  0  0  0  0  0  0
    4.0185    0.3851    0.0000 C   0  0  0  0  0  0  0  0  0  0  0  0
    5.2424   -1.4222    0.0000 C   0  0  0  0  0  0  0  0  0  0  0  0
   -5.2424    0.7254    0.0000 C   0  0  0  0  0  0  0  0  0  0  0  0
   -4.5279   -0.5121    0.0000 C   0  0  0  0  0  0  0  0  0  0  0  0
   -5.2424   -0.0996    0.0000 C   0  0  0  0  0  0  0  0  0  0  0  0
   -3.8135    2.3754    0.0000 C   0  0  0  0  0  0  0  0  0  0  0  0
  1 11  2  0  0  0  0
  2 19  1  0  0  0  0
  2 29  1  0  0  0  0
  3 17  2  0  0  0  0
  4 22  1  0  0  0  0
  4 30  1  0  0  0  0
  5  6  1  0  0  0  0
  5  8  1  0  0  0  0
  5 11  1  0  0  0  0
  6 10  2  0  0  0  0
  7 17  1  0  0  0  0
  7 24  1  0  0  0  0
  8  9  1  0  0  0  0
  8 14  2  0  0  0  0
  9 10  1  0  0  0  0
  9 12  2  0  0  0  0
 10 21  1  0  0  0  0
 11 15  1  0  0  0  0
 12 13  1  0  0  0  0
 13 16  2  0  0  0  0
 13 17  1  0  0  0  0
 14 16  1  0  0  0  0
 15 18  1  0  0  0  0
 15 20  2  0  0  0  0
 18 19  2  0  0  0  0
 19 22  1  0  0  0  0
 20 23  1  0  0  0  0
 22 23  2  0  0  0  0
 24 25  1  0  0  0  0
 24 26  1  0  0  0  0
 25 27  2  0  0  0  0
 25 28  1  0  0  0  0
 26 34  1  0  0  0  0
 27 31  1  0  0  0  0
 28 32  2  0  0  0  0
 31 33  2  0  0  0  0
 32 33  1  0  0  0  0
M  END
> <PUBCHEM_COMPOUND_ID_TYPE>
0

> <PUBCHEM_TOTAL_CHARGE>
0

> <PUBCHEM_SUBSTANCE_ID>
310947337

> <PUBCHEM_SUBSTANCE_VERSION>
1

> <PUBCHEM_EXT_DATASOURCE_NAME>
4488

> <PUBCHEM_EXT_DATASOURCE_REGID>
SCHEMBL16125492

> <PUBCHEM_SUBSTANCE_COMMENT>
InChI=1S/C27H27N3O4/c1-5-22(18-9-7-6-8-10-18)28-26(31)19-11-13-23-21(15-19)17(2)29-30(23)27(32)20-12-14-24(33-3)25(16-20)34-4/h6-16,22H,5H2,1-4H3,(H,28,31)
InChIKey=QCYYWVUQUSFORC-UHFFFAOYSA-N

> <PUBCHEM_SUBSTANCE_SYNONYM>
SCHEMBL16125492

> <PUBCHEM_XREF_EXT_ID>
SCHEMBL16125492

> <PUBCHEM_EXT_DATASOURCE_URL>
https://www.surechembl.org/

> <PUBCHEM_EXT_SUBSTANCE_URL>
https://www.surechembl.org/chemical/SCHEMBL16125492

> <PUBCHEM_CID_ASSOCIATIONS>
71577580  1

> <PUBCHEM_COORDINATE_TYPE>
1
3

$$$$
