310944078
  -OEChem-07211613022D

 17 17  0     1  0  0  0  0  0999 V2000
   -2.7632    0.8407    0.0000 I   0  0  0  0  0  0  0  0  0  0  0  0
   -2.9362   -0.8159    0.0000 Cl  0  0  0  0  0  0  0  0  0  0  0  0
    0.0803   -0.8159    0.0000 O   0  0  0  0  0  0  0  0  0  0  0  0
    2.2192    0.4080    0.0000 O   0  0  0  0  0  0  0  0  0  0  0  0
    1.5022    1.6320    0.0000 O   0  0  0  0  0  0  0  0  0  0  0  0
    0.0927    0.8407    0.0000 N   0  0  0  0  0  0  0  0  0  0  0  0
   -0.6243    0.4327    0.0000 C   0  0  0  0  0  0  0  0  0  0  0  0
   -0.6367   -0.3833    0.0000 C   0  0  0  0  0  0  0  0  0  0  0  0
   -2.0585    0.4327    0.0000 C   0  0  0  0  0  0  0  0  0  0  0  0
   -2.0585   -0.3956    0.0000 C   0  0  0  0  0  0  0  0  0  0  0  0
   -1.3414    0.8284    0.0000 C   0  0  0  0  0  0  0  0  0  0  0  0
   -1.3290   -0.8036    0.0000 C   0  0  0  0  0  0  0  0  0  0  0  0
    0.7974    0.4327    0.0000 C   0  0  3  0  0  0  0  0  0  0  0  0
    1.5145    0.8407    0.0000 C   0  0  0  0  0  0  0  0  0  0  0  0
    0.8098   -0.3956    0.0000 C   0  0  0  0  0  0  0  0  0  0  0  0
    0.1051   -1.6320    0.0000 C   0  0  0  0  0  0  0  0  0  0  0  0
    2.9362    0.8284    0.0000 C   0  0  0  0  0  0  0  0  0  0  0  0
  1  9  1  0  0  0  0
  2 10  1  0  0  0  0
  3  8  1  0  0  0  0
  3 16  1  0  0  0  0
  4 14  1  0  0  0  0
  4 17  1  0  0  0  0
  5 14  2  0  0  0  0
  6  7  1  0  0  0  0
  6 13  1  0  0  0  0
  7  8  1  0  0  0  0
  7 11  2  0  0  0  0
  8 12  2  0  0  0  0
  9 10  2  0  0  0  0
  9 11  1  0  0  0  0
 10 12  1  0  0  0  0
 13 14  1  0  0  0  0
 13 15  1  0  0  0  0
M  END
> <PUBCHEM_COMPOUND_ID_TYPE>
0

> <PUBCHEM_TOTAL_CHARGE>
0

> <PUBCHEM_SUBSTANCE_ID>
310944078

> <PUBCHEM_SUBSTANCE_VERSION>
1

> <PUBCHEM_EXT_DATASOURCE_NAME>
4488

> <PUBCHEM_EXT_DATASOURCE_REGID>
SCHEMBL16122153

> <PUBCHEM_SUBSTANCE_COMMENT>
InChI=1S/C11H13ClINO3/c1-6(11(15)17-3)14-9-5-8(13)7(12)4-10(9)16-2/h4-6,14H,1-3H3
InChIKey=GNZAYUMEHQFMHW-UHFFFAOYSA-N

> <PUBCHEM_SUBSTANCE_SYNONYM>
SCHEMBL16122153

> <PUBCHEM_XREF_EXT_ID>
SCHEMBL16122153

> <PUBCHEM_EXT_DATASOURCE_URL>
https://www.surechembl.org/

> <PUBCHEM_EXT_SUBSTANCE_URL>
https://www.surechembl.org/chemical/SCHEMBL16122153

> <PUBCHEM_CID_ASSOCIATIONS>
117610370  1

> <PUBCHEM_COORDINATE_TYPE>
1
3

$$$$
