310946488
  -OEChem-07211613022D

 20 20  0     1  0  0  0  0  0999 V2000
   -6.0746   14.1087    0.0000 O   0  0  0  0  0  0  0  0  0  0  0  0
   -7.3724   10.6378    0.0000 O   0  0  0  0  0  0  0  0  0  0  0  0
   -8.0869   11.8753    0.0000 O   0  0  0  0  0  0  0  0  0  0  0  0
   -7.3724   13.9378    0.0000 O   0  0  0  0  0  0  0  0  0  0  0  0
   -6.6579   12.7003    0.0000 N   0  0  0  0  0  0  0  0  0  0  0  0
   -6.6579   11.8753    0.0000 C   0  0  3  0  0  0  0  0  0  0  0  0
   -5.9435   11.4628    0.0000 C   0  0  0  0  0  0  0  0  0  0  0  0
   -5.1185   11.4628    0.0000 C   0  0  0  0  0  0  0  0  0  0  0  0
   -7.3724   11.4628    0.0000 C   0  0  0  0  0  0  0  0  0  0  0  0
   -6.6579   13.5253    0.0000 C   0  0  0  0  0  0  0  0  0  0  0  0
   -4.7060   10.7483    0.0000 C   0  0  0  0  0  0  0  0  0  0  0  0
   -4.7060   12.1773    0.0000 C   0  0  0  0  0  0  0  0  0  0  0  0
   -3.8810   10.7483    0.0000 C   0  0  0  0  0  0  0  0  0  0  0  0
   -3.8810   12.1773    0.0000 C   0  0  0  0  0  0  0  0  0  0  0  0
   -3.4685   11.4628    0.0000 C   0  0  0  0  0  0  0  0  0  0  0  0
   -5.8611   14.9055    0.0000 C   0  0  0  0  0  0  0  0  0  0  0  0
   -5.0361   14.9055    0.0000 C   0  0  0  0  0  0  0  0  0  0  0  0
   -4.6236   15.6200    0.0000 C   0  0  0  0  0  0  0  0  0  0  0  0
   -3.7986   15.6200    0.0000 C   0  0  0  0  0  0  0  0  0  0  0  0
   -3.3861   16.3345    0.0000 C   0  0  0  0  0  0  0  0  0  0  0  0
  1 10  1  0  0  0  0
  1 16  1  0  0  0  0
  2  9  2  0  0  0  0
  3  9  1  0  0  0  0
  4 10  2  0  0  0  0
  5  6  1  0  0  0  0
  5 10  1  0  0  0  0
  6  7  1  0  0  0  0
  6  9  1  0  0  0  0
  7  8  1  0  0  0  0
  8 11  2  0  0  0  0
  8 12  1  0  0  0  0
 11 13  1  0  0  0  0
 12 14  2  0  0  0  0
 13 15  2  0  0  0  0
 14 15  1  0  0  0  0
 16 17  1  0  0  0  0
 17 18  1  0  0  0  0
 18 19  1  0  0  0  0
 19 20  1  0  0  0  0
M  END
> <PUBCHEM_COMPOUND_ID_TYPE>
0

> <PUBCHEM_TOTAL_CHARGE>
0

> <PUBCHEM_SUBSTANCE_ID>
310946488

> <PUBCHEM_SUBSTANCE_VERSION>
1

> <PUBCHEM_EXT_DATASOURCE_NAME>
4488

> <PUBCHEM_EXT_DATASOURCE_REGID>
SCHEMBL16124609

> <PUBCHEM_SUBSTANCE_COMMENT>
InChI=1S/C15H21NO4/c1-2-3-7-10-20-15(19)16-13(14(17)18)11-12-8-5-4-6-9-12/h4-6,8-9,13H,2-3,7,10-11H2,1H3,(H,16,19)(H,17,18)
InChIKey=ICZDTQXUIYRWCK-UHFFFAOYSA-N

> <PUBCHEM_SUBSTANCE_SYNONYM>
SCHEMBL16124609

> <PUBCHEM_XREF_EXT_ID>
SCHEMBL16124609

> <PUBCHEM_EXT_DATASOURCE_URL>
https://www.surechembl.org/

> <PUBCHEM_EXT_SUBSTANCE_URL>
https://www.surechembl.org/chemical/SCHEMBL16124609

> <PUBCHEM_CID_ASSOCIATIONS>
117612394  1

> <PUBCHEM_COORDINATE_TYPE>
1
3

$$$$
