310946856
  -OEChem-07211613022D

 35 39  0     1  0  0  0  0  0999 V2000
   -4.9216    1.9837    0.0000 S   0  0  0  0  0  0  0  0  0  0  0  0
    5.6361   -1.3163    0.0000 O   0  0  0  0  0  0  0  0  0  0  0  0
    5.5636   -2.6982    0.0000 O   0  0  0  0  0  0  0  0  0  0  0  0
    2.2231    0.3337    0.0000 O   0  0  0  0  0  0  0  0  0  0  0  0
    0.0797    1.5712    0.0000 O   0  0  0  0  0  0  0  0  0  0  0  0
   -5.3341    2.6982    0.0000 O   0  0  0  0  0  0  0  0  0  0  0  0
   -4.5091    2.6982    0.0000 O   0  0  0  0  0  0  0  0  0  0  0  0
   -0.6348    0.3337    0.0000 N   0  0  0  0  0  0  0  0  0  0  0  0
   -3.4927    1.9837    0.0000 N   0  0  0  0  0  0  0  0  0  0  0  0
    0.7942   -0.4913    0.0000 N   0  0  3  0  0  0  0  0  0  0  0  0
    4.3665   -1.7288    0.0000 C   0  0  0  0  0  0  0  0  0  0  0  0
    4.3665   -0.9038    0.0000 C   0  0  0  0  0  0  0  0  0  0  0  0
    2.9376   -0.9038    0.0000 C   0  0  0  0  0  0  0  0  0  0  0  0
   -1.3492    0.7462    0.0000 C   0  0  0  0  0  0  0  0  0  0  0  0
   -2.7782    0.7462    0.0000 C   0  0  0  0  0  0  0  0  0  0  0  0
   -2.7782    1.5712    0.0000 C   0  0  0  0  0  0  0  0  0  0  0  0
    2.9376   -1.7288    0.0000 C   0  0  0  0  0  0  0  0  0  0  0  0
    3.6521   -0.4913    0.0000 C   0  0  0  0  0  0  0  0  0  0  0  0
    5.1511   -1.9837    0.0000 C   0  0  0  0  0  0  0  0  0  0  0  0
   -4.2071    1.5712    0.0000 C   0  0  0  0  0  0  0  0  0  0  0  0
   -2.0637    0.3337    0.0000 C   0  0  0  0  0  0  0  0  0  0  0  0
    3.6521   -2.1413    0.0000 C   0  0  0  0  0  0  0  0  0  0  0  0
    2.2231   -0.4913    0.0000 C   0  0  3  0  0  0  0  0  0  0  0  0
    0.0797    0.7462    0.0000 C   0  0  0  0  0  0  0  0  0  0  0  0
   -1.3492    1.5712    0.0000 C   0  0  0  0  0  0  0  0  0  0  0  0
    5.1511   -0.6488    0.0000 C   0  0  0  0  0  0  0  0  0  0  0  0
   -2.0637    1.9837    0.0000 C   0  0  0  0  0  0  0  0  0  0  0  0
   -3.4927    0.3337    0.0000 C   0  0  0  0  0  0  0  0  0  0  0  0
    1.5086   -0.9038    0.0000 C   0  0  0  0  0  0  0  0  0  0  0  0
   -0.6348   -0.4913    0.0000 C   0  0  0  0  0  0  0  0  0  0  0  0
    0.7942    0.3337    0.0000 C   0  0  0  0  0  0  0  0  0  0  0  0
   -4.2071    0.7462    0.0000 C   0  0  0  0  0  0  0  0  0  0  0  0
    0.0797   -0.9038    0.0000 C   0  0  0  0  0  0  0  0  0  0  0  0
    2.2231   -2.1413    0.0000 C   0  0  0  0  0  0  0  0  0  0  0  0
   -5.6361    1.5712    0.0000 C   0  0  0  0  0  0  0  0  0  0  0  0
  1  6  2  0  0  0  0
  1  7  2  0  0  0  0
  1 20  1  0  0  0  0
  1 35  1  0  0  0  0
  2 19  1  0  0  0  0
  2 26  1  0  0  0  0
  3 19  2  0  0  0  0
  4 23  1  0  0  0  0
  5 24  2  0  0  0  0
  8 14  1  0  0  0  0
  8 24  1  0  0  0  0
  8 30  1  0  0  0  0
  9 16  1  0  0  0  0
  9 20  2  0  0  0  0
 10 29  1  0  0  0  0
 10 31  1  0  0  0  0
 10 33  1  0  0  0  0
 11 12  1  0  0  0  0
 11 19  1  0  0  0  0
 11 22  2  0  0  0  0
 12 18  2  0  0  0  0
 12 26  1  0  0  0  0
 13 17  2  0  0  0  0
 13 18  1  0  0  0  0
 13 23  1  0  0  0  0
 14 21  1  0  0  0  0
 14 25  2  0  0  0  0
 15 16  1  0  0  0  0
 15 21  2  0  0  0  0
 15 28  1  0  0  0  0
 16 27  2  0  0  0  0
 17 22  1  0  0  0  0
 17 34  1  0  0  0  0
 20 32  1  0  0  0  0
 23 29  1  0  0  0  0
 24 31  1  0  0  0  0
 25 27  1  0  0  0  0
 28 32  2  0  0  0  0
 30 33  1  0  0  0  0
M  END
> <PUBCHEM_COMPOUND_ID_TYPE>
0

> <PUBCHEM_TOTAL_CHARGE>
0

> <PUBCHEM_SUBSTANCE_ID>
310946856

> <PUBCHEM_SUBSTANCE_VERSION>
1

> <PUBCHEM_EXT_DATASOURCE_NAME>
4488

> <PUBCHEM_EXT_DATASOURCE_REGID>
SCHEMBL16124980

> <PUBCHEM_SUBSTANCE_COMMENT>
InChI=1S/C25H25N3O6S/c1-15-9-20-17(14-34-25(20)31)11-19(15)22(29)12-27-7-8-28(24(30)13-27)18-4-5-21-16(10-18)3-6-23(26-21)35(2,32)33/h3-6,9-11,22,29H,7-8,12-14H2,1-2H3
InChIKey=QHGIQSOGFMXITC-UHFFFAOYSA-N

> <PUBCHEM_SUBSTANCE_SYNONYM>
SCHEMBL16124980

> <PUBCHEM_XREF_EXT_ID>
SCHEMBL16124980

> <PUBCHEM_EXT_DATASOURCE_URL>
https://www.surechembl.org/

> <PUBCHEM_EXT_SUBSTANCE_URL>
https://www.surechembl.org/chemical/SCHEMBL16124980

> <PUBCHEM_CID_ASSOCIATIONS>
117612714  1

> <PUBCHEM_COORDINATE_TYPE>
1
3

$$$$
