310945870
  -OEChem-07211613022D

 36 39  0     1  0  0  0  0  0999 V2000
    3.6405    1.2043    0.0000 O   0  0  0  0  0  0  0  0  0  0  0  0
    1.3832    1.2043    0.0000 O   0  0  0  0  0  0  0  0  0  0  0  0
   -0.0482    1.2043    0.0000 O   0  0  0  0  0  0  0  0  0  0  0  0
   -2.4843    2.9248    0.0000 O   0  0  0  0  0  0  0  0  0  0  0  0
    0.6676    0.7914    0.0000 O   0  0  0  0  0  0  0  0  0  0  0  0
   -2.9110   -2.9248    0.0000 O   0  0  0  0  0  0  0  0  0  0  0  0
   -2.2779    1.4245    0.0000 N   0  0  0  0  0  0  0  0  0  0  0  0
    1.3832   -0.4336    0.0000 N   0  0  0  0  0  0  0  0  0  0  0  0
   -0.7639   -0.0206    0.0000 N   0  0  0  0  0  0  0  0  0  0  0  0
    2.8146    1.2043    0.0000 C   0  0  3  0  0  0  0  0  0  0  0  0
   -1.4796    1.2181    0.0000 C   0  0  3  0  0  0  0  0  0  0  0  0
    2.1127    0.8051    0.0000 C   0  0  0  0  0  0  0  0  0  0  0  0
    3.2413    0.5162    0.0000 C   0  0  0  0  0  0  0  0  0  0  0  0
    2.0852   -0.0206    0.0000 C   0  0  3  0  0  0  0  0  0  0  0  0
   -0.7914    0.8051    0.0000 C   0  0  0  0  0  0  0  0  0  0  0  0
   -1.2731    2.0164    0.0000 C   0  0  0  0  0  0  0  0  0  0  0  0
   -2.0577    2.1953    0.0000 C   0  0  0  0  0  0  0  0  0  0  0  0
   -0.0482   -0.4198    0.0000 C   0  0  3  0  0  0  0  0  0  0  0  0
    0.6676   -0.0482    0.0000 C   0  0  0  0  0  0  0  0  0  0  0  0
    2.8146    2.0577    0.0000 C   0  0  0  0  0  0  0  0  0  0  0  0
    2.8146   -0.4336    0.0000 C   0  0  0  0  0  0  0  0  0  0  0  0
   -1.4796    0.3785    0.0000 C   0  0  0  0  0  0  0  0  0  0  0  0
   -0.0482   -1.2593    0.0000 C   0  0  0  0  0  0  0  0  0  0  0  0
    2.8009   -1.2593    0.0000 C   0  0  0  0  0  0  0  0  0  0  0  0
   -0.7639   -1.6585    0.0000 C   0  0  0  0  0  0  0  0  0  0  0  0
    3.5304   -1.6723    0.0000 C   0  0  0  0  0  0  0  0  0  0  0  0
    2.0989   -1.6723    0.0000 C   0  0  0  0  0  0  0  0  0  0  0  0
   -1.4933   -1.2731    0.0000 C   0  0  0  0  0  0  0  0  0  0  0  0
   -0.7639   -2.4981    0.0000 C   0  0  0  0  0  0  0  0  0  0  0  0
   -2.1953   -2.4981    0.0000 C   0  0  0  0  0  0  0  0  0  0  0  0
   -2.1953   -1.6723    0.0000 C   0  0  0  0  0  0  0  0  0  0  0  0
   -1.4933   -2.8972    0.0000 C   0  0  0  0  0  0  0  0  0  0  0  0
    3.5304   -2.4981    0.0000 C   0  0  0  0  0  0  0  0  0  0  0  0
    2.0989   -2.4843    0.0000 C   0  0  0  0  0  0  0  0  0  0  0  0
    2.8146   -2.8972    0.0000 C   0  0  0  0  0  0  0  0  0  0  0  0
   -3.6405   -2.5118    0.0000 C   0  0  0  0  0  0  0  0  0  0  0  0
  1 10  1  0  0  0  0
  1 13  1  0  0  0  0
  2 12  2  0  0  0  0
  3 15  2  0  0  0  0
  4 17  2  0  0  0  0
  5 19  2  0  0  0  0
  6 30  1  0  0  0  0
  6 36  1  0  0  0  0
  7 11  1  0  0  0  0
  7 17  1  0  0  0  0
  8 14  1  0  0  0  0
  8 19  1  0  0  0  0
  9 15  1  0  0  0  0
  9 18  1  0  0  0  0
 10 12  1  0  0  0  0
 10 13  1  0  0  0  0
 10 20  1  0  0  0  0
 11 15  1  0  0  0  0
 11 16  1  0  0  0  0
 11 22  1  0  0  0  0
 12 14  1  0  0  0  0
 14 21  1  0  0  0  0
 16 17  1  0  0  0  0
 18 19  1  0  0  0  0
 18 23  1  0  0  0  0
 21 24  1  0  0  0  0
 23 25  1  0  0  0  0
 24 26  2  0  0  0  0
 24 27  1  0  0  0  0
 25 28  2  0  0  0  0
 25 29  1  0  0  0  0
 26 33  1  0  0  0  0
 27 34  2  0  0  0  0
 28 31  1  0  0  0  0
 29 32  2  0  0  0  0
 30 31  2  0  0  0  0
 30 32  1  0  0  0  0
 33 35  2  0  0  0  0
 34 35  1  0  0  0  0
M  END
> <PUBCHEM_COMPOUND_ID_TYPE>
0

> <PUBCHEM_TOTAL_CHARGE>
0

> <PUBCHEM_SUBSTANCE_ID>
310945870

> <PUBCHEM_SUBSTANCE_VERSION>
1

> <PUBCHEM_EXT_DATASOURCE_NAME>
4488

> <PUBCHEM_EXT_DATASOURCE_REGID>
SCHEMBL16123975

> <PUBCHEM_SUBSTANCE_COMMENT>
InChI=1S/C27H31N3O6/c1-26(15-22(31)30-26)25(34)29-21(14-18-9-11-19(35-3)12-10-18)24(33)28-20(23(32)27(2)16-36-27)13-17-7-5-4-6-8-17/h4-12,20-21H,13-16H2,1-3H3,(H,28,33)(H,29,34)(H,30,31)
InChIKey=LQPQFCIBLUOGTO-UHFFFAOYSA-N

> <PUBCHEM_SUBSTANCE_SYNONYM>
SCHEMBL16123975

> <PUBCHEM_XREF_EXT_ID>
SCHEMBL16123975

> <PUBCHEM_EXT_DATASOURCE_URL>
https://www.surechembl.org/

> <PUBCHEM_EXT_SUBSTANCE_URL>
https://www.surechembl.org/chemical/SCHEMBL16123975

> <PUBCHEM_CID_ASSOCIATIONS>
117611854  1

> <PUBCHEM_COORDINATE_TYPE>
1
3

$$$$
