310932776
  -OEChem-07211613022D

 25 27  0     1  0  0  0  0  0999 V2000
    2.7790   -1.6089    0.0000 O   0  0  0  0  0  0  0  0  0  0  0  0
    3.9126   -3.5835    0.0000 O   0  0  0  0  0  0  0  0  0  0  0  0
    4.6439   -2.3402    0.0000 O   0  0  0  0  0  0  0  0  0  0  0  0
    2.3768   -2.3402    0.0000 C   0  0  3  0  0  0  0  0  0  0  0  0
    3.1813   -2.3402    0.0000 C   0  0  3  0  0  0  0  0  0  0  0  0
    1.7917   -1.7552    0.0000 C   0  0  0  0  0  0  0  0  0  0  0  0
    1.6455   -2.7790    0.0000 C   0  0  0  0  0  0  0  0  0  0  0  0
    3.9126   -2.7790    0.0000 C   0  0  0  0  0  0  0  0  0  0  0  0
    0.9507   -1.9745    0.0000 C   0  0  0  0  0  0  0  0  0  0  0  0
    1.9745   -0.9507    0.0000 C   0  0  0  0  0  0  0  0  0  0  0  0
    1.6455   -3.5835    0.0000 C   0  0  0  0  0  0  0  0  0  0  0  0
    0.9141   -2.3402    0.0000 C   0  0  0  0  0  0  0  0  0  0  0  0
    0.4022   -1.3895    0.0000 C   0  0  0  0  0  0  0  0  0  0  0  0
    1.3895   -0.3656    0.0000 C   0  0  0  0  0  0  0  0  0  0  0  0
    0.9141   -4.0223    0.0000 C   0  0  0  0  0  0  0  0  0  0  0  0
    0.2194   -2.7790    0.0000 C   0  0  0  0  0  0  0  0  0  0  0  0
    0.5851   -0.5851    0.0000 C   0  0  0  0  0  0  0  0  0  0  0  0
    0.2194   -3.5835    0.0000 C   0  0  0  0  0  0  0  0  0  0  0  0
    4.6439   -4.0223    0.0000 C   0  0  0  0  0  0  0  0  0  0  0  0
    0.0000    0.0000    0.0000 C   0  0  0  0  0  0  0  0  0  0  0  0
    4.6439   -4.8268    0.0000 C   0  0  0  0  0  0  0  0  0  0  0  0
    5.3386   -5.2290    0.0000 C   0  0  0  0  0  0  0  0  0  0  0  0
    5.3753   -6.0700    0.0000 C   0  0  0  0  0  0  0  0  0  0  0  0
    6.0700   -6.5088    0.0000 C   0  0  0  0  0  0  0  0  0  0  0  0
    6.0700   -7.3133    0.0000 C   0  0  0  0  0  0  0  0  0  0  0  0
  1  4  1  0  0  0  0
  1  5  1  0  0  0  0
  2  8  1  0  0  0  0
  2 19  1  0  0  0  0
  3  8  2  0  0  0  0
  4  5  1  0  0  0  0
  4  6  1  0  0  0  0
  4  7  1  0  0  0  0
  5  8  1  0  0  0  0
  6  9  2  0  0  0  0
  6 10  1  0  0  0  0
  7 11  2  0  0  0  0
  7 12  1  0  0  0  0
  9 13  1  0  0  0  0
 10 14  2  0  0  0  0
 11 15  1  0  0  0  0
 12 16  2  0  0  0  0
 13 17  2  0  0  0  0
 14 17  1  0  0  0  0
 15 18  2  0  0  0  0
 16 18  1  0  0  0  0
 17 20  1  0  0  0  0
 19 21  1  0  0  0  0
 21 22  1  0  0  0  0
 22 23  1  0  0  0  0
 23 24  1  0  0  0  0
 24 25  1  0  0  0  0
M  END
> <PUBCHEM_COMPOUND_ID_TYPE>
0

> <PUBCHEM_TOTAL_CHARGE>
0

> <PUBCHEM_SUBSTANCE_ID>
310932776

> <PUBCHEM_SUBSTANCE_VERSION>
1

> <PUBCHEM_EXT_DATASOURCE_NAME>
4488

> <PUBCHEM_EXT_DATASOURCE_REGID>
SCHEMBL16110162

> <PUBCHEM_SUBSTANCE_COMMENT>
InChI=1S/C22H26O3/c1-3-4-5-9-16-24-21(23)20-22(25-20,18-10-7-6-8-11-18)19-14-12-17(2)13-15-19/h6-8,10-15,20H,3-5,9,16H2,1-2H3
InChIKey=RODOBDQYFJVREV-UHFFFAOYSA-N

> <PUBCHEM_SUBSTANCE_SYNONYM>
SCHEMBL16110162

> <PUBCHEM_XREF_EXT_ID>
SCHEMBL16110162

> <PUBCHEM_EXT_DATASOURCE_URL>
https://www.surechembl.org/

> <PUBCHEM_EXT_SUBSTANCE_URL>
https://www.surechembl.org/chemical/SCHEMBL16110162

> <PUBCHEM_CID_ASSOCIATIONS>
117601271  1

> <PUBCHEM_COORDINATE_TYPE>
1
3

$$$$
