310940906
  -OEChem-07211613022D

 13 14  0     1  0  0  0  0  0999 V2000
   -1.7376   -0.0162    0.0000 O   0  0  0  0  0  0  0  0  0  0  0  0
   -1.0231    1.2342    0.0000 O   0  0  0  0  0  0  0  0  0  0  0  0
    1.9325   -1.0881    0.0000 N   0  0  0  0  0  0  0  0  0  0  0  0
    2.4197   -0.4060    0.0000 N   0  0  0  0  0  0  0  0  0  0  0  0
    1.1530    0.0000    0.0000 C   0  0  0  0  0  0  0  0  0  0  0  0
    1.1368   -0.8120    0.0000 C   0  0  0  0  0  0  0  0  0  0  0  0
   -0.2923    0.0000    0.0000 C   0  0  3  0  0  0  0  0  0  0  0  0
    0.4222    0.3897    0.0000 C   0  0  0  0  0  0  0  0  0  0  0  0
    0.4222   -1.2342    0.0000 C   0  0  0  0  0  0  0  0  0  0  0  0
   -0.2760   -0.8282    0.0000 C   0  0  0  0  0  0  0  0  0  0  0  0
   -1.0231    0.3897    0.0000 C   0  0  0  0  0  0  0  0  0  0  0  0
    1.9325    0.2436    0.0000 C   0  0  0  0  0  0  0  0  0  0  0  0
   -2.4197    0.3897    0.0000 C   0  0  0  0  0  0  0  0  0  0  0  0
  1 11  1  0  0  0  0
  1 13  1  0  0  0  0
  2 11  2  0  0  0  0
  3  4  1  0  0  0  0
  3  6  1  0  0  0  0
  4 12  2  0  0  0  0
  5  6  2  0  0  0  0
  5  8  1  0  0  0  0
  5 12  1  0  0  0  0
  6  9  1  0  0  0  0
  7  8  1  0  0  0  0
  7 10  1  0  0  0  0
  7 11  1  0  0  0  0
  9 10  1  0  0  0  0
M  END
> <PUBCHEM_COMPOUND_ID_TYPE>
0

> <PUBCHEM_TOTAL_CHARGE>
0

> <PUBCHEM_SUBSTANCE_ID>
310940906

> <PUBCHEM_SUBSTANCE_VERSION>
1

> <PUBCHEM_EXT_DATASOURCE_NAME>
4488

> <PUBCHEM_EXT_DATASOURCE_REGID>
SCHEMBL16118865

> <PUBCHEM_SUBSTANCE_COMMENT>
InChI=1S/C9H12N2O2/c1-13-9(12)6-2-3-8-7(4-6)5-10-11-8/h5-6H,2-4H2,1H3,(H,10,11)
InChIKey=UHWNLFBBRQNZTE-UHFFFAOYSA-N

> <PUBCHEM_SUBSTANCE_SYNONYM>
SCHEMBL16118865

> <PUBCHEM_XREF_EXT_ID>
SCHEMBL16118865

> <PUBCHEM_EXT_DATASOURCE_URL>
https://www.surechembl.org/

> <PUBCHEM_EXT_SUBSTANCE_URL>
https://www.surechembl.org/chemical/SCHEMBL16118865

> <PUBCHEM_CID_ASSOCIATIONS>
55279075  1

> <PUBCHEM_COORDINATE_TYPE>
1
3

$$$$
