310942361
  -OEChem-07211613022D

 32 35  0     1  0  0  0  0  0999 V2000
   -0.0613   -1.9397    0.0000 O   0  0  0  0  0  0  0  0  0  0  0  0
   -1.4803    0.5410    0.0000 O   0  0  0  0  0  0  0  0  0  0  0  0
   -2.9096   -1.9397    0.0000 O   0  0  0  0  0  0  0  0  0  0  0  0
    1.9499   -0.4186    0.0000 N   0  0  0  0  0  0  0  0  0  0  0  0
    2.7564   -0.5922    0.0000 N   0  0  0  0  0  0  0  0  0  0  0  0
   -0.7759   -0.6942    0.0000 N   0  0  0  0  0  0  0  0  0  0  0  0
   -3.6242   -0.6942    0.0000 N   0  0  0  0  0  0  0  0  0  0  0  0
    4.0020    0.5615    0.0000 N   0  0  0  0  0  0  0  0  0  0  0  0
    1.5416    0.2960    0.0000 C   0  0  0  0  0  0  0  0  0  0  0  0
    0.6432   -0.6840    0.0000 C   0  0  0  0  0  0  0  0  0  0  0  0
    1.3986   -1.0311    0.0000 C   0  0  0  0  0  0  0  0  0  0  0  0
    0.7555    0.1327    0.0000 C   0  0  0  0  0  0  0  0  0  0  0  0
    1.8785    1.0719    0.0000 C   0  0  3  0  0  0  0  0  0  0  0  0
   -0.0613   -1.0822    0.0000 C   0  0  0  0  0  0  0  0  0  0  0  0
    1.6641   -1.8172    0.0000 C   0  0  0  0  0  0  0  0  0  0  0  0
    2.6952    1.1434    0.0000 C   0  0  0  0  0  0  0  0  0  0  0  0
    0.1225    0.6942    0.0000 C   0  0  0  0  0  0  0  0  0  0  0  0
    3.0219   -1.3782    0.0000 C   0  0  0  0  0  0  0  0  0  0  0  0
    2.4706   -1.9908    0.0000 C   0  0  0  0  0  0  0  0  0  0  0  0
   -2.2051   -0.6942    0.0000 C   0  0  0  0  0  0  0  0  0  0  0  0
    1.3885    1.7355    0.0000 C   0  0  0  0  0  0  0  0  0  0  0  0
   -1.4701   -1.1026    0.0000 C   0  0  0  0  0  0  0  0  0  0  0  0
   -2.1848    0.1327    0.0000 C   0  0  0  0  0  0  0  0  0  0  0  0
   -2.9096   -1.0923    0.0000 C   0  0  0  0  0  0  0  0  0  0  0  0
    3.1954    0.4696    0.0000 C   0  0  0  0  0  0  0  0  0  0  0  0
    3.0321    1.8989    0.0000 C   0  0  0  0  0  0  0  0  0  0  0  0
   -2.9300    0.5410    0.0000 C   0  0  0  0  0  0  0  0  0  0  0  0
   -3.6242    0.1429    0.0000 C   0  0  0  0  0  0  0  0  0  0  0  0
    3.8489    1.9908    0.0000 C   0  0  0  0  0  0  0  0  0  0  0  0
    4.3389    1.3272    0.0000 C   0  0  0  0  0  0  0  0  0  0  0  0
   -4.3389    0.5615    0.0000 C   0  0  0  0  0  0  0  0  0  0  0  0
   -1.4803    1.3885    0.0000 C   0  0  0  0  0  0  0  0  0  0  0  0
  1 14  2  0  0  0  0
  2 23  1  0  0  0  0
  2 32  1  0  0  0  0
  3 24  2  0  0  0  0
  4  5  1  0  0  0  0
  4  9  1  0  0  0  0
  4 11  1  0  0  0  0
  5 18  2  0  0  0  0
  6 14  1  0  0  0  0
  6 22  1  0  0  0  0
  7 24  1  0  0  0  0
  7 28  1  0  0  0  0
  8 25  1  0  0  0  0
  8 30  2  0  0  0  0
  9 12  2  0  0  0  0
  9 13  1  0  0  0  0
 10 11  2  0  0  0  0
 10 12  1  0  0  0  0
 10 14  1  0  0  0  0
 11 15  1  0  0  0  0
 12 17  1  0  0  0  0
 13 16  1  0  0  0  0
 13 21  1  0  0  0  0
 15 19  2  0  0  0  0
 16 25  2  0  0  0  0
 16 26  1  0  0  0  0
 18 19  1  0  0  0  0
 20 22  1  0  0  0  0
 20 23  2  0  0  0  0
 20 24  1  0  0  0  0
 23 27  1  0  0  0  0
 26 29  2  0  0  0  0
 27 28  2  0  0  0  0
 28 31  1  0  0  0  0
 29 30  1  0  0  0  0
M  END
> <PUBCHEM_COMPOUND_ID_TYPE>
0

> <PUBCHEM_TOTAL_CHARGE>
0

> <PUBCHEM_SUBSTANCE_ID>
310942361

> <PUBCHEM_SUBSTANCE_VERSION>
1

> <PUBCHEM_EXT_DATASOURCE_NAME>
4488

> <PUBCHEM_EXT_DATASOURCE_REGID>
SCHEMBL16120397

> <PUBCHEM_SUBSTANCE_COMMENT>
InChI=1S/C24H25N5O3/c1-14-11-20(32-4)18(23(30)28-14)13-26-24(31)21-16(3)22(29-19(21)8-6-10-27-29)15(2)17-7-5-9-25-12-17/h5-12,15H,13H2,1-4H3,(H,26,31)(H,28,30)
InChIKey=DBQMUMRGKYLJKN-UHFFFAOYSA-N

> <PUBCHEM_SUBSTANCE_SYNONYM>
SCHEMBL16120397

> <PUBCHEM_XREF_EXT_ID>
SCHEMBL16120397

> <PUBCHEM_EXT_DATASOURCE_URL>
https://www.surechembl.org/

> <PUBCHEM_EXT_SUBSTANCE_URL>
https://www.surechembl.org/chemical/SCHEMBL16120397

> <PUBCHEM_CID_ASSOCIATIONS>
86299762  1

> <PUBCHEM_COORDINATE_TYPE>
1
3

$$$$
