310947670
  -OEChem-07211613022D

 26 28  0     1  0  0  0  0  0999 V2000
    2.2136   -2.0203    0.0000 O   0  0  0  0  0  0  0  0  0  0  0  0
   -1.3977    1.2375    0.0000 O   0  0  0  0  0  0  0  0  0  0  0  0
    1.8263    0.0279    0.0000 O   0  0  0  0  0  0  0  0  0  0  0  0
    0.7457    1.6500    0.0000 O   0  0  0  0  0  0  0  0  0  0  0  0
    0.8158   -2.3174    0.0000 N   0  0  0  0  0  0  0  0  0  0  0  0
    1.3008   -1.6500    0.0000 N   0  0  0  0  0  0  0  0  0  0  0  0
    0.0312   -1.2375    0.0000 C   0  0  0  0  0  0  0  0  0  0  0  0
    0.0312   -2.0625    0.0000 C   0  0  0  0  0  0  0  0  0  0  0  0
    0.8158   -0.9826    0.0000 C   0  0  0  0  0  0  0  0  0  0  0  0
   -0.6832   -0.8250    0.0000 C   0  0  0  0  0  0  0  0  0  0  0  0
    1.4289   -1.7654    0.0000 C   0  0  3  0  0  0  0  0  0  0  0  0
   -0.6832    0.0000    0.0000 C   0  0  0  0  0  0  0  0  0  0  0  0
   -1.3977   -1.2375    0.0000 C   0  0  0  0  0  0  0  0  0  0  0  0
    1.0294   -0.1857    0.0000 C   0  0  0  0  0  0  0  0  0  0  0  0
   -1.3977    0.4125    0.0000 C   0  0  0  0  0  0  0  0  0  0  0  0
   -2.1122   -0.8250    0.0000 C   0  0  0  0  0  0  0  0  0  0  0  0
   -0.6832   -2.4750    0.0000 C   0  0  0  0  0  0  0  0  0  0  0  0
    1.2574   -0.9584    0.0000 C   0  0  0  0  0  0  0  0  0  0  0  0
   -2.1122    0.0000    0.0000 C   0  0  0  0  0  0  0  0  0  0  0  0
    2.8267   -1.4683    0.0000 C   0  0  0  0  0  0  0  0  0  0  0  0
    1.8705   -0.4064    0.0000 C   0  0  0  0  0  0  0  0  0  0  0  0
    2.6551   -0.6613    0.0000 C   0  0  0  0  0  0  0  0  0  0  0  0
   -2.8267   -1.2375    0.0000 C   0  0  0  0  0  0  0  0  0  0  0  0
   -0.6832    1.6500    0.0000 C   0  0  0  0  0  0  0  0  0  0  0  0
    0.0312    1.2375    0.0000 C   0  0  0  0  0  0  0  0  0  0  0  0
    0.7457    2.4750    0.0000 C   0  0  0  0  0  0  0  0  0  0  0  0
  1 11  1  0  0  0  0
  1 20  1  0  0  0  0
  2 15  1  0  0  0  0
  2 24  1  0  0  0  0
  3 14  1  0  0  0  0
  4 25  1  0  0  0  0
  4 26  1  0  0  0  0
  5  6  1  0  0  0  0
  5  8  1  0  0  0  0
  5 11  1  0  0  0  0
  6  9  2  0  0  0  0
  7  8  2  0  0  0  0
  7  9  1  0  0  0  0
  7 10  1  0  0  0  0
  8 17  1  0  0  0  0
  9 14  1  0  0  0  0
 10 12  2  0  0  0  0
 10 13  1  0  0  0  0
 11 18  1  0  0  0  0
 12 15  1  0  0  0  0
 13 16  2  0  0  0  0
 15 19  2  0  0  0  0
 16 19  1  0  0  0  0
 16 23  1  0  0  0  0
 18 21  1  0  0  0  0
 20 22  1  0  0  0  0
 21 22  1  0  0  0  0
 24 25  1  0  0  0  0
M  END
> <PUBCHEM_COMPOUND_ID_TYPE>
0

> <PUBCHEM_TOTAL_CHARGE>
0

> <PUBCHEM_SUBSTANCE_ID>
310947670

> <PUBCHEM_SUBSTANCE_VERSION>
1

> <PUBCHEM_EXT_DATASOURCE_NAME>
4488

> <PUBCHEM_EXT_DATASOURCE_REGID>
SCHEMBL16125838

> <PUBCHEM_SUBSTANCE_COMMENT>
InChI=1S/C20H28N2O4/c1-14-10-16(12-17(11-14)25-9-8-24-3)20-15(2)22(21-18(20)13-23)19-6-4-5-7-26-19/h10-12,19,23H,4-9,13H2,1-3H3
InChIKey=AUUDFELBMYKWLJ-UHFFFAOYSA-N

> <PUBCHEM_SUBSTANCE_SYNONYM>
SCHEMBL16125838

> <PUBCHEM_XREF_EXT_ID>
SCHEMBL16125838

> <PUBCHEM_EXT_DATASOURCE_URL>
https://www.surechembl.org/

> <PUBCHEM_EXT_SUBSTANCE_URL>
https://www.surechembl.org/chemical/SCHEMBL16125838

> <PUBCHEM_CID_ASSOCIATIONS>
117613385  1

> <PUBCHEM_COORDINATE_TYPE>
1
3

$$$$
