310932790
  -OEChem-07211613022D

 34 38  0     1  0  0  0  0  0999 V2000
    2.8652   -4.7582    0.0000 O   0  0  0  0  0  0  0  0  0  0  0  0
    0.7163   -0.8186    0.0000 O   0  0  0  0  0  0  0  0  0  0  0  0
    2.1489   -0.8186    0.0000 O   0  0  0  0  0  0  0  0  0  0  0  0
    0.7163   -5.1676    0.0000 O   0  0  0  0  0  0  0  0  0  0  0  0
    0.0000   -6.4466    0.0000 O   0  0  0  0  0  0  0  0  0  0  0  0
    1.4326   -4.7582    0.0000 N   0  0  0  0  0  0  0  0  0  0  0  0
    1.4326   -6.4466    0.0000 N   0  0  0  0  0  0  0  0  0  0  0  0
    2.8652   -9.7723    0.0000 N   0  0  0  0  0  0  0  0  0  0  0  0
    4.2978   -9.8235    0.0000 N   0  0  0  0  0  0  0  0  0  0  0  0
    1.4326   -3.9396    0.0000 C   0  0  0  0  0  0  0  0  0  0  0  0
    1.4326   -2.0977    0.0000 C   0  0  0  0  0  0  0  0  0  0  0  0
    2.1489   -6.0373    0.0000 C   0  0  3  0  0  0  0  0  0  0  0  0
    2.8652   -6.4466    0.0000 C   0  0  0  0  0  0  0  0  0  0  0  0
    2.1489   -5.1676    0.0000 C   0  0  0  0  0  0  0  0  0  0  0  0
    2.8652   -7.2653    0.0000 C   0  0  0  0  0  0  0  0  0  0  0  0
    0.6140   -3.4792    0.0000 C   0  0  0  0  0  0  0  0  0  0  0  0
    2.2001   -3.4792    0.0000 C   0  0  0  0  0  0  0  0  0  0  0  0
    1.0745   -3.2745    0.0000 C   0  0  0  0  0  0  0  0  0  0  0  0
    0.6140   -2.5582    0.0000 C   0  0  0  0  0  0  0  0  0  0  0  0
    2.2001   -2.5582    0.0000 C   0  0  0  0  0  0  0  0  0  0  0  0
    1.0745   -2.7117    0.0000 C   0  0  0  0  0  0  0  0  0  0  0  0
    1.4326   -1.2791    0.0000 C   0  0  0  0  0  0  0  0  0  0  0  0
    3.5815   -7.6746    0.0000 C   0  0  0  0  0  0  0  0  0  0  0  0
    2.1489   -7.6746    0.0000 C   0  0  0  0  0  0  0  0  0  0  0  0
    1.4326   -7.2653    0.0000 C   0  0  0  0  0  0  0  0  0  0  0  0
    3.5815   -6.0373    0.0000 C   0  0  0  0  0  0  0  0  0  0  0  0
    3.5815   -8.5444    0.0000 C   0  0  0  0  0  0  0  0  0  0  0  0
    0.7163   -6.0373    0.0000 C   0  0  0  0  0  0  0  0  0  0  0  0
    4.2978   -7.2653    0.0000 C   0  0  0  0  0  0  0  0  0  0  0  0
    4.2978   -6.4466    0.0000 C   0  0  0  0  0  0  0  0  0  0  0  0
    2.8652   -8.9537    0.0000 C   0  0  0  0  0  0  0  0  0  0  0  0
    4.2978   -8.9537    0.0000 C   0  0  0  0  0  0  0  0  0  0  0  0
    0.7163    0.0000    0.0000 C   0  0  0  0  0  0  0  0  0  0  0  0
    3.5815  -10.2328    0.0000 C   0  0  0  0  0  0  0  0  0  0  0  0
  1 14  2  0  0  0  0
  2 22  1  0  0  0  0
  2 33  1  0  0  0  0
  3 22  2  0  0  0  0
  4 28  2  0  0  0  0
  5 28  1  0  0  0  0
  6 10  1  0  0  0  0
  6 14  1  0  0  0  0
  7 12  1  0  0  0  0
  7 25  1  0  0  0  0
  7 28  1  0  0  0  0
  8 31  2  0  0  0  0
  8 34  1  0  0  0  0
  9 32  1  0  0  0  0
  9 34  2  0  0  0  0
 10 16  1  0  0  0  0
 10 17  1  0  0  0  0
 10 18  1  0  0  0  0
 11 19  1  0  0  0  0
 11 20  1  0  0  0  0
 11 21  1  0  0  0  0
 11 22  1  0  0  0  0
 12 13  1  0  0  0  0
 12 14  1  0  0  0  0
 13 15  2  0  0  0  0
 13 26  1  0  0  0  0
 15 23  1  0  0  0  0
 15 24  1  0  0  0  0
 16 19  1  0  0  0  0
 17 20  1  0  0  0  0
 18 21  1  0  0  0  0
 23 27  1  0  0  0  0
 23 29  2  0  0  0  0
 24 25  1  0  0  0  0
 26 30  2  0  0  0  0
 27 31  1  0  0  0  0
 27 32  2  0  0  0  0
 29 30  1  0  0  0  0
M  END
> <PUBCHEM_COMPOUND_ID_TYPE>
0

> <PUBCHEM_TOTAL_CHARGE>
0

> <PUBCHEM_SUBSTANCE_ID>
310932790

> <PUBCHEM_SUBSTANCE_VERSION>
1

> <PUBCHEM_EXT_DATASOURCE_NAME>
4488

> <PUBCHEM_EXT_DATASOURCE_REGID>
SCHEMBL16110176

> <PUBCHEM_SUBSTANCE_COMMENT>
InChI=1S/C25H28N4O5/c1-34-22(31)24-6-9-25(10-7-24,11-8-24)28-21(30)20-19-4-2-3-17(16-13-26-15-27-14-16)18(19)5-12-29(20)23(32)33/h2-4,13-15,20H,5-12H2,1H3,(H,28,30)(H,32,33)
InChIKey=OJKJOHZFMFBVOA-UHFFFAOYSA-N

> <PUBCHEM_SUBSTANCE_SYNONYM>
SCHEMBL16110176

> <PUBCHEM_XREF_EXT_ID>
SCHEMBL16110176

> <PUBCHEM_EXT_DATASOURCE_URL>
https://www.surechembl.org/

> <PUBCHEM_EXT_SUBSTANCE_URL>
https://www.surechembl.org/chemical/SCHEMBL16110176

> <PUBCHEM_CID_ASSOCIATIONS>
117601282  1

> <PUBCHEM_COORDINATE_TYPE>
1
3

$$$$
