310945864
  -OEChem-07211613022D

 36 39  0     1  0  0  0  0  0999 V2000
    3.6673    1.5598    0.0000 O   0  0  0  0  0  0  0  0  0  0  0  0
    1.3934    1.5598    0.0000 O   0  0  0  0  0  0  0  0  0  0  0  0
    0.6725    1.1439    0.0000 O   0  0  0  0  0  0  0  0  0  0  0  0
   -0.0485    1.5598    0.0000 O   0  0  0  0  0  0  0  0  0  0  0  0
   -2.4333    0.4090    0.0000 O   0  0  0  0  0  0  0  0  0  0  0  0
   -2.9324   -2.5720    0.0000 O   0  0  0  0  0  0  0  0  0  0  0  0
    1.3934   -0.0763    0.0000 N   0  0  0  0  0  0  0  0  0  0  0  0
   -0.7695    0.3258    0.0000 N   0  0  0  0  0  0  0  0  0  0  0  0
   -1.5737    2.3917    0.0000 N   0  0  0  0  0  0  0  0  0  0  0  0
    2.8354    1.5737    0.0000 C   0  0  3  0  0  0  0  0  0  0  0  0
    2.1283    1.1577    0.0000 C   0  0  0  0  0  0  0  0  0  0  0  0
    3.2652    0.8804    0.0000 C   0  0  0  0  0  0  0  0  0  0  0  0
    2.1005    0.3258    0.0000 C   0  0  3  0  0  0  0  0  0  0  0  0
    2.8215    2.4194    0.0000 C   0  0  0  0  0  0  0  0  0  0  0  0
    0.6586    0.3119    0.0000 C   0  0  0  0  0  0  0  0  0  0  0  0
    2.8354   -0.0901    0.0000 C   0  0  0  0  0  0  0  0  0  0  0  0
   -0.0485   -0.0763    0.0000 C   0  0  3  0  0  0  0  0  0  0  0  0
   -1.5044    1.5876    0.0000 C   0  0  3  0  0  0  0  0  0  0  0  0
    2.8215   -0.9082    0.0000 C   0  0  0  0  0  0  0  0  0  0  0  0
   -0.7833    1.1577    0.0000 C   0  0  0  0  0  0  0  0  0  0  0  0
   -0.0485   -0.9082    0.0000 C   0  0  0  0  0  0  0  0  0  0  0  0
   -2.2530    1.2409    0.0000 C   0  0  3  0  0  0  0  0  0  0  0  0
   -0.7695   -1.3241    0.0000 C   0  0  0  0  0  0  0  0  0  0  0  0
    3.5563   -1.3241    0.0000 C   0  0  0  0  0  0  0  0  0  0  0  0
    2.1144   -1.3241    0.0000 C   0  0  0  0  0  0  0  0  0  0  0  0
   -2.8077    1.8509    0.0000 C   0  0  0  0  0  0  0  0  0  0  0  0
   -2.3917    2.5720    0.0000 C   0  0  0  0  0  0  0  0  0  0  0  0
   -1.5044   -0.9220    0.0000 C   0  0  0  0  0  0  0  0  0  0  0  0
   -0.7695   -2.1422    0.0000 C   0  0  0  0  0  0  0  0  0  0  0  0
   -2.2253   -2.1422    0.0000 C   0  0  0  0  0  0  0  0  0  0  0  0
   -2.2115   -1.3241    0.0000 C   0  0  0  0  0  0  0  0  0  0  0  0
   -1.4766   -2.5581    0.0000 C   0  0  0  0  0  0  0  0  0  0  0  0
    3.5563   -2.1422    0.0000 C   0  0  0  0  0  0  0  0  0  0  0  0
    2.1144   -2.1422    0.0000 C   0  0  0  0  0  0  0  0  0  0  0  0
    2.8492   -2.5581    0.0000 C   0  0  0  0  0  0  0  0  0  0  0  0
   -3.6673   -2.1698    0.0000 C   0  0  0  0  0  0  0  0  0  0  0  0
  1 10  1  0  0  0  0
  1 12  1  0  0  0  0
  2 11  2  0  0  0  0
  3 15  2  0  0  0  0
  4 20  2  0  0  0  0
  5 22  1  0  0  0  0
  6 30  1  0  0  0  0
  6 36  1  0  0  0  0
  7 13  1  0  0  0  0
  7 15  1  0  0  0  0
  8 17  1  0  0  0  0
  8 20  1  0  0  0  0
  9 18  1  0  0  0  0
  9 27  1  0  0  0  0
 10 11  1  0  0  0  0
 10 12  1  0  0  0  0
 10 14  1  0  0  0  0
 11 13  1  0  0  0  0
 13 16  1  0  0  0  0
 15 17  1  0  0  0  0
 16 19  1  0  0  0  0
 17 21  1  0  0  0  0
 18 20  1  0  0  0  0
 18 22  1  0  0  0  0
 19 24  2  0  0  0  0
 19 25  1  0  0  0  0
 21 23  1  0  0  0  0
 22 26  1  0  0  0  0
 23 28  2  0  0  0  0
 23 29  1  0  0  0  0
 24 33  1  0  0  0  0
 25 34  2  0  0  0  0
 26 27  1  0  0  0  0
 28 31  1  0  0  0  0
 29 32  2  0  0  0  0
 30 31  2  0  0  0  0
 30 32  1  0  0  0  0
 33 35  2  0  0  0  0
 34 35  1  0  0  0  0
M  END
> <PUBCHEM_COMPOUND_ID_TYPE>
0

> <PUBCHEM_TOTAL_CHARGE>
0

> <PUBCHEM_SUBSTANCE_ID>
310945864

> <PUBCHEM_SUBSTANCE_VERSION>
1

> <PUBCHEM_EXT_DATASOURCE_NAME>
4488

> <PUBCHEM_EXT_DATASOURCE_REGID>
SCHEMBL16123969

> <PUBCHEM_SUBSTANCE_COMMENT>
InChI=1S/C27H33N3O6/c1-27(16-36-27)24(32)20(14-17-6-4-3-5-7-17)29-25(33)21(15-18-8-10-19(35-2)11-9-18)30-26(34)23-22(31)12-13-28-23/h3-11,20-23,28,31H,12-16H2,1-2H3,(H,29,33)(H,30,34)
InChIKey=WVVZQAGKUGKQJD-UHFFFAOYSA-N

> <PUBCHEM_SUBSTANCE_SYNONYM>
SCHEMBL16123969

> <PUBCHEM_XREF_EXT_ID>
SCHEMBL16123969

> <PUBCHEM_EXT_DATASOURCE_URL>
https://www.surechembl.org/

> <PUBCHEM_EXT_SUBSTANCE_URL>
https://www.surechembl.org/chemical/SCHEMBL16123969

> <PUBCHEM_CID_ASSOCIATIONS>
117611848  1

> <PUBCHEM_COORDINATE_TYPE>
1
3

$$$$
