310939502
  -OEChem-07211613022D

 24 29  0     1  0  0  0  0  0999 V2000
   -2.4448   -5.0639    0.0000 O   0  0  0  0  0  0  0  0  0  0  0  0
    0.3870   -3.5325    0.0000 O   0  0  0  0  0  0  0  0  0  0  0  0
    0.7963   -5.5079    0.0000 O   0  0  0  0  0  0  0  0  0  0  0  0
   -0.6033   -5.7784    0.0000 O   0  0  0  0  0  0  0  0  0  0  0  0
   -0.3014   -2.1764    0.0000 O   0  0  0  0  0  0  0  0  0  0  0  0
    2.3752   -6.2223    0.0000 O   0  0  0  0  0  0  0  0  0  0  0  0
   -1.0158   -4.2389    0.0000 C   0  0  3  0  0  0  0  0  0  0  0  0
   -1.7303   -4.6514    0.0000 C   0  0  3  0  0  0  0  0  0  0  0  0
   -1.0158   -3.4139    0.0000 C   0  0  3  0  0  0  0  0  0  0  0  0
   -1.7303   -3.0014    0.0000 C   0  0  3  0  0  0  0  0  0  0  0  0
   -2.4448   -4.2389    0.0000 C   0  0  3  0  0  0  0  0  0  0  0  0
   -2.4448   -3.4139    0.0000 C   0  0  3  0  0  0  0  0  0  0  0  0
    0.5828   -4.7110    0.0000 C   0  0  3  0  0  0  0  0  0  0  0  0
    1.3795   -4.4969    0.0000 C   0  0  3  0  0  0  0  0  0  0  0  0
    0.9965   -3.9973    0.0000 C   0  0  3  0  0  0  0  0  0  0  0  0
   -1.5077   -3.8205    0.0000 C   0  0  0  0  0  0  0  0  0  0  0  0
    1.7932   -3.7832    0.0000 C   0  0  3  0  0  0  0  0  0  0  0  0
    2.1763   -4.7110    0.0000 C   0  0  3  0  0  0  0  0  0  0  0  0
   -1.0158   -5.0639    0.0000 C   0  0  0  0  0  0  0  0  0  0  0  0
   -0.3014   -3.0014    0.0000 C   0  0  0  0  0  0  0  0  0  0  0  0
    1.3810   -3.0695    0.0000 C   0  0  0  0  0  0  0  0  0  0  0  0
    2.5899   -3.9973    0.0000 C   0  0  0  0  0  0  0  0  0  0  0  0
    1.9627   -5.5079    0.0000 C   0  0  0  0  0  0  0  0  0  0  0  0
   -2.6583   -2.6170    0.0000 C   0  0  0  0  0  0  0  0  0  0  0  0
  1 11  1  0  0  0  0
  1 19  1  0  0  0  0
  2 15  1  0  0  0  0
  2 20  1  0  0  0  0
  3 13  1  0  0  0  0
  3 23  1  0  0  0  0
  4 19  2  0  0  0  0
  5 20  2  0  0  0  0
  6 23  2  0  0  0  0
  7  8  1  0  0  0  0
  7  9  1  0  0  0  0
  7 19  1  0  0  0  0
  8 11  1  0  0  0  0
  8 16  1  0  0  0  0
  9 10  1  0  0  0  0
  9 20  1  0  0  0  0
 10 12  1  0  0  0  0
 10 16  1  0  0  0  0
 11 12  1  0  0  0  0
 12 24  1  0  0  0  0
 13 14  1  0  0  0  0
 13 15  1  0  0  0  0
 14 18  1  0  0  0  0
 14 21  1  0  0  0  0
 15 17  1  0  0  0  0
 17 21  1  0  0  0  0
 17 22  1  0  0  0  0
 18 22  1  0  0  0  0
 18 23  1  0  0  0  0
M  END
> <PUBCHEM_COMPOUND_ID_TYPE>
0

> <PUBCHEM_TOTAL_CHARGE>
0

> <PUBCHEM_SUBSTANCE_ID>
310939502

> <PUBCHEM_SUBSTANCE_VERSION>
1

> <PUBCHEM_EXT_DATASOURCE_NAME>
4488

> <PUBCHEM_EXT_DATASOURCE_REGID>
SCHEMBL16117431

> <PUBCHEM_SUBSTANCE_COMMENT>
InChI=1S/C18H20O6/c1-5-7-4-10-12(18(21)22-13(5)10)11(7)17(20)23-14-6-2-8-9(3-6)16(19)24-15(8)14/h5-15H,2-4H2,1H3
InChIKey=WYTFQXLTAJKLEV-UHFFFAOYSA-N

> <PUBCHEM_SUBSTANCE_SYNONYM>
SCHEMBL16117431

> <PUBCHEM_XREF_EXT_ID>
SCHEMBL16117431

> <PUBCHEM_EXT_DATASOURCE_URL>
https://www.surechembl.org/

> <PUBCHEM_EXT_SUBSTANCE_URL>
https://www.surechembl.org/chemical/SCHEMBL16117431

> <PUBCHEM_CID_ASSOCIATIONS>
117606803  1

> <PUBCHEM_COORDINATE_TYPE>
1
3

$$$$
