310943249
  -OEChem-07211613022D

 41 46  0     1  0  0  0  0  0999 V2000
    4.3342   -2.1507    0.0000 F   0  0  0  0  0  0  0  0  0  0  0  0
    3.5462   -2.9552    0.0000 F   0  0  0  0  0  0  0  0  0  0  0  0
    2.7582   -2.1507    0.0000 F   0  0  0  0  0  0  0  0  0  0  0  0
   -2.9388   -0.0821    0.0000 O   0  0  0  0  0  0  0  0  0  0  0  0
   -4.2193    2.6596    0.0000 O   0  0  0  0  0  0  0  0  0  0  0  0
    1.3626   -0.0657    0.0000 O   0  0  0  0  0  0  0  0  0  0  0  0
   -2.9388   -2.5611    0.0000 O   0  0  0  0  0  0  0  0  0  0  0  0
   -2.9223    1.6254    0.0000 N   0  0  0  0  0  0  0  0  0  0  0  0
   -1.4940   -0.0821    0.0000 N   0  0  0  0  0  0  0  0  0  0  0  0
    0.6567    2.8239    0.0000 N   0  0  0  0  0  0  0  0  0  0  0  0
    2.0850    1.1657    0.0000 N   0  0  0  0  0  0  0  0  0  0  0  0
    4.2357   -0.9030    0.0000 N   0  0  0  0  0  0  0  0  0  0  0  0
   -2.1999    1.1657    0.0000 C   0  0  0  0  0  0  0  0  0  0  0  0
   -3.7104    1.3626    0.0000 C   0  0  3  0  0  0  0  0  0  0  0  0
   -2.8239    2.4462    0.0000 C   0  0  3  0  0  0  0  0  0  0  0  0
   -2.2328    0.3448    0.0000 C   0  0  0  0  0  0  0  0  0  0  0  0
   -0.7716    1.1657    0.0000 C   0  0  0  0  0  0  0  0  0  0  0  0
   -1.5105    1.5761    0.0000 C   0  0  0  0  0  0  0  0  0  0  0  0
   -0.0657    1.5925    0.0000 C   0  0  0  0  0  0  0  0  0  0  0  0
   -3.8581    1.8880    0.0000 C   0  0  0  0  0  0  0  0  0  0  0  0
   -3.3656    2.5119    0.0000 C   0  0  0  0  0  0  0  0  0  0  0  0
   -4.3342    1.8387    0.0000 C   0  0  0  0  0  0  0  0  0  0  0  0
   -3.4149    2.9552    0.0000 C   0  0  0  0  0  0  0  0  0  0  0  0
   -0.7881    0.3284    0.0000 C   0  0  0  0  0  0  0  0  0  0  0  0
   -0.0492    2.4134    0.0000 C   0  0  0  0  0  0  0  0  0  0  0  0
    0.6403    1.1657    0.0000 C   0  0  0  0  0  0  0  0  0  0  0  0
    1.3626    1.5761    0.0000 C   0  0  0  0  0  0  0  0  0  0  0  0
   -2.9388   -0.9030    0.0000 C   0  0  0  0  0  0  0  0  0  0  0  0
    1.3791    2.4134    0.0000 C   0  0  0  0  0  0  0  0  0  0  0  0
    2.8075   -0.0657    0.0000 C   0  0  0  0  0  0  0  0  0  0  0  0
    2.1015    0.3612    0.0000 C   0  0  0  0  0  0  0  0  0  0  0  0
    3.5298   -1.3134    0.0000 C   0  0  0  0  0  0  0  0  0  0  0  0
    3.5298   -2.1507    0.0000 C   0  0  0  0  0  0  0  0  0  0  0  0
    2.8075   -0.9030    0.0000 C   0  0  0  0  0  0  0  0  0  0  0  0
   -0.7881    2.8075    0.0000 C   0  0  0  0  0  0  0  0  0  0  0  0
   -2.1999   -1.3298    0.0000 C   0  0  0  0  0  0  0  0  0  0  0  0
   -3.6448   -1.3134    0.0000 C   0  0  0  0  0  0  0  0  0  0  0  0
    3.5298    0.3448    0.0000 C   0  0  0  0  0  0  0  0  0  0  0  0
    4.2522   -0.0821    0.0000 C   0  0  0  0  0  0  0  0  0  0  0  0
   -2.2164   -2.1507    0.0000 C   0  0  0  0  0  0  0  0  0  0  0  0
   -3.6448   -2.1507    0.0000 C   0  0  0  0  0  0  0  0  0  0  0  0
  1 33  1  0  0  0  0
  2 33  1  0  0  0  0
  3 33  1  0  0  0  0
  4 16  1  0  0  0  0
  4 28  1  0  0  0  0
  5 22  1  0  0  0  0
  5 23  1  0  0  0  0
  6 31  2  0  0  0  0
  7 40  1  0  0  0  0
  7 41  1  0  0  0  0
  8 13  1  0  0  0  0
  8 14  1  0  0  0  0
  8 15  1  0  0  0  0
  9 16  1  0  0  0  0
  9 24  2  0  0  0  0
 10 25  2  0  0  0  0
 10 29  1  0  0  0  0
 11 27  1  0  0  0  0
 11 31  1  0  0  0  0
 12 32  2  0  0  0  0
 12 39  1  0  0  0  0
 13 16  2  0  0  0  0
 13 18  1  0  0  0  0
 14 20  1  0  0  0  0
 14 22  1  0  0  0  0
 15 21  1  0  0  0  0
 15 23  1  0  0  0  0
 17 18  2  0  0  0  0
 17 19  1  0  0  0  0
 17 24  1  0  0  0  0
 19 25  1  0  0  0  0
 19 26  2  0  0  0  0
 20 21  1  0  0  0  0
 25 35  1  0  0  0  0
 26 27  1  0  0  0  0
 27 29  2  0  0  0  0
 28 36  1  0  0  0  0
 28 37  1  0  0  0  0
 30 31  1  0  0  0  0
 30 34  2  0  0  0  0
 30 38  1  0  0  0  0
 32 33  1  0  0  0  0
 32 34  1  0  0  0  0
 36 40  1  0  0  0  0
 37 41  1  0  0  0  0
 38 39  2  0  0  0  0
M  END
> <PUBCHEM_COMPOUND_ID_TYPE>
0

> <PUBCHEM_TOTAL_CHARGE>
0

> <PUBCHEM_SUBSTANCE_ID>
310943249

> <PUBCHEM_SUBSTANCE_VERSION>
1

> <PUBCHEM_EXT_DATASOURCE_NAME>
4488

> <PUBCHEM_EXT_DATASOURCE_REGID>
SCHEMBL16121311

> <PUBCHEM_SUBSTANCE_COMMENT>
InChI=1S/C29H30F3N5O4/c1-17-24(12-20(14-34-17)36-27(38)18-4-7-33-26(11-18)29(30,31)32)19-10-25(37-21-2-3-22(37)16-40-15-21)28(35-13-19)41-23-5-8-39-9-6-23/h4,7,10-14,21-23H,2-3,5-6,8-9,15-16H2,1H3,(H,36,38)
InChIKey=VNIUCIBNMKUPSK-UHFFFAOYSA-N

> <PUBCHEM_SUBSTANCE_SYNONYM>
SCHEMBL16121311

> <PUBCHEM_XREF_EXT_ID>
SCHEMBL16121311

> <PUBCHEM_EXT_DATASOURCE_URL>
https://www.surechembl.org/

> <PUBCHEM_EXT_SUBSTANCE_URL>
https://www.surechembl.org/chemical/SCHEMBL16121311

> <PUBCHEM_CID_ASSOCIATIONS>
117609674  1

> <PUBCHEM_COORDINATE_TYPE>
1
3

$$$$
