310930619
  -OEChem-07211613022D

 27 29  0     1  0  0  0  0  0999 V2000
    4.2868    5.7750    0.0000 F   0  0  0  0  0  0  0  0  0  0  0  0
    2.8579    4.9500    0.0000 F   0  0  0  0  0  0  0  0  0  0  0  0
    3.5724    3.7125    0.0000 F   0  0  0  0  0  0  0  0  0  0  0  0
    9.0106    5.8432    0.0000 O   0  0  0  0  0  0  0  0  0  0  0  0
   11.4315    5.7750    0.0000 O   0  5  0  0  0  0  0  0  0  0  0  0
   12.1460    4.5375    0.0000 O   0  0  0  0  0  0  0  0  0  0  0  0
    5.0013    4.5375    0.0000 O   0  0  0  0  0  0  0  0  0  0  0  0
    5.7158    5.7750    0.0000 O   0  0  0  0  0  0  0  0  0  0  0  0
    8.6750    5.0895    0.0000 N   0  0  0  0  0  0  0  0  0  0  0  0
    9.8311    5.7570    0.0000 N   0  0  0  0  0  0  0  0  0  0  0  0
    8.5737    3.3000    0.0000 N   0  0  0  0  0  0  0  0  0  0  0  0
   11.4315    4.9500    0.0000 N   0  3  0  0  0  0  0  0  0  0  0  0
    9.2881    4.5375    0.0000 C   0  0  0  0  0  0  0  0  0  0  0  0
   10.0026    4.9500    0.0000 C   0  0  0  0  0  0  0  0  0  0  0  0
    9.2881    3.7125    0.0000 C   0  0  0  0  0  0  0  0  0  0  0  0
   10.7171    4.5375    0.0000 C   0  0  0  0  0  0  0  0  0  0  0  0
   10.0026    3.3000    0.0000 C   0  0  0  0  0  0  0  0  0  0  0  0
   10.7171    3.7125    0.0000 C   0  0  0  0  0  0  0  0  0  0  0  0
    7.8592    3.7125    0.0000 C   0  0  0  0  0  0  0  0  0  0  0  0
    6.4302    4.5375    0.0000 C   0  0  0  0  0  0  0  0  0  0  0  0
    7.8592    4.5375    0.0000 C   0  0  0  0  0  0  0  0  0  0  0  0
    7.1447    3.3000    0.0000 C   0  0  0  0  0  0  0  0  0  0  0  0
    5.7158    4.9500    0.0000 C   0  0  0  0  0  0  0  0  0  0  0  0
    7.1447    4.9500    0.0000 C   0  0  0  0  0  0  0  0  0  0  0  0
    6.4302    3.7125    0.0000 C   0  0  0  0  0  0  0  0  0  0  0  0
    4.2868    4.9500    0.0000 C   0  0  3  0  0  0  0  0  0  0  0  0
    3.5724    4.5375    0.0000 C   0  0  0  0  0  0  0  0  0  0  0  0
  1 26  1  0  0  0  0
  2 27  1  0  0  0  0
  3 27  1  0  0  0  0
  4  9  1  0  0  0  0
  4 10  1  0  0  0  0
  5 12  1  0  0  0  0
  6 12  2  0  0  0  0
  7 23  1  0  0  0  0
  7 26  1  0  0  0  0
  8 23  2  0  0  0  0
  9 13  2  0  0  0  0
 10 14  2  0  0  0  0
 11 15  1  0  0  0  0
 11 19  1  0  0  0  0
 12 16  1  0  0  0  0
 13 14  1  0  0  0  0
 13 15  1  0  0  0  0
 14 16  1  0  0  0  0
 15 17  2  0  0  0  0
 16 18  2  0  0  0  0
 17 18  1  0  0  0  0
 19 21  2  0  0  0  0
 19 22  1  0  0  0  0
 20 23  1  0  0  0  0
 20 24  2  0  0  0  0
 20 25  1  0  0  0  0
 21 24  1  0  0  0  0
 22 25  2  0  0  0  0
 26 27  1  0  0  0  0
M  CHG  2   5  -1  12   1
M  END
> <PUBCHEM_COMPOUND_ID_TYPE>
0

> <PUBCHEM_TOTAL_CHARGE>
0

> <PUBCHEM_SUBSTANCE_ID>
310930619

> <PUBCHEM_SUBSTANCE_VERSION>
1

> <PUBCHEM_EXT_DATASOURCE_NAME>
4488

> <PUBCHEM_EXT_DATASOURCE_REGID>
SCHEMBL16107916

> <PUBCHEM_SUBSTANCE_COMMENT>
InChI=1S/C15H9F3N4O5/c16-13(17)14(18)26-15(23)7-1-3-8(4-2-7)19-9-5-6-10(22(24)25)12-11(9)20-27-21-12/h1-6,13-14,19H
InChIKey=JKKBDHWUIZVBLX-UHFFFAOYSA-N

> <PUBCHEM_SUBSTANCE_SYNONYM>
SCHEMBL16107916

> <PUBCHEM_XREF_EXT_ID>
SCHEMBL16107916

> <PUBCHEM_EXT_DATASOURCE_URL>
https://www.surechembl.org/

> <PUBCHEM_EXT_SUBSTANCE_URL>
https://www.surechembl.org/chemical/SCHEMBL16107916

> <PUBCHEM_CID_ASSOCIATIONS>
117599689  1

> <PUBCHEM_COORDINATE_TYPE>
1
3

$$$$
