310947056
  -OEChem-07211613022D

 36 39  0     1  0  0  0  0  0999 V2000
   -0.9920   -1.6500    0.0000 F   0  0  0  0  0  0  0  0  0  0  0  0
   -2.4210    0.8250    0.0000 F   0  0  0  0  0  0  0  0  0  0  0  0
    0.4369    2.4750    0.0000 F   0  0  0  0  0  0  0  0  0  0  0  0
    1.8659    2.4750    0.0000 F   0  0  0  0  0  0  0  0  0  0  0  0
    1.1514    2.8875    0.0000 F   0  0  0  0  0  0  0  0  0  0  0  0
   -2.4209   -2.4750    0.0000 O   0  0  0  0  0  0  0  0  0  0  0  0
   -3.8499    0.0000    0.0000 O   0  0  0  0  0  0  0  0  0  0  0  0
    1.8659    0.8250    0.0000 O   0  0  0  0  0  0  0  0  0  0  0  0
    0.4369    0.0000    0.0000 N   0  0  0  0  0  0  0  0  0  0  0  0
   -0.9920    0.0000    0.0000 N   0  0  0  0  0  0  0  0  0  0  0  0
    1.8659    0.0000    0.0000 N   0  0  0  0  0  0  0  0  0  0  0  0
    1.8659   -1.6500    0.0000 N   0  0  0  0  0  0  0  0  0  0  0  0
    4.0794    1.0799    0.0000 N   0  0  0  0  0  0  0  0  0  0  0  0
    4.5644    0.4125    0.0000 N   0  0  0  0  0  0  0  0  0  0  0  0
    1.1514   -0.4125    0.0000 C   0  0  0  0  0  0  0  0  0  0  0  0
   -0.2775   -0.4125    0.0000 C   0  0  0  0  0  0  0  0  0  0  0  0
    1.1514   -1.2375    0.0000 C   0  0  0  0  0  0  0  0  0  0  0  0
   -1.7065   -0.4125    0.0000 C   0  0  0  0  0  0  0  0  0  0  0  0
   -1.7065   -1.2375    0.0000 C   0  0  0  0  0  0  0  0  0  0  0  0
   -2.4209    0.0000    0.0000 C   0  0  0  0  0  0  0  0  0  0  0  0
    2.5803   -0.4125    0.0000 C   0  0  0  0  0  0  0  0  0  0  0  0
   -0.2775   -1.2375    0.0000 C   0  0  0  0  0  0  0  0  0  0  0  0
    0.4369    0.8250    0.0000 C   0  0  0  0  0  0  0  0  0  0  0  0
    0.4369   -1.6500    0.0000 C   0  0  0  0  0  0  0  0  0  0  0  0
   -2.4209   -1.6500    0.0000 C   0  0  0  0  0  0  0  0  0  0  0  0
   -3.1354   -0.4125    0.0000 C   0  0  0  0  0  0  0  0  0  0  0  0
    3.2948    0.0000    0.0000 C   0  0  0  0  0  0  0  0  0  0  0  0
    2.5803   -1.2375    0.0000 C   0  0  0  0  0  0  0  0  0  0  0  0
    1.1514    1.2375    0.0000 C   0  0  3  0  0  0  0  0  0  0  0  0
   -3.1354   -1.2375    0.0000 C   0  0  0  0  0  0  0  0  0  0  0  0
    1.1514    2.0625    0.0000 C   0  0  0  0  0  0  0  0  0  0  0  0
    3.2948    0.8250    0.0000 C   0  0  0  0  0  0  0  0  0  0  0  0
    4.0794   -0.2549    0.0000 C   0  0  0  0  0  0  0  0  0  0  0  0
   -1.7065   -2.8875    0.0000 C   0  0  0  0  0  0  0  0  0  0  0  0
   -4.5644   -0.4125    0.0000 C   0  0  0  0  0  0  0  0  0  0  0  0
    4.4919    1.7944    0.0000 C   0  0  0  0  0  0  0  0  0  0  0  0
  1 19  1  0  0  0  0
  2 20  1  0  0  0  0
  3 31  1  0  0  0  0
  4 31  1  0  0  0  0
  5 31  1  0  0  0  0
  6 25  1  0  0  0  0
  6 34  1  0  0  0  0
  7 26  1  0  0  0  0
  7 35  1  0  0  0  0
  8 29  1  0  0  0  0
  9 15  1  0  0  0  0
  9 16  1  0  0  0  0
  9 23  1  0  0  0  0
 10 16  2  0  0  0  0
 10 18  1  0  0  0  0
 11 15  1  0  0  0  0
 11 21  2  0  0  0  0
 12 17  1  0  0  0  0
 12 28  2  0  0  0  0
 13 14  1  0  0  0  0
 13 32  1  0  0  0  0
 13 36  1  0  0  0  0
 14 33  2  0  0  0  0
 15 17  2  0  0  0  0
 16 22  1  0  0  0  0
 17 24  1  0  0  0  0
 18 19  1  0  0  0  0
 18 20  2  0  0  0  0
 19 25  2  0  0  0  0
 20 26  1  0  0  0  0
 21 27  1  0  0  0  0
 21 28  1  0  0  0  0
 22 24  2  0  0  0  0
 23 29  1  0  0  0  0
 25 30  1  0  0  0  0
 26 30  2  0  0  0  0
 27 32  2  0  0  0  0
 27 33  1  0  0  0  0
 29 31  1  0  0  0  0
M  END
> <PUBCHEM_COMPOUND_ID_TYPE>
0

> <PUBCHEM_TOTAL_CHARGE>
0

> <PUBCHEM_SUBSTANCE_ID>
310947056

> <PUBCHEM_SUBSTANCE_VERSION>
1

> <PUBCHEM_EXT_DATASOURCE_NAME>
4488

> <PUBCHEM_EXT_DATASOURCE_REGID>
SCHEMBL16125209

> <PUBCHEM_SUBSTANCE_COMMENT>
InChI=1S/C22H19F5N6O3/c1-32-9-11(7-29-32)13-8-28-12-4-5-17(33(21(12)30-13)10-16(34)22(25,26)27)31-20-18(23)14(35-2)6-15(36-3)19(20)24/h4-9,16,34H,10H2,1-3H3/b31-17+
InChIKey=RKDFVVWPKIIXEZ-KBVAKVRCSA-N

> <PUBCHEM_SUBSTANCE_SYNONYM>
SCHEMBL16125209

> <PUBCHEM_XREF_EXT_ID>
SCHEMBL16125209

> <PUBCHEM_EXT_DATASOURCE_URL>
https://www.surechembl.org/

> <PUBCHEM_EXT_SUBSTANCE_URL>
https://www.surechembl.org/chemical/SCHEMBL16125209

> <PUBCHEM_CID_ASSOCIATIONS>
117612907  1

> <PUBCHEM_COORDINATE_TYPE>
1
3

$$$$
