310928851
  -OEChem-07211613022D

 29 29  0     1  0  0  0  0  0999 V2000
    1.0717   -1.1822    0.0000 S   0  0  0  0  0  0  0  0  0  0  0  0
    0.3572    1.5947    0.0000 O   0  0  0  0  0  0  0  0  0  0  0  0
   -0.3572    0.3572    0.0000 O   0  0  0  0  0  0  0  0  0  0  0  0
    1.4842   -1.8967    0.0000 O   0  0  0  0  0  0  0  0  0  0  0  0
    0.6592   -0.4678    0.0000 O   0  0  0  0  0  0  0  0  0  0  0  0
    1.7862   -0.7697    0.0000 O   0  0  0  0  0  0  0  0  0  0  0  0
   -1.4842    2.3092    0.0000 N   0  0  0  0  0  0  0  0  0  0  0  0
   -1.0717    1.5947    0.0000 C   0  0  3  0  0  0  0  0  0  0  0  0
   -1.7862    1.1822    0.0000 C   0  0  3  0  0  0  0  0  0  0  0  0
   -0.3572    1.1822    0.0000 C   0  0  0  0  0  0  0  0  0  0  0  0
   -2.5006    1.5947    0.0000 C   0  0  0  0  0  0  0  0  0  0  0  0
    0.3572   -1.5947    0.0000 C   0  0  0  0  0  0  0  0  0  0  0  0
   -2.1987    0.4678    0.0000 C   0  0  0  0  0  0  0  0  0  0  0  0
   -0.3572   -1.1822    0.0000 C   0  0  0  0  0  0  0  0  0  0  0  0
    0.3572   -2.4197    0.0000 C   0  0  0  0  0  0  0  0  0  0  0  0
    1.0717    1.1822    0.0000 C   0  0  0  0  0  0  0  0  0  0  0  0
    1.7862    1.5947    0.0000 C   0  0  0  0  0  0  0  0  0  0  0  0
   -1.0717   -2.4197    0.0000 C   0  0  0  0  0  0  0  0  0  0  0  0
   -1.0717   -1.5947    0.0000 C   0  0  0  0  0  0  0  0  0  0  0  0
   -0.3572   -2.8322    0.0000 C   0  0  0  0  0  0  0  0  0  0  0  0
   -3.2151    1.1822    0.0000 C   0  0  0  0  0  0  0  0  0  0  0  0
    1.7862    2.4197    0.0000 C   0  0  0  0  0  0  0  0  0  0  0  0
    2.5006    1.1822    0.0000 C   0  0  0  0  0  0  0  0  0  0  0  0
   -1.7862   -2.8322    0.0000 C   0  0  0  0  0  0  0  0  0  0  0  0
    2.5006    2.8322    0.0000 C   0  0  0  0  0  0  0  0  0  0  0  0
    3.2151    1.5947    0.0000 C   0  0  0  0  0  0  0  0  0  0  0  0
    3.2151    2.4197    0.0000 C   0  0  0  0  0  0  0  0  0  0  0  0
   -0.6592    2.3092    0.0000 H   0  0  0  0  0  0  0  0  0  0  0  0
   -1.3737    0.4678    0.0000 H   0  0  0  0  0  0  0  0  0  0  0  0
  1  4  2  0  0  0  0
  1  5  2  0  0  0  0
  1  6  1  0  0  0  0
  1 12  1  0  0  0  0
  2 10  1  0  0  0  0
  2 16  1  0  0  0  0
  3 10  2  0  0  0  0
  8  7  1  6  0  0  0
  8  9  1  0  0  0  0
  8 10  1  0  0  0  0
  8 28  1  1  0  0  0
  9 11  1  0  0  0  0
  9 13  1  1  0  0  0
  9 29  1  6  0  0  0
 11 21  1  0  0  0  0
 12 14  2  0  0  0  0
 12 15  1  0  0  0  0
 14 19  1  0  0  0  0
 15 20  2  0  0  0  0
 16 17  1  0  0  0  0
 17 22  2  0  0  0  0
 17 23  1  0  0  0  0
 18 19  2  0  0  0  0
 18 20  1  0  0  0  0
 18 24  1  0  0  0  0
 22 25  1  0  0  0  0
 23 26  2  0  0  0  0
 25 27  2  0  0  0  0
 26 27  1  0  0  0  0
M  END
> <PUBCHEM_COMPOUND_ID_TYPE>
0

> <PUBCHEM_TOTAL_CHARGE>
0

> <PUBCHEM_SUBSTANCE_ID>
310928851

> <PUBCHEM_SUBSTANCE_VERSION>
1

> <PUBCHEM_EXT_DATASOURCE_NAME>
11752

> <PUBCHEM_EXT_DATASOURCE_REGID>
BD18772

> <PUBCHEM_SUBSTANCE_SYNONYM>
(2S,3S)-Benzyl 2-amino-3-methylpentanoate 4-methylbenzenesulfonate
16652-75-8

> <PUBCHEM_GENERIC_REGISTRY_NAME>
16652-75-8

> <PUBCHEM_XREF_EXT_ID>
BD18772

> <PUBCHEM_EXT_DATASOURCE_URL>
http://www.bidepharmatech.com/en/index.html

> <PUBCHEM_EXT_SUBSTANCE_URL>
http://www.bidepharmatech.com/en/goodsview_goodscode_BD18772.html

> <PUBCHEM_CID_ASSOCIATIONS>
14074464  1
6101  2
7350013  2

> <PUBCHEM_COORDINATE_TYPE>
1
3

> <PUBCHEM_BONDANNOTATIONS>
8  7  6
8  28  5
9  13  5
9  29  6

$$$$
