310945782
  -OEChem-07211613022D

 39 42  0     1  0  0  0  0  0999 V2000
    4.7418    0.9704    0.0000 O   0  0  0  0  0  0  0  0  0  0  0  0
    3.6131   -0.9704    0.0000 O   0  0  0  0  0  0  0  0  0  0  0  0
    1.2457    0.9567    0.0000 O   0  0  0  0  0  0  0  0  0  0  0  0
   -4.5216    0.0619    0.0000 O   0  0  0  0  0  0  0  0  0  0  0  0
   -0.9015   -1.0943    0.0000 O   0  0  0  0  0  0  0  0  0  0  0  0
   -3.0488    0.9567    0.0000 O   0  0  0  0  0  0  0  0  0  0  0  0
    3.4067   -2.7460    0.0000 O   0  0  0  0  0  0  0  0  0  0  0  0
    1.9752   -0.2684    0.0000 N   0  0  0  0  0  0  0  0  0  0  0  0
   -0.1858    0.1445    0.0000 N   0  0  0  0  0  0  0  0  0  0  0  0
   -2.3331   -0.2684    0.0000 N   0  0  0  0  0  0  0  0  0  0  0  0
   -5.0721   -0.5437    0.0000 N   0  0  0  0  0  0  0  0  0  0  0  0
    4.3427    0.2960    0.0000 C   0  0  3  0  0  0  0  0  0  0  0  0
    3.6269   -0.1032    0.0000 C   0  0  0  0  0  0  0  0  0  0  0  0
    3.9435    0.9841    0.0000 C   0  0  0  0  0  0  0  0  0  0  0  0
    2.8974    0.2821    0.0000 C   0  0  3  0  0  0  0  0  0  0  0  0
    5.0721   -0.1170    0.0000 C   0  0  0  0  0  0  0  0  0  0  0  0
    2.9112    1.3420    0.0000 C   0  0  0  0  0  0  0  0  0  0  0  0
    1.2457    0.1445    0.0000 C   0  0  0  0  0  0  0  0  0  0  0  0
    0.5437   -0.2409    0.0000 C   0  0  3  0  0  0  0  0  0  0  0  0
    2.1816    1.7825    0.0000 C   0  0  0  0  0  0  0  0  0  0  0  0
    0.5437   -1.0805    0.0000 C   0  0  0  0  0  0  0  0  0  0  0  0
   -0.8878   -0.2271    0.0000 C   0  0  0  0  0  0  0  0  0  0  0  0
    1.2732   -1.4796    0.0000 C   0  0  0  0  0  0  0  0  0  0  0  0
   -1.6311    0.1721    0.0000 C   0  0  3  0  0  0  0  0  0  0  0  0
    1.4522    1.4384    0.0000 C   0  0  0  0  0  0  0  0  0  0  0  0
    2.0990    2.5808    0.0000 C   0  0  0  0  0  0  0  0  0  0  0  0
   -3.0488    0.1445    0.0000 C   0  0  0  0  0  0  0  0  0  0  0  0
   -3.7508   -0.2409    0.0000 C   0  0  0  0  0  0  0  0  0  0  0  0
    1.2732   -2.3055    0.0000 C   0  0  0  0  0  0  0  0  0  0  0  0
    1.9614   -1.0805    0.0000 C   0  0  0  0  0  0  0  0  0  0  0  0
    0.8878    2.0440    0.0000 C   0  0  0  0  0  0  0  0  0  0  0  0
    1.3007    2.7460    0.0000 C   0  0  0  0  0  0  0  0  0  0  0  0
    2.6910   -2.2918    0.0000 C   0  0  0  0  0  0  0  0  0  0  0  0
    1.9752   -2.7047    0.0000 C   0  0  0  0  0  0  0  0  0  0  0  0
    2.6910   -1.4796    0.0000 C   0  0  0  0  0  0  0  0  0  0  0  0
   -3.8609   -1.0667    0.0000 C   0  0  0  0  0  0  0  0  0  0  0  0
   -1.6035    0.9979    0.0000 C   0  0  0  0  0  0  0  0  0  0  0  0
   -4.6592   -1.2319    0.0000 C   0  0  0  0  0  0  0  0  0  0  0  0
    4.1224   -2.2918    0.0000 C   0  0  0  0  0  0  0  0  0  0  0  0
  1 12  1  0  0  0  0
  1 14  1  0  0  0  0
  2 13  2  0  0  0  0
  3 18  2  0  0  0  0
  4 11  1  0  0  0  0
  4 28  1  0  0  0  0
  5 22  2  0  0  0  0
  6 27  2  0  0  0  0
  7 33  1  0  0  0  0
  7 39  1  0  0  0  0
  8 15  1  0  0  0  0
  8 18  1  0  0  0  0
  9 19  1  0  0  0  0
  9 22  1  0  0  0  0
 10 24  1  0  0  0  0
 10 27  1  0  0  0  0
 11 38  2  0  0  0  0
 12 13  1  0  0  0  0
 12 14  1  0  0  0  0
 12 16  1  0  0  0  0
 13 15  1  0  0  0  0
 15 17  1  0  0  0  0
 17 20  1  0  0  0  0
 18 19  1  0  0  0  0
 19 21  1  0  0  0  0
 20 25  1  0  0  0  0
 20 26  1  0  0  0  0
 21 23  1  0  0  0  0
 22 24  1  0  0  0  0
 23 29  2  0  0  0  0
 23 30  1  0  0  0  0
 24 37  1  0  0  0  0
 25 31  1  0  0  0  0
 26 32  1  0  0  0  0
 27 28  1  0  0  0  0
 28 36  2  0  0  0  0
 29 34  1  0  0  0  0
 30 35  2  0  0  0  0
 31 32  1  0  0  0  0
 33 34  2  0  0  0  0
 33 35  1  0  0  0  0
 36 38  1  0  0  0  0
M  END
> <PUBCHEM_COMPOUND_ID_TYPE>
0

> <PUBCHEM_TOTAL_CHARGE>
0

> <PUBCHEM_SUBSTANCE_ID>
310945782

> <PUBCHEM_SUBSTANCE_VERSION>
1

> <PUBCHEM_EXT_DATASOURCE_NAME>
4488

> <PUBCHEM_EXT_DATASOURCE_REGID>
SCHEMBL16123886

> <PUBCHEM_SUBSTANCE_COMMENT>
InChI=1S/C28H36N4O7/c1-17(30-27(36)23-12-13-29-39-23)25(34)32-22(15-19-8-10-20(37-3)11-9-19)26(35)31-21(14-18-6-4-5-7-18)24(33)28(2)16-38-28/h8-13,17-18,21-22H,4-7,14-16H2,1-3H3,(H,30,36)(H,31,35)(H,32,34)
InChIKey=PUOOSUZLHLPKCX-UHFFFAOYSA-N

> <PUBCHEM_SUBSTANCE_SYNONYM>
SCHEMBL16123886

> <PUBCHEM_XREF_EXT_ID>
SCHEMBL16123886

> <PUBCHEM_EXT_DATASOURCE_URL>
https://www.surechembl.org/

> <PUBCHEM_EXT_SUBSTANCE_URL>
https://www.surechembl.org/chemical/SCHEMBL16123886

> <PUBCHEM_CID_ASSOCIATIONS>
117611769  1

> <PUBCHEM_COORDINATE_TYPE>
1
3

$$$$
