310946548
  -OEChem-07211613022D

 18 17  0     1  0  0  0  0  0999 V2000
   -5.8816  -10.2091    0.0000 O   0  0  0  0  0  0  0  0  0  0  0  0
   -6.5960   -8.1466    0.0000 O   0  0  0  0  0  0  0  0  0  0  0  0
   -5.8816   -9.3841    0.0000 O   0  0  0  0  0  0  0  0  0  0  0  0
   -6.5960  -11.4466    0.0000 O   0  0  0  0  0  0  0  0  0  0  0  0
   -9.1917   -7.8049    0.0000 O   0  0  0  0  0  0  0  0  0  0  0  0
  -10.2021   -8.8153    0.0000 O   0  0  0  0  0  0  0  0  0  0  0  0
   -7.3105  -10.2091    0.0000 N   0  0  0  0  0  0  0  0  0  0  0  0
   -7.3105   -9.3841    0.0000 C   0  0  3  0  0  0  0  0  0  0  0  0
   -6.5960   -8.9716    0.0000 C   0  0  0  0  0  0  0  0  0  0  0  0
   -6.5960  -10.6216    0.0000 C   0  0  0  0  0  0  0  0  0  0  0  0
   -8.0250   -8.9716    0.0000 C   0  0  0  0  0  0  0  0  0  0  0  0
   -8.8219   -9.1851    0.0000 C   0  0  0  0  0  0  0  0  0  0  0  0
   -9.4052   -8.6018    0.0000 C   0  0  0  0  0  0  0  0  0  0  0  0
   -5.1671  -10.6216    0.0000 C   0  0  0  0  0  0  0  0  0  0  0  0
   -4.4526  -10.2091    0.0000 C   0  0  0  0  0  0  0  0  0  0  0  0
   -3.7382  -10.6216    0.0000 C   0  0  0  0  0  0  0  0  0  0  0  0
   -3.0237  -10.2091    0.0000 C   0  0  0  0  0  0  0  0  0  0  0  0
   -2.3092  -10.6216    0.0000 C   0  0  0  0  0  0  0  0  0  0  0  0
  1 10  1  0  0  0  0
  1 14  1  0  0  0  0
  2  9  2  0  0  0  0
  3  9  1  0  0  0  0
  4 10  2  0  0  0  0
  5 13  2  0  0  0  0
  6 13  1  0  0  0  0
  7  8  1  0  0  0  0
  7 10  1  0  0  0  0
  8  9  1  0  0  0  0
  8 11  1  0  0  0  0
 11 12  1  0  0  0  0
 12 13  1  0  0  0  0
 14 15  1  0  0  0  0
 15 16  1  0  0  0  0
 16 17  1  0  0  0  0
 17 18  1  0  0  0  0
M  END
> <PUBCHEM_COMPOUND_ID_TYPE>
0

> <PUBCHEM_TOTAL_CHARGE>
0

> <PUBCHEM_SUBSTANCE_ID>
310946548

> <PUBCHEM_SUBSTANCE_VERSION>
1

> <PUBCHEM_EXT_DATASOURCE_NAME>
4488

> <PUBCHEM_EXT_DATASOURCE_REGID>
SCHEMBL16124669

> <PUBCHEM_SUBSTANCE_COMMENT>
InChI=1S/C11H19NO6/c1-2-3-4-7-18-11(17)12-8(10(15)16)5-6-9(13)14/h8H,2-7H2,1H3,(H,12,17)(H,13,14)(H,15,16)
InChIKey=OITLTPYASOZLGQ-UHFFFAOYSA-N

> <PUBCHEM_SUBSTANCE_SYNONYM>
SCHEMBL16124669

> <PUBCHEM_XREF_EXT_ID>
SCHEMBL16124669

> <PUBCHEM_EXT_DATASOURCE_URL>
https://www.surechembl.org/

> <PUBCHEM_EXT_SUBSTANCE_URL>
https://www.surechembl.org/chemical/SCHEMBL16124669

> <PUBCHEM_CID_ASSOCIATIONS>
117612450  1

> <PUBCHEM_COORDINATE_TYPE>
1
3

$$$$
