310939480
  -OEChem-07211613022D

 25 27  0     1  0  0  0  0  0999 V2000
    1.6020   -2.0679    0.0000 O   0  0  0  0  0  0  0  0  0  0  0  0
    0.1731   -2.0679    0.0000 O   0  0  0  0  0  0  0  0  0  0  0  0
   -2.5173   -0.0857    0.0000 O   0  0  0  0  0  0  0  0  0  0  0  0
   -3.0310    1.0800    0.0000 O   0  0  0  0  0  0  0  0  0  0  0  0
   -0.0713    2.4804    0.0000 N   0  0  0  0  0  0  0  0  0  0  0  0
    0.8876   -0.0054    0.0000 C   0  0  0  0  0  0  0  0  0  0  0  0
    0.1196    0.2960    0.0000 C   0  0  0  0  0  0  0  0  0  0  0  0
    0.8876   -0.8304    0.0000 C   0  0  0  0  0  0  0  0  0  0  0  0
    1.6020    0.4071    0.0000 C   0  0  0  0  0  0  0  0  0  0  0  0
   -0.1236    1.0843    0.0000 C   0  0  0  0  0  0  0  0  0  0  0  0
    1.6020   -1.2429    0.0000 C   0  0  0  0  0  0  0  0  0  0  0  0
    2.3165   -0.8304    0.0000 C   0  0  0  0  0  0  0  0  0  0  0  0
    0.3412    1.7660    0.0000 C   0  0  3  0  0  0  0  0  0  0  0  0
    2.3165   -0.0054    0.0000 C   0  0  0  0  0  0  0  0  0  0  0  0
   -0.3451   -0.3857    0.0000 C   0  0  0  0  0  0  0  0  0  0  0  0
    1.7250    1.2229    0.0000 C   0  0  0  0  0  0  0  0  0  0  0  0
   -0.8916    1.3857    0.0000 C   0  0  0  0  0  0  0  0  0  0  0  0
    1.1638    1.8276    0.0000 C   0  0  0  0  0  0  0  0  0  0  0  0
   -1.6060    0.9732    0.0000 C   0  0  0  0  0  0  0  0  0  0  0  0
    0.1731   -1.2429    0.0000 C   0  0  0  0  0  0  0  0  0  0  0  0
   -1.7290    0.1574    0.0000 C   0  0  0  0  0  0  0  0  0  0  0  0
   -1.1678   -0.4473    0.0000 C   0  0  0  0  0  0  0  0  0  0  0  0
    3.0310   -1.2429    0.0000 C   0  0  0  0  0  0  0  0  0  0  0  0
   -2.2877    1.4380    0.0000 C   0  0  0  0  0  0  0  0  0  0  0  0
    2.3165   -2.4804    0.0000 C   0  0  0  0  0  0  0  0  0  0  0  0
  1 11  1  0  0  0  0
  1 25  1  0  0  0  0
  2 20  1  0  0  0  0
  3 21  2  0  0  0  0
  4 24  1  0  0  0  0
  5 13  1  0  0  0  0
  6  7  1  0  0  0  0
  6  8  2  0  0  0  0
  6  9  1  0  0  0  0
  7 10  2  0  0  0  0
  7 15  1  0  0  0  0
  8 11  1  0  0  0  0
  8 20  1  0  0  0  0
  9 14  2  0  0  0  0
  9 16  1  0  0  0  0
 10 13  1  0  0  0  0
 10 17  1  0  0  0  0
 11 12  2  0  0  0  0
 12 14  1  0  0  0  0
 12 23  1  0  0  0  0
 13 18  1  0  0  0  0
 15 22  2  0  0  0  0
 16 18  1  0  0  0  0
 17 19  2  0  0  0  0
 19 21  1  0  0  0  0
 19 24  1  0  0  0  0
 21 22  1  0  0  0  0
M  END
> <PUBCHEM_COMPOUND_ID_TYPE>
0

> <PUBCHEM_TOTAL_CHARGE>
0

> <PUBCHEM_SUBSTANCE_ID>
310939480

> <PUBCHEM_SUBSTANCE_VERSION>
1

> <PUBCHEM_EXT_DATASOURCE_NAME>
4488

> <PUBCHEM_EXT_DATASOURCE_REGID>
SCHEMBL16117407

> <PUBCHEM_SUBSTANCE_COMMENT>
InChI=1S/C20H23NO4/c1-11-7-12-3-5-17(21)15-8-13(9-22)18(24)6-4-14(15)19(12)16(10-23)20(11)25-2/h4,6-8,17,22-23H,3,5,9-10,21H2,1-2H3
InChIKey=SMTRJWKLIJWYBS-UHFFFAOYSA-N

> <PUBCHEM_SUBSTANCE_SYNONYM>
SCHEMBL16117407

> <PUBCHEM_XREF_EXT_ID>
SCHEMBL16117407

> <PUBCHEM_EXT_DATASOURCE_URL>
https://www.surechembl.org/

> <PUBCHEM_EXT_SUBSTANCE_URL>
https://www.surechembl.org/chemical/SCHEMBL16117407

> <PUBCHEM_CID_ASSOCIATIONS>
117606790  1

> <PUBCHEM_COORDINATE_TYPE>
1
3

$$$$
