310941186
  -OEChem-07211613022D

 41 44  0     1  0  0  0  0  0999 V2000
    4.6485    0.6651    0.0000 O   0  0  0  0  0  0  0  0  0  0  0  0
    3.5123   -1.2886    0.0000 O   0  0  0  0  0  0  0  0  0  0  0  0
    1.3509    0.7759    0.0000 O   0  0  0  0  0  0  0  0  0  0  0  0
   -0.8105   -1.2886    0.0000 O   0  0  0  0  0  0  0  0  0  0  0  0
   -2.9720    0.7759    0.0000 O   0  0  0  0  0  0  0  0  0  0  0  0
    3.5123   -2.9512    0.0000 O   0  0  0  0  0  0  0  0  0  0  0  0
    2.0852   -0.4572    0.0000 N   0  0  0  0  0  0  0  0  0  0  0  0
   -0.0900   -0.0415    0.0000 N   0  0  0  0  0  0  0  0  0  0  0  0
   -3.7756   -1.2886    0.0000 N   0  0  3  0  0  0  0  0  0  0  0  0
   -2.2515   -0.4572    0.0000 N   0  0  0  0  0  0  0  0  0  0  0  0
    4.2467   -0.0138    0.0000 C   0  0  3  0  0  0  0  0  0  0  0  0
    3.5262   -0.4157    0.0000 C   0  0  0  0  0  0  0  0  0  0  0  0
    3.8448    0.6789    0.0000 C   0  0  0  0  0  0  0  0  0  0  0  0
    2.7919   -0.0277    0.0000 C   0  0  3  0  0  0  0  0  0  0  0  0
    4.9948   -0.4433    0.0000 C   0  0  0  0  0  0  0  0  0  0  0  0
    2.7919    1.3024    0.0000 C   0  0  0  0  0  0  0  0  0  0  0  0
    1.3509   -0.0415    0.0000 C   0  0  0  0  0  0  0  0  0  0  0  0
    0.6581   -0.4433    0.0000 C   0  0  3  0  0  0  0  0  0  0  0  0
    2.0852    1.7319    0.0000 C   0  0  0  0  0  0  0  0  0  0  0  0
    0.6443   -1.2747    0.0000 C   0  0  0  0  0  0  0  0  0  0  0  0
   -0.7967   -0.4157    0.0000 C   0  0  0  0  0  0  0  0  0  0  0  0
   -3.6786   -0.4295    0.0000 C   0  0  3  0  0  0  0  0  0  0  0  0
    1.3648   -1.6765    0.0000 C   0  0  0  0  0  0  0  0  0  0  0  0
   -1.5171   -0.0277    0.0000 C   0  0  3  0  0  0  0  0  0  0  0  0
   -2.9720   -0.0415    0.0000 C   0  0  0  0  0  0  0  0  0  0  0  0
    2.0852    2.5355    0.0000 C   0  0  0  0  0  0  0  0  0  0  0  0
    1.3648    1.3163    0.0000 C   0  0  0  0  0  0  0  0  0  0  0  0
   -4.4406   -0.1108    0.0000 C   0  0  0  0  0  0  0  0  0  0  0  0
    1.3786   -2.5217    0.0000 C   0  0  0  0  0  0  0  0  0  0  0  0
    2.0714   -1.2747    0.0000 C   0  0  0  0  0  0  0  0  0  0  0  0
   -4.5930   -1.4133    0.0000 C   0  0  0  0  0  0  0  0  0  0  0  0
    1.3509    2.9512    0.0000 C   0  0  0  0  0  0  0  0  0  0  0  0
    0.6581    1.7181    0.0000 C   0  0  0  0  0  0  0  0  0  0  0  0
   -4.9948   -0.7343    0.0000 C   0  0  0  0  0  0  0  0  0  0  0  0
    2.8057   -2.5078    0.0000 C   0  0  0  0  0  0  0  0  0  0  0  0
    2.0852   -2.9096    0.0000 C   0  0  0  0  0  0  0  0  0  0  0  0
    2.8057   -1.6904    0.0000 C   0  0  0  0  0  0  0  0  0  0  0  0
    0.6581    2.5355    0.0000 C   0  0  0  0  0  0  0  0  0  0  0  0
   -1.5033    0.8175    0.0000 C   0  0  0  0  0  0  0  0  0  0  0  0
   -3.1382   -1.8428    0.0000 C   0  0  0  0  0  0  0  0  0  0  0  0
    4.2328   -2.5078    0.0000 C   0  0  0  0  0  0  0  0  0  0  0  0
  1 11  1  0  0  0  0
  1 13  1  0  0  0  0
  2 12  2  0  0  0  0
  3 17  2  0  0  0  0
  4 21  2  0  0  0  0
  5 25  2  0  0  0  0
  6 35  1  0  0  0  0
  6 41  1  0  0  0  0
  7 14  1  0  0  0  0
  7 17  1  0  0  0  0
  8 18  1  0  0  0  0
  8 21  1  0  0  0  0
  9 22  1  0  0  0  0
  9 31  1  0  0  0  0
  9 40  1  0  0  0  0
 10 24  1  0  0  0  0
 10 25  1  0  0  0  0
 11 12  1  0  0  0  0
 11 13  1  0  0  0  0
 11 15  1  0  0  0  0
 12 14  1  0  0  0  0
 14 16  1  0  0  0  0
 16 19  1  0  0  0  0
 17 18  1  0  0  0  0
 18 20  1  0  0  0  0
 19 26  2  0  0  0  0
 19 27  1  0  0  0  0
 20 23  1  0  0  0  0
 21 24  1  0  0  0  0
 22 25  1  0  0  0  0
 22 28  1  0  0  0  0
 23 29  2  0  0  0  0
 23 30  1  0  0  0  0
 24 39  1  0  0  0  0
 26 32  1  0  0  0  0
 27 33  2  0  0  0  0
 28 34  1  0  0  0  0
 29 36  1  0  0  0  0
 30 37  2  0  0  0  0
 31 34  1  0  0  0  0
 32 38  2  0  0  0  0
 33 38  1  0  0  0  0
 35 36  2  0  0  0  0
 35 37  1  0  0  0  0
M  END
> <PUBCHEM_COMPOUND_ID_TYPE>
0

> <PUBCHEM_TOTAL_CHARGE>
0

> <PUBCHEM_SUBSTANCE_ID>
310941186

> <PUBCHEM_SUBSTANCE_VERSION>
1

> <PUBCHEM_EXT_DATASOURCE_NAME>
4488

> <PUBCHEM_EXT_DATASOURCE_REGID>
SCHEMBL16119146

> <PUBCHEM_SUBSTANCE_COMMENT>
InChI=1S/C31H40N4O6/c1-20(32-30(39)26-11-8-16-35(26)3)28(37)34-25(18-22-12-14-23(40-4)15-13-22)29(38)33-24(27(36)31(2)19-41-31)17-21-9-6-5-7-10-21/h5-7,9-10,12-15,20,24-26H,8,11,16-19H2,1-4H3,(H,32,39)(H,33,38)(H,34,37)
InChIKey=BNGHLDNCDCCLFZ-UHFFFAOYSA-N

> <PUBCHEM_SUBSTANCE_SYNONYM>
SCHEMBL16119146

> <PUBCHEM_XREF_EXT_ID>
SCHEMBL16119146

> <PUBCHEM_EXT_DATASOURCE_URL>
https://www.surechembl.org/

> <PUBCHEM_EXT_SUBSTANCE_URL>
https://www.surechembl.org/chemical/SCHEMBL16119146

> <PUBCHEM_CID_ASSOCIATIONS>
117608060  1

> <PUBCHEM_COORDINATE_TYPE>
1
3

$$$$
