310939849
  -OEChem-07211613022D

 13 13  0     1  0  0  0  0  0999 V2000
    2.5029    0.3942    0.0000 O   0  0  0  0  0  0  0  0  0  0  0  0
   -0.3646    0.3942    0.0000 N   0  0  3  0  0  0  0  0  0  0  0  0
   -1.8033    1.2219    0.0000 N   0  0  0  0  0  0  0  0  0  0  0  0
   -1.0741    0.0098    0.0000 C   0  0  0  0  0  0  0  0  0  0  0  0
   -1.7935    0.4237    0.0000 C   0  0  0  0  0  0  0  0  0  0  0  0
   -1.0741   -0.8179    0.0000 C   0  0  0  0  0  0  0  0  0  0  0  0
   -2.5029    0.0098    0.0000 C   0  0  0  0  0  0  0  0  0  0  0  0
    0.3646    0.0098    0.0000 C   0  0  0  0  0  0  0  0  0  0  0  0
   -1.7836   -1.2219    0.0000 C   0  0  0  0  0  0  0  0  0  0  0  0
   -2.5029   -0.8179    0.0000 C   0  0  0  0  0  0  0  0  0  0  0  0
   -0.3646    1.2219    0.0000 C   0  0  0  0  0  0  0  0  0  0  0  0
    1.0642    0.4139    0.0000 C   0  0  0  0  0  0  0  0  0  0  0  0
    1.8033    0.0098    0.0000 C   0  0  0  0  0  0  0  0  0  0  0  0
  1 13  1  0  0  0  0
  2  4  1  0  0  0  0
  2  8  1  0  0  0  0
  2 11  1  0  0  0  0
  3  5  1  0  0  0  0
  4  5  2  0  0  0  0
  4  6  1  0  0  0  0
  5  7  1  0  0  0  0
  6  9  2  0  0  0  0
  7 10  2  0  0  0  0
  8 12  1  0  0  0  0
  9 10  1  0  0  0  0
 12 13  1  0  0  0  0
M  END
> <PUBCHEM_COMPOUND_ID_TYPE>
0

> <PUBCHEM_TOTAL_CHARGE>
0

> <PUBCHEM_SUBSTANCE_ID>
310939849

> <PUBCHEM_SUBSTANCE_VERSION>
1

> <PUBCHEM_EXT_DATASOURCE_NAME>
4488

> <PUBCHEM_EXT_DATASOURCE_REGID>
SCHEMBL16117779

> <PUBCHEM_SUBSTANCE_COMMENT>
InChI=1S/C10H16N2O/c1-12(7-4-8-13)10-6-3-2-5-9(10)11/h2-3,5-6,13H,4,7-8,11H2,1H3
InChIKey=ATDILWQBEARROW-UHFFFAOYSA-N

> <PUBCHEM_SUBSTANCE_SYNONYM>
SCHEMBL16117779

> <PUBCHEM_XREF_EXT_ID>
SCHEMBL16117779

> <PUBCHEM_EXT_DATASOURCE_URL>
https://www.surechembl.org/

> <PUBCHEM_EXT_SUBSTANCE_URL>
https://www.surechembl.org/chemical/SCHEMBL16117779

> <PUBCHEM_CID_ASSOCIATIONS>
11961605  1

> <PUBCHEM_COORDINATE_TYPE>
1
3

$$$$
