310946698
  -OEChem-07211613022D

 22 22  0     1  0  0  0  0  0999 V2000
   -0.5730    3.4466    0.0000 O   0  0  0  0  0  0  0  0  0  0  0  0
   -0.5730    2.6216    0.0000 O   0  0  0  0  0  0  0  0  0  0  0  0
    0.1415    2.2091    0.0000 O   0  0  0  0  0  0  0  0  0  0  0  0
   -1.2874    4.6841    0.0000 N   0  0  0  0  0  0  0  0  0  0  0  0
   -2.0019    3.4466    0.0000 C   0  0  0  0  0  0  0  0  0  0  0  0
   -1.2874    3.8591    0.0000 C   0  0  0  0  0  0  0  0  0  0  0  0
   -2.0019    2.6216    0.0000 C   0  0  0  0  0  0  0  0  0  0  0  0
   -1.2874    2.2091    0.0000 C   0  0  0  0  0  0  0  0  0  0  0  0
   -2.7164    3.8591    0.0000 C   0  0  0  0  0  0  0  0  0  0  0  0
   -2.7164    2.2091    0.0000 C   0  0  0  0  0  0  0  0  0  0  0  0
   -2.0019    5.0966    0.0000 C   0  0  0  0  0  0  0  0  0  0  0  0
   -0.5730    5.0966    0.0000 C   0  0  0  0  0  0  0  0  0  0  0  0
   -3.4308    3.4466    0.0000 C   0  0  0  0  0  0  0  0  0  0  0  0
   -3.4308    2.6216    0.0000 C   0  0  0  0  0  0  0  0  0  0  0  0
   -1.2874    1.3841    0.0000 C   0  0  0  0  0  0  0  0  0  0  0  0
   -2.7164    4.6841    0.0000 C   0  0  0  0  0  0  0  0  0  0  0  0
   -2.0019    5.9216    0.0000 C   0  0  0  0  0  0  0  0  0  0  0  0
    0.1415    4.6841    0.0000 C   0  0  0  0  0  0  0  0  0  0  0  0
   -0.5730    5.9216    0.0000 C   0  0  0  0  0  0  0  0  0  0  0  0
   -0.5730    0.9716    0.0000 C   0  0  0  0  0  0  0  0  0  0  0  0
    0.1415    1.3841    0.0000 C   0  0  3  0  0  0  0  0  0  0  0  0
    0.8560    0.9716    0.0000 C   0  0  0  0  0  0  0  0  0  0  0  0
  1  6  2  0  0  0  0
  2  8  2  0  0  0  0
  3 21  1  0  0  0  0
  4  6  1  0  0  0  0
  4 11  1  0  0  0  0
  4 12  1  0  0  0  0
  5  6  1  0  0  0  0
  5  7  1  0  0  0  0
  5  9  2  0  0  0  0
  7  8  1  0  0  0  0
  7 10  2  0  0  0  0
  8 15  1  0  0  0  0
  9 13  1  0  0  0  0
 10 14  1  0  0  0  0
 11 16  1  0  0  0  0
 11 17  1  0  0  0  0
 12 18  1  0  0  0  0
 12 19  1  0  0  0  0
 13 14  2  0  0  0  0
 15 20  1  0  0  0  0
 20 21  1  0  0  0  0
 21 22  1  0  0  0  0
M  END
> <PUBCHEM_COMPOUND_ID_TYPE>
0

> <PUBCHEM_TOTAL_CHARGE>
0

> <PUBCHEM_SUBSTANCE_ID>
310946698

> <PUBCHEM_SUBSTANCE_VERSION>
1

> <PUBCHEM_EXT_DATASOURCE_NAME>
4488

> <PUBCHEM_EXT_DATASOURCE_REGID>
SCHEMBL16124822

> <PUBCHEM_SUBSTANCE_COMMENT>
InChI=1S/C18H27NO3/c1-12(2)19(13(3)4)18(22)16-9-7-6-8-15(16)17(21)11-10-14(5)20/h6-9,12-14,20H,10-11H2,1-5H3
InChIKey=MWSCDSFYOAQYDJ-UHFFFAOYSA-N

> <PUBCHEM_SUBSTANCE_SYNONYM>
SCHEMBL16124822

> <PUBCHEM_XREF_EXT_ID>
SCHEMBL16124822

> <PUBCHEM_EXT_DATASOURCE_URL>
https://www.surechembl.org/

> <PUBCHEM_EXT_SUBSTANCE_URL>
https://www.surechembl.org/chemical/SCHEMBL16124822

> <PUBCHEM_CID_ASSOCIATIONS>
15224507  1

> <PUBCHEM_COORDINATE_TYPE>
1
3

$$$$
