310941088
  -OEChem-07211613022D

 44 47  0     1  0  0  0  0  0999 V2000
    5.0710   -1.3370    0.0000 O   0  0  0  0  0  0  0  0  0  0  0  0
    3.9349    0.6442    0.0000 O   0  0  0  0  0  0  0  0  0  0  0  0
    1.7735   -1.4479    0.0000 O   0  0  0  0  0  0  0  0  0  0  0  0
    2.4939    3.1382    0.0000 O   0  0  0  0  0  0  0  0  0  0  0  0
    3.9349    2.3069    0.0000 O   0  0  0  0  0  0  0  0  0  0  0  0
   -0.3741    0.6442    0.0000 O   0  0  0  0  0  0  0  0  0  0  0  0
   -2.5355   -1.4479    0.0000 O   0  0  0  0  0  0  0  0  0  0  0  0
   -5.4035   -1.4479    0.0000 O   0  0  0  0  0  0  0  0  0  0  0  0
    2.5078   -0.1870    0.0000 N   0  0  0  0  0  0  0  0  0  0  0  0
    0.3464   -0.6027    0.0000 N   0  0  0  0  0  0  0  0  0  0  0  0
   -1.8150   -0.1870    0.0000 N   0  0  0  0  0  0  0  0  0  0  0  0
   -3.9625   -0.6027    0.0000 N   0  0  0  0  0  0  0  0  0  0  0  0
    4.6554   -0.5889    0.0000 C   0  0  3  0  0  0  0  0  0  0  0  0
    3.9349   -0.1870    0.0000 C   0  0  0  0  0  0  0  0  0  0  0  0
    4.2535   -1.2816    0.0000 C   0  0  0  0  0  0  0  0  0  0  0  0
    3.2283   -0.5749    0.0000 C   0  0  3  0  0  0  0  0  0  0  0  0
    5.4035   -0.1593    0.0000 C   0  0  0  0  0  0  0  0  0  0  0  0
    3.2144   -1.9190    0.0000 C   0  0  0  0  0  0  0  0  0  0  0  0
    1.7873   -0.5611    0.0000 C   0  0  0  0  0  0  0  0  0  0  0  0
    1.0530   -0.1593    0.0000 C   0  0  3  0  0  0  0  0  0  0  0  0
    2.5078   -2.3208    0.0000 C   0  0  0  0  0  0  0  0  0  0  0  0
    1.0807    0.6720    0.0000 C   0  0  0  0  0  0  0  0  0  0  0  0
    1.7873    1.0876    0.0000 C   0  0  0  0  0  0  0  0  0  0  0  0
    2.5078    2.3346    0.0000 C   0  0  0  0  0  0  0  0  0  0  0  0
   -0.3741   -0.1870    0.0000 C   0  0  0  0  0  0  0  0  0  0  0  0
    1.8012    1.9328    0.0000 C   0  0  0  0  0  0  0  0  0  0  0  0
    3.2283    1.9190    0.0000 C   0  0  0  0  0  0  0  0  0  0  0  0
    1.7735   -1.9190    0.0000 C   0  0  0  0  0  0  0  0  0  0  0  0
    2.5078   -3.1520    0.0000 C   0  0  0  0  0  0  0  0  0  0  0  0
    2.5078    0.6859    0.0000 C   0  0  0  0  0  0  0  0  0  0  0  0
    3.2283    1.0876    0.0000 C   0  0  0  0  0  0  0  0  0  0  0  0
   -1.0807   -0.5749    0.0000 C   0  0  3  0  0  0  0  0  0  0  0  0
    1.0807   -2.3346    0.0000 C   0  0  0  0  0  0  0  0  0  0  0  0
    1.7873   -3.5677    0.0000 C   0  0  0  0  0  0  0  0  0  0  0  0
    1.0807   -3.1520    0.0000 C   0  0  0  0  0  0  0  0  0  0  0  0
   -2.5216   -0.5611    0.0000 C   0  0  0  0  0  0  0  0  0  0  0  0
   -1.0945   -1.4201    0.0000 C   0  0  0  0  0  0  0  0  0  0  0  0
   -3.2560   -0.1732    0.0000 C   0  0  0  0  0  0  0  0  0  0  0  0
    3.2421    3.5677    0.0000 C   0  0  0  0  0  0  0  0  0  0  0  0
    4.6831    1.9190    0.0000 C   0  0  0  0  0  0  0  0  0  0  0  0
   -3.9625   -1.4063    0.0000 C   0  0  0  0  0  0  0  0  0  0  0  0
   -4.7107   -0.1732    0.0000 C   0  0  0  0  0  0  0  0  0  0  0  0
   -4.6692   -1.8219    0.0000 C   0  0  0  0  0  0  0  0  0  0  0  0
   -5.3896   -0.5749    0.0000 C   0  0  0  0  0  0  0  0  0  0  0  0
  1 13  1  0  0  0  0
  1 15  1  0  0  0  0
  2 14  2  0  0  0  0
  3 19  2  0  0  0  0
  4 24  1  0  0  0  0
  4 39  1  0  0  0  0
  5 27  1  0  0  0  0
  5 40  1  0  0  0  0
  6 25  2  0  0  0  0
  7 36  2  0  0  0  0
  8 43  1  0  0  0  0
  8 44  1  0  0  0  0
  9 16  1  0  0  0  0
  9 19  1  0  0  0  0
 10 20  1  0  0  0  0
 10 25  1  0  0  0  0
 11 32  1  0  0  0  0
 11 36  1  0  0  0  0
 12 38  1  0  0  0  0
 12 41  1  0  0  0  0
 12 42  1  0  0  0  0
 13 14  1  0  0  0  0
 13 15  1  0  0  0  0
 13 17  1  0  0  0  0
 14 16  1  0  0  0  0
 16 18  1  0  0  0  0
 18 21  1  0  0  0  0
 19 20  1  0  0  0  0
 20 22  1  0  0  0  0
 21 28  2  0  0  0  0
 21 29  1  0  0  0  0
 22 23  1  0  0  0  0
 23 26  1  0  0  0  0
 23 30  2  0  0  0  0
 24 26  2  0  0  0  0
 24 27  1  0  0  0  0
 25 32  1  0  0  0  0
 27 31  2  0  0  0  0
 28 33  1  0  0  0  0
 29 34  2  0  0  0  0
 30 31  1  0  0  0  0
 32 37  1  0  0  0  0
 33 35  2  0  0  0  0
 34 35  1  0  0  0  0
 36 38  1  0  0  0  0
 41 43  1  0  0  0  0
 42 44  1  0  0  0  0
M  END
> <PUBCHEM_COMPOUND_ID_TYPE>
0

> <PUBCHEM_TOTAL_CHARGE>
0

> <PUBCHEM_SUBSTANCE_ID>
310941088

> <PUBCHEM_SUBSTANCE_VERSION>
1

> <PUBCHEM_EXT_DATASOURCE_NAME>
4488

> <PUBCHEM_EXT_DATASOURCE_REGID>
SCHEMBL16119048

> <PUBCHEM_SUBSTANCE_COMMENT>
InChI=1S/C32H42N4O8/c1-21(33-28(37)19-36-12-14-43-15-13-36)30(39)35-25(17-23-10-11-26(41-3)27(18-23)42-4)31(40)34-24(29(38)32(2)20-44-32)16-22-8-6-5-7-9-22/h5-11,18,21,24-25H,12-17,19-20H2,1-4H3,(H,33,37)(H,34,40)(H,35,39)
InChIKey=WONLFCSLQQWUEP-UHFFFAOYSA-N

> <PUBCHEM_SUBSTANCE_SYNONYM>
SCHEMBL16119048

> <PUBCHEM_XREF_EXT_ID>
SCHEMBL16119048

> <PUBCHEM_EXT_DATASOURCE_URL>
https://www.surechembl.org/

> <PUBCHEM_EXT_SUBSTANCE_URL>
https://www.surechembl.org/chemical/SCHEMBL16119048

> <PUBCHEM_CID_ASSOCIATIONS>
117607973  1

> <PUBCHEM_COORDINATE_TYPE>
1
3

$$$$
