310934681
  -OEChem-07211613022D

 14 15  0     1  0  0  0  0  0999 V2000
    3.5871    0.0000    0.0000 O   0  0  0  0  0  0  0  0  0  0  0  0
    4.4468   -1.4526    0.0000 O   0  0  0  0  0  0  0  0  0  0  0  0
    1.2747   -1.6305    0.0000 N   0  0  0  0  0  0  0  0  0  0  0  0
    4.4468   -0.0297    0.0000 N   0  0  0  0  0  0  0  0  0  0  0  0
    3.2017   -0.7412    0.0000 C   0  0  3  0  0  0  0  0  0  0  0  0
    1.9418   -1.1561    0.0000 C   0  0  3  0  0  0  0  0  0  0  0  0
    2.7273   -1.4082    0.0000 C   0  0  0  0  0  0  0  0  0  0  0  0
    2.7273   -0.0741    0.0000 C   0  0  0  0  0  0  0  0  0  0  0  0
    4.0317   -0.7412    0.0000 C   0  0  0  0  0  0  0  0  0  0  0  0
    1.9418   -0.3409    0.0000 C   0  0  0  0  0  0  0  0  0  0  0  0
    1.2599   -2.4605    0.0000 C   0  0  0  0  0  0  0  0  0  0  0  0
    0.4891   -1.3637    0.0000 C   0  0  0  0  0  0  0  0  0  0  0  0
    0.4891   -2.6977    0.0000 C   0  0  0  0  0  0  0  0  0  0  0  0
    0.0000   -2.0307    0.0000 C   0  0  0  0  0  0  0  0  0  0  0  0
  1  5  1  0  0  0  0
  2  9  2  0  0  0  0
  3  6  1  0  0  0  0
  3 11  1  0  0  0  0
  3 12  1  0  0  0  0
  4  9  1  0  0  0  0
  5  7  1  0  0  0  0
  5  8  1  0  0  0  0
  5  9  1  0  0  0  0
  6  7  1  0  0  0  0
  6 10  1  0  0  0  0
  8 10  1  0  0  0  0
 11 13  1  0  0  0  0
 12 14  1  0  0  0  0
 13 14  1  0  0  0  0
M  END
> <PUBCHEM_COMPOUND_ID_TYPE>
0

> <PUBCHEM_TOTAL_CHARGE>
0

> <PUBCHEM_SUBSTANCE_ID>
310934681

> <PUBCHEM_SUBSTANCE_VERSION>
1

> <PUBCHEM_EXT_DATASOURCE_NAME>
4488

> <PUBCHEM_EXT_DATASOURCE_REGID>
SCHEMBL16112180

> <PUBCHEM_SUBSTANCE_COMMENT>
InChI=1S/C10H18N2O2/c11-9(13)10(14)4-3-8(7-10)12-5-1-2-6-12/h8,14H,1-7H2,(H2,11,13)
InChIKey=UXSFKSCBAQYZBV-UHFFFAOYSA-N

> <PUBCHEM_SUBSTANCE_SYNONYM>
SCHEMBL16112180

> <PUBCHEM_XREF_EXT_ID>
SCHEMBL16112180

> <PUBCHEM_EXT_DATASOURCE_URL>
https://www.surechembl.org/

> <PUBCHEM_EXT_SUBSTANCE_URL>
https://www.surechembl.org/chemical/SCHEMBL16112180

> <PUBCHEM_CID_ASSOCIATIONS>
117602845  1

> <PUBCHEM_COORDINATE_TYPE>
1
3

$$$$
