310942283
  -OEChem-07211613022D

 23 25  0     1  0  0  0  0  0999 V2000
    0.3789    1.8671    0.0000 O   0  0  0  0  0  0  0  0  0  0  0  0
   -2.1288   -0.8336    0.0000 O   0  0  0  0  0  0  0  0  0  0  0  0
   -1.4261   -2.0737    0.0000 O   0  0  0  0  0  0  0  0  0  0  0  0
    0.5443   -0.4203    0.0000 N   0  0  0  0  0  0  0  0  0  0  0  0
    1.3572   -0.5443    0.0000 N   0  0  0  0  0  0  0  0  0  0  0  0
    2.5146    0.6683    0.0000 N   0  0  0  0  0  0  0  0  0  0  0  0
    0.0758    0.2687    0.0000 C   0  0  0  0  0  0  0  0  0  0  0  0
    0.3652    1.0541    0.0000 C   0  0  3  0  0  0  0  0  0  0  0  0
   -0.6821    0.0482    0.0000 C   0  0  0  0  0  0  0  0  0  0  0  0
   -0.7372   -0.7647    0.0000 C   0  0  0  0  0  0  0  0  0  0  0  0
    0.0345   -1.0816    0.0000 C   0  0  0  0  0  0  0  0  0  0  0  0
    1.1643    1.1781    0.0000 C   0  0  0  0  0  0  0  0  0  0  0  0
   -1.4261   -1.2194    0.0000 C   0  0  0  0  0  0  0  0  0  0  0  0
    0.3238   -1.8395    0.0000 C   0  0  0  0  0  0  0  0  0  0  0  0
   -0.4341    1.2608    0.0000 C   0  0  0  0  0  0  0  0  0  0  0  0
   -1.3434    0.5719    0.0000 C   0  0  0  0  0  0  0  0  0  0  0  0
    1.6466   -1.3159    0.0000 C   0  0  0  0  0  0  0  0  0  0  0  0
    1.1367   -1.9773    0.0000 C   0  0  0  0  0  0  0  0  0  0  0  0
    1.7017    0.5443    0.0000 C   0  0  0  0  0  0  0  0  0  0  0  0
    1.4812    1.9498    0.0000 C   0  0  0  0  0  0  0  0  0  0  0  0
    2.2804    2.0737    0.0000 C   0  0  0  0  0  0  0  0  0  0  0  0
    2.8040    1.4399    0.0000 C   0  0  0  0  0  0  0  0  0  0  0  0
   -2.8040   -1.2608    0.0000 C   0  0  0  0  0  0  0  0  0  0  0  0
  1  8  1  0  0  0  0
  2 13  1  0  0  0  0
  2 23  1  0  0  0  0
  3 13  2  0  0  0  0
  4  5  1  0  0  0  0
  4  7  1  0  0  0  0
  4 11  1  0  0  0  0
  5 17  2  0  0  0  0
  6 19  1  0  0  0  0
  6 22  2  0  0  0  0
  7  8  1  0  0  0  0
  7  9  2  0  0  0  0
  8 12  1  0  0  0  0
  8 15  1  0  0  0  0
  9 10  1  0  0  0  0
  9 16  1  0  0  0  0
 10 11  2  0  0  0  0
 10 13  1  0  0  0  0
 11 14  1  0  0  0  0
 12 19  2  0  0  0  0
 12 20  1  0  0  0  0
 14 18  2  0  0  0  0
 17 18  1  0  0  0  0
 20 21  2  0  0  0  0
 21 22  1  0  0  0  0
M  END
> <PUBCHEM_COMPOUND_ID_TYPE>
0

> <PUBCHEM_TOTAL_CHARGE>
0

> <PUBCHEM_SUBSTANCE_ID>
310942283

> <PUBCHEM_SUBSTANCE_VERSION>
1

> <PUBCHEM_EXT_DATASOURCE_NAME>
4488

> <PUBCHEM_EXT_DATASOURCE_REGID>
SCHEMBL16120318

> <PUBCHEM_SUBSTANCE_COMMENT>
InChI=1S/C17H17N3O3/c1-11-14(16(21)23-3)13-7-5-9-19-20(13)15(11)17(2,22)12-6-4-8-18-10-12/h4-10,22H,1-3H3
InChIKey=RYIQXUQNEOEAIM-UHFFFAOYSA-N

> <PUBCHEM_SUBSTANCE_SYNONYM>
SCHEMBL16120318

> <PUBCHEM_XREF_EXT_ID>
SCHEMBL16120318

> <PUBCHEM_EXT_DATASOURCE_URL>
https://www.surechembl.org/

> <PUBCHEM_EXT_SUBSTANCE_URL>
https://www.surechembl.org/chemical/SCHEMBL16120318

> <PUBCHEM_CID_ASSOCIATIONS>
117608932  1

> <PUBCHEM_COORDINATE_TYPE>
1
3

$$$$
