310940717
  -OEChem-07211613022D

 15 16  0     1  0  0  0  0  0999 V2000
   -1.5412    0.6377    0.0000 S   0  0  0  0  0  0  0  0  0  0  0  0
   -2.3309   -0.5770    0.0000 S   0  0  0  0  0  0  0  0  0  0  0  0
   -0.8580   -0.5011    0.0000 N   0  0  0  0  0  0  0  0  0  0  0  0
    2.1334   -0.1518    0.0000 N   0  0  3  0  0  0  0  0  0  0  0  0
   -0.3264    0.1215    0.0000 C   0  0  0  0  0  0  0  0  0  0  0  0
    0.4935    0.0152    0.0000 C   0  0  0  0  0  0  0  0  0  0  0  0
   -1.6172   -0.1518    0.0000 C   0  0  0  0  0  0  0  0  0  0  0  0
   -0.7212    0.8048    0.0000 C   0  0  0  0  0  0  0  0  0  0  0  0
    0.8276   -0.7136    0.0000 C   0  0  0  0  0  0  0  0  0  0  0  0
    1.6475   -0.8048    0.0000 C   0  0  3  0  0  0  0  0  0  0  0  0
    0.9794    0.6833    0.0000 C   0  0  0  0  0  0  0  0  0  0  0  0
    1.7994    0.5922    0.0000 C   0  0  0  0  0  0  0  0  0  0  0  0
    1.7994   -0.3340    0.0000 C   0  0  0  0  0  0  0  0  0  0  0  0
    2.9534   -0.1518    0.0000 C   0  0  0  0  0  0  0  0  0  0  0  0
   -2.9534   -0.2429    0.0000 C   0  0  0  0  0  0  0  0  0  0  0  0
  1  7  1  0  0  0  0
  1  8  1  0  0  0  0
  2  7  1  0  0  0  0
  2 15  1  0  0  0  0
  3  5  1  0  0  0  0
  3  7  2  0  0  0  0
  4 10  1  0  0  0  0
  4 12  1  0  0  0  0
  4 14  1  0  0  0  0
  5  6  1  0  0  0  0
  5  8  2  0  0  0  0
  6  9  2  0  0  0  0
  6 11  1  0  0  0  0
  9 10  1  0  0  0  0
 10 13  1  0  0  0  0
 11 12  2  0  0  0  0
M  END
> <PUBCHEM_COMPOUND_ID_TYPE>
0

> <PUBCHEM_TOTAL_CHARGE>
0

> <PUBCHEM_SUBSTANCE_ID>
310940717

> <PUBCHEM_SUBSTANCE_VERSION>
1

> <PUBCHEM_EXT_DATASOURCE_NAME>
4488

> <PUBCHEM_EXT_DATASOURCE_REGID>
SCHEMBL16118674

> <PUBCHEM_SUBSTANCE_COMMENT>
InChI=1S/C11H14N2S2/c1-8-6-9(4-5-13(8)2)10-7-15-11(12-10)14-3/h4-8H,1-3H3
InChIKey=KEHBWTQHCPIZEX-UHFFFAOYSA-N

> <PUBCHEM_SUBSTANCE_SYNONYM>
SCHEMBL16118674

> <PUBCHEM_XREF_EXT_ID>
SCHEMBL16118674

> <PUBCHEM_EXT_DATASOURCE_URL>
https://www.surechembl.org/

> <PUBCHEM_EXT_SUBSTANCE_URL>
https://www.surechembl.org/chemical/SCHEMBL16118674

> <PUBCHEM_CID_ASSOCIATIONS>
117607674  1

> <PUBCHEM_COORDINATE_TYPE>
1
3

$$$$
