310931630
  -OEChem-07211613022D

 23 26  0     1  0  0  0  0  0999 V2000
    3.2860    0.0000    0.0000 O   0  0  0  0  0  0  0  0  0  0  0  0
    4.4143   -1.9598    0.0000 O   0  0  0  0  0  0  0  0  0  0  0  0
    5.1270   -0.7126    0.0000 O   0  0  0  0  0  0  0  0  0  0  0  0
    0.0000   -2.3754    0.0000 O   0  0  0  0  0  0  0  0  0  0  0  0
    3.7017   -0.7126    0.0000 C   0  0  3  0  0  0  0  0  0  0  0  0
    2.8703   -0.7126    0.0000 C   0  0  3  0  0  0  0  0  0  0  0  0
    3.4840   -1.5243    0.0000 C   0  0  0  0  0  0  0  0  0  0  0  0
    4.4143   -1.1283    0.0000 C   0  0  0  0  0  0  0  0  0  0  0  0
    2.1577   -1.1283    0.0000 C   0  0  0  0  0  0  0  0  0  0  0  0
    4.0778   -2.1181    0.0000 C   0  0  0  0  0  0  0  0  0  0  0  0
    2.6922   -1.7420    0.0000 C   0  0  0  0  0  0  0  0  0  0  0  0
    2.1577   -1.9598    0.0000 C   0  0  0  0  0  0  0  0  0  0  0  0
    1.4450   -0.7324    0.0000 C   0  0  0  0  0  0  0  0  0  0  0  0
    5.1270   -2.3754    0.0000 C   0  0  0  0  0  0  0  0  0  0  0  0
    3.8601   -2.9099    0.0000 C   0  0  0  0  0  0  0  0  0  0  0  0
    2.4744   -2.5338    0.0000 C   0  0  0  0  0  0  0  0  0  0  0  0
    1.4450   -2.3754    0.0000 C   0  0  0  0  0  0  0  0  0  0  0  0
    0.7324   -1.1283    0.0000 C   0  0  0  0  0  0  0  0  0  0  0  0
    5.9386   -2.3754    0.0000 C   0  0  0  0  0  0  0  0  0  0  0  0
    5.5625   -3.0881    0.0000 C   0  0  0  0  0  0  0  0  0  0  0  0
    0.7324   -1.9598    0.0000 C   0  0  0  0  0  0  0  0  0  0  0  0
    3.0683   -3.1277    0.0000 C   0  0  0  0  0  0  0  0  0  0  0  0
    0.0000   -3.1871    0.0000 C   0  0  0  0  0  0  0  0  0  0  0  0
  1  5  1  0  0  0  0
  1  6  1  0  0  0  0
  2  8  1  0  0  0  0
  2 14  1  0  0  0  0
  3  8  2  0  0  0  0
  4 21  1  0  0  0  0
  4 23  1  0  0  0  0
  5  6  1  0  0  0  0
  5  7  1  0  0  0  0
  5  8  1  0  0  0  0
  6  9  1  0  0  0  0
  7 10  2  0  0  0  0
  7 11  1  0  0  0  0
  9 12  2  0  0  0  0
  9 13  1  0  0  0  0
 10 15  1  0  0  0  0
 11 16  2  0  0  0  0
 12 17  1  0  0  0  0
 13 18  2  0  0  0  0
 14 19  1  0  0  0  0
 14 20  1  0  0  0  0
 15 22  2  0  0  0  0
 16 22  1  0  0  0  0
 17 21  2  0  0  0  0
 18 21  1  0  0  0  0
 19 20  1  0  0  0  0
M  END
> <PUBCHEM_COMPOUND_ID_TYPE>
0

> <PUBCHEM_TOTAL_CHARGE>
0

> <PUBCHEM_SUBSTANCE_ID>
310931630

> <PUBCHEM_SUBSTANCE_VERSION>
1

> <PUBCHEM_EXT_DATASOURCE_NAME>
4488

> <PUBCHEM_EXT_DATASOURCE_REGID>
SCHEMBL16108956

> <PUBCHEM_SUBSTANCE_COMMENT>
InChI=1S/C19H18O4/c1-21-15-9-7-13(8-10-15)17-19(23-17,14-5-3-2-4-6-14)18(20)22-16-11-12-16/h2-10,16-17H,11-12H2,1H3
InChIKey=GWCJGDLHGQOFGU-UHFFFAOYSA-N

> <PUBCHEM_SUBSTANCE_SYNONYM>
SCHEMBL16108956

> <PUBCHEM_XREF_EXT_ID>
SCHEMBL16108956

> <PUBCHEM_EXT_DATASOURCE_URL>
https://www.surechembl.org/

> <PUBCHEM_EXT_SUBSTANCE_URL>
https://www.surechembl.org/chemical/SCHEMBL16108956

> <PUBCHEM_CID_ASSOCIATIONS>
117600347  1

> <PUBCHEM_COORDINATE_TYPE>
1
3

$$$$
