310946772
  -OEChem-07211613022D

 17 18  0     1  0  0  0  0  0999 V2000
   -2.4198    0.6122    0.0000 N   0  0  0  0  0  0  0  0  0  0  0  0
   -1.7076   -1.0247    0.0000 N   0  0  0  0  0  0  0  0  0  0  0  0
   -1.2227   -1.6921    0.0000 N   0  0  0  0  0  0  0  0  0  0  0  0
   -2.4198    1.4372    0.0000 N   0  0  0  0  0  0  0  0  0  0  0  0
    0.9909   -0.6122    0.0000 N   0  0  3  0  0  0  0  0  0  0  0  0
    3.1343   -0.1997    0.0000 N   0  0  0  0  0  0  0  0  0  0  0  0
   -1.2227   -0.3572    0.0000 C   0  0  0  0  0  0  0  0  0  0  0  0
   -1.6352    0.3572    0.0000 C   0  0  0  0  0  0  0  0  0  0  0  0
   -0.4381   -0.6122    0.0000 C   0  0  0  0  0  0  0  0  0  0  0  0
   -1.1503    1.0247    0.0000 C   0  0  0  0  0  0  0  0  0  0  0  0
   -0.4381   -1.4372    0.0000 C   0  0  0  0  0  0  0  0  0  0  0  0
    0.2764   -0.1997    0.0000 C   0  0  0  0  0  0  0  0  0  0  0  0
   -1.6352    1.6921    0.0000 C   0  0  0  0  0  0  0  0  0  0  0  0
   -3.1343    0.1997    0.0000 C   0  0  0  0  0  0  0  0  0  0  0  0
    1.7053   -0.1997    0.0000 C   0  0  0  0  0  0  0  0  0  0  0  0
    0.9909   -1.4372    0.0000 C   0  0  0  0  0  0  0  0  0  0  0  0
    2.4198   -0.6122    0.0000 C   0  0  0  0  0  0  0  0  0  0  0  0
  1  4  1  0  0  0  0
  1  8  1  0  0  0  0
  1 14  1  0  0  0  0
  2  3  1  0  0  0  0
  2  7  2  0  0  0  0
  3 11  1  0  0  0  0
  4 13  2  0  0  0  0
  5 12  1  0  0  0  0
  5 15  1  0  0  0  0
  5 16  1  0  0  0  0
  6 17  1  0  0  0  0
  7  8  1  0  0  0  0
  7  9  1  0  0  0  0
  8 10  2  0  0  0  0
  9 11  2  0  0  0  0
  9 12  1  0  0  0  0
 10 13  1  0  0  0  0
 15 17  1  0  0  0  0
M  END
> <PUBCHEM_COMPOUND_ID_TYPE>
0

> <PUBCHEM_TOTAL_CHARGE>
0

> <PUBCHEM_SUBSTANCE_ID>
310946772

> <PUBCHEM_SUBSTANCE_VERSION>
1

> <PUBCHEM_EXT_DATASOURCE_NAME>
4488

> <PUBCHEM_EXT_DATASOURCE_REGID>
SCHEMBL16124896

> <PUBCHEM_SUBSTANCE_COMMENT>
InChI=1S/C11H18N6/c1-16(6-4-12)8-9-7-13-15-11(9)10-3-5-14-17(10)2/h3,5,7H,4,6,8,12H2,1-2H3,(H,13,15)
InChIKey=XAWXQDSEILJURQ-UHFFFAOYSA-N

> <PUBCHEM_SUBSTANCE_SYNONYM>
SCHEMBL16124896

> <PUBCHEM_XREF_EXT_ID>
SCHEMBL16124896

> <PUBCHEM_EXT_DATASOURCE_URL>
https://www.surechembl.org/

> <PUBCHEM_EXT_SUBSTANCE_URL>
https://www.surechembl.org/chemical/SCHEMBL16124896

> <PUBCHEM_CID_ASSOCIATIONS>
86296132  1

> <PUBCHEM_COORDINATE_TYPE>
1
3

$$$$
