310942340
  -OEChem-07211613022D

 39 42  0     1  0  0  0  0  0999 V2000
    5.1966    2.5268    0.0000 F   0  0  0  0  0  0  0  0  0  0  0  0
    5.7071    1.8735    0.0000 F   0  0  0  0  0  0  0  0  0  0  0  0
    5.4008    1.1077    0.0000 F   0  0  0  0  0  0  0  0  0  0  0  0
   -1.4089   -2.4860    0.0000 O   0  0  0  0  0  0  0  0  0  0  0  0
   -2.8485   -0.0153    0.0000 O   0  0  0  0  0  0  0  0  0  0  0  0
   -4.2778   -2.4860    0.0000 O   0  0  0  0  0  0  0  0  0  0  0  0
    4.2778    0.2195    0.0000 O   0  0  0  0  0  0  0  0  0  0  0  0
    0.5922   -0.9546    0.0000 N   0  0  0  0  0  0  0  0  0  0  0  0
    1.3987   -1.1179    0.0000 N   0  0  0  0  0  0  0  0  0  0  0  0
   -2.1338   -1.2507    0.0000 N   0  0  0  0  0  0  0  0  0  0  0  0
    2.9608    0.7912    0.0000 N   0  0  0  0  0  0  0  0  0  0  0  0
   -4.9924   -1.2609    0.0000 N   0  0  0  0  0  0  0  0  0  0  0  0
    0.1838   -0.2399    0.0000 C   0  0  0  0  0  0  0  0  0  0  0  0
   -0.7146   -1.2302    0.0000 C   0  0  0  0  0  0  0  0  0  0  0  0
    0.0511   -1.5672    0.0000 C   0  0  0  0  0  0  0  0  0  0  0  0
   -0.6126   -0.4135    0.0000 C   0  0  0  0  0  0  0  0  0  0  0  0
    0.5105    0.5258    0.0000 C   0  0  3  0  0  0  0  0  0  0  0  0
   -1.4089   -1.6386    0.0000 C   0  0  0  0  0  0  0  0  0  0  0  0
    0.3063   -2.3533    0.0000 C   0  0  0  0  0  0  0  0  0  0  0  0
    1.3170    0.6075    0.0000 C   0  0  0  0  0  0  0  0  0  0  0  0
   -1.2558    0.1276    0.0000 C   0  0  0  0  0  0  0  0  0  0  0  0
    1.6642   -1.9040    0.0000 C   0  0  0  0  0  0  0  0  0  0  0  0
    1.1128   -2.5268    0.0000 C   0  0  0  0  0  0  0  0  0  0  0  0
    0.0102    1.1792    0.0000 C   0  0  0  0  0  0  0  0  0  0  0  0
    1.6540    1.3630    0.0000 C   0  0  0  0  0  0  0  0  0  0  0  0
    1.8173   -0.0562    0.0000 C   0  0  0  0  0  0  0  0  0  0  0  0
   -3.5529   -1.2507    0.0000 C   0  0  0  0  0  0  0  0  0  0  0  0
   -2.8383   -1.6693    0.0000 C   0  0  0  0  0  0  0  0  0  0  0  0
    2.4707    1.4549    0.0000 C   0  0  0  0  0  0  0  0  0  0  0  0
    2.6238    0.0255    0.0000 C   0  0  0  0  0  0  0  0  0  0  0  0
   -3.5529   -0.4237    0.0000 C   0  0  0  0  0  0  0  0  0  0  0  0
   -4.2778   -1.6386    0.0000 C   0  0  0  0  0  0  0  0  0  0  0  0
    3.7571    0.8933    0.0000 C   0  0  0  0  0  0  0  0  0  0  0  0
   -4.2778   -0.0255    0.0000 C   0  0  0  0  0  0  0  0  0  0  0  0
   -4.9822   -0.4237    0.0000 C   0  0  0  0  0  0  0  0  0  0  0  0
    4.0838    1.6386    0.0000 C   0  0  0  0  0  0  0  0  0  0  0  0
    4.9108    1.7714    0.0000 C   0  0  0  0  0  0  0  0  0  0  0  0
   -5.7071   -0.0153    0.0000 C   0  0  0  0  0  0  0  0  0  0  0  0
   -2.8587    0.8218    0.0000 C   0  0  0  0  0  0  0  0  0  0  0  0
  1 37  1  0  0  0  0
  2 37  1  0  0  0  0
  3 37  1  0  0  0  0
  4 18  2  0  0  0  0
  5 31  1  0  0  0  0
  5 39  1  0  0  0  0
  6 32  2  0  0  0  0
  7 33  2  0  0  0  0
  8  9  1  0  0  0  0
  8 13  1  0  0  0  0
  8 15  1  0  0  0  0
  9 22  2  0  0  0  0
 10 18  1  0  0  0  0
 10 28  1  0  0  0  0
 11 29  1  0  0  0  0
 11 30  1  0  0  0  0
 11 33  1  0  0  0  0
 12 32  1  0  0  0  0
 12 35  1  0  0  0  0
 13 16  2  0  0  0  0
 13 17  1  0  0  0  0
 14 15  2  0  0  0  0
 14 16  1  0  0  0  0
 14 18  1  0  0  0  0
 15 19  1  0  0  0  0
 16 21  1  0  0  0  0
 17 20  1  0  0  0  0
 17 24  1  0  0  0  0
 19 23  2  0  0  0  0
 20 25  1  0  0  0  0
 20 26  1  0  0  0  0
 22 23  1  0  0  0  0
 25 29  1  0  0  0  0
 26 30  1  0  0  0  0
 27 28  1  0  0  0  0
 27 31  2  0  0  0  0
 27 32  1  0  0  0  0
 31 34  1  0  0  0  0
 33 36  1  0  0  0  0
 34 35  2  0  0  0  0
 35 38  1  0  0  0  0
 36 37  1  0  0  0  0
M  END
> <PUBCHEM_COMPOUND_ID_TYPE>
0

> <PUBCHEM_TOTAL_CHARGE>
0

> <PUBCHEM_SUBSTANCE_ID>
310942340

> <PUBCHEM_SUBSTANCE_VERSION>
1

> <PUBCHEM_EXT_DATASOURCE_NAME>
4488

> <PUBCHEM_EXT_DATASOURCE_REGID>
SCHEMBL16120376

> <PUBCHEM_SUBSTANCE_COMMENT>
InChI=1S/C27H32F3N5O4/c1-15-12-21(39-4)19(25(37)33-15)14-31-26(38)23-17(3)24(35-20(23)6-5-9-32-35)16(2)18-7-10-34(11-8-18)22(36)13-27(28,29)30/h5-6,9,12,16,18H,7-8,10-11,13-14H2,1-4H3,(H,31,38)(H,33,37)
InChIKey=OHWUBTMHONPSSC-UHFFFAOYSA-N

> <PUBCHEM_SUBSTANCE_SYNONYM>
SCHEMBL16120376

> <PUBCHEM_XREF_EXT_ID>
SCHEMBL16120376

> <PUBCHEM_EXT_DATASOURCE_URL>
https://www.surechembl.org/

> <PUBCHEM_EXT_SUBSTANCE_URL>
https://www.surechembl.org/chemical/SCHEMBL16120376

> <PUBCHEM_CID_ASSOCIATIONS>
117608964  1

> <PUBCHEM_COORDINATE_TYPE>
1
3

$$$$
