310945034
  -OEChem-07211613022D

 27 30  0     1  0  0  0  0  0999 V2000
    3.6711    0.8016    0.0000 O   0  0  0  0  0  0  0  0  0  0  0  0
   -0.9964   -1.4923    0.0000 O   0  0  0  0  0  0  0  0  0  0  0  0
   -2.8563    1.7758    0.0000 O   0  0  0  0  0  0  0  0  0  0  0  0
    1.9529   -0.5004    0.0000 N   0  0  0  0  0  0  0  0  0  0  0  0
    3.6002   -0.6775    0.0000 N   0  0  0  0  0  0  0  0  0  0  0  0
   -1.7049   -0.2436    0.0000 N   0  0  0  0  0  0  0  0  0  0  0  0
   -3.4408    0.3499    0.0000 N   0  0  0  0  0  0  0  0  0  0  0  0
    1.1558   -0.2347    0.0000 C   0  0  0  0  0  0  0  0  0  0  0  0
    2.4400    0.1727    0.0000 C   0  0  0  0  0  0  0  0  0  0  0  0
    1.1647    0.5801    0.0000 C   0  0  0  0  0  0  0  0  0  0  0  0
    1.9529    0.8370    0.0000 C   0  0  0  0  0  0  0  0  0  0  0  0
    0.4473   -0.6509    0.0000 C   0  0  0  0  0  0  0  0  0  0  0  0
   -0.2702   -0.2436    0.0000 C   0  0  0  0  0  0  0  0  0  0  0  0
    3.2549    0.0664    0.0000 C   0  0  0  0  0  0  0  0  0  0  0  0
    0.4384    0.9875    0.0000 C   0  0  0  0  0  0  0  0  0  0  0  0
    2.2894   -1.2621    0.0000 C   0  0  0  0  0  0  0  0  0  0  0  0
   -0.2702    0.5801    0.0000 C   0  0  0  0  0  0  0  0  0  0  0  0
   -0.9875   -0.6421    0.0000 C   0  0  0  0  0  0  0  0  0  0  0  0
    3.1132   -1.3418    0.0000 C   0  0  0  0  0  0  0  0  0  0  0  0
   -2.4311   -0.6687    0.0000 C   0  0  3  0  0  0  0  0  0  0  0  0
   -3.2283   -0.4384    0.0000 C   0  0  3  0  0  0  0  0  0  0  0  0
   -2.3868   -1.4835    0.0000 C   0  0  0  0  0  0  0  0  0  0  0  0
   -3.6711   -1.1381    0.0000 C   0  0  0  0  0  0  0  0  0  0  0  0
   -3.1662   -1.7758    0.0000 C   0  0  0  0  0  0  0  0  0  0  0  0
   -2.8652    0.9255    0.0000 C   0  0  0  0  0  0  0  0  0  0  0  0
   -2.1389    0.5270    0.0000 C   0  0  0  0  0  0  0  0  0  0  0  0
   -1.5809    1.1647    0.0000 C   0  0  0  0  0  0  0  0  0  0  0  0
  1 14  2  0  0  0  0
  2 18  2  0  0  0  0
  3 25  2  0  0  0  0
  4  8  1  0  0  0  0
  4  9  1  0  0  0  0
  4 16  1  0  0  0  0
  5 14  1  0  0  0  0
  5 19  1  0  0  0  0
  6 18  1  0  0  0  0
  6 20  1  0  0  0  0
  7 21  1  0  0  0  0
  7 25  1  0  0  0  0
  8 10  1  0  0  0  0
  8 12  2  0  0  0  0
  9 11  2  0  0  0  0
  9 14  1  0  0  0  0
 10 11  1  0  0  0  0
 10 15  2  0  0  0  0
 12 13  1  0  0  0  0
 13 17  2  0  0  0  0
 13 18  1  0  0  0  0
 15 17  1  0  0  0  0
 16 19  1  0  0  0  0
 20 21  1  0  0  0  0
 20 22  1  0  0  0  0
 21 23  1  0  0  0  0
 22 24  1  0  0  0  0
 23 24  1  0  0  0  0
 25 26  1  0  0  0  0
 26 27  2  0  0  0  0
M  END
> <PUBCHEM_COMPOUND_ID_TYPE>
0

> <PUBCHEM_TOTAL_CHARGE>
0

> <PUBCHEM_SUBSTANCE_ID>
310945034

> <PUBCHEM_SUBSTANCE_VERSION>
1

> <PUBCHEM_EXT_DATASOURCE_NAME>
4488

> <PUBCHEM_EXT_DATASOURCE_REGID>
SCHEMBL16123122

> <PUBCHEM_SUBSTANCE_COMMENT>
InChI=1S/C20H22N4O3/c1-2-18(25)22-14-4-3-5-15(14)23-19(26)13-7-6-12-10-17-20(27)21-8-9-24(17)16(12)11-13/h2,6-7,10-11,14-15H,1,3-5,8-9H2,(H,21,27)(H,22,25)(H,23,26)
InChIKey=CPVFPOIQHKPERM-UHFFFAOYSA-N

> <PUBCHEM_SUBSTANCE_SYNONYM>
SCHEMBL16123122

> <PUBCHEM_XREF_EXT_ID>
SCHEMBL16123122

> <PUBCHEM_EXT_DATASOURCE_URL>
https://www.surechembl.org/

> <PUBCHEM_EXT_SUBSTANCE_URL>
https://www.surechembl.org/chemical/SCHEMBL16123122

> <PUBCHEM_CID_ASSOCIATIONS>
117611162  1

> <PUBCHEM_COORDINATE_TYPE>
1
3

$$$$
