310947392
  -OEChem-07211613022D

  9 10  0     1  0  0  0  0  0999 V2000
   -0.4587   -3.4147    0.0000 O   0  0  0  0  0  0  0  0  0  0  0  0
    0.7566   -4.2678    0.0000 N   0  0  0  0  0  0  0  0  0  0  0  0
   -0.6723   -4.2678    0.0000 C   0  0  3  0  0  0  0  0  0  0  0  0
    0.0422   -3.8554    0.0000 C   0  0  3  0  0  0  0  0  0  0  0  0
   -0.6723   -2.6179    0.0000 C   0  0  3  0  0  0  0  0  0  0  0  0
    0.0422   -3.0303    0.0000 C   0  0  0  0  0  0  0  0  0  0  0  0
   -1.3867   -3.8554    0.0000 C   0  0  0  0  0  0  0  0  0  0  0  0
   -1.3867   -3.0303    0.0000 C   0  0  0  0  0  0  0  0  0  0  0  0
    1.4941   -3.8421    0.0000 C   0  0  0  0  0  0  0  0  0  0  0  0
  1  3  1  0  0  0  0
  1  5  1  0  0  0  0
  2  4  1  0  0  0  0
  2  9  1  0  0  0  0
  3  4  1  0  0  0  0
  3  7  1  0  0  0  0
  4  6  1  0  0  0  0
  5  6  1  0  0  0  0
  5  8  1  0  0  0  0
  7  8  2  0  0  0  0
M  END
> <PUBCHEM_COMPOUND_ID_TYPE>
0

> <PUBCHEM_TOTAL_CHARGE>
0

> <PUBCHEM_SUBSTANCE_ID>
310947392

> <PUBCHEM_SUBSTANCE_VERSION>
1

> <PUBCHEM_EXT_DATASOURCE_NAME>
4488

> <PUBCHEM_EXT_DATASOURCE_REGID>
SCHEMBL16125548

> <PUBCHEM_SUBSTANCE_COMMENT>
InChI=1S/C7H11NO/c1-8-6-4-5-2-3-7(6)9-5/h2-3,5-8H,4H2,1H3
InChIKey=LIIYGOBLPAPDDB-UHFFFAOYSA-N

> <PUBCHEM_SUBSTANCE_SYNONYM>
SCHEMBL16125548

> <PUBCHEM_XREF_EXT_ID>
SCHEMBL16125548

> <PUBCHEM_EXT_DATASOURCE_URL>
https://www.surechembl.org/

> <PUBCHEM_EXT_SUBSTANCE_URL>
https://www.surechembl.org/chemical/SCHEMBL16125548

> <PUBCHEM_CID_ASSOCIATIONS>
117274958  1

> <PUBCHEM_COORDINATE_TYPE>
1
3

$$$$
