310936680
  -OEChem-07211613022D

 33 35  0     1  0  0  0  0  0999 V2000
    6.0749   -1.8750    0.0000 Cl  0  0  0  0  0  0  0  0  0  0  0  0
    1.8750    0.0000    0.0000 S   0  0  0  0  0  0  0  0  0  0  0  0
    0.0000   -0.8250    0.0000 F   0  0  0  0  0  0  0  0  0  0  0  0
    1.0500   -1.8375    0.0000 F   0  0  0  0  0  0  0  0  0  0  0  0
    0.5625   -0.2250    0.0000 F   0  0  0  0  0  0  0  0  0  0  0  0
    1.5750   -3.3374    0.0000 F   0  0  0  0  0  0  0  0  0  0  0  0
    4.4249   -3.3374    0.0000 F   0  0  0  0  0  0  0  0  0  0  0  0
    3.0000   -2.5124    0.0000 O   0  0  0  0  0  0  0  0  0  0  0  0
    4.4249   -5.0250    0.0000 O   0  0  0  0  0  0  0  0  0  0  0  0
    5.1374   -6.2624    0.0000 O   0  0  0  0  0  0  0  0  0  0  0  0
    2.2875   -1.2750    0.0000 C   0  0  0  0  0  0  0  0  0  0  0  0
    1.6125   -0.7875    0.0000 C   0  0  0  0  0  0  0  0  0  0  0  0
    2.9625   -0.7875    0.0000 C   0  0  0  0  0  0  0  0  0  0  0  0
    0.8250   -1.0125    0.0000 C   0  0  0  0  0  0  0  0  0  0  0  0
    3.7500   -1.0500    0.0000 C   0  0  0  0  0  0  0  0  0  0  0  0
    2.7000    0.0000    0.0000 C   0  0  0  0  0  0  0  0  0  0  0  0
    2.2875   -2.1000    0.0000 C   0  0  0  0  0  0  0  0  0  0  0  0
    3.0000   -3.3374    0.0000 C   0  0  0  0  0  0  0  0  0  0  0  0
    2.2875   -3.7500    0.0000 C   0  0  0  0  0  0  0  0  0  0  0  0
    3.7125   -3.7500    0.0000 C   0  0  0  0  0  0  0  0  0  0  0  0
    4.3499   -0.5250    0.0000 C   0  0  0  0  0  0  0  0  0  0  0  0
    3.8999   -1.8750    0.0000 C   0  0  0  0  0  0  0  0  0  0  0  0
    3.0000   -5.0250    0.0000 C   0  0  0  0  0  0  0  0  0  0  0  0
    2.2875   -4.5750    0.0000 C   0  0  0  0  0  0  0  0  0  0  0  0
    3.7125   -4.5750    0.0000 C   0  0  0  0  0  0  0  0  0  0  0  0
    5.1374   -0.7875    0.0000 C   0  0  0  0  0  0  0  0  0  0  0  0
    4.6499   -2.1375    0.0000 C   0  0  0  0  0  0  0  0  0  0  0  0
    5.2875   -1.6125    0.0000 C   0  0  0  0  0  0  0  0  0  0  0  0
    3.0000   -5.8500    0.0000 C   0  0  0  0  0  0  0  0  0  0  0  0
    3.7125   -6.2624    0.0000 C   0  0  3  0  0  0  0  0  0  0  0  0
    4.4249   -5.8500    0.0000 C   0  0  0  0  0  0  0  0  0  0  0  0
    3.7125   -7.0874    0.0000 C   0  0  0  0  0  0  0  0  0  0  0  0
    4.4249   -7.4999    0.0000 C   0  0  0  0  0  0  0  0  0  0  0  0
  1 28  1  0  0  0  0
  2 12  1  0  0  0  0
  2 16  1  0  0  0  0
  3 14  1  0  0  0  0
  4 14  1  0  0  0  0
  5 14  1  0  0  0  0
  6 19  1  0  0  0  0
  7 20  1  0  0  0  0
  8 17  1  0  0  0  0
  8 18  1  0  0  0  0
  9 31  2  0  0  0  0
 10 31  1  0  0  0  0
 11 12  2  0  0  0  0
 11 13  1  0  0  0  0
 11 17  1  0  0  0  0
 12 14  1  0  0  0  0
 13 15  1  0  0  0  0
 13 16  2  0  0  0  0
 15 21  2  0  0  0  0
 15 22  1  0  0  0  0
 18 19  2  0  0  0  0
 18 20  1  0  0  0  0
 19 24  1  0  0  0  0
 20 25  2  0  0  0  0
 21 26  1  0  0  0  0
 22 27  2  0  0  0  0
 23 24  2  0  0  0  0
 23 25  1  0  0  0  0
 23 29  1  0  0  0  0
 26 28  2  0  0  0  0
 27 28  1  0  0  0  0
 29 30  1  0  0  0  0
 30 31  1  0  0  0  0
 30 32  1  0  0  0  0
 32 33  1  0  0  0  0
M  END
> <PUBCHEM_COMPOUND_ID_TYPE>
0

> <PUBCHEM_TOTAL_CHARGE>
0

> <PUBCHEM_SUBSTANCE_ID>
310936680

> <PUBCHEM_SUBSTANCE_VERSION>
1

> <PUBCHEM_EXT_DATASOURCE_NAME>
4488

> <PUBCHEM_EXT_DATASOURCE_REGID>
SCHEMBL16114353

> <PUBCHEM_SUBSTANCE_COMMENT>
InChI=1S/C23H18ClF5O3S/c1-2-13(22(30)31)7-12-8-18(25)20(19(26)9-12)32-10-16-17(11-33-21(16)23(27,28)29)14-3-5-15(24)6-4-14/h3-6,8-9,11,13H,2,7,10H2,1H3,(H,30,31)
InChIKey=FLTZSSKDYXXIPH-UHFFFAOYSA-N

> <PUBCHEM_SUBSTANCE_SYNONYM>
SCHEMBL16114353

> <PUBCHEM_XREF_EXT_ID>
SCHEMBL16114353

> <PUBCHEM_EXT_DATASOURCE_URL>
https://www.surechembl.org/

> <PUBCHEM_EXT_SUBSTANCE_URL>
https://www.surechembl.org/chemical/SCHEMBL16114353

> <PUBCHEM_CID_ASSOCIATIONS>
117604586  1

> <PUBCHEM_COORDINATE_TYPE>
1
3

$$$$
