310934773
  -OEChem-07211613022D

 37 42  0     1  0  0  0  0  0999 V2000
    4.2446   -4.5277    0.0000 F   0  0  0  0  0  0  0  0  0  0  0  0
    3.5372   -5.7538    0.0000 O   0  0  0  0  0  0  0  0  0  0  0  0
    0.7074   -3.3014    0.0000 N   0  0  3  0  0  0  0  0  0  0  0  0
    0.0000   -2.0751    0.0000 N   0  0  0  0  0  0  0  0  0  0  0  0
    0.7074   -0.8018    0.0000 N   0  0  0  0  0  0  0  0  0  0  0  0
    2.8297   -6.9801    0.0000 N   0  0  0  0  0  0  0  0  0  0  0  0
    4.9992   -2.4996    0.0000 N   0  0  0  0  0  0  0  0  0  0  0  0
    2.8297   -9.4325    0.0000 N   0  0  0  0  0  0  0  0  0  0  0  0
    1.4149   -2.0751    0.0000 C   0  0  0  0  0  0  0  0  0  0  0  0
    0.7074   -2.4524    0.0000 C   0  0  0  0  0  0  0  0  0  0  0  0
    1.4620   -1.2263    0.0000 C   0  0  0  0  0  0  0  0  0  0  0  0
    2.8297   -2.0751    0.0000 C   0  0  0  0  0  0  0  0  0  0  0  0
    2.1223   -0.8490    0.0000 C   0  0  0  0  0  0  0  0  0  0  0  0
    2.1223   -2.4524    0.0000 C   0  0  0  0  0  0  0  0  0  0  0  0
    1.4149   -4.5277    0.0000 C   0  0  0  0  0  0  0  0  0  0  0  0
    1.4149   -3.6787    0.0000 C   0  0  0  0  0  0  0  0  0  0  0  0
    0.7074   -4.9521    0.0000 C   0  0  0  0  0  0  0  0  0  0  0  0
    2.8297   -1.2263    0.0000 C   0  0  0  0  0  0  0  0  0  0  0  0
    0.0000   -3.6787    0.0000 C   0  0  0  0  0  0  0  0  0  0  0  0
    3.5372   -2.4524    0.0000 C   0  0  0  0  0  0  0  0  0  0  0  0
    2.1223   -5.7538    0.0000 C   0  0  0  0  0  0  0  0  0  0  0  0
    2.1223   -4.9050    0.0000 C   0  0  0  0  0  0  0  0  0  0  0  0
    0.0000   -4.5277    0.0000 C   0  0  0  0  0  0  0  0  0  0  0  0
    0.0000   -1.2263    0.0000 C   0  0  0  0  0  0  0  0  0  0  0  0
    0.7074   -5.7538    0.0000 C   0  0  0  0  0  0  0  0  0  0  0  0
    2.8297   -6.1311    0.0000 C   0  0  0  0  0  0  0  0  0  0  0  0
    1.4149   -6.1311    0.0000 C   0  0  0  0  0  0  0  0  0  0  0  0
    3.5844   -3.3014    0.0000 C   0  0  0  0  0  0  0  0  0  0  0  0
    2.1223    0.0000    0.0000 C   0  0  0  0  0  0  0  0  0  0  0  0
    4.2918   -2.0751    0.0000 C   0  0  0  0  0  0  0  0  0  0  0  0
    4.2446   -3.7259    0.0000 C   0  0  0  0  0  0  0  0  0  0  0  0
    3.5372   -7.3574    0.0000 C   0  0  0  0  0  0  0  0  0  0  0  0
    2.1223   -7.3574    0.0000 C   0  0  0  0  0  0  0  0  0  0  0  0
    4.9992   -3.3014    0.0000 C   0  0  0  0  0  0  0  0  0  0  0  0
    3.5372   -8.2064    0.0000 C   0  0  0  0  0  0  0  0  0  0  0  0
    2.1223   -8.2064    0.0000 C   0  0  0  0  0  0  0  0  0  0  0  0
    2.8297   -8.6308    0.0000 C   0  0  0  0  0  0  0  0  0  0  0  0
  1 31  1  0  0  0  0
  2 26  2  0  0  0  0
  3 10  1  0  0  0  0
  3 16  1  0  0  0  0
  3 19  1  0  0  0  0
  4 10  1  0  0  0  0
  4 24  2  0  0  0  0
  5 11  2  0  0  0  0
  5 24  1  0  0  0  0
  6 26  1  0  0  0  0
  6 32  1  0  0  0  0
  6 33  1  0  0  0  0
  7 30  1  0  0  0  0
  7 34  2  0  0  0  0
  8 37  1  0  0  0  0
  9 10  2  0  0  0  0
  9 11  1  0  0  0  0
  9 14  1  0  0  0  0
 11 13  1  0  0  0  0
 12 14  2  0  0  0  0
 12 18  1  0  0  0  0
 12 20  1  0  0  0  0
 13 18  2  0  0  0  0
 13 29  1  0  0  0  0
 15 16  1  0  0  0  0
 15 17  2  0  0  0  0
 15 22  1  0  0  0  0
 17 23  1  0  0  0  0
 17 25  1  0  0  0  0
 19 23  1  0  0  0  0
 20 28  1  0  0  0  0
 20 30  2  0  0  0  0
 21 22  2  0  0  0  0
 21 26  1  0  0  0  0
 21 27  1  0  0  0  0
 25 27  2  0  0  0  0
 28 31  2  0  0  0  0
 31 34  1  0  0  0  0
 32 35  1  0  0  0  0
 33 36  1  0  0  0  0
 35 37  1  0  0  0  0
 36 37  1  0  0  0  0
M  END
> <PUBCHEM_COMPOUND_ID_TYPE>
0

> <PUBCHEM_TOTAL_CHARGE>
0

> <PUBCHEM_SUBSTANCE_ID>
310934773

> <PUBCHEM_SUBSTANCE_VERSION>
1

> <PUBCHEM_EXT_DATASOURCE_NAME>
4488

> <PUBCHEM_EXT_DATASOURCE_REGID>
SCHEMBL16112276

> <PUBCHEM_SUBSTANCE_COMMENT>
InChI=1S/C29H29FN6O/c1-18-10-21(22-12-24(30)15-32-14-22)13-26-27(18)33-17-34-28(26)36-7-4-19-2-3-20(11-23(19)16-36)29(37)35-8-5-25(31)6-9-35/h2-3,10-15,17,25H,4-9,16,31H2,1H3
InChIKey=NYOAUZDEJQKKIY-UHFFFAOYSA-N

> <PUBCHEM_SUBSTANCE_SYNONYM>
SCHEMBL16112276

> <PUBCHEM_XREF_EXT_ID>
SCHEMBL16112276

> <PUBCHEM_EXT_DATASOURCE_URL>
https://www.surechembl.org/

> <PUBCHEM_EXT_SUBSTANCE_URL>
https://www.surechembl.org/chemical/SCHEMBL16112276

> <PUBCHEM_CID_ASSOCIATIONS>
86301851  1

> <PUBCHEM_COORDINATE_TYPE>
1
3

$$$$
