310932543
  -OEChem-07211613022D

 28 31  0     1  0  0  0  0  0999 V2000
    3.3122   -1.6298    0.0000 O   0  0  0  0  0  0  0  0  0  0  0  0
    4.4425   -3.6014    0.0000 O   0  0  0  0  0  0  0  0  0  0  0  0
    5.1523   -2.3658    0.0000 O   0  0  0  0  0  0  0  0  0  0  0  0
    2.8916   -2.3658    0.0000 C   0  0  0  0  0  0  0  0  0  0  0  0
    3.7328   -2.3658    0.0000 C   0  0  3  0  0  0  0  0  0  0  0  0
    2.1818   -2.7602    0.0000 C   0  0  0  0  0  0  0  0  0  0  0  0
    2.3133   -1.7612    0.0000 C   0  0  0  0  0  0  0  0  0  0  0  0
    4.4425   -2.7602    0.0000 C   0  0  0  0  0  0  0  0  0  0  0  0
    3.5225   -3.1544    0.0000 C   0  0  0  0  0  0  0  0  0  0  0  0
    2.1556   -3.6014    0.0000 C   0  0  0  0  0  0  0  0  0  0  0  0
    1.4984   -1.9716    0.0000 C   0  0  0  0  0  0  0  0  0  0  0  0
    1.4458   -2.3658    0.0000 C   0  0  0  0  0  0  0  0  0  0  0  0
    2.5235   -0.9463    0.0000 C   0  0  0  0  0  0  0  0  0  0  0  0
    4.1008   -3.7591    0.0000 C   0  0  0  0  0  0  0  0  0  0  0  0
    1.4458   -4.0219    0.0000 C   0  0  0  0  0  0  0  0  0  0  0  0
    0.8938   -1.3932    0.0000 C   0  0  0  0  0  0  0  0  0  0  0  0
    0.7360   -2.7602    0.0000 C   0  0  0  0  0  0  0  0  0  0  0  0
    1.9190   -0.3943    0.0000 C   0  0  0  0  0  0  0  0  0  0  0  0
    5.1523   -4.0219    0.0000 C   0  0  0  0  0  0  0  0  0  0  0  0
    0.7360   -3.6014    0.0000 C   0  0  0  0  0  0  0  0  0  0  0  0
    1.1304   -0.6046    0.0000 C   0  0  0  0  0  0  0  0  0  0  0  0
    5.8883   -3.6014    0.0000 C   0  0  0  0  0  0  0  0  0  0  0  0
    5.1786   -4.8369    0.0000 C   0  0  0  0  0  0  0  0  0  0  0  0
    0.0000   -4.0219    0.0000 C   0  0  0  0  0  0  0  0  0  0  0  0
    0.5258    0.0000    0.0000 C   0  0  0  0  0  0  0  0  0  0  0  0
    6.5981   -4.0219    0.0000 C   0  0  0  0  0  0  0  0  0  0  0  0
    5.8883   -5.2574    0.0000 C   0  0  0  0  0  0  0  0  0  0  0  0
    6.5981   -4.8369    0.0000 C   0  0  0  0  0  0  0  0  0  0  0  0
  1  4  1  0  0  0  0
  1  5  1  0  0  0  0
  2  8  1  0  0  0  0
  2 19  1  0  0  0  0
  3  8  2  0  0  0  0
  4  5  1  0  0  0  0
  4  6  1  0  0  0  0
  4  7  1  0  0  0  0
  5  8  1  0  0  0  0
  5  9  1  0  0  0  0
  6 10  2  0  0  0  0
  6 12  1  0  0  0  0
  7 11  2  0  0  0  0
  7 13  1  0  0  0  0
  9 14  1  0  0  0  0
 10 15  1  0  0  0  0
 11 16  1  0  0  0  0
 12 17  2  0  0  0  0
 13 18  2  0  0  0  0
 15 20  2  0  0  0  0
 16 21  2  0  0  0  0
 17 20  1  0  0  0  0
 18 21  1  0  0  0  0
 19 22  2  0  0  0  0
 19 23  1  0  0  0  0
 20 24  1  0  0  0  0
 21 25  1  0  0  0  0
 22 26  1  0  0  0  0
 23 27  2  0  0  0  0
 26 28  2  0  0  0  0
 27 28  1  0  0  0  0
M  END
> <PUBCHEM_COMPOUND_ID_TYPE>
0

> <PUBCHEM_TOTAL_CHARGE>
0

> <PUBCHEM_SUBSTANCE_ID>
310932543

> <PUBCHEM_SUBSTANCE_VERSION>
1

> <PUBCHEM_EXT_DATASOURCE_NAME>
4488

> <PUBCHEM_EXT_DATASOURCE_REGID>
SCHEMBL16109919

> <PUBCHEM_SUBSTANCE_COMMENT>
InChI=1S/C25H24O3/c1-4-24(23(26)27-22-8-6-5-7-9-22)25(28-24,20-14-10-18(2)11-15-20)21-16-12-19(3)13-17-21/h5-17H,4H2,1-3H3
InChIKey=LWWNKXABBXOJHZ-UHFFFAOYSA-N

> <PUBCHEM_SUBSTANCE_SYNONYM>
SCHEMBL16109919

> <PUBCHEM_XREF_EXT_ID>
SCHEMBL16109919

> <PUBCHEM_EXT_DATASOURCE_URL>
https://www.surechembl.org/

> <PUBCHEM_EXT_SUBSTANCE_URL>
https://www.surechembl.org/chemical/SCHEMBL16109919

> <PUBCHEM_CID_ASSOCIATIONS>
117601073  1

> <PUBCHEM_COORDINATE_TYPE>
1
3

$$$$
