310928884
  -OEChem-07211613022D

 11 12  0     1  0  0  0  0  0999 V2000
   -1.0473   -1.2375    0.0000 Br  0  0  0  0  0  0  0  0  0  0  0  0
    1.7617    0.4125    0.0000 O   0  0  0  0  0  0  0  0  0  0  0  0
   -0.3328    0.0000    0.0000 C   0  0  0  0  0  0  0  0  0  0  0  0
   -0.3328    0.8250    0.0000 C   0  0  0  0  0  0  0  0  0  0  0  0
   -1.0473   -0.4125    0.0000 C   0  0  0  0  0  0  0  0  0  0  0  0
    0.4518   -0.2549    0.0000 C   0  0  0  0  0  0  0  0  0  0  0  0
    0.9367    0.4125    0.0000 C   0  0  3  0  0  0  0  0  0  0  0  0
    0.4518    1.0799    0.0000 C   0  0  0  0  0  0  0  0  0  0  0  0
   -1.0473    1.2375    0.0000 C   0  0  0  0  0  0  0  0  0  0  0  0
   -1.7617    0.0000    0.0000 C   0  0  0  0  0  0  0  0  0  0  0  0
   -1.7617    0.8250    0.0000 C   0  0  0  0  0  0  0  0  0  0  0  0
  1  5  1  0  0  0  0
  2  7  1  0  0  0  0
  3  4  2  0  0  0  0
  3  5  1  0  0  0  0
  3  6  1  0  0  0  0
  4  8  1  0  0  0  0
  4  9  1  0  0  0  0
  5 10  2  0  0  0  0
  6  7  1  0  0  0  0
  7  8  1  0  0  0  0
  9 11  2  0  0  0  0
 10 11  1  0  0  0  0
M  END
> <PUBCHEM_COMPOUND_ID_TYPE>
0

> <PUBCHEM_TOTAL_CHARGE>
0

> <PUBCHEM_SUBSTANCE_ID>
310928884

> <PUBCHEM_SUBSTANCE_VERSION>
1

> <PUBCHEM_EXT_DATASOURCE_NAME>
11752

> <PUBCHEM_EXT_DATASOURCE_REGID>
BD268424

> <PUBCHEM_SUBSTANCE_SYNONYM>
125141-73-3
4-Bromo-2,3-dihydro-1H-inden-2-ol

> <PUBCHEM_GENERIC_REGISTRY_NAME>
125141-73-3

> <PUBCHEM_XREF_EXT_ID>
BD268424

> <PUBCHEM_EXT_DATASOURCE_URL>
http://www.bidepharmatech.com/en/index.html

> <PUBCHEM_EXT_SUBSTANCE_URL>
http://www.bidepharmatech.com/en/goodsview_goodscode_BD268424.html

> <PUBCHEM_CID_ASSOCIATIONS>
14515299  1

> <PUBCHEM_COORDINATE_TYPE>
1
3

$$$$
