310938458
  -OEChem-07211613022D

 46 50  0     1  0  0  0  0  0999 V2000
    1.6356   -3.4800    0.0000 O   0  0  0  0  0  0  0  0  0  0  0  0
    3.0624   -0.9744    0.0000 O   0  0  0  0  0  0  0  0  0  0  0  0
    7.2036   -2.4708    0.0000 O   0  0  0  0  0  0  0  0  0  0  0  0
    5.1852   -1.1484    0.0000 O   0  0  0  0  0  0  0  0  0  0  0  0
    7.2036   -3.8976    0.0000 O   0  0  0  0  0  0  0  0  0  0  0  0
    6.0553   -3.1320    0.0000 O   0  0  0  0  0  0  0  0  0  0  0  0
    7.8300   -1.9488    0.0000 O   0  0  0  0  0  0  0  0  0  0  0  0
    2.5752   -2.3316    0.0000 N   0  0  0  0  0  0  0  0  0  0  0  0
    5.4636   -2.5404    0.0000 N   0  0  0  0  0  0  0  0  0  0  0  0
    7.0992   -2.1924    0.0000 N   0  0  0  0  0  0  0  0  0  0  0  0
    8.1432   -3.3408    0.0000 N   0  0  0  0  0  0  0  0  0  0  0  0
    4.6980   -2.7492    0.0000 C   0  0  0  0  0  0  0  0  0  0  0  0
    3.2712   -2.7492    0.0000 C   0  0  0  0  0  0  0  0  0  0  0  0
    4.6980   -3.6192    0.0000 C   0  0  0  0  0  0  0  0  0  0  0  0
    2.4708   -1.5312    0.0000 C   0  0  0  0  0  0  0  0  0  0  0  0
    1.8096   -2.6796    0.0000 C   0  0  0  0  0  0  0  0  0  0  0  0
    5.9508   -3.2016    0.0000 C   0  0  3  0  0  0  0  0  0  0  0  0
    1.6704   -1.3224    0.0000 C   0  0  0  0  0  0  0  0  0  0  0  0
    1.2528   -2.0880    0.0000 C   0  0  0  0  0  0  0  0  0  0  0  0
    3.9672   -2.3664    0.0000 C   0  0  0  0  0  0  0  0  0  0  0  0
    5.4636   -3.8280    0.0000 C   0  0  0  0  0  0  0  0  0  0  0  0
    3.2712   -3.6192    0.0000 C   0  0  0  0  0  0  0  0  0  0  0  0
    3.9672   -4.0020    0.0000 C   0  0  0  0  0  0  0  0  0  0  0  0
    5.7072   -1.7400    0.0000 C   0  0  0  0  0  0  0  0  0  0  0  0
    6.7860   -3.2016    0.0000 C   0  0  0  0  0  0  0  0  0  0  0  0
    1.2528   -0.6264    0.0000 C   0  0  0  0  0  0  0  0  0  0  0  0
    0.4176   -2.0532    0.0000 C   0  0  0  0  0  0  0  0  0  0  0  0
    6.5424   -1.5660    0.0000 C   0  0  0  0  0  0  0  0  0  0  0  0
    0.0000   -1.3572    0.0000 C   0  0  0  0  0  0  0  0  0  0  0  0
    0.4524   -0.6264    0.0000 C   0  0  0  0  0  0  0  0  0  0  0  0
    6.8208   -2.9580    0.0000 C   0  0  0  0  0  0  0  0  0  0  0  0
    8.0040   -2.4708    0.0000 C   0  0  0  0  0  0  0  0  0  0  0  0
    7.3428   -3.5496    0.0000 C   0  0  3  0  0  0  0  0  0  0  0  0
    7.1340   -4.3152    0.0000 C   0  0  3  0  0  0  0  0  0  0  0  0
    8.4216   -1.7748    0.0000 C   0  0  0  0  0  0  0  0  0  0  0  0
    8.3868   -2.5752    0.0000 C   0  0  0  0  0  0  0  0  0  0  0  0
    7.7256   -4.9068    0.0000 C   0  0  0  0  0  0  0  0  0  0  0  0
    9.1872   -2.4012    0.0000 C   0  0  0  0  0  0  0  0  0  0  0  0
    6.3337   -4.5240    0.0000 C   0  0  0  0  0  0  0  0  0  0  0  0
    9.4309   -1.6008    0.0000 C   0  0  0  0  0  0  0  0  0  0  0  0
    8.8741   -1.0092    0.0000 C   0  0  0  0  0  0  0  0  0  0  0  0
   10.2312   -1.3920    0.0000 C   0  0  0  0  0  0  0  0  0  0  0  0
    7.3428   -5.7768    0.0000 C   0  0  0  0  0  0  0  0  0  0  0  0
    9.1176   -0.2088    0.0000 C   0  0  0  0  0  0  0  0  0  0  0  0
   10.4400   -0.5916    0.0000 C   0  0  0  0  0  0  0  0  0  0  0  0
    9.8832    0.0000    0.0000 C   0  0  0  0  0  0  0  0  0  0  0  0
  1 16  2  0  0  0  0
  2 15  2  0  0  0  0
  3 25  1  0  0  0  0
  3 32  1  0  0  0  0
  4 24  2  0  0  0  0
  5 25  2  0  0  0  0
  6 31  2  0  0  0  0
  7 36  2  0  0  0  0
  8 13  1  0  0  0  0
  8 15  1  0  0  0  0
  8 16  1  0  0  0  0
  9 12  1  0  0  0  0
  9 17  1  0  0  0  0
  9 24  1  0  0  0  0
 10 28  1  0  0  0  0
 10 31  1  0  0  0  0
 11 33  1  0  0  0  0
 11 36  1  0  0  0  0
 12 14  2  0  0  0  0
 12 20  1  0  0  0  0
 13 20  2  0  0  0  0
 13 22  1  0  0  0  0
 14 21  1  0  0  0  0
 14 23  1  0  0  0  0
 15 18  1  0  0  0  0
 16 19  1  0  0  0  0
 17 21  1  0  0  0  0
 17 25  1  0  0  0  0
 18 19  2  0  0  0  0
 18 26  1  0  0  0  0
 19 27  1  0  0  0  0
 22 23  2  0  0  0  0
 24 28  1  0  0  0  0
 26 30  2  0  0  0  0
 27 29  2  0  0  0  0
 29 30  1  0  0  0  0
 31 33  1  0  0  0  0
 32 35  1  0  0  0  0
 33 34  1  0  0  0  0
 34 37  1  0  0  0  0
 34 39  1  0  0  0  0
 36 38  1  0  0  0  0
 37 43  1  0  0  0  0
 38 40  1  0  0  0  0
 40 41  2  0  0  0  0
 40 42  1  0  0  0  0
 41 44  1  0  0  0  0
 42 45  2  0  0  0  0
 44 46  2  0  0  0  0
 45 46  1  0  0  0  0
M  END
> <PUBCHEM_COMPOUND_ID_TYPE>
0

> <PUBCHEM_TOTAL_CHARGE>
0

> <PUBCHEM_SUBSTANCE_ID>
310938458

> <PUBCHEM_SUBSTANCE_VERSION>
1

> <PUBCHEM_EXT_DATASOURCE_NAME>
4488

> <PUBCHEM_EXT_DATASOURCE_REGID>
SCHEMBL16116359

> <PUBCHEM_SUBSTANCE_COMMENT>
InChI=1S/C35H36N4O7/c1-4-21(3)31(37-29(40)17-22-11-7-6-8-12-22)32(42)36-20-30(41)39-27-19-24(16-15-23(27)18-28(39)35(45)46-5-2)38-33(43)25-13-9-10-14-26(25)34(38)44/h6-16,19,21,28,31H,4-5,17-18,20H2,1-3H3,(H,36,42)(H,37,40)
InChIKey=SLUPZPMQDWZMMK-UHFFFAOYSA-N

> <PUBCHEM_SUBSTANCE_SYNONYM>
SCHEMBL16116359

> <PUBCHEM_XREF_EXT_ID>
SCHEMBL16116359

> <PUBCHEM_EXT_DATASOURCE_URL>
https://www.surechembl.org/

> <PUBCHEM_EXT_SUBSTANCE_URL>
https://www.surechembl.org/chemical/SCHEMBL16116359

> <PUBCHEM_CID_ASSOCIATIONS>
117605919  1

> <PUBCHEM_COORDINATE_TYPE>
1
3

$$$$
