310939665
  -OEChem-07211613022D

 39 43  0     1  0  0  0  0  0999 V2000
    5.0102    8.7920    0.0000 O   0  0  0  0  0  0  0  0  0  0  0  0
    5.0102   10.4419    0.0000 O   0  0  0  0  0  0  0  0  0  0  0  0
   -2.1341    8.7920    0.0000 O   0  0  0  0  0  0  0  0  0  0  0  0
    1.4852    4.1824    0.0000 O   0  0  0  0  0  0  0  0  0  0  0  0
   -3.5628    7.9670    0.0000 O   0  0  0  0  0  0  0  0  0  0  0  0
    1.4381    9.2044    0.0000 N   0  0  0  0  0  0  0  0  0  0  0  0
    0.7237    7.9670    0.0000 N   0  0  0  0  0  0  0  0  0  0  0  0
    1.4381    6.7296    0.0000 N   0  0  0  0  0  0  0  0  0  0  0  0
    2.8670    4.2547    0.0000 N   0  0  0  0  0  0  0  0  0  0  0  0
   -4.9917    8.7920    0.0000 N   0  0  0  0  0  0  0  0  0  0  0  0
    2.1526    8.7920    0.0000 C   0  0  0  0  0  0  0  0  0  0  0  0
    2.8670    9.2044    0.0000 C   0  0  0  0  0  0  0  0  0  0  0  0
    0.7237    8.7920    0.0000 C   0  0  0  0  0  0  0  0  0  0  0  0
    4.2958    9.2044    0.0000 C   0  0  0  0  0  0  0  0  0  0  0  0
    0.0093    9.2044    0.0000 C   0  0  0  0  0  0  0  0  0  0  0  0
    1.4381    7.5545    0.0000 C   0  0  0  0  0  0  0  0  0  0  0  0
    2.1526    7.9670    0.0000 C   0  0  0  0  0  0  0  0  0  0  0  0
    3.5814    8.7920    0.0000 C   0  0  0  0  0  0  0  0  0  0  0  0
    4.2958   10.0294    0.0000 C   0  0  0  0  0  0  0  0  0  0  0  0
    2.8670   10.0294    0.0000 C   0  0  0  0  0  0  0  0  0  0  0  0
    3.5814   10.4419    0.0000 C   0  0  0  0  0  0  0  0  0  0  0  0
   -0.7052    8.7920    0.0000 C   0  0  0  0  0  0  0  0  0  0  0  0
    0.0093   10.0294    0.0000 C   0  0  0  0  0  0  0  0  0  0  0  0
   -1.4196    9.2044    0.0000 C   0  0  0  0  0  0  0  0  0  0  0  0
    5.7247    9.2044    0.0000 C   0  0  0  0  0  0  0  0  0  0  0  0
   -0.7052   10.4419    0.0000 C   0  0  0  0  0  0  0  0  0  0  0  0
    5.7247   10.0294    0.0000 C   0  0  0  0  0  0  0  0  0  0  0  0
   -1.4196   10.0294    0.0000 C   0  0  0  0  0  0  0  0  0  0  0  0
    2.1526    6.3171    0.0000 C   0  0  0  0  0  0  0  0  0  0  0  0
    2.1526    5.4922    0.0000 C   0  0  0  0  0  0  0  0  0  0  0  0
    2.1996    3.7698    0.0000 C   0  0  0  0  0  0  0  0  0  0  0  0
    2.8670    5.0796    0.0000 C   0  0  0  0  0  0  0  0  0  0  0  0
   -2.8485    9.2044    0.0000 C   0  0  0  0  0  0  0  0  0  0  0  0
    3.5344    3.7698    0.0000 C   0  0  0  0  0  0  0  0  0  0  0  0
    2.4545    2.9853    0.0000 C   0  0  0  0  0  0  0  0  0  0  0  0
   -3.5628    8.7920    0.0000 C   0  0  3  0  0  0  0  0  0  0  0  0
    3.2795    2.9853    0.0000 C   0  0  0  0  0  0  0  0  0  0  0  0
   -4.2773    9.2044    0.0000 C   0  0  0  0  0  0  0  0  0  0  0  0
   -5.7061    9.2044    0.0000 C   0  0  0  0  0  0  0  0  0  0  0  0
  1 14  1  0  0  0  0
  1 25  1  0  0  0  0
  2 19  1  0  0  0  0
  2 27  1  0  0  0  0
  3 24  1  0  0  0  0
  3 33  1  0  0  0  0
  4 31  2  0  0  0  0
  5 36  1  0  0  0  0
  6 11  1  0  0  0  0
  6 13  2  0  0  0  0
  7 13  1  0  0  0  0
  7 16  2  0  0  0  0
  8 16  1  0  0  0  0
  8 29  1  0  0  0  0
  9 31  1  0  0  0  0
  9 32  1  0  0  0  0
  9 34  1  0  0  0  0
 10 38  1  0  0  0  0
 10 39  1  0  0  0  0
 11 12  1  0  0  0  0
 11 17  2  0  0  0  0
 12 18  1  0  0  0  0
 12 20  2  0  0  0  0
 13 15  1  0  0  0  0
 14 18  2  0  0  0  0
 14 19  1  0  0  0  0
 15 22  2  0  0  0  0
 15 23  1  0  0  0  0
 16 17  1  0  0  0  0
 19 21  2  0  0  0  0
 20 21  1  0  0  0  0
 22 24  1  0  0  0  0
 23 26  2  0  0  0  0
 24 28  2  0  0  0  0
 25 27  1  0  0  0  0
 26 28  1  0  0  0  0
 29 30  1  0  0  0  0
 30 32  1  0  0  0  0
 31 35  1  0  0  0  0
 33 36  1  0  0  0  0
 34 37  1  0  0  0  0
 35 37  1  0  0  0  0
 36 38  1  0  0  0  0
M  END
> <PUBCHEM_COMPOUND_ID_TYPE>
0

> <PUBCHEM_TOTAL_CHARGE>
0

> <PUBCHEM_SUBSTANCE_ID>
310939665

> <PUBCHEM_SUBSTANCE_VERSION>
1

> <PUBCHEM_EXT_DATASOURCE_NAME>
4488

> <PUBCHEM_EXT_DATASOURCE_REGID>
SCHEMBL16117595

> <PUBCHEM_SUBSTANCE_COMMENT>
InChI=1S/C29H35N5O5/c1-30-18-22(35)19-39-23-6-2-5-21(15-23)29-32-24(20-8-9-25-26(16-20)38-14-13-37-25)17-27(33-29)31-10-4-12-34-11-3-7-28(34)36/h2,5-6,8-9,15-17,22,30,35H,3-4,7,10-14,18-19H2,1H3,(H,31,32,33)
InChIKey=GFKACJIJFWVQJK-UHFFFAOYSA-N

> <PUBCHEM_SUBSTANCE_SYNONYM>
SCHEMBL16117595

> <PUBCHEM_XREF_EXT_ID>
SCHEMBL16117595

> <PUBCHEM_EXT_DATASOURCE_URL>
https://www.surechembl.org/

> <PUBCHEM_EXT_SUBSTANCE_URL>
https://www.surechembl.org/chemical/SCHEMBL16117595

> <PUBCHEM_CID_ASSOCIATIONS>
85472931  1

> <PUBCHEM_COORDINATE_TYPE>
1
3

$$$$
