310946265
  -OEChem-07211613022D

 23 25  0     1  0  0  0  0  0999 V2000
    3.3627   -3.8966    0.0000 S   0  0  0  0  0  0  0  0  0  0  0  0
    2.5377   -3.8966    0.0000 O   0  0  0  0  0  0  0  0  0  0  0  0
   -0.3202   -3.8966    0.0000 O   0  0  0  0  0  0  0  0  0  0  0  0
   -1.7492   -1.4216    0.0000 O   0  0  0  0  0  0  0  0  0  0  0  0
   -0.3202   -0.5966    0.0000 O   0  0  0  0  0  0  0  0  0  0  0  0
    3.7752   -3.1821    0.0000 O   0  0  0  0  0  0  0  0  0  0  0  0
    3.7752   -4.6111    0.0000 O   0  0  0  0  0  0  0  0  0  0  0  0
    4.1877   -3.8966    0.0000 O   0  0  0  0  0  0  0  0  0  0  0  0
    0.3942   -2.6591    0.0000 N   0  0  0  0  0  0  0  0  0  0  0  0
    1.8232   -3.4841    0.0000 N   0  0  0  0  0  0  0  0  0  0  0  0
   -1.0347   -1.8341    0.0000 N   0  0  0  0  0  0  0  0  0  0  0  0
   -3.6730   -0.9061    0.0000 N   0  0  0  0  0  0  0  0  0  0  0  0
    0.3942   -3.4841    0.0000 C   0  0  0  0  0  0  0  0  0  0  0  0
    1.8232   -2.6591    0.0000 C   0  0  3  0  0  0  0  0  0  0  0  0
    0.3942   -1.8341    0.0000 C   0  0  3  0  0  0  0  0  0  0  0  0
    1.1087   -3.0716    0.0000 C   0  0  0  0  0  0  0  0  0  0  0  0
    1.8232   -1.8341    0.0000 C   0  0  0  0  0  0  0  0  0  0  0  0
    1.1087   -1.4216    0.0000 C   0  0  0  0  0  0  0  0  0  0  0  0
   -0.3202   -1.4216    0.0000 C   0  0  0  0  0  0  0  0  0  0  0  0
   -2.4636   -1.8341    0.0000 C   0  0  3  0  0  0  0  0  0  0  0  0
   -3.2605   -1.6206    0.0000 C   0  0  3  0  0  0  0  0  0  0  0  0
   -2.6772   -2.6310    0.0000 C   0  0  0  0  0  0  0  0  0  0  0  0
   -3.4741   -2.4175    0.0000 C   0  0  0  0  0  0  0  0  0  0  0  0
  1  2  1  0  0  0  0
  1  6  2  0  0  0  0
  1  7  2  0  0  0  0
  1  8  1  0  0  0  0
  2 10  1  0  0  0  0
  3 13  2  0  0  0  0
  4 11  1  0  0  0  0
  4 20  1  0  0  0  0
  5 19  2  0  0  0  0
  9 13  1  0  0  0  0
  9 15  1  0  0  0  0
  9 16  1  0  0  0  0
 10 13  1  0  0  0  0
 10 14  1  0  0  0  0
 11 19  1  0  0  0  0
 12 21  1  0  0  0  0
 14 16  1  6  0  0  0
 14 17  1  0  0  0  0
 15 18  1  0  0  0  0
 15 19  1  6  0  0  0
 17 18  1  0  0  0  0
 20 21  1  0  0  0  0
 20 22  1  0  0  0  0
 21 23  1  0  0  0  0
 22 23  1  0  0  0  0
M  END
> <PUBCHEM_COMPOUND_ID_TYPE>
0

> <PUBCHEM_TOTAL_CHARGE>
0

> <PUBCHEM_SUBSTANCE_ID>
310946265

> <PUBCHEM_SUBSTANCE_VERSION>
1

> <PUBCHEM_EXT_DATASOURCE_NAME>
4488

> <PUBCHEM_EXT_DATASOURCE_REGID>
SCHEMBL16124383

> <PUBCHEM_SUBSTANCE_COMMENT>
InChI=1S/C11H18N4O7S/c12-7-2-4-9(7)21-13-10(16)8-3-1-6-5-14(8)11(17)15(6)22-23(18,19)20/h6-9H,1-5,12H2,(H,13,16)(H,18,19,20)/t6-,7?,8+,9?/m1/s1
InChIKey=XPNAFPBGKFIYJK-PQNACEFISA-N

> <PUBCHEM_SUBSTANCE_SYNONYM>
SCHEMBL16124383

> <PUBCHEM_XREF_EXT_ID>
SCHEMBL16124383

> <PUBCHEM_EXT_DATASOURCE_URL>
https://www.surechembl.org/

> <PUBCHEM_EXT_SUBSTANCE_URL>
https://www.surechembl.org/chemical/SCHEMBL16124383

> <PUBCHEM_CID_ASSOCIATIONS>
117612213  1

> <PUBCHEM_COORDINATE_TYPE>
1
3

> <PUBCHEM_BONDANNOTATIONS>
14  16  6
15  19  6

$$$$
