310931128
  -OEChem-07211613022D

 51 55  0     1  0  0  0  0  0999 V2000
    1.5322   -7.8573    0.0000 Cl  0  0  0  0  0  0  0  0  0  0  0  0
    5.8537   -7.0323    0.0000 S   0  0  0  0  0  0  0  0  0  0  0  0
    5.8537   -5.3822    0.0000 F   0  0  0  0  0  0  0  0  0  0  0  0
    2.9858   -7.0323    0.0000 F   0  0  0  0  0  0  0  0  0  0  0  0
    5.4216   -7.7394    0.0000 O   0  0  0  0  0  0  0  0  0  0  0  0
    6.5609   -7.4645    0.0000 O   0  0  0  0  0  0  0  0  0  0  0  0
    8.7609   -6.3251    0.0000 O   0  0  0  0  0  0  0  0  0  0  0  0
    0.8250   -1.6501    0.0000 O   0  0  0  0  0  0  0  0  0  0  0  0
    8.8002   -3.4572    0.0000 O   0  0  0  0  0  0  0  0  0  0  0  0
    2.2786   -1.6501    0.0000 O   0  0  0  0  0  0  0  0  0  0  0  0
    6.2858   -6.3251    0.0000 N   0  0  0  0  0  0  0  0  0  0  0  0
    6.2858   -4.9108    0.0000 N   0  0  0  0  0  0  0  0  0  0  0  0
    1.5322   -2.8679    0.0000 N   0  0  0  0  0  0  0  0  0  0  0  0
    5.0679   -4.1644    0.0000 N   0  0  0  0  0  0  0  0  0  0  0  0
    5.1465   -6.6001    0.0000 C   0  0  0  0  0  0  0  0  0  0  0  0
    5.1465   -5.7751    0.0000 C   0  0  0  0  0  0  0  0  0  0  0  0
    5.8537   -5.5787    0.0000 C   0  0  0  0  0  0  0  0  0  0  0  0
    4.4001   -7.0323    0.0000 C   0  0  0  0  0  0  0  0  0  0  0  0
    3.6930   -6.6001    0.0000 C   0  0  0  0  0  0  0  0  0  0  0  0
    3.6930   -5.7751    0.0000 C   0  0  0  0  0  0  0  0  0  0  0  0
    7.1108   -6.3251    0.0000 C   0  0  0  0  0  0  0  0  0  0  0  0
    4.4001   -5.3822    0.0000 C   0  0  0  0  0  0  0  0  0  0  0  0
    7.5430   -5.6180    0.0000 C   0  0  0  0  0  0  0  0  0  0  0  0
    8.3287   -5.6180    0.0000 C   0  0  0  0  0  0  0  0  0  0  0  0
    5.0287   -5.5787    0.0000 C   0  0  0  0  0  0  0  0  0  0  0  0
    2.9858   -5.3430    0.0000 C   0  0  0  0  0  0  0  0  0  0  0  0
    2.2786   -4.1251    0.0000 C   0  0  3  0  0  0  0  0  0  0  0  0
    1.5322   -4.5180    0.0000 C   0  0  3  0  0  0  0  0  0  0  0  0
    7.1108   -4.8715    0.0000 C   0  0  0  0  0  0  0  0  0  0  0  0
    2.9858   -4.5180    0.0000 C   0  0  0  0  0  0  0  0  0  0  0  0
    1.5322   -5.3430    0.0000 C   0  0  0  0  0  0  0  0  0  0  0  0
    2.2786   -3.3001    0.0000 C   0  0  0  0  0  0  0  0  0  0  0  0
    8.7609   -4.9108    0.0000 C   0  0  0  0  0  0  0  0  0  0  0  0
    8.3680   -4.2037    0.0000 C   0  0  0  0  0  0  0  0  0  0  0  0
    5.8930   -4.1644    0.0000 C   0  0  0  0  0  0  0  0  0  0  0  0
    4.6358   -4.8715    0.0000 C   0  0  0  0  0  0  0  0  0  0  0  0
    0.8250   -4.1251    0.0000 C   0  0  0  0  0  0  0  0  0  0  0  0
    7.5430   -4.2037    0.0000 C   0  0  0  0  0  0  0  0  0  0  0  0
    0.8250   -3.3001    0.0000 C   0  0  0  0  0  0  0  0  0  0  0  0
    1.5322   -2.0429    0.0000 C   0  0  0  0  0  0  0  0  0  0  0  0
    2.2786   -5.7751    0.0000 C   0  0  0  0  0  0  0  0  0  0  0  0
    0.8250   -5.7751    0.0000 C   0  0  0  0  0  0  0  0  0  0  0  0
    2.2786   -6.6001    0.0000 C   0  0  0  0  0  0  0  0  0  0  0  0
    0.8250   -6.6001    0.0000 C   0  0  0  0  0  0  0  0  0  0  0  0
    1.5322   -7.0323    0.0000 C   0  0  0  0  0  0  0  0  0  0  0  0
    0.8250   -0.8250    0.0000 C   0  0  0  0  0  0  0  0  0  0  0  0
    9.5859   -6.3644    0.0000 C   0  0  0  0  0  0  0  0  0  0  0  0
    8.3680   -2.7501    0.0000 C   0  0  0  0  0  0  0  0  0  0  0  0
    1.6893   -0.8250    0.0000 C   0  0  0  0  0  0  0  0  0  0  0  0
    0.8250    0.0000    0.0000 C   0  0  0  0  0  0  0  0  0  0  0  0
    0.0000   -0.8250    0.0000 C   0  0  0  0  0  0  0  0  0  0  0  0
  1 45  1  0  0  0  0
  2  5  2  0  0  0  0
  2  6  2  0  0  0  0
  2 11  1  0  0  0  0
  2 15  1  0  0  0  0
  3 16  1  0  0  0  0
  4 19  1  0  0  0  0
  7 24  1  0  0  0  0
  7 47  1  0  0  0  0
  8 40  1  0  0  0  0
  8 46  1  0  0  0  0
  9 34  1  0  0  0  0
  9 48  1  0  0  0  0
 10 40  2  0  0  0  0
 11 17  1  0  0  0  0
 11 21  1  0  0  0  0
 12 17  2  0  0  0  0
 12 35  1  0  0  0  0
 13 32  1  0  0  0  0
 13 39  1  0  0  0  0
 13 40  1  0  0  0  0
 14 35  2  0  0  0  0
 14 36  1  0  0  0  0
 15 16  2  0  0  0  0
 15 18  1  0  0  0  0
 16 22  1  0  0  0  0
 17 25  1  0  0  0  0
 18 19  2  0  0  0  0
 19 20  1  0  0  0  0
 20 22  2  0  0  0  0
 20 26  1  0  0  0  0
 21 23  1  0  0  0  0
 23 24  2  0  0  0  0
 23 29  1  0  0  0  0
 24 33  1  0  0  0  0
 25 36  2  0  0  0  0
 26 30  1  0  0  0  0
 27 28  1  0  0  0  0
 27 30  1  0  0  0  0
 27 32  1  0  0  0  0
 28 31  1  0  0  0  0
 28 37  1  0  0  0  0
 29 38  2  0  0  0  0
 31 41  2  0  0  0  0
 31 42  1  0  0  0  0
 33 34  2  0  0  0  0
 34 38  1  0  0  0  0
 37 39  1  0  0  0  0
 41 43  1  0  0  0  0
 42 44  2  0  0  0  0
 43 45  2  0  0  0  0
 44 45  1  0  0  0  0
 46 49  1  0  0  0  0
 46 50  1  0  0  0  0
 46 51  1  0  0  0  0
M  END
> <PUBCHEM_COMPOUND_ID_TYPE>
0

> <PUBCHEM_TOTAL_CHARGE>
0

> <PUBCHEM_SUBSTANCE_ID>
310931128

> <PUBCHEM_SUBSTANCE_VERSION>
1

> <PUBCHEM_EXT_DATASOURCE_NAME>
4488

> <PUBCHEM_EXT_DATASOURCE_REGID>
SCHEMBL16108432

> <PUBCHEM_SUBSTANCE_COMMENT>
InChI=1S/C37H41ClF2N4O6S/c1-37(2,3)50-36(45)43-17-15-30(24-8-11-28(38)12-9-24)26(21-43)7-6-25-18-32(40)34(20-31(25)39)51(46,47)44(35-14-16-41-23-42-35)22-27-10-13-29(48-4)19-33(27)49-5/h8-14,16,18-20,23,26,30H,6-7,15,17,21-22H2,1-5H3
InChIKey=AGLQWEMFBFRLAM-UHFFFAOYSA-N

> <PUBCHEM_SUBSTANCE_SYNONYM>
SCHEMBL16108432

> <PUBCHEM_XREF_EXT_ID>
SCHEMBL16108432

> <PUBCHEM_EXT_DATASOURCE_URL>
https://www.surechembl.org/

> <PUBCHEM_EXT_SUBSTANCE_URL>
https://www.surechembl.org/chemical/SCHEMBL16108432

> <PUBCHEM_CID_ASSOCIATIONS>
117600012  1

> <PUBCHEM_COORDINATE_TYPE>
1
3

$$$$
