310948376
  -OEChem-07211613022D

 32 35  0     1  0  0  0  0  0999 V2000
    2.2457    0.9716    0.0000 S   0  0  0  0  0  0  0  0  0  0  0  0
   -1.4758   -2.4198    0.0000 O   0  0  0  0  0  0  0  0  0  0  0  0
    2.8873   -1.3382    0.0000 O   0  0  0  0  0  0  0  0  0  0  0  0
    2.7222    0.3117    0.0000 O   0  0  0  0  0  0  0  0  0  0  0  0
    2.9056    1.4666    0.0000 O   0  0  0  0  0  0  0  0  0  0  0  0
    3.8222   -0.5134    0.0000 O   0  0  0  0  0  0  0  0  0  0  0  0
   -2.1906    0.2750    0.0000 N   0  0  0  0  0  0  0  0  0  0  0  0
   -1.3658    0.1834    0.0000 N   0  0  0  0  0  0  0  0  0  0  0  0
   -0.4308   -0.9716    0.0000 N   0  0  0  0  0  0  0  0  0  0  0  0
   -2.8689   -2.1081    0.0000 N   0  0  0  0  0  0  0  0  0  0  0  0
   -1.8973   -1.0266    0.0000 C   0  0  0  0  0  0  0  0  0  0  0  0
   -2.5390   -0.4767    0.0000 C   0  0  0  0  0  0  0  0  0  0  0  0
   -1.2007   -0.6049    0.0000 C   0  0  0  0  0  0  0  0  0  0  0  0
    1.6590   -0.3117    0.0000 C   0  0  0  0  0  0  0  0  0  0  0  0
    1.5673    0.4950    0.0000 C   0  0  0  0  0  0  0  0  0  0  0  0
   -2.0990   -1.8331    0.0000 C   0  0  0  0  0  0  0  0  0  0  0  0
    0.2292   -0.4767    0.0000 C   0  0  0  0  0  0  0  0  0  0  0  0
    2.4290   -0.6599    0.0000 C   0  0  3  0  0  0  0  0  0  0  0  0
   -2.5939    0.9899    0.0000 C   0  0  0  0  0  0  0  0  0  0  0  0
    0.9990   -0.8066    0.0000 C   0  0  0  0  0  0  0  0  0  0  0  0
   -3.2906   -0.7332    0.0000 C   0  0  0  0  0  0  0  0  0  0  0  0
    0.8158    0.8249    0.0000 C   0  0  0  0  0  0  0  0  0  0  0  0
    0.1558    0.3483    0.0000 C   0  0  0  0  0  0  0  0  0  0  0  0
   -3.4739   -1.5581    0.0000 C   0  0  0  0  0  0  0  0  0  0  0  0
   -3.4189    1.0082    0.0000 C   0  0  0  0  0  0  0  0  0  0  0  0
   -2.1906    1.7232    0.0000 C   0  0  0  0  0  0  0  0  0  0  0  0
    3.0889   -0.1834    0.0000 C   0  0  0  0  0  0  0  0  0  0  0  0
    2.0623   -1.4299    0.0000 C   0  0  0  0  0  0  0  0  0  0  0  0
    1.7507    1.6682    0.0000 C   0  0  0  0  0  0  0  0  0  0  0  0
   -3.8222    1.7232    0.0000 C   0  0  0  0  0  0  0  0  0  0  0  0
   -2.5939    2.4198    0.0000 C   0  0  0  0  0  0  0  0  0  0  0  0
   -3.4189    2.4015    0.0000 C   0  0  0  0  0  0  0  0  0  0  0  0
  1  4  2  0  0  0  0
  1  5  2  0  0  0  0
  1 15  1  0  0  0  0
  1 29  1  0  0  0  0
  2 16  2  0  0  0  0
  3 18  1  0  0  0  0
  6 27  1  0  0  0  0
  7  8  1  0  0  0  0
  7 12  1  0  0  0  0
  7 19  1  0  0  0  0
  8 13  2  0  0  0  0
  9 13  1  0  0  0  0
  9 17  1  0  0  0  0
 10 16  1  0  0  0  0
 10 24  1  0  0  0  0
 11 12  2  0  0  0  0
 11 13  1  0  0  0  0
 11 16  1  0  0  0  0
 12 21  1  0  0  0  0
 14 15  2  0  0  0  0
 14 18  1  0  0  0  0
 14 20  1  0  0  0  0
 15 22  1  0  0  0  0
 17 20  2  0  0  0  0
 17 23  1  0  0  0  0
 18 27  1  0  0  0  0
 18 28  1  0  0  0  0
 19 25  1  0  0  0  0
 19 26  1  0  0  0  0
 21 24  2  0  0  0  0
 22 23  2  0  0  0  0
 25 30  1  0  0  0  0
 26 31  1  0  0  0  0
 30 32  1  0  0  0  0
 31 32  1  0  0  0  0
M  END
> <PUBCHEM_COMPOUND_ID_TYPE>
0

> <PUBCHEM_TOTAL_CHARGE>
0

> <PUBCHEM_SUBSTANCE_ID>
310948376

> <PUBCHEM_SUBSTANCE_VERSION>
1

> <PUBCHEM_EXT_DATASOURCE_NAME>
4488

> <PUBCHEM_EXT_DATASOURCE_REGID>
SCHEMBL16126557

> <PUBCHEM_SUBSTANCE_COMMENT>
InChI=1S/C22H28N4O5S/c1-22(29,13-27)16-12-14(8-9-18(16)32(2,30)31)24-20-19-17(10-11-23-21(19)28)26(25-20)15-6-4-3-5-7-15/h8-12,15,27,29H,3-7,13H2,1-2H3,(H,23,28)(H,24,25)
InChIKey=NMWPJWCMQATPDL-UHFFFAOYSA-N

> <PUBCHEM_SUBSTANCE_SYNONYM>
SCHEMBL16126557

> <PUBCHEM_XREF_EXT_ID>
SCHEMBL16126557

> <PUBCHEM_EXT_DATASOURCE_URL>
https://www.surechembl.org/

> <PUBCHEM_EXT_SUBSTANCE_URL>
https://www.surechembl.org/chemical/SCHEMBL16126557

> <PUBCHEM_CID_ASSOCIATIONS>
117613939  1

> <PUBCHEM_COORDINATE_TYPE>
1
3

$$$$
