310941230
  -OEChem-07211613022D

 42 45  0     1  0  0  0  0  0999 V2000
    5.1755   -1.4228    0.0000 O   0  0  0  0  0  0  0  0  0  0  0  0
    4.0432    0.5372    0.0000 O   0  0  0  0  0  0  0  0  0  0  0  0
    1.6768   -1.4082    0.0000 O   0  0  0  0  0  0  0  0  0  0  0  0
   -0.4719    0.6532    0.0000 O   0  0  0  0  0  0  0  0  0  0  0  0
    2.4027    3.1502    0.0000 O   0  0  0  0  0  0  0  0  0  0  0  0
   -2.6204   -1.4082    0.0000 O   0  0  0  0  0  0  0  0  0  0  0  0
   -5.4803   -1.4082    0.0000 O   0  0  0  0  0  0  0  0  0  0  0  0
    2.4027   -0.1742    0.0000 N   0  0  0  0  0  0  0  0  0  0  0  0
    0.2541   -0.5807    0.0000 N   0  0  0  0  0  0  0  0  0  0  0  0
   -1.8945   -0.1742    0.0000 N   0  0  0  0  0  0  0  0  0  0  0  0
   -4.0432   -0.5807    0.0000 N   0  0  0  0  0  0  0  0  0  0  0  0
    4.7690   -0.6968    0.0000 C   0  0  3  0  0  0  0  0  0  0  0  0
    4.0432   -0.2759    0.0000 C   0  0  0  0  0  0  0  0  0  0  0  0
    4.3770   -1.3937    0.0000 C   0  0  0  0  0  0  0  0  0  0  0  0
    3.3608   -0.6823    0.0000 C   0  0  3  0  0  0  0  0  0  0  0  0
    5.4803   -0.2613    0.0000 C   0  0  0  0  0  0  0  0  0  0  0  0
    3.3462   -1.7567    0.0000 C   0  0  0  0  0  0  0  0  0  0  0  0
    1.6913   -0.5372    0.0000 C   0  0  0  0  0  0  0  0  0  0  0  0
    0.9799   -0.1452    0.0000 C   0  0  3  0  0  0  0  0  0  0  0  0
    2.6204   -2.1776    0.0000 C   0  0  0  0  0  0  0  0  0  0  0  0
    0.9945    0.6968    0.0000 C   0  0  0  0  0  0  0  0  0  0  0  0
    1.6768    1.1033    0.0000 C   0  0  0  0  0  0  0  0  0  0  0  0
   -0.4719   -0.1597    0.0000 C   0  0  0  0  0  0  0  0  0  0  0  0
    1.8654   -1.8436    0.0000 C   0  0  0  0  0  0  0  0  0  0  0  0
    2.5188   -2.9906    0.0000 C   0  0  0  0  0  0  0  0  0  0  0  0
    1.7059    1.9308    0.0000 C   0  0  0  0  0  0  0  0  0  0  0  0
    2.4027    2.3373    0.0000 C   0  0  0  0  0  0  0  0  0  0  0  0
    3.1284    1.9308    0.0000 C   0  0  0  0  0  0  0  0  0  0  0  0
    2.4027    0.6968    0.0000 C   0  0  0  0  0  0  0  0  0  0  0  0
   -1.1686   -0.5517    0.0000 C   0  0  3  0  0  0  0  0  0  0  0  0
    1.3284   -2.4535    0.0000 C   0  0  0  0  0  0  0  0  0  0  0  0
    1.7203   -3.1502    0.0000 C   0  0  0  0  0  0  0  0  0  0  0  0
    3.1284    1.1033    0.0000 C   0  0  0  0  0  0  0  0  0  0  0  0
   -2.6059   -0.5372    0.0000 C   0  0  0  0  0  0  0  0  0  0  0  0
    3.8109    2.3373    0.0000 C   0  0  0  0  0  0  0  0  0  0  0  0
   -1.1686   -1.3937    0.0000 C   0  0  0  0  0  0  0  0  0  0  0  0
   -3.3318   -0.1452    0.0000 C   0  0  0  0  0  0  0  0  0  0  0  0
   -4.0432   -1.3792    0.0000 C   0  0  0  0  0  0  0  0  0  0  0  0
   -4.7690   -0.1452    0.0000 C   0  0  0  0  0  0  0  0  0  0  0  0
    4.5658    1.9018    0.0000 C   0  0  0  0  0  0  0  0  0  0  0  0
   -4.7400   -1.8001    0.0000 C   0  0  0  0  0  0  0  0  0  0  0  0
   -5.4513   -0.5517    0.0000 C   0  0  0  0  0  0  0  0  0  0  0  0
  1 12  1  0  0  0  0
  1 14  1  0  0  0  0
  2 13  2  0  0  0  0
  3 18  2  0  0  0  0
  4 23  2  0  0  0  0
  5 27  1  0  0  0  0
  6 34  2  0  0  0  0
  7 41  1  0  0  0  0
  7 42  1  0  0  0  0
  8 15  1  0  0  0  0
  8 18  1  0  0  0  0
  9 19  1  0  0  0  0
  9 23  1  0  0  0  0
 10 30  1  0  0  0  0
 10 34  1  0  0  0  0
 11 37  1  0  0  0  0
 11 38  1  0  0  0  0
 11 39  1  0  0  0  0
 12 13  1  0  0  0  0
 12 14  1  0  0  0  0
 12 16  1  0  0  0  0
 13 15  1  0  0  0  0
 15 17  1  0  0  0  0
 17 20  1  0  0  0  0
 18 19  1  0  0  0  0
 19 21  1  0  0  0  0
 20 24  2  0  0  0  0
 20 25  1  0  0  0  0
 21 22  1  0  0  0  0
 22 26  1  0  0  0  0
 22 29  2  0  0  0  0
 23 30  1  0  0  0  0
 24 31  1  0  0  0  0
 25 32  1  0  0  0  0
 26 27  2  0  0  0  0
 27 28  1  0  0  0  0
 28 33  2  0  0  0  0
 28 35  1  0  0  0  0
 29 33  1  0  0  0  0
 30 36  1  0  0  0  0
 31 32  1  0  0  0  0
 34 37  1  0  0  0  0
 35 40  1  0  0  0  0
 38 41  1  0  0  0  0
 39 42  1  0  0  0  0
M  END
> <PUBCHEM_COMPOUND_ID_TYPE>
0

> <PUBCHEM_TOTAL_CHARGE>
0

> <PUBCHEM_SUBSTANCE_ID>
310941230

> <PUBCHEM_SUBSTANCE_VERSION>
1

> <PUBCHEM_EXT_DATASOURCE_NAME>
4488

> <PUBCHEM_EXT_DATASOURCE_REGID>
SCHEMBL16119190

> <PUBCHEM_SUBSTANCE_COMMENT>
InChI=1S/C31H44N4O7/c1-4-23-10-9-22(17-26(23)36)16-25(34-29(39)20(2)32-27(37)18-35-11-13-41-14-12-35)30(40)33-24(15-21-7-5-6-8-21)28(38)31(3)19-42-31/h7,9-10,17,20,24-25,36H,4-6,8,11-16,18-19H2,1-3H3,(H,32,37)(H,33,40)(H,34,39)
InChIKey=KFDLPOMRYXTXBR-UHFFFAOYSA-N

> <PUBCHEM_SUBSTANCE_SYNONYM>
SCHEMBL16119190

> <PUBCHEM_XREF_EXT_ID>
SCHEMBL16119190

> <PUBCHEM_EXT_DATASOURCE_URL>
https://www.surechembl.org/

> <PUBCHEM_EXT_SUBSTANCE_URL>
https://www.surechembl.org/chemical/SCHEMBL16119190

> <PUBCHEM_CID_ASSOCIATIONS>
117608097  1

> <PUBCHEM_COORDINATE_TYPE>
1
3

$$$$
