310946612
  -OEChem-07211613022D

 40 40  0     1  0  0  0  0  0999 V2000
   -2.7394  -13.9703    0.0000 O   0  0  0  0  0  0  0  0  0  0  0  0
   -3.4539  -15.2078    0.0000 O   0  0  0  0  0  0  0  0  0  0  0  0
   -1.3104  -13.9703    0.0000 O   0  0  0  0  0  0  0  0  0  0  0  0
   -6.3117  -14.3828    0.0000 O   0  0  0  0  0  0  0  0  0  0  0  0
   -5.5973  -13.1453    0.0000 O   0  0  0  0  0  0  0  0  0  0  0  0
    0.1185  -13.9703    0.0000 O   0  0  0  0  0  0  0  0  0  0  0  0
   -9.8841  -13.1453    0.0000 O   0  0  0  0  0  0  0  0  0  0  0  0
   -0.5960  -15.2078    0.0000 O   0  0  0  0  0  0  0  0  0  0  0  0
  -10.5986  -15.2078    0.0000 O   0  0  0  0  0  0  0  0  0  0  0  0
  -10.5986  -11.9078    0.0000 O   0  5  0  0  0  0  0  0  0  0  0  0
  -11.3130  -13.1453    0.0000 O   0  0  0  0  0  0  0  0  0  0  0  0
   -9.8841  -16.4453    0.0000 O   0  5  0  0  0  0  0  0  0  0  0  0
   -9.1696  -15.2078    0.0000 O   0  0  0  0  0  0  0  0  0  0  0  0
   -4.8828  -14.3828    0.0000 N   0  0  0  0  0  0  0  0  0  0  0  0
  -10.5986  -12.7328    0.0000 N   0  3  0  0  0  0  0  0  0  0  0  0
   -9.8841  -15.6203    0.0000 N   0  3  0  0  0  0  0  0  0  0  0  0
   -4.1683  -13.9703    0.0000 C   0  0  3  0  0  0  0  0  0  0  0  0
   -3.4539  -14.3828    0.0000 C   0  0  0  0  0  0  0  0  0  0  0  0
   -4.1683  -13.1453    0.0000 C   0  0  0  0  0  0  0  0  0  0  0  0
   -3.4539  -12.7328    0.0000 C   0  0  0  0  0  0  0  0  0  0  0  0
   -5.5973  -13.9703    0.0000 C   0  0  0  0  0  0  0  0  0  0  0  0
   -2.0249  -14.3828    0.0000 C   0  0  3  0  0  0  0  0  0  0  0  0
   -2.6570  -12.9464    0.0000 C   0  0  0  0  0  0  0  0  0  0  0  0
   -3.6674  -11.9359    0.0000 C   0  0  0  0  0  0  0  0  0  0  0  0
   -0.5960  -14.3828    0.0000 C   0  0  0  0  0  0  0  0  0  0  0  0
   -2.0736  -12.3630    0.0000 C   0  0  0  0  0  0  0  0  0  0  0  0
   -3.0840  -11.3526    0.0000 C   0  0  0  0  0  0  0  0  0  0  0  0
   -2.2871  -11.5661    0.0000 C   0  0  0  0  0  0  0  0  0  0  0  0
   -2.0249  -15.2078    0.0000 C   0  0  0  0  0  0  0  0  0  0  0  0
   -9.8841  -13.9703    0.0000 C   0  0  3  0  0  0  0  0  0  0  0  0
   -7.0262  -13.9703    0.0000 C   0  0  0  0  0  0  0  0  0  0  0  0
   -9.1696  -14.3828    0.0000 C   0  0  0  0  0  0  0  0  0  0  0  0
   -7.7407  -14.3828    0.0000 C   0  0  0  0  0  0  0  0  0  0  0  0
  -10.5986  -14.3828    0.0000 C   0  0  0  0  0  0  0  0  0  0  0  0
   -8.4551  -13.9703    0.0000 C   0  0  0  0  0  0  0  0  0  0  0  0
    0.8330  -14.3828    0.0000 C   0  0  0  0  0  0  0  0  0  0  0  0
    1.5474  -13.9703    0.0000 C   0  0  0  0  0  0  0  0  0  0  0  0
    2.2619  -14.3828    0.0000 C   0  0  0  0  0  0  0  0  0  0  0  0
    2.9764  -13.9703    0.0000 C   0  0  0  0  0  0  0  0  0  0  0  0
    3.6909  -14.3828    0.0000 C   0  0  0  0  0  0  0  0  0  0  0  0
  1 18  1  0  0  0  0
  1 22  1  0  0  0  0
  2 18  2  0  0  0  0
  3 22  1  0  0  0  0
  3 25  1  0  0  0  0
  4 21  1  0  0  0  0
  4 31  1  0  0  0  0
  5 21  2  0  0  0  0
  6 25  1  0  0  0  0
  6 36  1  0  0  0  0
  7 15  1  0  0  0  0
  7 30  1  0  0  0  0
  8 25  2  0  0  0  0
  9 16  1  0  0  0  0
  9 34  1  0  0  0  0
 10 15  1  0  0  0  0
 11 15  2  0  0  0  0
 12 16  1  0  0  0  0
 13 16  2  0  0  0  0
 14 17  1  0  0  0  0
 14 21  1  0  0  0  0
 17 18  1  0  0  0  0
 17 19  1  0  0  0  0
 19 20  1  0  0  0  0
 20 23  2  0  0  0  0
 20 24  1  0  0  0  0
 22 29  1  0  0  0  0
 23 26  1  0  0  0  0
 24 27  2  0  0  0  0
 26 28  2  0  0  0  0
 27 28  1  0  0  0  0
 30 32  1  0  0  0  0
 30 34  1  0  0  0  0
 31 33  1  0  0  0  0
 32 35  1  0  0  0  0
 33 35  1  0  0  0  0
 36 37  1  0  0  0  0
 37 38  1  0  0  0  0
 38 39  1  0  0  0  0
 39 40  1  0  0  0  0
M  CHG  4  10  -1  12  -1  15   1  16   1
M  END
> <PUBCHEM_COMPOUND_ID_TYPE>
0

> <PUBCHEM_TOTAL_CHARGE>
0

> <PUBCHEM_SUBSTANCE_ID>
310946612

> <PUBCHEM_SUBSTANCE_VERSION>
1

> <PUBCHEM_EXT_DATASOURCE_NAME>
4488

> <PUBCHEM_EXT_DATASOURCE_REGID>
SCHEMBL16124733

> <PUBCHEM_SUBSTANCE_COMMENT>
InChI=1S/C24H35N3O13/c1-3-4-9-15-36-24(30)39-18(2)38-22(28)21(16-19-11-6-5-7-12-19)25-23(29)35-14-10-8-13-20(40-27(33)34)17-37-26(31)32/h5-7,11-12,18,20-21H,3-4,8-10,13-17H2,1-2H3,(H,25,29)
InChIKey=ORMVLSMOOVKJSX-UHFFFAOYSA-N

> <PUBCHEM_SUBSTANCE_SYNONYM>
SCHEMBL16124733

> <PUBCHEM_XREF_EXT_ID>
SCHEMBL16124733

> <PUBCHEM_EXT_DATASOURCE_URL>
https://www.surechembl.org/

> <PUBCHEM_EXT_SUBSTANCE_URL>
https://www.surechembl.org/chemical/SCHEMBL16124733

> <PUBCHEM_CID_ASSOCIATIONS>
117612512  1

> <PUBCHEM_COORDINATE_TYPE>
1
3

$$$$
