310941072
  -OEChem-07211613022D

 43 46  0     1  0  0  0  0  0999 V2000
    3.9434   -3.0144    0.0000 O   0  0  0  0  0  0  0  0  0  0  0  0
    1.6861   -3.0144    0.0000 O   0  0  0  0  0  0  0  0  0  0  0  0
    2.3881    0.1238    0.0000 O   0  0  0  0  0  0  0  0  0  0  0  0
   -0.4749    0.9222    0.0000 O   0  0  0  0  0  0  0  0  0  0  0  0
    2.3881    3.4136    0.0000 O   0  0  0  0  0  0  0  0  0  0  0  0
    3.8058    0.9360    0.0000 O   0  0  0  0  0  0  0  0  0  0  0  0
   -2.6083   -1.1287    0.0000 O   0  0  0  0  0  0  0  0  0  0  0  0
   -5.4713   -1.1424    0.0000 O   0  0  0  0  0  0  0  0  0  0  0  0
    1.6861   -1.1012    0.0000 N   0  0  0  0  0  0  0  0  0  0  0  0
    0.2409   -0.2890    0.0000 N   0  0  0  0  0  0  0  0  0  0  0  0
   -1.9064    0.1101    0.0000 N   0  0  0  0  0  0  0  0  0  0  0  0
   -4.0535   -0.3028    0.0000 N   0  0  0  0  0  0  0  0  0  0  0  0
    3.1176   -2.9869    0.0000 C   0  0  3  0  0  0  0  0  0  0  0  0
    2.4018   -2.5602    0.0000 C   0  0  0  0  0  0  0  0  0  0  0  0
    3.5167   -2.2987    0.0000 C   0  0  0  0  0  0  0  0  0  0  0  0
    2.4018   -1.5141    0.0000 C   0  0  3  0  0  0  0  0  0  0  0  0
    3.1314   -3.8402    0.0000 C   0  0  0  0  0  0  0  0  0  0  0  0
    3.3241   -0.9772    0.0000 C   0  0  0  0  0  0  0  0  0  0  0  0
    1.6449   -0.2890    0.0000 C   0  0  0  0  0  0  0  0  0  0  0  0
    0.9291    0.1101    0.0000 C   0  0  3  0  0  0  0  0  0  0  0  0
    4.0535   -1.3902    0.0000 C   0  0  0  0  0  0  0  0  0  0  0  0
    0.9704    0.9497    0.0000 C   0  0  0  0  0  0  0  0  0  0  0  0
    1.6724    1.3627    0.0000 C   0  0  0  0  0  0  0  0  0  0  0  0
   -0.4886    0.0963    0.0000 C   0  0  0  0  0  0  0  0  0  0  0  0
    4.0535   -2.2161    0.0000 C   0  0  0  0  0  0  0  0  0  0  0  0
    4.7693   -0.9910    0.0000 C   0  0  0  0  0  0  0  0  0  0  0  0
    1.6724    2.1885    0.0000 C   0  0  0  0  0  0  0  0  0  0  0  0
    2.3743    0.9635    0.0000 C   0  0  0  0  0  0  0  0  0  0  0  0
    2.3881    2.6014    0.0000 C   0  0  0  0  0  0  0  0  0  0  0  0
   -1.1768   -0.2890    0.0000 C   0  0  3  0  0  0  0  0  0  0  0  0
    3.0900    1.3764    0.0000 C   0  0  0  0  0  0  0  0  0  0  0  0
    3.0900    2.1885    0.0000 C   0  0  0  0  0  0  0  0  0  0  0  0
    4.7693   -2.6152    0.0000 C   0  0  0  0  0  0  0  0  0  0  0  0
    5.4713   -1.3902    0.0000 C   0  0  0  0  0  0  0  0  0  0  0  0
    5.4713   -2.2161    0.0000 C   0  0  0  0  0  0  0  0  0  0  0  0
   -2.6221   -0.2753    0.0000 C   0  0  0  0  0  0  0  0  0  0  0  0
   -1.1631   -1.1424    0.0000 C   0  0  0  0  0  0  0  0  0  0  0  0
   -3.3516    0.1101    0.0000 C   0  0  0  0  0  0  0  0  0  0  0  0
   -4.0398   -1.1424    0.0000 C   0  0  0  0  0  0  0  0  0  0  0  0
   -4.7693    0.0963    0.0000 C   0  0  0  0  0  0  0  0  0  0  0  0
    3.1176    3.8402    0.0000 C   0  0  0  0  0  0  0  0  0  0  0  0
   -4.7417   -1.5416    0.0000 C   0  0  0  0  0  0  0  0  0  0  0  0
   -5.4713   -0.3028    0.0000 C   0  0  0  0  0  0  0  0  0  0  0  0
  1 13  1  0  0  0  0
  1 15  1  0  0  0  0
  2 14  2  0  0  0  0
  3 19  2  0  0  0  0
  4 24  2  0  0  0  0
  5 29  1  0  0  0  0
  5 41  1  0  0  0  0
  6 31  1  0  0  0  0
  7 36  2  0  0  0  0
  8 42  1  0  0  0  0
  8 43  1  0  0  0  0
  9 16  1  0  0  0  0
  9 19  1  0  0  0  0
 10 20  1  0  0  0  0
 10 24  1  0  0  0  0
 11 30  1  0  0  0  0
 11 36  1  0  0  0  0
 12 38  1  0  0  0  0
 12 39  1  0  0  0  0
 12 40  1  0  0  0  0
 13 14  1  0  0  0  0
 13 15  1  0  0  0  0
 13 17  1  0  0  0  0
 14 16  1  0  0  0  0
 16 18  1  0  0  0  0
 18 21  1  0  0  0  0
 19 20  1  0  0  0  0
 20 22  1  0  0  0  0
 21 25  2  0  0  0  0
 21 26  1  0  0  0  0
 22 23  1  0  0  0  0
 23 27  2  0  0  0  0
 23 28  1  0  0  0  0
 24 30  1  0  0  0  0
 25 33  1  0  0  0  0
 26 34  2  0  0  0  0
 27 29  1  0  0  0  0
 28 31  2  0  0  0  0
 29 32  2  0  0  0  0
 30 37  1  0  0  0  0
 31 32  1  0  0  0  0
 33 35  2  0  0  0  0
 34 35  1  0  0  0  0
 36 38  1  0  0  0  0
 39 42  1  0  0  0  0
 40 43  1  0  0  0  0
M  END
> <PUBCHEM_COMPOUND_ID_TYPE>
0

> <PUBCHEM_TOTAL_CHARGE>
0

> <PUBCHEM_SUBSTANCE_ID>
310941072

> <PUBCHEM_SUBSTANCE_VERSION>
1

> <PUBCHEM_EXT_DATASOURCE_NAME>
4488

> <PUBCHEM_EXT_DATASOURCE_REGID>
SCHEMBL16119032

> <PUBCHEM_SUBSTANCE_COMMENT>
InChI=1S/C31H40N4O8/c1-20(32-27(37)18-35-9-11-42-12-10-35)29(39)34-26(16-22-13-23(36)17-24(14-22)41-3)30(40)33-25(28(38)31(2)19-43-31)15-21-7-5-4-6-8-21/h4-8,13-14,17,20,25-26,36H,9-12,15-16,18-19H2,1-3H3,(H,32,37)(H,33,40)(H,34,39)
InChIKey=QZMCZFUTPDADDC-UHFFFAOYSA-N

> <PUBCHEM_SUBSTANCE_SYNONYM>
SCHEMBL16119032

> <PUBCHEM_XREF_EXT_ID>
SCHEMBL16119032

> <PUBCHEM_EXT_DATASOURCE_URL>
https://www.surechembl.org/

> <PUBCHEM_EXT_SUBSTANCE_URL>
https://www.surechembl.org/chemical/SCHEMBL16119032

> <PUBCHEM_CID_ASSOCIATIONS>
117607963  1

> <PUBCHEM_COORDINATE_TYPE>
1
3

$$$$
