310939134
  -OEChem-07211613022D

 25 27  0     1  0  0  0  0  0999 V2000
   -0.0235    1.4598    0.0000 F   0  0  0  0  0  0  0  0  0  0  0  0
    1.4054   -1.0152    0.0000 F   0  0  0  0  0  0  0  0  0  0  0  0
    1.4054    0.6348    0.0000 O   0  0  0  0  0  0  0  0  0  0  0  0
   -1.7544   -1.8723    0.0000 O   0  0  0  0  0  0  0  0  0  0  0  0
   -3.5488   -0.6752    0.0000 O   0  0  0  0  0  0  0  0  0  0  0  0
   -2.1669    0.2223    0.0000 N   0  0  0  0  0  0  0  0  0  0  0  0
   -0.7380    0.2223    0.0000 C   0  0  0  0  0  0  0  0  0  0  0  0
   -0.0235    0.6348    0.0000 C   0  0  0  0  0  0  0  0  0  0  0  0
    0.6910    0.2223    0.0000 C   0  0  0  0  0  0  0  0  0  0  0  0
   -1.4525    0.6348    0.0000 C   0  0  3  0  0  0  0  0  0  0  0  0
    0.6910   -0.6027    0.0000 C   0  0  0  0  0  0  0  0  0  0  0  0
   -0.7380   -0.6027    0.0000 C   0  0  0  0  0  0  0  0  0  0  0  0
   -0.0235   -1.0152    0.0000 C   0  0  0  0  0  0  0  0  0  0  0  0
   -2.1669   -0.6027    0.0000 C   0  0  3  0  0  0  0  0  0  0  0  0
    2.1199    0.2223    0.0000 C   0  0  0  0  0  0  0  0  0  0  0  0
   -2.8344   -1.0877    0.0000 C   0  0  3  0  0  0  0  0  0  0  0  0
   -1.4525    1.4598    0.0000 C   0  0  0  0  0  0  0  0  0  0  0  0
   -1.4995   -1.0877    0.0000 C   0  0  0  0  0  0  0  0  0  0  0  0
   -2.5794   -1.8723    0.0000 C   0  0  0  0  0  0  0  0  0  0  0  0
    2.1199   -0.6027    0.0000 C   0  0  0  0  0  0  0  0  0  0  0  0
    2.8344    0.6348    0.0000 C   0  0  0  0  0  0  0  0  0  0  0  0
   -2.1669    1.8723    0.0000 C   0  0  0  0  0  0  0  0  0  0  0  0
    2.8344   -1.0152    0.0000 C   0  0  0  0  0  0  0  0  0  0  0  0
    3.5488    0.2223    0.0000 C   0  0  0  0  0  0  0  0  0  0  0  0
    3.5488   -0.6027    0.0000 C   0  0  0  0  0  0  0  0  0  0  0  0
  1  8  1  0  0  0  0
  2 11  1  0  0  0  0
  3  9  1  0  0  0  0
  3 15  1  0  0  0  0
  4 18  1  0  0  0  0
  4 19  1  0  0  0  0
  5 16  1  0  0  0  0
  6 10  1  0  0  0  0
  6 14  1  0  0  0  0
  7  8  1  0  0  0  0
  7 10  1  0  0  0  0
  7 12  2  0  0  0  0
  8  9  2  0  0  0  0
  9 11  1  0  0  0  0
 10 17  1  0  0  0  0
 11 13  2  0  0  0  0
 12 13  1  0  0  0  0
 14 16  1  0  0  0  0
 14 18  1  0  0  0  0
 15 20  2  0  0  0  0
 15 21  1  0  0  0  0
 16 19  1  0  0  0  0
 17 22  1  0  0  0  0
 20 23  1  0  0  0  0
 21 24  2  0  0  0  0
 23 25  2  0  0  0  0
 24 25  1  0  0  0  0
M  END
> <PUBCHEM_COMPOUND_ID_TYPE>
0

> <PUBCHEM_TOTAL_CHARGE>
0

> <PUBCHEM_SUBSTANCE_ID>
310939134

> <PUBCHEM_SUBSTANCE_VERSION>
1

> <PUBCHEM_EXT_DATASOURCE_NAME>
4488

> <PUBCHEM_EXT_DATASOURCE_REGID>
SCHEMBL16117055

> <PUBCHEM_SUBSTANCE_COMMENT>
InChI=1S/C19H21F2NO3/c1-2-15(22-16-10-24-11-17(16)23)13-8-9-14(20)19(18(13)21)25-12-6-4-3-5-7-12/h3-9,15-17,22-23H,2,10-11H2,1H3
InChIKey=ULPOMZRDJYCACC-UHFFFAOYSA-N

> <PUBCHEM_SUBSTANCE_SYNONYM>
SCHEMBL16117055

> <PUBCHEM_XREF_EXT_ID>
SCHEMBL16117055

> <PUBCHEM_EXT_DATASOURCE_URL>
https://www.surechembl.org/

> <PUBCHEM_EXT_SUBSTANCE_URL>
https://www.surechembl.org/chemical/SCHEMBL16117055

> <PUBCHEM_CID_ASSOCIATIONS>
117606489  1

> <PUBCHEM_COORDINATE_TYPE>
1
3

$$$$
