310935119
  -OEChem-07211613022D

 31 33  0     1  0  0  0  0  0999 V2000
    2.0730   -3.5989    0.0000 O   0  0  0  0  0  0  0  0  0  0  0  0
    2.0730   -0.7198    0.0000 O   0  0  0  0  0  0  0  0  0  0  0  0
    6.5932   -2.0442    0.0000 O   0  0  0  0  0  0  0  0  0  0  0  0
    1.2380   -5.0385    0.0000 O   0  0  0  0  0  0  0  0  0  0  0  0
    7.3130   -3.3110    0.0000 O   0  0  0  0  0  0  0  0  0  0  0  0
    2.4761   -5.7582    0.0000 O   0  0  0  0  0  0  0  0  0  0  0  0
    4.9809   -4.3187    0.0000 N   0  0  0  0  0  0  0  0  0  0  0  0
    3.3110   -2.8791    0.0000 N   0  0  0  0  0  0  0  0  0  0  0  0
    5.7871   -4.1171    0.0000 N   0  0  0  0  0  0  0  0  0  0  0  0
    3.7429   -3.5989    0.0000 C   0  0  0  0  0  0  0  0  0  0  0  0
    4.5490   -3.5989    0.0000 C   0  0  0  0  0  0  0  0  0  0  0  0
    3.3110   -4.3187    0.0000 C   0  0  0  0  0  0  0  0  0  0  0  0
    3.7429   -5.0097    0.0000 C   0  0  0  0  0  0  0  0  0  0  0  0
    5.1249   -2.9655    0.0000 C   0  0  0  0  0  0  0  0  0  0  0  0
    5.8734   -3.2822    0.0000 C   0  0  0  0  0  0  0  0  0  0  0  0
    4.5490   -5.0097    0.0000 C   0  0  0  0  0  0  0  0  0  0  0  0
    2.4761   -4.3187    0.0000 C   0  0  3  0  0  0  0  0  0  0  0  0
    2.4761   -2.8791    0.0000 C   0  0  0  0  0  0  0  0  0  0  0  0
    3.7429   -2.1593    0.0000 C   0  0  0  0  0  0  0  0  0  0  0  0
    2.5048   -1.4396    0.0000 C   0  0  0  0  0  0  0  0  0  0  0  0
    6.5932   -2.8791    0.0000 C   0  0  0  0  0  0  0  0  0  0  0  0
    2.0730   -5.0385    0.0000 C   0  0  0  0  0  0  0  0  0  0  0  0
    2.0730   -2.1593    0.0000 C   0  0  0  0  0  0  0  0  0  0  0  0
    3.3110   -1.4396    0.0000 C   0  0  0  0  0  0  0  0  0  0  0  0
    3.3110   -5.7582    0.0000 C   0  0  0  0  0  0  0  0  0  0  0  0
    2.9079   -0.7198    0.0000 C   0  0  0  0  0  0  0  0  0  0  0  0
    1.2380   -0.7198    0.0000 C   0  0  0  0  0  0  0  0  0  0  0  0
    7.2842   -1.6123    0.0000 C   0  0  0  0  0  0  0  0  0  0  0  0
    0.8350   -5.7582    0.0000 C   0  0  0  0  0  0  0  0  0  0  0  0
    0.8350    0.0000    0.0000 C   0  0  0  0  0  0  0  0  0  0  0  0
    0.0000    0.0000    0.0000 C   0  0  0  0  0  0  0  0  0  0  0  0
  1 17  1  0  0  0  0
  2 20  1  0  0  0  0
  2 27  1  0  0  0  0
  3 21  1  0  0  0  0
  3 28  1  0  0  0  0
  4 22  1  0  0  0  0
  4 29  1  0  0  0  0
  5 21  2  0  0  0  0
  6 22  2  0  0  0  0
  7  9  1  0  0  0  0
  7 11  1  0  0  0  0
  7 16  1  0  0  0  0
  8 10  1  0  0  0  0
  8 18  1  0  0  0  0
  8 19  1  0  0  0  0
  9 15  2  0  0  0  0
 10 11  1  0  0  0  0
 10 12  2  0  0  0  0
 11 14  2  0  0  0  0
 12 13  1  0  0  0  0
 12 17  1  0  0  0  0
 13 16  2  0  0  0  0
 13 25  1  0  0  0  0
 14 15  1  0  0  0  0
 15 21  1  0  0  0  0
 17 22  1  0  0  0  0
 18 23  1  0  0  0  0
 19 24  1  0  0  0  0
 20 23  1  0  0  0  0
 20 24  1  0  0  0  0
 20 26  1  0  0  0  0
 27 30  1  0  0  0  0
 30 31  2  0  0  0  0
M  END
> <PUBCHEM_COMPOUND_ID_TYPE>
0

> <PUBCHEM_TOTAL_CHARGE>
0

> <PUBCHEM_SUBSTANCE_ID>
310935119

> <PUBCHEM_SUBSTANCE_VERSION>
1

> <PUBCHEM_EXT_DATASOURCE_NAME>
4488

> <PUBCHEM_EXT_DATASOURCE_REGID>
SCHEMBL16112646

> <PUBCHEM_SUBSTANCE_COMMENT>
InChI=1S/C22H29N3O6/c1-6-11-31-22(3)7-9-24(10-8-22)18-16-12-15(20(27)29-4)23-25(16)13-14(2)17(18)19(26)21(28)30-5/h6,12-13,19,26H,1,7-11H2,2-5H3
InChIKey=FMWYDDGHWAQGIY-UHFFFAOYSA-N

> <PUBCHEM_SUBSTANCE_SYNONYM>
SCHEMBL16112646

> <PUBCHEM_XREF_EXT_ID>
SCHEMBL16112646

> <PUBCHEM_EXT_DATASOURCE_URL>
https://www.surechembl.org/

> <PUBCHEM_EXT_SUBSTANCE_URL>
https://www.surechembl.org/chemical/SCHEMBL16112646

> <PUBCHEM_CID_ASSOCIATIONS>
117603210  1

> <PUBCHEM_COORDINATE_TYPE>
1
3

$$$$
