310940237
  -OEChem-07211613022D

 19 20  0     1  0  0  0  0  0999 V2000
    0.3194    2.7257    0.0000 O   0  0  0  0  0  0  0  0  0  0  0  0
   -2.7900    2.7257    0.0000 O   0  0  0  0  0  0  0  0  0  0  0  0
   -2.0755    1.4882    0.0000 O   0  0  0  0  0  0  0  0  0  0  0  0
    2.7144    1.4882    0.0000 O   0  0  0  0  0  0  0  0  0  0  0  0
   -1.3611    2.7257    0.0000 C   0  0  0  0  0  0  0  0  0  0  0  0
    1.9999    2.7257    0.0000 C   0  0  3  0  0  0  0  0  0  0  0  0
   -0.6466    3.1382    0.0000 C   0  0  0  0  0  0  0  0  0  0  0  0
   -1.3611    1.9007    0.0000 C   0  0  0  0  0  0  0  0  0  0  0  0
   -2.0755    3.1382    0.0000 C   0  0  0  0  0  0  0  0  0  0  0  0
    1.0339    3.1382    0.0000 C   0  0  0  0  0  0  0  0  0  0  0  0
   -0.8712    3.6142    0.0000 C   0  0  0  0  0  0  0  0  0  0  0  0
    1.9999    1.9007    0.0000 C   0  0  0  0  0  0  0  0  0  0  0  0
    2.7144    3.1382    0.0000 C   0  0  0  0  0  0  0  0  0  0  0  0
    2.0255    3.4427    0.0000 C   0  0  0  0  0  0  0  0  0  0  0  0
   -2.7900    1.9007    0.0000 C   0  0  0  0  0  0  0  0  0  0  0  0
    3.4288    2.7257    0.0000 C   0  0  0  0  0  0  0  0  0  0  0  0
    3.4288    1.9007    0.0000 C   0  0  0  0  0  0  0  0  0  0  0  0
   -1.2977    4.3204    0.0000 C   0  0  0  0  0  0  0  0  0  0  0  0
    1.3262    3.8805    0.0000 C   0  0  0  0  0  0  0  0  0  0  0  0
  1  7  1  0  0  0  0
  1 10  1  0  0  0  0
  2  9  1  0  0  0  0
  2 15  1  0  0  0  0
  3  8  1  0  0  0  0
  3 15  1  0  0  0  0
  4 12  1  0  0  0  0
  4 17  1  0  0  0  0
  5  7  1  0  0  0  0
  5  8  1  0  0  0  0
  5  9  1  0  0  0  0
  5 11  1  0  0  0  0
  6 10  1  0  0  0  0
  6 12  1  0  0  0  0
  6 13  1  0  0  0  0
  6 14  1  0  0  0  0
 11 18  1  0  0  0  0
 13 16  1  0  0  0  0
 14 19  1  0  0  0  0
 16 17  1  0  0  0  0
M  END
> <PUBCHEM_COMPOUND_ID_TYPE>
0

> <PUBCHEM_TOTAL_CHARGE>
0

> <PUBCHEM_SUBSTANCE_ID>
310940237

> <PUBCHEM_SUBSTANCE_VERSION>
1

> <PUBCHEM_EXT_DATASOURCE_NAME>
4488

> <PUBCHEM_EXT_DATASOURCE_REGID>
SCHEMBL16118171

> <PUBCHEM_SUBSTANCE_COMMENT>
InChI=1S/C15H28O4/c1-3-14(6-5-7-16-8-14)9-17-10-15(4-2)11-18-13-19-12-15/h3-13H2,1-2H3
InChIKey=QLKUBITUOKDRFI-UHFFFAOYSA-N

> <PUBCHEM_SUBSTANCE_SYNONYM>
SCHEMBL16118171

> <PUBCHEM_XREF_EXT_ID>
SCHEMBL16118171

> <PUBCHEM_EXT_DATASOURCE_URL>
https://www.surechembl.org/

> <PUBCHEM_EXT_SUBSTANCE_URL>
https://www.surechembl.org/chemical/SCHEMBL16118171

> <PUBCHEM_CID_ASSOCIATIONS>
117607328  1

> <PUBCHEM_COORDINATE_TYPE>
1
3

$$$$
