310934654
  -OEChem-07211613022D

 26 28  0     1  0  0  0  0  0999 V2000
    2.1408   -5.0373    0.0000 I   0  0  0  0  0  0  0  0  0  0  0  0
    5.4403   -0.7304    0.0000 S   0  0  0  0  0  0  0  0  0  0  0  0
    2.4935    0.0000    0.0000 O   0  0  0  0  0  0  0  0  0  0  0  0
    1.6623   -1.4356    0.0000 O   0  0  0  0  0  0  0  0  0  0  0  0
    2.1408   -2.1660    0.0000 O   0  0  0  0  0  0  0  0  0  0  0  0
    1.6875   -2.8713    0.0000 O   0  0  0  0  0  0  0  0  0  0  0  0
    3.3498   -2.8713    0.0000 N   0  0  0  0  0  0  0  0  0  0  0  0
    2.4935   -1.4356    0.0000 N   0  0  0  0  0  0  0  0  0  0  0  0
    3.7276   -0.7304    0.0000 C   0  0  0  0  0  0  0  0  0  0  0  0
    2.9216   -0.7304    0.0000 C   0  0  0  0  0  0  0  0  0  0  0  0
    3.3246   -1.4356    0.0000 C   0  0  0  0  0  0  0  0  0  0  0  0
    4.1810   -1.4356    0.0000 C   0  0  0  0  0  0  0  0  0  0  0  0
    4.1810    0.0000    0.0000 C   0  0  0  0  0  0  0  0  0  0  0  0
    3.7528   -2.1660    0.0000 C   0  0  0  0  0  0  0  0  0  0  0  0
    2.5438   -2.8964    0.0000 C   0  0  0  0  0  0  0  0  0  0  0  0
    4.9869   -1.4356    0.0000 C   0  0  0  0  0  0  0  0  0  0  0  0
    4.9869    0.0000    0.0000 C   0  0  0  0  0  0  0  0  0  0  0  0
    3.7779   -3.6017    0.0000 C   0  0  0  0  0  0  0  0  0  0  0  0
    2.1157   -3.6017    0.0000 C   0  0  0  0  0  0  0  0  0  0  0  0
    2.5438   -4.3069    0.0000 C   0  0  0  0  0  0  0  0  0  0  0  0
    1.2593   -2.1660    0.0000 C   0  0  3  0  0  0  0  0  0  0  0  0
    3.3498   -4.3069    0.0000 C   0  0  0  0  0  0  0  0  0  0  0  0
    0.4282   -2.1660    0.0000 C   0  0  0  0  0  0  0  0  0  0  0  0
    1.2342   -3.6017    0.0000 C   0  0  0  0  0  0  0  0  0  0  0  0
    0.0000   -2.8713    0.0000 C   0  0  0  0  0  0  0  0  0  0  0  0
    0.4282   -3.5764    0.0000 C   0  0  0  0  0  0  0  0  0  0  0  0
  1 20  1  0  0  0  0
  2 16  1  0  0  0  0
  2 17  1  0  0  0  0
  3 10  2  0  0  0  0
  4  8  1  0  0  0  0
  4 21  1  0  0  0  0
  5 15  2  0  0  0  0
  6 21  1  0  0  0  0
  6 24  1  0  0  0  0
  7 14  1  0  0  0  0
  7 15  1  0  0  0  0
  7 18  1  0  0  0  0
  8 10  1  0  0  0  0
  9 10  1  0  0  0  0
  9 11  1  0  0  0  0
  9 12  1  0  0  0  0
  9 13  1  0  0  0  0
 11 14  1  0  0  0  0
 12 16  1  0  0  0  0
 13 17  1  0  0  0  0
 15 19  1  0  0  0  0
 18 22  2  0  0  0  0
 19 20  2  0  0  0  0
 20 22  1  0  0  0  0
 21 23  1  0  0  0  0
 23 25  1  0  0  0  0
 24 26  1  0  0  0  0
 25 26  1  0  0  0  0
M  END
> <PUBCHEM_COMPOUND_ID_TYPE>
0

> <PUBCHEM_TOTAL_CHARGE>
0

> <PUBCHEM_SUBSTANCE_ID>
310934654

> <PUBCHEM_SUBSTANCE_VERSION>
1

> <PUBCHEM_EXT_DATASOURCE_NAME>
4488

> <PUBCHEM_EXT_DATASOURCE_REGID>
SCHEMBL16112152

> <PUBCHEM_SUBSTANCE_COMMENT>
InChI=1S/C18H25IN2O4S/c19-14-4-8-21(15(22)13-14)9-5-18(6-11-26-12-7-18)17(23)20-25-16-3-1-2-10-24-16/h4,8,13,16H,1-3,5-7,9-12H2,(H,20,23)
InChIKey=LRBHDDHWXBACNO-UHFFFAOYSA-N

> <PUBCHEM_SUBSTANCE_SYNONYM>
SCHEMBL16112152

> <PUBCHEM_XREF_EXT_ID>
SCHEMBL16112152

> <PUBCHEM_EXT_DATASOURCE_URL>
https://www.surechembl.org/

> <PUBCHEM_EXT_SUBSTANCE_URL>
https://www.surechembl.org/chemical/SCHEMBL16112152

> <PUBCHEM_CID_ASSOCIATIONS>
117602821  1

> <PUBCHEM_COORDINATE_TYPE>
1
3

$$$$
