310934109
  -OEChem-07211613022D

 15 16  0     1  0  0  0  0  0999 V2000
    3.1306   -2.9004    0.0000 O   0  0  0  0  0  0  0  0  0  0  0  0
    3.1306   -1.4732    0.0000 O   0  0  0  0  0  0  0  0  0  0  0  0
    0.0000   -3.0692    0.0000 O   0  0  0  0  0  0  0  0  0  0  0  0
    1.9029   -2.1791    0.0000 C   0  0  3  0  0  0  0  0  0  0  0  0
    2.2865   -1.4579    0.0000 C   0  0  0  0  0  0  0  0  0  0  0  0
    1.4426   -2.8543    0.0000 C   0  0  0  0  0  0  0  0  0  0  0  0
    2.7316   -2.1791    0.0000 C   0  0  0  0  0  0  0  0  0  0  0  0
    1.4426   -1.5193    0.0000 C   0  0  0  0  0  0  0  0  0  0  0  0
    0.6599   -2.5935    0.0000 C   0  0  3  0  0  0  0  0  0  0  0  0
    0.6599   -1.7801    0.0000 C   0  0  0  0  0  0  0  0  0  0  0  0
    1.8415   -0.7520    0.0000 C   0  0  0  0  0  0  0  0  0  0  0  0
    3.2687   -1.5806    0.0000 C   0  0  0  0  0  0  0  0  0  0  0  0
    2.2098   -0.0307    0.0000 C   0  0  0  0  0  0  0  0  0  0  0  0
    3.4682   -0.6906    0.0000 C   0  0  0  0  0  0  0  0  0  0  0  0
    3.0385    0.0000    0.0000 C   0  0  0  0  0  0  0  0  0  0  0  0
  1  7  2  0  0  0  0
  2  7  1  0  0  0  0
  3  9  1  0  0  0  0
  4  5  1  0  0  0  0
  4  6  1  0  0  0  0
  4  7  1  0  0  0  0
  4  8  1  0  0  0  0
  5 11  2  0  0  0  0
  5 12  1  0  0  0  0
  6  9  1  0  0  0  0
  8 10  1  0  0  0  0
  9 10  1  0  0  0  0
 11 13  1  0  0  0  0
 12 14  2  0  0  0  0
 13 15  2  0  0  0  0
 14 15  1  0  0  0  0
M  END
> <PUBCHEM_COMPOUND_ID_TYPE>
0

> <PUBCHEM_TOTAL_CHARGE>
0

> <PUBCHEM_SUBSTANCE_ID>
310934109

> <PUBCHEM_SUBSTANCE_VERSION>
1

> <PUBCHEM_EXT_DATASOURCE_NAME>
4488

> <PUBCHEM_EXT_DATASOURCE_REGID>
SCHEMBL16111555

> <PUBCHEM_SUBSTANCE_COMMENT>
InChI=1S/C12H14O3/c13-10-6-7-12(8-10,11(14)15)9-4-2-1-3-5-9/h1-5,10,13H,6-8H2,(H,14,15)
InChIKey=OUJQRDINJYZZNS-UHFFFAOYSA-N

> <PUBCHEM_SUBSTANCE_SYNONYM>
SCHEMBL16111555

> <PUBCHEM_XREF_EXT_ID>
SCHEMBL16111555

> <PUBCHEM_EXT_DATASOURCE_URL>
https://www.surechembl.org/

> <PUBCHEM_EXT_SUBSTANCE_URL>
https://www.surechembl.org/chemical/SCHEMBL16111555

> <PUBCHEM_CID_ASSOCIATIONS>
3115816  1

> <PUBCHEM_COORDINATE_TYPE>
1
3

$$$$
