310945112
  -OEChem-07211613022D

 38 42  0     1  0  0  0  0  0999 V2000
    3.7242    3.3669    0.0000 O   0  0  0  0  0  0  0  0  0  0  0  0
   -1.9652   -1.9102    0.0000 O   0  0  0  0  0  0  0  0  0  0  0  0
   -4.0128    0.2474    0.0000 O   0  0  0  0  0  0  0  0  0  0  0  0
    2.2263    1.0307    0.0000 N   0  0  0  0  0  0  0  0  0  0  0  0
    4.4388    2.1301    0.0000 N   0  0  0  0  0  0  0  0  0  0  0  0
    4.4388   -0.3848    0.0000 N   0  0  0  0  0  0  0  0  0  0  0  0
   -0.7283    1.7040    0.0000 N   0  0  0  0  0  0  0  0  0  0  0  0
   -2.7897   -0.4535    0.0000 N   0  0  0  0  0  0  0  0  0  0  0  0
   -4.0128   -2.6248    0.0000 N   0  0  0  0  0  0  0  0  0  0  0  0
    3.7242    0.8658    0.0000 C   0  0  3  0  0  0  0  0  0  0  0  0
    2.9959    1.2918    0.0000 C   0  0  0  0  0  0  0  0  0  0  0  0
    3.0096    2.1164    0.0000 C   0  0  0  0  0  0  0  0  0  0  0  0
    1.7316    1.7040    0.0000 C   0  0  0  0  0  0  0  0  0  0  0  0
    3.7105    2.5286    0.0000 C   0  0  0  0  0  0  0  0  0  0  0  0
    2.2263    2.3775    0.0000 C   0  0  0  0  0  0  0  0  0  0  0  0
    4.4251    1.2780    0.0000 C   0  0  0  0  0  0  0  0  0  0  0  0
    0.9208    1.7178    0.0000 C   0  0  0  0  0  0  0  0  0  0  0  0
    4.4388    0.4398    0.0000 C   0  0  0  0  0  0  0  0  0  0  0  0
    3.0096    0.4535    0.0000 C   0  0  0  0  0  0  0  0  0  0  0  0
    0.4947    0.9757    0.0000 C   0  0  0  0  0  0  0  0  0  0  0  0
   -0.3298    0.9894    0.0000 C   0  0  0  0  0  0  0  0  0  0  0  0
    3.0096   -0.3848    0.0000 C   0  0  0  0  0  0  0  0  0  0  0  0
    0.5084    2.4186    0.0000 C   0  0  0  0  0  0  0  0  0  0  0  0
   -0.7421    0.2474    0.0000 C   0  0  0  0  0  0  0  0  0  0  0  0
    3.7242   -0.8108    0.0000 C   0  0  0  0  0  0  0  0  0  0  0  0
   -0.3161    2.4325    0.0000 C   0  0  0  0  0  0  0  0  0  0  0  0
   -1.5529    0.2474    0.0000 C   0  0  0  0  0  0  0  0  0  0  0  0
   -1.9652   -0.4673    0.0000 C   0  0  0  0  0  0  0  0  0  0  0  0
   -1.5529   -1.1819    0.0000 C   0  0  0  0  0  0  0  0  0  0  0  0
   -0.3298   -0.4535    0.0000 C   0  0  0  0  0  0  0  0  0  0  0  0
   -0.7421   -1.1819    0.0000 C   0  0  0  0  0  0  0  0  0  0  0  0
   -3.1745    0.2611    0.0000 C   0  0  0  0  0  0  0  0  0  0  0  0
   -2.7897   -1.9102    0.0000 C   0  0  0  0  0  0  0  0  0  0  0  0
   -2.7897    0.9757    0.0000 C   0  0  0  0  0  0  0  0  0  0  0  0
   -3.2020   -2.6385    0.0000 C   0  0  0  0  0  0  0  0  0  0  0  0
   -3.2707    1.6766    0.0000 C   0  0  0  0  0  0  0  0  0  0  0  0
   -4.4388   -1.8965    0.0000 C   0  0  0  0  0  0  0  0  0  0  0  0
   -4.4114   -3.3669    0.0000 C   0  0  0  0  0  0  0  0  0  0  0  0
  1 14  2  0  0  0  0
  2 29  1  0  0  0  0
  2 33  1  0  0  0  0
  3 32  2  0  0  0  0
  4 11  1  0  0  0  0
  4 13  1  0  0  0  0
  5 14  1  0  0  0  0
  5 16  1  0  0  0  0
  6 18  1  0  0  0  0
  6 25  1  0  0  0  0
  7 21  2  0  0  0  0
  7 26  1  0  0  0  0
  8 28  1  0  0  0  0
  8 32  1  0  0  0  0
  9 35  1  0  0  0  0
  9 37  1  0  0  0  0
  9 38  1  0  0  0  0
 10 11  1  0  0  0  0
 10 16  1  0  0  0  0
 10 18  1  0  0  0  0
 10 19  1  0  0  0  0
 11 12  2  0  0  0  0
 12 14  1  0  0  0  0
 12 15  1  0  0  0  0
 13 15  2  0  0  0  0
 13 17  1  0  0  0  0
 17 20  2  0  0  0  0
 17 23  1  0  0  0  0
 19 22  1  0  0  0  0
 20 21  1  0  0  0  0
 21 24  1  0  0  0  0
 22 25  1  0  0  0  0
 23 26  2  0  0  0  0
 24 27  2  0  0  0  0
 24 30  1  0  0  0  0
 27 28  1  0  0  0  0
 28 29  2  0  0  0  0
 29 31  1  0  0  0  0
 30 31  2  0  0  0  0
 32 34  1  0  0  0  0
 33 35  1  0  0  0  0
 34 36  2  0  0  0  0
M  END
> <PUBCHEM_COMPOUND_ID_TYPE>
0

> <PUBCHEM_TOTAL_CHARGE>
0

> <PUBCHEM_SUBSTANCE_ID>
310945112

> <PUBCHEM_SUBSTANCE_VERSION>
1

> <PUBCHEM_EXT_DATASOURCE_NAME>
4488

> <PUBCHEM_EXT_DATASOURCE_REGID>
SCHEMBL16123202

> <PUBCHEM_SUBSTANCE_COMMENT>
InChI=1S/C29H34N6O3/c1-4-26(36)33-24-15-19(6-7-25(24)38-13-12-35(2)3)22-14-20(8-11-31-22)23-16-21-27(34-23)29(18-32-28(21)37)9-5-10-30-17-29/h4,6-8,11,14-16,30,34H,1,5,9-10,12-13,17-18H2,2-3H3,(H,32,37)(H,33,36)
InChIKey=JLVIEFVFLMBCCL-UHFFFAOYSA-N

> <PUBCHEM_SUBSTANCE_SYNONYM>
SCHEMBL16123202

> <PUBCHEM_XREF_EXT_ID>
SCHEMBL16123202

> <PUBCHEM_EXT_DATASOURCE_URL>
https://www.surechembl.org/

> <PUBCHEM_EXT_SUBSTANCE_URL>
https://www.surechembl.org/chemical/SCHEMBL16123202

> <PUBCHEM_CID_ASSOCIATIONS>
86302144  1

> <PUBCHEM_COORDINATE_TYPE>
1
3

$$$$
