310944701
  -OEChem-07211613022D

 33 35  0     1  0  0  0  0  0999 V2000
   -3.0393   -0.8515    0.0000 Cl  0  0  0  0  0  0  0  0  0  0  0  0
   -2.1443    2.0448    0.0000 Cl  0  0  0  0  0  0  0  0  0  0  0  0
   -5.0157    0.3915    0.0000 F   0  0  0  0  0  0  0  0  0  0  0  0
   -0.0062   -0.8515    0.0000 O   0  0  0  0  0  0  0  0  0  0  0  0
    1.4233    1.6346    0.0000 O   0  0  0  0  0  0  0  0  0  0  0  0
    5.0157   -0.4289    0.0000 O   0  0  0  0  0  0  0  0  0  0  0  0
    5.0157    0.3915    0.0000 O   0  0  0  0  0  0  0  0  0  0  0  0
    2.1691    0.3915    0.0000 N   0  0  0  0  0  0  0  0  0  0  0  0
    3.5986   -0.4289    0.0000 N   0  0  0  0  0  0  0  0  0  0  0  0
    0.0062    0.8142    0.0000 N   0  0  0  0  0  0  0  0  0  0  0  0
   -2.1443    0.3915    0.0000 C   0  0  0  0  0  0  0  0  0  0  0  0
   -2.8777    0.8142    0.0000 C   0  0  0  0  0  0  0  0  0  0  0  0
   -0.7147    0.4040    0.0000 C   0  0  0  0  0  0  0  0  0  0  0  0
   -2.1443   -0.4289    0.0000 C   0  0  0  0  0  0  0  0  0  0  0  0
   -0.7147   -0.4289    0.0000 C   0  0  0  0  0  0  0  0  0  0  0  0
   -1.4357    0.8017    0.0000 C   0  0  0  0  0  0  0  0  0  0  0  0
   -2.8652    1.6471    0.0000 C   0  0  0  0  0  0  0  0  0  0  0  0
   -1.4109   -0.8391    0.0000 C   0  0  0  0  0  0  0  0  0  0  0  0
   -3.5738    0.4040    0.0000 C   0  0  0  0  0  0  0  0  0  0  0  0
    3.5986    0.4040    0.0000 C   0  0  3  0  0  0  0  0  0  0  0  0
    1.4357    0.8017    0.0000 C   0  0  0  0  0  0  0  0  0  0  0  0
    2.8777    0.8142    0.0000 C   0  0  0  0  0  0  0  0  0  0  0  0
   -4.2948    0.8142    0.0000 C   0  0  0  0  0  0  0  0  0  0  0  0
    0.7397    0.4040    0.0000 C   0  0  0  0  0  0  0  0  0  0  0  0
   -3.5862    2.0448    0.0000 C   0  0  0  0  0  0  0  0  0  0  0  0
    2.1567   -0.4289    0.0000 C   0  0  0  0  0  0  0  0  0  0  0  0
    2.8901   -0.8391    0.0000 C   0  0  0  0  0  0  0  0  0  0  0  0
    4.2948   -0.8515    0.0000 C   0  0  0  0  0  0  0  0  0  0  0  0
   -4.2823    1.6471    0.0000 C   0  0  0  0  0  0  0  0  0  0  0  0
    4.3072    0.8142    0.0000 C   0  0  0  0  0  0  0  0  0  0  0  0
    4.3072   -1.6843    0.0000 C   0  0  0  0  0  0  0  0  0  0  0  0
    0.0062   -1.6719    0.0000 C   0  0  0  0  0  0  0  0  0  0  0  0
    3.5738   -2.0448    0.0000 C   0  0  0  0  0  0  0  0  0  0  0  0
  1 14  1  0  0  0  0
  2 17  1  0  0  0  0
  3 23  1  0  0  0  0
  4 15  1  0  0  0  0
  4 32  1  0  0  0  0
  5 21  2  0  0  0  0
  6 28  2  0  0  0  0
  7 30  1  0  0  0  0
  8 21  1  0  0  0  0
  8 22  1  0  0  0  0
  8 26  1  0  0  0  0
  9 20  1  0  0  0  0
  9 27  1  0  0  0  0
  9 28  1  0  0  0  0
 10 13  1  0  0  0  0
 10 24  1  0  0  0  0
 11 12  1  0  0  0  0
 11 14  2  0  0  0  0
 11 16  1  0  0  0  0
 12 17  1  0  0  0  0
 12 19  2  0  0  0  0
 13 15  1  0  0  0  0
 13 16  2  0  0  0  0
 14 18  1  0  0  0  0
 15 18  2  0  0  0  0
 17 25  2  0  0  0  0
 19 23  1  0  0  0  0
 20 22  1  0  0  0  0
 20 30  1  0  0  0  0
 21 24  1  0  0  0  0
 23 29  2  0  0  0  0
 25 29  1  0  0  0  0
 26 27  1  0  0  0  0
 28 31  1  0  0  0  0
 31 33  2  0  0  0  0
M  END
> <PUBCHEM_COMPOUND_ID_TYPE>
0

> <PUBCHEM_TOTAL_CHARGE>
0

> <PUBCHEM_SUBSTANCE_ID>
310944701

> <PUBCHEM_SUBSTANCE_VERSION>
1

> <PUBCHEM_EXT_DATASOURCE_NAME>
4488

> <PUBCHEM_EXT_DATASOURCE_REGID>
SCHEMBL16122780

> <PUBCHEM_SUBSTANCE_COMMENT>
InChI=1S/C23H24Cl2FN3O4/c1-3-22(31)29-7-6-28(12-15(29)13-30)23(32)11-27-20-9-17(19(25)10-21(20)33-2)16-8-14(26)4-5-18(16)24/h3-5,8-10,15,27,30H,1,6-7,11-13H2,2H3
InChIKey=KNDATHGGQMNDJX-UHFFFAOYSA-N

> <PUBCHEM_SUBSTANCE_SYNONYM>
SCHEMBL16122780

> <PUBCHEM_XREF_EXT_ID>
SCHEMBL16122780

> <PUBCHEM_EXT_DATASOURCE_URL>
https://www.surechembl.org/

> <PUBCHEM_EXT_SUBSTANCE_URL>
https://www.surechembl.org/chemical/SCHEMBL16122780

> <PUBCHEM_CID_ASSOCIATIONS>
117610925  1

> <PUBCHEM_COORDINATE_TYPE>
1
3

$$$$
