310942918
  -OEChem-07211613022D

 10 11  0     1  0  0  0  0  0999 V2000
    1.6262   -0.8421    0.0000 I   0  0  0  0  0  0  0  0  0  0  0  0
   -0.3920    0.3630    0.0000 N   0  0  3  0  0  0  0  0  0  0  0  0
   -0.3920   -0.4356    0.0000 C   0  0  3  0  0  0  0  0  0  0  0  0
    0.3339   -0.8276    0.0000 C   0  0  0  0  0  0  0  0  0  0  0  0
    1.0890   -0.4356    0.0000 C   0  0  3  0  0  0  0  0  0  0  0  0
    0.2904    0.8421    0.0000 C   0  0  0  0  0  0  0  0  0  0  0  0
   -1.1034   -0.7405    0.0000 C   0  0  0  0  0  0  0  0  0  0  0  0
   -1.1615    0.5808    0.0000 C   0  0  0  0  0  0  0  0  0  0  0  0
    1.0890    0.3775    0.0000 C   0  0  0  0  0  0  0  0  0  0  0  0
   -1.6262   -0.1162    0.0000 C   0  0  0  0  0  0  0  0  0  0  0  0
  1  5  1  0  0  0  0
  2  3  1  0  0  0  0
  2  6  1  0  0  0  0
  2  8  1  0  0  0  0
  3  4  1  0  0  0  0
  3  7  1  0  0  0  0
  4  5  1  0  0  0  0
  5  9  1  0  0  0  0
  6  9  1  0  0  0  0
  7 10  1  0  0  0  0
  8 10  1  0  0  0  0
M  END
> <PUBCHEM_COMPOUND_ID_TYPE>
0

> <PUBCHEM_TOTAL_CHARGE>
0

> <PUBCHEM_SUBSTANCE_ID>
310942918

> <PUBCHEM_SUBSTANCE_VERSION>
1

> <PUBCHEM_EXT_DATASOURCE_NAME>
4488

> <PUBCHEM_EXT_DATASOURCE_REGID>
SCHEMBL16120976

> <PUBCHEM_SUBSTANCE_COMMENT>
InChI=1S/C8H14IN/c9-7-3-5-10-4-1-2-8(10)6-7/h7-8H,1-6H2
InChIKey=VFLUFLCEGRZYCY-UHFFFAOYSA-N

> <PUBCHEM_SUBSTANCE_SYNONYM>
SCHEMBL16120976

> <PUBCHEM_XREF_EXT_ID>
SCHEMBL16120976

> <PUBCHEM_EXT_DATASOURCE_URL>
https://www.surechembl.org/

> <PUBCHEM_EXT_SUBSTANCE_URL>
https://www.surechembl.org/chemical/SCHEMBL16120976

> <PUBCHEM_CID_ASSOCIATIONS>
117609392  1

> <PUBCHEM_COORDINATE_TYPE>
1
3

$$$$
