310941373
  -OEChem-07211613022D

 14 14  0     1  0  0  0  0  0999 V2000
   -1.6823   -0.5215    0.0000 O   0  0  0  0  0  0  0  0  0  0  0  0
    1.3963    1.6318    0.0000 O   0  0  0  0  0  0  0  0  0  0  0  0
    2.0692    0.4542    0.0000 O   0  0  0  0  0  0  0  0  0  0  0  0
    1.3290   -1.6318    0.0000 O   0  0  0  0  0  0  0  0  0  0  0  0
    0.6392   -0.3701    0.0000 N   0  0  0  0  0  0  0  0  0  0  0  0
    0.6561    0.5047    0.0000 C   0  0  3  0  0  0  0  0  0  0  0  0
   -0.7738    0.4879    0.0000 C   0  0  3  0  0  0  0  0  0  0  0  0
   -0.0841    0.8917    0.0000 C   0  0  0  0  0  0  0  0  0  0  0  0
    1.3627    0.8749    0.0000 C   0  0  0  0  0  0  0  0  0  0  0  0
   -0.8749   -0.3365    0.0000 C   0  0  0  0  0  0  0  0  0  0  0  0
   -1.5477    0.8244    0.0000 C   0  0  0  0  0  0  0  0  0  0  0  0
    1.3459   -0.7907    0.0000 C   0  0  0  0  0  0  0  0  0  0  0  0
   -2.0692    0.1851    0.0000 C   0  0  0  0  0  0  0  0  0  0  0  0
    2.0187   -0.4037    0.0000 C   0  0  0  0  0  0  0  0  0  0  0  0
  1 10  1  0  0  0  0
  1 13  1  0  0  0  0
  2  9  2  0  0  0  0
  3  9  1  0  0  0  0
  4 12  2  0  0  0  0
  5  6  1  0  0  0  0
  5 12  1  0  0  0  0
  6  8  1  0  0  0  0
  6  9  1  0  0  0  0
  7  8  1  0  0  0  0
  7 10  1  0  0  0  0
  7 11  1  0  0  0  0
 11 13  1  0  0  0  0
 12 14  1  0  0  0  0
M  END
> <PUBCHEM_COMPOUND_ID_TYPE>
0

> <PUBCHEM_TOTAL_CHARGE>
0

> <PUBCHEM_SUBSTANCE_ID>
310941373

> <PUBCHEM_SUBSTANCE_VERSION>
1

> <PUBCHEM_EXT_DATASOURCE_NAME>
4488

> <PUBCHEM_EXT_DATASOURCE_REGID>
SCHEMBL16119333

> <PUBCHEM_SUBSTANCE_COMMENT>
InChI=1S/C9H15NO4/c1-6(11)10-8(9(12)13)4-7-2-3-14-5-7/h7-8H,2-5H2,1H3,(H,10,11)(H,12,13)
InChIKey=YZLDYFIQRNNHMJ-UHFFFAOYSA-N

> <PUBCHEM_SUBSTANCE_SYNONYM>
SCHEMBL16119333

> <PUBCHEM_XREF_EXT_ID>
SCHEMBL16119333

> <PUBCHEM_EXT_DATASOURCE_URL>
https://www.surechembl.org/

> <PUBCHEM_EXT_SUBSTANCE_URL>
https://www.surechembl.org/chemical/SCHEMBL16119333

> <PUBCHEM_CID_ASSOCIATIONS>
64146448  1

> <PUBCHEM_COORDINATE_TYPE>
1
3

$$$$
