310934272
  -OEChem-07211613022D

 22 24  0     1  0  0  0  0  0999 V2000
    1.5088    0.0000    0.0000 O   0  0  0  0  0  0  0  0  0  0  0  0
    0.0000   -0.6879    0.0000 O   0  0  0  0  0  0  0  0  0  0  0  0
    2.0857   -2.1301    0.0000 N   0  0  0  0  0  0  0  0  0  0  0  0
    2.8623   -2.3963    0.0000 N   0  0  0  0  0  0  0  0  0  0  0  0
    0.6657   -1.1760    0.0000 N   0  0  0  0  0  0  0  0  0  0  0  0
    5.8133   -1.7307    0.0000 N   0  0  3  0  0  0  0  0  0  0  0  0
    2.0857   -1.3091    0.0000 C   0  0  0  0  0  0  0  0  0  0  0  0
    3.3505   -1.7085    0.0000 C   0  0  0  0  0  0  0  0  0  0  0  0
    2.8623   -1.0429    0.0000 C   0  0  0  0  0  0  0  0  0  0  0  0
    1.4200   -2.5960    0.0000 C   0  0  0  0  0  0  0  0  0  0  0  0
    4.1714   -1.7085    0.0000 C   0  0  0  0  0  0  0  0  0  0  0  0
    1.4200   -0.8210    0.0000 C   0  0  0  0  0  0  0  0  0  0  0  0
    4.5708   -2.4185    0.0000 C   0  0  0  0  0  0  0  0  0  0  0  0
    4.5930   -0.9763    0.0000 C   0  0  0  0  0  0  0  0  0  0  0  0
    1.5088   -3.4392    0.0000 C   0  0  0  0  0  0  0  0  0  0  0  0
    0.6657   -2.2632    0.0000 C   0  0  0  0  0  0  0  0  0  0  0  0
    5.4139   -2.4407    0.0000 C   0  0  0  0  0  0  0  0  0  0  0  0
    5.4139   -1.0207    0.0000 C   0  0  0  0  0  0  0  0  0  0  0  0
    0.8210   -3.9051    0.0000 C   0  0  0  0  0  0  0  0  0  0  0  0
    0.0000   -2.7513    0.0000 C   0  0  0  0  0  0  0  0  0  0  0  0
    0.0665   -3.5723    0.0000 C   0  0  0  0  0  0  0  0  0  0  0  0
    6.6564   -1.7307    0.0000 C   0  0  0  0  0  0  0  0  0  0  0  0
  1 12  2  0  0  0  0
  2  5  1  0  0  0  0
  3  4  1  0  0  0  0
  3  7  1  0  0  0  0
  3 10  1  0  0  0  0
  4  8  2  0  0  0  0
  5 12  1  0  0  0  0
  6 17  1  0  0  0  0
  6 18  1  0  0  0  0
  6 22  1  0  0  0  0
  7  9  2  0  0  0  0
  7 12  1  0  0  0  0
  8  9  1  0  0  0  0
  8 11  1  0  0  0  0
 10 15  2  0  0  0  0
 10 16  1  0  0  0  0
 11 13  2  0  0  0  0
 11 14  1  0  0  0  0
 13 17  1  0  0  0  0
 14 18  1  0  0  0  0
 15 19  1  0  0  0  0
 16 20  2  0  0  0  0
 19 21  2  0  0  0  0
 20 21  1  0  0  0  0
M  END
> <PUBCHEM_COMPOUND_ID_TYPE>
0

> <PUBCHEM_TOTAL_CHARGE>
0

> <PUBCHEM_SUBSTANCE_ID>
310934272

> <PUBCHEM_SUBSTANCE_VERSION>
1

> <PUBCHEM_EXT_DATASOURCE_NAME>
4488

> <PUBCHEM_EXT_DATASOURCE_REGID>
SCHEMBL16111730

> <PUBCHEM_SUBSTANCE_COMMENT>
InChI=1S/C16H18N4O2/c1-19-9-7-12(8-10-19)14-11-15(16(21)18-22)20(17-14)13-5-3-2-4-6-13/h2-7,11,22H,8-10H2,1H3,(H,18,21)
InChIKey=FUAUQPWBBHFMHG-UHFFFAOYSA-N

> <PUBCHEM_SUBSTANCE_SYNONYM>
SCHEMBL16111730

> <PUBCHEM_XREF_EXT_ID>
SCHEMBL16111730

> <PUBCHEM_EXT_DATASOURCE_URL>
https://www.surechembl.org/

> <PUBCHEM_EXT_SUBSTANCE_URL>
https://www.surechembl.org/chemical/SCHEMBL16111730

> <PUBCHEM_CID_ASSOCIATIONS>
86291849  1

> <PUBCHEM_COORDINATE_TYPE>
1
3

$$$$
