310942325
  -OEChem-07211613022D

 38 41  0     1  0  0  0  0  0999 V2000
    3.9660    2.3267    0.0000 F   0  0  0  0  0  0  0  0  0  0  0  0
    4.6891    2.4794    0.0000 F   0  0  0  0  0  0  0  0  0  0  0  0
    5.2898    1.7972    0.0000 F   0  0  0  0  0  0  0  0  0  0  0  0
   -1.0132   -2.4285    0.0000 O   0  0  0  0  0  0  0  0  0  0  0  0
   -2.4489    0.0356    0.0000 O   0  0  0  0  0  0  0  0  0  0  0  0
    4.6687    0.2596    0.0000 O   0  0  0  0  0  0  0  0  0  0  0  0
   -3.8744   -2.4387    0.0000 O   0  0  0  0  0  0  0  0  0  0  0  0
    0.9928   -0.9113    0.0000 N   0  0  0  0  0  0  0  0  0  0  0  0
    1.7972   -1.0743    0.0000 N   0  0  0  0  0  0  0  0  0  0  0  0
   -1.7259   -1.1964    0.0000 N   0  0  0  0  0  0  0  0  0  0  0  0
    3.3551    0.8298    0.0000 N   0  0  0  0  0  0  0  0  0  0  0  0
   -4.5770   -1.2066    0.0000 N   0  0  0  0  0  0  0  0  0  0  0  0
    0.5753   -0.1985    0.0000 C   0  0  0  0  0  0  0  0  0  0  0  0
   -0.3106   -1.1964    0.0000 C   0  0  0  0  0  0  0  0  0  0  0  0
    0.4430   -1.5222    0.0000 C   0  0  0  0  0  0  0  0  0  0  0  0
   -0.2087   -0.3717    0.0000 C   0  0  0  0  0  0  0  0  0  0  0  0
    0.9113    0.5651    0.0000 C   0  0  3  0  0  0  0  0  0  0  0  0
   -1.0132   -1.5834    0.0000 C   0  0  0  0  0  0  0  0  0  0  0  0
    1.7259    0.6466    0.0000 C   0  0  0  0  0  0  0  0  0  0  0  0
    0.7077   -2.3064    0.0000 C   0  0  0  0  0  0  0  0  0  0  0  0
   -0.8400    0.1884    0.0000 C   0  0  0  0  0  0  0  0  0  0  0  0
    2.0619   -1.8583    0.0000 C   0  0  0  0  0  0  0  0  0  0  0  0
    1.5121   -2.4794    0.0000 C   0  0  0  0  0  0  0  0  0  0  0  0
    2.0619    1.4001    0.0000 C   0  0  0  0  0  0  0  0  0  0  0  0
    2.2045   -0.0051    0.0000 C   0  0  0  0  0  0  0  0  0  0  0  0
    0.4226    1.2372    0.0000 C   0  0  0  0  0  0  0  0  0  0  0  0
   -3.1515   -1.2066    0.0000 C   0  0  0  0  0  0  0  0  0  0  0  0
   -2.4183   -1.6140    0.0000 C   0  0  0  0  0  0  0  0  0  0  0  0
    2.8766    1.4815    0.0000 C   0  0  0  0  0  0  0  0  0  0  0  0
    3.0293    0.0764    0.0000 C   0  0  0  0  0  0  0  0  0  0  0  0
    4.1596    0.9317    0.0000 C   0  0  0  0  0  0  0  0  0  0  0  0
   -3.1413   -0.3819    0.0000 C   0  0  0  0  0  0  0  0  0  0  0  0
   -3.8642   -1.5936    0.0000 C   0  0  0  0  0  0  0  0  0  0  0  0
    4.4854    1.7056    0.0000 C   0  0  0  0  0  0  0  0  0  0  0  0
   -3.8744    0.0153    0.0000 C   0  0  0  0  0  0  0  0  0  0  0  0
   -4.5668   -0.3819    0.0000 C   0  0  0  0  0  0  0  0  0  0  0  0
   -5.2898    0.0356    0.0000 C   0  0  0  0  0  0  0  0  0  0  0  0
   -2.4591    0.8706    0.0000 C   0  0  0  0  0  0  0  0  0  0  0  0
  1 34  1  0  0  0  0
  2 34  1  0  0  0  0
  3 34  1  0  0  0  0
  4 18  2  0  0  0  0
  5 32  1  0  0  0  0
  5 38  1  0  0  0  0
  6 31  2  0  0  0  0
  7 33  2  0  0  0  0
  8  9  1  0  0  0  0
  8 13  1  0  0  0  0
  8 15  1  0  0  0  0
  9 22  2  0  0  0  0
 10 18  1  0  0  0  0
 10 28  1  0  0  0  0
 11 29  1  0  0  0  0
 11 30  1  0  0  0  0
 11 31  1  0  0  0  0
 12 33  1  0  0  0  0
 12 36  1  0  0  0  0
 13 16  2  0  0  0  0
 13 17  1  0  0  0  0
 14 15  2  0  0  0  0
 14 16  1  0  0  0  0
 14 18  1  0  0  0  0
 15 20  1  0  0  0  0
 16 21  1  0  0  0  0
 17 19  1  0  0  0  0
 17 26  1  0  0  0  0
 19 24  1  0  0  0  0
 19 25  1  0  0  0  0
 20 23  2  0  0  0  0
 22 23  1  0  0  0  0
 24 29  1  0  0  0  0
 25 30  1  0  0  0  0
 27 28  1  0  0  0  0
 27 32  2  0  0  0  0
 27 33  1  0  0  0  0
 31 34  1  0  0  0  0
 32 35  1  0  0  0  0
 35 36  2  0  0  0  0
 36 37  1  0  0  0  0
M  END
> <PUBCHEM_COMPOUND_ID_TYPE>
0

> <PUBCHEM_TOTAL_CHARGE>
0

> <PUBCHEM_SUBSTANCE_ID>
310942325

> <PUBCHEM_SUBSTANCE_VERSION>
1

> <PUBCHEM_EXT_DATASOURCE_NAME>
4488

> <PUBCHEM_EXT_DATASOURCE_REGID>
SCHEMBL16120361

> <PUBCHEM_SUBSTANCE_COMMENT>
InChI=1S/C26H30F3N5O4/c1-14-12-20(38-4)18(23(35)32-14)13-30-24(36)21-16(3)22(34-19(21)6-5-9-31-34)15(2)17-7-10-33(11-8-17)25(37)26(27,28)29/h5-6,9,12,15,17H,7-8,10-11,13H2,1-4H3,(H,30,36)(H,32,35)
InChIKey=HWOUSDKAFDJGLJ-UHFFFAOYSA-N

> <PUBCHEM_SUBSTANCE_SYNONYM>
SCHEMBL16120361

> <PUBCHEM_XREF_EXT_ID>
SCHEMBL16120361

> <PUBCHEM_EXT_DATASOURCE_URL>
https://www.surechembl.org/

> <PUBCHEM_EXT_SUBSTANCE_URL>
https://www.surechembl.org/chemical/SCHEMBL16120361

> <PUBCHEM_CID_ASSOCIATIONS>
117608957  1

> <PUBCHEM_COORDINATE_TYPE>
1
3

$$$$
