310943580
  -OEChem-07211613022D

 42 46  0     1  0  0  0  0  0999 V2000
    2.4510    3.8172    0.0000 O   0  0  0  0  0  0  0  0  0  0  0  0
    1.0367   -2.5539    0.0000 O   0  0  0  0  0  0  0  0  0  0  0  0
    3.2474    2.3480    0.0000 N   0  0  0  0  0  0  0  0  0  0  0  0
   -3.2885    0.2472    0.0000 N   0  0  3  0  0  0  0  0  0  0  0  0
   -1.1465    3.3640    0.0000 N   0  0  0  0  0  0  0  0  0  0  0  0
    5.0049    1.7988    0.0000 N   0  0  3  0  0  0  0  0  0  0  0  0
   -5.0873    0.7826    0.0000 N   0  0  3  0  0  0  0  0  0  0  0  0
    0.2952    1.5104    0.0000 C   0  0  0  0  0  0  0  0  0  0  0  0
    1.0367    1.0985    0.0000 C   0  0  0  0  0  0  0  0  0  0  0  0
   -0.4188    1.0985    0.0000 C   0  0  0  0  0  0  0  0  0  0  0  0
    1.0230    0.1510    0.0000 C   0  0  0  0  0  0  0  0  0  0  0  0
    1.7370    2.3617    0.0000 C   0  0  0  0  0  0  0  0  0  0  0  0
    1.7370    1.5241    0.0000 C   0  0  0  0  0  0  0  0  0  0  0  0
   -1.1465    1.5104    0.0000 C   0  0  0  0  0  0  0  0  0  0  0  0
    0.3090    2.3480    0.0000 C   0  0  0  0  0  0  0  0  0  0  0  0
    1.0230    2.7462    0.0000 C   0  0  0  0  0  0  0  0  0  0  0  0
    2.4510    2.7737    0.0000 C   0  0  0  0  0  0  0  0  0  0  0  0
   -0.4325    0.2472    0.0000 C   0  0  0  0  0  0  0  0  0  0  0  0
   -1.8468    1.0847    0.0000 C   0  0  0  0  0  0  0  0  0  0  0  0
   -1.8742    0.2472    0.0000 C   0  0  0  0  0  0  0  0  0  0  0  0
    1.7370   -0.2609    0.0000 C   0  0  0  0  0  0  0  0  0  0  0  0
    0.3227   -0.2609    0.0000 C   0  0  0  0  0  0  0  0  0  0  0  0
   -1.1328   -0.1648    0.0000 C   0  0  0  0  0  0  0  0  0  0  0  0
   -1.1465    2.5402    0.0000 C   0  0  0  0  0  0  0  0  0  0  0  0
    1.0367   -1.5104    0.0000 C   0  0  0  0  0  0  0  0  0  0  0  0
    1.7370   -1.0847    0.0000 C   0  0  0  0  0  0  0  0  0  0  0  0
    0.3227   -1.0847    0.0000 C   0  0  0  0  0  0  0  0  0  0  0  0
   -2.5608   -0.1785    0.0000 C   0  0  0  0  0  0  0  0  0  0  0  0
    3.5495    1.5653    0.0000 C   0  0  0  0  0  0  0  0  0  0  0  0
    3.6593    3.0757    0.0000 C   0  0  0  0  0  0  0  0  0  0  0  0
    4.3321    1.3182    0.0000 C   0  0  0  0  0  0  0  0  0  0  0  0
    4.4831    3.1856    0.0000 C   0  0  0  0  0  0  0  0  0  0  0  0
   -3.9888   -0.2197    0.0000 C   0  0  0  0  0  0  0  0  0  0  0  0
   -3.2336    1.0710    0.0000 C   0  0  0  0  0  0  0  0  0  0  0  0
    5.1010    2.5951    0.0000 C   0  0  0  0  0  0  0  0  0  0  0  0
   -4.7715    0.0137    0.0000 C   0  0  0  0  0  0  0  0  0  0  0  0
    1.7507   -2.9659    0.0000 C   0  0  0  0  0  0  0  0  0  0  0  0
   -3.8516    1.6340    0.0000 C   0  0  0  0  0  0  0  0  0  0  0  0
   -4.6617    1.5104    0.0000 C   0  0  0  0  0  0  0  0  0  0  0  0
    5.9111    1.2632    0.0000 C   0  0  0  0  0  0  0  0  0  0  0  0
    1.7507   -3.8172    0.0000 C   0  0  0  0  0  0  0  0  0  0  0  0
   -5.9111    0.7826    0.0000 C   0  0  0  0  0  0  0  0  0  0  0  0
  1 17  2  0  0  0  0
  2 25  1  0  0  0  0
  2 37  1  0  0  0  0
  3 17  1  0  0  0  0
  3 29  1  0  0  0  0
  3 30  1  0  0  0  0
  4 28  1  0  0  0  0
  4 33  1  0  0  0  0
  4 34  1  0  0  0  0
  5 24  3  0  0  0  0
  6 31  1  0  0  0  0
  6 35  1  0  0  0  0
  6 40  1  0  0  0  0
  7 36  1  0  0  0  0
  7 39  1  0  0  0  0
  7 42  1  0  0  0  0
  8  9  2  0  0  0  0
  8 10  1  0  0  0  0
  8 15  1  0  0  0  0
  9 11  1  0  0  0  0
  9 13  1  0  0  0  0
 10 14  2  0  0  0  0
 10 18  1  0  0  0  0
 11 21  2  0  0  0  0
 11 22  1  0  0  0  0
 12 13  2  0  0  0  0
 12 16  1  0  0  0  0
 12 17  1  0  0  0  0
 14 19  1  0  0  0  0
 14 24  1  0  0  0  0
 15 16  2  0  0  0  0
 18 23  2  0  0  0  0
 19 20  2  0  0  0  0
 20 23  1  0  0  0  0
 20 28  1  0  0  0  0
 21 26  1  0  0  0  0
 22 27  2  0  0  0  0
 25 26  2  0  0  0  0
 25 27  1  0  0  0  0
 29 31  1  0  0  0  0
 30 32  1  0  0  0  0
 32 35  1  0  0  0  0
 33 36  1  0  0  0  0
 34 38  1  0  0  0  0
 37 41  1  0  0  0  0
 38 39  1  0  0  0  0
M  END
> <PUBCHEM_COMPOUND_ID_TYPE>
0

> <PUBCHEM_TOTAL_CHARGE>
0

> <PUBCHEM_SUBSTANCE_ID>
310943580

> <PUBCHEM_SUBSTANCE_VERSION>
1

> <PUBCHEM_EXT_DATASOURCE_NAME>
4488

> <PUBCHEM_EXT_DATASOURCE_REGID>
SCHEMBL16121647

> <PUBCHEM_SUBSTANCE_COMMENT>
InChI=1S/C35H43N5O2/c1-4-42-31-11-8-28(9-12-31)34-24-29(35(41)40-18-6-16-38(3)20-22-40)10-14-33(34)32-13-7-27(23-30(32)25-36)26-39-17-5-15-37(2)19-21-39/h7-14,23-24H,4-6,15-22,26H2,1-3H3
InChIKey=ACZHYIOMHJGDTN-UHFFFAOYSA-N

> <PUBCHEM_SUBSTANCE_SYNONYM>
SCHEMBL16121647

> <PUBCHEM_XREF_EXT_ID>
SCHEMBL16121647

> <PUBCHEM_EXT_DATASOURCE_URL>
https://www.surechembl.org/

> <PUBCHEM_EXT_SUBSTANCE_URL>
https://www.surechembl.org/chemical/SCHEMBL16121647

> <PUBCHEM_CID_ASSOCIATIONS>
86301998  1

> <PUBCHEM_COORDINATE_TYPE>
1
3

$$$$
