310947066
  -OEChem-07211613022D

 40 43  0     1  0  0  0  0  0999 V2000
    1.9891   -0.0289    0.0000 S   0  0  0  0  0  0  0  0  0  0  0  0
   -3.0126   -0.5890    0.0000 O   0  0  0  0  0  0  0  0  0  0  0  0
    1.9891    0.8014    0.0000 O   0  0  0  0  0  0  0  0  0  0  0  0
    2.8195   -0.0289    0.0000 O   0  0  0  0  0  0  0  0  0  0  0  0
    3.4182   -2.5202    0.0000 O   0  0  0  0  0  0  0  0  0  0  0  0
    1.9891   -2.5202    0.0000 O   0  0  0  0  0  0  0  0  0  0  0  0
   -2.0277    2.0181    0.0000 N   0  0  0  0  0  0  0  0  0  0  0  0
   -1.4098    1.4581    0.0000 N   0  0  0  0  0  0  0  0  0  0  0  0
   -1.3325   -0.0289    0.0000 N   0  0  0  0  0  0  0  0  0  0  0  0
    1.9891   -0.8594    0.0000 N   0  0  3  0  0  0  0  0  0  0  0  0
   -3.9783    0.4732    0.0000 N   0  0  0  0  0  0  0  0  0  0  0  0
    0.2704    2.9837    0.0000 N   0  0  0  0  0  0  0  0  0  0  0  0
   -1.9312    2.8485    0.0000 C   0  0  0  0  0  0  0  0  0  0  0  0
   -2.7422    1.6125    0.0000 C   0  0  0  0  0  0  0  0  0  0  0  0
   -2.5685    0.8014    0.0000 C   0  0  0  0  0  0  0  0  0  0  0  0
   -1.7380    0.6856    0.0000 C   0  0  0  0  0  0  0  0  0  0  0  0
   -3.1865    0.2414    0.0000 C   0  0  0  0  0  0  0  0  0  0  0  0
   -3.5340    1.8442    0.0000 C   0  0  0  0  0  0  0  0  0  0  0  0
   -2.7422    3.0223    0.0000 C   0  0  0  0  0  0  0  0  0  0  0  0
   -1.5256    3.5631    0.0000 C   0  0  0  0  0  0  0  0  0  0  0  0
    2.7229   -1.2650    0.0000 C   0  0  0  0  0  0  0  0  0  0  0  0
   -1.2553    2.3657    0.0000 C   0  0  0  0  0  0  0  0  0  0  0  0
    1.1394   -0.0289    0.0000 C   0  0  0  0  0  0  0  0  0  0  0  0
   -0.5021   -0.0289    0.0000 C   0  0  0  0  0  0  0  0  0  0  0  0
   -4.1327    1.3228    0.0000 C   0  0  0  0  0  0  0  0  0  0  0  0
   -2.8195    3.8334    0.0000 C   0  0  0  0  0  0  0  0  0  0  0  0
   -2.0664    4.1810    0.0000 C   0  0  0  0  0  0  0  0  0  0  0  0
    2.7229   -2.0760    0.0000 C   0  0  0  0  0  0  0  0  0  0  0  0
    0.7338   -0.7435    0.0000 C   0  0  0  0  0  0  0  0  0  0  0  0
    0.7532    0.6663    0.0000 C   0  0  0  0  0  0  0  0  0  0  0  0
   -0.0773   -0.7435    0.0000 C   0  0  0  0  0  0  0  0  0  0  0  0
   -0.0773    0.6856    0.0000 C   0  0  0  0  0  0  0  0  0  0  0  0
   -0.5021    2.6940    0.0000 C   0  0  0  0  0  0  0  0  0  0  0  0
    0.8691   -1.2650    0.0000 C   0  0  0  0  0  0  0  0  0  0  0  0
    3.1092   -0.5504    0.0000 C   0  0  0  0  0  0  0  0  0  0  0  0
    3.5340   -1.2650    0.0000 C   0  0  0  0  0  0  0  0  0  0  0  0
    3.4375   -3.3699    0.0000 C   0  0  0  0  0  0  0  0  0  0  0  0
    2.3174   -3.7755    0.0000 C   0  0  0  0  0  0  0  0  0  0  0  0
    4.1327   -3.7755    0.0000 C   0  0  0  0  0  0  0  0  0  0  0  0
    3.4182   -4.1810    0.0000 C   0  0  0  0  0  0  0  0  0  0  0  0
  1  3  2  0  0  0  0
  1  4  2  0  0  0  0
  1 10  1  0  0  0  0
  1 23  1  0  0  0  0
  2 17  2  0  0  0  0
  5 28  1  0  0  0  0
  5 37  1  0  0  0  0
  6 28  2  0  0  0  0
  7  8  1  0  0  0  0
  7 13  1  0  0  0  0
  7 14  1  0  0  0  0
  8 16  2  0  0  0  0
  9 16  1  0  0  0  0
  9 24  1  0  0  0  0
 10 21  1  0  0  0  0
 10 34  1  0  0  0  0
 11 17  1  0  0  0  0
 11 25  1  0  0  0  0
 12 33  3  0  0  0  0
 13 19  1  0  0  0  0
 13 20  1  0  0  0  0
 13 22  1  0  0  0  0
 14 15  2  0  0  0  0
 14 18  1  0  0  0  0
 15 16  1  0  0  0  0
 15 17  1  0  0  0  0
 18 25  2  0  0  0  0
 19 26  1  0  0  0  0
 20 27  1  0  0  0  0
 21 28  1  0  0  0  0
 21 35  1  0  0  0  0
 21 36  1  0  0  0  0
 22 33  1  0  0  0  0
 23 29  2  0  0  0  0
 23 30  1  0  0  0  0
 24 31  2  0  0  0  0
 24 32  1  0  0  0  0
 26 27  1  0  0  0  0
 29 31  1  0  0  0  0
 30 32  2  0  0  0  0
 37 38  1  0  0  0  0
 37 39  1  0  0  0  0
 37 40  1  0  0  0  0
M  END
> <PUBCHEM_COMPOUND_ID_TYPE>
0

> <PUBCHEM_TOTAL_CHARGE>
0

> <PUBCHEM_SUBSTANCE_ID>
310947066

> <PUBCHEM_SUBSTANCE_VERSION>
1

> <PUBCHEM_EXT_DATASOURCE_NAME>
4488

> <PUBCHEM_EXT_DATASOURCE_REGID>
SCHEMBL16125220

> <PUBCHEM_SUBSTANCE_COMMENT>
InChI=1S/C28H36N6O5S/c1-26(2,3)39-25(36)27(4,5)33(6)40(37,38)20-11-9-19(10-12-20)31-23-22-21(13-18-30-24(22)35)34(32-23)28(16-17-29)14-7-8-15-28/h9-13,18H,7-8,14-16H2,1-6H3,(H,30,35)(H,31,32)
InChIKey=HTCAIMKNUSQAOW-UHFFFAOYSA-N

> <PUBCHEM_SUBSTANCE_SYNONYM>
SCHEMBL16125220

> <PUBCHEM_XREF_EXT_ID>
SCHEMBL16125220

> <PUBCHEM_EXT_DATASOURCE_URL>
https://www.surechembl.org/

> <PUBCHEM_EXT_SUBSTANCE_URL>
https://www.surechembl.org/chemical/SCHEMBL16125220

> <PUBCHEM_CID_ASSOCIATIONS>
117612918  1

> <PUBCHEM_COORDINATE_TYPE>
1
3

$$$$
