310936312
  -OEChem-07211613022D

 29 33  0     1  0  0  0  0  0999 V2000
   -1.8750    3.2700    0.0000 F   0  0  0  0  0  0  0  0  0  0  0  0
    4.2868    2.4750    0.0000 F   0  0  0  0  0  0  0  0  0  0  0  0
    1.4290    0.8250    0.0000 O   0  0  0  0  0  0  0  0  0  0  0  0
   -1.0500    0.4121    0.0000 N   0  0  3  0  0  0  0  0  0  0  0  0
   -3.5250    0.4121    0.0000 N   0  0  0  0  0  0  0  0  0  0  0  0
   -3.1895   -0.3416    0.0000 N   0  0  0  0  0  0  0  0  0  0  0  0
   -4.3456    0.3259    0.0000 N   0  0  0  0  0  0  0  0  0  0  0  0
    2.8579    0.8250    0.0000 N   0  0  0  0  0  0  0  0  0  0  0  0
   -0.7144    1.2375    0.0000 C   0  0  3  0  0  0  0  0  0  0  0  0
   -0.7144   -0.4125    0.0000 C   0  0  3  0  0  0  0  0  0  0  0  0
    0.0000    0.8250    0.0000 C   0  0  3  0  0  0  0  0  0  0  0  0
    0.0000    0.0000    0.0000 C   0  0  0  0  0  0  0  0  0  0  0  0
   -2.2875    1.1266    0.0000 C   0  0  0  0  0  0  0  0  0  0  0  0
   -1.8750    0.4121    0.0000 C   0  0  0  0  0  0  0  0  0  0  0  0
   -1.4290    0.8250    0.0000 C   0  0  0  0  0  0  0  0  0  0  0  0
   -1.4290    0.0000    0.0000 C   0  0  0  0  0  0  0  0  0  0  0  0
   -3.1125    1.1266    0.0000 C   0  0  0  0  0  0  0  0  0  0  0  0
    0.7144    1.2375    0.0000 C   0  0  0  0  0  0  0  0  0  0  0  0
   -1.8750    1.8410    0.0000 C   0  0  0  0  0  0  0  0  0  0  0  0
   -3.5250    1.8410    0.0000 C   0  0  0  0  0  0  0  0  0  0  0  0
   -2.2875    2.5556    0.0000 C   0  0  0  0  0  0  0  0  0  0  0  0
   -3.1125    2.5556    0.0000 C   0  0  0  0  0  0  0  0  0  0  0  0
    2.1434    1.2375    0.0000 C   0  0  0  0  0  0  0  0  0  0  0  0
   -4.5171   -0.4811    0.0000 C   0  0  0  0  0  0  0  0  0  0  0  0
   -3.8026   -0.8936    0.0000 C   0  0  0  0  0  0  0  0  0  0  0  0
    2.1434    2.0625    0.0000 C   0  0  0  0  0  0  0  0  0  0  0  0
    3.5724    2.0625    0.0000 C   0  0  0  0  0  0  0  0  0  0  0  0
    3.5724    1.2375    0.0000 C   0  0  0  0  0  0  0  0  0  0  0  0
    2.8579    2.4750    0.0000 C   0  0  0  0  0  0  0  0  0  0  0  0
  1 21  1  0  0  0  0
  2 27  1  0  0  0  0
  3 18  1  0  0  0  0
  3 23  1  0  0  0  0
  4  9  1  0  0  0  0
  4 10  1  0  0  0  0
  4 14  1  0  0  0  0
  5  6  1  0  0  0  0
  5  7  1  0  0  0  0
  5 17  1  0  0  0  0
  6 25  2  0  0  0  0
  7 24  2  0  0  0  0
  8 23  2  0  0  0  0
  8 28  1  0  0  0  0
  9 11  1  0  0  0  0
  9 15  1  0  0  0  0
 10 12  1  0  0  0  0
 10 16  1  0  0  0  0
 11 12  1  0  0  0  0
 11 18  1  0  0  0  0
 13 14  1  0  0  0  0
 13 17  1  0  0  0  0
 13 19  2  0  0  0  0
 15 16  1  0  0  0  0
 17 20  2  0  0  0  0
 19 21  1  0  0  0  0
 20 22  1  0  0  0  0
 21 22  2  0  0  0  0
 23 26  1  0  0  0  0
 24 25  1  0  0  0  0
 26 29  2  0  0  0  0
 27 28  2  0  0  0  0
 27 29  1  0  0  0  0
M  END
> <PUBCHEM_COMPOUND_ID_TYPE>
0

> <PUBCHEM_TOTAL_CHARGE>
0

> <PUBCHEM_SUBSTANCE_ID>
310936312

> <PUBCHEM_SUBSTANCE_VERSION>
1

> <PUBCHEM_EXT_DATASOURCE_NAME>
4488

> <PUBCHEM_EXT_DATASOURCE_REGID>
SCHEMBL16113938

> <PUBCHEM_SUBSTANCE_COMMENT>
InChI=1S/C21H21F2N5O/c22-16-1-4-20(28-25-7-8-26-28)14(9-16)12-27-18-3-5-19(27)15(10-18)13-29-21-6-2-17(23)11-24-21/h1-2,4,6-9,11,15,18-19H,3,5,10,12-13H2
InChIKey=PKPZTEAFTNVBMI-UHFFFAOYSA-N

> <PUBCHEM_SUBSTANCE_SYNONYM>
SCHEMBL16113938

> <PUBCHEM_XREF_EXT_ID>
SCHEMBL16113938

> <PUBCHEM_EXT_DATASOURCE_URL>
https://www.surechembl.org/

> <PUBCHEM_EXT_SUBSTANCE_URL>
https://www.surechembl.org/chemical/SCHEMBL16113938

> <PUBCHEM_CID_ASSOCIATIONS>
117604256  1

> <PUBCHEM_COORDINATE_TYPE>
1
3

$$$$
