310943726
  -OEChem-07211613022D

 26 28  0     1  0  0  0  0  0999 V2000
    4.5282    0.6593    0.0000 O   0  5  0  0  0  0  0  0  0  0  0  0
    3.8342    1.8969    0.0000 O   0  0  0  0  0  0  0  0  0  0  0  0
   -1.9027   -1.4342    0.0000 N   0  0  3  0  0  0  0  0  0  0  0  0
    3.8111    1.0873    0.0000 N   0  3  0  0  0  0  0  0  0  0  0  0
   -3.6955   -0.9022    0.0000 N   0  0  3  0  0  0  0  0  0  0  0  0
    0.2255    1.6540    0.0000 N   0  0  0  0  0  0  0  0  0  0  0  0
    0.9658   -0.5668    0.0000 C   0  0  0  0  0  0  0  0  0  0  0  0
    1.6714   -0.1620    0.0000 C   0  0  0  0  0  0  0  0  0  0  0  0
    0.2371   -0.1620    0.0000 C   0  0  0  0  0  0  0  0  0  0  0  0
   -0.4685   -1.4111    0.0000 C   0  0  0  0  0  0  0  0  0  0  0  0
   -0.4685   -0.5899    0.0000 C   0  0  0  0  0  0  0  0  0  0  0  0
    0.9543   -1.4111    0.0000 C   0  0  0  0  0  0  0  0  0  0  0  0
    0.2371   -1.8159    0.0000 C   0  0  0  0  0  0  0  0  0  0  0  0
    1.6714    0.6593    0.0000 C   0  0  0  0  0  0  0  0  0  0  0  0
    2.4116   -0.5552    0.0000 C   0  0  0  0  0  0  0  0  0  0  0  0
    3.1056    0.6824    0.0000 C   0  0  0  0  0  0  0  0  0  0  0  0
   -1.1625   -1.8275    0.0000 C   0  0  0  0  0  0  0  0  0  0  0  0
    2.3769    1.0757    0.0000 C   0  0  0  0  0  0  0  0  0  0  0  0
    3.1056   -0.1504    0.0000 C   0  0  0  0  0  0  0  0  0  0  0  0
    0.2255    0.8443    0.0000 C   0  0  0  0  0  0  0  0  0  0  0  0
   -2.5851   -1.8969    0.0000 C   0  0  0  0  0  0  0  0  0  0  0  0
   -1.8564   -0.6015    0.0000 C   0  0  0  0  0  0  0  0  0  0  0  0
   -3.3832   -1.6656    0.0000 C   0  0  0  0  0  0  0  0  0  0  0  0
   -2.4695   -0.0462    0.0000 C   0  0  0  0  0  0  0  0  0  0  0  0
   -3.2791   -0.1735    0.0000 C   0  0  0  0  0  0  0  0  0  0  0  0
   -4.5282   -0.9137    0.0000 C   0  0  0  0  0  0  0  0  0  0  0  0
  1  4  1  0  0  0  0
  2  4  2  0  0  0  0
  3 17  1  0  0  0  0
  3 21  1  0  0  0  0
  3 22  1  0  0  0  0
  4 16  1  0  0  0  0
  5 23  1  0  0  0  0
  5 25  1  0  0  0  0
  5 26  1  0  0  0  0
  6 20  3  0  0  0  0
  7  8  1  0  0  0  0
  7  9  2  0  0  0  0
  7 12  1  0  0  0  0
  8 14  2  0  0  0  0
  8 15  1  0  0  0  0
  9 11  1  0  0  0  0
  9 20  1  0  0  0  0
 10 11  2  0  0  0  0
 10 13  1  0  0  0  0
 10 17  1  0  0  0  0
 12 13  2  0  0  0  0
 14 18  1  0  0  0  0
 15 19  2  0  0  0  0
 16 18  2  0  0  0  0
 16 19  1  0  0  0  0
 21 23  1  0  0  0  0
 22 24  1  0  0  0  0
 24 25  1  0  0  0  0
M  CHG  2   1  -1   4   1
M  END
> <PUBCHEM_COMPOUND_ID_TYPE>
0

> <PUBCHEM_TOTAL_CHARGE>
0

> <PUBCHEM_SUBSTANCE_ID>
310943726

> <PUBCHEM_SUBSTANCE_VERSION>
1

> <PUBCHEM_EXT_DATASOURCE_NAME>
4488

> <PUBCHEM_EXT_DATASOURCE_REGID>
SCHEMBL16121794

> <PUBCHEM_SUBSTANCE_COMMENT>
InChI=1S/C20H22N4O2/c1-22-9-2-10-23(12-11-22)15-16-3-8-20(18(13-16)14-21)17-4-6-19(7-5-17)24(25)26/h3-8,13H,2,9-12,15H2,1H3
InChIKey=TVBBCDIALYTUDH-UHFFFAOYSA-N

> <PUBCHEM_SUBSTANCE_SYNONYM>
SCHEMBL16121794

> <PUBCHEM_XREF_EXT_ID>
SCHEMBL16121794

> <PUBCHEM_EXT_DATASOURCE_URL>
https://www.surechembl.org/

> <PUBCHEM_EXT_SUBSTANCE_URL>
https://www.surechembl.org/chemical/SCHEMBL16121794

> <PUBCHEM_CID_ASSOCIATIONS>
117610094  1

> <PUBCHEM_COORDINATE_TYPE>
1
3

$$$$
