310938710
  -OEChem-07211613022D

 30 33  0     1  0  0  0  0  0999 V2000
   -3.5627   10.4551    0.0000 S   0  0  0  0  0  0  0  0  0  0  0  0
   -1.0538   13.7148    0.0000 F   0  0  0  0  0  0  0  0  0  0  0  0
   -2.7038   13.7148    0.0000 F   0  0  0  0  0  0  0  0  0  0  0  0
   -1.8788   14.5398    0.0000 F   0  0  0  0  0  0  0  0  0  0  0  0
    1.3427   12.7792    0.0000 O   0  0  0  0  0  0  0  0  0  0  0  0
    3.8177   14.2082    0.0000 O   0  0  0  0  0  0  0  0  0  0  0  0
   -1.1644   12.4773    0.0000 N   0  0  0  0  0  0  0  0  0  0  0  0
   -0.3798   12.7322    0.0000 N   0  0  0  0  0  0  0  0  0  0  0  0
   -1.8788   11.2398    0.0000 N   0  0  0  0  0  0  0  0  0  0  0  0
    1.3427   11.3503    0.0000 N   0  0  0  0  0  0  0  0  0  0  0  0
   -1.8788   12.8898    0.0000 C   0  0  0  0  0  0  0  0  0  0  0  0
   -1.1644   11.6523    0.0000 C   0  0  0  0  0  0  0  0  0  0  0  0
   -2.5933   11.6523    0.0000 C   0  0  0  0  0  0  0  0  0  0  0  0
   -1.8788   13.7148    0.0000 C   0  0  0  0  0  0  0  0  0  0  0  0
    0.1052   12.0648    0.0000 C   0  0  3  0  0  0  0  0  0  0  0  0
   -2.5933   12.4773    0.0000 C   0  0  0  0  0  0  0  0  0  0  0  0
   -0.3798   11.3973    0.0000 C   0  0  0  0  0  0  0  0  0  0  0  0
   -3.3078   11.2398    0.0000 C   0  0  0  0  0  0  0  0  0  0  0  0
    0.9302   12.0648    0.0000 C   0  0  0  0  0  0  0  0  0  0  0  0
   -3.9752   11.7247    0.0000 C   0  0  0  0  0  0  0  0  0  0  0  0
   -4.3877   10.4551    0.0000 C   0  0  0  0  0  0  0  0  0  0  0  0
   -4.6427   11.2398    0.0000 C   0  0  0  0  0  0  0  0  0  0  0  0
    2.1677   11.3503    0.0000 C   0  0  0  0  0  0  0  0  0  0  0  0
    2.5802   12.0648    0.0000 C   0  0  0  0  0  0  0  0  0  0  0  0
    3.4052   12.0648    0.0000 C   0  0  0  0  0  0  0  0  0  0  0  0
    2.1677   12.7792    0.0000 C   0  0  0  0  0  0  0  0  0  0  0  0
    3.4052   13.4937    0.0000 C   0  0  0  0  0  0  0  0  0  0  0  0
    3.8177   12.7792    0.0000 C   0  0  0  0  0  0  0  0  0  0  0  0
    2.5802   13.4937    0.0000 C   0  0  0  0  0  0  0  0  0  0  0  0
    4.6427   14.2082    0.0000 C   0  0  0  0  0  0  0  0  0  0  0  0
  1 18  1  0  0  0  0
  1 21  1  0  0  0  0
  2 14  1  0  0  0  0
  3 14  1  0  0  0  0
  4 14  1  0  0  0  0
  5 19  2  0  0  0  0
  6 27  1  0  0  0  0
  6 30  1  0  0  0  0
  7  8  1  0  0  0  0
  7 11  1  0  0  0  0
  7 12  1  0  0  0  0
  8 15  1  0  0  0  0
  9 12  1  0  0  0  0
  9 13  2  0  0  0  0
 10 19  1  0  0  0  0
 10 23  1  0  0  0  0
 11 14  1  0  0  0  0
 11 16  2  0  0  0  0
 12 17  2  0  0  0  0
 13 16  1  0  0  0  0
 13 18  1  0  0  0  0
 15 17  1  0  0  0  0
 15 19  1  0  0  0  0
 18 20  2  0  0  0  0
 20 22  1  0  0  0  0
 21 22  2  0  0  0  0
 23 24  1  0  0  0  0
 24 25  2  0  0  0  0
 24 26  1  0  0  0  0
 25 28  1  0  0  0  0
 26 29  2  0  0  0  0
 27 28  2  0  0  0  0
 27 29  1  0  0  0  0
M  END
> <PUBCHEM_COMPOUND_ID_TYPE>
0

> <PUBCHEM_TOTAL_CHARGE>
0

> <PUBCHEM_SUBSTANCE_ID>
310938710

> <PUBCHEM_SUBSTANCE_VERSION>
1

> <PUBCHEM_EXT_DATASOURCE_NAME>
4488

> <PUBCHEM_EXT_DATASOURCE_REGID>
SCHEMBL16116624

> <PUBCHEM_SUBSTANCE_COMMENT>
InChI=1S/C20H17F3N4O2S/c1-29-13-6-4-12(5-7-13)11-24-19(28)15-10-18-25-14(16-3-2-8-30-16)9-17(20(21,22)23)27(18)26-15/h2-10,15,26H,11H2,1H3,(H,24,28)
InChIKey=SKFAOLHQLOTWER-UHFFFAOYSA-N

> <PUBCHEM_SUBSTANCE_SYNONYM>
SCHEMBL16116624

> <PUBCHEM_XREF_EXT_ID>
SCHEMBL16116624

> <PUBCHEM_EXT_DATASOURCE_URL>
https://www.surechembl.org/

> <PUBCHEM_EXT_SUBSTANCE_URL>
https://www.surechembl.org/chemical/SCHEMBL16116624

> <PUBCHEM_CID_ASSOCIATIONS>
117606139  1

> <PUBCHEM_COORDINATE_TYPE>
1
3

$$$$
