310945142
  -OEChem-07211613022D

 39 44  0     1  0  0  0  0  0999 V2000
    3.5047    3.6984    0.0000 O   0  0  0  0  0  0  0  0  0  0  0  0
   -4.2294    0.6122    0.0000 O   0  0  0  0  0  0  0  0  0  0  0  0
    2.0053    1.3744    0.0000 N   0  0  0  0  0  0  0  0  0  0  0  0
    4.2170    2.4614    0.0000 N   0  0  0  0  0  0  0  0  0  0  0  0
    4.2294   -0.0375    0.0000 N   0  0  0  0  0  0  0  0  0  0  0  0
   -0.9434    2.0366    0.0000 N   0  0  0  0  0  0  0  0  0  0  0  0
   -2.1803   -1.5494    0.0000 N   0  0  0  0  0  0  0  0  0  0  0  0
   -2.9925   -0.1125    0.0000 N   0  0  0  0  0  0  0  0  0  0  0  0
   -3.0050   -2.9862    0.0000 N   0  0  0  0  0  0  0  0  0  0  0  0
    3.5047    1.2245    0.0000 C   0  0  3  0  0  0  0  0  0  0  0  0
    2.7926    1.6493    0.0000 C   0  0  0  0  0  0  0  0  0  0  0  0
    2.7926    2.4739    0.0000 C   0  0  0  0  0  0  0  0  0  0  0  0
    1.5305    2.0491    0.0000 C   0  0  0  0  0  0  0  0  0  0  0  0
    2.0179    2.7238    0.0000 C   0  0  0  0  0  0  0  0  0  0  0  0
    3.5047    2.8738    0.0000 C   0  0  0  0  0  0  0  0  0  0  0  0
    4.2170    1.6368    0.0000 C   0  0  0  0  0  0  0  0  0  0  0  0
    0.7059    2.0741    0.0000 C   0  0  0  0  0  0  0  0  0  0  0  0
    4.2170    0.8122    0.0000 C   0  0  0  0  0  0  0  0  0  0  0  0
    2.8050    0.8122    0.0000 C   0  0  0  0  0  0  0  0  0  0  0  0
   -0.5310    1.3494    0.0000 C   0  0  0  0  0  0  0  0  0  0  0  0
    0.2936    1.3369    0.0000 C   0  0  0  0  0  0  0  0  0  0  0  0
   -0.9434    0.6122    0.0000 C   0  0  0  0  0  0  0  0  0  0  0  0
    0.3061    2.7738    0.0000 C   0  0  0  0  0  0  0  0  0  0  0  0
    2.7926   -0.0250    0.0000 C   0  0  0  0  0  0  0  0  0  0  0  0
   -1.7680   -0.8122    0.0000 C   0  0  0  0  0  0  0  0  0  0  0  0
   -2.1803   -0.0874    0.0000 C   0  0  0  0  0  0  0  0  0  0  0  0
   -1.7555    0.6122    0.0000 C   0  0  0  0  0  0  0  0  0  0  0  0
    3.5172   -0.4373    0.0000 C   0  0  0  0  0  0  0  0  0  0  0  0
   -0.5310    2.7738    0.0000 C   0  0  0  0  0  0  0  0  0  0  0  0
   -0.5310   -0.0874    0.0000 C   0  0  0  0  0  0  0  0  0  0  0  0
   -0.9434   -0.8122    0.0000 C   0  0  0  0  0  0  0  0  0  0  0  0
   -1.7680   -2.2366    0.0000 C   0  0  0  0  0  0  0  0  0  0  0  0
   -3.0050   -1.5368    0.0000 C   0  0  0  0  0  0  0  0  0  0  0  0
   -3.3923    0.6122    0.0000 C   0  0  0  0  0  0  0  0  0  0  0  0
   -2.1678   -2.9612    0.0000 C   0  0  0  0  0  0  0  0  0  0  0  0
   -3.4048   -2.2615    0.0000 C   0  0  0  0  0  0  0  0  0  0  0  0
   -3.0050    1.3494    0.0000 C   0  0  0  0  0  0  0  0  0  0  0  0
   -3.4173   -3.6984    0.0000 C   0  0  0  0  0  0  0  0  0  0  0  0
   -3.4673    2.0366    0.0000 C   0  0  0  0  0  0  0  0  0  0  0  0
  1 15  2  0  0  0  0
  2 34  2  0  0  0  0
  3 11  1  0  0  0  0
  3 13  1  0  0  0  0
  4 15  1  0  0  0  0
  4 16  1  0  0  0  0
  5 18  1  0  0  0  0
  5 28  1  0  0  0  0
  6 20  2  0  0  0  0
  6 29  1  0  0  0  0
  7 25  1  0  0  0  0
  7 32  1  0  0  0  0
  7 33  1  0  0  0  0
  8 26  1  0  0  0  0
  8 34  1  0  0  0  0
  9 35  1  0  0  0  0
  9 36  1  0  0  0  0
  9 38  1  0  0  0  0
 10 11  1  0  0  0  0
 10 16  1  0  0  0  0
 10 18  1  0  0  0  0
 10 19  1  0  0  0  0
 11 12  2  0  0  0  0
 12 14  1  0  0  0  0
 12 15  1  0  0  0  0
 13 14  2  0  0  0  0
 13 17  1  0  0  0  0
 17 21  2  0  0  0  0
 17 23  1  0  0  0  0
 19 24  1  0  0  0  0
 20 21  1  0  0  0  0
 20 22  1  0  0  0  0
 22 27  2  0  0  0  0
 22 30  1  0  0  0  0
 23 29  2  0  0  0  0
 24 28  1  0  0  0  0
 25 26  2  0  0  0  0
 25 31  1  0  0  0  0
 26 27  1  0  0  0  0
 30 31  2  0  0  0  0
 32 35  1  0  0  0  0
 33 36  1  0  0  0  0
 34 37  1  0  0  0  0
 37 39  2  0  0  0  0
M  END
> <PUBCHEM_COMPOUND_ID_TYPE>
0

> <PUBCHEM_TOTAL_CHARGE>
0

> <PUBCHEM_SUBSTANCE_ID>
310945142

> <PUBCHEM_SUBSTANCE_VERSION>
1

> <PUBCHEM_EXT_DATASOURCE_NAME>
4488

> <PUBCHEM_EXT_DATASOURCE_REGID>
SCHEMBL16123232

> <PUBCHEM_SUBSTANCE_COMMENT>
InChI=1S/C30H35N7O2/c1-3-27(38)34-25-16-20(5-6-26(25)37-13-11-36(2)12-14-37)23-15-21(7-10-32-23)24-17-22-28(35-24)30(19-33-29(22)39)8-4-9-31-18-30/h3,5-7,10,15-17,31,35H,1,4,8-9,11-14,18-19H2,2H3,(H,33,39)(H,34,38)
InChIKey=CUAICBPTFVAJPG-UHFFFAOYSA-N

> <PUBCHEM_SUBSTANCE_SYNONYM>
SCHEMBL16123232

> <PUBCHEM_XREF_EXT_ID>
SCHEMBL16123232

> <PUBCHEM_EXT_DATASOURCE_URL>
https://www.surechembl.org/

> <PUBCHEM_EXT_SUBSTANCE_URL>
https://www.surechembl.org/chemical/SCHEMBL16123232

> <PUBCHEM_CID_ASSOCIATIONS>
86302141  1

> <PUBCHEM_COORDINATE_TYPE>
1
3

$$$$
