310933735
  -OEChem-07211613022D

 29 33  0     1  0  0  0  0  0999 V2000
    2.8832   -3.7528    0.0000 O   0  0  0  0  0  0  0  0  0  0  0  0
    1.4187   -5.4004    0.0000 N   0  0  0  0  0  0  0  0  0  0  0  0
    1.4187   -3.7528    0.0000 N   0  0  0  0  0  0  0  0  0  0  0  0
    1.4645   -0.4119    0.0000 N   0  0  0  0  0  0  0  0  0  0  0  0
    2.8375   -8.6955    0.0000 N   0  0  0  0  0  0  0  0  0  0  0  0
    4.2562   -8.7412    0.0000 N   0  0  0  0  0  0  0  0  0  0  0  0
    2.8832   -5.4004    0.0000 C   0  0  0  0  0  0  0  0  0  0  0  0
    2.8832   -6.2241    0.0000 C   0  0  0  0  0  0  0  0  0  0  0  0
    2.1510   -4.9885    0.0000 C   0  0  3  0  0  0  0  0  0  0  0  0
    3.5697   -6.6360    0.0000 C   0  0  0  0  0  0  0  0  0  0  0  0
    2.1510   -4.1647    0.0000 C   0  0  0  0  0  0  0  0  0  0  0  0
    3.5697   -7.4598    0.0000 C   0  0  0  0  0  0  0  0  0  0  0  0
    3.5697   -4.9885    0.0000 C   0  0  0  0  0  0  0  0  0  0  0  0
    2.1510   -6.6360    0.0000 C   0  0  0  0  0  0  0  0  0  0  0  0
    4.3020   -6.2241    0.0000 C   0  0  0  0  0  0  0  0  0  0  0  0
    1.4187   -2.8832    0.0000 C   0  0  0  0  0  0  0  0  0  0  0  0
    1.4187   -6.2241    0.0000 C   0  0  0  0  0  0  0  0  0  0  0  0
    4.3020   -5.4004    0.0000 C   0  0  0  0  0  0  0  0  0  0  0  0
    0.7322   -1.6934    0.0000 C   0  0  0  0  0  0  0  0  0  0  0  0
    1.4645   -1.2814    0.0000 C   0  0  0  0  0  0  0  0  0  0  0  0
    0.7322   -2.4713    0.0000 C   0  0  0  0  0  0  0  0  0  0  0  0
    2.8375   -7.8717    0.0000 C   0  0  0  0  0  0  0  0  0  0  0  0
    4.2562   -7.9174    0.0000 C   0  0  0  0  0  0  0  0  0  0  0  0
    2.1510   -2.4713    0.0000 C   0  0  0  0  0  0  0  0  0  0  0  0
    2.1510   -1.6476    0.0000 C   0  0  0  0  0  0  0  0  0  0  0  0
    0.0000   -1.2357    0.0000 C   0  0  0  0  0  0  0  0  0  0  0  0
    0.0000   -0.4119    0.0000 C   0  0  0  0  0  0  0  0  0  0  0  0
    0.7322    0.0000    0.0000 C   0  0  0  0  0  0  0  0  0  0  0  0
    3.5239   -9.1531    0.0000 C   0  0  0  0  0  0  0  0  0  0  0  0
  1 11  2  0  0  0  0
  2  9  1  0  0  0  0
  2 17  1  0  0  0  0
  3 11  1  0  0  0  0
  3 16  1  0  0  0  0
  4 20  2  0  0  0  0
  4 28  1  0  0  0  0
  5 22  2  0  0  0  0
  5 29  1  0  0  0  0
  6 23  1  0  0  0  0
  6 29  2  0  0  0  0
  7  8  2  0  0  0  0
  7  9  1  0  0  0  0
  7 13  1  0  0  0  0
  8 10  1  0  0  0  0
  8 14  1  0  0  0  0
  9 11  1  0  0  0  0
 10 12  1  0  0  0  0
 10 15  2  0  0  0  0
 12 22  1  0  0  0  0
 12 23  2  0  0  0  0
 13 18  2  0  0  0  0
 14 17  1  0  0  0  0
 15 18  1  0  0  0  0
 16 21  2  0  0  0  0
 16 24  1  0  0  0  0
 19 20  1  0  0  0  0
 19 21  1  0  0  0  0
 19 26  2  0  0  0  0
 20 25  1  0  0  0  0
 24 25  2  0  0  0  0
 26 27  1  0  0  0  0
 27 28  2  0  0  0  0
M  END
> <PUBCHEM_COMPOUND_ID_TYPE>
0

> <PUBCHEM_TOTAL_CHARGE>
0

> <PUBCHEM_SUBSTANCE_ID>
310933735

> <PUBCHEM_SUBSTANCE_VERSION>
1

> <PUBCHEM_EXT_DATASOURCE_NAME>
4488

> <PUBCHEM_EXT_DATASOURCE_REGID>
SCHEMBL16111170

> <PUBCHEM_SUBSTANCE_COMMENT>
InChI=1S/C23H19N5O/c29-23(28-17-6-7-21-15(11-17)3-2-9-26-21)22-20-5-1-4-18(19(20)8-10-27-22)16-12-24-14-25-13-16/h1-7,9,11-14,22,27H,8,10H2,(H,28,29)
InChIKey=GAABVALAYSINLT-UHFFFAOYSA-N

> <PUBCHEM_SUBSTANCE_SYNONYM>
SCHEMBL16111170

> <PUBCHEM_XREF_EXT_ID>
SCHEMBL16111170

> <PUBCHEM_EXT_DATASOURCE_URL>
https://www.surechembl.org/

> <PUBCHEM_EXT_SUBSTANCE_URL>
https://www.surechembl.org/chemical/SCHEMBL16111170

> <PUBCHEM_CID_ASSOCIATIONS>
117602096  1

> <PUBCHEM_COORDINATE_TYPE>
1
3

$$$$
