310942018
  -OEChem-07211613022D

  9  9  0     1  0  0  0  0  0999 V2000
    1.5687    0.7321    0.0000 I   0  0  0  0  0  0  0  0  0  0  0  0
   -0.6206    0.4113    0.0000 N   0  0  3  0  0  0  0  0  0  0  0  0
    0.8297    0.4113    0.0000 N   0  0  3  0  0  0  0  0  0  0  0  0
    0.0767    0.8297    0.0000 C   0  0  0  0  0  0  0  0  0  0  0  0
    0.8297   -0.4113    0.0000 C   0  0  0  0  0  0  0  0  0  0  0  0
   -0.6206   -0.4253    0.0000 C   0  0  0  0  0  0  0  0  0  0  0  0
    0.1186   -0.8297    0.0000 C   0  0  0  0  0  0  0  0  0  0  0  0
   -1.2341    0.7461    0.0000 C   0  0  0  0  0  0  0  0  0  0  0  0
   -1.5687    0.4671    0.0000 C   0  0  0  0  0  0  0  0  0  0  0  0
  1  3  1  0  0  0  0
  2  4  1  0  0  0  0
  2  6  1  0  0  0  0
  2  8  1  0  0  0  0
  3  4  1  0  0  0  0
  3  5  1  0  0  0  0
  5  7  1  0  0  0  0
  6  7  1  0  0  0  0
  8  9  1  0  0  0  0
M  END
> <PUBCHEM_COMPOUND_ID_TYPE>
0

> <PUBCHEM_TOTAL_CHARGE>
0

> <PUBCHEM_SUBSTANCE_ID>
310942018

> <PUBCHEM_SUBSTANCE_VERSION>
1

> <PUBCHEM_EXT_DATASOURCE_NAME>
4488

> <PUBCHEM_EXT_DATASOURCE_REGID>
SCHEMBL16120052

> <PUBCHEM_SUBSTANCE_COMMENT>
InChI=1S/C6H13IN2/c1-2-8-4-3-5-9(7)6-8/h2-6H2,1H3
InChIKey=WAHXTQUWDAITIV-UHFFFAOYSA-N

> <PUBCHEM_SUBSTANCE_SYNONYM>
SCHEMBL16120052

> <PUBCHEM_XREF_EXT_ID>
SCHEMBL16120052

> <PUBCHEM_EXT_DATASOURCE_URL>
https://www.surechembl.org/

> <PUBCHEM_EXT_SUBSTANCE_URL>
https://www.surechembl.org/chemical/SCHEMBL16120052

> <PUBCHEM_CID_ASSOCIATIONS>
117608707  1

> <PUBCHEM_COORDINATE_TYPE>
1
3

> <PUBCHEM_BONDANNOTATIONS>
9  8  3

$$$$
