310930905
  -OEChem-07211613022D

 24 27  0     1  0  0  0  0  0999 V2000
    4.4557   -2.2611    0.0000 O   0  0  0  0  0  0  0  0  0  0  0  0
    5.5198   -0.8202    0.0000 O   0  0  0  0  0  0  0  0  0  0  0  0
    0.0000   -1.9286    0.0000 O   0  0  0  0  0  0  0  0  0  0  0  0
    4.2118   -0.1551    0.0000 N   0  0  0  0  0  0  0  0  0  0  0  0
    0.3990   -2.6601    0.0000 N   0  0  0  0  0  0  0  0  0  0  0  0
    4.2118   -1.4852    0.0000 C   0  0  3  0  0  0  0  0  0  0  0  0
    3.4360   -1.2414    0.0000 C   0  0  0  0  0  0  0  0  0  0  0  0
    3.4360   -0.3990    0.0000 C   0  0  0  0  0  0  0  0  0  0  0  0
    4.6996   -0.8202    0.0000 C   0  0  0  0  0  0  0  0  0  0  0  0
    5.0321   -1.5961    0.0000 C   0  0  0  0  0  0  0  0  0  0  0  0
    2.7045   -1.6404    0.0000 C   0  0  0  0  0  0  0  0  0  0  0  0
    2.0172   -1.2414    0.0000 C   0  0  0  0  0  0  0  0  0  0  0  0
    1.3079   -1.6626    0.0000 C   0  0  0  0  0  0  0  0  0  0  0  0
    2.7045    0.0000    0.0000 C   0  0  0  0  0  0  0  0  0  0  0  0
    2.0172   -0.3990    0.0000 C   0  0  0  0  0  0  0  0  0  0  0  0
    5.5641   -0.9532    0.0000 C   0  0  0  0  0  0  0  0  0  0  0  0
    5.3203   -2.3720    0.0000 C   0  0  0  0  0  0  0  0  0  0  0  0
    0.5542   -1.3301    0.0000 C   0  0  0  0  0  0  0  0  0  0  0  0
    1.2192   -2.4606    0.0000 C   0  0  0  0  0  0  0  0  0  0  0  0
    6.3622   -1.0862    0.0000 C   0  0  0  0  0  0  0  0  0  0  0  0
    6.1183   -2.5050    0.0000 C   0  0  0  0  0  0  0  0  0  0  0  0
    6.6503   -1.8621    0.0000 C   0  0  0  0  0  0  0  0  0  0  0  0
    0.3769   -0.5320    0.0000 C   0  0  0  0  0  0  0  0  0  0  0  0
    1.8400   -3.0148    0.0000 C   0  0  0  0  0  0  0  0  0  0  0  0
  1  6  1  0  0  0  0
  2  9  2  0  0  0  0
  3  5  1  0  0  0  0
  3 18  1  0  0  0  0
  4  8  1  0  0  0  0
  4  9  1  0  0  0  0
  5 19  2  0  0  0  0
  6  7  1  0  0  0  0
  6  9  1  0  0  0  0
  6 10  1  0  0  0  0
  7  8  2  0  0  0  0
  7 11  1  0  0  0  0
  8 14  1  0  0  0  0
 10 16  2  0  0  0  0
 10 17  1  0  0  0  0
 11 12  2  0  0  0  0
 12 13  1  0  0  0  0
 12 15  1  0  0  0  0
 13 18  2  0  0  0  0
 13 19  1  0  0  0  0
 14 15  2  0  0  0  0
 16 20  1  0  0  0  0
 17 21  2  0  0  0  0
 18 23  1  0  0  0  0
 19 24  1  0  0  0  0
 20 22  2  0  0  0  0
 21 22  1  0  0  0  0
M  END
> <PUBCHEM_COMPOUND_ID_TYPE>
0

> <PUBCHEM_TOTAL_CHARGE>
0

> <PUBCHEM_SUBSTANCE_ID>
310930905

> <PUBCHEM_SUBSTANCE_VERSION>
1

> <PUBCHEM_EXT_DATASOURCE_NAME>
4488

> <PUBCHEM_EXT_DATASOURCE_REGID>
SCHEMBL16108203

> <PUBCHEM_SUBSTANCE_COMMENT>
InChI=1S/C19H16N2O3/c1-11-17(12(2)24-21-11)13-8-9-16-15(10-13)19(23,18(22)20-16)14-6-4-3-5-7-14/h3-10,23H,1-2H3,(H,20,22)
InChIKey=XJPHRHZKIAVBTN-UHFFFAOYSA-N

> <PUBCHEM_SUBSTANCE_SYNONYM>
SCHEMBL16108203

> <PUBCHEM_XREF_EXT_ID>
SCHEMBL16108203

> <PUBCHEM_EXT_DATASOURCE_URL>
https://www.surechembl.org/

> <PUBCHEM_EXT_SUBSTANCE_URL>
https://www.surechembl.org/chemical/SCHEMBL16108203

> <PUBCHEM_CID_ASSOCIATIONS>
86296101  1

> <PUBCHEM_COORDINATE_TYPE>
1
3

$$$$
