310947727
  -OEChem-07211613022D

 19 20  0     1  0  0  0  0  0999 V2000
   -2.5398    1.9301    0.0000 O   0  0  0  0  0  0  0  0  0  0  0  0
   -2.0050   -1.8758    0.0000 N   0  0  0  0  0  0  0  0  0  0  0  0
   -1.5201   -2.5432    0.0000 N   0  0  0  0  0  0  0  0  0  0  0  0
   -1.4779    0.9740    0.0000 N   0  0  0  0  0  0  0  0  0  0  0  0
    0.6935   -1.4633    0.0000 N   0  0  3  0  0  0  0  0  0  0  0  0
    2.8369   -1.0508    0.0000 N   0  0  0  0  0  0  0  0  0  0  0  0
   -1.5201   -1.2084    0.0000 C   0  0  0  0  0  0  0  0  0  0  0  0
   -0.7354   -1.4633    0.0000 C   0  0  0  0  0  0  0  0  0  0  0  0
   -1.7750   -0.4237    0.0000 C   0  0  0  0  0  0  0  0  0  0  0  0
   -0.7354   -2.2883    0.0000 C   0  0  0  0  0  0  0  0  0  0  0  0
   -1.2230    0.1894    0.0000 C   0  0  0  0  0  0  0  0  0  0  0  0
   -2.5820   -0.2522    0.0000 C   0  0  0  0  0  0  0  0  0  0  0  0
   -0.0210   -1.0508    0.0000 C   0  0  0  0  0  0  0  0  0  0  0  0
   -2.2849    1.1455    0.0000 C   0  0  0  0  0  0  0  0  0  0  0  0
   -2.8369    0.5324    0.0000 C   0  0  0  0  0  0  0  0  0  0  0  0
    1.4080   -1.0508    0.0000 C   0  0  0  0  0  0  0  0  0  0  0  0
    0.6935   -2.2883    0.0000 C   0  0  0  0  0  0  0  0  0  0  0  0
    2.1224   -1.4633    0.0000 C   0  0  0  0  0  0  0  0  0  0  0  0
   -1.9878    2.5432    0.0000 C   0  0  0  0  0  0  0  0  0  0  0  0
  1 14  1  0  0  0  0
  1 19  1  0  0  0  0
  2  3  1  0  0  0  0
  2  7  2  0  0  0  0
  3 10  1  0  0  0  0
  4 11  2  0  0  0  0
  4 14  1  0  0  0  0
  5 13  1  0  0  0  0
  5 16  1  0  0  0  0
  5 17  1  0  0  0  0
  6 18  1  0  0  0  0
  7  8  1  0  0  0  0
  7  9  1  0  0  0  0
  8 10  2  0  0  0  0
  8 13  1  0  0  0  0
  9 11  1  0  0  0  0
  9 12  2  0  0  0  0
 12 15  1  0  0  0  0
 14 15  2  0  0  0  0
 16 18  1  0  0  0  0
M  END
> <PUBCHEM_COMPOUND_ID_TYPE>
0

> <PUBCHEM_TOTAL_CHARGE>
0

> <PUBCHEM_SUBSTANCE_ID>
310947727

> <PUBCHEM_SUBSTANCE_VERSION>
1

> <PUBCHEM_EXT_DATASOURCE_NAME>
4488

> <PUBCHEM_EXT_DATASOURCE_REGID>
SCHEMBL16125899

> <PUBCHEM_SUBSTANCE_COMMENT>
InChI=1S/C13H19N5O/c1-18(6-5-14)9-11-8-16-17-13(11)10-3-4-12(19-2)15-7-10/h3-4,7-8H,5-6,9,14H2,1-2H3,(H,16,17)
InChIKey=CWMMYKCRPGBGGN-UHFFFAOYSA-N

> <PUBCHEM_SUBSTANCE_SYNONYM>
SCHEMBL16125899

> <PUBCHEM_XREF_EXT_ID>
SCHEMBL16125899

> <PUBCHEM_EXT_DATASOURCE_URL>
https://www.surechembl.org/

> <PUBCHEM_EXT_SUBSTANCE_URL>
https://www.surechembl.org/chemical/SCHEMBL16125899

> <PUBCHEM_CID_ASSOCIATIONS>
86301372  1

> <PUBCHEM_COORDINATE_TYPE>
1
3

$$$$
