310947201
  -OEChem-07211613022D

 33 39  0     1  0  0  0  0  0999 V2000
   -2.3785   -1.6789    0.0000 O   0  0  0  0  0  0  0  0  0  0  0  0
   -3.5636   -1.0205    0.0000 O   0  0  0  0  0  0  0  0  0  0  0  0
    2.9546    0.5432    0.0000 O   0  0  0  0  0  0  0  0  0  0  0  0
    2.9546    1.9094    0.0000 O   0  0  0  0  0  0  0  0  0  0  0  0
   -0.0247   -0.4279    0.0000 N   0  0  3  0  0  0  0  0  0  0  0  0
   -0.0412    0.4115    0.0000 C   0  0  0  0  0  0  0  0  0  0  0  0
   -0.7654    0.8230    0.0000 C   0  0  0  0  0  0  0  0  0  0  0  0
   -1.5061   -0.4279    0.0000 C   0  0  0  0  0  0  0  0  0  0  0  0
   -1.4897    0.4115    0.0000 C   0  0  0  0  0  0  0  0  0  0  0  0
    0.6996    0.8230    0.0000 C   0  0  0  0  0  0  0  0  0  0  0  0
   -0.7325   -0.8395    0.0000 C   0  0  3  0  0  0  0  0  0  0  0  0
   -2.1809   -0.8395    0.0000 C   0  0  0  0  0  0  0  0  0  0  0  0
    0.7160    1.6625    0.0000 C   0  0  0  0  0  0  0  0  0  0  0  0
   -2.9217   -0.4279    0.0000 C   0  0  0  0  0  0  0  0  0  0  0  0
   -0.7325    1.6625    0.0000 C   0  0  0  0  0  0  0  0  0  0  0  0
   -2.1809    0.8066    0.0000 C   0  0  0  0  0  0  0  0  0  0  0  0
    1.4403    0.4115    0.0000 C   0  0  0  0  0  0  0  0  0  0  0  0
   -0.0082    2.0576    0.0000 C   0  0  0  0  0  0  0  0  0  0  0  0
    2.1316    0.8395    0.0000 C   0  0  0  0  0  0  0  0  0  0  0  0
    2.1480    1.6625    0.0000 C   0  0  0  0  0  0  0  0  0  0  0  0
    1.4568    2.0576    0.0000 C   0  0  0  0  0  0  0  0  0  0  0  0
   -2.9052    0.3950    0.0000 C   0  0  0  0  0  0  0  0  0  0  0  0
    0.7325   -0.8395    0.0000 C   0  0  0  0  0  0  0  0  0  0  0  0
   -0.3868   -0.4609    0.0000 C   0  0  0  0  0  0  0  0  0  0  0  0
   -3.1851   -1.7612    0.0000 C   0  0  0  0  0  0  0  0  0  0  0  0
    1.4238   -0.4444    0.0000 C   0  0  0  0  0  0  0  0  0  0  0  0
    3.4155    1.2510    0.0000 C   0  0  0  0  0  0  0  0  0  0  0  0
    2.1480   -0.8395    0.0000 C   0  0  0  0  0  0  0  0  0  0  0  0
    2.1480   -1.6295    0.0000 C   0  0  0  0  0  0  0  0  0  0  0  0
    2.8723   -0.4609    0.0000 C   0  0  0  0  0  0  0  0  0  0  0  0
    2.8558   -2.0576    0.0000 C   0  0  0  0  0  0  0  0  0  0  0  0
    3.5636   -0.8724    0.0000 C   0  0  0  0  0  0  0  0  0  0  0  0
    3.5472   -1.6789    0.0000 C   0  0  0  0  0  0  0  0  0  0  0  0
  1 12  1  0  0  0  0
  1 25  1  0  0  0  0
  2 14  1  0  0  0  0
  2 25  1  0  0  0  0
  3 19  1  0  0  0  0
  3 27  1  0  0  0  0
  4 20  1  0  0  0  0
  4 27  1  0  0  0  0
  5  6  1  0  0  0  0
  5 11  1  0  0  0  0
  5 23  1  0  0  0  0
  6  7  2  0  0  0  0
  6 10  1  0  0  0  0
  7  9  1  0  0  0  0
  7 15  1  0  0  0  0
  8  9  1  0  0  0  0
  8 11  1  0  0  0  0
  8 12  2  0  0  0  0
  9 16  2  0  0  0  0
 10 13  2  0  0  0  0
 10 17  1  0  0  0  0
 11 24  1  0  0  0  0
 12 14  1  0  0  0  0
 13 18  1  0  0  0  0
 13 21  1  0  0  0  0
 14 22  2  0  0  0  0
 15 18  2  0  0  0  0
 16 22  1  0  0  0  0
 17 19  2  0  0  0  0
 19 20  1  0  0  0  0
 20 21  2  0  0  0  0
 23 26  1  0  0  0  0
 26 28  1  0  0  0  0
 28 29  2  0  0  0  0
 28 30  1  0  0  0  0
 29 31  1  0  0  0  0
 30 32  2  0  0  0  0
 31 33  2  0  0  0  0
 32 33  1  0  0  0  0
M  END
> <PUBCHEM_COMPOUND_ID_TYPE>
0

> <PUBCHEM_TOTAL_CHARGE>
0

> <PUBCHEM_SUBSTANCE_ID>
310947201

> <PUBCHEM_SUBSTANCE_VERSION>
1

> <PUBCHEM_EXT_DATASOURCE_NAME>
4488

> <PUBCHEM_EXT_DATASOURCE_REGID>
SCHEMBL16125355

> <PUBCHEM_SUBSTANCE_COMMENT>
InChI=1S/C28H23NO4/c1-17-26-20(9-10-23-28(26)33-16-30-23)21-8-7-19-13-24-25(32-15-31-24)14-22(19)27(21)29(17)12-11-18-5-3-2-4-6-18/h2-10,13-14,17H,11-12,15-16H2,1H3
InChIKey=VNLRSZFQAVKZRP-UHFFFAOYSA-N

> <PUBCHEM_SUBSTANCE_SYNONYM>
SCHEMBL16125355

> <PUBCHEM_XREF_EXT_ID>
SCHEMBL16125355

> <PUBCHEM_EXT_DATASOURCE_URL>
https://www.surechembl.org/

> <PUBCHEM_EXT_SUBSTANCE_URL>
https://www.surechembl.org/chemical/SCHEMBL16125355

> <PUBCHEM_CID_ASSOCIATIONS>
117613024  1

> <PUBCHEM_COORDINATE_TYPE>
1
3

$$$$
