310940437
  -OEChem-07211613022D

 24 24  0     1  0  0  0  0  0999 V2000
   -0.9818    2.1385    0.0000 S   0  0  0  0  0  0  0  0  0  0  0  0
   -2.4886    3.0214    0.0000 F   0  0  0  0  0  0  0  0  0  0  0  0
   -1.2862    3.2953    0.0000 F   0  0  0  0  0  0  0  0  0  0  0  0
   -2.1690    1.8341    0.0000 F   0  0  0  0  0  0  0  0  0  0  0  0
   -0.2663    1.7276    0.0000 O   0  0  0  0  0  0  0  0  0  0  0  0
   -0.2663   -0.7078    0.0000 O   0  0  0  0  0  0  0  0  0  0  0  0
    1.0427   -1.1035    0.0000 O   0  0  0  0  0  0  0  0  0  0  0  0
   -0.5251    2.8692    0.0000 O   0  0  0  0  0  0  0  0  0  0  0  0
   -1.4232    1.4079    0.0000 O   0  0  0  0  0  0  0  0  0  0  0  0
   -0.0837   -1.9711    0.0000 O   0  0  0  0  0  0  0  0  0  0  0  0
    0.4490   -0.2816    0.0000 C   0  0  3  0  0  0  0  0  0  0  0  0
   -0.2663    0.9361    0.0000 C   0  0  0  0  0  0  0  0  0  0  0  0
   -0.9666   -0.2816    0.0000 C   0  0  0  0  0  0  0  0  0  0  0  0
   -1.7276    2.5647    0.0000 C   0  0  0  0  0  0  0  0  0  0  0  0
    0.4490    0.5251    0.0000 C   0  0  0  0  0  0  0  0  0  0  0  0
   -0.9513    0.5251    0.0000 C   0  0  0  0  0  0  0  0  0  0  0  0
    1.2710   -0.1446    0.0000 C   0  0  0  0  0  0  0  0  0  0  0  0
   -1.7733   -0.1598    0.0000 C   0  0  0  0  0  0  0  0  0  0  0  0
   -1.2253   -1.0730    0.0000 C   0  0  0  0  0  0  0  0  0  0  0  0
    0.7382   -1.9102    0.0000 C   0  0  0  0  0  0  0  0  0  0  0  0
    2.0777   -1.1188    0.0000 C   0  0  0  0  0  0  0  0  0  0  0  0
    2.4886   -1.8341    0.0000 C   0  0  0  0  0  0  0  0  0  0  0  0
    2.0777   -2.5800    0.0000 C   0  0  0  0  0  0  0  0  0  0  0  0
    2.4886   -3.2953    0.0000 C   0  0  0  0  0  0  0  0  0  0  0  0
  1  5  1  0  0  0  0
  1  8  2  0  0  0  0
  1  9  2  0  0  0  0
  1 14  1  0  0  0  0
  2 14  1  0  0  0  0
  3 14  1  0  0  0  0
  4 14  1  0  0  0  0
  5 12  1  0  0  0  0
  6 11  1  0  0  0  0
  6 13  1  0  0  0  0
  7 11  1  0  0  0  0
  7 20  1  0  0  0  0
 10 20  2  0  0  0  0
 11 15  1  0  0  0  0
 11 17  1  0  0  0  0
 12 15  1  0  0  0  0
 12 16  2  0  0  0  0
 13 16  1  0  0  0  0
 13 18  1  0  0  0  0
 13 19  1  0  0  0  0
 20 21  1  0  0  0  0
 21 22  1  0  0  0  0
 22 23  1  0  0  0  0
 23 24  1  0  0  0  0
M  END
> <PUBCHEM_COMPOUND_ID_TYPE>
0

> <PUBCHEM_TOTAL_CHARGE>
0

> <PUBCHEM_SUBSTANCE_ID>
310940437

> <PUBCHEM_SUBSTANCE_VERSION>
1

> <PUBCHEM_EXT_DATASOURCE_NAME>
4488

> <PUBCHEM_EXT_DATASOURCE_REGID>
SCHEMBL16118390

> <PUBCHEM_SUBSTANCE_COMMENT>
InChI=1S/C14H21F3O6S/c1-5-6-7-11(18)21-13(4)9-10(8-12(2,3)23-13)22-24(19,20)14(15,16)17/h8H,5-7,9H2,1-4H3
InChIKey=RKKIHUMCUNKHEG-UHFFFAOYSA-N

> <PUBCHEM_SUBSTANCE_SYNONYM>
SCHEMBL16118390

> <PUBCHEM_XREF_EXT_ID>
SCHEMBL16118390

> <PUBCHEM_EXT_DATASOURCE_URL>
https://www.surechembl.org/

> <PUBCHEM_EXT_SUBSTANCE_URL>
https://www.surechembl.org/chemical/SCHEMBL16118390

> <PUBCHEM_CID_ASSOCIATIONS>
117607460  1

> <PUBCHEM_COORDINATE_TYPE>
1
3

$$$$
