310938414
  -OEChem-07211613022D

 36 41  0     1  0  0  0  0  0999 V2000
   11.7956   -1.2130    0.0000 O   0  0  0  0  0  0  0  0  0  0  0  0
   11.9629   -2.9280    0.0000 O   0  0  0  0  0  0  0  0  0  0  0  0
    9.6623    0.0000    0.0000 O   0  0  0  0  0  0  0  0  0  0  0  0
   12.5485   -2.4679    0.0000 O   0  0  0  0  0  0  0  0  0  0  0  0
    8.9094   -1.2130    0.0000 N   0  0  0  0  0  0  0  0  0  0  0  0
    6.7762   -2.4679    0.0000 N   0  0  0  0  0  0  0  0  0  0  0  0
    2.1750   -0.9620    0.0000 N   0  0  0  0  0  0  0  0  0  0  0  0
    8.9094   -2.0496    0.0000 C   0  0  0  0  0  0  0  0  0  0  0  0
   10.3734   -2.0496    0.0000 C   0  0  0  0  0  0  0  0  0  0  0  0
   11.0845   -2.4679    0.0000 C   0  0  3  0  0  0  0  0  0  0  0  0
   10.3734   -1.2130    0.0000 C   0  0  0  0  0  0  0  0  0  0  0  0
    7.4873   -2.0496    0.0000 C   0  0  0  0  0  0  0  0  0  0  0  0
    9.6623   -0.7947    0.0000 C   0  0  0  0  0  0  0  0  0  0  0  0
    7.4873   -1.2130    0.0000 C   0  0  0  0  0  0  0  0  0  0  0  0
    9.6623   -2.4679    0.0000 C   0  0  0  0  0  0  0  0  0  0  0  0
    8.1983   -0.7947    0.0000 C   0  0  0  0  0  0  0  0  0  0  0  0
   11.7956   -2.0496    0.0000 C   0  0  0  0  0  0  0  0  0  0  0  0
   11.0845   -0.7947    0.0000 C   0  0  0  0  0  0  0  0  0  0  0  0
    6.7762   -0.7947    0.0000 C   0  0  0  0  0  0  0  0  0  0  0  0
    6.0651   -2.0496    0.0000 C   0  0  0  0  0  0  0  0  0  0  0  0
    6.0651   -1.2130    0.0000 C   0  0  0  0  0  0  0  0  0  0  0  0
   10.3734   -2.9280    0.0000 C   0  0  0  0  0  0  0  0  0  0  0  0
    5.3540   -2.4679    0.0000 C   0  0  0  0  0  0  0  0  0  0  0  0
    5.3540   -0.7947    0.0000 C   0  0  0  0  0  0  0  0  0  0  0  0
   10.3734   -3.5972    0.0000 C   0  0  0  0  0  0  0  0  0  0  0  0
    4.6429   -2.0496    0.0000 C   0  0  0  0  0  0  0  0  0  0  0  0
    4.6429   -1.2130    0.0000 C   0  0  0  0  0  0  0  0  0  0  0  0
    1.4640   -1.3803    0.0000 C   0  0  0  0  0  0  0  0  0  0  0  0
    1.4640   -2.2169    0.0000 C   0  0  0  0  0  0  0  0  0  0  0  0
    2.1750   -2.6352    0.0000 C   0  0  0  0  0  0  0  0  0  0  0  0
    0.7111   -0.9620    0.0000 C   0  0  0  0  0  0  0  0  0  0  0  0
    0.7111   -2.6352    0.0000 C   0  0  0  0  0  0  0  0  0  0  0  0
    2.9280   -1.3803    0.0000 C   0  0  0  0  0  0  0  0  0  0  0  0
    2.9280   -2.2169    0.0000 C   0  0  0  0  0  0  0  0  0  0  0  0
    0.0000   -1.3803    0.0000 C   0  0  0  0  0  0  0  0  0  0  0  0
    0.0000   -2.2169    0.0000 C   0  0  0  0  0  0  0  0  0  0  0  0
  1 17  1  0  0  0  0
  1 18  1  0  0  0  0
 10  2  1  1  0  0  0
  3 13  2  0  0  0  0
  4 17  2  0  0  0  0
  5  8  1  0  0  0  0
  5 13  1  0  0  0  0
  5 16  1  0  0  0  0
  6 12  2  0  0  0  0
  6 20  1  0  0  0  0
  7 28  1  0  0  0  0
  7 33  2  0  0  0  0
  8 12  1  0  0  0  0
  8 15  2  0  0  0  0
  9 10  1  0  0  0  0
  9 11  2  0  0  0  0
  9 15  1  0  0  0  0
 10 17  1  0  0  0  0
 10 22  1  6  0  0  0
 11 13  1  0  0  0  0
 11 18  1  0  0  0  0
 12 14  1  0  0  0  0
 14 16  1  0  0  0  0
 14 19  2  0  0  0  0
 19 21  1  0  0  0  0
 20 21  2  0  0  0  0
 20 23  1  0  0  0  0
 21 24  1  0  0  0  0
 22 25  1  0  0  0  0
 23 26  2  0  0  0  0
 24 27  2  0  0  0  0
 26 27  1  0  0  0  0
 28 29  2  0  0  0  0
 28 31  1  0  0  0  0
 29 30  1  0  0  0  0
 29 32  1  0  0  0  0
 30 34  2  0  0  0  0
 31 35  2  0  0  0  0
 32 36  2  0  0  0  0
 33 34  1  0  0  0  0
 35 36  1  0  0  0  0
M  END
> <PUBCHEM_COMPOUND_ID_TYPE>
0

> <PUBCHEM_TOTAL_CHARGE>
0

> <PUBCHEM_SUBSTANCE_ID>
310938414

> <PUBCHEM_SUBSTANCE_VERSION>
1

> <PUBCHEM_EXT_DATASOURCE_NAME>
4488

> <PUBCHEM_EXT_DATASOURCE_REGID>
SCHEMBL16116307

> <PUBCHEM_SUBSTANCE_COMMENT>
InChI=1S/C20H16N2O4.C9H7N/c1-2-20(25)14-8-16-17-12(7-11-5-3-4-6-15(11)21-17)9-22(16)18(23)13(14)10-26-19(20)24;1-2-6-9-8(4-1)5-3-7-10-9/h3-8,25H,2,9-10H2,1H3;1-7H/t20-;/m0./s1
InChIKey=YJDNSNGUNMUIMM-BDQAORGHSA-N

> <PUBCHEM_SUBSTANCE_SYNONYM>
SCHEMBL16116307

> <PUBCHEM_XREF_EXT_ID>
SCHEMBL16116307

> <PUBCHEM_EXT_DATASOURCE_URL>
https://www.surechembl.org/

> <PUBCHEM_EXT_SUBSTANCE_URL>
https://www.surechembl.org/chemical/SCHEMBL16116307

> <PUBCHEM_CID_ASSOCIATIONS>
117605888  1
7047  2
24360  2

> <PUBCHEM_COORDINATE_TYPE>
1
3

> <PUBCHEM_BONDANNOTATIONS>
10  22  6
10  2  5

$$$$
