310935077
  -OEChem-07211613022D

 31 34  0     1  0  0  0  0  0999 V2000
    0.0000   -4.5041    0.0000 Cl  0  0  0  0  0  0  0  0  0  0  0  0
    6.1280   -1.0724    0.0000 F   0  0  0  0  0  0  0  0  0  0  0  0
    2.6350   -1.8690    0.0000 N   0  0  0  0  0  0  0  0  0  0  0  0
    1.5014   -1.2256    0.0000 N   0  0  0  0  0  0  0  0  0  0  0  0
    1.4401   -6.1280    0.0000 N   0  0  0  0  0  0  0  0  0  0  0  0
    2.8189   -6.1280    0.0000 N   0  0  0  0  0  0  0  0  0  0  0  0
    3.5543   -4.9024    0.0000 N   0  0  0  0  0  0  0  0  0  0  0  0
    2.0529   -2.4512    0.0000 C   0  0  0  0  0  0  0  0  0  0  0  0
    1.3175   -2.0223    0.0000 C   0  0  0  0  0  0  0  0  0  0  0  0
    1.3788   -3.6768    0.0000 C   0  0  0  0  0  0  0  0  0  0  0  0
    1.4095   -4.5041    0.0000 C   0  0  0  0  0  0  0  0  0  0  0  0
    2.0529   -3.2478    0.0000 C   0  0  0  0  0  0  0  0  0  0  0  0
    0.6128   -2.4512    0.0000 C   0  0  0  0  0  0  0  0  0  0  0  0
    0.6128   -3.2478    0.0000 C   0  0  0  0  0  0  0  0  0  0  0  0
    2.2980   -1.1030    0.0000 C   0  0  0  0  0  0  0  0  0  0  0  0
    0.7047   -4.9024    0.0000 C   0  0  0  0  0  0  0  0  0  0  0  0
    2.1142   -4.8718    0.0000 C   0  0  0  0  0  0  0  0  0  0  0  0
    3.4317   -2.0223    0.0000 C   0  0  0  0  0  0  0  0  0  0  0  0
    2.1142   -5.6990    0.0000 C   0  0  0  0  0  0  0  0  0  0  0  0
    3.9832   -1.4095    0.0000 C   0  0  0  0  0  0  0  0  0  0  0  0
    0.7047   -5.7297    0.0000 C   0  0  0  0  0  0  0  0  0  0  0  0
    4.7798   -1.5627    0.0000 C   0  0  0  0  0  0  0  0  0  0  0  0
    3.7075   -0.6128    0.0000 C   0  0  0  0  0  0  0  0  0  0  0  0
    3.5543   -5.6990    0.0000 C   0  0  3  0  0  0  0  0  0  0  0  0
    5.3314   -0.9192    0.0000 C   0  0  0  0  0  0  0  0  0  0  0  0
    4.2283    0.0000    0.0000 C   0  0  0  0  0  0  0  0  0  0  0  0
    5.0556   -0.1532    0.0000 C   0  0  0  0  0  0  0  0  0  0  0  0
    4.2590   -6.1280    0.0000 C   0  0  0  0  0  0  0  0  0  0  0  0
    4.9637   -5.6990    0.0000 C   0  0  0  0  0  0  0  0  0  0  0  0
    4.2590   -4.4735    0.0000 C   0  0  0  0  0  0  0  0  0  0  0  0
    5.6685   -6.1280    0.0000 C   0  0  0  0  0  0  0  0  0  0  0  0
  1 16  1  0  0  0  0
  2 25  1  0  0  0  0
  3  8  1  0  0  0  0
  3 15  1  0  0  0  0
  3 18  1  0  0  0  0
  4  9  1  0  0  0  0
  4 15  2  0  0  0  0
  5 19  1  0  0  0  0
  5 21  2  0  0  0  0
  6 19  1  0  0  0  0
  6 24  1  0  0  0  0
  7 24  1  0  0  0  0
  7 30  1  0  0  0  0
  8  9  2  0  0  0  0
  8 12  1  0  0  0  0
  9 13  1  0  0  0  0
 10 11  1  0  0  0  0
 10 12  2  0  0  0  0
 10 14  1  0  0  0  0
 11 16  2  0  0  0  0
 11 17  1  0  0  0  0
 13 14  2  0  0  0  0
 16 21  1  0  0  0  0
 17 19  2  0  0  0  0
 18 20  1  0  0  0  0
 20 22  2  0  0  0  0
 20 23  1  0  0  0  0
 22 25  1  0  0  0  0
 23 26  2  0  0  0  0
 24 28  1  0  0  0  0
 25 27  2  0  0  0  0
 26 27  1  0  0  0  0
 28 29  1  0  0  0  0
 29 31  1  0  0  0  0
M  END
> <PUBCHEM_COMPOUND_ID_TYPE>
0

> <PUBCHEM_TOTAL_CHARGE>
0

> <PUBCHEM_SUBSTANCE_ID>
310935077

> <PUBCHEM_SUBSTANCE_VERSION>
1

> <PUBCHEM_EXT_DATASOURCE_NAME>
4488

> <PUBCHEM_EXT_DATASOURCE_REGID>
SCHEMBL16112603

> <PUBCHEM_SUBSTANCE_COMMENT>
InChI=1S/C24H25ClFN5/c1-3-5-23(27-2)30-24-12-19(20(25)13-28-24)17-8-9-21-22(11-17)31(15-29-21)14-16-6-4-7-18(26)10-16/h4,6-13,15,23,27H,3,5,14H2,1-2H3,(H,28,30)
InChIKey=RINVGLNCKDTSSE-UHFFFAOYSA-N

> <PUBCHEM_SUBSTANCE_SYNONYM>
SCHEMBL16112603

> <PUBCHEM_XREF_EXT_ID>
SCHEMBL16112603

> <PUBCHEM_EXT_DATASOURCE_URL>
https://www.surechembl.org/

> <PUBCHEM_EXT_SUBSTANCE_URL>
https://www.surechembl.org/chemical/SCHEMBL16112603

> <PUBCHEM_CID_ASSOCIATIONS>
117603174  1

> <PUBCHEM_COORDINATE_TYPE>
1
3

$$$$
