310935808
  -OEChem-07211613022D

 28 30  0     1  0  0  0  0  0999 V2000
    3.5429    0.0000    0.0000 Cl  0  0  0  0  0  0  0  0  0  0  0  0
    0.7280   -2.3780    0.0000 O   0  0  0  0  0  0  0  0  0  0  0  0
    3.5429   -7.2798    0.0000 O   0  0  0  0  0  0  0  0  0  0  0  0
    4.9017   -9.7064    0.0000 O   0  0  0  0  0  0  0  0  0  0  0  0
    1.4074   -3.5914    0.0000 N   0  0  0  0  0  0  0  0  0  0  0  0
    4.2223   -6.0665    0.0000 N   0  0  0  0  0  0  0  0  0  0  0  0
    2.8149   -6.0665    0.0000 N   0  0  0  0  0  0  0  0  0  0  0  0
    2.1354   -2.4266    0.0000 C   0  0  0  0  0  0  0  0  0  0  0  0
    2.1354   -1.6016    0.0000 C   0  0  0  0  0  0  0  0  0  0  0  0
    1.4074   -2.8149    0.0000 C   0  0  0  0  0  0  0  0  0  0  0  0
    2.8149   -3.5914    0.0000 C   0  0  0  0  0  0  0  0  0  0  0  0
    2.8149   -2.8149    0.0000 C   0  0  0  0  0  0  0  0  0  0  0  0
    2.0869   -3.9796    0.0000 C   0  0  0  0  0  0  0  0  0  0  0  0
    3.5429   -4.0282    0.0000 C   0  0  0  0  0  0  0  0  0  0  0  0
    3.5429   -4.8532    0.0000 C   0  0  0  0  0  0  0  0  0  0  0  0
    2.8149   -1.2133    0.0000 C   0  0  0  0  0  0  0  0  0  0  0  0
    1.4074   -1.1647    0.0000 C   0  0  0  0  0  0  0  0  0  0  0  0
    2.8634   -0.3882    0.0000 C   0  0  0  0  0  0  0  0  0  0  0  0
    4.2223   -5.2415    0.0000 C   0  0  0  0  0  0  0  0  0  0  0  0
    2.8149   -5.2415    0.0000 C   0  0  0  0  0  0  0  0  0  0  0  0
    3.5429   -6.4548    0.0000 C   0  0  0  0  0  0  0  0  0  0  0  0
    1.4559   -0.3882    0.0000 C   0  0  0  0  0  0  0  0  0  0  0  0
    2.1354    0.0000    0.0000 C   0  0  0  0  0  0  0  0  0  0  0  0
    0.0000   -2.8149    0.0000 C   0  0  0  0  0  0  0  0  0  0  0  0
    4.2223   -7.6681    0.0000 C   0  0  0  0  0  0  0  0  0  0  0  0
    4.2223   -8.4931    0.0000 C   0  0  0  0  0  0  0  0  0  0  0  0
    4.9017   -8.8814    0.0000 C   0  0  3  0  0  0  0  0  0  0  0  0
    5.6297   -8.4931    0.0000 C   0  0  0  0  0  0  0  0  0  0  0  0
  1 18  1  0  0  0  0
  2 10  1  0  0  0  0
  2 24  1  0  0  0  0
  3 21  1  0  0  0  0
  3 25  1  0  0  0  0
  4 27  1  0  0  0  0
  5 10  2  0  0  0  0
  5 13  1  0  0  0  0
  6 19  1  0  0  0  0
  6 21  2  0  0  0  0
  7 20  2  0  0  0  0
  7 21  1  0  0  0  0
  8  9  1  0  0  0  0
  8 10  1  0  0  0  0
  8 12  2  0  0  0  0
  9 16  1  0  0  0  0
  9 17  2  0  0  0  0
 11 12  1  0  0  0  0
 11 13  2  0  0  0  0
 11 14  1  0  0  0  0
 14 15  1  0  0  0  0
 15 19  2  0  0  0  0
 15 20  1  0  0  0  0
 16 18  2  0  0  0  0
 17 22  1  0  0  0  0
 18 23  1  0  0  0  0
 22 23  2  0  0  0  0
 25 26  1  0  0  0  0
 26 27  1  0  0  0  0
 27 28  1  0  0  0  0
M  END
> <PUBCHEM_COMPOUND_ID_TYPE>
0

> <PUBCHEM_TOTAL_CHARGE>
0

> <PUBCHEM_SUBSTANCE_ID>
310935808

> <PUBCHEM_SUBSTANCE_VERSION>
1

> <PUBCHEM_EXT_DATASOURCE_NAME>
4488

> <PUBCHEM_EXT_DATASOURCE_REGID>
SCHEMBL16113396

> <PUBCHEM_SUBSTANCE_COMMENT>
InChI=1S/C21H22ClN3O3/c1-14(26)6-7-28-21-24-12-16(13-25-21)8-15-9-19(20(27-2)23-11-15)17-4-3-5-18(22)10-17/h3-5,9-14,26H,6-8H2,1-2H3
InChIKey=PZISSWAEINGZKS-UHFFFAOYSA-N

> <PUBCHEM_SUBSTANCE_SYNONYM>
SCHEMBL16113396

> <PUBCHEM_XREF_EXT_ID>
SCHEMBL16113396

> <PUBCHEM_EXT_DATASOURCE_URL>
https://www.surechembl.org/

> <PUBCHEM_EXT_SUBSTANCE_URL>
https://www.surechembl.org/chemical/SCHEMBL16113396

> <PUBCHEM_CID_ASSOCIATIONS>
117603800  1

> <PUBCHEM_COORDINATE_TYPE>
1
3

$$$$
