310933381
  -OEChem-07211613022D

 18 19  0     1  0  0  0  0  0999 V2000
    3.5280   -4.4943    0.0000 Br  0  0  0  0  0  0  0  0  0  0  0  0
    1.4157   -0.8314    0.0000 O   0  0  0  0  0  0  0  0  0  0  0  0
    2.8314   -0.8314    0.0000 O   0  0  0  0  0  0  0  0  0  0  0  0
    0.7191   -1.2135    0.0000 O   0  0  0  0  0  0  0  0  0  0  0  0
    0.0000   -2.4494    0.0000 O   0  0  0  0  0  0  0  0  0  0  0  0
    1.4157   -2.4494    0.0000 N   0  0  0  0  0  0  0  0  0  0  0  0
    2.1348   -2.0449    0.0000 C   0  0  3  0  0  0  0  0  0  0  0  0
    2.8314   -2.4494    0.0000 C   0  0  0  0  0  0  0  0  0  0  0  0
    2.8314   -3.2808    0.0000 C   0  0  0  0  0  0  0  0  0  0  0  0
    2.1348   -1.2135    0.0000 C   0  0  0  0  0  0  0  0  0  0  0  0
    3.5280   -3.6853    0.0000 C   0  0  0  0  0  0  0  0  0  0  0  0
    2.1348   -3.6853    0.0000 C   0  0  0  0  0  0  0  0  0  0  0  0
    1.4157   -3.2808    0.0000 C   0  0  0  0  0  0  0  0  0  0  0  0
    3.5280   -2.0449    0.0000 C   0  0  0  0  0  0  0  0  0  0  0  0
    0.6966   -2.0449    0.0000 C   0  0  0  0  0  0  0  0  0  0  0  0
    4.2470   -3.2808    0.0000 C   0  0  0  0  0  0  0  0  0  0  0  0
    4.2470   -2.4494    0.0000 C   0  0  0  0  0  0  0  0  0  0  0  0
    1.4157    0.0000    0.0000 C   0  0  0  0  0  0  0  0  0  0  0  0
  1 11  1  0  0  0  0
  2 10  1  0  0  0  0
  2 18  1  0  0  0  0
  3 10  2  0  0  0  0
  4 15  2  0  0  0  0
  5 15  1  0  0  0  0
  6  7  1  0  0  0  0
  6 13  1  0  0  0  0
  6 15  1  0  0  0  0
  7  8  1  0  0  0  0
  7 10  1  0  0  0  0
  8  9  2  0  0  0  0
  8 14  1  0  0  0  0
  9 11  1  0  0  0  0
  9 12  1  0  0  0  0
 11 16  2  0  0  0  0
 12 13  1  0  0  0  0
 14 17  2  0  0  0  0
 16 17  1  0  0  0  0
M  END
> <PUBCHEM_COMPOUND_ID_TYPE>
0

> <PUBCHEM_TOTAL_CHARGE>
0

> <PUBCHEM_SUBSTANCE_ID>
310933381

> <PUBCHEM_SUBSTANCE_VERSION>
1

> <PUBCHEM_EXT_DATASOURCE_NAME>
4488

> <PUBCHEM_EXT_DATASOURCE_REGID>
SCHEMBL16110797

> <PUBCHEM_SUBSTANCE_COMMENT>
InChI=1S/C12H12BrNO4/c1-18-11(15)10-8-3-2-4-9(13)7(8)5-6-14(10)12(16)17/h2-4,10H,5-6H2,1H3,(H,16,17)
InChIKey=QNNRRXJXMKAFJO-UHFFFAOYSA-N

> <PUBCHEM_SUBSTANCE_SYNONYM>
SCHEMBL16110797

> <PUBCHEM_XREF_EXT_ID>
SCHEMBL16110797

> <PUBCHEM_EXT_DATASOURCE_URL>
https://www.surechembl.org/

> <PUBCHEM_EXT_SUBSTANCE_URL>
https://www.surechembl.org/chemical/SCHEMBL16110797

> <PUBCHEM_CID_ASSOCIATIONS>
117601792  1

> <PUBCHEM_COORDINATE_TYPE>
1
3

$$$$
