310943859
  -OEChem-07211613022D

 40 44  0     1  0  0  0  0  0999 V2000
    2.4385    3.1590    0.0000 O   0  0  0  0  0  0  0  0  0  0  0  0
    3.2283    1.6904    0.0000 N   0  0  0  0  0  0  0  0  0  0  0  0
   -3.2976   -0.3602    0.0000 N   0  0  3  0  0  0  0  0  0  0  0  0
   -1.1500    2.7296    0.0000 N   0  0  0  0  0  0  0  0  0  0  0  0
    4.9880    1.1639    0.0000 N   0  0  3  0  0  0  0  0  0  0  0  0
   -5.0573    0.1801    0.0000 N   0  0  3  0  0  0  0  0  0  0  0  0
    0.2909    0.8868    0.0000 C   0  0  0  0  0  0  0  0  0  0  0  0
    1.0115    0.4849    0.0000 C   0  0  0  0  0  0  0  0  0  0  0  0
   -0.4156    0.4849    0.0000 C   0  0  0  0  0  0  0  0  0  0  0  0
    1.7320    1.7181    0.0000 C   0  0  0  0  0  0  0  0  0  0  0  0
    1.0115   -0.4572    0.0000 C   0  0  0  0  0  0  0  0  0  0  0  0
   -1.1500    0.8868    0.0000 C   0  0  0  0  0  0  0  0  0  0  0  0
    1.7043    0.8868    0.0000 C   0  0  0  0  0  0  0  0  0  0  0  0
    0.3048    1.7181    0.0000 C   0  0  0  0  0  0  0  0  0  0  0  0
    1.0115    2.1199    0.0000 C   0  0  0  0  0  0  0  0  0  0  0  0
    2.4524    2.1337    0.0000 C   0  0  0  0  0  0  0  0  0  0  0  0
   -0.4295   -0.3602    0.0000 C   0  0  0  0  0  0  0  0  0  0  0  0
   -1.8567    0.4711    0.0000 C   0  0  0  0  0  0  0  0  0  0  0  0
   -1.8705   -0.3602    0.0000 C   0  0  0  0  0  0  0  0  0  0  0  0
   -1.1500   -0.7621    0.0000 C   0  0  0  0  0  0  0  0  0  0  0  0
    1.7181   -0.8591    0.0000 C   0  0  0  0  0  0  0  0  0  0  0  0
    0.3048   -0.8868    0.0000 C   0  0  0  0  0  0  0  0  0  0  0  0
   -1.1500    1.9121    0.0000 C   0  0  0  0  0  0  0  0  0  0  0  0
   -2.5632   -0.7621    0.0000 C   0  0  0  0  0  0  0  0  0  0  0  0
    1.7181   -1.6765    0.0000 C   0  0  0  0  0  0  0  0  0  0  0  0
    0.3187   -1.7043    0.0000 C   0  0  0  0  0  0  0  0  0  0  0  0
    0.9976   -2.1060    0.0000 C   0  0  0  0  0  0  0  0  0  0  0  0
    3.5331    0.9422    0.0000 C   0  0  0  0  0  0  0  0  0  0  0  0
    3.6440    2.4247    0.0000 C   0  0  0  0  0  0  0  0  0  0  0  0
    4.3506    0.7067    0.0000 C   0  0  0  0  0  0  0  0  0  0  0  0
    4.4614    2.5355    0.0000 C   0  0  0  0  0  0  0  0  0  0  0  0
   -3.9627   -0.8175    0.0000 C   0  0  0  0  0  0  0  0  0  0  0  0
   -3.2422    0.4711    0.0000 C   0  0  0  0  0  0  0  0  0  0  0  0
    5.0434    1.9952    0.0000 C   0  0  0  0  0  0  0  0  0  0  0  0
    1.0115   -3.1590    0.0000 C   0  0  0  0  0  0  0  0  0  0  0  0
   -4.7524   -0.5820    0.0000 C   0  0  0  0  0  0  0  0  0  0  0  0
   -3.8518    1.0253    0.0000 C   0  0  0  0  0  0  0  0  0  0  0  0
   -4.6554    0.9006    0.0000 C   0  0  0  0  0  0  0  0  0  0  0  0
    5.8886    0.6374    0.0000 C   0  0  0  0  0  0  0  0  0  0  0  0
   -5.8886    0.1801    0.0000 C   0  0  0  0  0  0  0  0  0  0  0  0
  1 16  2  0  0  0  0
  2 16  1  0  0  0  0
  2 28  1  0  0  0  0
  2 29  1  0  0  0  0
  3 24  1  0  0  0  0
  3 32  1  0  0  0  0
  3 33  1  0  0  0  0
  4 23  3  0  0  0  0
  5 30  1  0  0  0  0
  5 34  1  0  0  0  0
  5 39  1  0  0  0  0
  6 36  1  0  0  0  0
  6 38  1  0  0  0  0
  6 40  1  0  0  0  0
  7  8  2  0  0  0  0
  7  9  1  0  0  0  0
  7 14  1  0  0  0  0
  8 11  1  0  0  0  0
  8 13  1  0  0  0  0
  9 12  2  0  0  0  0
  9 17  1  0  0  0  0
 10 13  2  0  0  0  0
 10 15  1  0  0  0  0
 10 16  1  0  0  0  0
 11 21  2  0  0  0  0
 11 22  1  0  0  0  0
 12 18  1  0  0  0  0
 12 23  1  0  0  0  0
 14 15  2  0  0  0  0
 17 20  2  0  0  0  0
 18 19  2  0  0  0  0
 19 20  1  0  0  0  0
 19 24  1  0  0  0  0
 21 25  1  0  0  0  0
 22 26  2  0  0  0  0
 25 27  2  0  0  0  0
 26 27  1  0  0  0  0
 27 35  1  0  0  0  0
 28 30  1  0  0  0  0
 29 31  1  0  0  0  0
 31 34  1  0  0  0  0
 32 36  1  0  0  0  0
 33 37  1  0  0  0  0
 37 38  1  0  0  0  0
M  END
> <PUBCHEM_COMPOUND_ID_TYPE>
0

> <PUBCHEM_TOTAL_CHARGE>
0

> <PUBCHEM_SUBSTANCE_ID>
310943859

> <PUBCHEM_SUBSTANCE_VERSION>
1

> <PUBCHEM_EXT_DATASOURCE_NAME>
4488

> <PUBCHEM_EXT_DATASOURCE_REGID>
SCHEMBL16121930

> <PUBCHEM_SUBSTANCE_COMMENT>
InChI=1S/C34H41N5O/c1-26-6-9-28(10-7-26)33-23-29(34(40)39-17-5-15-37(3)19-21-39)11-13-32(33)31-12-8-27(22-30(31)24-35)25-38-16-4-14-36(2)18-20-38/h6-13,22-23H,4-5,14-21,25H2,1-3H3
InChIKey=HZIFFYAJDHXCGK-UHFFFAOYSA-N

> <PUBCHEM_SUBSTANCE_SYNONYM>
SCHEMBL16121930

> <PUBCHEM_XREF_EXT_ID>
SCHEMBL16121930

> <PUBCHEM_EXT_DATASOURCE_URL>
https://www.surechembl.org/

> <PUBCHEM_EXT_SUBSTANCE_URL>
https://www.surechembl.org/chemical/SCHEMBL16121930

> <PUBCHEM_CID_ASSOCIATIONS>
86301683  1

> <PUBCHEM_COORDINATE_TYPE>
1
3

$$$$
