310930579
  -OEChem-07211613022D

 23 26  0     1  0  0  0  0  0999 V2000
    5.0137   -1.5978    0.0000 O   0  0  0  0  0  0  0  0  0  0  0  0
    5.5095   -0.8081    0.0000 O   0  0  0  0  0  0  0  0  0  0  0  0
    0.0000   -1.9283    0.0000 O   0  0  0  0  0  0  0  0  0  0  0  0
    4.2056   -0.1469    0.0000 N   0  0  0  0  0  0  0  0  0  0  0  0
    0.4040   -2.6446    0.0000 N   0  0  0  0  0  0  0  0  0  0  0  0
    4.2056   -1.4692    0.0000 C   0  0  3  0  0  0  0  0  0  0  0  0
    3.4159   -1.2305    0.0000 C   0  0  0  0  0  0  0  0  0  0  0  0
    3.4159   -0.3857    0.0000 C   0  0  0  0  0  0  0  0  0  0  0  0
    4.7015   -0.8081    0.0000 C   0  0  0  0  0  0  0  0  0  0  0  0
    4.4627   -2.2406    0.0000 C   0  0  0  0  0  0  0  0  0  0  0  0
    2.6997   -1.6345    0.0000 C   0  0  0  0  0  0  0  0  0  0  0  0
    2.0202   -1.2305    0.0000 C   0  0  0  0  0  0  0  0  0  0  0  0
    1.3040   -1.6528    0.0000 C   0  0  0  0  0  0  0  0  0  0  0  0
    2.6997    0.0000    0.0000 C   0  0  0  0  0  0  0  0  0  0  0  0
    2.0202   -0.3857    0.0000 C   0  0  0  0  0  0  0  0  0  0  0  0
    5.2524   -2.4976    0.0000 C   0  0  0  0  0  0  0  0  0  0  0  0
    3.9668   -2.9017    0.0000 C   0  0  0  0  0  0  0  0  0  0  0  0
    0.5510   -1.3223    0.0000 C   0  0  0  0  0  0  0  0  0  0  0  0
    1.2121   -2.4609    0.0000 C   0  0  0  0  0  0  0  0  0  0  0  0
    5.2341   -3.3241    0.0000 C   0  0  0  0  0  0  0  0  0  0  0  0
    4.4627   -3.5629    0.0000 C   0  0  0  0  0  0  0  0  0  0  0  0
    0.3673   -0.5326    0.0000 C   0  0  0  0  0  0  0  0  0  0  0  0
    1.8365   -3.0119    0.0000 C   0  0  0  0  0  0  0  0  0  0  0  0
  1  6  1  0  0  0  0
  2  9  2  0  0  0  0
  3  5  1  0  0  0  0
  3 18  1  0  0  0  0
  4  8  1  0  0  0  0
  4  9  1  0  0  0  0
  5 19  2  0  0  0  0
  6  7  1  0  0  0  0
  6  9  1  0  0  0  0
  6 10  1  0  0  0  0
  7  8  2  0  0  0  0
  7 11  1  0  0  0  0
  8 14  1  0  0  0  0
 10 16  1  0  0  0  0
 10 17  1  0  0  0  0
 11 12  2  0  0  0  0
 12 13  1  0  0  0  0
 12 15  1  0  0  0  0
 13 18  2  0  0  0  0
 13 19  1  0  0  0  0
 14 15  2  0  0  0  0
 16 20  1  0  0  0  0
 17 21  1  0  0  0  0
 18 22  1  0  0  0  0
 19 23  1  0  0  0  0
 20 21  1  0  0  0  0
M  END
> <PUBCHEM_COMPOUND_ID_TYPE>
0

> <PUBCHEM_TOTAL_CHARGE>
0

> <PUBCHEM_SUBSTANCE_ID>
310930579

> <PUBCHEM_SUBSTANCE_VERSION>
1

> <PUBCHEM_EXT_DATASOURCE_NAME>
4488

> <PUBCHEM_EXT_DATASOURCE_REGID>
SCHEMBL16107874

> <PUBCHEM_SUBSTANCE_COMMENT>
InChI=1S/C18H20N2O3/c1-10-16(11(2)23-20-10)12-7-8-15-14(9-12)18(22,17(21)19-15)13-5-3-4-6-13/h7-9,13,22H,3-6H2,1-2H3,(H,19,21)
InChIKey=GLGMRIANGJCLAS-UHFFFAOYSA-N

> <PUBCHEM_SUBSTANCE_SYNONYM>
SCHEMBL16107874

> <PUBCHEM_XREF_EXT_ID>
SCHEMBL16107874

> <PUBCHEM_EXT_DATASOURCE_URL>
https://www.surechembl.org/

> <PUBCHEM_EXT_SUBSTANCE_URL>
https://www.surechembl.org/chemical/SCHEMBL16107874

> <PUBCHEM_CID_ASSOCIATIONS>
86295879  1

> <PUBCHEM_COORDINATE_TYPE>
1
3

$$$$
