310946789
  -OEChem-07211613022D

 16 17  0     1  0  0  0  0  0999 V2000
   -2.1058   -4.0179    0.0000 N   0  0  0  0  0  0  0  0  0  0  0  0
   -1.6209   -4.6853    0.0000 N   0  0  0  0  0  0  0  0  0  0  0  0
    0.5927   -3.6054    0.0000 N   0  0  3  0  0  0  0  0  0  0  0  0
   -2.6213   -1.4752    0.0000 N   0  0  0  0  0  0  0  0  0  0  0  0
   -1.8372   -1.2186    0.0000 N   0  0  0  0  0  0  0  0  0  0  0  0
   -1.6209   -3.3504    0.0000 C   0  0  0  0  0  0  0  0  0  0  0  0
   -0.8363   -3.6054    0.0000 C   0  0  0  0  0  0  0  0  0  0  0  0
   -1.8344   -2.5535    0.0000 C   0  0  0  0  0  0  0  0  0  0  0  0
   -0.8363   -4.4304    0.0000 C   0  0  0  0  0  0  0  0  0  0  0  0
   -0.1218   -3.1929    0.0000 C   0  0  0  0  0  0  0  0  0  0  0  0
   -2.6196   -2.3002    0.0000 C   0  0  0  0  0  0  0  0  0  0  0  0
   -1.3509   -1.8851    0.0000 C   0  0  0  0  0  0  0  0  0  0  0  0
    1.3071   -3.1929    0.0000 C   0  0  0  0  0  0  0  0  0  0  0  0
    0.5927   -4.4304    0.0000 C   0  0  0  0  0  0  0  0  0  0  0  0
    2.0216   -3.6054    0.0000 C   0  0  0  0  0  0  0  0  0  0  0  0
    2.7361   -3.1929    0.0000 C   0  0  0  0  0  0  0  0  0  0  0  0
  1  2  1  0  0  0  0
  1  6  2  0  0  0  0
  2  9  1  0  0  0  0
  3 10  1  0  0  0  0
  3 13  1  0  0  0  0
  3 14  1  0  0  0  0
  4  5  1  0  0  0  0
  4 11  2  0  0  0  0
  5 12  1  0  0  0  0
  6  7  1  0  0  0  0
  6  8  1  0  0  0  0
  7  9  2  0  0  0  0
  7 10  1  0  0  0  0
  8 11  1  0  0  0  0
  8 12  2  0  0  0  0
 13 15  1  0  0  0  0
 15 16  1  0  0  0  0
M  END
> <PUBCHEM_COMPOUND_ID_TYPE>
0

> <PUBCHEM_TOTAL_CHARGE>
0

> <PUBCHEM_SUBSTANCE_ID>
310946789

> <PUBCHEM_SUBSTANCE_VERSION>
1

> <PUBCHEM_EXT_DATASOURCE_NAME>
4488

> <PUBCHEM_EXT_DATASOURCE_REGID>
SCHEMBL16124913

> <PUBCHEM_SUBSTANCE_COMMENT>
InChI=1S/C11H17N5/c1-3-4-16(2)8-10-7-14-15-11(10)9-5-12-13-6-9/h5-7H,3-4,8H2,1-2H3,(H,12,13)(H,14,15)
InChIKey=DSPFDVAGQYNSKA-UHFFFAOYSA-N

> <PUBCHEM_SUBSTANCE_SYNONYM>
SCHEMBL16124913

> <PUBCHEM_XREF_EXT_ID>
SCHEMBL16124913

> <PUBCHEM_EXT_DATASOURCE_URL>
https://www.surechembl.org/

> <PUBCHEM_EXT_SUBSTANCE_URL>
https://www.surechembl.org/chemical/SCHEMBL16124913

> <PUBCHEM_CID_ASSOCIATIONS>
117612650  1

> <PUBCHEM_COORDINATE_TYPE>
1
3

$$$$
