310933627
  -OEChem-07211613022D

 36 39  0     1  0  0  0  0  0999 V2000
    4.4894   -1.4269    0.0000 F   0  0  0  0  0  0  0  0  0  0  0  0
    3.6194    0.0000    0.0000 F   0  0  0  0  0  0  0  0  0  0  0  0
    4.3502   -0.4176    0.0000 F   0  0  0  0  0  0  0  0  0  0  0  0
    2.1925   -0.8005    0.0000 O   0  0  0  0  0  0  0  0  0  0  0  0
    4.3502   -1.2529    0.0000 O   0  0  0  0  0  0  0  0  0  0  0  0
    0.0348   -6.1251    0.0000 O   0  0  0  0  0  0  0  0  0  0  0  0
    7.9000    0.0000    0.0000 O   0  0  0  0  0  0  0  0  0  0  0  0
    8.6308   -1.2529    0.0000 O   0  0  0  0  0  0  0  0  0  0  0  0
    2.9234   -2.0533    0.0000 N   0  0  0  0  0  0  0  0  0  0  0  0
    2.1925   -4.9418    0.0000 N   0  0  0  0  0  0  0  0  0  0  0  0
    5.0463   -2.5057    0.0000 N   0  0  0  0  0  0  0  0  0  0  0  0
    3.6194   -2.5057    0.0000 C   0  0  3  0  0  0  0  0  0  0  0  0
    3.6194   -3.3062    0.0000 C   0  0  0  0  0  0  0  0  0  0  0  0
    2.9234   -3.7238    0.0000 C   0  0  0  0  0  0  0  0  0  0  0  0
    2.8885   -4.5242    0.0000 C   0  0  0  0  0  0  0  0  0  0  0  0
    2.9234   -1.2529    0.0000 C   0  0  0  0  0  0  0  0  0  0  0  0
    4.3502   -2.0881    0.0000 C   0  0  0  0  0  0  0  0  0  0  0  0
    2.1925   -3.3062    0.0000 C   0  0  0  0  0  0  0  0  0  0  0  0
    2.1925   -2.4709    0.0000 C   0  0  0  0  0  0  0  0  0  0  0  0
    4.3154   -3.7238    0.0000 C   0  0  0  0  0  0  0  0  0  0  0  0
    3.6194   -0.8353    0.0000 C   0  0  0  0  0  0  0  0  0  0  0  0
    3.5846   -4.9418    0.0000 C   0  0  0  0  0  0  0  0  0  0  0  0
    4.3154   -4.5590    0.0000 C   0  0  0  0  0  0  0  0  0  0  0  0
    2.1925   -5.7771    0.0000 C   0  0  0  0  0  0  0  0  0  0  0  0
    1.4965   -4.5242    0.0000 C   0  0  0  0  0  0  0  0  0  0  0  0
    5.7771   -2.0881    0.0000 C   0  0  0  0  0  0  0  0  0  0  0  0
    1.4617   -6.1599    0.0000 C   0  0  0  0  0  0  0  0  0  0  0  0
    0.7657   -4.9070    0.0000 C   0  0  0  0  0  0  0  0  0  0  0  0
    0.7308   -5.7075    0.0000 C   0  0  0  0  0  0  0  0  0  0  0  0
    5.7771   -1.2529    0.0000 C   0  0  0  0  0  0  0  0  0  0  0  0
    6.4731   -2.5057    0.0000 C   0  0  0  0  0  0  0  0  0  0  0  0
    7.2040   -1.2529    0.0000 C   0  0  0  0  0  0  0  0  0  0  0  0
    6.4731   -0.8353    0.0000 C   0  0  0  0  0  0  0  0  0  0  0  0
    7.2040   -2.0881    0.0000 C   0  0  0  0  0  0  0  0  0  0  0  0
    7.9000   -0.8353    0.0000 C   0  0  0  0  0  0  0  0  0  0  0  0
    0.0000   -6.9604    0.0000 C   0  0  0  0  0  0  0  0  0  0  0  0
  1 21  1  0  0  0  0
  2 21  1  0  0  0  0
  3 21  1  0  0  0  0
  4 16  2  0  0  0  0
  5 17  2  0  0  0  0
  6 29  1  0  0  0  0
  6 36  1  0  0  0  0
  7 35  2  0  0  0  0
  8 35  1  0  0  0  0
  9 12  1  0  0  0  0
  9 16  1  0  0  0  0
  9 19  1  0  0  0  0
 10 15  1  0  0  0  0
 10 24  1  0  0  0  0
 10 25  1  0  0  0  0
 11 17  1  0  0  0  0
 11 26  1  0  0  0  0
 12 13  1  0  0  0  0
 12 17  1  0  0  0  0
 13 14  2  0  0  0  0
 13 20  1  0  0  0  0
 14 15  1  0  0  0  0
 14 18  1  0  0  0  0
 15 22  2  0  0  0  0
 16 21  1  0  0  0  0
 18 19  1  0  0  0  0
 20 23  2  0  0  0  0
 22 23  1  0  0  0  0
 24 27  1  0  0  0  0
 25 28  1  0  0  0  0
 26 30  2  0  0  0  0
 26 31  1  0  0  0  0
 27 29  1  0  0  0  0
 28 29  1  0  0  0  0
 30 33  1  0  0  0  0
 31 34  2  0  0  0  0
 32 33  2  0  0  0  0
 32 34  1  0  0  0  0
 32 35  1  0  0  0  0
M  END
> <PUBCHEM_COMPOUND_ID_TYPE>
0

> <PUBCHEM_TOTAL_CHARGE>
0

> <PUBCHEM_SUBSTANCE_ID>
310933627

> <PUBCHEM_SUBSTANCE_VERSION>
1

> <PUBCHEM_EXT_DATASOURCE_NAME>
4488

> <PUBCHEM_EXT_DATASOURCE_REGID>
SCHEMBL16111058

> <PUBCHEM_SUBSTANCE_COMMENT>
InChI=1S/C25H26F3N3O5/c1-36-17-9-12-30(13-10-17)20-4-2-3-19-18(20)11-14-31(24(35)25(26,27)28)21(19)22(32)29-16-7-5-15(6-8-16)23(33)34/h2-8,17,21H,9-14H2,1H3,(H,29,32)(H,33,34)
InChIKey=MIRMHSGPLQNWNL-UHFFFAOYSA-N

> <PUBCHEM_SUBSTANCE_SYNONYM>
SCHEMBL16111058

> <PUBCHEM_XREF_EXT_ID>
SCHEMBL16111058

> <PUBCHEM_EXT_DATASOURCE_URL>
https://www.surechembl.org/

> <PUBCHEM_EXT_SUBSTANCE_URL>
https://www.surechembl.org/chemical/SCHEMBL16111058

> <PUBCHEM_CID_ASSOCIATIONS>
117602000  1

> <PUBCHEM_COORDINATE_TYPE>
1
3

$$$$
