310944008
  -OEChem-07211613022D

 36 39  0     1  0  0  0  0  0999 V2000
    0.5268   -2.7656    0.0000 O   0  0  0  0  0  0  0  0  0  0  0  0
   -4.2143    3.3479    0.0000 O   0  0  0  0  0  0  0  0  0  0  0  0
    4.1727    2.5577    0.0000 O   0  0  0  0  0  0  0  0  0  0  0  0
    4.0341    1.1160    0.0000 O   0  0  0  0  0  0  0  0  0  0  0  0
   -0.3327   -1.6289    0.0000 N   0  0  0  0  0  0  0  0  0  0  0  0
   -1.0535   -1.2130    0.0000 N   0  0  0  0  0  0  0  0  0  0  0  0
   -3.1053    2.1002    0.0000 N   0  0  0  0  0  0  0  0  0  0  0  0
    1.1922    0.4089    0.0000 N   0  0  3  0  0  0  0  0  0  0  0  0
    2.8419    1.8507    0.0000 N   0  0  0  0  0  0  0  0  0  0  0  0
   -0.9011   -0.3674    0.0000 C   0  0  0  0  0  0  0  0  0  0  0  0
   -0.0832   -0.2980    0.0000 C   0  0  0  0  0  0  0  0  0  0  0  0
   -1.4695    0.2426    0.0000 C   0  0  0  0  0  0  0  0  0  0  0  0
    0.2634   -1.0467    0.0000 C   0  0  0  0  0  0  0  0  0  0  0  0
   -0.2773   -2.4468    0.0000 C   0  0  3  0  0  0  0  0  0  0  0  0
    0.3327    0.4089    0.0000 C   0  0  0  0  0  0  0  0  0  0  0  0
   -1.2061    1.0467    0.0000 C   0  0  0  0  0  0  0  0  0  0  0  0
   -2.2735    0.0762    0.0000 C   0  0  0  0  0  0  0  0  0  0  0  0
   -2.5646    1.4902    0.0000 C   0  0  3  0  0  0  0  0  0  0  0  0
   -1.7606    1.6427    0.0000 C   0  0  0  0  0  0  0  0  0  0  0  0
   -2.8141    0.6862    0.0000 C   0  0  0  0  0  0  0  0  0  0  0  0
   -0.9011   -2.9459    0.0000 C   0  0  0  0  0  0  0  0  0  0  0  0
    0.6239   -3.5835    0.0000 C   0  0  0  0  0  0  0  0  0  0  0  0
   -0.7902   -3.7776    0.0000 C   0  0  0  0  0  0  0  0  0  0  0  0
   -2.8696    2.9181    0.0000 C   0  0  0  0  0  0  0  0  0  0  0  0
   -3.9371    1.9478    0.0000 C   0  0  0  0  0  0  0  0  0  0  0  0
    1.5942    1.1575    0.0000 C   0  0  0  0  0  0  0  0  0  0  0  0
   -0.0139   -4.0826    0.0000 C   0  0  0  0  0  0  0  0  0  0  0  0
    1.5942   -0.2980    0.0000 C   0  0  0  0  0  0  0  0  0  0  0  0
   -3.4241    3.5420    0.0000 C   0  0  0  0  0  0  0  0  0  0  0  0
   -4.4916    2.5854    0.0000 C   0  0  0  0  0  0  0  0  0  0  0  0
    2.4260    1.1575    0.0000 C   0  0  0  0  0  0  0  0  0  0  0  0
    3.6737    1.8507    0.0000 C   0  0  0  0  0  0  0  0  0  0  0  0
    3.8261    3.3340    0.0000 C   0  0  0  0  0  0  0  0  0  0  0  0
    4.4916    3.6945    0.0000 C   0  0  0  0  0  0  0  0  0  0  0  0
    3.1330    2.9874    0.0000 C   0  0  0  0  0  0  0  0  0  0  0  0
    3.4519    4.0826    0.0000 C   0  0  0  0  0  0  0  0  0  0  0  0
  1 14  1  0  0  0  0
  1 22  1  0  0  0  0
  2 29  1  0  0  0  0
  2 30  1  0  0  0  0
  3 32  1  0  0  0  0
  3 33  1  0  0  0  0
  4 32  2  0  0  0  0
  5  6  1  0  0  0  0
  5 13  1  0  0  0  0
  5 14  1  0  0  0  0
  6 10  2  0  0  0  0
  7 18  1  0  0  0  0
  7 24  1  0  0  0  0
  7 25  1  0  0  0  0
  8 15  1  0  0  0  0
  8 26  1  0  0  0  0
  8 28  1  0  0  0  0
  9 31  1  0  0  0  0
  9 32  1  0  0  0  0
 10 11  1  0  0  0  0
 10 12  1  0  0  0  0
 11 13  2  0  0  0  0
 11 15  1  0  0  0  0
 12 16  2  0  0  0  0
 12 17  1  0  0  0  0
 14 21  1  0  0  0  0
 16 19  1  0  0  0  0
 17 20  1  0  0  0  0
 18 19  1  0  0  0  0
 18 20  1  0  0  0  0
 21 23  1  0  0  0  0
 22 27  1  0  0  0  0
 23 27  1  0  0  0  0
 24 29  1  0  0  0  0
 25 30  1  0  0  0  0
 26 31  1  0  0  0  0
 33 34  1  0  0  0  0
 33 35  1  0  0  0  0
 33 36  1  0  0  0  0
M  END
> <PUBCHEM_COMPOUND_ID_TYPE>
0

> <PUBCHEM_TOTAL_CHARGE>
0

> <PUBCHEM_SUBSTANCE_ID>
310944008

> <PUBCHEM_SUBSTANCE_VERSION>
1

> <PUBCHEM_EXT_DATASOURCE_NAME>
4488

> <PUBCHEM_EXT_DATASOURCE_REGID>
SCHEMBL16122079

> <PUBCHEM_SUBSTANCE_COMMENT>
InChI=1S/C27H45N5O4/c1-27(2,3)36-26(33)28-12-13-30(4)19-22-20-32(24-7-5-6-16-35-24)29-25(22)21-8-10-23(11-9-21)31-14-17-34-18-15-31/h8,20,23-24H,5-7,9-19H2,1-4H3,(H,28,33)
InChIKey=ATRDDRSCHHQKIA-UHFFFAOYSA-N

> <PUBCHEM_SUBSTANCE_SYNONYM>
SCHEMBL16122079

> <PUBCHEM_XREF_EXT_ID>
SCHEMBL16122079

> <PUBCHEM_EXT_DATASOURCE_URL>
https://www.surechembl.org/

> <PUBCHEM_EXT_SUBSTANCE_URL>
https://www.surechembl.org/chemical/SCHEMBL16122079

> <PUBCHEM_CID_ASSOCIATIONS>
117610312  1

> <PUBCHEM_COORDINATE_TYPE>
1
3

$$$$
