310946465
  -OEChem-07211613022D

 13 12  0     1  0  0  0  0  0999 V2000
   -1.0717   -1.4409    0.0000 O   0  0  0  0  0  0  0  0  0  0  0  0
   -1.7862   -0.2034    0.0000 O   0  0  0  0  0  0  0  0  0  0  0  0
   -1.7862   -2.6784    0.0000 O   0  0  0  0  0  0  0  0  0  0  0  0
   -3.2151   -1.0284    0.0000 N   0  0  0  0  0  0  0  0  0  0  0  0
   -2.5006   -1.4409    0.0000 C   0  0  3  0  0  0  0  0  0  0  0  0
   -1.7862   -1.0284    0.0000 C   0  0  0  0  0  0  0  0  0  0  0  0
   -2.5006   -2.2659    0.0000 C   0  0  3  0  0  0  0  0  0  0  0  0
   -0.3572   -1.0284    0.0000 C   0  0  0  0  0  0  0  0  0  0  0  0
   -3.2151   -2.6784    0.0000 C   0  0  0  0  0  0  0  0  0  0  0  0
    0.3572   -1.4409    0.0000 C   0  0  0  0  0  0  0  0  0  0  0  0
    1.0717   -1.0284    0.0000 C   0  0  0  0  0  0  0  0  0  0  0  0
    1.7862   -1.4409    0.0000 C   0  0  0  0  0  0  0  0  0  0  0  0
    2.5006   -1.0284    0.0000 C   0  0  0  0  0  0  0  0  0  0  0  0
  1  6  1  0  0  0  0
  1  8  1  0  0  0  0
  2  6  2  0  0  0  0
  3  7  1  0  0  0  0
  4  5  1  0  0  0  0
  5  6  1  0  0  0  0
  5  7  1  0  0  0  0
  7  9  1  0  0  0  0
  8 10  1  0  0  0  0
 10 11  1  0  0  0  0
 11 12  1  0  0  0  0
 12 13  1  0  0  0  0
M  END
> <PUBCHEM_COMPOUND_ID_TYPE>
0

> <PUBCHEM_TOTAL_CHARGE>
0

> <PUBCHEM_SUBSTANCE_ID>
310946465

> <PUBCHEM_SUBSTANCE_VERSION>
1

> <PUBCHEM_EXT_DATASOURCE_NAME>
4488

> <PUBCHEM_EXT_DATASOURCE_REGID>
SCHEMBL16124586

> <PUBCHEM_SUBSTANCE_COMMENT>
InChI=1S/C9H19NO3/c1-3-4-5-6-13-9(12)8(10)7(2)11/h7-8,11H,3-6,10H2,1-2H3
InChIKey=ZCCXTLMKNIADIP-UHFFFAOYSA-N

> <PUBCHEM_SUBSTANCE_SYNONYM>
SCHEMBL16124586

> <PUBCHEM_XREF_EXT_ID>
SCHEMBL16124586

> <PUBCHEM_EXT_DATASOURCE_URL>
https://www.surechembl.org/

> <PUBCHEM_EXT_SUBSTANCE_URL>
https://www.surechembl.org/chemical/SCHEMBL16124586

> <PUBCHEM_CID_ASSOCIATIONS>
61301929  1

> <PUBCHEM_COORDINATE_TYPE>
1
3

$$$$
