310930970
  -OEChem-07211613022D

 31 35  0     1  0  0  0  0  0999 V2000
    4.4432   -2.2615    0.0000 O   0  0  0  0  0  0  0  0  0  0  0  0
    5.5075   -0.8248    0.0000 O   0  0  0  0  0  0  0  0  0  0  0  0
    0.0000   -1.9422    0.0000 O   0  0  0  0  0  0  0  0  0  0  0  0
    5.6671   -5.3212    0.0000 O   0  0  0  0  0  0  0  0  0  0  0  0
    4.1772   -0.1596    0.0000 N   0  0  0  0  0  0  0  0  0  0  0  0
    0.3991   -2.6606    0.0000 N   0  0  0  0  0  0  0  0  0  0  0  0
    5.0817   -3.7781    0.0000 N   0  0  0  0  0  0  0  0  0  0  0  0
    4.1772   -1.4899    0.0000 C   0  0  3  0  0  0  0  0  0  0  0  0
    3.4056   -1.2505    0.0000 C   0  0  0  0  0  0  0  0  0  0  0  0
    4.6826   -0.8248    0.0000 C   0  0  0  0  0  0  0  0  0  0  0  0
    5.0019   -1.5964    0.0000 C   0  0  0  0  0  0  0  0  0  0  0  0
    3.4056   -0.3991    0.0000 C   0  0  0  0  0  0  0  0  0  0  0  0
    2.6872   -1.6496    0.0000 C   0  0  0  0  0  0  0  0  0  0  0  0
    1.9955   -1.2505    0.0000 C   0  0  0  0  0  0  0  0  0  0  0  0
    5.2946   -2.3680    0.0000 C   0  0  0  0  0  0  0  0  0  0  0  0
    2.6872    0.0000    0.0000 C   0  0  0  0  0  0  0  0  0  0  0  0
    1.2771   -1.6496    0.0000 C   0  0  0  0  0  0  0  0  0  0  0  0
    5.5341   -0.9578    0.0000 C   0  0  0  0  0  0  0  0  0  0  0  0
    1.9955   -0.3991    0.0000 C   0  0  0  0  0  0  0  0  0  0  0  0
    0.5321   -1.3303    0.0000 C   0  0  0  0  0  0  0  0  0  0  0  0
    1.1973   -2.4744    0.0000 C   0  0  0  0  0  0  0  0  0  0  0  0
    6.0928   -2.5010    0.0000 C   0  0  0  0  0  0  0  0  0  0  0  0
    4.7891   -3.0065    0.0000 C   0  0  0  0  0  0  0  0  0  0  0  0
    6.3322   -1.0908    0.0000 C   0  0  0  0  0  0  0  0  0  0  0  0
    6.6249   -1.8624    0.0000 C   0  0  0  0  0  0  0  0  0  0  0  0
    0.3459   -0.5321    0.0000 C   0  0  0  0  0  0  0  0  0  0  0  0
    1.8092   -3.0331    0.0000 C   0  0  0  0  0  0  0  0  0  0  0  0
    5.9066   -3.9111    0.0000 C   0  0  0  0  0  0  0  0  0  0  0  0
    4.5763   -4.4166    0.0000 C   0  0  0  0  0  0  0  0  0  0  0  0
    4.8689   -5.1882    0.0000 C   0  0  0  0  0  0  0  0  0  0  0  0
    6.1992   -4.6826    0.0000 C   0  0  0  0  0  0  0  0  0  0  0  0
  1  8  1  0  0  0  0
  2 10  2  0  0  0  0
  3  6  1  0  0  0  0
  3 20  1  0  0  0  0
  4 30  1  0  0  0  0
  4 31  1  0  0  0  0
  5 10  1  0  0  0  0
  5 12  1  0  0  0  0
  6 21  2  0  0  0  0
  7 23  1  0  0  0  0
  7 28  1  0  0  0  0
  7 29  1  0  0  0  0
  8  9  1  0  0  0  0
  8 10  1  0  0  0  0
  8 11  1  0  0  0  0
  9 12  2  0  0  0  0
  9 13  1  0  0  0  0
 11 15  1  0  0  0  0
 11 18  2  0  0  0  0
 12 16  1  0  0  0  0
 13 14  2  0  0  0  0
 14 17  1  0  0  0  0
 14 19  1  0  0  0  0
 15 22  2  0  0  0  0
 15 23  1  0  0  0  0
 16 19  2  0  0  0  0
 17 20  2  0  0  0  0
 17 21  1  0  0  0  0
 18 24  1  0  0  0  0
 20 26  1  0  0  0  0
 21 27  1  0  0  0  0
 22 25  1  0  0  0  0
 24 25  2  0  0  0  0
 28 31  1  0  0  0  0
 29 30  1  0  0  0  0
M  END
> <PUBCHEM_COMPOUND_ID_TYPE>
0

> <PUBCHEM_TOTAL_CHARGE>
0

> <PUBCHEM_SUBSTANCE_ID>
310930970

> <PUBCHEM_SUBSTANCE_VERSION>
1

> <PUBCHEM_EXT_DATASOURCE_NAME>
4488

> <PUBCHEM_EXT_DATASOURCE_REGID>
SCHEMBL16108270

> <PUBCHEM_SUBSTANCE_COMMENT>
InChI=1S/C24H25N3O4/c1-15-22(16(2)31-26-15)17-7-8-21-20(13-17)24(29,23(28)25-21)19-6-4-3-5-18(19)14-27-9-11-30-12-10-27/h3-8,13,29H,9-12,14H2,1-2H3,(H,25,28)
InChIKey=JIVIVSJEBBHMGI-UHFFFAOYSA-N

> <PUBCHEM_SUBSTANCE_SYNONYM>
SCHEMBL16108270

> <PUBCHEM_XREF_EXT_ID>
SCHEMBL16108270

> <PUBCHEM_EXT_DATASOURCE_URL>
https://www.surechembl.org/

> <PUBCHEM_EXT_SUBSTANCE_URL>
https://www.surechembl.org/chemical/SCHEMBL16108270

> <PUBCHEM_CID_ASSOCIATIONS>
86296102  1

> <PUBCHEM_COORDINATE_TYPE>
1
3

$$$$
