310933960
  -OEChem-07211613022D

 32 36  0     1  0  0  0  0  0999 V2000
    2.8831   -3.7526    0.0000 O   0  0  0  0  0  0  0  0  0  0  0  0
    0.7322   -4.1644    0.0000 O   0  0  0  0  0  0  0  0  0  0  0  0
    0.0000   -5.4000    0.0000 O   0  0  0  0  0  0  0  0  0  0  0  0
    1.4187   -5.4000    0.0000 N   0  0  0  0  0  0  0  0  0  0  0  0
    1.4644   -3.7526    0.0000 N   0  0  0  0  0  0  0  0  0  0  0  0
    2.8373   -8.6950    0.0000 N   0  0  0  0  0  0  0  0  0  0  0  0
    4.3017   -8.7407    0.0000 N   0  0  0  0  0  0  0  0  0  0  0  0
    1.4644   -0.4119    0.0000 N   0  0  0  0  0  0  0  0  0  0  0  0
    2.8831   -5.4000    0.0000 C   0  0  0  0  0  0  0  0  0  0  0  0
    2.1508   -4.9881    0.0000 C   0  0  3  0  0  0  0  0  0  0  0  0
    2.8831   -6.2238    0.0000 C   0  0  0  0  0  0  0  0  0  0  0  0
    3.5695   -6.6356    0.0000 C   0  0  0  0  0  0  0  0  0  0  0  0
    2.1508   -4.1644    0.0000 C   0  0  0  0  0  0  0  0  0  0  0  0
    2.1508   -6.6356    0.0000 C   0  0  0  0  0  0  0  0  0  0  0  0
    1.4187   -6.2238    0.0000 C   0  0  0  0  0  0  0  0  0  0  0  0
    3.5695   -4.9881    0.0000 C   0  0  0  0  0  0  0  0  0  0  0  0
    3.5695   -7.4593    0.0000 C   0  0  0  0  0  0  0  0  0  0  0  0
    0.7322   -4.9881    0.0000 C   0  0  0  0  0  0  0  0  0  0  0  0
    4.3017   -6.2238    0.0000 C   0  0  0  0  0  0  0  0  0  0  0  0
    4.3017   -5.4000    0.0000 C   0  0  0  0  0  0  0  0  0  0  0  0
    1.4644   -2.8831    0.0000 C   0  0  0  0  0  0  0  0  0  0  0  0
    0.7322   -1.6932    0.0000 C   0  0  0  0  0  0  0  0  0  0  0  0
    2.8373   -7.8712    0.0000 C   0  0  0  0  0  0  0  0  0  0  0  0
    4.3017   -7.9170    0.0000 C   0  0  0  0  0  0  0  0  0  0  0  0
    0.7322   -2.4712    0.0000 C   0  0  0  0  0  0  0  0  0  0  0  0
    1.4644   -1.2814    0.0000 C   0  0  0  0  0  0  0  0  0  0  0  0
    2.1966   -2.4712    0.0000 C   0  0  0  0  0  0  0  0  0  0  0  0
    2.1966   -1.6474    0.0000 C   0  0  0  0  0  0  0  0  0  0  0  0
    0.0458   -1.2356    0.0000 C   0  0  0  0  0  0  0  0  0  0  0  0
    3.5695   -9.1526    0.0000 C   0  0  0  0  0  0  0  0  0  0  0  0
    0.0458   -0.4119    0.0000 C   0  0  0  0  0  0  0  0  0  0  0  0
    0.7322    0.0000    0.0000 C   0  0  0  0  0  0  0  0  0  0  0  0
  1 13  2  0  0  0  0
  2 18  2  0  0  0  0
  3 18  1  0  0  0  0
  4 10  1  0  0  0  0
  4 15  1  0  0  0  0
  4 18  1  0  0  0  0
  5 13  1  0  0  0  0
  5 21  1  0  0  0  0
  6 23  2  0  0  0  0
  6 30  1  0  0  0  0
  7 24  1  0  0  0  0
  7 30  2  0  0  0  0
  8 26  2  0  0  0  0
  8 32  1  0  0  0  0
  9 10  1  0  0  0  0
  9 11  2  0  0  0  0
  9 16  1  0  0  0  0
 10 13  1  0  0  0  0
 11 12  1  0  0  0  0
 11 14  1  0  0  0  0
 12 17  1  0  0  0  0
 12 19  2  0  0  0  0
 14 15  1  0  0  0  0
 16 20  2  0  0  0  0
 17 23  1  0  0  0  0
 17 24  2  0  0  0  0
 19 20  1  0  0  0  0
 21 25  2  0  0  0  0
 21 27  1  0  0  0  0
 22 25  1  0  0  0  0
 22 26  1  0  0  0  0
 22 29  2  0  0  0  0
 26 28  1  0  0  0  0
 27 28  2  0  0  0  0
 29 31  1  0  0  0  0
 31 32  2  0  0  0  0
M  END
> <PUBCHEM_COMPOUND_ID_TYPE>
0

> <PUBCHEM_TOTAL_CHARGE>
0

> <PUBCHEM_SUBSTANCE_ID>
310933960

> <PUBCHEM_SUBSTANCE_VERSION>
1

> <PUBCHEM_EXT_DATASOURCE_NAME>
4488

> <PUBCHEM_EXT_DATASOURCE_REGID>
SCHEMBL16111399

> <PUBCHEM_SUBSTANCE_COMMENT>
InChI=1S/C24H19N5O3/c30-23(28-17-6-7-21-15(11-17)3-2-9-27-21)22-20-5-1-4-18(16-12-25-14-26-13-16)19(20)8-10-29(22)24(31)32/h1-7,9,11-14,22H,8,10H2,(H,28,30)(H,31,32)
InChIKey=NTTKXAGHTGVYLP-UHFFFAOYSA-N

> <PUBCHEM_SUBSTANCE_SYNONYM>
SCHEMBL16111399

> <PUBCHEM_XREF_EXT_ID>
SCHEMBL16111399

> <PUBCHEM_EXT_DATASOURCE_URL>
https://www.surechembl.org/

> <PUBCHEM_EXT_SUBSTANCE_URL>
https://www.surechembl.org/chemical/SCHEMBL16111399

> <PUBCHEM_CID_ASSOCIATIONS>
117602276  1

> <PUBCHEM_COORDINATE_TYPE>
1
3

$$$$
