310947688
  -OEChem-07211613022D

 28 30  0     1  0  0  0  0  0999 V2000
    2.0714    0.8124    0.0000 O   0  0  0  0  0  0  0  0  0  0  0  0
    2.7594   -0.4904    0.0000 O   0  0  0  0  0  0  0  0  0  0  0  0
    3.4474    0.8271    0.0000 N   0  0  0  0  0  0  0  0  0  0  0  0
    4.1794    0.3733    0.0000 C   0  0  0  0  0  0  0  0  0  0  0  0
    5.6871   -0.6660    0.0000 C   0  0  0  0  0  0  0  0  0  0  0  0
    5.5407    0.3587    0.0000 C   0  0  3  0  0  0  0  0  0  0  0  0
    5.8336    0.0219    0.0000 C   0  0  3  0  0  0  0  0  0  0  0  0
    4.8527    0.8124    0.0000 C   0  0  0  0  0  0  0  0  0  0  0  0
    4.8527   -0.0512    0.0000 C   0  0  0  0  0  0  0  0  0  0  0  0
    6.2142    0.7539    0.0000 C   0  0  0  0  0  0  0  0  0  0  0  0
    4.1647   -0.4758    0.0000 C   0  0  0  0  0  0  0  0  0  0  0  0
    4.8820   -0.9003    0.0000 C   0  0  0  0  0  0  0  0  0  0  0  0
    2.7447    0.4026    0.0000 C   0  0  0  0  0  0  0  0  0  0  0  0
    1.3687    0.3733    0.0000 C   0  0  0  0  0  0  0  0  0  0  0  0
    0.6514    0.8418    0.0000 C   0  0  0  0  0  0  0  0  0  0  0  0
   -0.0219    0.4026    0.0000 C   0  0  0  0  0  0  0  0  0  0  0  0
   -0.7393    0.8418    0.0000 C   0  0  0  0  0  0  0  0  0  0  0  0
   -1.4273    0.4172    0.0000 C   0  0  0  0  0  0  0  0  0  0  0  0
   -0.0366   -0.4612    0.0000 C   0  0  0  0  0  0  0  0  0  0  0  0
   -2.8326    0.4465    0.0000 C   0  0  0  0  0  0  0  0  0  0  0  0
   -2.1592    0.8564    0.0000 C   0  0  0  0  0  0  0  0  0  0  0  0
   -3.5353    0.8710    0.0000 C   0  0  0  0  0  0  0  0  0  0  0  0
   -4.1794    0.4612    0.0000 C   0  0  0  0  0  0  0  0  0  0  0  0
   -2.8472   -0.4464    0.0000 C   0  0  0  0  0  0  0  0  0  0  0  0
   -4.8966    0.8710    0.0000 C   0  0  0  0  0  0  0  0  0  0  0  0
   -5.5261    0.4612    0.0000 C   0  0  0  0  0  0  0  0  0  0  0  0
   -5.5407   -0.4318    0.0000 C   0  0  0  0  0  0  0  0  0  0  0  0
   -6.2142    0.9003    0.0000 C   0  0  0  0  0  0  0  0  0  0  0  0
  1 13  1  0  0  0  0
  1 14  1  0  0  0  0
  2 13  2  0  0  0  0
  3  4  1  0  0  0  0
  3 13  1  0  0  0  0
  4  8  1  0  0  0  0
  4  9  1  0  0  0  0
  4 11  1  0  0  0  0
  5  6  1  0  0  0  0
  5  7  1  0  0  0  0
  5 12  2  0  0  0  0
  6  8  1  0  0  0  0
  6 10  1  0  0  0  0
  7  9  1  0  0  0  0
  7 10  1  0  0  0  0
 11 12  1  0  0  0  0
 14 15  1  0  0  0  0
 15 16  2  0  0  0  0
 16 17  1  0  0  0  0
 16 19  1  0  0  0  0
 17 18  1  0  0  0  0
 18 21  1  0  0  0  0
 20 21  2  0  0  0  0
 20 22  1  0  0  0  0
 20 24  1  0  0  0  0
 22 23  1  0  0  0  0
 23 25  1  0  0  0  0
 25 26  2  0  0  0  0
 26 27  1  0  0  0  0
 26 28  1  0  0  0  0
M  END
> <PUBCHEM_COMPOUND_ID_TYPE>
0

> <PUBCHEM_TOTAL_CHARGE>
0

> <PUBCHEM_SUBSTANCE_ID>
310947688

> <PUBCHEM_SUBSTANCE_VERSION>
1

> <PUBCHEM_EXT_DATASOURCE_NAME>
4488

> <PUBCHEM_EXT_DATASOURCE_REGID>
SCHEMBL16125857

> <PUBCHEM_SUBSTANCE_COMMENT>
InChI=1S/C25H37NO2/c1-18(2)7-5-8-19(3)9-6-10-20(4)12-14-28-24(27)26-25-13-11-23-21(16-25)15-22(23)17-25/h7,9,11-12,21-22H,5-6,8,10,13-17H2,1-4H3,(H,26,27)/b19-9+,20-12+
InChIKey=QULFHMFKEBZCGQ-IMXASGKTSA-N

> <PUBCHEM_SUBSTANCE_SYNONYM>
SCHEMBL16125857

> <PUBCHEM_XREF_EXT_ID>
SCHEMBL16125857

> <PUBCHEM_EXT_DATASOURCE_URL>
https://www.surechembl.org/

> <PUBCHEM_EXT_SUBSTANCE_URL>
https://www.surechembl.org/chemical/SCHEMBL16125857

> <PUBCHEM_CID_ASSOCIATIONS>
117613402  1

> <PUBCHEM_COORDINATE_TYPE>
1
3

$$$$
