310934055
  -OEChem-07211613022D

 44 50  0     1  0  0  0  0  0999 V2000
    1.5102   -0.0458    0.0000 Cl  0  0  0  0  0  0  0  0  0  0  0  0
    2.4712   -1.3729    0.0000 F   0  0  0  0  0  0  0  0  0  0  0  0
    1.4644   -5.4000    0.0000 O   0  0  0  0  0  0  0  0  0  0  0  0
    4.3932   -3.7526    0.0000 O   0  0  0  0  0  0  0  0  0  0  0  0
    2.9288   -5.4000    0.0000 N   0  0  0  0  0  0  0  0  0  0  0  0
    1.7847   -2.8831    0.0000 N   0  0  0  0  0  0  0  0  0  0  0  0
    3.0661   -3.8441    0.0000 N   0  0  0  0  0  0  0  0  0  0  0  0
    2.9288   -3.7526    0.0000 N   0  0  0  0  0  0  0  0  0  0  0  0
    2.6085   -2.8831    0.0000 N   0  0  0  0  0  0  0  0  0  0  0  0
    4.3475   -8.6949    0.0000 N   0  0  0  0  0  0  0  0  0  0  0  0
    5.7661   -8.7407    0.0000 N   0  0  0  0  0  0  0  0  0  0  0  0
    2.9288   -0.4118    0.0000 N   0  0  0  0  0  0  0  0  0  0  0  0
    3.6610   -4.9882    0.0000 C   0  0  3  0  0  0  0  0  0  0  0  0
    4.3932   -5.4000    0.0000 C   0  0  0  0  0  0  0  0  0  0  0  0
    4.3932   -6.2237    0.0000 C   0  0  0  0  0  0  0  0  0  0  0  0
    2.1966   -4.9882    0.0000 C   0  0  0  0  0  0  0  0  0  0  0  0
    5.0797   -6.6356    0.0000 C   0  0  0  0  0  0  0  0  0  0  0  0
    3.6610   -4.1644    0.0000 C   0  0  0  0  0  0  0  0  0  0  0  0
    2.1966   -4.1644    0.0000 C   0  0  0  0  0  0  0  0  0  0  0  0
    2.9288   -6.2237    0.0000 C   0  0  0  0  0  0  0  0  0  0  0  0
    3.6610   -6.6356    0.0000 C   0  0  0  0  0  0  0  0  0  0  0  0
    5.0797   -4.9882    0.0000 C   0  0  0  0  0  0  0  0  0  0  0  0
    5.0797   -7.4593    0.0000 C   0  0  0  0  0  0  0  0  0  0  0  0
    1.5559   -3.6610    0.0000 C   0  0  0  0  0  0  0  0  0  0  0  0
    5.8119   -6.2237    0.0000 C   0  0  0  0  0  0  0  0  0  0  0  0
    1.3271   -2.1966    0.0000 C   0  0  0  0  0  0  0  0  0  0  0  0
    5.8119   -5.4000    0.0000 C   0  0  0  0  0  0  0  0  0  0  0  0
    2.9288   -2.8831    0.0000 C   0  0  0  0  0  0  0  0  0  0  0  0
    1.6475   -1.4644    0.0000 C   0  0  0  0  0  0  0  0  0  0  0  0
    4.3475   -7.8712    0.0000 C   0  0  0  0  0  0  0  0  0  0  0  0
    5.7661   -7.9170    0.0000 C   0  0  0  0  0  0  0  0  0  0  0  0
    0.5034   -2.2882    0.0000 C   0  0  0  0  0  0  0  0  0  0  0  0
    1.1898   -0.7780    0.0000 C   0  0  0  0  0  0  0  0  0  0  0  0
    2.1966   -2.4712    0.0000 C   0  0  0  0  0  0  0  0  0  0  0  0
    2.2424   -1.6932    0.0000 C   0  0  0  0  0  0  0  0  0  0  0  0
    3.6610   -2.4712    0.0000 C   0  0  0  0  0  0  0  0  0  0  0  0
    2.9288   -1.2813    0.0000 C   0  0  0  0  0  0  0  0  0  0  0  0
    0.0000   -1.6017    0.0000 C   0  0  0  0  0  0  0  0  0  0  0  0
    0.3661   -0.8695    0.0000 C   0  0  0  0  0  0  0  0  0  0  0  0
    3.6610   -1.6475    0.0000 C   0  0  0  0  0  0  0  0  0  0  0  0
    5.0339   -9.1526    0.0000 C   0  0  0  0  0  0  0  0  0  0  0  0
    1.5102   -1.2356    0.0000 C   0  0  0  0  0  0  0  0  0  0  0  0
    1.5102   -0.4118    0.0000 C   0  0  0  0  0  0  0  0  0  0  0  0
    2.2424    0.0000    0.0000 C   0  0  0  0  0  0  0  0  0  0  0  0
  1 33  1  0  0  0  0
  2 29  1  0  0  0  0
  3 16  2  0  0  0  0
  4 18  2  0  0  0  0
  5 13  1  0  0  0  0
  5 16  1  0  0  0  0
  5 20  1  0  0  0  0
  6  9  1  0  0  0  0
  6 24  1  0  0  0  0
  6 26  1  0  0  0  0
  7  9  2  0  0  0  0
  7 19  1  0  0  0  0
  8 18  1  0  0  0  0
  8 28  1  0  0  0  0
 10 30  2  0  0  0  0
 10 41  1  0  0  0  0
 11 31  1  0  0  0  0
 11 41  2  0  0  0  0
 12 37  2  0  0  0  0
 12 44  1  0  0  0  0
 13 14  1  0  0  0  0
 13 18  1  0  0  0  0
 14 15  2  0  0  0  0
 14 22  1  0  0  0  0
 15 17  1  0  0  0  0
 15 21  1  0  0  0  0
 16 19  1  0  0  0  0
 17 23  1  0  0  0  0
 17 25  2  0  0  0  0
 19 24  2  0  0  0  0
 20 21  1  0  0  0  0
 22 27  2  0  0  0  0
 23 30  1  0  0  0  0
 23 31  2  0  0  0  0
 25 27  1  0  0  0  0
 26 29  1  0  0  0  0
 26 32  2  0  0  0  0
 28 34  2  0  0  0  0
 28 36  1  0  0  0  0
 29 33  2  0  0  0  0
 32 38  1  0  0  0  0
 33 39  1  0  0  0  0
 34 35  1  0  0  0  0
 35 37  1  0  0  0  0
 35 42  2  0  0  0  0
 36 40  2  0  0  0  0
 37 40  1  0  0  0  0
 38 39  2  0  0  0  0
 42 43  1  0  0  0  0
 43 44  2  0  0  0  0
M  END
> <PUBCHEM_COMPOUND_ID_TYPE>
0

> <PUBCHEM_TOTAL_CHARGE>
0

> <PUBCHEM_SUBSTANCE_ID>
310934055

> <PUBCHEM_SUBSTANCE_VERSION>
1

> <PUBCHEM_EXT_DATASOURCE_NAME>
4488

> <PUBCHEM_EXT_DATASOURCE_REGID>
SCHEMBL16111499

> <PUBCHEM_SUBSTANCE_COMMENT>
InChI=1S/C32H22ClFN8O2/c33-25-7-2-8-28(29(25)34)42-17-27(39-40-42)32(44)41-13-11-23-22(20-15-35-18-36-16-20)5-1-6-24(23)30(41)31(43)38-21-9-10-26-19(14-21)4-3-12-37-26/h1-10,12,14-18,30H,11,13H2,(H,38,43)
InChIKey=AOJOJDICJYHDFM-UHFFFAOYSA-N

> <PUBCHEM_SUBSTANCE_SYNONYM>
SCHEMBL16111499

> <PUBCHEM_XREF_EXT_ID>
SCHEMBL16111499

> <PUBCHEM_EXT_DATASOURCE_URL>
https://www.surechembl.org/

> <PUBCHEM_EXT_SUBSTANCE_URL>
https://www.surechembl.org/chemical/SCHEMBL16111499

> <PUBCHEM_CID_ASSOCIATIONS>
117602348  1

> <PUBCHEM_COORDINATE_TYPE>
1
3

$$$$
