310933143
  -OEChem-07211613022D

 22 24  0     1  0  0  0  0  0999 V2000
    3.5322   -1.6103    0.0000 O   0  0  0  0  0  0  0  0  0  0  0  0
    4.6491   -3.5582    0.0000 O   0  0  0  0  0  0  0  0  0  0  0  0
    5.3763   -2.3115    0.0000 O   0  0  0  0  0  0  0  0  0  0  0  0
    0.8051    0.0000    0.0000 O   0  0  0  0  0  0  0  0  0  0  0  0
    3.1167   -2.3115    0.0000 C   0  0  3  0  0  0  0  0  0  0  0  0
    3.9478   -2.3115    0.0000 C   0  0  3  0  0  0  0  0  0  0  0  0
    2.5453   -1.7401    0.0000 C   0  0  0  0  0  0  0  0  0  0  0  0
    4.6491   -2.7271    0.0000 C   0  0  0  0  0  0  0  0  0  0  0  0
    2.4154   -2.7271    0.0000 C   0  0  0  0  0  0  0  0  0  0  0  0
    1.7401   -1.9479    0.0000 C   0  0  0  0  0  0  0  0  0  0  0  0
    2.7531   -0.9350    0.0000 C   0  0  0  0  0  0  0  0  0  0  0  0
    1.1687   -1.3765    0.0000 C   0  0  0  0  0  0  0  0  0  0  0  0
    2.1816   -0.3636    0.0000 C   0  0  0  0  0  0  0  0  0  0  0  0
    1.3765   -0.5714    0.0000 C   0  0  0  0  0  0  0  0  0  0  0  0
    2.4154   -3.5582    0.0000 C   0  0  0  0  0  0  0  0  0  0  0  0
    5.3763   -3.9478    0.0000 C   0  0  0  0  0  0  0  0  0  0  0  0
    6.1035   -3.5582    0.0000 C   0  0  0  0  0  0  0  0  0  0  0  0
    5.3763   -4.7789    0.0000 C   0  0  0  0  0  0  0  0  0  0  0  0
    6.7787   -3.9738    0.0000 C   0  0  0  0  0  0  0  0  0  0  0  0
    6.0775   -5.1945    0.0000 C   0  0  0  0  0  0  0  0  0  0  0  0
    6.8047   -4.8049    0.0000 C   0  0  0  0  0  0  0  0  0  0  0  0
    0.0000   -0.2078    0.0000 C   0  0  0  0  0  0  0  0  0  0  0  0
  1  5  1  0  0  0  0
  1  6  1  0  0  0  0
  2  8  1  0  0  0  0
  2 16  1  0  0  0  0
  3  8  2  0  0  0  0
  4 14  1  0  0  0  0
  4 22  1  0  0  0  0
  5  6  1  0  0  0  0
  5  7  1  0  0  0  0
  5  9  1  0  0  0  0
  6  8  1  0  0  0  0
  7 10  2  0  0  0  0
  7 11  1  0  0  0  0
  9 15  1  0  0  0  0
 10 12  1  0  0  0  0
 11 13  2  0  0  0  0
 12 14  2  0  0  0  0
 13 14  1  0  0  0  0
 16 17  1  0  0  0  0
 16 18  1  0  0  0  0
 17 19  1  0  0  0  0
 18 20  1  0  0  0  0
 19 21  1  0  0  0  0
 20 21  1  0  0  0  0
M  END
> <PUBCHEM_COMPOUND_ID_TYPE>
0

> <PUBCHEM_TOTAL_CHARGE>
0

> <PUBCHEM_SUBSTANCE_ID>
310933143

> <PUBCHEM_SUBSTANCE_VERSION>
1

> <PUBCHEM_EXT_DATASOURCE_NAME>
4488

> <PUBCHEM_EXT_DATASOURCE_REGID>
SCHEMBL16110551

> <PUBCHEM_SUBSTANCE_COMMENT>
InChI=1S/C18H24O4/c1-3-18(13-9-11-14(20-2)12-10-13)16(22-18)17(19)21-15-7-5-4-6-8-15/h9-12,15-16H,3-8H2,1-2H3
InChIKey=GAONZQDVQUHXEC-UHFFFAOYSA-N

> <PUBCHEM_SUBSTANCE_SYNONYM>
SCHEMBL16110551

> <PUBCHEM_XREF_EXT_ID>
SCHEMBL16110551

> <PUBCHEM_EXT_DATASOURCE_URL>
https://www.surechembl.org/

> <PUBCHEM_EXT_SUBSTANCE_URL>
https://www.surechembl.org/chemical/SCHEMBL16110551

> <PUBCHEM_CID_ASSOCIATIONS>
117601596  1

> <PUBCHEM_COORDINATE_TYPE>
1
3

$$$$
