310946562
  -OEChem-07211613022D

 23 23  0     1  0  0  0  0  0999 V2000
    2.1035   11.7801    0.0000 O   0  0  0  0  0  0  0  0  0  0  0  0
    0.8339   11.3676    0.0000 O   0  0  0  0  0  0  0  0  0  0  0  0
    3.4837   10.5853    0.0000 O   0  0  0  0  0  0  0  0  0  0  0  0
    0.9064   12.7495    0.0000 O   0  0  0  0  0  0  0  0  0  0  0  0
    4.1982    9.3478    0.0000 O   0  0  0  0  0  0  0  0  0  0  0  0
    4.1982   12.6478    0.0000 O   0  0  0  0  0  0  0  0  0  0  0  0
    4.9127   11.4103    0.0000 N   0  0  0  0  0  0  0  0  0  0  0  0
    2.1035   10.9551    0.0000 C   0  0  0  0  0  0  0  0  0  0  0  0
    1.3189   10.7002    0.0000 C   0  0  0  0  0  0  0  0  0  0  0  0
    1.3189   12.0350    0.0000 C   0  0  0  0  0  0  0  0  0  0  0  0
    2.6869   10.3717    0.0000 C   0  0  0  0  0  0  0  0  0  0  0  0
    4.1982   10.1728    0.0000 C   0  0  0  0  0  0  0  0  0  0  0  0
    4.9127   10.5853    0.0000 C   0  0  3  0  0  0  0  0  0  0  0  0
    5.6272   10.1728    0.0000 C   0  0  0  0  0  0  0  0  0  0  0  0
    0.9064    9.9857    0.0000 C   0  0  0  0  0  0  0  0  0  0  0  0
    4.9127   12.2353    0.0000 C   0  0  0  0  0  0  0  0  0  0  0  0
    6.3416   10.5853    0.0000 C   0  0  0  0  0  0  0  0  0  0  0  0
    5.6272   12.6478    0.0000 C   0  0  0  0  0  0  0  0  0  0  0  0
    6.3416   11.4103    0.0000 C   0  0  0  0  0  0  0  0  0  0  0  0
    7.0561   10.1728    0.0000 C   0  0  0  0  0  0  0  0  0  0  0  0
    5.6272   13.4728    0.0000 C   0  0  0  0  0  0  0  0  0  0  0  0
    6.4240   13.6863    0.0000 C   0  0  0  0  0  0  0  0  0  0  0  0
    6.6376   14.4832    0.0000 C   0  0  0  0  0  0  0  0  0  0  0  0
  1  8  1  0  0  0  0
  1 10  1  0  0  0  0
  2  9  1  0  0  0  0
  2 10  1  0  0  0  0
  3 11  1  0  0  0  0
  3 12  1  0  0  0  0
  4 10  2  0  0  0  0
  5 12  2  0  0  0  0
  6 16  2  0  0  0  0
  7 13  1  0  0  0  0
  7 16  1  0  0  0  0
  8  9  2  0  0  0  0
  8 11  1  0  0  0  0
  9 15  1  0  0  0  0
 12 13  1  0  0  0  0
 13 14  1  0  0  0  0
 14 17  1  0  0  0  0
 16 18  1  0  0  0  0
 17 19  1  0  0  0  0
 17 20  1  0  0  0  0
 18 21  1  0  0  0  0
 21 22  1  0  0  0  0
 22 23  1  0  0  0  0
M  END
> <PUBCHEM_COMPOUND_ID_TYPE>
0

> <PUBCHEM_TOTAL_CHARGE>
0

> <PUBCHEM_SUBSTANCE_ID>
310946562

> <PUBCHEM_SUBSTANCE_VERSION>
1

> <PUBCHEM_EXT_DATASOURCE_NAME>
4488

> <PUBCHEM_EXT_DATASOURCE_REGID>
SCHEMBL16124683

> <PUBCHEM_SUBSTANCE_COMMENT>
InChI=1S/C16H25NO6/c1-5-6-7-14(18)17-12(8-10(2)3)15(19)21-9-13-11(4)22-16(20)23-13/h10,12H,5-9H2,1-4H3,(H,17,18)
InChIKey=MRLVMCHXNYGQGQ-UHFFFAOYSA-N

> <PUBCHEM_SUBSTANCE_SYNONYM>
SCHEMBL16124683

> <PUBCHEM_XREF_EXT_ID>
SCHEMBL16124683

> <PUBCHEM_EXT_DATASOURCE_URL>
https://www.surechembl.org/

> <PUBCHEM_EXT_SUBSTANCE_URL>
https://www.surechembl.org/chemical/SCHEMBL16124683

> <PUBCHEM_CID_ASSOCIATIONS>
117612464  1

> <PUBCHEM_COORDINATE_TYPE>
1
3

$$$$
