310937773
  -OEChem-07211613022D

 37 40  0     1  0  0  0  0  0999 V2000
    1.2733    0.0000    0.0000 F   0  0  0  0  0  0  0  0  0  0  0  0
    0.0000   -0.7546    0.0000 F   0  0  0  0  0  0  0  0  0  0  0  0
    1.6978   -0.7074    0.0000 F   0  0  0  0  0  0  0  0  0  0  0  0
    2.3109   -5.7066    0.0000 O   0  0  0  0  0  0  0  0  0  0  0  0
    5.2349   -5.7066    0.0000 O   0  0  0  0  0  0  0  0  0  0  0  0
    4.5275   -2.9240    0.0000 N   0  0  3  0  0  0  0  0  0  0  0  0
    3.7258   -5.7066    0.0000 N   0  0  0  0  0  0  0  0  0  0  0  0
    5.8952   -6.9327    0.0000 N   0  0  0  0  0  0  0  0  0  0  0  0
    3.7729   -4.0087    0.0000 C   0  0  0  0  0  0  0  0  0  0  0  0
    3.7729   -3.2070    0.0000 C   0  0  0  0  0  0  0  0  0  0  0  0
    3.0183   -4.4332    0.0000 C   0  0  0  0  0  0  0  0  0  0  0  0
    2.3109   -3.2070    0.0000 C   0  0  0  0  0  0  0  0  0  0  0  0
    3.0183   -2.7826    0.0000 C   0  0  0  0  0  0  0  0  0  0  0  0
    2.3109   -4.0087    0.0000 C   0  0  0  0  0  0  0  0  0  0  0  0
    4.5275   -4.2917    0.0000 C   0  0  0  0  0  0  0  0  0  0  0  0
    1.6035   -2.7826    0.0000 C   0  0  0  0  0  0  0  0  0  0  0  0
    3.0183   -5.2821    0.0000 C   0  0  0  0  0  0  0  0  0  0  0  0
    4.9991   -3.6315    0.0000 C   0  0  0  0  0  0  0  0  0  0  0  0
    4.8105   -2.1694    0.0000 C   0  0  0  0  0  0  0  0  0  0  0  0
    1.5563   -1.9808    0.0000 C   0  0  0  0  0  0  0  0  0  0  0  0
    0.8489   -1.5563    0.0000 C   0  0  0  0  0  0  0  0  0  0  0  0
    0.8489   -3.2070    0.0000 C   0  0  0  0  0  0  0  0  0  0  0  0
    4.4804   -6.9327    0.0000 C   0  0  0  0  0  0  0  0  0  0  0  0
    0.8489   -0.7074    0.0000 C   0  0  0  0  0  0  0  0  0  0  0  0
    3.7258   -6.5083    0.0000 C   0  0  0  0  0  0  0  0  0  0  0  0
    4.4804   -7.7817    0.0000 C   0  0  0  0  0  0  0  0  0  0  0  0
    0.1415   -1.9808    0.0000 C   0  0  0  0  0  0  0  0  0  0  0  0
    0.1415   -2.8297    0.0000 C   0  0  0  0  0  0  0  0  0  0  0  0
    5.1878   -6.5555    0.0000 C   0  0  0  0  0  0  0  0  0  0  0  0
    4.2446   -1.5091    0.0000 C   0  0  0  0  0  0  0  0  0  0  0  0
    5.6122   -1.9808    0.0000 C   0  0  0  0  0  0  0  0  0  0  0  0
    5.1878   -8.2061    0.0000 C   0  0  0  0  0  0  0  0  0  0  0  0
    5.9424   -7.7817    0.0000 C   0  0  0  0  0  0  0  0  0  0  0  0
    3.7729   -8.2061    0.0000 C   0  0  0  0  0  0  0  0  0  0  0  0
    6.6498   -8.2061    0.0000 C   0  0  0  0  0  0  0  0  0  0  0  0
    3.7729   -9.0078    0.0000 C   0  0  0  0  0  0  0  0  0  0  0  0
    4.4804   -9.4323    0.0000 C   0  0  0  0  0  0  0  0  0  0  0  0
  1 24  1  0  0  0  0
  2 24  1  0  0  0  0
  3 24  1  0  0  0  0
  4 17  2  0  0  0  0
  5 29  2  0  0  0  0
  6 10  1  0  0  0  0
  6 18  1  0  0  0  0
  6 19  1  0  0  0  0
  7 17  1  0  0  0  0
  7 25  1  0  0  0  0
  8 29  1  0  0  0  0
  8 33  1  0  0  0  0
  9 10  2  0  0  0  0
  9 11  1  0  0  0  0
  9 15  1  0  0  0  0
 10 13  1  0  0  0  0
 11 14  2  0  0  0  0
 11 17  1  0  0  0  0
 12 13  2  0  0  0  0
 12 14  1  0  0  0  0
 12 16  1  0  0  0  0
 15 18  1  0  0  0  0
 16 20  1  0  0  0  0
 16 22  2  0  0  0  0
 19 30  1  0  0  0  0
 19 31  1  0  0  0  0
 20 21  2  0  0  0  0
 21 24  1  0  0  0  0
 21 27  1  0  0  0  0
 22 28  1  0  0  0  0
 23 25  1  0  0  0  0
 23 26  2  0  0  0  0
 23 29  1  0  0  0  0
 26 32  1  0  0  0  0
 26 34  1  0  0  0  0
 27 28  2  0  0  0  0
 32 33  2  0  0  0  0
 33 35  1  0  0  0  0
 34 36  1  0  0  0  0
 36 37  1  0  0  0  0
M  END
> <PUBCHEM_COMPOUND_ID_TYPE>
0

> <PUBCHEM_TOTAL_CHARGE>
0

> <PUBCHEM_SUBSTANCE_ID>
310937773

> <PUBCHEM_SUBSTANCE_VERSION>
1

> <PUBCHEM_EXT_DATASOURCE_NAME>
4488

> <PUBCHEM_EXT_DATASOURCE_REGID>
SCHEMBL16115582

> <PUBCHEM_SUBSTANCE_COMMENT>
InChI=1S/C29H32F3N3O2/c1-5-7-20-12-18(4)34-28(37)25(20)16-33-27(36)24-14-21(15-26-23(24)10-11-35(26)17(2)3)19-8-6-9-22(13-19)29(30,31)32/h6,8-9,12-15,17H,5,7,10-11,16H2,1-4H3,(H,33,36)(H,34,37)
InChIKey=XNVJTWIGCJNULD-UHFFFAOYSA-N

> <PUBCHEM_SUBSTANCE_SYNONYM>
SCHEMBL16115582

> <PUBCHEM_XREF_EXT_ID>
SCHEMBL16115582

> <PUBCHEM_EXT_DATASOURCE_URL>
https://www.surechembl.org/

> <PUBCHEM_EXT_SUBSTANCE_URL>
https://www.surechembl.org/chemical/SCHEMBL16115582

> <PUBCHEM_CID_ASSOCIATIONS>
86275081  1

> <PUBCHEM_COORDINATE_TYPE>
1
3

$$$$
