310942021
  -OEChem-07211613022D

 16 15  0     1  0  0  0  0  0999 V2000
    1.4843    0.0000    0.0000 O   0  0  0  0  0  0  0  0  0  0  0  0
   -0.6826    1.2526    0.0000 O   0  0  0  0  0  0  0  0  0  0  0  0
    0.7578    1.2526    0.0000 O   0  0  0  0  0  0  0  0  0  0  0  0
    0.0438    0.0125    0.0000 C   0  0  0  0  0  0  0  0  0  0  0  0
   -0.6826    0.4133    0.0000 C   0  0  3  0  0  0  0  0  0  0  0  0
    0.7703    0.4009    0.0000 C   0  0  0  0  0  0  0  0  0  0  0  0
   -1.3841    0.0125    0.0000 C   0  0  0  0  0  0  0  0  0  0  0  0
   -1.3966   -0.8392    0.0000 C   0  0  0  0  0  0  0  0  0  0  0  0
    0.0564   -0.8267    0.0000 C   0  0  0  0  0  0  0  0  0  0  0  0
   -1.9728    0.2756    0.0000 C   0  0  0  0  0  0  0  0  0  0  0  0
   -2.1106   -1.2526    0.0000 C   0  0  0  0  0  0  0  0  0  0  0  0
    2.1607    0.3883    0.0000 C   0  0  0  0  0  0  0  0  0  0  0  0
   -2.8496   -0.8267    0.0000 C   0  0  0  0  0  0  0  0  0  0  0  0
    2.8496    0.0000    0.0000 C   0  0  0  0  0  0  0  0  0  0  0  0
   -2.8371    0.0000    0.0000 C   0  0  0  0  0  0  0  0  0  0  0  0
   -2.3235    0.3006    0.0000 C   0  0  0  0  0  0  0  0  0  0  0  0
  1  6  1  0  0  0  0
  1 12  1  0  0  0  0
  2  5  1  0  0  0  0
  3  6  2  0  0  0  0
  4  5  1  0  0  0  0
  4  6  1  0  0  0  0
  4  9  2  0  0  0  0
  5  7  1  0  0  0  0
  7  8  1  0  0  0  0
  7 10  2  0  0  0  0
  8 11  2  0  0  0  0
 11 13  1  0  0  0  0
 12 14  1  0  0  0  0
 13 15  2  0  0  0  0
 15 16  1  0  0  0  0
M  END
> <PUBCHEM_COMPOUND_ID_TYPE>
0

> <PUBCHEM_TOTAL_CHARGE>
0

> <PUBCHEM_SUBSTANCE_ID>
310942021

> <PUBCHEM_SUBSTANCE_VERSION>
1

> <PUBCHEM_EXT_DATASOURCE_NAME>
4488

> <PUBCHEM_EXT_DATASOURCE_REGID>
SCHEMBL16120055

> <PUBCHEM_SUBSTANCE_COMMENT>
InChI=1S/C13H18O3/c1-5-7-8-9-10(3)12(14)11(4)13(15)16-6-2/h5,7-9,12,14H,3-4,6H2,1-2H3/b7-5-,9-8-
InChIKey=KJFLIFCJPVUBLG-PJHABFGRSA-N

> <PUBCHEM_SUBSTANCE_SYNONYM>
SCHEMBL16120055

> <PUBCHEM_XREF_EXT_ID>
SCHEMBL16120055

> <PUBCHEM_EXT_DATASOURCE_URL>
https://www.surechembl.org/

> <PUBCHEM_EXT_SUBSTANCE_URL>
https://www.surechembl.org/chemical/SCHEMBL16120055

> <PUBCHEM_CID_ASSOCIATIONS>
117608710  1

> <PUBCHEM_COORDINATE_TYPE>
1
3

$$$$
