310940833
  -OEChem-07211613022D

 43 47  0     1  0  0  0  0  0999 V2000
    5.2094   -1.0229    0.0000 O   0  0  0  0  0  0  0  0  0  0  0  0
    4.0696    0.9498    0.0000 O   0  0  0  0  0  0  0  0  0  0  0  0
    1.6878   -1.0082    0.0000 O   0  0  0  0  0  0  0  0  0  0  0  0
   -0.4749    1.0667    0.0000 O   0  0  0  0  0  0  0  0  0  0  0  0
   -2.6376   -1.0082    0.0000 O   0  0  0  0  0  0  0  0  0  0  0  0
    3.8505    2.7326    0.0000 O   0  0  0  0  0  0  0  0  0  0  0  0
   -5.5162   -1.0082    0.0000 O   0  0  0  0  0  0  0  0  0  0  0  0
    2.4184    0.2338    0.0000 N   0  0  0  0  0  0  0  0  0  0  0  0
    0.2557   -0.1754    0.0000 N   0  0  0  0  0  0  0  0  0  0  0  0
   -1.9069    0.2338    0.0000 N   0  0  0  0  0  0  0  0  0  0  0  0
   -4.0696   -0.1754    0.0000 N   0  0  0  0  0  0  0  0  0  0  0  0
    4.8002   -0.2923    0.0000 C   0  0  3  0  0  0  0  0  0  0  0  0
    4.0696    0.1315    0.0000 C   0  0  0  0  0  0  0  0  0  0  0  0
    4.4057   -0.9937    0.0000 C   0  0  0  0  0  0  0  0  0  0  0  0
    3.3828   -0.2776    0.0000 C   0  0  3  0  0  0  0  0  0  0  0  0
    5.5163    0.1461    0.0000 C   0  0  0  0  0  0  0  0  0  0  0  0
    1.7170   -0.1169    0.0000 C   0  0  0  0  0  0  0  0  0  0  0  0
    3.3682   -1.3444    0.0000 C   0  0  0  0  0  0  0  0  0  0  0  0
   -1.1617   -0.1461    0.0000 C   0  0  3  0  0  0  0  0  0  0  0  0
   -1.1764   -0.9937    0.0000 C   0  0  0  0  0  0  0  0  0  0  0  0
    0.9863    0.2630    0.0000 C   0  0  3  0  0  0  0  0  0  0  0  0
   -0.4749    0.2484    0.0000 C   0  0  0  0  0  0  0  0  0  0  0  0
    2.6376   -1.7681    0.0000 C   0  0  0  0  0  0  0  0  0  0  0  0
   -1.5709   -1.6804    0.0000 C   0  0  0  0  0  0  0  0  0  0  0  0
   -0.7818   -1.6804    0.0000 C   0  0  0  0  0  0  0  0  0  0  0  0
    1.0010    1.1106    0.0000 C   0  0  0  0  0  0  0  0  0  0  0  0
    1.6878    1.5197    0.0000 C   0  0  0  0  0  0  0  0  0  0  0  0
   -2.6083   -0.1169    0.0000 C   0  0  0  0  0  0  0  0  0  0  0  0
    1.8778   -1.4466    0.0000 C   0  0  0  0  0  0  0  0  0  0  0  0
    2.5499   -2.5864    0.0000 C   0  0  0  0  0  0  0  0  0  0  0  0
    2.4184    1.1106    0.0000 C   0  0  0  0  0  0  0  0  0  0  0  0
    1.7170    2.3526    0.0000 C   0  0  0  0  0  0  0  0  0  0  0  0
   -3.3536    0.2630    0.0000 C   0  0  0  0  0  0  0  0  0  0  0  0
    1.3371   -2.0458    0.0000 C   0  0  0  0  0  0  0  0  0  0  0  0
    1.7316   -2.7472    0.0000 C   0  0  0  0  0  0  0  0  0  0  0  0
    3.1490    2.3526    0.0000 C   0  0  0  0  0  0  0  0  0  0  0  0
    3.1490    1.5197    0.0000 C   0  0  0  0  0  0  0  0  0  0  0  0
    2.4037    2.7472    0.0000 C   0  0  0  0  0  0  0  0  0  0  0  0
   -4.0696   -0.9790    0.0000 C   0  0  0  0  0  0  0  0  0  0  0  0
   -4.8002    0.2630    0.0000 C   0  0  0  0  0  0  0  0  0  0  0  0
   -4.7710   -1.3882    0.0000 C   0  0  0  0  0  0  0  0  0  0  0  0
   -5.4870   -0.1315    0.0000 C   0  0  0  0  0  0  0  0  0  0  0  0
    4.5957    2.3380    0.0000 C   0  0  0  0  0  0  0  0  0  0  0  0
  1 12  1  0  0  0  0
  1 14  1  0  0  0  0
  2 13  2  0  0  0  0
  3 17  2  0  0  0  0
  4 22  2  0  0  0  0
  5 28  2  0  0  0  0
  6 36  1  0  0  0  0
  6 43  1  0  0  0  0
  7 41  1  0  0  0  0
  7 42  1  0  0  0  0
  8 15  1  0  0  0  0
  8 17  1  0  0  0  0
  9 21  1  0  0  0  0
  9 22  1  0  0  0  0
 10 19  1  0  0  0  0
 10 28  1  0  0  0  0
 11 33  1  0  0  0  0
 11 39  1  0  0  0  0
 11 40  1  0  0  0  0
 12 13  1  0  0  0  0
 12 14  1  0  0  0  0
 12 16  1  0  0  0  0
 13 15  1  0  0  0  0
 15 18  1  0  0  0  0
 17 21  1  0  0  0  0
 18 23  1  0  0  0  0
 19 20  1  0  0  0  0
 19 22  1  0  0  0  0
 20 24  1  0  0  0  0
 20 25  1  0  0  0  0
 21 26  1  0  0  0  0
 23 29  1  0  0  0  0
 23 30  1  0  0  0  0
 24 25  1  0  0  0  0
 26 27  1  0  0  0  0
 27 31  2  0  0  0  0
 27 32  1  0  0  0  0
 28 33  1  0  0  0  0
 29 34  1  0  0  0  0
 30 35  1  0  0  0  0
 31 37  1  0  0  0  0
 32 38  2  0  0  0  0
 34 35  1  0  0  0  0
 36 37  2  0  0  0  0
 36 38  1  0  0  0  0
 39 41  1  0  0  0  0
 40 42  1  0  0  0  0
M  END
> <PUBCHEM_COMPOUND_ID_TYPE>
0

> <PUBCHEM_TOTAL_CHARGE>
0

> <PUBCHEM_SUBSTANCE_ID>
310940833

> <PUBCHEM_SUBSTANCE_VERSION>
1

> <PUBCHEM_EXT_DATASOURCE_NAME>
4488

> <PUBCHEM_EXT_DATASOURCE_REGID>
SCHEMBL16118792

> <PUBCHEM_SUBSTANCE_COMMENT>
InChI=1S/C32H46N4O7/c1-32(20-43-32)29(38)25(17-21-5-3-4-6-21)33-30(39)26(18-22-7-11-24(41-2)12-8-22)34-31(40)28(23-9-10-23)35-27(37)19-36-13-15-42-16-14-36/h7-8,11-12,21,23,25-26,28H,3-6,9-10,13-20H2,1-2H3,(H,33,39)(H,34,40)(H,35,37)
InChIKey=VLUISHXXWKLRMS-UHFFFAOYSA-N

> <PUBCHEM_SUBSTANCE_SYNONYM>
SCHEMBL16118792

> <PUBCHEM_XREF_EXT_ID>
SCHEMBL16118792

> <PUBCHEM_EXT_DATASOURCE_URL>
https://www.surechembl.org/

> <PUBCHEM_EXT_SUBSTANCE_URL>
https://www.surechembl.org/chemical/SCHEMBL16118792

> <PUBCHEM_CID_ASSOCIATIONS>
86296342  1

> <PUBCHEM_COORDINATE_TYPE>
1
3

$$$$
