310930810
  -OEChem-07211613022D

 24 26  0     1  0  0  0  0  0999 V2000
    1.5395    2.0625    0.0000 O   0  0  0  0  0  0  0  0  0  0  0  0
    2.2540    1.6500    0.0000 N   0  0  0  0  0  0  0  0  0  0  0  0
    1.6500   -1.4290    0.0000 N   0  0  0  0  0  0  0  0  0  0  0  0
    0.8250    0.8250    0.0000 C   0  0  3  0  0  0  0  0  0  0  0  0
    0.1106    0.4125    0.0000 C   0  0  0  0  0  0  0  0  0  0  0  0
    0.8250    0.0000    0.0000 C   0  0  3  0  0  0  0  0  0  0  0  0
    0.8250    1.6500    0.0000 C   0  0  0  0  0  0  0  0  0  0  0  0
   -0.3020   -0.3020    0.0000 C   0  0  0  0  0  0  0  0  0  0  0  0
   -0.3020    1.1270    0.0000 C   0  0  0  0  0  0  0  0  0  0  0  0
    1.5395    1.2375    0.0000 C   0  0  0  0  0  0  0  0  0  0  0  0
    1.2375   -0.7145    0.0000 C   0  0  0  0  0  0  0  0  0  0  0  0
    0.1106    2.0625    0.0000 C   0  0  0  0  0  0  0  0  0  0  0  0
   -1.1270   -0.3020    0.0000 C   0  0  0  0  0  0  0  0  0  0  0  0
   -1.1270    1.1270    0.0000 C   0  0  0  0  0  0  0  0  0  0  0  0
   -1.5395    0.4125    0.0000 C   0  0  0  0  0  0  0  0  0  0  0  0
   -2.3645    0.4125    0.0000 C   0  0  0  0  0  0  0  0  0  0  0  0
    0.1106    2.8876    0.0000 C   0  0  0  0  0  0  0  0  0  0  0  0
   -0.6040    1.6500    0.0000 C   0  0  0  0  0  0  0  0  0  0  0  0
   -0.6040    3.3001    0.0000 C   0  0  0  0  0  0  0  0  0  0  0  0
   -1.3184    2.0625    0.0000 C   0  0  0  0  0  0  0  0  0  0  0  0
   -3.1895    0.4125    0.0000 C   0  0  0  0  0  0  0  0  0  0  0  0
   -2.7770    1.1270    0.0000 C   0  0  0  0  0  0  0  0  0  0  0  0
   -2.7770   -0.3020    0.0000 C   0  0  0  0  0  0  0  0  0  0  0  0
   -1.3184    2.8876    0.0000 C   0  0  0  0  0  0  0  0  0  0  0  0
  1  7  2  0  0  0  0
  2 10  3  0  0  0  0
  3 11  3  0  0  0  0
  4  5  1  0  0  0  0
  4  6  1  0  0  0  0
  4  7  1  1  0  0  0
  4 10  1  6  0  0  0
  5  6  1  0  0  0  0
  5  8  1  1  0  0  0
  5  9  1  0  0  0  0
  6 11  1  6  0  0  0
  7 12  1  0  0  0  0
  8 13  1  0  0  0  0
  9 14  1  0  0  0  0
 12 17  2  0  0  0  0
 12 18  1  0  0  0  0
 13 15  1  0  0  0  0
 14 15  1  0  0  0  0
 15 16  1  6  0  0  0
 16 21  1  0  0  0  0
 16 22  1  0  0  0  0
 16 23  1  0  0  0  0
 17 19  1  0  0  0  0
 18 20  2  0  0  0  0
 19 24  2  0  0  0  0
 20 24  1  0  0  0  0
M  END
> <PUBCHEM_COMPOUND_ID_TYPE>
0

> <PUBCHEM_TOTAL_CHARGE>
0

> <PUBCHEM_SUBSTANCE_ID>
310930810

> <PUBCHEM_SUBSTANCE_VERSION>
1

> <PUBCHEM_EXT_DATASOURCE_NAME>
4488

> <PUBCHEM_EXT_DATASOURCE_REGID>
SCHEMBL16108107

> <PUBCHEM_SUBSTANCE_COMMENT>
InChI=1S/C21H24N2O/c1-19(2,3)16-9-11-20(12-10-16)17(13-22)21(20,14-23)18(24)15-7-5-4-6-8-15/h4-8,16-17H,9-12H2,1-3H3/t16-,17-,20-,21-/m1/s1
InChIKey=KUARLEDXBILAQF-DEPWHIHDSA-N

> <PUBCHEM_SUBSTANCE_SYNONYM>
SCHEMBL16108107

> <PUBCHEM_XREF_EXT_ID>
SCHEMBL16108107

> <PUBCHEM_EXT_DATASOURCE_URL>
https://www.surechembl.org/

> <PUBCHEM_EXT_SUBSTANCE_URL>
https://www.surechembl.org/chemical/SCHEMBL16108107

> <PUBCHEM_CID_ASSOCIATIONS>
722262  1

> <PUBCHEM_COORDINATE_TYPE>
1
3

> <PUBCHEM_BONDANNOTATIONS>
15  16  6
4  10  6
4  7  5
5  8  5
6  11  6

$$$$
