310941934
  -OEChem-07211613022D

 15 15  0     1  0  0  0  0  0999 V2000
   -0.0062    0.4179    0.0000 O   0  0  0  0  0  0  0  0  0  0  0  0
   -0.7299    1.6657    0.0000 O   0  0  0  0  0  0  0  0  0  0  0  0
   -0.7299   -1.6657    0.0000 O   0  0  0  0  0  0  0  0  0  0  0  0
    2.8760    0.4179    0.0000 O   0  0  0  0  0  0  0  0  0  0  0  0
   -1.4286   -0.4055    0.0000 N   0  0  0  0  0  0  0  0  0  0  0  0
   -1.4286    0.4305    0.0000 C   0  0  3  0  0  0  0  0  0  0  0  0
   -0.7174    0.8298    0.0000 C   0  0  0  0  0  0  0  0  0  0  0  0
   -2.1523    0.8298    0.0000 C   0  0  0  0  0  0  0  0  0  0  0  0
   -2.8760   -0.4055    0.0000 C   0  0  0  0  0  0  0  0  0  0  0  0
   -0.7049   -0.8048    0.0000 C   0  0  0  0  0  0  0  0  0  0  0  0
   -2.8635    0.4179    0.0000 C   0  0  0  0  0  0  0  0  0  0  0  0
    0.7299    0.8298    0.0000 C   0  0  0  0  0  0  0  0  0  0  0  0
   -0.1185   -0.5053    0.0000 C   0  0  0  0  0  0  0  0  0  0  0  0
    1.4536    0.4179    0.0000 C   0  0  0  0  0  0  0  0  0  0  0  0
    2.1773    0.8422    0.0000 C   0  0  0  0  0  0  0  0  0  0  0  0
  1  7  1  0  0  0  0
  1 12  1  0  0  0  0
  2  7  2  0  0  0  0
  3 10  2  0  0  0  0
  4 15  1  0  0  0  0
  5  6  1  0  0  0  0
  5  9  1  0  0  0  0
  5 10  1  0  0  0  0
  6  7  1  0  0  0  0
  6  8  1  0  0  0  0
  8 11  1  0  0  0  0
  9 11  1  0  0  0  0
 10 13  1  0  0  0  0
 12 14  1  0  0  0  0
 14 15  1  0  0  0  0
M  END
> <PUBCHEM_COMPOUND_ID_TYPE>
0

> <PUBCHEM_TOTAL_CHARGE>
0

> <PUBCHEM_SUBSTANCE_ID>
310941934

> <PUBCHEM_SUBSTANCE_VERSION>
1

> <PUBCHEM_EXT_DATASOURCE_NAME>
4488

> <PUBCHEM_EXT_DATASOURCE_REGID>
SCHEMBL16119967

> <PUBCHEM_SUBSTANCE_COMMENT>
InChI=1S/C10H17NO4/c1-8(13)11-5-2-4-9(11)10(14)15-7-3-6-12/h9,12H,2-7H2,1H3
InChIKey=WERLESSDKNAUAJ-UHFFFAOYSA-N

> <PUBCHEM_SUBSTANCE_SYNONYM>
SCHEMBL16119967

> <PUBCHEM_XREF_EXT_ID>
SCHEMBL16119967

> <PUBCHEM_EXT_DATASOURCE_URL>
https://www.surechembl.org/

> <PUBCHEM_EXT_SUBSTANCE_URL>
https://www.surechembl.org/chemical/SCHEMBL16119967

> <PUBCHEM_CID_ASSOCIATIONS>
117608658  1

> <PUBCHEM_COORDINATE_TYPE>
1
3

$$$$
