310930867
  -OEChem-07211613022D

 31 35  0     1  0  0  0  0  0999 V2000
    0.7742   -2.7706    0.0000 O   0  0  0  0  0  0  0  0  0  0  0  0
    2.2410    0.0000    0.0000 O   0  0  0  0  0  0  0  0  0  0  0  0
    2.2410   -2.5262    0.0000 N   0  0  0  0  0  0  0  0  0  0  0  0
    2.6484   -3.8300    0.0000 N   0  0  0  0  0  0  0  0  0  0  0  0
    3.7078   -2.7706    0.0000 N   0  0  0  0  0  0  0  0  0  0  0  0
    1.5483   -8.1489    0.0000 N   0  0  0  0  0  0  0  0  0  0  0  0
    1.7928   -3.8300    0.0000 C   0  0  3  0  0  0  0  0  0  0  0  0
    1.5483   -3.0151    0.0000 C   0  0  0  0  0  0  0  0  0  0  0  0
    2.2002   -4.5634    0.0000 C   0  0  0  0  0  0  0  0  0  0  0  0
    1.3038   -4.4819    0.0000 C   0  0  0  0  0  0  0  0  0  0  0  0
    2.8929   -3.0151    0.0000 C   0  0  0  0  0  0  0  0  0  0  0  0
    2.2410   -1.7113    0.0000 C   0  0  0  0  0  0  0  0  0  0  0  0
    1.7520   -5.2561    0.0000 C   0  0  0  0  0  0  0  0  0  0  0  0
    3.0151   -4.6042    0.0000 C   0  0  0  0  0  0  0  0  0  0  0  0
    1.6298   -5.2561    0.0000 C   0  0  0  0  0  0  0  0  0  0  0  0
    0.4889   -4.4412    0.0000 C   0  0  0  0  0  0  0  0  0  0  0  0
    2.1187   -5.9895    0.0000 C   0  0  0  0  0  0  0  0  0  0  0  0
    2.9336   -1.2631    0.0000 C   0  0  0  0  0  0  0  0  0  0  0  0
    1.5076   -1.2631    0.0000 C   0  0  0  0  0  0  0  0  0  0  0  0
    3.3818   -5.3783    0.0000 C   0  0  0  0  0  0  0  0  0  0  0  0
    2.9336   -6.0710    0.0000 C   0  0  0  0  0  0  0  0  0  0  0  0
    1.6298   -6.7229    0.0000 C   0  0  0  0  0  0  0  0  0  0  0  0
    1.1408   -5.9487    0.0000 C   0  0  0  0  0  0  0  0  0  0  0  0
    0.0000   -5.0931    0.0000 C   0  0  0  0  0  0  0  0  0  0  0  0
    0.3260   -5.8672    0.0000 C   0  0  0  0  0  0  0  0  0  0  0  0
    2.9336   -0.4482    0.0000 C   0  0  0  0  0  0  0  0  0  0  0  0
    1.5076   -0.4482    0.0000 C   0  0  0  0  0  0  0  0  0  0  0  0
    1.9965   -7.4563    0.0000 C   0  0  0  0  0  0  0  0  0  0  0  0
    0.8149   -6.6821    0.0000 C   0  0  0  0  0  0  0  0  0  0  0  0
    0.3667   -7.3748    0.0000 C   0  0  0  0  0  0  0  0  0  0  0  0
    0.7334   -8.1082    0.0000 C   0  0  0  0  0  0  0  0  0  0  0  0
  1  8  2  0  0  0  0
  2 26  1  0  0  0  0
  2 27  1  0  0  0  0
  3  8  1  0  0  0  0
  3 11  1  0  0  0  0
  3 12  1  0  0  0  0
  4  7  1  0  0  0  0
  4 11  1  0  0  0  0
  5 11  2  3  0  0  0
  6 28  1  0  0  0  0
  6 31  2  0  0  0  0
  7  8  1  0  0  0  0
  7  9  1  0  0  0  0
  7 10  1  0  0  0  0
  9 13  1  0  0  0  0
  9 14  2  0  0  0  0
 10 15  1  0  0  0  0
 10 16  1  0  0  0  0
 12 18  1  0  0  0  0
 12 19  1  0  0  0  0
 13 17  2  0  0  0  0
 14 20  1  0  0  0  0
 15 23  1  0  0  0  0
 16 24  1  0  0  0  0
 17 21  1  0  0  0  0
 17 22  1  0  0  0  0
 18 26  1  0  0  0  0
 19 27  1  0  0  0  0
 20 21  2  0  0  0  0
 22 28  2  0  0  0  0
 22 29  1  0  0  0  0
 23 25  1  0  0  0  0
 24 25  1  0  0  0  0
 29 30  2  0  0  0  0
 30 31  1  0  0  0  0
M  END
> <PUBCHEM_COMPOUND_ID_TYPE>
0

> <PUBCHEM_TOTAL_CHARGE>
0

> <PUBCHEM_SUBSTANCE_ID>
310930867

> <PUBCHEM_SUBSTANCE_VERSION>
1

> <PUBCHEM_EXT_DATASOURCE_NAME>
4488

> <PUBCHEM_EXT_DATASOURCE_REGID>
SCHEMBL16108165

> <PUBCHEM_SUBSTANCE_COMMENT>
InChI=1S/C25H30N4O2/c26-24-28-25(20-8-2-1-3-9-20,23(30)29(24)22-11-14-31-15-12-22)21-10-4-6-18(16-21)19-7-5-13-27-17-19/h4-7,10,13,16-17,20,22H,1-3,8-9,11-12,14-15H2,(H2,26,28)
InChIKey=HEYINMYLERBOCR-UHFFFAOYSA-N

> <PUBCHEM_SUBSTANCE_SYNONYM>
SCHEMBL16108165

> <PUBCHEM_XREF_EXT_ID>
SCHEMBL16108165

> <PUBCHEM_EXT_DATASOURCE_URL>
https://www.surechembl.org/

> <PUBCHEM_EXT_SUBSTANCE_URL>
https://www.surechembl.org/chemical/SCHEMBL16108165

> <PUBCHEM_CID_ASSOCIATIONS>
117599848  1

> <PUBCHEM_COORDINATE_TYPE>
1
3

$$$$
