310936920
  -OEChem-07211613022D

 31 33  0     1  0  0  0  0  0999 V2000
   -2.1434    1.2375    0.0000 S   0  0  0  0  0  0  0  0  0  0  0  0
    3.6020    1.9520    0.0000 S   0  0  0  0  0  0  0  0  0  0  0  0
    0.7145    1.2375    0.0000 P   0  0  3  0  0  0  0  0  0  0  0  0
    1.1270    0.5231    0.0000 O   0  0  0  0  0  0  0  0  0  0  0  0
    1.4290    1.6500    0.0000 O   0  0  0  0  0  0  0  0  0  0  0  0
   -1.7309    1.9520    0.0000 O   0  0  0  0  0  0  0  0  0  0  0  0
   -2.5559    0.5231    0.0000 O   0  0  0  0  0  0  0  0  0  0  0  0
   -2.8579    1.6500    0.0000 O   0  0  0  0  0  0  0  0  0  0  0  0
    4.3165    1.5395    0.0000 O   0  0  0  0  0  0  0  0  0  0  0  0
    2.8875    2.3645    0.0000 O   0  0  0  0  0  0  0  0  0  0  0  0
    4.0145    2.6665    0.0000 O   0  0  0  0  0  0  0  0  0  0  0  0
    0.0000    0.8250    0.0000 C   0  0  0  0  0  0  0  0  0  0  0  0
    0.3020    1.9520    0.0000 C   0  0  0  0  0  0  0  0  0  0  0  0
    0.0000    0.0000    0.0000 C   0  0  0  0  0  0  0  0  0  0  0  0
    1.9520    0.5231    0.0000 C   0  0  0  0  0  0  0  0  0  0  0  0
   -0.7145    1.2375    0.0000 C   0  0  0  0  0  0  0  0  0  0  0  0
   -1.4290    0.8250    0.0000 C   0  0  0  0  0  0  0  0  0  0  0  0
    2.3645   -0.1915    0.0000 C   0  0  0  0  0  0  0  0  0  0  0  0
    3.1895    1.2375    0.0000 C   0  0  0  0  0  0  0  0  0  0  0  0
    2.3645    1.2375    0.0000 C   0  0  0  0  0  0  0  0  0  0  0  0
   -0.7145   -0.4125    0.0000 C   0  0  0  0  0  0  0  0  0  0  0  0
   -1.4290    0.0000    0.0000 C   0  0  0  0  0  0  0  0  0  0  0  0
   -0.5231    1.9520    0.0000 C   0  0  0  0  0  0  0  0  0  0  0  0
    0.7145    2.6665    0.0000 C   0  0  0  0  0  0  0  0  0  0  0  0
    3.1895   -0.1915    0.0000 C   0  0  0  0  0  0  0  0  0  0  0  0
    3.6020    0.5231    0.0000 C   0  0  0  0  0  0  0  0  0  0  0  0
    0.7145   -0.4125    0.0000 C   0  0  0  0  0  0  0  0  0  0  0  0
   -0.9356    2.6665    0.0000 C   0  0  0  0  0  0  0  0  0  0  0  0
    0.3020    3.3809    0.0000 C   0  0  0  0  0  0  0  0  0  0  0  0
   -0.5231    3.3809    0.0000 C   0  0  0  0  0  0  0  0  0  0  0  0
    1.9520   -0.9059    0.0000 C   0  0  0  0  0  0  0  0  0  0  0  0
  1  6  2  0  0  0  0
  1  7  2  0  0  0  0
  1  8  1  0  0  0  0
  1 17  1  0  0  0  0
  2  9  2  0  0  0  0
  2 10  2  0  0  0  0
  2 11  1  0  0  0  0
  2 19  1  0  0  0  0
  3  4  1  0  0  0  0
  3  5  2  0  0  0  0
  3 12  1  0  0  0  0
  3 13  1  0  0  0  0
  4 15  1  0  0  0  0
 12 14  2  0  0  0  0
 12 16  1  0  0  0  0
 13 23  2  0  0  0  0
 13 24  1  0  0  0  0
 14 21  1  0  0  0  0
 14 27  1  0  0  0  0
 15 18  2  0  0  0  0
 15 20  1  0  0  0  0
 16 17  2  0  0  0  0
 17 22  1  0  0  0  0
 18 25  1  0  0  0  0
 18 31  1  0  0  0  0
 19 20  2  0  0  0  0
 19 26  1  0  0  0  0
 21 22  2  0  0  0  0
 23 28  1  0  0  0  0
 24 29  2  0  0  0  0
 25 26  2  0  0  0  0
 28 30  2  0  0  0  0
 29 30  1  0  0  0  0
M  END
> <PUBCHEM_COMPOUND_ID_TYPE>
0

> <PUBCHEM_TOTAL_CHARGE>
0

> <PUBCHEM_SUBSTANCE_ID>
310936920

> <PUBCHEM_SUBSTANCE_VERSION>
1

> <PUBCHEM_EXT_DATASOURCE_NAME>
4488

> <PUBCHEM_EXT_DATASOURCE_REGID>
SCHEMBL16114621

> <PUBCHEM_SUBSTANCE_COMMENT>
InChI=1S/C20H19O8PS2/c1-14-8-10-17(30(22,23)24)12-19(14)28-29(21,16-6-4-3-5-7-16)20-13-18(31(25,26)27)11-9-15(20)2/h3-13H,1-2H3,(H,22,23,24)(H,25,26,27)
InChIKey=XRDSNGHCBHKDIM-UHFFFAOYSA-N

> <PUBCHEM_SUBSTANCE_SYNONYM>
SCHEMBL16114621

> <PUBCHEM_XREF_EXT_ID>
SCHEMBL16114621

> <PUBCHEM_EXT_DATASOURCE_URL>
https://www.surechembl.org/

> <PUBCHEM_EXT_SUBSTANCE_URL>
https://www.surechembl.org/chemical/SCHEMBL16114621

> <PUBCHEM_CID_ASSOCIATIONS>
117604722  1

> <PUBCHEM_COORDINATE_TYPE>
1
3

$$$$
