310947200
  -OEChem-07211613022D

 30 29  0     1  0  0  0  0  0999 V2000
   -7.1447    4.5780    0.0000 O   0  0  0  0  0  0  0  0  0  0  0  0
   -7.8592    3.3405    0.0000 O   0  0  0  0  0  0  0  0  0  0  0  0
    7.1447    1.2780    0.0000 O   0  0  0  0  0  0  0  0  0  0  0  0
    7.8592    2.5155    0.0000 O   0  0  0  0  0  0  0  0  0  0  0  0
   -0.7145    3.3405    0.0000 C   0  0  3  0  0  0  0  0  0  0  0  0
   -0.7145    2.5155    0.0000 C   0  0  0  0  0  0  0  0  0  0  0  0
   -1.4289    3.7530    0.0000 C   0  0  0  0  0  0  0  0  0  0  0  0
    0.0000    3.7530    0.0000 C   0  0  0  0  0  0  0  0  0  0  0  0
    0.0000    2.1030    0.0000 C   0  0  0  0  0  0  0  0  0  0  0  0
   -2.1434    3.3405    0.0000 C   0  0  0  0  0  0  0  0  0  0  0  0
   -1.4289    2.1030    0.0000 C   0  0  0  0  0  0  0  0  0  0  0  0
    0.7145    2.5155    0.0000 C   0  0  0  0  0  0  0  0  0  0  0  0
    0.7145    3.3405    0.0000 C   0  0  0  0  0  0  0  0  0  0  0  0
   -2.8579    3.7530    0.0000 C   0  0  0  0  0  0  0  0  0  0  0  0
    1.4289    2.1030    0.0000 C   0  0  0  0  0  0  0  0  0  0  0  0
   -3.5724    3.3405    0.0000 C   0  0  0  0  0  0  0  0  0  0  0  0
    2.1434    2.5155    0.0000 C   0  0  0  0  0  0  0  0  0  0  0  0
   -4.2868    3.7530    0.0000 C   0  0  0  0  0  0  0  0  0  0  0  0
    2.8579    2.1030    0.0000 C   0  0  0  0  0  0  0  0  0  0  0  0
    1.4289    3.7530    0.0000 C   0  0  0  0  0  0  0  0  0  0  0  0
   -5.0013    3.3405    0.0000 C   0  0  0  0  0  0  0  0  0  0  0  0
    3.5724    2.5155    0.0000 C   0  0  0  0  0  0  0  0  0  0  0  0
   -5.7158    3.7530    0.0000 C   0  0  0  0  0  0  0  0  0  0  0  0
   -6.4302    3.3405    0.0000 C   0  0  0  0  0  0  0  0  0  0  0  0
   -7.1447    3.7530    0.0000 C   0  0  0  0  0  0  0  0  0  0  0  0
    4.2868    2.1030    0.0000 C   0  0  0  0  0  0  0  0  0  0  0  0
    7.1447    2.1030    0.0000 C   0  0  0  0  0  0  0  0  0  0  0  0
    5.0013    2.5155    0.0000 C   0  0  0  0  0  0  0  0  0  0  0  0
    6.4302    2.5155    0.0000 C   0  0  0  0  0  0  0  0  0  0  0  0
    5.7158    2.1030    0.0000 C   0  0  0  0  0  0  0  0  0  0  0  0
  1 25  2  0  0  0  0
  2 25  1  0  0  0  0
  3 27  2  0  0  0  0
  4 27  1  0  0  0  0
  5  6  1  0  0  0  0
  5  7  1  0  0  0  0
  5  8  1  0  0  0  0
  6  9  2  0  0  0  0
  6 11  1  0  0  0  0
  7 10  1  0  0  0  0
  8 13  1  0  0  0  0
  9 12  1  0  0  0  0
 10 14  1  0  0  0  0
 12 15  2  0  0  0  0
 13 20  2  0  0  0  0
 14 16  1  0  0  0  0
 15 17  1  0  0  0  0
 16 18  1  0  0  0  0
 17 19  1  0  0  0  0
 18 21  1  0  0  0  0
 19 22  1  0  0  0  0
 21 23  1  0  0  0  0
 22 26  1  0  0  0  0
 23 24  1  0  0  0  0
 24 25  1  0  0  0  0
 26 28  1  0  0  0  0
 27 29  1  0  0  0  0
 28 30  1  0  0  0  0
 29 30  1  0  0  0  0
M  END
> <PUBCHEM_COMPOUND_ID_TYPE>
0

> <PUBCHEM_TOTAL_CHARGE>
0

> <PUBCHEM_SUBSTANCE_ID>
310947200

> <PUBCHEM_SUBSTANCE_VERSION>
1

> <PUBCHEM_EXT_DATASOURCE_NAME>
4488

> <PUBCHEM_EXT_DATASOURCE_REGID>
SCHEMBL16125354

> <PUBCHEM_SUBSTANCE_COMMENT>
InChI=1S/C26H44O4/c1-3-18-24(20-15-11-8-9-13-17-22-26(29)30)23(2)19-14-10-6-4-5-7-12-16-21-25(27)28/h3,10,14,19,24H,1,4-9,11-13,15-18,20-22H2,2H3,(H,27,28)(H,29,30)/b14-10+,23-19-
InChIKey=MYZIHEHWVDFOQA-ASRMSFCXSA-N

> <PUBCHEM_SUBSTANCE_SYNONYM>
SCHEMBL16125354

> <PUBCHEM_XREF_EXT_ID>
SCHEMBL16125354

> <PUBCHEM_EXT_DATASOURCE_URL>
https://www.surechembl.org/

> <PUBCHEM_EXT_SUBSTANCE_URL>
https://www.surechembl.org/chemical/SCHEMBL16125354

> <PUBCHEM_CID_ASSOCIATIONS>
117613023  1

> <PUBCHEM_COORDINATE_TYPE>
1
3

$$$$
