310942629
  -OEChem-07211613022D

 21 21  0     1  0  0  0  0  0999 V2000
   -0.0044    0.4118    0.0000 S   0  0  0  0  0  0  0  0  0  0  0  0
    1.4392    0.4118    0.0000 P   0  0  3  0  0  0  0  0  0  0  0  0
    2.1566    0.0044    0.0000 O   0  0  0  0  0  0  0  0  0  0  0  0
   -0.4295    1.1292    0.0000 O   0  0  0  0  0  0  0  0  0  0  0  0
    0.4030    1.1292    0.0000 O   0  0  0  0  0  0  0  0  0  0  0  0
    1.4303    1.2355    0.0000 O   0  0  0  0  0  0  0  0  0  0  0  0
    2.1566   -0.8192    0.0000 O   0  0  0  0  0  0  0  0  0  0  0  0
   -2.9005   -1.2355    0.0000 O   0  0  0  0  0  0  0  0  0  0  0  0
   -0.7218   -0.0044    0.0000 C   0  0  0  0  0  0  0  0  0  0  0  0
    0.7129    0.0044    0.0000 C   0  0  0  0  0  0  0  0  0  0  0  0
   -0.7307   -0.8192    0.0000 C   0  0  0  0  0  0  0  0  0  0  0  0
   -1.4569    0.4030    0.0000 C   0  0  0  0  0  0  0  0  0  0  0  0
    1.4392   -0.4118    0.0000 C   0  0  0  0  0  0  0  0  0  0  0  0
   -2.1743   -0.8192    0.0000 C   0  0  0  0  0  0  0  0  0  0  0  0
   -1.4569   -1.2266    0.0000 C   0  0  0  0  0  0  0  0  0  0  0  0
   -2.1654   -0.0044    0.0000 C   0  0  0  0  0  0  0  0  0  0  0  0
    2.8739    0.4118    0.0000 C   0  0  0  0  0  0  0  0  0  0  0  0
    2.8739   -0.4118    0.0000 C   0  0  0  0  0  0  0  0  0  0  0  0
    3.6179    0.0044    0.0000 C   0  0  0  0  0  0  0  0  0  0  0  0
   -3.6179   -0.8192    0.0000 C   0  0  0  0  0  0  0  0  0  0  0  0
    3.6179   -0.8192    0.0000 C   0  0  0  0  0  0  0  0  0  0  0  0
  1  4  2  0  0  0  0
  1  5  2  0  0  0  0
  1  9  1  0  0  0  0
  1 10  1  0  0  0  0
  2  3  1  0  0  0  0
  2  6  2  0  0  0  0
  2 10  1  0  0  0  0
  2 13  1  0  0  0  0
  3 17  1  0  0  0  0
  7 13  1  0  0  0  0
  7 18  1  0  0  0  0
  8 14  1  0  0  0  0
  8 20  1  0  0  0  0
  9 11  2  0  0  0  0
  9 12  1  0  0  0  0
 11 15  1  0  0  0  0
 12 16  2  0  0  0  0
 14 15  2  0  0  0  0
 14 16  1  0  0  0  0
 17 19  1  0  0  0  0
 18 21  1  0  0  0  0
M  END
> <PUBCHEM_COMPOUND_ID_TYPE>
0

> <PUBCHEM_TOTAL_CHARGE>
0

> <PUBCHEM_SUBSTANCE_ID>
310942629

> <PUBCHEM_SUBSTANCE_VERSION>
1

> <PUBCHEM_EXT_DATASOURCE_NAME>
4488

> <PUBCHEM_EXT_DATASOURCE_REGID>
SCHEMBL16120675

> <PUBCHEM_SUBSTANCE_COMMENT>
InChI=1S/C13H21O6PS/c1-4-18-10-20(14,19-5-2)11-21(15,16)13-8-6-12(17-3)7-9-13/h6-9H,4-5,10-11H2,1-3H3
InChIKey=ZPHXFXGHGRZGBQ-UHFFFAOYSA-N

> <PUBCHEM_SUBSTANCE_SYNONYM>
SCHEMBL16120675

> <PUBCHEM_XREF_EXT_ID>
SCHEMBL16120675

> <PUBCHEM_EXT_DATASOURCE_URL>
https://www.surechembl.org/

> <PUBCHEM_EXT_SUBSTANCE_URL>
https://www.surechembl.org/chemical/SCHEMBL16120675

> <PUBCHEM_CID_ASSOCIATIONS>
117609161  1

> <PUBCHEM_COORDINATE_TYPE>
1
3

$$$$
