310929314
  -OEChem-07211613022D

 17 18  0     1  0  0  0  0  0999 V2000
    4.2459   -0.4146    0.0000 O   0  0  0  0  0  0  0  0  0  0  0  0
    2.8527   -1.2439    0.0000 N   0  0  0  0  0  0  0  0  0  0  0  0
    1.4264   -0.4146    0.0000 N   0  0  3  0  0  0  0  0  0  0  0  0
    3.5659   -1.6420    0.0000 C   0  0  0  0  0  0  0  0  0  0  0  0
    3.5659   -2.4712    0.0000 C   0  0  0  0  0  0  0  0  0  0  0  0
    4.2625   -1.2439    0.0000 C   0  0  0  0  0  0  0  0  0  0  0  0
    2.1230   -1.6420    0.0000 C   0  0  0  0  0  0  0  0  0  0  0  0
    2.8527   -2.8859    0.0000 C   0  0  0  0  0  0  0  0  0  0  0  0
    2.1230   -2.4712    0.0000 C   0  0  0  0  0  0  0  0  0  0  0  0
    4.2625   -2.8859    0.0000 C   0  0  0  0  0  0  0  0  0  0  0  0
    4.9757   -1.6420    0.0000 C   0  0  0  0  0  0  0  0  0  0  0  0
    1.4264   -1.2439    0.0000 C   0  0  0  0  0  0  0  0  0  0  0  0
    4.9757   -2.4712    0.0000 C   0  0  0  0  0  0  0  0  0  0  0  0
    0.7132    0.0000    0.0000 C   0  0  0  0  0  0  0  0  0  0  0  0
    2.1396    0.0000    0.0000 C   0  0  0  0  0  0  0  0  0  0  0  0
    0.0166   -0.4146    0.0000 C   0  0  0  0  0  0  0  0  0  0  0  0
    0.0000   -1.2439    0.0000 C   0  0  0  0  0  0  0  0  0  0  0  0
  1  6  1  0  0  0  0
  2  4  2  0  0  0  0
  2  7  1  0  0  0  0
  3 12  1  0  0  0  0
  3 14  1  0  0  0  0
  3 15  1  0  0  0  0
  4  5  1  0  0  0  0
  4  6  1  0  0  0  0
  5  8  2  0  0  0  0
  5 10  1  0  0  0  0
  6 11  2  0  0  0  0
  7  9  2  0  0  0  0
  7 12  1  0  0  0  0
  8  9  1  0  0  0  0
 10 13  2  0  0  0  0
 11 13  1  0  0  0  0
 14 16  1  0  0  0  0
 16 17  3  0  0  0  0
M  END
> <PUBCHEM_COMPOUND_ID_TYPE>
0

> <PUBCHEM_TOTAL_CHARGE>
0

> <PUBCHEM_SUBSTANCE_ID>
310929314

> <PUBCHEM_SUBSTANCE_VERSION>
1

> <PUBCHEM_EXT_DATASOURCE_NAME>
4488

> <PUBCHEM_EXT_DATASOURCE_REGID>
SCHEMBL16106480

> <PUBCHEM_SUBSTANCE_COMMENT>
InChI=1S/C14H14N2O/c1-3-9-16(2)10-12-8-7-11-5-4-6-13(17)14(11)15-12/h1,4-8,17H,9-10H2,2H3
InChIKey=ZPLHDDVQGIGJFU-UHFFFAOYSA-N

> <PUBCHEM_SUBSTANCE_SYNONYM>
SCHEMBL16106480

> <PUBCHEM_XREF_EXT_ID>
SCHEMBL16106480

> <PUBCHEM_EXT_DATASOURCE_URL>
https://www.surechembl.org/

> <PUBCHEM_EXT_SUBSTANCE_URL>
https://www.surechembl.org/chemical/SCHEMBL16106480

> <PUBCHEM_CID_ASSOCIATIONS>
117598714  1

> <PUBCHEM_COORDINATE_TYPE>
1
3

$$$$
