310949368
  -OEChem-07211613022D

 28 29  0     1  0  0  0  0  0999 V2000
    3.3512    1.0302    0.0000 F   0  0  0  0  0  0  0  0  0  0  0  0
    3.9470    0.4344    0.0000 F   0  0  0  0  0  0  0  0  0  0  0  0
    3.7236   -0.3600    0.0000 F   0  0  0  0  0  0  0  0  0  0  0  0
    0.3600    0.9681    0.0000 O   0  0  0  0  0  0  0  0  0  0  0  0
    1.6135   -2.4699    0.0000 N   0  0  0  0  0  0  0  0  0  0  0  0
    1.2536   -3.1402    0.0000 N   0  0  0  0  0  0  0  0  0  0  0  0
   -1.0922   -2.0604    0.0000 N   0  0  3  0  0  0  0  0  0  0  0  0
   -3.2519   -1.6384    0.0000 N   0  0  0  0  0  0  0  0  0  0  0  0
    1.3281   -0.9929    0.0000 C   0  0  0  0  0  0  0  0  0  0  0  0
    2.3459    0.0124    0.0000 C   0  0  0  0  0  0  0  0  0  0  0  0
    2.1349   -0.7943    0.0000 C   0  0  0  0  0  0  0  0  0  0  0  0
    1.1046   -1.7998    0.0000 C   0  0  0  0  0  0  0  0  0  0  0  0
    3.1526    0.2235    0.0000 C   0  0  0  0  0  0  0  0  0  0  0  0
    0.3351   -2.0480    0.0000 C   0  0  0  0  0  0  0  0  0  0  0  0
    0.7572   -0.4096    0.0000 C   0  0  0  0  0  0  0  0  0  0  0  0
    0.9681    0.3848    0.0000 C   0  0  0  0  0  0  0  0  0  0  0  0
    1.7625    0.5834    0.0000 C   0  0  0  0  0  0  0  0  0  0  0  0
    0.3351   -2.8795    0.0000 C   0  0  0  0  0  0  0  0  0  0  0  0
    2.7182   -1.3777    0.0000 C   0  0  0  0  0  0  0  0  0  0  0  0
   -0.3848   -1.6508    0.0000 C   0  0  0  0  0  0  0  0  0  0  0  0
    0.5958    1.7625    0.0000 C   0  0  0  0  0  0  0  0  0  0  0  0
   -1.8121   -1.6384    0.0000 C   0  0  0  0  0  0  0  0  0  0  0  0
    0.0124    2.3459    0.0000 C   0  0  0  0  0  0  0  0  0  0  0  0
   -1.0922   -2.8795    0.0000 C   0  0  0  0  0  0  0  0  0  0  0  0
   -2.5320   -2.0604    0.0000 C   0  0  0  0  0  0  0  0  0  0  0  0
   -0.7820    2.1349    0.0000 C   0  0  0  0  0  0  0  0  0  0  0  0
    0.2235    3.1402    0.0000 C   0  0  0  0  0  0  0  0  0  0  0  0
   -3.9470   -2.0604    0.0000 C   0  0  0  0  0  0  0  0  0  0  0  0
  1 13  1  0  0  0  0
  2 13  1  0  0  0  0
  3 13  1  0  0  0  0
  4 16  1  0  0  0  0
  4 21  1  0  0  0  0
  5  6  1  0  0  0  0
  5 12  2  0  0  0  0
  6 18  1  0  0  0  0
  7 20  1  0  0  0  0
  7 22  1  0  0  0  0
  7 24  1  0  0  0  0
  8 25  1  0  0  0  0
  8 28  1  0  0  0  0
  9 11  1  0  0  0  0
  9 12  1  0  0  0  0
  9 15  2  0  0  0  0
 10 11  2  0  0  0  0
 10 13  1  0  0  0  0
 10 17  1  0  0  0  0
 11 19  1  0  0  0  0
 12 14  1  0  0  0  0
 14 18  2  0  0  0  0
 14 20  1  0  0  0  0
 15 16  1  0  0  0  0
 16 17  2  0  0  0  0
 21 23  1  0  0  0  0
 22 25  1  0  0  0  0
 23 26  1  0  0  0  0
 23 27  1  0  0  0  0
M  END
> <PUBCHEM_COMPOUND_ID_TYPE>
0

> <PUBCHEM_TOTAL_CHARGE>
0

> <PUBCHEM_SUBSTANCE_ID>
310949368

> <PUBCHEM_SUBSTANCE_VERSION>
1

> <PUBCHEM_EXT_DATASOURCE_NAME>
4488

> <PUBCHEM_EXT_DATASOURCE_REGID>
SCHEMBL16127560

> <PUBCHEM_SUBSTANCE_COMMENT>
InChI=1S/C20H29F3N4O/c1-13(2)12-28-16-8-17(14(3)18(9-16)20(21,22)23)19-15(10-25-26-19)11-27(5)7-6-24-4/h8-10,13,24H,6-7,11-12H2,1-5H3,(H,25,26)
InChIKey=PBSIFULQQCEGLK-UHFFFAOYSA-N

> <PUBCHEM_SUBSTANCE_SYNONYM>
SCHEMBL16127560

> <PUBCHEM_XREF_EXT_ID>
SCHEMBL16127560

> <PUBCHEM_EXT_DATASOURCE_URL>
https://www.surechembl.org/

> <PUBCHEM_EXT_SUBSTANCE_URL>
https://www.surechembl.org/chemical/SCHEMBL16127560

> <PUBCHEM_CID_ASSOCIATIONS>
85472897  1

> <PUBCHEM_COORDINATE_TYPE>
1
3

$$$$
