310939510
  -OEChem-07211613022D

 20 23  0     1  0  0  0  0  0999 V2000
   -0.6348   -6.9031    0.0000 O   0  0  0  0  0  0  0  0  0  0  0  0
    0.6027   -6.1886    0.0000 O   0  0  0  0  0  0  0  0  0  0  0  0
   -0.6348   -7.7281    0.0000 C   0  0  3  0  0  0  0  0  0  0  0  0
    0.0797   -8.1406    0.0000 C   0  0  3  0  0  0  0  0  0  0  0  0
    0.0797   -8.9656    0.0000 C   0  0  3  0  0  0  0  0  0  0  0  0
   -0.6348   -9.3781    0.0000 C   0  0  3  0  0  0  0  0  0  0  0  0
    0.7942   -7.7281    0.0000 C   0  0  3  0  0  0  0  0  0  0  0  0
    0.7942   -9.3781    0.0000 C   0  0  3  0  0  0  0  0  0  0  0  0
   -0.8483   -8.5250    0.0000 C   0  0  0  0  0  0  0  0  0  0  0  0
   -1.3492   -8.1406    0.0000 C   0  0  0  0  0  0  0  0  0  0  0  0
    0.5806   -8.5250    0.0000 C   0  0  0  0  0  0  0  0  0  0  0  0
   -1.3492   -8.9656    0.0000 C   0  0  0  0  0  0  0  0  0  0  0  0
    1.5086   -8.1406    0.0000 C   0  0  0  0  0  0  0  0  0  0  0  0
    1.5086   -8.9656    0.0000 C   0  0  0  0  0  0  0  0  0  0  0  0
   -0.2223   -6.1886    0.0000 C   0  0  0  0  0  0  0  0  0  0  0  0
   -0.6348   -5.4741    0.0000 C   0  0  0  0  0  0  0  0  0  0  0  0
   -1.3492   -5.0616    0.0000 C   0  0  0  0  0  0  0  0  0  0  0  0
    0.0797   -5.0616    0.0000 C   0  0  0  0  0  0  0  0  0  0  0  0
   -0.4212   -4.6772    0.0000 C   0  0  0  0  0  0  0  0  0  0  0  0
   -2.0637   -5.4741    0.0000 C   0  0  0  0  0  0  0  0  0  0  0  0
  1  3  1  0  0  0  0
  1 15  1  0  0  0  0
  2 15  2  0  0  0  0
  3  4  1  0  0  0  0
  3  9  1  0  0  0  0
  3 10  1  0  0  0  0
  4  5  1  0  0  0  0
  4  7  1  0  0  0  0
  5  6  1  0  0  0  0
  5  8  1  0  0  0  0
  6  9  1  0  0  0  0
  6 12  1  0  0  0  0
  7 11  1  0  0  0  0
  7 13  1  0  0  0  0
  8 11  1  0  0  0  0
  8 14  1  0  0  0  0
 10 12  1  0  0  0  0
 13 14  1  0  0  0  0
 15 16  1  0  0  0  0
 16 17  1  0  0  0  0
 16 18  1  0  0  0  0
 16 19  1  0  0  0  0
 17 20  1  0  0  0  0
M  END
> <PUBCHEM_COMPOUND_ID_TYPE>
0

> <PUBCHEM_TOTAL_CHARGE>
0

> <PUBCHEM_SUBSTANCE_ID>
310939510

> <PUBCHEM_SUBSTANCE_VERSION>
1

> <PUBCHEM_EXT_DATASOURCE_NAME>
4488

> <PUBCHEM_EXT_DATASOURCE_REGID>
SCHEMBL16117439

> <PUBCHEM_SUBSTANCE_COMMENT>
InChI=1S/C18H28O2/c1-4-17(2,3)16(19)20-18-8-7-13(10-18)14-11-5-6-12(9-11)15(14)18/h11-15H,4-10H2,1-3H3
InChIKey=FEHYKZZBAZDCPG-UHFFFAOYSA-N

> <PUBCHEM_SUBSTANCE_SYNONYM>
SCHEMBL16117439

> <PUBCHEM_XREF_EXT_ID>
SCHEMBL16117439

> <PUBCHEM_EXT_DATASOURCE_URL>
https://www.surechembl.org/

> <PUBCHEM_EXT_SUBSTANCE_URL>
https://www.surechembl.org/chemical/SCHEMBL16117439

> <PUBCHEM_CID_ASSOCIATIONS>
117606810  1

> <PUBCHEM_COORDINATE_TYPE>
1
3

$$$$
