310947861
  -OEChem-07211613022D

 27 30  0     1  0  0  0  0  0999 V2000
    1.1592    4.1691    0.0000 F   0  0  0  0  0  0  0  0  0  0  0  0
    2.1988    3.6394    0.0000 F   0  0  0  0  0  0  0  0  0  0  0  0
    2.7285    4.6789    0.0000 F   0  0  0  0  0  0  0  0  0  0  0  0
   -0.4910    1.1672    0.0000 O   0  0  0  0  0  0  0  0  0  0  0  0
    0.2145    4.8952    0.0000 N   0  0  0  0  0  0  0  0  0  0  0  0
    2.2410    5.8217    0.0000 N   0  0  0  0  0  0  0  0  0  0  0  0
   -0.5000    2.8327    0.0000 N   0  0  3  0  0  0  0  0  0  0  0  0
    0.8819    5.3801    0.0000 C   0  0  0  0  0  0  0  0  0  0  0  0
    0.6270    6.1648    0.0000 C   0  0  0  0  0  0  0  0  0  0  0  0
   -0.1980    6.1648    0.0000 C   0  0  0  0  0  0  0  0  0  0  0  0
   -0.4529    5.3801    0.0000 C   0  0  0  0  0  0  0  0  0  0  0  0
    1.6889    5.2086    0.0000 C   0  0  0  0  0  0  0  0  0  0  0  0
    1.9439    4.4240    0.0000 C   0  0  0  0  0  0  0  0  0  0  0  0
    1.1790    6.7779    0.0000 C   0  0  0  0  0  0  0  0  0  0  0  0
   -1.2599    5.2086    0.0000 C   0  0  0  0  0  0  0  0  0  0  0  0
   -0.7500    6.7779    0.0000 C   0  0  0  0  0  0  0  0  0  0  0  0
    0.2145    4.0702    0.0000 C   0  0  0  0  0  0  0  0  0  0  0  0
    1.9860    6.6063    0.0000 C   0  0  0  0  0  0  0  0  0  0  0  0
   -1.8119    5.8217    0.0000 C   0  0  0  0  0  0  0  0  0  0  0  0
   -1.5570    6.6063    0.0000 C   0  0  0  0  0  0  0  0  0  0  0  0
   -0.5000    3.6577    0.0000 C   0  0  0  0  0  0  0  0  0  0  0  0
   -2.6189    5.6502    0.0000 C   0  0  0  0  0  0  0  0  0  0  0  0
    0.2145    2.4202    0.0000 C   0  0  3  0  0  0  0  0  0  0  0  0
   -1.2144    2.4202    0.0000 C   0  0  0  0  0  0  0  0  0  0  0  0
    0.2145    1.5952    0.0000 C   0  0  0  0  0  0  0  0  0  0  0  0
   -1.2144    1.5952    0.0000 C   0  0  0  0  0  0  0  0  0  0  0  0
    0.9290    2.8327    0.0000 C   0  0  0  0  0  0  0  0  0  0  0  0
  1 13  1  0  0  0  0
  2 13  1  0  0  0  0
  3 13  1  0  0  0  0
  4 25  1  0  0  0  0
  4 26  1  0  0  0  0
  5  8  1  0  0  0  0
  5 11  1  0  0  0  0
  5 17  1  0  0  0  0
  6 12  2  0  0  0  0
  6 18  1  0  0  0  0
  7 21  1  0  0  0  0
  7 23  1  0  0  0  0
  7 24  1  0  0  0  0
  8  9  2  0  0  0  0
  8 12  1  0  0  0  0
  9 10  1  0  0  0  0
  9 14  1  0  0  0  0
 10 11  1  0  0  0  0
 10 16  2  0  0  0  0
 11 15  2  0  0  0  0
 12 13  1  0  0  0  0
 14 18  2  0  0  0  0
 15 19  1  0  0  0  0
 16 20  1  0  0  0  0
 17 21  1  0  0  0  0
 19 20  2  0  0  0  0
 19 22  1  0  0  0  0
 23 25  1  0  0  0  0
 23 27  1  0  0  0  0
 24 26  1  0  0  0  0
M  END
> <PUBCHEM_COMPOUND_ID_TYPE>
0

> <PUBCHEM_TOTAL_CHARGE>
0

> <PUBCHEM_SUBSTANCE_ID>
310947861

> <PUBCHEM_SUBSTANCE_VERSION>
1

> <PUBCHEM_EXT_DATASOURCE_NAME>
4488

> <PUBCHEM_EXT_DATASOURCE_REGID>
SCHEMBL16126035

> <PUBCHEM_SUBSTANCE_COMMENT>
InChI=1S/C20H22F3N3O/c1-13-3-4-15-16-5-6-24-19(20(21,22)23)18(16)26(17(15)11-13)8-7-25-9-10-27-12-14(25)2/h3-6,11,14H,7-10,12H2,1-2H3
InChIKey=DTHMJCNMSITDON-UHFFFAOYSA-N

> <PUBCHEM_SUBSTANCE_SYNONYM>
SCHEMBL16126035

> <PUBCHEM_XREF_EXT_ID>
SCHEMBL16126035

> <PUBCHEM_EXT_DATASOURCE_URL>
https://www.surechembl.org/

> <PUBCHEM_EXT_SUBSTANCE_URL>
https://www.surechembl.org/chemical/SCHEMBL16126035

> <PUBCHEM_CID_ASSOCIATIONS>
117613525  1

> <PUBCHEM_COORDINATE_TYPE>
1
3

$$$$
