310937185
  -OEChem-07211613022D

 26 28  0     1  0  0  0  0  0999 V2000
    5.5624   -1.7023    0.0000 O   0  0  0  0  0  0  0  0  0  0  0  0
    1.2947   -3.0929    0.0000 O   0  0  0  0  0  0  0  0  0  0  0  0
    6.8811   -1.0309    0.0000 O   0  0  0  0  0  0  0  0  0  0  0  0
    0.0000   -3.7642    0.0000 O   0  0  0  0  0  0  0  0  0  0  0  0
    2.7572   -2.8771    0.0000 N   0  0  0  0  0  0  0  0  0  0  0  0
    4.0999   -1.9180    0.0000 N   0  0  0  0  0  0  0  0  0  0  0  0
    4.7712   -1.4385    0.0000 C   0  0  3  0  0  0  0  0  0  0  0  0
    2.0859   -3.3566    0.0000 C   0  0  3  0  0  0  0  0  0  0  0  0
    4.7712   -0.6233    0.0000 C   0  0  0  0  0  0  0  0  0  0  0  0
    2.0859   -4.1718    0.0000 C   0  0  0  0  0  0  0  0  0  0  0  0
    3.3566   -1.5824    0.0000 C   0  0  0  0  0  0  0  0  0  0  0  0
    3.5005   -3.2127    0.0000 C   0  0  0  0  0  0  0  0  0  0  0  0
    4.1958   -2.7332    0.0000 C   0  0  0  0  0  0  0  0  0  0  0  0
    2.6853   -2.0619    0.0000 C   0  0  0  0  0  0  0  0  0  0  0  0
    6.0419   -1.0309    0.0000 C   0  0  0  0  0  0  0  0  0  0  0  0
    0.8152   -3.7642    0.0000 C   0  0  0  0  0  0  0  0  0  0  0  0
    5.5624   -0.3597    0.0000 C   0  0  0  0  0  0  0  0  0  0  0  0
    1.2947   -4.4355    0.0000 C   0  0  0  0  0  0  0  0  0  0  0  0
    4.0999   -0.1438    0.0000 C   0  0  0  0  0  0  0  0  0  0  0  0
    2.7572   -4.6513    0.0000 C   0  0  0  0  0  0  0  0  0  0  0  0
    3.3566   -0.4795    0.0000 C   0  0  0  0  0  0  0  0  0  0  0  0
    3.5244   -4.3156    0.0000 C   0  0  0  0  0  0  0  0  0  0  0  0
    3.2847   -1.2947    0.0000 C   0  0  0  0  0  0  0  0  0  0  0  0
    2.6853    0.0000    0.0000 C   0  0  0  0  0  0  0  0  0  0  0  0
    3.5964   -3.5005    0.0000 C   0  0  0  0  0  0  0  0  0  0  0  0
    4.1958   -4.7952    0.0000 C   0  0  0  0  0  0  0  0  0  0  0  0
  1  7  1  0  0  0  0
  1 15  1  0  0  0  0
  2  8  1  0  0  0  0
  2 16  1  0  0  0  0
  3 15  2  0  0  0  0
  4 16  2  0  0  0  0
  5  8  1  0  0  0  0
  5 12  1  0  0  0  0
  5 14  1  0  0  0  0
  6  7  1  0  0  0  0
  6 11  1  0  0  0  0
  6 13  1  0  0  0  0
  7  9  1  0  0  0  0
  8 10  1  0  0  0  0
  9 17  2  0  0  0  0
  9 19  1  0  0  0  0
 10 18  2  0  0  0  0
 10 20  1  0  0  0  0
 11 14  1  0  0  0  0
 12 13  1  0  0  0  0
 15 17  1  0  0  0  0
 16 18  1  0  0  0  0
 19 21  2  0  0  0  0
 20 22  2  0  0  0  0
 21 23  1  0  0  0  0
 21 24  1  0  0  0  0
 22 25  1  0  0  0  0
 22 26  1  0  0  0  0
M  END
> <PUBCHEM_COMPOUND_ID_TYPE>
0

> <PUBCHEM_TOTAL_CHARGE>
0

> <PUBCHEM_SUBSTANCE_ID>
310937185

> <PUBCHEM_SUBSTANCE_VERSION>
1

> <PUBCHEM_EXT_DATASOURCE_NAME>
4488

> <PUBCHEM_EXT_DATASOURCE_REGID>
SCHEMBL16114912

> <PUBCHEM_SUBSTANCE_COMMENT>
InChI=1S/C20H26N2O4/c1-13(2)9-15-11-17(23)25-19(15)21-5-7-22(8-6-21)20-16(10-14(3)4)12-18(24)26-20/h9-12,19-20H,5-8H2,1-4H3
InChIKey=ANCOXUPQHZHMTA-UHFFFAOYSA-N

> <PUBCHEM_SUBSTANCE_SYNONYM>
SCHEMBL16114912

> <PUBCHEM_XREF_EXT_ID>
SCHEMBL16114912

> <PUBCHEM_EXT_DATASOURCE_URL>
https://www.surechembl.org/

> <PUBCHEM_EXT_SUBSTANCE_URL>
https://www.surechembl.org/chemical/SCHEMBL16114912

> <PUBCHEM_CID_ASSOCIATIONS>
90466067  1

> <PUBCHEM_COORDINATE_TYPE>
1
3

$$$$
