310946416
  -OEChem-07211613022D

 27 28  0     1  0  0  0  0  0999 V2000
   -0.7365    5.9579    0.0000 O   0  0  0  0  0  0  0  0  0  0  0  0
   -0.9661    7.8629    0.0000 O   0  0  0  0  0  0  0  0  0  0  0  0
    0.5330    5.5454    0.0000 O   0  0  0  0  0  0  0  0  0  0  0  0
   -3.1095    6.0214    0.0000 O   0  0  0  0  0  0  0  0  0  0  0  0
   -1.6805    6.6254    0.0000 O   0  0  0  0  0  0  0  0  0  0  0  0
   -4.3470    6.7359    0.0000 O   0  0  0  0  0  0  0  0  0  0  0  0
   -0.2516    4.4655    0.0000 O   0  0  0  0  0  0  0  0  0  0  0  0
   -2.2845    3.1635    0.0000 O   0  0  0  0  0  0  0  0  0  0  0  0
   -1.0470    3.8780    0.0000 O   0  5  0  0  0  0  0  0  0  0  0  0
   -2.2845    4.5925    0.0000 O   0  0  0  0  0  0  0  0  0  0  0  0
   -3.1095    7.4504    0.0000 N   0  0  0  0  0  0  0  0  0  0  0  0
   -1.8720    3.8780    0.0000 N   0  3  0  0  0  0  0  0  0  0  0  0
   -2.3950    7.8629    0.0000 C   0  0  3  0  0  0  0  0  0  0  0  0
   -0.2516    6.6254    0.0000 C   0  0  0  0  0  0  0  0  0  0  0  0
   -1.6805    7.4504    0.0000 C   0  0  0  0  0  0  0  0  0  0  0  0
    0.5330    6.3704    0.0000 C   0  0  0  0  0  0  0  0  0  0  0  0
   -3.5220    6.7359    0.0000 C   0  0  0  0  0  0  0  0  0  0  0  0
   -2.3950    8.6879    0.0000 C   0  0  0  0  0  0  0  0  0  0  0  0
   -3.8239    7.8629    0.0000 C   0  0  0  0  0  0  0  0  0  0  0  0
   -0.2516    5.2905    0.0000 C   0  0  0  0  0  0  0  0  0  0  0  0
   -0.2516    7.4504    0.0000 C   0  0  0  0  0  0  0  0  0  0  0  0
   -3.8239    8.6879    0.0000 C   0  0  0  0  0  0  0  0  0  0  0  0
    1.2475    6.7829    0.0000 C   0  0  0  0  0  0  0  0  0  0  0  0
   -3.5220    5.3069    0.0000 C   0  0  0  0  0  0  0  0  0  0  0  0
   -3.1095    4.5925    0.0000 C   0  0  0  0  0  0  0  0  0  0  0  0
   -3.5220    3.8780    0.0000 C   0  0  0  0  0  0  0  0  0  0  0  0
   -3.1095    3.1635    0.0000 C   0  0  0  0  0  0  0  0  0  0  0  0
  1 14  1  0  0  0  0
  1 20  1  0  0  0  0
  2 15  1  0  0  0  0
  2 21  1  0  0  0  0
  3 16  1  0  0  0  0
  3 20  1  0  0  0  0
  4 17  1  0  0  0  0
  4 24  1  0  0  0  0
  5 15  2  0  0  0  0
  6 17  2  0  0  0  0
  7 20  2  0  0  0  0
  8 12  1  0  0  0  0
  8 27  1  0  0  0  0
  9 12  1  0  0  0  0
 10 12  2  0  0  0  0
 11 13  1  0  0  0  0
 11 17  1  0  0  0  0
 11 19  1  0  0  0  0
 13 15  1  0  0  0  0
 13 18  1  0  0  0  0
 14 16  2  0  0  0  0
 14 21  1  0  0  0  0
 16 23  1  0  0  0  0
 18 22  1  0  0  0  0
 19 22  1  0  0  0  0
 24 25  1  0  0  0  0
 25 26  1  0  0  0  0
 26 27  1  0  0  0  0
M  CHG  2   9  -1  12   1
M  END
> <PUBCHEM_COMPOUND_ID_TYPE>
0

> <PUBCHEM_TOTAL_CHARGE>
0

> <PUBCHEM_SUBSTANCE_ID>
310946416

> <PUBCHEM_SUBSTANCE_VERSION>
1

> <PUBCHEM_EXT_DATASOURCE_NAME>
4488

> <PUBCHEM_EXT_DATASOURCE_REGID>
SCHEMBL16124537

> <PUBCHEM_SUBSTANCE_COMMENT>
InChI=1S/C15H20N2O10/c1-10-12(27-15(20)26-10)9-24-13(18)11-5-4-6-16(11)14(19)23-7-2-3-8-25-17(21)22/h11H,2-9H2,1H3
InChIKey=KMGUVDJLGJYOLD-UHFFFAOYSA-N

> <PUBCHEM_SUBSTANCE_SYNONYM>
SCHEMBL16124537

> <PUBCHEM_XREF_EXT_ID>
SCHEMBL16124537

> <PUBCHEM_EXT_DATASOURCE_URL>
https://www.surechembl.org/

> <PUBCHEM_EXT_SUBSTANCE_URL>
https://www.surechembl.org/chemical/SCHEMBL16124537

> <PUBCHEM_CID_ASSOCIATIONS>
117612329  1

> <PUBCHEM_COORDINATE_TYPE>
1
3

$$$$
