310946517
  -OEChem-07211613022D

 20 19  0     1  0  0  0  0  0999 V2000
    6.7436    5.8787    0.0000 O   0  0  0  0  0  0  0  0  0  0  0  0
    7.4581    7.1162    0.0000 O   0  0  0  0  0  0  0  0  0  0  0  0
    9.6015    5.0537    0.0000 O   0  0  0  0  0  0  0  0  0  0  0  0
    2.4568    5.0537    0.0000 O   0  0  0  0  0  0  0  0  0  0  0  0
    9.6015    7.5287    0.0000 O   0  0  0  0  0  0  0  0  0  0  0  0
    3.1712    3.8162    0.0000 O   0  5  0  0  0  0  0  0  0  0  0  0
    3.8857    5.0537    0.0000 O   0  0  0  0  0  0  0  0  0  0  0  0
    8.1725    5.8787    0.0000 N   0  0  0  0  0  0  0  0  0  0  0  0
    3.1712    4.6412    0.0000 N   0  3  0  0  0  0  0  0  0  0  0  0
    8.8870    6.2912    0.0000 C   0  0  3  0  0  0  0  0  0  0  0  0
    7.4581    6.2912    0.0000 C   0  0  0  0  0  0  0  0  0  0  0  0
    9.6015    5.8787    0.0000 C   0  0  0  0  0  0  0  0  0  0  0  0
    8.8870    7.1162    0.0000 C   0  0  0  0  0  0  0  0  0  0  0  0
    6.0291    6.2912    0.0000 C   0  0  0  0  0  0  0  0  0  0  0  0
   10.3159    6.2912    0.0000 C   0  0  0  0  0  0  0  0  0  0  0  0
    5.3146    5.8787    0.0000 C   0  0  0  0  0  0  0  0  0  0  0  0
    4.6002    6.2912    0.0000 C   0  0  0  0  0  0  0  0  0  0  0  0
    2.4568    5.8787    0.0000 C   0  0  0  0  0  0  0  0  0  0  0  0
    3.8857    5.8787    0.0000 C   0  0  0  0  0  0  0  0  0  0  0  0
    3.1712    6.2912    0.0000 C   0  0  0  0  0  0  0  0  0  0  0  0
  1 11  1  0  0  0  0
  1 14  1  0  0  0  0
  2 11  2  0  0  0  0
  3 12  2  0  0  0  0
  4  9  1  0  0  0  0
  4 18  1  0  0  0  0
  5 13  1  0  0  0  0
  6  9  1  0  0  0  0
  7  9  2  0  0  0  0
  8 10  1  0  0  0  0
  8 11  1  0  0  0  0
 10 12  1  0  0  0  0
 10 13  1  0  0  0  0
 12 15  1  0  0  0  0
 14 16  1  0  0  0  0
 16 17  1  0  0  0  0
 17 19  1  0  0  0  0
 18 20  1  0  0  0  0
 19 20  1  0  0  0  0
M  CHG  2   6  -1   9   1
M  END
> <PUBCHEM_COMPOUND_ID_TYPE>
0

> <PUBCHEM_TOTAL_CHARGE>
0

> <PUBCHEM_SUBSTANCE_ID>
310946517

> <PUBCHEM_SUBSTANCE_VERSION>
1

> <PUBCHEM_EXT_DATASOURCE_NAME>
4488

> <PUBCHEM_EXT_DATASOURCE_REGID>
SCHEMBL16124638

> <PUBCHEM_SUBSTANCE_COMMENT>
InChI=1S/C11H20N2O7/c1-9(15)10(8-14)12-11(16)19-6-4-2-3-5-7-20-13(17)18/h10,14H,2-8H2,1H3,(H,12,16)
InChIKey=RZIYHFSIONJJKP-UHFFFAOYSA-N

> <PUBCHEM_SUBSTANCE_SYNONYM>
SCHEMBL16124638

> <PUBCHEM_XREF_EXT_ID>
SCHEMBL16124638

> <PUBCHEM_EXT_DATASOURCE_URL>
https://www.surechembl.org/

> <PUBCHEM_EXT_SUBSTANCE_URL>
https://www.surechembl.org/chemical/SCHEMBL16124638

> <PUBCHEM_CID_ASSOCIATIONS>
117612422  1

> <PUBCHEM_COORDINATE_TYPE>
1
3

$$$$
