310933517
  -OEChem-07211613022D

 38 42  0     1  0  0  0  0  0999 V2000
   -1.3222    3.2384    0.0000 Cl  0  0  0  0  0  0  0  0  0  0  0  0
    2.2501    1.1759    0.0000 O   0  0  0  0  0  0  0  0  0  0  0  0
    7.2514    0.7634    0.0000 O   0  0  0  0  0  0  0  0  0  0  0  0
    6.5369    2.0009    0.0000 O   0  0  0  0  0  0  0  0  0  0  0  0
    1.5356   -0.0616    0.0000 N   0  0  0  0  0  0  0  0  0  0  0  0
   -1.3222   -0.0616    0.0000 N   0  0  0  0  0  0  0  0  0  0  0  0
   -1.9897   -0.5465    0.0000 N   0  0  0  0  0  0  0  0  0  0  0  0
   -1.7347   -1.3312    0.0000 N   0  0  0  0  0  0  0  0  0  0  0  0
   -0.9097   -1.3312    0.0000 N   0  0  0  0  0  0  0  0  0  0  0  0
    3.6791   -0.4741    0.0000 N   0  0  0  0  0  0  0  0  0  0  0  0
   -0.6078    1.1759    0.0000 C   0  0  0  0  0  0  0  0  0  0  0  0
   -1.3222    0.7634    0.0000 C   0  0  0  0  0  0  0  0  0  0  0  0
    0.1067    0.7634    0.0000 C   0  0  0  0  0  0  0  0  0  0  0  0
    1.5356    0.7634    0.0000 C   0  0  0  0  0  0  0  0  0  0  0  0
    0.8212    1.1759    0.0000 C   0  0  0  0  0  0  0  0  0  0  0  0
   -0.6078    2.0009    0.0000 C   0  0  0  0  0  0  0  0  0  0  0  0
    0.1067   -0.0616    0.0000 C   0  0  0  0  0  0  0  0  0  0  0  0
    2.2501   -0.4741    0.0000 C   0  0  3  0  0  0  0  0  0  0  0  0
   -2.0367    1.1759    0.0000 C   0  0  0  0  0  0  0  0  0  0  0  0
    0.8212   -0.4741    0.0000 C   0  0  0  0  0  0  0  0  0  0  0  0
   -1.3222    2.4134    0.0000 C   0  0  0  0  0  0  0  0  0  0  0  0
   -2.0367    2.0009    0.0000 C   0  0  0  0  0  0  0  0  0  0  0  0
   -0.6548   -0.5465    0.0000 C   0  0  0  0  0  0  0  0  0  0  0  0
    2.2501   -1.2991    0.0000 C   0  0  0  0  0  0  0  0  0  0  0  0
    2.9646   -0.0616    0.0000 C   0  0  0  0  0  0  0  0  0  0  0  0
    1.5356   -1.7116    0.0000 C   0  0  0  0  0  0  0  0  0  0  0  0
    4.3935   -0.0616    0.0000 C   0  0  0  0  0  0  0  0  0  0  0  0
    5.8225    0.7634    0.0000 C   0  0  0  0  0  0  0  0  0  0  0  0
    1.5356   -2.5366    0.0000 C   0  0  0  0  0  0  0  0  0  0  0  0
    0.8212   -1.2991    0.0000 C   0  0  0  0  0  0  0  0  0  0  0  0
    5.1080   -0.4741    0.0000 C   0  0  0  0  0  0  0  0  0  0  0  0
    4.3935    0.7634    0.0000 C   0  0  0  0  0  0  0  0  0  0  0  0
    5.8225   -0.0616    0.0000 C   0  0  0  0  0  0  0  0  0  0  0  0
    5.1080    1.1759    0.0000 C   0  0  0  0  0  0  0  0  0  0  0  0
    6.5369    1.1759    0.0000 C   0  0  0  0  0  0  0  0  0  0  0  0
    0.8212   -2.9491    0.0000 C   0  0  0  0  0  0  0  0  0  0  0  0
    0.1067   -1.7116    0.0000 C   0  0  0  0  0  0  0  0  0  0  0  0
    0.1067   -2.5366    0.0000 C   0  0  0  0  0  0  0  0  0  0  0  0
  1 21  1  0  0  0  0
  2 14  2  0  0  0  0
  3 35  2  0  0  0  0
  4 35  1  0  0  0  0
  5 14  1  0  0  0  0
  5 18  1  0  0  0  0
  5 20  1  0  0  0  0
  6  7  1  0  0  0  0
  6 12  1  0  0  0  0
  6 23  1  0  0  0  0
  7  8  2  0  0  0  0
  8  9  1  0  0  0  0
  9 23  2  0  0  0  0
 10 25  1  0  0  0  0
 10 27  1  0  0  0  0
 11 12  2  0  0  0  0
 11 13  1  0  0  0  0
 11 16  1  0  0  0  0
 12 19  1  0  0  0  0
 13 15  2  0  0  0  0
 13 17  1  0  0  0  0
 14 15  1  0  0  0  0
 16 21  2  0  0  0  0
 17 20  2  0  0  0  0
 18 24  1  0  0  0  0
 18 25  1  0  0  0  0
 19 22  2  0  0  0  0
 21 22  1  0  0  0  0
 24 26  1  0  0  0  0
 26 29  2  0  0  0  0
 26 30  1  0  0  0  0
 27 31  2  0  0  0  0
 27 32  1  0  0  0  0
 28 33  2  0  0  0  0
 28 34  1  0  0  0  0
 28 35  1  0  0  0  0
 29 36  1  0  0  0  0
 30 37  2  0  0  0  0
 31 33  1  0  0  0  0
 32 34  2  0  0  0  0
 36 38  2  0  0  0  0
 37 38  1  0  0  0  0
M  END
> <PUBCHEM_COMPOUND_ID_TYPE>
0

> <PUBCHEM_TOTAL_CHARGE>
0

> <PUBCHEM_SUBSTANCE_ID>
310933517

> <PUBCHEM_SUBSTANCE_VERSION>
1

> <PUBCHEM_EXT_DATASOURCE_NAME>
4488

> <PUBCHEM_EXT_DATASOURCE_REGID>
SCHEMBL16110939

> <PUBCHEM_SUBSTANCE_COMMENT>
InChI=1S/C28H23ClN6O3/c29-22-8-11-26(35-18-31-32-33-35)25(16-22)21-12-13-34(27(36)15-21)24(14-19-4-2-1-3-5-19)17-30-23-9-6-20(7-10-23)28(37)38/h1-13,15-16,18,24,30H,14,17H2,(H,37,38)
InChIKey=PZNMDJALNQZKQC-UHFFFAOYSA-N

> <PUBCHEM_SUBSTANCE_SYNONYM>
SCHEMBL16110939

> <PUBCHEM_XREF_EXT_ID>
SCHEMBL16110939

> <PUBCHEM_EXT_DATASOURCE_URL>
https://www.surechembl.org/

> <PUBCHEM_EXT_SUBSTANCE_URL>
https://www.surechembl.org/chemical/SCHEMBL16110939

> <PUBCHEM_CID_ASSOCIATIONS>
117601908  1

> <PUBCHEM_COORDINATE_TYPE>
1
3

$$$$
