310931509
  -OEChem-07211613022D

 19 21  0     1  0  0  0  0  0999 V2000
    0.6966    0.0000    0.0000 O   0  0  0  0  0  0  0  0  0  0  0  0
    1.4098   -1.2439    0.0000 N   0  0  0  0  0  0  0  0  0  0  0  0
    2.1396    0.0000    0.0000 N   0  0  0  0  0  0  0  0  0  0  0  0
    2.1396   -1.6586    0.0000 C   0  0  3  0  0  0  0  0  0  0  0  0
    2.8694   -1.2439    0.0000 C   0  0  0  0  0  0  0  0  0  0  0  0
    1.4264   -2.0732    0.0000 C   0  0  0  0  0  0  0  0  0  0  0  0
    2.8694   -0.4146    0.0000 C   0  0  0  0  0  0  0  0  0  0  0  0
    1.4098   -0.4146    0.0000 C   0  0  0  0  0  0  0  0  0  0  0  0
    3.5659   -1.6586    0.0000 C   0  0  0  0  0  0  0  0  0  0  0  0
    2.1396   -2.4879    0.0000 C   0  0  0  0  0  0  0  0  0  0  0  0
    3.5659    0.0000    0.0000 C   0  0  0  0  0  0  0  0  0  0  0  0
    1.4264   -2.9025    0.0000 C   0  0  0  0  0  0  0  0  0  0  0  0
    0.8791   -1.8244    0.0000 C   0  0  0  0  0  0  0  0  0  0  0  0
    0.6966   -1.6586    0.0000 C   0  0  0  0  0  0  0  0  0  0  0  0
    4.2792   -1.2439    0.0000 C   0  0  0  0  0  0  0  0  0  0  0  0
    4.2792   -0.4146    0.0000 C   0  0  0  0  0  0  0  0  0  0  0  0
    0.7132   -3.3172    0.0000 C   0  0  0  0  0  0  0  0  0  0  0  0
    0.0000   -2.0732    0.0000 C   0  0  0  0  0  0  0  0  0  0  0  0
    0.0000   -2.9025    0.0000 C   0  0  0  0  0  0  0  0  0  0  0  0
  1  8  2  0  0  0  0
  2  4  1  0  0  0  0
  2  8  1  0  0  0  0
  2 14  1  0  0  0  0
  3  7  1  0  0  0  0
  3  8  1  0  0  0  0
  4  5  1  0  0  0  0
  4  6  1  0  0  0  0
  4 10  1  0  0  0  0
  5  7  2  0  0  0  0
  5  9  1  0  0  0  0
  6 12  2  0  0  0  0
  6 13  1  0  0  0  0
  7 11  1  0  0  0  0
  9 15  2  0  0  0  0
 11 16  2  0  0  0  0
 12 17  1  0  0  0  0
 13 18  2  0  0  0  0
 15 16  1  0  0  0  0
 17 19  2  0  0  0  0
 18 19  1  0  0  0  0
M  END
> <PUBCHEM_COMPOUND_ID_TYPE>
0

> <PUBCHEM_TOTAL_CHARGE>
0

> <PUBCHEM_SUBSTANCE_ID>
310931509

> <PUBCHEM_SUBSTANCE_VERSION>
1

> <PUBCHEM_EXT_DATASOURCE_NAME>
4488

> <PUBCHEM_EXT_DATASOURCE_REGID>
SCHEMBL16108835

> <PUBCHEM_SUBSTANCE_COMMENT>
InChI=1S/C16H16N2O/c1-16(12-8-4-3-5-9-12)13-10-6-7-11-14(13)17-15(19)18(16)2/h3-11H,1-2H3,(H,17,19)
InChIKey=WVKLOQNUBMLWKH-UHFFFAOYSA-N

> <PUBCHEM_SUBSTANCE_SYNONYM>
SCHEMBL16108835

> <PUBCHEM_XREF_EXT_ID>
SCHEMBL16108835

> <PUBCHEM_EXT_DATASOURCE_URL>
https://www.surechembl.org/

> <PUBCHEM_EXT_SUBSTANCE_URL>
https://www.surechembl.org/chemical/SCHEMBL16108835

> <PUBCHEM_CID_ASSOCIATIONS>
117600268  1

> <PUBCHEM_COORDINATE_TYPE>
1
3

$$$$
