310940488
  -OEChem-07211613022D

 29 31  0     1  0  0  0  0  0999 V2000
    0.3356    2.6745    0.0000 F   0  0  0  0  0  0  0  0  0  0  0  0
    0.6406    1.5762    0.0000 F   0  0  0  0  0  0  0  0  0  0  0  0
   -0.4983    1.2914    0.0000 F   0  0  0  0  0  0  0  0  0  0  0  0
    1.0881   -0.6813    0.0000 O   0  0  0  0  0  0  0  0  0  0  0  0
   -2.2880   -1.7389    0.0000 O   0  0  0  0  0  0  0  0  0  0  0  0
   -1.5559   -0.4983    0.0000 N   0  0  0  0  0  0  0  0  0  0  0  0
   -0.4780   -2.7355    0.0000 N   0  0  0  0  0  0  0  0  0  0  0  0
   -0.4780   -2.7355    0.0000 N   0  0  0  0  0  0  0  0  0  0  0  0
   -1.5356    2.0033    0.0000 C   0  0  0  0  0  0  0  0  0  0  0  0
   -0.8237    2.4507    0.0000 C   0  0  0  0  0  0  0  0  0  0  0  0
   -1.5356    1.2101    0.0000 C   0  0  0  0  0  0  0  0  0  0  0  0
   -0.0915    1.9830    0.0000 C   0  0  0  0  0  0  0  0  0  0  0  0
   -1.5762   -1.3322    0.0000 C   0  0  0  0  0  0  0  0  0  0  0  0
   -0.8643   -1.7593    0.0000 C   0  0  3  0  0  0  0  0  0  0  0  0
   -0.1119   -1.5152    0.0000 C   0  0  0  0  0  0  0  0  0  0  0  0
   -0.8034    0.7220    0.0000 C   0  0  0  0  0  0  0  0  0  0  0  0
   -2.1660    0.8034    0.0000 C   0  0  0  0  0  0  0  0  0  0  0  0
   -0.8440   -0.0712    0.0000 C   0  0  0  0  0  0  0  0  0  0  0  0
   -2.2677   -0.0915    0.0000 C   0  0  0  0  0  0  0  0  0  0  0  0
   -2.2270    2.4101    0.0000 C   0  0  0  0  0  0  0  0  0  0  0  0
   -0.8237    3.2439    0.0000 C   0  0  0  0  0  0  0  0  0  0  0  0
    1.5762   -1.3728    0.0000 C   0  0  0  0  0  0  0  0  0  0  0  0
    0.2746   -0.7626    0.0000 C   0  0  0  0  0  0  0  0  0  0  0  0
    0.3966   -2.1864    0.0000 C   0  0  0  0  0  0  0  0  0  0  0  0
    1.2101   -2.1050    0.0000 C   0  0  0  0  0  0  0  0  0  0  0  0
   -2.2067    3.2642    0.0000 C   0  0  0  0  0  0  0  0  0  0  0  0
   -1.4948    3.6507    0.0000 C   0  0  0  0  0  0  0  0  0  0  0  0
    2.2880   -0.9254    0.0000 C   0  0  0  0  0  0  0  0  0  0  0  0
    2.1864   -1.9423    0.0000 C   0  0  0  0  0  0  0  0  0  0  0  0
  1 12  1  0  0  0  0
  2 12  1  0  0  0  0
  3 12  1  0  0  0  0
  4 22  1  0  0  0  0
  4 23  1  0  0  0  0
  5 13  2  0  0  0  0
  6 13  1  0  0  0  0
  6 18  1  0  0  0  0
  6 19  1  0  0  0  0
  7  8  1  0  0  0  0
  7 14  1  0  0  0  0
  9 10  2  0  0  0  0
  9 11  1  0  0  0  0
  9 20  1  0  0  0  0
 10 12  1  0  0  0  0
 10 21  1  0  0  0  0
 11 16  1  0  0  0  0
 11 17  1  0  0  0  0
 13 14  1  0  0  0  0
 14 15  1  0  0  0  0
 15 23  1  0  0  0  0
 15 24  2  0  0  0  0
 16 18  1  0  0  0  0
 17 19  1  0  0  0  0
 20 26  2  0  0  0  0
 21 27  2  0  0  0  0
 22 25  1  0  0  0  0
 22 28  1  0  0  0  0
 22 29  1  0  0  0  0
 24 25  1  0  0  0  0
 26 27  1  0  0  0  0
M  END
> <PUBCHEM_COMPOUND_ID_TYPE>
0

> <PUBCHEM_TOTAL_CHARGE>
0

> <PUBCHEM_SUBSTANCE_ID>
310940488

> <PUBCHEM_SUBSTANCE_VERSION>
1

> <PUBCHEM_EXT_DATASOURCE_NAME>
4488

> <PUBCHEM_EXT_DATASOURCE_REGID>
SCHEMBL16118441

> <PUBCHEM_SUBSTANCE_COMMENT>
InChI=1S/C21H28F3N3O2/c1-20(2)10-7-15(13-29-20)18(26-25)19(28)27-11-8-14(9-12-27)16-5-3-4-6-17(16)21(22,23)24/h3-7,14,18,26H,8-13,25H2,1-2H3
InChIKey=YEJIFJBKFJLQGM-UHFFFAOYSA-N

> <PUBCHEM_SUBSTANCE_SYNONYM>
SCHEMBL16118441

> <PUBCHEM_XREF_EXT_ID>
SCHEMBL16118441

> <PUBCHEM_EXT_DATASOURCE_URL>
https://www.surechembl.org/

> <PUBCHEM_EXT_SUBSTANCE_URL>
https://www.surechembl.org/chemical/SCHEMBL16118441

> <PUBCHEM_CID_ASSOCIATIONS>
117607503  1

> <PUBCHEM_COORDINATE_TYPE>
1
3

$$$$
