310945643
  -OEChem-07211613022D

 25 28  0     1  0  0  0  0  0999 V2000
    0.3656   -2.6860    0.0000 P   0  0  0  0  0  0  0  0  0  0  0  0
    3.2063    2.2360    0.0000 O   0  0  0  0  0  0  0  0  0  0  0  0
   -0.3516    0.1969    0.0000 N   0  0  0  0  0  0  0  0  0  0  0  0
   -1.0828   -2.6860    0.0000 N   0  0  0  0  0  0  0  0  0  0  0  0
    1.7860    1.4344    0.0000 N   0  0  0  0  0  0  0  0  0  0  0  0
   -1.0828   -1.0406    0.0000 C   0  0  0  0  0  0  0  0  0  0  0  0
   -1.8141   -1.4204    0.0000 C   0  0  0  0  0  0  0  0  0  0  0  0
   -1.0688   -0.2250    0.0000 C   0  0  3  0  0  0  0  0  0  0  0  0
   -1.8141   -2.2782    0.0000 C   0  0  0  0  0  0  0  0  0  0  0  0
   -0.3516   -1.4344    0.0000 C   0  0  0  0  0  0  0  0  0  0  0  0
   -0.3656   -2.2782    0.0000 C   0  0  0  0  0  0  0  0  0  0  0  0
    1.0688    1.0266    0.0000 C   0  0  0  0  0  0  0  0  0  0  0  0
   -2.5032   -1.0547    0.0000 C   0  0  0  0  0  0  0  0  0  0  0  0
    0.3516   -0.2250    0.0000 C   0  0  0  0  0  0  0  0  0  0  0  0
   -0.3375    1.0266    0.0000 C   0  0  0  0  0  0  0  0  0  0  0  0
   -2.4750   -2.6579    0.0000 C   0  0  0  0  0  0  0  0  0  0  0  0
    1.0547    0.1969    0.0000 C   0  0  0  0  0  0  0  0  0  0  0  0
    0.3235    1.4484    0.0000 C   0  0  0  0  0  0  0  0  0  0  0  0
   -1.8141    0.2250    0.0000 C   0  0  0  0  0  0  0  0  0  0  0  0
   -3.2063   -1.4344    0.0000 C   0  0  0  0  0  0  0  0  0  0  0  0
   -3.2063   -2.2782    0.0000 C   0  0  0  0  0  0  0  0  0  0  0  0
    2.4750    1.0266    0.0000 C   0  0  0  0  0  0  0  0  0  0  0  0
    1.8000    2.2641    0.0000 C   0  0  0  0  0  0  0  0  0  0  0  0
    3.1923    1.4344    0.0000 C   0  0  0  0  0  0  0  0  0  0  0  0
    2.4610    2.6860    0.0000 C   0  0  0  0  0  0  0  0  0  0  0  0
  1 11  1  0  0  0  0
  2 24  1  0  0  0  0
  2 25  1  0  0  0  0
  3  8  1  0  0  0  0
  3 14  1  0  0  0  0
  3 15  1  0  0  0  0
  4  9  1  0  0  0  0
  4 11  2  0  0  0  0
  5 12  1  0  0  0  0
  5 22  1  0  0  0  0
  5 23  1  0  0  0  0
  6  7  1  0  0  0  0
  6  8  1  0  0  0  0
  6 10  2  0  0  0  0
  7  9  1  0  0  0  0
  7 13  2  0  0  0  0
  8 19  1  0  0  0  0
  9 16  2  0  0  0  0
 10 11  1  0  0  0  0
 12 17  1  0  0  0  0
 12 18  1  0  0  0  0
 13 20  1  0  0  0  0
 14 17  1  0  0  0  0
 15 18  1  0  0  0  0
 16 21  1  0  0  0  0
 20 21  2  0  0  0  0
 22 24  1  0  0  0  0
 23 25  1  0  0  0  0
M  END
> <PUBCHEM_COMPOUND_ID_TYPE>
0

> <PUBCHEM_TOTAL_CHARGE>
0

> <PUBCHEM_SUBSTANCE_ID>
310945643

> <PUBCHEM_SUBSTANCE_VERSION>
1

> <PUBCHEM_EXT_DATASOURCE_NAME>
4488

> <PUBCHEM_EXT_DATASOURCE_REGID>
SCHEMBL16123742

> <PUBCHEM_SUBSTANCE_COMMENT>
InChI=1S/C20H28N3OP/c1-15(18-14-20(25)21-19-5-3-2-4-17(18)19)22-8-6-16(7-9-22)23-10-12-24-13-11-23/h2-5,14-16H,6-13,25H2,1H3
InChIKey=IQLHSSAPGJAJDI-UHFFFAOYSA-N

> <PUBCHEM_SUBSTANCE_SYNONYM>
SCHEMBL16123742

> <PUBCHEM_XREF_EXT_ID>
SCHEMBL16123742

> <PUBCHEM_EXT_DATASOURCE_URL>
https://www.surechembl.org/

> <PUBCHEM_EXT_SUBSTANCE_URL>
https://www.surechembl.org/chemical/SCHEMBL16123742

> <PUBCHEM_CID_ASSOCIATIONS>
117611652  1

> <PUBCHEM_COORDINATE_TYPE>
1
3

$$$$
