310940700
  -OEChem-07211613022D

 29 31  0     1  0  0  0  0  0999 V2000
   -3.9893   -1.4342    0.0000 F   0  0  0  0  0  0  0  0  0  0  0  0
    1.7969    1.0550    0.0000 O   0  0  0  0  0  0  0  0  0  0  0  0
    1.0715   -0.1978    0.0000 N   0  0  0  0  0  0  0  0  0  0  0  0
    2.5222   -0.1978    0.0000 N   0  0  0  0  0  0  0  0  0  0  0  0
    3.2476   -2.2584    0.0000 N   0  0  0  0  0  0  0  0  0  0  0  0
    1.7969    0.1978    0.0000 C   0  0  0  0  0  0  0  0  0  0  0  0
    3.2476    0.2308    0.0000 C   0  0  3  0  0  0  0  0  0  0  0  0
    1.1045   -1.0385    0.0000 C   0  0  0  0  0  0  0  0  0  0  0  0
    1.8134   -1.4342    0.0000 C   0  0  0  0  0  0  0  0  0  0  0  0
    3.1981    1.0550    0.0000 C   0  0  0  0  0  0  0  0  0  0  0  0
    0.3462    0.2308    0.0000 C   0  0  0  0  0  0  0  0  0  0  0  0
   -1.8134   -0.1978    0.0000 C   0  0  0  0  0  0  0  0  0  0  0  0
   -0.3627   -0.1978    0.0000 C   0  0  0  0  0  0  0  0  0  0  0  0
    1.7969   -2.2419    0.0000 C   0  0  0  0  0  0  0  0  0  0  0  0
    2.5386   -1.0221    0.0000 C   0  0  0  0  0  0  0  0  0  0  0  0
    2.4727    1.4342    0.0000 C   0  0  0  0  0  0  0  0  0  0  0  0
    3.9069    1.5331    0.0000 C   0  0  0  0  0  0  0  0  0  0  0  0
   -1.1045    0.2308    0.0000 C   0  0  0  0  0  0  0  0  0  0  0  0
   -2.5386    0.2143    0.0000 C   0  0  0  0  0  0  0  0  0  0  0  0
   -1.8134   -1.0221    0.0000 C   0  0  0  0  0  0  0  0  0  0  0  0
   -3.2805   -1.0221    0.0000 C   0  0  0  0  0  0  0  0  0  0  0  0
    3.9893   -0.1154    0.0000 C   0  0  0  0  0  0  0  0  0  0  0  0
    2.5386   -2.6706    0.0000 C   0  0  0  0  0  0  0  0  0  0  0  0
    3.2476   -1.4507    0.0000 C   0  0  0  0  0  0  0  0  0  0  0  0
   -3.2476   -0.1978    0.0000 C   0  0  0  0  0  0  0  0  0  0  0  0
   -2.5222   -1.4342    0.0000 C   0  0  0  0  0  0  0  0  0  0  0  0
    2.4397    2.2419    0.0000 C   0  0  0  0  0  0  0  0  0  0  0  0
    3.8575    2.3079    0.0000 C   0  0  0  0  0  0  0  0  0  0  0  0
    3.1321    2.6706    0.0000 C   0  0  0  0  0  0  0  0  0  0  0  0
  1 21  1  0  0  0  0
  2  6  2  0  0  0  0
  3  6  1  0  0  0  0
  3  8  1  0  0  0  0
  3 11  1  0  0  0  0
  4  6  1  0  0  0  0
  4  7  1  0  0  0  0
  5 23  1  0  0  0  0
  5 24  1  0  0  0  0
  7 10  1  0  0  0  0
  7 22  1  0  0  0  0
  8  9  1  0  0  0  0
  9 14  1  0  0  0  0
  9 15  1  0  0  0  0
 10 16  1  0  0  0  0
 10 17  1  0  0  0  0
 11 13  1  0  0  0  0
 12 18  1  0  0  0  0
 12 19  2  0  0  0  0
 12 20  1  0  0  0  0
 13 18  2  0  0  0  0
 14 23  1  0  0  0  0
 15 24  1  0  0  0  0
 16 27  1  0  0  0  0
 17 28  1  0  0  0  0
 19 25  1  0  0  0  0
 20 26  2  0  0  0  0
 21 25  2  0  0  0  0
 21 26  1  0  0  0  0
 27 29  1  0  0  0  0
 28 29  1  0  0  0  0
M  END
> <PUBCHEM_COMPOUND_ID_TYPE>
0

> <PUBCHEM_TOTAL_CHARGE>
0

> <PUBCHEM_SUBSTANCE_ID>
310940700

> <PUBCHEM_SUBSTANCE_VERSION>
1

> <PUBCHEM_EXT_DATASOURCE_NAME>
4488

> <PUBCHEM_EXT_DATASOURCE_REGID>
SCHEMBL16118656

> <PUBCHEM_SUBSTANCE_COMMENT>
InChI=1S/C24H36FN3O/c1-19(22-7-3-2-4-8-22)27-24(29)28(18-21-13-15-26-16-14-21)17-5-6-20-9-11-23(25)12-10-20/h5-6,9-12,19,21-22,26H,2-4,7-8,13-18H2,1H3,(H,27,29)/b6-5+
InChIKey=KISQWPVRKSPIPP-AATRIKPKSA-N

> <PUBCHEM_SUBSTANCE_SYNONYM>
SCHEMBL16118656

> <PUBCHEM_XREF_EXT_ID>
SCHEMBL16118656

> <PUBCHEM_EXT_DATASOURCE_URL>
https://www.surechembl.org/

> <PUBCHEM_EXT_SUBSTANCE_URL>
https://www.surechembl.org/chemical/SCHEMBL16118656

> <PUBCHEM_CID_ASSOCIATIONS>
86300364  1

> <PUBCHEM_COORDINATE_TYPE>
1
3

$$$$
