310937463
  -OEChem-07211613022D

 26 28  0     1  0  0  0  0  0999 V2000
    0.4796    1.3115    0.0000 O   0  0  0  0  0  0  0  0  0  0  0  0
   -0.7476    0.5795    0.0000 O   0  0  0  0  0  0  0  0  0  0  0  0
    0.4999   -0.1173    0.0000 N   0  0  0  0  0  0  0  0  0  0  0  0
    4.0902   -2.3141    0.0000 N   0  0  0  0  0  0  0  0  0  0  0  0
    1.4755   -2.8748    0.0000 N   0  0  0  0  0  0  0  0  0  0  0  0
    2.1275   -1.3591    0.0000 C   0  0  0  0  0  0  0  0  0  0  0  0
    1.0605   -0.5572    0.0000 C   0  0  3  0  0  0  0  0  0  0  0  0
    0.6396   -0.9304    0.0000 C   0  0  3  0  0  0  0  0  0  0  0  0
    1.9893   -0.5417    0.0000 C   0  0  0  0  0  0  0  0  0  0  0  0
    1.6113   -0.9304    0.0000 C   0  0  0  0  0  0  0  0  0  0  0  0
    2.9466   -1.4573    0.0000 C   0  0  0  0  0  0  0  0  0  0  0  0
    0.0773    0.5912    0.0000 C   0  0  0  0  0  0  0  0  0  0  0  0
    0.7400   -1.2658    0.0000 C   0  0  0  0  0  0  0  0  0  0  0  0
    0.1197   -1.6427    0.0000 C   0  0  0  0  0  0  0  0  0  0  0  0
    1.8015   -2.1170    0.0000 C   0  0  0  0  0  0  0  0  0  0  0  0
    3.4413   -0.7971    0.0000 C   0  0  0  0  0  0  0  0  0  0  0  0
    3.2711   -2.2158    0.0000 C   0  0  0  0  0  0  0  0  0  0  0  0
    4.2604   -0.8953    0.0000 C   0  0  0  0  0  0  0  0  0  0  0  0
    0.0570    2.0200    0.0000 C   0  0  0  0  0  0  0  0  0  0  0  0
    4.5849   -1.6538    0.0000 C   0  0  0  0  0  0  0  0  0  0  0  0
    4.7550   -0.2350    0.0000 C   0  0  0  0  0  0  0  0  0  0  0  0
   -0.3656    2.7286    0.0000 C   0  0  0  0  0  0  0  0  0  0  0  0
    0.7655    2.4426    0.0000 C   0  0  0  0  0  0  0  0  0  0  0  0
   -0.6515    1.5974    0.0000 C   0  0  0  0  0  0  0  0  0  0  0  0
    5.2497    0.4252    0.0000 C   0  0  0  0  0  0  0  0  0  0  0  0
    5.7443    1.0855    0.0000 C   0  0  0  0  0  0  0  0  0  0  0  0
  1 12  1  0  0  0  0
  1 19  1  0  0  0  0
  2 12  2  0  0  0  0
  3  7  1  0  0  0  0
  3  8  1  0  0  0  0
  3 12  1  0  0  0  0
  4 17  2  0  0  0  0
  4 20  1  0  0  0  0
  5 15  3  0  0  0  0
  6  9  1  0  0  0  0
  6 10  1  0  0  0  0
  6 11  1  0  0  0  0
  6 15  1  6  0  0  0
  7  9  1  1  0  0  0
  7 13  1  0  0  0  0
  8 10  1  6  0  0  0
  8 14  1  0  0  0  0
 11 16  2  0  0  0  0
 11 17  1  0  0  0  0
 13 14  1  0  0  0  0
 16 18  1  0  0  0  0
 18 20  2  0  0  0  0
 18 21  1  0  0  0  0
 19 22  1  0  0  0  0
 19 23  1  0  0  0  0
 19 24  1  0  0  0  0
 21 25  3  0  0  0  0
 25 26  1  0  0  0  0
M  END
> <PUBCHEM_COMPOUND_ID_TYPE>
0

> <PUBCHEM_TOTAL_CHARGE>
0

> <PUBCHEM_SUBSTANCE_ID>
310937463

> <PUBCHEM_SUBSTANCE_VERSION>
1

> <PUBCHEM_EXT_DATASOURCE_NAME>
4488

> <PUBCHEM_EXT_DATASOURCE_REGID>
SCHEMBL16115232

> <PUBCHEM_SUBSTANCE_COMMENT>
InChI=1S/C21H25N3O2/c1-5-6-15-9-16(13-23-12-15)21(14-22)10-17-7-8-18(11-21)24(17)19(25)26-20(2,3)4/h9,12-13,17-18H,7-8,10-11H2,1-4H3/t17-,18+,21-
InChIKey=NLCHZBRUFDXGSA-RMFSNUHRSA-N

> <PUBCHEM_SUBSTANCE_SYNONYM>
SCHEMBL16115232

> <PUBCHEM_XREF_EXT_ID>
SCHEMBL16115232

> <PUBCHEM_EXT_DATASOURCE_URL>
https://www.surechembl.org/

> <PUBCHEM_EXT_SUBSTANCE_URL>
https://www.surechembl.org/chemical/SCHEMBL16115232

> <PUBCHEM_CID_ASSOCIATIONS>
117605206  1

> <PUBCHEM_COORDINATE_TYPE>
1
3

> <PUBCHEM_BONDANNOTATIONS>
6  15  6
7  9  5
8  10  6

$$$$
