310930363
  -OEChem-07211613022D

 23 24  0     1  0  0  0  0  0999 V2000
    6.6508   -0.5399    0.0000 S   0  0  0  0  0  0  0  0  0  0  0  0
    5.2274   -0.5399    0.0000 O   0  0  0  0  0  0  0  0  0  0  0  0
    3.8040   -1.3743    0.0000 N   0  0  0  0  0  0  0  0  0  0  0  0
    4.5157   -1.7670    0.0000 N   0  0  0  0  0  0  0  0  0  0  0  0
    2.8959   -0.3681    0.0000 N   0  0  0  0  0  0  0  0  0  0  0  0
    0.5154   -2.0369    0.0000 N   0  0  0  0  0  0  0  0  0  0  0  0
    2.5033   -1.0798    0.0000 C   0  0  0  0  0  0  0  0  0  0  0  0
    3.7058   -0.5399    0.0000 C   0  0  0  0  0  0  0  0  0  0  0  0
    3.0431   -1.6934    0.0000 C   0  0  0  0  0  0  0  0  0  0  0  0
    1.6688   -1.1780    0.0000 C   0  0  0  0  0  0  0  0  0  0  0  0
    5.2274   -1.3743    0.0000 C   0  0  0  0  0  0  0  0  0  0  0  0
    4.5157   -2.6014    0.0000 C   0  0  0  0  0  0  0  0  0  0  0  0
    1.3252   -1.9388    0.0000 C   0  0  0  0  0  0  0  0  0  0  0  0
    1.1534   -0.5154    0.0000 C   0  0  0  0  0  0  0  0  0  0  0  0
    4.3193    0.0000    0.0000 C   0  0  0  0  0  0  0  0  0  0  0  0
    5.9391   -1.7670    0.0000 C   0  0  0  0  0  0  0  0  0  0  0  0
    6.6508   -1.3743    0.0000 C   0  0  3  0  0  0  0  0  0  0  0  0
    0.3681   -0.6135    0.0000 C   0  0  0  0  0  0  0  0  0  0  0  0
    5.2274   -3.0187    0.0000 C   0  0  0  0  0  0  0  0  0  0  0  0
    0.0000   -1.3743    0.0000 C   0  0  0  0  0  0  0  0  0  0  0  0
    7.3625   -1.7670    0.0000 C   0  0  0  0  0  0  0  0  0  0  0  0
    5.9391   -2.6014    0.0000 C   0  0  0  0  0  0  0  0  0  0  0  0
    5.9391   -0.1227    0.0000 C   0  0  0  0  0  0  0  0  0  0  0  0
  1 17  1  0  0  0  0
  1 23  1  0  0  0  0
  2 11  2  0  0  0  0
  3  4  1  0  0  0  0
  3  8  1  0  0  0  0
  3  9  1  0  0  0  0
  4 11  1  0  0  0  0
  4 12  1  0  0  0  0
  5  7  1  0  0  0  0
  5  8  2  0  0  0  0
  6 13  1  0  0  0  0
  6 20  2  0  0  0  0
  7  9  2  0  0  0  0
  7 10  1  0  0  0  0
  8 15  1  0  0  0  0
 10 13  2  0  0  0  0
 10 14  1  0  0  0  0
 11 16  1  0  0  0  0
 12 19  1  0  0  0  0
 14 18  2  0  0  0  0
 16 17  1  0  0  0  0
 17 21  1  0  0  0  0
 18 20  1  0  0  0  0
 19 22  3  0  0  0  0
M  END
> <PUBCHEM_COMPOUND_ID_TYPE>
0

> <PUBCHEM_TOTAL_CHARGE>
0

> <PUBCHEM_SUBSTANCE_ID>
310930363

> <PUBCHEM_SUBSTANCE_VERSION>
1

> <PUBCHEM_EXT_DATASOURCE_NAME>
4488

> <PUBCHEM_EXT_DATASOURCE_REGID>
SCHEMBL16107648

> <PUBCHEM_SUBSTANCE_COMMENT>
InChI=1S/C17H20N4OS/c1-5-9-20(17(22)10-13(2)23-4)21-12-16(19-14(21)3)15-7-6-8-18-11-15/h1,6-8,11-13H,9-10H2,2-4H3
InChIKey=ROIBVWALBPPZMZ-UHFFFAOYSA-N

> <PUBCHEM_SUBSTANCE_SYNONYM>
SCHEMBL16107648

> <PUBCHEM_XREF_EXT_ID>
SCHEMBL16107648

> <PUBCHEM_EXT_DATASOURCE_URL>
https://www.surechembl.org/

> <PUBCHEM_EXT_SUBSTANCE_URL>
https://www.surechembl.org/chemical/SCHEMBL16107648

> <PUBCHEM_CID_ASSOCIATIONS>
117599522  1

> <PUBCHEM_COORDINATE_TYPE>
1
3

$$$$
