310933559
  -OEChem-07211613022D

 36 40  0     1  0  0  0  0  0999 V2000
    5.3109   -0.0516    0.0000 O   0  0  0  0  0  0  0  0  0  0  0  0
    2.1914   -3.5320    0.0000 O   0  0  0  0  0  0  0  0  0  0  0  0
    7.7344   -2.4235    0.0000 O   0  0  0  0  0  0  0  0  0  0  0  0
    2.4492   -2.2430    0.0000 O   0  0  0  0  0  0  0  0  0  0  0  0
    0.3867   -3.0164    0.0000 O   0  0  0  0  0  0  0  0  0  0  0  0
    6.4196   -1.7532    0.0000 N   0  0  0  0  0  0  0  0  0  0  0  0
    6.4196   -3.0680    0.0000 N   0  0  0  0  0  0  0  0  0  0  0  0
    3.6867   -1.4953    0.0000 N   0  0  0  0  0  0  0  0  0  0  0  0
    6.1102   -0.0516    0.0000 N   0  0  0  0  0  0  0  0  0  0  0  0
    2.6039   -4.2797    0.0000 N   0  0  0  0  0  0  0  0  0  0  0  0
    4.8985   -0.7734    0.0000 C   0  0  3  0  0  0  0  0  0  0  0  0
    4.8985   -1.5984    0.0000 C   0  0  0  0  0  0  0  0  0  0  0  0
    5.6203   -1.9852    0.0000 C   0  0  0  0  0  0  0  0  0  0  0  0
    4.0735   -0.7734    0.0000 C   0  0  0  0  0  0  0  0  0  0  0  0
    5.6203   -2.8617    0.0000 C   0  0  0  0  0  0  0  0  0  0  0  0
    5.7235   -0.7477    0.0000 C   0  0  0  0  0  0  0  0  0  0  0  0
    4.2023   -2.8617    0.0000 C   0  0  0  0  0  0  0  0  0  0  0  0
    4.2023   -1.9852    0.0000 C   0  0  0  0  0  0  0  0  0  0  0  0
    4.8985   -3.2485    0.0000 C   0  0  0  0  0  0  0  0  0  0  0  0
    3.5063   -3.2742    0.0000 C   0  0  0  0  0  0  0  0  0  0  0  0
    6.9094   -2.4235    0.0000 C   0  0  0  0  0  0  0  0  0  0  0  0
    3.6609   -0.0516    0.0000 C   0  0  0  0  0  0  0  0  0  0  0  0
    6.1359   -1.4953    0.0000 C   0  0  0  0  0  0  0  0  0  0  0  0
    2.7328   -2.9391    0.0000 C   0  0  0  0  0  0  0  0  0  0  0  0
    3.4032   -4.0735    0.0000 C   0  0  0  0  0  0  0  0  0  0  0  0
    2.8359   -1.5211    0.0000 C   0  0  0  0  0  0  0  0  0  0  0  0
    2.8102   -0.0773    0.0000 C   0  0  0  0  0  0  0  0  0  0  0  0
    6.9609    0.0000    0.0000 C   0  0  0  0  0  0  0  0  0  0  0  0
    6.9609   -1.4437    0.0000 C   0  0  0  0  0  0  0  0  0  0  0  0
    2.4235   -0.7992    0.0000 C   0  0  0  0  0  0  0  0  0  0  0  0
    7.3477   -0.7219    0.0000 C   0  0  0  0  0  0  0  0  0  0  0  0
    2.5523   -2.1399    0.0000 C   0  0  0  0  0  0  0  0  0  0  0  0
    4.0219   -4.6406    0.0000 C   0  0  0  0  0  0  0  0  0  0  0  0
    1.6242   -2.2687    0.0000 C   0  0  0  0  0  0  0  0  0  0  0  0
    1.2117   -2.9906    0.0000 C   0  0  0  0  0  0  0  0  0  0  0  0
    0.0000   -3.7383    0.0000 C   0  0  0  0  0  0  0  0  0  0  0  0
  1 11  1  0  0  0  0
  2 10  1  0  0  0  0
  2 24  1  0  0  0  0
  3 21  2  0  0  0  0
  4 26  1  0  0  0  0
  4 34  1  0  0  0  0
  5 35  1  0  0  0  0
  5 36  1  0  0  0  0
  6 13  1  0  0  0  0
  6 21  1  0  0  0  0
  7 15  1  0  0  0  0
  7 21  1  0  0  0  0
  8 14  1  0  0  0  0
  8 26  2  0  0  0  0
  9 16  1  0  0  0  0
  9 28  2  0  0  0  0
 10 25  2  0  0  0  0
 11 12  1  0  0  0  0
 11 14  1  0  0  0  0
 11 16  1  0  0  0  0
 12 13  1  0  0  0  0
 12 18  2  0  0  0  0
 13 15  2  0  0  0  0
 14 22  2  0  0  0  0
 15 19  1  0  0  0  0
 16 23  2  0  0  0  0
 17 18  1  0  0  0  0
 17 19  2  0  0  0  0
 17 20  1  0  0  0  0
 20 24  2  0  0  0  0
 20 25  1  0  0  0  0
 22 27  1  0  0  0  0
 23 29  1  0  0  0  0
 24 32  1  0  0  0  0
 25 33  1  0  0  0  0
 26 30  1  0  0  0  0
 27 30  2  0  0  0  0
 28 31  1  0  0  0  0
 29 31  2  0  0  0  0
 34 35  1  0  0  0  0
M  END
> <PUBCHEM_COMPOUND_ID_TYPE>
0

> <PUBCHEM_TOTAL_CHARGE>
0

> <PUBCHEM_SUBSTANCE_ID>
310933559

> <PUBCHEM_SUBSTANCE_VERSION>
1

> <PUBCHEM_EXT_DATASOURCE_NAME>
4488

> <PUBCHEM_EXT_DATASOURCE_REGID>
SCHEMBL16110982

> <PUBCHEM_SUBSTANCE_COMMENT>
InChI=1S/C26H25N5O5/c1-15-23(16(2)36-31-15)17-13-18(24-19(14-17)28-25(32)30-24)26(33,20-7-4-5-10-27-20)21-8-6-9-22(29-21)35-12-11-34-3/h4-10,13-14,33H,11-12H2,1-3H3,(H2,28,30,32)
InChIKey=QKGABAPKSAWPIJ-UHFFFAOYSA-N

> <PUBCHEM_SUBSTANCE_SYNONYM>
SCHEMBL16110982

> <PUBCHEM_XREF_EXT_ID>
SCHEMBL16110982

> <PUBCHEM_EXT_DATASOURCE_URL>
https://www.surechembl.org/

> <PUBCHEM_EXT_SUBSTANCE_URL>
https://www.surechembl.org/chemical/SCHEMBL16110982

> <PUBCHEM_CID_ASSOCIATIONS>
117601943  1

> <PUBCHEM_COORDINATE_TYPE>
1
3

$$$$
