310932968
  -OEChem-07211613022D

 41 45  0     1  0  0  0  0  0999 V2000
    6.0066   -0.7264    0.0000 F   0  0  0  0  0  0  0  0  0  0  0  0
    2.2909   -0.0559    0.0000 O   0  0  0  0  0  0  0  0  0  0  0  0
    5.5596   -2.4026    0.0000 O   0  0  0  0  0  0  0  0  0  0  0  0
    5.2802   -4.0230    0.0000 O   0  0  0  0  0  0  0  0  0  0  0  0
    0.0000   -3.5481    0.0000 O   0  0  0  0  0  0  0  0  0  0  0  0
    3.9113   -4.4700    0.0000 O   0  0  0  0  0  0  0  0  0  0  0  0
    4.2185   -3.0731    0.0000 N   0  0  0  0  0  0  0  0  0  0  0  0
    4.2185   -1.7601    0.0000 N   0  0  0  0  0  0  0  0  0  0  0  0
    3.9113   -0.0279    0.0000 N   0  0  0  0  0  0  0  0  0  0  0  0
    1.4807   -1.4807    0.0000 N   0  0  0  0  0  0  0  0  0  0  0  0
    0.4190   -4.2744    0.0000 N   0  0  0  0  0  0  0  0  0  0  0  0
    2.7100   -0.7543    0.0000 C   0  0  3  0  0  0  0  0  0  0  0  0
    2.7100   -1.5924    0.0000 C   0  0  0  0  0  0  0  0  0  0  0  0
    3.4363   -1.9836    0.0000 C   0  0  0  0  0  0  0  0  0  0  0  0
    3.4363   -2.8496    0.0000 C   0  0  0  0  0  0  0  0  0  0  0  0
    2.0115   -2.8496    0.0000 C   0  0  0  0  0  0  0  0  0  0  0  0
    4.7214   -2.4026    0.0000 C   0  0  0  0  0  0  0  0  0  0  0  0
    2.0115   -1.9836    0.0000 C   0  0  0  0  0  0  0  0  0  0  0  0
    3.5481   -0.7543    0.0000 C   0  0  0  0  0  0  0  0  0  0  0  0
    1.8718   -0.7823    0.0000 C   0  0  0  0  0  0  0  0  0  0  0  0
    2.7100   -3.2407    0.0000 C   0  0  0  0  0  0  0  0  0  0  0  0
    1.3131   -3.2687    0.0000 C   0  0  0  0  0  0  0  0  0  0  0  0
    4.4979   -3.8554    0.0000 C   0  0  0  0  0  0  0  0  0  0  0  0
    0.5588   -2.9335    0.0000 C   0  0  0  0  0  0  0  0  0  0  0  0
    1.2293   -4.0789    0.0000 C   0  0  0  0  0  0  0  0  0  0  0  0
    3.9392   -1.4807    0.0000 C   0  0  0  0  0  0  0  0  0  0  0  0
    1.4807   -0.0559    0.0000 C   0  0  0  0  0  0  0  0  0  0  0  0
    4.7773    0.0000    0.0000 C   0  0  0  0  0  0  0  0  0  0  0  0
    4.7773   -1.4248    0.0000 C   0  0  0  0  0  0  0  0  0  0  0  0
    5.5317   -4.8053    0.0000 C   0  0  0  0  0  0  0  0  0  0  0  0
    5.1684   -0.7264    0.0000 C   0  0  0  0  0  0  0  0  0  0  0  0
    0.6425   -1.5087    0.0000 C   0  0  0  0  0  0  0  0  0  0  0  0
    0.6425   -0.0838    0.0000 C   0  0  0  0  0  0  0  0  0  0  0  0
    5.9507   -1.7042    0.0000 C   0  0  0  0  0  0  0  0  0  0  0  0
    0.2514   -0.7823    0.0000 C   0  0  0  0  0  0  0  0  0  0  0  0
    0.3632   -2.1232    0.0000 C   0  0  0  0  0  0  0  0  0  0  0  0
    1.8439   -4.6377    0.0000 C   0  0  0  0  0  0  0  0  0  0  0  0
    4.7494   -5.0847    0.0000 C   0  0  0  0  0  0  0  0  0  0  0  0
    5.8110   -5.5875    0.0000 C   0  0  0  0  0  0  0  0  0  0  0  0
    6.3139   -4.5538    0.0000 C   0  0  0  0  0  0  0  0  0  0  0  0
    5.5596   -0.9778    0.0000 C   0  0  0  0  0  0  0  0  0  0  0  0
  1 31  1  0  0  0  0
  2 12  1  0  0  0  0
  3 17  1  0  0  0  0
  3 34  1  0  0  0  0
  4 23  1  0  0  0  0
  4 30  1  0  0  0  0
  5 11  1  0  0  0  0
  5 24  1  0  0  0  0
  6 23  2  0  0  0  0
  7 15  1  0  0  0  0
  7 17  1  0  0  0  0
  7 23  1  0  0  0  0
  8 14  1  0  0  0  0
  8 17  2  0  0  0  0
  9 19  1  0  0  0  0
  9 28  2  0  0  0  0
 10 20  1  0  0  0  0
 10 32  2  0  0  0  0
 11 25  2  0  0  0  0
 12 13  1  0  0  0  0
 12 19  1  0  0  0  0
 12 20  1  0  0  0  0
 13 14  1  0  0  0  0
 13 18  2  0  0  0  0
 14 15  2  0  0  0  0
 15 21  1  0  0  0  0
 16 18  1  0  0  0  0
 16 21  2  0  0  0  0
 16 22  1  0  0  0  0
 19 26  2  0  0  0  0
 20 27  2  0  0  0  0
 22 24  2  0  0  0  0
 22 25  1  0  0  0  0
 24 36  1  0  0  0  0
 25 37  1  0  0  0  0
 26 29  1  0  0  0  0
 27 33  1  0  0  0  0
 28 31  1  0  0  0  0
 29 31  2  0  0  0  0
 30 38  1  0  0  0  0
 30 39  1  0  0  0  0
 30 40  1  0  0  0  0
 32 35  1  0  0  0  0
 33 35  2  0  0  0  0
 34 41  1  0  0  0  0
M  END
> <PUBCHEM_COMPOUND_ID_TYPE>
0

> <PUBCHEM_TOTAL_CHARGE>
0

> <PUBCHEM_SUBSTANCE_ID>
310932968

> <PUBCHEM_SUBSTANCE_VERSION>
1

> <PUBCHEM_EXT_DATASOURCE_NAME>
4488

> <PUBCHEM_EXT_DATASOURCE_REGID>
SCHEMBL16110364

> <PUBCHEM_SUBSTANCE_COMMENT>
InChI=1S/C30H30FN5O5/c1-7-39-27-34-26-21(30(38,23-10-8-9-13-32-23)24-12-11-20(31)16-33-24)14-19(25-17(2)35-41-18(25)3)15-22(26)36(27)28(37)40-29(4,5)6/h8-16,38H,7H2,1-6H3
InChIKey=WEHCERUXQMAXSC-UHFFFAOYSA-N

> <PUBCHEM_SUBSTANCE_SYNONYM>
SCHEMBL16110364

> <PUBCHEM_XREF_EXT_ID>
SCHEMBL16110364

> <PUBCHEM_EXT_DATASOURCE_URL>
https://www.surechembl.org/

> <PUBCHEM_EXT_SUBSTANCE_URL>
https://www.surechembl.org/chemical/SCHEMBL16110364

> <PUBCHEM_CID_ASSOCIATIONS>
117601445  1

> <PUBCHEM_COORDINATE_TYPE>
1
3

$$$$
