310933358
  -OEChem-07211613022D

 18 19  0     1  0  0  0  0  0999 V2000
    2.8618    0.0000    0.0000 Cl  0  0  0  0  0  0  0  0  0  0  0  0
    2.8618   -1.6501    0.0000 F   0  0  0  0  0  0  0  0  0  0  0  0
    0.0258   -1.6501    0.0000 F   0  0  0  0  0  0  0  0  0  0  0  0
    0.0000   -2.7071    0.0000 O   0  0  0  0  0  0  0  0  0  0  0  0
    2.0110   -5.1564    0.0000 O   0  0  0  0  0  0  0  0  0  0  0  0
    3.1454   -4.3056    0.0000 O   0  0  0  0  0  0  0  0  0  0  0  0
    1.4438   -2.4751    0.0000 N   0  0  0  0  0  0  0  0  0  0  0  0
    1.4438   -1.6501    0.0000 C   0  0  0  0  0  0  0  0  0  0  0  0
    2.1657   -1.2375    0.0000 C   0  0  0  0  0  0  0  0  0  0  0  0
    0.7735   -2.9649    0.0000 C   0  0  0  0  0  0  0  0  0  0  0  0
    0.7219   -1.2375    0.0000 C   0  0  0  0  0  0  0  0  0  0  0  0
    2.1141   -2.9649    0.0000 C   0  0  0  0  0  0  0  0  0  0  0  0
    1.8563   -3.7384    0.0000 C   0  0  3  0  0  0  0  0  0  0  0  0
    2.1657   -0.4125    0.0000 C   0  0  0  0  0  0  0  0  0  0  0  0
    1.0313   -3.7384    0.0000 C   0  0  0  0  0  0  0  0  0  0  0  0
    0.7219   -0.4125    0.0000 C   0  0  0  0  0  0  0  0  0  0  0  0
    1.4438    0.0000    0.0000 C   0  0  0  0  0  0  0  0  0  0  0  0
    2.3462   -4.4087    0.0000 C   0  0  0  0  0  0  0  0  0  0  0  0
  1 14  1  0  0  0  0
  2  9  1  0  0  0  0
  3 11  1  0  0  0  0
  4 10  2  0  0  0  0
  5 18  2  0  0  0  0
  6 18  1  0  0  0  0
  7  8  1  0  0  0  0
  7 10  1  0  0  0  0
  7 12  1  0  0  0  0
  8  9  1  0  0  0  0
  8 11  2  0  0  0  0
  9 14  2  0  0  0  0
 10 15  1  0  0  0  0
 11 16  1  0  0  0  0
 12 13  1  0  0  0  0
 13 15  1  0  0  0  0
 13 18  1  0  0  0  0
 14 17  1  0  0  0  0
 16 17  2  0  0  0  0
M  END
> <PUBCHEM_COMPOUND_ID_TYPE>
0

> <PUBCHEM_TOTAL_CHARGE>
0

> <PUBCHEM_SUBSTANCE_ID>
310933358

> <PUBCHEM_SUBSTANCE_VERSION>
1

> <PUBCHEM_EXT_DATASOURCE_NAME>
4488

> <PUBCHEM_EXT_DATASOURCE_REGID>
SCHEMBL16110771

> <PUBCHEM_SUBSTANCE_COMMENT>
InChI=1S/C11H8ClF2NO3/c12-6-1-2-7(13)10(9(6)14)15-4-5(11(17)18)3-8(15)16/h1-2,5H,3-4H2,(H,17,18)
InChIKey=LOVSHVNDCFKNGS-UHFFFAOYSA-N

> <PUBCHEM_SUBSTANCE_SYNONYM>
SCHEMBL16110771

> <PUBCHEM_XREF_EXT_ID>
SCHEMBL16110771

> <PUBCHEM_EXT_DATASOURCE_URL>
https://www.surechembl.org/

> <PUBCHEM_EXT_SUBSTANCE_URL>
https://www.surechembl.org/chemical/SCHEMBL16110771

> <PUBCHEM_CID_ASSOCIATIONS>
117601769  1

> <PUBCHEM_COORDINATE_TYPE>
1
3

$$$$
