310941148
  -OEChem-07211613022D

 41 44  0     1  0  0  0  0  0999 V2000
    5.0327   -0.9419    0.0000 O   0  0  0  0  0  0  0  0  0  0  0  0
    3.9052    1.0107    0.0000 O   0  0  0  0  0  0  0  0  0  0  0  0
    1.7600   -1.0519    0.0000 O   0  0  0  0  0  0  0  0  0  0  0  0
   -0.3712    1.0107    0.0000 O   0  0  0  0  0  0  0  0  0  0  0  0
    3.9052    2.6608    0.0000 O   0  0  0  0  0  0  0  0  0  0  0  0
   -2.5164   -1.0519    0.0000 O   0  0  0  0  0  0  0  0  0  0  0  0
   -5.3627   -1.0519    0.0000 O   0  0  0  0  0  0  0  0  0  0  0  0
    2.4889    0.1856    0.0000 N   0  0  0  0  0  0  0  0  0  0  0  0
    0.3437   -0.2269    0.0000 N   0  0  0  0  0  0  0  0  0  0  0  0
   -1.8013    0.1856    0.0000 N   0  0  0  0  0  0  0  0  0  0  0  0
   -3.9327   -0.2269    0.0000 N   0  0  0  0  0  0  0  0  0  0  0  0
    4.6202   -0.2131    0.0000 C   0  0  3  0  0  0  0  0  0  0  0  0
    3.9052    0.1856    0.0000 C   0  0  0  0  0  0  0  0  0  0  0  0
    4.2214   -0.9007    0.0000 C   0  0  0  0  0  0  0  0  0  0  0  0
    3.2039   -0.1994    0.0000 C   0  0  3  0  0  0  0  0  0  0  0  0
    3.2039   -1.0244    0.0000 C   0  0  0  0  0  0  0  0  0  0  0  0
    5.3627    0.2131    0.0000 C   0  0  0  0  0  0  0  0  0  0  0  0
    1.7738   -0.1856    0.0000 C   0  0  0  0  0  0  0  0  0  0  0  0
    1.0451    0.2131    0.0000 C   0  0  3  0  0  0  0  0  0  0  0  0
    3.9189   -1.4507    0.0000 C   0  0  0  0  0  0  0  0  0  0  0  0
    2.5026   -1.4507    0.0000 C   0  0  0  0  0  0  0  0  0  0  0  0
    1.0726    1.0382    0.0000 C   0  0  0  0  0  0  0  0  0  0  0  0
    3.9189   -2.2620    0.0000 C   0  0  0  0  0  0  0  0  0  0  0  0
    2.5026   -2.2757    0.0000 C   0  0  0  0  0  0  0  0  0  0  0  0
    1.7738    1.4507    0.0000 C   0  0  0  0  0  0  0  0  0  0  0  0
   -0.3712    0.1856    0.0000 C   0  0  0  0  0  0  0  0  0  0  0  0
    3.2039   -2.6745    0.0000 C   0  0  0  0  0  0  0  0  0  0  0  0
   -1.0726   -0.1994    0.0000 C   0  0  3  0  0  0  0  0  0  0  0  0
    2.4889    1.0382    0.0000 C   0  0  0  0  0  0  0  0  0  0  0  0
    1.7876    2.2757    0.0000 C   0  0  0  0  0  0  0  0  0  0  0  0
    3.2039    2.2757    0.0000 C   0  0  0  0  0  0  0  0  0  0  0  0
    3.2039    1.4507    0.0000 C   0  0  0  0  0  0  0  0  0  0  0  0
    2.4751    2.6745    0.0000 C   0  0  0  0  0  0  0  0  0  0  0  0
   -2.5026   -0.1856    0.0000 C   0  0  0  0  0  0  0  0  0  0  0  0
   -3.2314    0.1994    0.0000 C   0  0  0  0  0  0  0  0  0  0  0  0
   -1.0863   -1.0382    0.0000 C   0  0  0  0  0  0  0  0  0  0  0  0
   -3.9327   -1.0244    0.0000 C   0  0  0  0  0  0  0  0  0  0  0  0
   -4.6752    0.1994    0.0000 C   0  0  0  0  0  0  0  0  0  0  0  0
   -4.6339   -1.4369    0.0000 C   0  0  0  0  0  0  0  0  0  0  0  0
   -5.3490   -0.1994    0.0000 C   0  0  0  0  0  0  0  0  0  0  0  0
    4.6339    2.2482    0.0000 C   0  0  0  0  0  0  0  0  0  0  0  0
  1 12  1  0  0  0  0
  1 14  1  0  0  0  0
  2 13  2  0  0  0  0
  3 18  2  0  0  0  0
  4 26  2  0  0  0  0
  5 31  1  0  0  0  0
  5 41  1  0  0  0  0
  6 34  2  0  0  0  0
  7 39  1  0  0  0  0
  7 40  1  0  0  0  0
  8 15  1  0  0  0  0
  8 18  1  0  0  0  0
  9 19  1  0  0  0  0
  9 26  1  0  0  0  0
 10 28  1  0  0  0  0
 10 34  1  0  0  0  0
 11 35  1  0  0  0  0
 11 37  1  0  0  0  0
 11 38  1  0  0  0  0
 12 13  1  0  0  0  0
 12 14  1  0  0  0  0
 12 17  1  0  0  0  0
 13 15  1  0  0  0  0
 15 16  1  0  0  0  0
 16 20  2  0  0  0  0
 16 21  1  0  0  0  0
 18 19  1  0  0  0  0
 19 22  1  0  0  0  0
 20 23  1  0  0  0  0
 21 24  2  0  0  0  0
 22 25  1  0  0  0  0
 23 27  2  0  0  0  0
 24 27  1  0  0  0  0
 25 29  2  0  0  0  0
 25 30  1  0  0  0  0
 26 28  1  0  0  0  0
 28 36  1  0  0  0  0
 29 32  1  0  0  0  0
 30 33  2  0  0  0  0
 31 32  2  0  0  0  0
 31 33  1  0  0  0  0
 34 35  1  0  0  0  0
 37 39  1  0  0  0  0
 38 40  1  0  0  0  0
M  END
> <PUBCHEM_COMPOUND_ID_TYPE>
0

> <PUBCHEM_TOTAL_CHARGE>
0

> <PUBCHEM_SUBSTANCE_ID>
310941148

> <PUBCHEM_SUBSTANCE_VERSION>
1

> <PUBCHEM_EXT_DATASOURCE_NAME>
4488

> <PUBCHEM_EXT_DATASOURCE_REGID>
SCHEMBL16119108

> <PUBCHEM_SUBSTANCE_COMMENT>
InChI=1S/C30H38N4O7/c1-20(31-25(35)18-34-13-15-40-16-14-34)28(37)32-24(17-21-9-11-23(39-3)12-10-21)29(38)33-26(22-7-5-4-6-8-22)27(36)30(2)19-41-30/h4-12,20,24,26H,13-19H2,1-3H3,(H,31,35)(H,32,37)(H,33,38)
InChIKey=FHWUEKAEAFGZOC-UHFFFAOYSA-N

> <PUBCHEM_SUBSTANCE_SYNONYM>
SCHEMBL16119108

> <PUBCHEM_XREF_EXT_ID>
SCHEMBL16119108

> <PUBCHEM_EXT_DATASOURCE_URL>
https://www.surechembl.org/

> <PUBCHEM_EXT_SUBSTANCE_URL>
https://www.surechembl.org/chemical/SCHEMBL16119108

> <PUBCHEM_CID_ASSOCIATIONS>
117608029  1

> <PUBCHEM_COORDINATE_TYPE>
1
3

$$$$
