310931826
  -OEChem-07211613022D

 18 19  0     1  0  0  0  0  0999 V2000
    0.0000   -2.7709    0.0000 Br  0  0  0  0  0  0  0  0  0  0  0  0
    3.5246   -1.4631    0.0000 O   0  0  0  0  0  0  0  0  0  0  0  0
    4.3005   -1.9507    0.0000 O   0  0  0  0  0  0  0  0  0  0  0  0
    5.0098   -3.1921    0.0000 O   0  0  0  0  0  0  0  0  0  0  0  0
    2.1946   -1.4631    0.0000 N   0  0  0  0  0  0  0  0  0  0  0  0
    2.4384   -0.6872    0.0000 N   0  0  0  0  0  0  0  0  0  0  0  0
    1.4187   -4.4335    0.0000 N   0  0  0  0  0  0  0  0  0  0  0  0
    2.8596   -2.7709    0.0000 C   0  0  3  0  0  0  0  0  0  0  0  0
    2.8596   -1.9507    0.0000 C   0  0  0  0  0  0  0  0  0  0  0  0
    2.1502   -3.1921    0.0000 C   0  0  0  0  0  0  0  0  0  0  0  0
    3.2808   -0.6650    0.0000 C   0  0  0  0  0  0  0  0  0  0  0  0
    3.5689   -3.1921    0.0000 C   0  0  0  0  0  0  0  0  0  0  0  0
    1.3965   -2.7931    0.0000 C   0  0  0  0  0  0  0  0  0  0  0  0
    2.1281   -4.0345    0.0000 C   0  0  0  0  0  0  0  0  0  0  0  0
    0.7094   -3.1921    0.0000 C   0  0  0  0  0  0  0  0  0  0  0  0
    4.3005   -2.7709    0.0000 C   0  0  0  0  0  0  0  0  0  0  0  0
    0.6872   -4.0345    0.0000 C   0  0  0  0  0  0  0  0  0  0  0  0
    3.7685    0.0000    0.0000 C   0  0  0  0  0  0  0  0  0  0  0  0
  1 15  1  0  0  0  0
  2  9  1  0  0  0  0
  2 11  1  0  0  0  0
  3 16  2  0  0  0  0
  4 16  1  0  0  0  0
  5  6  1  0  0  0  0
  5  9  2  0  0  0  0
  6 11  2  0  0  0  0
  7 14  1  0  0  0  0
  7 17  2  0  0  0  0
  8  9  1  0  0  0  0
  8 10  1  0  0  0  0
  8 12  1  0  0  0  0
 10 13  1  0  0  0  0
 10 14  2  0  0  0  0
 11 18  1  0  0  0  0
 12 16  1  0  0  0  0
 13 15  2  0  0  0  0
 15 17  1  0  0  0  0
M  END
> <PUBCHEM_COMPOUND_ID_TYPE>
0

> <PUBCHEM_TOTAL_CHARGE>
0

> <PUBCHEM_SUBSTANCE_ID>
310931826

> <PUBCHEM_SUBSTANCE_VERSION>
1

> <PUBCHEM_EXT_DATASOURCE_NAME>
4488

> <PUBCHEM_EXT_DATASOURCE_REGID>
SCHEMBL16109159

> <PUBCHEM_SUBSTANCE_COMMENT>
InChI=1S/C11H10BrN3O3/c1-6-14-15-11(18-6)9(3-10(16)17)7-2-8(12)5-13-4-7/h2,4-5,9H,3H2,1H3,(H,16,17)
InChIKey=VRKAMMFEAWEFQK-UHFFFAOYSA-N

> <PUBCHEM_SUBSTANCE_SYNONYM>
SCHEMBL16109159

> <PUBCHEM_XREF_EXT_ID>
SCHEMBL16109159

> <PUBCHEM_EXT_DATASOURCE_URL>
https://www.surechembl.org/

> <PUBCHEM_EXT_SUBSTANCE_URL>
https://www.surechembl.org/chemical/SCHEMBL16109159

> <PUBCHEM_CID_ASSOCIATIONS>
117600499  1

> <PUBCHEM_COORDINATE_TYPE>
1
3

$$$$
