310936502
  -OEChem-07211613022D

 21 21  0     1  0  0  0  0  0999 V2000
    2.0421   -2.0648    0.0000 P   0  0  3  0  0  0  0  0  0  0  0  0
    1.2253   -2.0648    0.0000 O   0  0  0  0  0  0  0  0  0  0  0  0
    2.8816   -2.0648    0.0000 O   0  0  0  0  0  0  0  0  0  0  0  0
    3.4942   -1.2479    0.0000 O   0  0  0  0  0  0  0  0  0  0  0  0
    2.7682    0.0000    0.0000 O   0  0  0  0  0  0  0  0  0  0  0  0
    2.0421   -1.2479    0.0000 C   0  0  0  0  0  0  0  0  0  0  0  0
    2.0421   -2.8816    0.0000 C   0  0  0  0  0  0  0  0  0  0  0  0
    2.7682   -0.8168    0.0000 C   0  0  0  0  0  0  0  0  0  0  0  0
    1.3387   -0.8168    0.0000 C   0  0  0  0  0  0  0  0  0  0  0  0
    2.0421   -0.4084    0.0000 C   0  0  0  0  0  0  0  0  0  0  0  0
    2.7682   -3.3128    0.0000 C   0  0  0  0  0  0  0  0  0  0  0  0
    1.3387   -3.3128    0.0000 C   0  0  0  0  0  0  0  0  0  0  0  0
    0.8168   -1.3387    0.0000 C   0  0  0  0  0  0  0  0  0  0  0  0
    2.7682   -4.1296    0.0000 C   0  0  0  0  0  0  0  0  0  0  0  0
    1.3387   -4.1296    0.0000 C   0  0  0  0  0  0  0  0  0  0  0  0
    4.1976   -0.8168    0.0000 C   0  0  0  0  0  0  0  0  0  0  0  0
    2.0421   -4.5380    0.0000 C   0  0  0  0  0  0  0  0  0  0  0  0
    1.2253   -0.6353    0.0000 C   0  0  0  0  0  0  0  0  0  0  0  0
    0.0000   -1.3387    0.0000 C   0  0  0  0  0  0  0  0  0  0  0  0
    4.1976    0.0000    0.0000 C   0  0  0  0  0  0  0  0  0  0  0  0
    4.9010   -1.2479    0.0000 C   0  0  0  0  0  0  0  0  0  0  0  0
  1  2  1  0  0  0  0
  1  3  2  0  0  0  0
  1  6  1  0  0  0  0
  1  7  1  0  0  0  0
  2 13  1  0  0  0  0
  4  8  1  0  0  0  0
  4 16  1  0  0  0  0
  5  8  2  0  0  0  0
  6  8  1  0  0  0  0
  6  9  1  0  0  0  0
  6 10  1  0  0  0  0
  7 11  2  0  0  0  0
  7 12  1  0  0  0  0
 11 14  1  0  0  0  0
 12 15  2  0  0  0  0
 13 18  1  0  0  0  0
 13 19  1  0  0  0  0
 14 17  2  0  0  0  0
 15 17  1  0  0  0  0
 16 20  1  0  0  0  0
 16 21  1  0  0  0  0
M  END
> <PUBCHEM_COMPOUND_ID_TYPE>
0

> <PUBCHEM_TOTAL_CHARGE>
0

> <PUBCHEM_SUBSTANCE_ID>
310936502

> <PUBCHEM_SUBSTANCE_VERSION>
1

> <PUBCHEM_EXT_DATASOURCE_NAME>
4488

> <PUBCHEM_EXT_DATASOURCE_REGID>
SCHEMBL16114153

> <PUBCHEM_SUBSTANCE_COMMENT>
InChI=1S/C16H25O4P/c1-12(2)19-15(17)16(5,6)21(18,20-13(3)4)14-10-8-7-9-11-14/h7-13H,1-6H3
InChIKey=KZYLBQTZXPQUSL-UHFFFAOYSA-N

> <PUBCHEM_SUBSTANCE_SYNONYM>
SCHEMBL16114153

> <PUBCHEM_XREF_EXT_ID>
SCHEMBL16114153

> <PUBCHEM_EXT_DATASOURCE_URL>
https://www.surechembl.org/

> <PUBCHEM_EXT_SUBSTANCE_URL>
https://www.surechembl.org/chemical/SCHEMBL16114153

> <PUBCHEM_CID_ASSOCIATIONS>
117604429  1

> <PUBCHEM_COORDINATE_TYPE>
1
3

$$$$
