310943198
  -OEChem-07211613022D

 16 18  0     1  0  0  0  0  0999 V2000
    2.1580    0.6335    0.0000 Br  0  0  0  0  0  0  0  0  0  0  0  0
   -2.1580    1.4730    0.0000 O   0  0  0  0  0  0  0  0  0  0  0  0
   -0.7145   -1.0459    0.0000 O   0  0  0  0  0  0  0  0  0  0  0  0
   -0.7292    0.6335    0.0000 N   0  0  0  0  0  0  0  0  0  0  0  0
    0.7145   -1.0312    0.0000 N   0  0  0  0  0  0  0  0  0  0  0  0
    0.0074    0.2209    0.0000 C   0  0  0  0  0  0  0  0  0  0  0  0
   -2.1433    0.6482    0.0000 C   0  0  3  0  0  0  0  0  0  0  0  0
   -1.4362    1.8855    0.0000 C   0  0  3  0  0  0  0  0  0  0  0  0
    0.0074   -0.6040    0.0000 C   0  0  0  0  0  0  0  0  0  0  0  0
   -0.7292    1.4730    0.0000 C   0  0  0  0  0  0  0  0  0  0  0  0
   -1.4214    0.2209    0.0000 C   0  0  0  0  0  0  0  0  0  0  0  0
   -1.4509    1.0606    0.0000 C   0  0  0  0  0  0  0  0  0  0  0  0
    0.6997    0.6335    0.0000 C   0  0  0  0  0  0  0  0  0  0  0  0
    1.4509    0.2209    0.0000 C   0  0  0  0  0  0  0  0  0  0  0  0
    1.4362   -0.6187    0.0000 C   0  0  0  0  0  0  0  0  0  0  0  0
    0.7292   -1.8855    0.0000 C   0  0  0  0  0  0  0  0  0  0  0  0
  1 14  1  0  0  0  0
  2  7  1  0  0  0  0
  2  8  1  0  0  0  0
  3  9  2  0  0  0  0
  4  6  1  0  0  0  0
  4 10  1  0  0  0  0
  4 11  1  0  0  0  0
  5  9  1  0  0  0  0
  5 15  1  0  0  0  0
  5 16  1  0  0  0  0
  6  9  1  0  0  0  0
  6 13  2  0  0  0  0
  7 11  1  0  0  0  0
  7 12  1  0  0  0  0
  8 10  1  0  0  0  0
  8 12  1  0  0  0  0
 13 14  1  0  0  0  0
 14 15  2  0  0  0  0
M  END
> <PUBCHEM_COMPOUND_ID_TYPE>
0

> <PUBCHEM_TOTAL_CHARGE>
0

> <PUBCHEM_SUBSTANCE_ID>
310943198

> <PUBCHEM_SUBSTANCE_VERSION>
1

> <PUBCHEM_EXT_DATASOURCE_NAME>
4488

> <PUBCHEM_EXT_DATASOURCE_REGID>
SCHEMBL16121259

> <PUBCHEM_SUBSTANCE_COMMENT>
InChI=1S/C11H13BrN2O2/c1-13-4-7(12)2-10(11(13)15)14-5-8-3-9(6-14)16-8/h2,4,8-9H,3,5-6H2,1H3
InChIKey=VQBFGPZRZPXEPZ-UHFFFAOYSA-N

> <PUBCHEM_SUBSTANCE_SYNONYM>
SCHEMBL16121259

> <PUBCHEM_XREF_EXT_ID>
SCHEMBL16121259

> <PUBCHEM_EXT_DATASOURCE_URL>
https://www.surechembl.org/

> <PUBCHEM_EXT_SUBSTANCE_URL>
https://www.surechembl.org/chemical/SCHEMBL16121259

> <PUBCHEM_CID_ASSOCIATIONS>
117609624  1

> <PUBCHEM_COORDINATE_TYPE>
1
3

$$$$
