310943700
  -OEChem-07211613022D

 38 42  0     1  0  0  0  0  0999 V2000
    4.2938    2.1359    0.0000 F   0  0  0  0  0  0  0  0  0  0  0  0
    5.3838    1.8413    0.0000 F   0  0  0  0  0  0  0  0  0  0  0  0
    5.0598    0.7513    0.0000 F   0  0  0  0  0  0  0  0  0  0  0  0
   -3.2186   -1.4583    0.0000 O   0  0  0  0  0  0  0  0  0  0  0  0
   -1.7897   -2.2979    0.0000 O   0  0  0  0  0  0  0  0  0  0  0  0
    1.8044    2.2684    0.0000 O   0  0  0  0  0  0  0  0  0  0  0  0
   -5.3838    2.2684    0.0000 O   0  0  0  0  0  0  0  0  0  0  0  0
   -3.2333    0.2062    0.0000 N   0  0  0  0  0  0  0  0  0  0  0  0
   -3.9403    1.4436    0.0000 N   0  0  0  0  0  0  0  0  0  0  0  0
   -0.3462    2.6956    0.0000 N   0  0  0  0  0  0  0  0  0  0  0  0
    1.0827    1.0311    0.0000 N   0  0  0  0  0  0  0  0  0  0  0  0
    3.9697    0.2062    0.0000 N   0  0  0  0  0  0  0  0  0  0  0  0
   -1.7750    1.0311    0.0000 C   0  0  0  0  0  0  0  0  0  0  0  0
   -1.0827    1.4583    0.0000 C   0  0  0  0  0  0  0  0  0  0  0  0
   -2.4967   -0.2062    0.0000 C   0  0  0  0  0  0  0  0  0  0  0  0
   -3.2186    1.0458    0.0000 C   0  0  0  0  0  0  0  0  0  0  0  0
   -1.7897    0.2062    0.0000 C   0  0  0  0  0  0  0  0  0  0  0  0
   -2.5114    1.4436    0.0000 C   0  0  0  0  0  0  0  0  0  0  0  0
   -1.0679    2.2832    0.0000 C   0  0  0  0  0  0  0  0  0  0  0  0
   -0.3314    1.0458    0.0000 C   0  0  0  0  0  0  0  0  0  0  0  0
    0.3609    1.4583    0.0000 C   0  0  0  0  0  0  0  0  0  0  0  0
   -2.5114   -1.0311    0.0000 C   0  0  3  0  0  0  0  0  0  0  0  0
    2.5262    1.0458    0.0000 C   0  0  0  0  0  0  0  0  0  0  0  0
    1.8044    1.4288    0.0000 C   0  0  0  0  0  0  0  0  0  0  0  0
    3.9697    1.0458    0.0000 C   0  0  0  0  0  0  0  0  0  0  0  0
    0.3756    2.2832    0.0000 C   0  0  0  0  0  0  0  0  0  0  0  0
    4.6768    1.4436    0.0000 C   0  0  0  0  0  0  0  0  0  0  0  0
    3.2333    1.4436    0.0000 C   0  0  0  0  0  0  0  0  0  0  0  0
   -1.7897   -1.4583    0.0000 C   0  0  0  0  0  0  0  0  0  0  0  0
   -3.9403    2.2832    0.0000 C   0  0  0  0  0  0  0  0  0  0  0  0
   -4.6473    1.0458    0.0000 C   0  0  0  0  0  0  0  0  0  0  0  0
    2.5262    0.2062    0.0000 C   0  0  0  0  0  0  0  0  0  0  0  0
   -1.7897    2.6808    0.0000 C   0  0  0  0  0  0  0  0  0  0  0  0
    3.2627   -0.2062    0.0000 C   0  0  0  0  0  0  0  0  0  0  0  0
   -3.2186   -2.2979    0.0000 C   0  0  0  0  0  0  0  0  0  0  0  0
   -4.6621    2.6956    0.0000 C   0  0  0  0  0  0  0  0  0  0  0  0
   -5.3838    1.4583    0.0000 C   0  0  0  0  0  0  0  0  0  0  0  0
   -2.4967   -2.6956    0.0000 C   0  0  0  0  0  0  0  0  0  0  0  0
  1 27  1  0  0  0  0
  2 27  1  0  0  0  0
  3 27  1  0  0  0  0
  4 22  1  0  0  0  0
  4 35  1  0  0  0  0
  5 29  1  0  0  0  0
  5 38  1  0  0  0  0
  6 24  2  0  0  0  0
  7 36  1  0  0  0  0
  7 37  1  0  0  0  0
  8 15  1  0  0  0  0
  8 16  2  0  0  0  0
  9 16  1  0  0  0  0
  9 30  1  0  0  0  0
  9 31  1  0  0  0  0
 10 19  2  0  0  0  0
 10 26  1  0  0  0  0
 11 21  1  0  0  0  0
 11 24  1  0  0  0  0
 12 25  1  0  0  0  0
 12 34  2  0  0  0  0
 13 14  1  0  0  0  0
 13 17  1  0  0  0  0
 13 18  2  0  0  0  0
 14 19  1  0  0  0  0
 14 20  2  0  0  0  0
 15 17  2  0  0  0  0
 15 22  1  0  0  0  0
 16 18  1  0  0  0  0
 19 33  1  0  0  0  0
 20 21  1  0  0  0  0
 21 26  2  0  0  0  0
 22 29  1  0  0  0  0
 23 24  1  0  0  0  0
 23 28  1  0  0  0  0
 23 32  2  0  0  0  0
 25 27  1  0  0  0  0
 25 28  2  0  0  0  0
 30 36  1  0  0  0  0
 31 37  1  0  0  0  0
 32 34  1  0  0  0  0
 35 38  1  0  0  0  0
M  END
> <PUBCHEM_COMPOUND_ID_TYPE>
0

> <PUBCHEM_TOTAL_CHARGE>
0

> <PUBCHEM_SUBSTANCE_ID>
310943700

> <PUBCHEM_SUBSTANCE_VERSION>
1

> <PUBCHEM_EXT_DATASOURCE_NAME>
4488

> <PUBCHEM_EXT_DATASOURCE_REGID>
SCHEMBL16121768

> <PUBCHEM_SUBSTANCE_COMMENT>
InChI=1S/C26H26F3N5O4/c1-16-20(13-19(14-31-16)32-25(35)17-2-3-30-23(11-17)26(27,28)29)18-10-21(22-15-37-8-9-38-22)33-24(12-18)34-4-6-36-7-5-34/h2-3,10-14,22H,4-9,15H2,1H3,(H,32,35)
InChIKey=BXTLEMLLAJCMKK-UHFFFAOYSA-N

> <PUBCHEM_SUBSTANCE_SYNONYM>
SCHEMBL16121768

> <PUBCHEM_XREF_EXT_ID>
SCHEMBL16121768

> <PUBCHEM_EXT_DATASOURCE_URL>
https://www.surechembl.org/

> <PUBCHEM_EXT_SUBSTANCE_URL>
https://www.surechembl.org/chemical/SCHEMBL16121768

> <PUBCHEM_CID_ASSOCIATIONS>
117610085  1

> <PUBCHEM_COORDINATE_TYPE>
1
3

$$$$
