310940140
  -OEChem-07211613022D

 16 16  0     1  0  0  0  0  0999 V2000
    4.0707   13.1185    0.0000 O   0  0  0  0  0  0  0  0  0  0  0  0
    4.0707    8.9937    0.0000 O   0  0  0  0  0  0  0  0  0  0  0  0
    2.6418   13.1185    0.0000 N   0  0  0  0  0  0  0  0  0  0  0  0
    2.6418    8.9937    0.0000 N   0  0  0  0  0  0  0  0  0  0  0  0
    3.3562   10.2312    0.0000 C   0  0  0  0  0  0  0  0  0  0  0  0
    3.3562   11.8811    0.0000 C   0  0  0  0  0  0  0  0  0  0  0  0
    3.3562   12.7061    0.0000 C   0  0  3  0  0  0  0  0  0  0  0  0
    3.3562    9.4062    0.0000 C   0  0  3  0  0  0  0  0  0  0  0  0
    4.0707   10.6436    0.0000 C   0  0  0  0  0  0  0  0  0  0  0  0
    4.0707   11.4686    0.0000 C   0  0  0  0  0  0  0  0  0  0  0  0
    2.6418   11.4686    0.0000 C   0  0  0  0  0  0  0  0  0  0  0  0
    2.6418   10.6436    0.0000 C   0  0  0  0  0  0  0  0  0  0  0  0
    4.0707   13.9435    0.0000 C   0  0  0  0  0  0  0  0  0  0  0  0
    4.7852    9.4062    0.0000 C   0  0  0  0  0  0  0  0  0  0  0  0
    4.7852   14.3560    0.0000 C   0  0  0  0  0  0  0  0  0  0  0  0
    5.4996    8.9937    0.0000 C   0  0  0  0  0  0  0  0  0  0  0  0
  1  7  1  0  0  0  0
  1 13  1  0  0  0  0
  2  8  1  0  0  0  0
  2 14  1  0  0  0  0
  3  7  1  0  0  0  0
  4  8  1  0  0  0  0
  5  8  1  0  0  0  0
  5  9  2  0  0  0  0
  5 12  1  0  0  0  0
  6  7  1  0  0  0  0
  6 10  2  0  0  0  0
  6 11  1  0  0  0  0
  9 10  1  0  0  0  0
 11 12  2  0  0  0  0
 13 15  1  0  0  0  0
 14 16  1  0  0  0  0
M  END
> <PUBCHEM_COMPOUND_ID_TYPE>
0

> <PUBCHEM_TOTAL_CHARGE>
0

> <PUBCHEM_SUBSTANCE_ID>
310940140

> <PUBCHEM_SUBSTANCE_VERSION>
1

> <PUBCHEM_EXT_DATASOURCE_NAME>
4488

> <PUBCHEM_EXT_DATASOURCE_REGID>
SCHEMBL16118073

> <PUBCHEM_SUBSTANCE_COMMENT>
InChI=1S/C12H20N2O2/c1-3-15-11(13)9-5-7-10(8-6-9)12(14)16-4-2/h5-8,11-12H,3-4,13-14H2,1-2H3
InChIKey=FDCWLKLQUMNCLG-UHFFFAOYSA-N

> <PUBCHEM_SUBSTANCE_SYNONYM>
SCHEMBL16118073

> <PUBCHEM_XREF_EXT_ID>
SCHEMBL16118073

> <PUBCHEM_EXT_DATASOURCE_URL>
https://www.surechembl.org/

> <PUBCHEM_EXT_SUBSTANCE_URL>
https://www.surechembl.org/chemical/SCHEMBL16118073

> <PUBCHEM_CID_ASSOCIATIONS>
117607265  1

> <PUBCHEM_COORDINATE_TYPE>
1
3

$$$$
