310933916
  -OEChem-07211613022D

 25 27  0     1  0  0  0  0  0999 V2000
    4.5238   -0.7571    0.0000 S   0  0  0  0  0  0  0  0  0  0  0  0
    5.3443   -0.8433    0.0000 O   0  0  0  0  0  0  0  0  0  0  0  0
    5.0541   -0.1251    0.0000 O   0  0  0  0  0  0  0  0  0  0  0  0
    5.0591   -2.0820    0.0000 O   0  0  0  0  0  0  0  0  0  0  0  0
    3.4028    0.9168    0.0000 O   0  0  0  0  0  0  0  0  0  0  0  0
    2.7458   -2.7824    0.0000 O   0  0  0  0  0  0  0  0  0  0  0  0
    2.1735   -1.2889    0.0000 N   0  0  0  0  0  0  0  0  0  0  0  0
    3.1479    0.1322    0.0000 N   0  0  0  0  0  0  0  0  0  0  0  0
    1.6512   -1.8639    0.0000 N   0  0  0  0  0  0  0  0  0  0  0  0
    2.9940   -1.3752    0.0000 C   0  0  3  0  0  0  0  0  0  0  0  0
    4.4090   -1.5740    0.0000 C   0  0  3  0  0  0  0  0  0  0  0  0
    3.6441   -1.8831    0.0000 C   0  0  0  0  0  0  0  0  0  0  0  0
    3.1088   -0.5582    0.0000 C   0  0  0  0  0  0  0  0  0  0  0  0
    2.4637   -2.0072    0.0000 C   0  0  0  0  0  0  0  0  0  0  0  0
    3.8737   -0.2492    0.0000 C   0  0  0  0  0  0  0  0  0  0  0  0
    2.3229    0.1322    0.0000 C   0  0  0  0  0  0  0  0  0  0  0  0
    1.8379   -0.5353    0.0000 C   0  0  0  0  0  0  0  0  0  0  0  0
    2.7354    1.4017    0.0000 C   0  0  0  0  0  0  0  0  0  0  0  0
    2.0679    0.9168    0.0000 C   0  0  0  0  0  0  0  0  0  0  0  0
    2.7354    2.2267    0.0000 C   0  0  0  0  0  0  0  0  0  0  0  0
    2.0209    2.6392    0.0000 C   0  0  0  0  0  0  0  0  0  0  0  0
    3.4498    2.6392    0.0000 C   0  0  0  0  0  0  0  0  0  0  0  0
    2.0209    3.4642    0.0000 C   0  0  0  0  0  0  0  0  0  0  0  0
    3.4498    3.4642    0.0000 C   0  0  0  0  0  0  0  0  0  0  0  0
    2.7354    3.8767    0.0000 C   0  0  0  0  0  0  0  0  0  0  0  0
  1  2  2  0  0  0  0
  1  3  2  0  0  0  0
  1 11  1  0  0  0  0
  1 15  1  0  0  0  0
  4 11  1  0  0  0  0
  5  8  1  0  0  0  0
  5 18  1  0  0  0  0
  6 14  2  0  0  0  0
  7 10  1  0  0  0  0
  7 17  1  0  0  0  0
  8 16  2  0  0  0  0
  9 14  1  0  0  0  0
 10 12  1  0  0  0  0
 10 13  1  0  0  0  0
 10 14  1  0  0  0  0
 11 12  1  0  0  0  0
 13 15  1  0  0  0  0
 16 17  1  0  0  0  0
 16 19  1  0  0  0  0
 18 19  2  0  0  0  0
 18 20  1  0  0  0  0
 20 21  2  0  0  0  0
 20 22  1  0  0  0  0
 21 23  1  0  0  0  0
 22 24  2  0  0  0  0
 23 25  2  0  0  0  0
 24 25  1  0  0  0  0
M  END
> <PUBCHEM_COMPOUND_ID_TYPE>
0

> <PUBCHEM_TOTAL_CHARGE>
0

> <PUBCHEM_SUBSTANCE_ID>
310933916

> <PUBCHEM_SUBSTANCE_VERSION>
1

> <PUBCHEM_EXT_DATASOURCE_NAME>
4488

> <PUBCHEM_EXT_DATASOURCE_REGID>
SCHEMBL16111355

> <PUBCHEM_SUBSTANCE_COMMENT>
InChI=1S/C16H19N3O5S/c17-15(21)16(6-7-25(22,23)14(20)9-16)18-10-12-8-13(24-19-12)11-4-2-1-3-5-11/h1-5,8,14,18,20H,6-7,9-10H2,(H2,17,21)
InChIKey=ADAYFHBZOXVYAD-UHFFFAOYSA-N

> <PUBCHEM_SUBSTANCE_SYNONYM>
SCHEMBL16111355

> <PUBCHEM_XREF_EXT_ID>
SCHEMBL16111355

> <PUBCHEM_EXT_DATASOURCE_URL>
https://www.surechembl.org/

> <PUBCHEM_EXT_SUBSTANCE_URL>
https://www.surechembl.org/chemical/SCHEMBL16111355

> <PUBCHEM_CID_ASSOCIATIONS>
117602244  1

> <PUBCHEM_COORDINATE_TYPE>
1
3

$$$$
