310930588
  -OEChem-07211613022D

 31 34  0     1  0  0  0  0  0999 V2000
    6.3235    2.8259    0.0000 S   0  0  0  0  0  0  0  0  0  0  0  0
    6.3706    1.1035    0.0000 S   0  0  0  0  0  0  0  0  0  0  0  0
    4.8946    2.0009    0.0000 F   0  0  0  0  0  0  0  0  0  0  0  0
    4.8946    5.3009    0.0000 F   0  0  0  0  0  0  0  0  0  0  0  0
    3.4656    4.4759    0.0000 O   0  0  0  0  0  0  0  0  0  0  0  0
    5.9110    2.1114    0.0000 O   0  0  0  0  0  0  0  0  0  0  0  0
    6.7360    3.5404    0.0000 O   0  0  0  0  0  0  0  0  0  0  0  0
    7.0380    2.4134    0.0000 N   0  0  0  0  0  0  0  0  0  0  0  0
    7.7054    1.1035    0.0000 N   0  0  0  0  0  0  0  0  0  0  0  0
    6.6255    0.3188    0.0000 N   0  0  0  0  0  0  0  0  0  0  0  0
    0.6078    4.4759    0.0000 N   0  0  0  0  0  0  0  0  0  0  0  0
    5.6091    3.2384    0.0000 C   0  0  0  0  0  0  0  0  0  0  0  0
    4.8946    2.8259    0.0000 C   0  0  0  0  0  0  0  0  0  0  0  0
    4.1801    4.0634    0.0000 C   0  0  0  0  0  0  0  0  0  0  0  0
    5.6091    4.0634    0.0000 C   0  0  0  0  0  0  0  0  0  0  0  0
    4.8946    4.4759    0.0000 C   0  0  0  0  0  0  0  0  0  0  0  0
    4.1801    3.2384    0.0000 C   0  0  0  0  0  0  0  0  0  0  0  0
    7.0380    1.5884    0.0000 C   0  0  0  0  0  0  0  0  0  0  0  0
    2.0367    4.4759    0.0000 C   0  0  3  0  0  0  0  0  0  0  0  0
    2.0367    5.3009    0.0000 C   0  0  3  0  0  0  0  0  0  0  0  0
    2.7512    4.0634    0.0000 C   0  0  0  0  0  0  0  0  0  0  0  0
    2.7512    5.7134    0.0000 C   0  0  0  0  0  0  0  0  0  0  0  0
    1.3222    4.0634    0.0000 C   0  0  0  0  0  0  0  0  0  0  0  0
    7.4505    0.3188    0.0000 C   0  0  0  0  0  0  0  0  0  0  0  0
    1.3222    5.7134    0.0000 C   0  0  0  0  0  0  0  0  0  0  0  0
    2.7512    6.5384    0.0000 C   0  0  0  0  0  0  0  0  0  0  0  0
    3.4656    5.3009    0.0000 C   0  0  0  0  0  0  0  0  0  0  0  0
    0.6078    5.3009    0.0000 C   0  0  0  0  0  0  0  0  0  0  0  0
    3.4656    6.9509    0.0000 C   0  0  0  0  0  0  0  0  0  0  0  0
    4.1801    5.7134    0.0000 C   0  0  0  0  0  0  0  0  0  0  0  0
    4.1801    6.5384    0.0000 C   0  0  0  0  0  0  0  0  0  0  0  0
  1  6  2  0  0  0  0
  1  7  2  0  0  0  0
  1  8  1  0  0  0  0
  1 12  1  0  0  0  0
  2 10  1  0  0  0  0
  2 18  1  0  0  0  0
  3 13  1  0  0  0  0
  4 16  1  0  0  0  0
  5 14  1  0  0  0  0
  5 21  1  0  0  0  0
  8 18  1  0  0  0  0
  9 18  2  0  0  0  0
  9 24  1  0  0  0  0
 10 24  2  0  0  0  0
 11 23  1  0  0  0  0
 11 28  1  0  0  0  0
 12 13  2  0  0  0  0
 12 15  1  0  0  0  0
 13 17  1  0  0  0  0
 14 16  1  0  0  0  0
 14 17  2  0  0  0  0
 15 16  2  0  0  0  0
 19 20  1  0  0  0  0
 19 21  1  0  0  0  0
 19 23  1  0  0  0  0
 20 22  1  0  0  0  0
 20 25  1  0  0  0  0
 22 26  2  0  0  0  0
 22 27  1  0  0  0  0
 25 28  1  0  0  0  0
 26 29  1  0  0  0  0
 27 30  2  0  0  0  0
 29 31  2  0  0  0  0
 30 31  1  0  0  0  0
M  END
> <PUBCHEM_COMPOUND_ID_TYPE>
0

> <PUBCHEM_TOTAL_CHARGE>
0

> <PUBCHEM_SUBSTANCE_ID>
310930588

> <PUBCHEM_SUBSTANCE_VERSION>
1

> <PUBCHEM_EXT_DATASOURCE_NAME>
4488

> <PUBCHEM_EXT_DATASOURCE_REGID>
SCHEMBL16107883

> <PUBCHEM_SUBSTANCE_COMMENT>
InChI=1S/C20H20F2N4O3S2/c21-16-9-19(31(27,28)26-20-24-12-25-30-20)17(22)8-18(16)29-11-14-10-23-7-6-15(14)13-4-2-1-3-5-13/h1-5,8-9,12,14-15,23H,6-7,10-11H2,(H,24,25,26)
InChIKey=WNPQUCQKSFDNDS-UHFFFAOYSA-N

> <PUBCHEM_SUBSTANCE_SYNONYM>
SCHEMBL16107883

> <PUBCHEM_XREF_EXT_ID>
SCHEMBL16107883

> <PUBCHEM_EXT_DATASOURCE_URL>
https://www.surechembl.org/

> <PUBCHEM_EXT_SUBSTANCE_URL>
https://www.surechembl.org/chemical/SCHEMBL16107883

> <PUBCHEM_CID_ASSOCIATIONS>
78111365  1

> <PUBCHEM_COORDINATE_TYPE>
1
3

$$$$
