310934745
  -OEChem-07211613022D

 28 31  0     1  0  0  0  0  0999 V2000
    2.4461   -4.8648    0.0000 O   0  0  0  0  0  0  0  0  0  0  0  0
    0.8245   -1.6766    0.0000 O   0  0  0  0  0  0  0  0  0  0  0  0
    2.2537   -1.6766    0.0000 O   0  0  0  0  0  0  0  0  0  0  0  0
    6.9261   -3.6280    0.0000 N   0  0  0  0  0  0  0  0  0  0  0  0
    1.5391   -2.9134    0.0000 N   0  0  0  0  0  0  0  0  0  0  0  0
    7.0910   -5.0846    0.0000 N   0  0  0  0  0  0  0  0  0  0  0  0
    7.4483   -2.9958    0.0000 N   0  0  0  0  0  0  0  0  0  0  0  0
    4.4525   -3.9303    0.0000 N   0  0  0  0  0  0  0  0  0  0  0  0
    5.7992   -4.5074    0.0000 C   0  0  0  0  0  0  0  0  0  0  0  0
    7.4483   -4.3151    0.0000 C   0  0  0  0  0  0  0  0  0  0  0  0
    4.9747   -4.5899    0.0000 C   0  0  0  0  0  0  0  0  0  0  0  0
    6.1016   -3.7654    0.0000 C   0  0  0  0  0  0  0  0  0  0  0  0
    1.9514   -4.1777    0.0000 C   0  0  3  0  0  0  0  0  0  0  0  0
    3.2706   -4.7823    0.0000 C   0  0  0  0  0  0  0  0  0  0  0  0
    6.2940   -5.1946    0.0000 C   0  0  0  0  0  0  0  0  0  0  0  0
    2.1988   -3.4081    0.0000 C   0  0  0  0  0  0  0  0  0  0  0  0
    1.5391   -2.0614    0.0000 C   0  0  0  0  0  0  0  0  0  0  0  0
    4.5899   -5.3320    0.0000 C   0  0  0  0  0  0  0  0  0  0  0  0
    8.2179   -4.0402    0.0000 C   0  0  0  0  0  0  0  0  0  0  0  0
    0.8520   -3.4081    0.0000 C   0  0  0  0  0  0  0  0  0  0  0  0
    1.1269   -4.1777    0.0000 C   0  0  0  0  0  0  0  0  0  0  0  0
    3.6280   -4.0128    0.0000 C   0  0  0  0  0  0  0  0  0  0  0  0
    3.7929   -5.4419    0.0000 C   0  0  0  0  0  0  0  0  0  0  0  0
    8.2454   -3.2157    0.0000 C   0  0  0  0  0  0  0  0  0  0  0  0
    0.8245   -0.8245    0.0000 C   0  0  0  0  0  0  0  0  0  0  0  0
    1.6766   -0.8245    0.0000 C   0  0  0  0  0  0  0  0  0  0  0  0
    0.8245    0.0000    0.0000 C   0  0  0  0  0  0  0  0  0  0  0  0
    0.0000   -0.8245    0.0000 C   0  0  0  0  0  0  0  0  0  0  0  0
  1 13  1  0  0  0  0
  1 14  1  0  0  0  0
  2 17  1  0  0  0  0
  2 25  1  0  0  0  0
  3 17  2  0  0  0  0
  4  7  1  0  0  0  0
  4 10  1  0  0  0  0
  4 12  1  0  0  0  0
  5 16  1  0  0  0  0
  5 17  1  0  0  0  0
  5 20  1  0  0  0  0
  6 10  1  0  0  0  0
  6 15  2  0  0  0  0
  7 24  2  0  0  0  0
  8 11  2  0  0  0  0
  8 22  1  0  0  0  0
  9 11  1  0  0  0  0
  9 12  2  0  0  0  0
  9 15  1  0  0  0  0
 10 19  2  0  0  0  0
 11 18  1  0  0  0  0
 13 16  1  0  0  0  0
 13 21  1  0  0  0  0
 14 22  2  0  0  0  0
 14 23  1  0  0  0  0
 18 23  2  0  0  0  0
 19 24  1  0  0  0  0
 20 21  1  0  0  0  0
 25 26  1  0  0  0  0
 25 27  1  0  0  0  0
 25 28  1  0  0  0  0
M  END
> <PUBCHEM_COMPOUND_ID_TYPE>
0

> <PUBCHEM_TOTAL_CHARGE>
0

> <PUBCHEM_SUBSTANCE_ID>
310934745

> <PUBCHEM_SUBSTANCE_VERSION>
1

> <PUBCHEM_EXT_DATASOURCE_NAME>
4488

> <PUBCHEM_EXT_DATASOURCE_REGID>
SCHEMBL16112246

> <PUBCHEM_SUBSTANCE_COMMENT>
InChI=1S/C20H23N5O3/c1-20(2,3)28-19(26)24-9-7-16(13-24)27-15-4-5-17(21-11-15)14-10-22-18-6-8-23-25(18)12-14/h4-6,8,10-12,16H,7,9,13H2,1-3H3
InChIKey=ODKAUXRORBXCMT-UHFFFAOYSA-N

> <PUBCHEM_SUBSTANCE_SYNONYM>
SCHEMBL16112246

> <PUBCHEM_XREF_EXT_ID>
SCHEMBL16112246

> <PUBCHEM_EXT_DATASOURCE_URL>
https://www.surechembl.org/

> <PUBCHEM_EXT_SUBSTANCE_URL>
https://www.surechembl.org/chemical/SCHEMBL16112246

> <PUBCHEM_CID_ASSOCIATIONS>
117602897  1

> <PUBCHEM_COORDINATE_TYPE>
1
3

$$$$
