310938116
  -OEChem-07211613022D

 26 29  0     1  0  0  0  0  0999 V2000
   -3.0367    2.2296    0.0000 O   0  0  0  0  0  0  0  0  0  0  0  0
    1.4290    0.8250    0.0000 O   0  0  0  0  0  0  0  0  0  0  0  0
    1.4290    3.3001    0.0000 O   0  0  0  0  0  0  0  0  0  0  0  0
   -2.8972    0.9020    0.0000 N   0  0  0  0  0  0  0  0  0  0  0  0
   -1.4290    0.0000    0.0000 N   0  0  0  0  0  0  0  0  0  0  0  0
   -2.2297    2.0580    0.0000 N   0  0  0  0  0  0  0  0  0  0  0  0
    0.0000    2.4751    0.0000 N   0  0  0  0  0  0  0  0  0  0  0  0
    0.0000    0.8250    0.0000 C   0  0  0  0  0  0  0  0  0  0  0  0
    0.0000    0.0000    0.0000 C   0  0  0  0  0  0  0  0  0  0  0  0
   -1.4290    0.8250    0.0000 C   0  0  0  0  0  0  0  0  0  0  0  0
   -2.1435    1.2375    0.0000 C   0  0  0  0  0  0  0  0  0  0  0  0
    0.7145   -0.4125    0.0000 C   0  0  0  0  0  0  0  0  0  0  0  0
   -0.7145    1.2375    0.0000 C   0  0  0  0  0  0  0  0  0  0  0  0
    0.7145    1.2375    0.0000 C   0  0  0  0  0  0  0  0  0  0  0  0
   -3.4492    1.5151    0.0000 C   0  0  0  0  0  0  0  0  0  0  0  0
   -0.7145   -0.4125    0.0000 C   0  0  0  0  0  0  0  0  0  0  0  0
   -4.2697    1.4288    0.0000 C   0  0  0  0  0  0  0  0  0  0  0  0
    1.5395   -0.4125    0.0000 C   0  0  0  0  0  0  0  0  0  0  0  0
    1.1270   -1.1270    0.0000 C   0  0  0  0  0  0  0  0  0  0  0  0
    0.7145    2.0625    0.0000 C   0  0  3  0  0  0  0  0  0  0  0  0
    1.4290    2.4751    0.0000 C   0  0  0  0  0  0  0  0  0  0  0  0
   -4.6053    0.6752    0.0000 C   0  0  0  0  0  0  0  0  0  0  0  0
   -5.0902    1.3426    0.0000 C   0  0  0  0  0  0  0  0  0  0  0  0
   -4.7546    2.0963    0.0000 C   0  0  0  0  0  0  0  0  0  0  0  0
    0.0000    3.3001    0.0000 C   0  0  0  0  0  0  0  0  0  0  0  0
    0.7145    3.7126    0.0000 C   0  0  0  0  0  0  0  0  0  0  0  0
  1  6  1  0  0  0  0
  1 15  1  0  0  0  0
  2 14  2  0  0  0  0
  3 21  1  0  0  0  0
  3 26  1  0  0  0  0
  4 11  1  0  0  0  0
  4 15  2  0  0  0  0
  5 10  2  0  0  0  0
  5 16  1  0  0  0  0
  6 11  2  0  0  0  0
  7 20  1  0  0  0  0
  7 25  1  0  0  0  0
  8  9  1  0  0  0  0
  8 13  2  0  0  0  0
  8 14  1  0  0  0  0
  9 12  1  0  0  0  0
  9 16  2  0  0  0  0
 10 11  1  0  0  0  0
 10 13  1  0  0  0  0
 12 18  1  0  0  0  0
 12 19  1  0  0  0  0
 14 20  1  0  0  0  0
 15 17  1  0  0  0  0
 17 22  1  0  0  0  0
 17 23  1  0  0  0  0
 17 24  1  0  0  0  0
 18 19  1  0  0  0  0
 20 21  1  0  0  0  0
 25 26  1  0  0  0  0
M  END
> <PUBCHEM_COMPOUND_ID_TYPE>
0

> <PUBCHEM_TOTAL_CHARGE>
0

> <PUBCHEM_SUBSTANCE_ID>
310938116

> <PUBCHEM_SUBSTANCE_VERSION>
1

> <PUBCHEM_EXT_DATASOURCE_NAME>
4488

> <PUBCHEM_EXT_DATASOURCE_REGID>
SCHEMBL16115966

> <PUBCHEM_SUBSTANCE_COMMENT>
InChI=1S/C19H24N4O3/c1-19(2,3)18-22-17(23-26-18)14-8-12(13(9-21-14)11-4-5-11)16(24)15-10-25-7-6-20-15/h8-9,11,15,20H,4-7,10H2,1-3H3
InChIKey=PLRYFYKVYJRKSO-UHFFFAOYSA-N

> <PUBCHEM_SUBSTANCE_SYNONYM>
SCHEMBL16115966

> <PUBCHEM_XREF_EXT_ID>
SCHEMBL16115966

> <PUBCHEM_EXT_DATASOURCE_URL>
https://www.surechembl.org/

> <PUBCHEM_EXT_SUBSTANCE_URL>
https://www.surechembl.org/chemical/SCHEMBL16115966

> <PUBCHEM_CID_ASSOCIATIONS>
117605677  1

> <PUBCHEM_COORDINATE_TYPE>
1
3

$$$$
