310944081
  -OEChem-07211613022D

 35 38  0     1  0  0  0  0  0999 V2000
   -4.9687   -0.3401    0.0000 Cl  0  0  0  0  0  0  0  0  0  0  0  0
    4.9521   -0.9373    0.0000 O   0  0  0  0  0  0  0  0  0  0  0  0
   -1.8830   -0.3401    0.0000 O   0  0  0  0  0  0  0  0  0  0  0  0
    4.1890   -2.1484    0.0000 O   0  0  0  0  0  0  0  0  0  0  0  0
   -0.4396    2.1484    0.0000 O   0  0  0  0  0  0  0  0  0  0  0  0
    3.4922   -0.9207    0.0000 N   0  0  0  0  0  0  0  0  0  0  0  0
    1.7503    0.0747    0.0000 N   0  0  0  0  0  0  0  0  0  0  0  0
    0.3069    0.9041    0.0000 N   0  0  0  0  0  0  0  0  0  0  0  0
   -1.8664    1.3189    0.0000 N   0  0  0  0  0  0  0  0  0  0  0  0
    2.4802   -0.3401    0.0000 C   0  0  0  0  0  0  0  0  0  0  0  0
   -4.0065    0.9041    0.0000 C   0  0  0  0  0  0  0  0  0  0  0  0
    2.6959   -1.1364    0.0000 C   0  0  0  0  0  0  0  0  0  0  0  0
    3.2765   -0.1244    0.0000 C   0  0  0  0  0  0  0  0  0  0  0  0
   -2.5797    0.9207    0.0000 C   0  0  0  0  0  0  0  0  0  0  0  0
   -2.5963    0.0913    0.0000 C   0  0  0  0  0  0  0  0  0  0  0  0
   -4.0231    0.0747    0.0000 C   0  0  0  0  0  0  0  0  0  0  0  0
   -4.7531    1.3355    0.0000 C   0  0  0  0  0  0  0  0  0  0  0  0
    4.1890   -1.3355    0.0000 C   0  0  0  0  0  0  0  0  0  0  0  0
   -3.3097    1.3023    0.0000 C   0  0  0  0  0  0  0  0  0  0  0  0
   -0.4231    1.3189    0.0000 C   0  0  0  0  0  0  0  0  0  0  0  0
   -1.1364    0.9207    0.0000 C   0  0  3  0  0  0  0  0  0  0  0  0
    1.7337    0.9041    0.0000 C   0  0  0  0  0  0  0  0  0  0  0  0
    1.0369   -0.3401    0.0000 C   0  0  0  0  0  0  0  0  0  0  0  0
   -3.2932   -0.3235    0.0000 C   0  0  0  0  0  0  0  0  0  0  0  0
    1.0037    1.3189    0.0000 C   0  0  0  0  0  0  0  0  0  0  0  0
    0.3235    0.0747    0.0000 C   0  0  0  0  0  0  0  0  0  0  0  0
   -5.5328    1.1198    0.0000 C   0  0  0  0  0  0  0  0  0  0  0  0
   -4.9522    2.1152    0.0000 C   0  0  0  0  0  0  0  0  0  0  0  0
    4.9687   -0.0913    0.0000 C   0  0  0  0  0  0  0  0  0  0  0  0
   -5.7319    1.8996    0.0000 C   0  0  0  0  0  0  0  0  0  0  0  0
   -1.1198    0.0747    0.0000 C   0  0  0  0  0  0  0  0  0  0  0  0
    5.7319   -0.0581    0.0000 C   0  0  0  0  0  0  0  0  0  0  0  0
    4.1890   -0.0913    0.0000 C   0  0  0  0  0  0  0  0  0  0  0  0
    4.9521    0.7383    0.0000 C   0  0  0  0  0  0  0  0  0  0  0  0
   -1.8498   -1.1696    0.0000 C   0  0  0  0  0  0  0  0  0  0  0  0
  1 16  1  0  0  0  0
  2 18  1  0  0  0  0
  2 29  1  0  0  0  0
  3 15  1  0  0  0  0
  3 35  1  0  0  0  0
  4 18  2  0  0  0  0
  5 20  2  0  0  0  0
  6 12  1  0  0  0  0
  6 13  1  0  0  0  0
  6 18  1  0  0  0  0
  7 10  1  0  0  0  0
  7 22  1  0  0  0  0
  7 23  1  0  0  0  0
  8 20  1  0  0  0  0
  8 25  1  0  0  0  0
  8 26  1  0  0  0  0
  9 14  1  0  0  0  0
  9 21  1  0  0  0  0
 10 12  1  0  0  0  0
 10 13  1  0  0  0  0
 11 16  2  0  0  0  0
 11 17  1  0  0  0  0
 11 19  1  0  0  0  0
 14 15  1  0  0  0  0
 14 19  2  0  0  0  0
 15 24  2  0  0  0  0
 16 24  1  0  0  0  0
 17 27  1  0  0  0  0
 17 28  1  0  0  0  0
 20 21  1  0  0  0  0
 21 31  1  0  0  0  0
 22 25  1  0  0  0  0
 23 26  1  0  0  0  0
 27 30  1  0  0  0  0
 28 30  1  0  0  0  0
 29 32  1  0  0  0  0
 29 33  1  0  0  0  0
 29 34  1  0  0  0  0
M  END
> <PUBCHEM_COMPOUND_ID_TYPE>
0

> <PUBCHEM_TOTAL_CHARGE>
0

> <PUBCHEM_SUBSTANCE_ID>
310944081

> <PUBCHEM_SUBSTANCE_VERSION>
1

> <PUBCHEM_EXT_DATASOURCE_NAME>
4488

> <PUBCHEM_EXT_DATASOURCE_REGID>
SCHEMBL16122156

> <PUBCHEM_SUBSTANCE_COMMENT>
InChI=1S/C26H39ClN4O4/c1-17(28-22-13-20(18-7-6-8-18)21(27)14-23(22)34-5)24(32)30-11-9-29(10-12-30)19-15-31(16-19)25(33)35-26(2,3)4/h13-14,17-19,28H,6-12,15-16H2,1-5H3
InChIKey=VTVAXWJJMXBRMU-UHFFFAOYSA-N

> <PUBCHEM_SUBSTANCE_SYNONYM>
SCHEMBL16122156

> <PUBCHEM_XREF_EXT_ID>
SCHEMBL16122156

> <PUBCHEM_EXT_DATASOURCE_URL>
https://www.surechembl.org/

> <PUBCHEM_EXT_SUBSTANCE_URL>
https://www.surechembl.org/chemical/SCHEMBL16122156

> <PUBCHEM_CID_ASSOCIATIONS>
117610373  1

> <PUBCHEM_COORDINATE_TYPE>
1
3

$$$$
