310943866
  -OEChem-07211613022D

 26 28  0     1  0  0  0  0  0999 V2000
   -2.3392   -1.3112    0.0000 N   0  0  3  0  0  0  0  0  0  0  0  0
   -4.1121   -0.7695    0.0000 N   0  0  3  0  0  0  0  0  0  0  0  0
   -0.1970    1.7667    0.0000 N   0  0  0  0  0  0  0  0  0  0  0  0
    4.1121    1.5697    0.0000 N   0  0  0  0  0  0  0  0  0  0  0  0
    0.5417   -0.4494    0.0000 C   0  0  0  0  0  0  0  0  0  0  0  0
    1.2312   -0.0431    0.0000 C   0  0  0  0  0  0  0  0  0  0  0  0
   -0.1970   -0.0554    0.0000 C   0  0  0  0  0  0  0  0  0  0  0  0
    1.9575   -0.4371    0.0000 C   0  0  0  0  0  0  0  0  0  0  0  0
   -0.8988   -1.2866    0.0000 C   0  0  0  0  0  0  0  0  0  0  0  0
    0.5417   -1.2742    0.0000 C   0  0  0  0  0  0  0  0  0  0  0  0
   -0.8864   -0.4617    0.0000 C   0  0  0  0  0  0  0  0  0  0  0  0
    1.2435    0.7818    0.0000 C   0  0  0  0  0  0  0  0  0  0  0  0
   -0.1846   -1.6929    0.0000 C   0  0  0  0  0  0  0  0  0  0  0  0
    2.6593   -0.0431    0.0000 C   0  0  0  0  0  0  0  0  0  0  0  0
    2.6716    0.7941    0.0000 C   0  0  0  0  0  0  0  0  0  0  0  0
   -1.6128   -1.7052    0.0000 C   0  0  0  0  0  0  0  0  0  0  0  0
    1.9329    1.1880    0.0000 C   0  0  0  0  0  0  0  0  0  0  0  0
   -0.1970    0.9541    0.0000 C   0  0  0  0  0  0  0  0  0  0  0  0
    1.9575   -1.4835    0.0000 C   0  0  0  0  0  0  0  0  0  0  0  0
   -2.9918   -1.7667    0.0000 C   0  0  0  0  0  0  0  0  0  0  0  0
   -2.2776   -0.4863    0.0000 C   0  0  0  0  0  0  0  0  0  0  0  0
    3.3857    1.1880    0.0000 C   0  0  0  0  0  0  0  0  0  0  0  0
   -3.8043   -1.5328    0.0000 C   0  0  0  0  0  0  0  0  0  0  0  0
   -2.8809    0.0677    0.0000 C   0  0  0  0  0  0  0  0  0  0  0  0
   -3.6811   -0.0431    0.0000 C   0  0  0  0  0  0  0  0  0  0  0  0
   -4.1121   -0.7695    0.0000 C   0  0  0  0  0  0  0  0  0  0  0  0
  1 16  1  0  0  0  0
  1 20  1  0  0  0  0
  1 21  1  0  0  0  0
  2 23  1  0  0  0  0
  2 25  1  0  0  0  0
  2 26  1  0  0  0  0
  3 18  3  0  0  0  0
  4 22  3  0  0  0  0
  5  6  1  0  0  0  0
  5  7  2  0  0  0  0
  5 10  1  0  0  0  0
  6  8  1  0  0  0  0
  6 12  2  0  0  0  0
  7 11  1  0  0  0  0
  7 18  1  0  0  0  0
  8 14  2  0  0  0  0
  8 19  1  0  0  0  0
  9 11  2  0  0  0  0
  9 13  1  0  0  0  0
  9 16  1  0  0  0  0
 10 13  2  0  0  0  0
 12 17  1  0  0  0  0
 14 15  1  0  0  0  0
 15 17  2  0  0  0  0
 15 22  1  0  0  0  0
 20 23  1  0  0  0  0
 21 24  1  0  0  0  0
 24 25  1  0  0  0  0
M  END
> <PUBCHEM_COMPOUND_ID_TYPE>
0

> <PUBCHEM_TOTAL_CHARGE>
0

> <PUBCHEM_SUBSTANCE_ID>
310943866

> <PUBCHEM_SUBSTANCE_VERSION>
1

> <PUBCHEM_EXT_DATASOURCE_NAME>
4488

> <PUBCHEM_EXT_DATASOURCE_REGID>
SCHEMBL16121937

> <PUBCHEM_SUBSTANCE_COMMENT>
InChI=1S/C22H24N4/c1-17-12-18(14-23)4-6-21(17)22-7-5-19(13-20(22)15-24)16-26-9-3-8-25(2)10-11-26/h4-7,12-13H,3,8-11,16H2,1-2H3
InChIKey=OLONPKCYXAMRFM-UHFFFAOYSA-N

> <PUBCHEM_SUBSTANCE_SYNONYM>
SCHEMBL16121937

> <PUBCHEM_XREF_EXT_ID>
SCHEMBL16121937

> <PUBCHEM_EXT_DATASOURCE_URL>
https://www.surechembl.org/

> <PUBCHEM_EXT_SUBSTANCE_URL>
https://www.surechembl.org/chemical/SCHEMBL16121937

> <PUBCHEM_CID_ASSOCIATIONS>
86300028  1

> <PUBCHEM_COORDINATE_TYPE>
1
3

$$$$
