310935664
  -OEChem-07211613022D

 36 40  0     1  0  0  0  0  0999 V2000
   -1.2399   -0.0644    0.0000 F   0  0  0  0  0  0  0  0  0  0  0  0
   -2.6688   -0.8894    0.0000 O   0  0  0  0  0  0  0  0  0  0  0  0
    0.1891   -0.8894    0.0000 O   0  0  0  0  0  0  0  0  0  0  0  0
   -4.0978   -0.0644    0.0000 O   0  0  0  0  0  0  0  0  0  0  0  0
   -4.8122   -1.3019    0.0000 O   0  0  0  0  0  0  0  0  0  0  0  0
   -3.3833   -3.7769    0.0000 N   0  0  0  0  0  0  0  0  0  0  0  0
   -3.2118   -4.5839    0.0000 N   0  0  0  0  0  0  0  0  0  0  0  0
   -2.6688   -2.5394    0.0000 C   0  0  0  0  0  0  0  0  0  0  0  0
   -2.6688   -3.3644    0.0000 C   0  0  0  0  0  0  0  0  0  0  0  0
   -3.3833   -2.1269    0.0000 C   0  0  0  0  0  0  0  0  0  0  0  0
   -1.9544   -2.1269    0.0000 C   0  0  0  0  0  0  0  0  0  0  0  0
   -2.0557   -3.9165    0.0000 C   0  0  0  0  0  0  0  0  0  0  0  0
   -4.0978   -2.5394    0.0000 C   0  0  0  0  0  0  0  0  0  0  0  0
   -2.3913   -4.6701    0.0000 C   0  0  0  0  0  0  0  0  0  0  0  0
   -1.2399   -2.5394    0.0000 C   0  0  0  0  0  0  0  0  0  0  0  0
   -3.3833   -1.3019    0.0000 C   0  0  3  0  0  0  0  0  0  0  0  0
   -4.0978   -3.3644    0.0000 C   0  0  0  0  0  0  0  0  0  0  0  0
   -0.5254   -2.1269    0.0000 C   0  0  0  0  0  0  0  0  0  0  0  0
   -1.9544   -1.3019    0.0000 C   0  0  0  0  0  0  0  0  0  0  0  0
   -0.5254   -1.3019    0.0000 C   0  0  0  0  0  0  0  0  0  0  0  0
   -1.2399   -0.8894    0.0000 C   0  0  0  0  0  0  0  0  0  0  0  0
   -1.2353   -3.8302    0.0000 C   0  0  0  0  0  0  0  0  0  0  0  0
   -4.0978   -0.8894    0.0000 C   0  0  0  0  0  0  0  0  0  0  0  0
   -1.9064   -5.3376    0.0000 C   0  0  0  0  0  0  0  0  0  0  0  0
   -4.8122   -2.1269    0.0000 C   0  0  0  0  0  0  0  0  0  0  0  0
    0.1891   -2.5394    0.0000 C   0  0  0  0  0  0  0  0  0  0  0  0
   -0.7503   -4.4977    0.0000 C   0  0  0  0  0  0  0  0  0  0  0  0
   -1.2399   -3.3644    0.0000 C   0  0  0  0  0  0  0  0  0  0  0  0
   -2.6688   -0.0644    0.0000 C   0  0  0  0  0  0  0  0  0  0  0  0
   -1.0859   -5.2513    0.0000 C   0  0  0  0  0  0  0  0  0  0  0  0
    0.9035   -2.1269    0.0000 C   0  0  0  0  0  0  0  0  0  0  0  0
    0.9035   -1.3019    0.0000 C   0  0  0  0  0  0  0  0  0  0  0  0
   -1.8438   -0.0644    0.0000 C   0  0  0  0  0  0  0  0  0  0  0  0
   -3.4938   -0.0644    0.0000 C   0  0  0  0  0  0  0  0  0  0  0  0
   -2.6688    0.7606    0.0000 C   0  0  0  0  0  0  0  0  0  0  0  0
   -4.8122    0.3481    0.0000 C   0  0  0  0  0  0  0  0  0  0  0  0
  1 21  1  0  0  0  0
  2 16  1  0  0  0  0
  2 29  1  0  0  0  0
  3 20  1  0  0  0  0
  3 32  1  0  0  0  0
  4 23  1  0  0  0  0
  4 36  1  0  0  0  0
  5 23  2  0  0  0  0
  6  7  1  0  0  0  0
  6  9  1  0  0  0  0
  6 17  1  0  0  0  0
  7 14  2  0  0  0  0
  8  9  1  0  0  0  0
  8 10  2  0  0  0  0
  8 11  1  0  0  0  0
  9 12  2  0  0  0  0
 10 13  1  0  0  0  0
 10 16  1  0  0  0  0
 11 15  1  0  0  0  0
 11 19  2  0  0  0  0
 12 14  1  0  0  0  0
 12 22  1  0  0  0  0
 13 17  2  0  0  0  0
 13 25  1  0  0  0  0
 14 24  1  0  0  0  0
 15 18  2  0  0  0  0
 15 28  1  0  0  0  0
 16 23  1  0  0  0  0
 18 20  1  0  0  0  0
 18 26  1  0  0  0  0
 19 21  1  0  0  0  0
 20 21  2  0  0  0  0
 22 27  2  0  0  0  0
 24 30  2  0  0  0  0
 26 31  1  0  0  0  0
 27 30  1  0  0  0  0
 29 33  1  0  0  0  0
 29 34  1  0  0  0  0
 29 35  1  0  0  0  0
 31 32  1  0  0  0  0
M  END
> <PUBCHEM_COMPOUND_ID_TYPE>
0

> <PUBCHEM_TOTAL_CHARGE>
0

> <PUBCHEM_SUBSTANCE_ID>
310935664

> <PUBCHEM_SUBSTANCE_VERSION>
1

> <PUBCHEM_EXT_DATASOURCE_NAME>
4488

> <PUBCHEM_EXT_DATASOURCE_REGID>
SCHEMBL16113246

> <PUBCHEM_SUBSTANCE_COMMENT>
InChI=1S/C29H31FN2O4/c1-16-15-32-25(19-10-7-8-12-22(19)31-32)24(23(16)27(28(33)34-6)36-29(3,4)5)20-14-21(30)26-18(17(20)2)11-9-13-35-26/h7-8,10,12,14-15,27H,9,11,13H2,1-6H3
InChIKey=ZELIUCKFUBBKAT-UHFFFAOYSA-N

> <PUBCHEM_SUBSTANCE_SYNONYM>
SCHEMBL16113246

> <PUBCHEM_XREF_EXT_ID>
SCHEMBL16113246

> <PUBCHEM_EXT_DATASOURCE_URL>
https://www.surechembl.org/

> <PUBCHEM_EXT_SUBSTANCE_URL>
https://www.surechembl.org/chemical/SCHEMBL16113246

> <PUBCHEM_CID_ASSOCIATIONS>
117603675  1

> <PUBCHEM_COORDINATE_TYPE>
1
3

$$$$
