310931578
  -OEChem-07211613022D

 25 28  0     1  0  0  0  0  0999 V2000
    5.1973   -2.6399    0.0000 O   0  0  0  0  0  0  0  0  0  0  0  0
    0.0000    0.0000    0.0000 O   0  0  0  0  0  0  0  0  0  0  0  0
    0.7012   -1.2375    0.0000 N   0  0  0  0  0  0  0  0  0  0  0  0
    1.4437    0.0000    0.0000 N   0  0  0  0  0  0  0  0  0  0  0  0
    5.6098   -1.9180    0.0000 N   0  0  0  0  0  0  0  0  0  0  0  0
    2.1449   -1.2375    0.0000 C   0  0  0  0  0  0  0  0  0  0  0  0
    1.4437   -1.6499    0.0000 C   0  0  3  0  0  0  0  0  0  0  0  0
    2.1449   -0.4125    0.0000 C   0  0  0  0  0  0  0  0  0  0  0  0
    3.5680   -1.2375    0.0000 C   0  0  0  0  0  0  0  0  0  0  0  0
    4.2898   -1.6499    0.0000 C   0  0  0  0  0  0  0  0  0  0  0  0
    2.8461   -1.6499    0.0000 C   0  0  0  0  0  0  0  0  0  0  0  0
    1.4437   -2.4749    0.0000 C   0  0  0  0  0  0  0  0  0  0  0  0
    0.7012   -0.4125    0.0000 C   0  0  0  0  0  0  0  0  0  0  0  0
    2.8461    0.0000    0.0000 C   0  0  0  0  0  0  0  0  0  0  0  0
    3.5680   -0.4125    0.0000 C   0  0  0  0  0  0  0  0  0  0  0  0
    4.3930   -2.4749    0.0000 C   0  0  0  0  0  0  0  0  0  0  0  0
    5.0323   -1.3200    0.0000 C   0  0  0  0  0  0  0  0  0  0  0  0
    2.1449   -2.8874    0.0000 C   0  0  0  0  0  0  0  0  0  0  0  0
    0.7219   -2.8874    0.0000 C   0  0  0  0  0  0  0  0  0  0  0  0
    0.0000   -1.6499    0.0000 C   0  0  0  0  0  0  0  0  0  0  0  0
    3.7949   -3.0318    0.0000 C   0  0  0  0  0  0  0  0  0  0  0  0
    5.2180   -0.5156    0.0000 C   0  0  0  0  0  0  0  0  0  0  0  0
    2.1449   -3.7123    0.0000 C   0  0  0  0  0  0  0  0  0  0  0  0
    0.7219   -3.7123    0.0000 C   0  0  0  0  0  0  0  0  0  0  0  0
    1.4437   -4.1249    0.0000 C   0  0  0  0  0  0  0  0  0  0  0  0
  1  5  1  0  0  0  0
  1 16  1  0  0  0  0
  2 13  2  0  0  0  0
  3  7  1  0  0  0  0
  3 13  1  0  0  0  0
  3 20  1  0  0  0  0
  4  8  1  0  0  0  0
  4 13  1  0  0  0  0
  5 17  2  0  0  0  0
  6  7  1  0  0  0  0
  6  8  2  0  0  0  0
  6 11  1  0  0  0  0
  7 12  1  0  0  0  0
  8 14  1  0  0  0  0
  9 10  1  0  0  0  0
  9 11  2  0  0  0  0
  9 15  1  0  0  0  0
 10 16  2  0  0  0  0
 10 17  1  0  0  0  0
 12 18  2  0  0  0  0
 12 19  1  0  0  0  0
 14 15  2  0  0  0  0
 16 21  1  0  0  0  0
 17 22  1  0  0  0  0
 18 23  1  0  0  0  0
 19 24  2  0  0  0  0
 23 25  2  0  0  0  0
 24 25  1  0  0  0  0
M  END
> <PUBCHEM_COMPOUND_ID_TYPE>
0

> <PUBCHEM_TOTAL_CHARGE>
0

> <PUBCHEM_SUBSTANCE_ID>
310931578

> <PUBCHEM_SUBSTANCE_VERSION>
1

> <PUBCHEM_EXT_DATASOURCE_NAME>
4488

> <PUBCHEM_EXT_DATASOURCE_REGID>
SCHEMBL16108904

> <PUBCHEM_SUBSTANCE_COMMENT>
InChI=1S/C20H19N3O2/c1-12-18(13(2)25-22-12)15-9-10-17-16(11-15)19(23(3)20(24)21-17)14-7-5-4-6-8-14/h4-11,19H,1-3H3,(H,21,24)
InChIKey=BNBIFSSTJDGSSB-UHFFFAOYSA-N

> <PUBCHEM_SUBSTANCE_SYNONYM>
SCHEMBL16108904

> <PUBCHEM_XREF_EXT_ID>
SCHEMBL16108904

> <PUBCHEM_EXT_DATASOURCE_URL>
https://www.surechembl.org/

> <PUBCHEM_EXT_SUBSTANCE_URL>
https://www.surechembl.org/chemical/SCHEMBL16108904

> <PUBCHEM_CID_ASSOCIATIONS>
86273096  1

> <PUBCHEM_COORDINATE_TYPE>
1
3

$$$$
