310930341
  -OEChem-07211613022D

 25 26  0     1  0  0  0  0  0999 V2000
    0.8250   -4.7509    0.0000 S   0  0  0  0  0  0  0  0  0  0  0  0
    0.8250   -3.9259    0.0000 O   0  0  0  0  0  0  0  0  0  0  0  0
    1.6500   -4.7509    0.0000 O   0  0  0  0  0  0  0  0  0  0  0  0
    0.0000   -4.7509    0.0000 O   0  0  0  0  0  0  0  0  0  0  0  0
    0.8250   -5.5759    0.0000 O   0  0  0  0  0  0  0  0  0  0  0  0
    3.6983   -3.9259    0.0000 N   0  0  3  0  0  0  0  0  0  0  0  0
    6.5431   -2.2474    0.0000 N   0  0  0  0  0  0  0  0  0  0  0  0
    6.5431   -1.4224    0.0000 N   0  0  0  0  0  0  0  0  0  0  0  0
    7.9941   -1.3371    0.0000 N   0  0  0  0  0  0  0  0  0  0  0  0
    7.3113   -0.1991    0.0000 N   0  0  0  0  0  0  0  0  0  0  0  0
    8.5346   -0.6828    0.0000 N   0  0  0  0  0  0  0  0  0  0  0  0
    4.3811   -3.4991    0.0000 C   0  0  0  0  0  0  0  0  0  0  0  0
    5.8319   -2.6741    0.0000 C   0  0  0  0  0  0  0  0  0  0  0  0
    5.8319   -3.4991    0.0000 C   0  0  0  0  0  0  0  0  0  0  0  0
    5.1207   -3.8974    0.0000 C   0  0  0  0  0  0  0  0  0  0  0  0
    4.3811   -2.6741    0.0000 C   0  0  0  0  0  0  0  0  0  0  0  0
    5.0923   -2.2474    0.0000 C   0  0  0  0  0  0  0  0  0  0  0  0
    7.2544   -0.9957    0.0000 C   0  0  0  0  0  0  0  0  0  0  0  0
    2.9586   -3.5276    0.0000 C   0  0  0  0  0  0  0  0  0  0  0  0
    3.6983   -4.7509    0.0000 C   0  0  0  0  0  0  0  0  0  0  0  0
    6.5431   -3.8974    0.0000 C   0  0  0  0  0  0  0  0  0  0  0  0
    2.2474   -3.9259    0.0000 C   0  0  0  0  0  0  0  0  0  0  0  0
    1.5362   -3.5276    0.0000 C   0  0  0  0  0  0  0  0  0  0  0  0
    8.1363    0.0000    0.0000 C   0  0  0  0  0  0  0  0  0  0  0  0
    4.4095   -5.1492    0.0000 C   0  0  0  0  0  0  0  0  0  0  0  0
  1  2  1  0  0  0  0
  1  3  2  0  0  0  0
  1  4  2  0  0  0  0
  1  5  1  0  0  0  0
  2 23  1  0  0  0  0
  6 12  1  0  0  0  0
  6 19  1  0  0  0  0
  6 20  1  0  0  0  0
  7  8  2  0  0  0  0
  7 13  1  0  0  0  0
  8 18  1  0  0  0  0
  9 11  1  0  0  0  0
  9 18  2  0  0  0  0
 10 18  1  0  0  0  0
 10 24  1  0  0  0  0
 11 24  2  0  0  0  0
 12 15  1  0  0  0  0
 12 16  2  0  0  0  0
 13 14  1  0  0  0  0
 13 17  2  0  0  0  0
 14 15  2  0  0  0  0
 14 21  1  0  0  0  0
 16 17  1  0  0  0  0
 19 22  1  0  0  0  0
 20 25  1  0  0  0  0
 22 23  1  0  0  0  0
M  END
> <PUBCHEM_COMPOUND_ID_TYPE>
0

> <PUBCHEM_TOTAL_CHARGE>
0

> <PUBCHEM_SUBSTANCE_ID>
310930341

> <PUBCHEM_SUBSTANCE_VERSION>
1

> <PUBCHEM_EXT_DATASOURCE_NAME>
4488

> <PUBCHEM_EXT_DATASOURCE_REGID>
SCHEMBL16107625

> <PUBCHEM_SUBSTANCE_COMMENT>
InChI=1S/C14H20N6O4S/c1-3-20(7-4-8-24-25(21,22)23)12-5-6-13(11(2)9-12)17-19-14-15-10-16-18-14/h5-6,9-10H,3-4,7-8H2,1-2H3,(H,15,16,18)(H,21,22,23)/b19-17+
InChIKey=JVOCYUBILPUZCQ-HTXNQAPBSA-N

> <PUBCHEM_SUBSTANCE_SYNONYM>
SCHEMBL16107625

> <PUBCHEM_XREF_EXT_ID>
SCHEMBL16107625

> <PUBCHEM_EXT_DATASOURCE_URL>
https://www.surechembl.org/

> <PUBCHEM_EXT_SUBSTANCE_URL>
https://www.surechembl.org/chemical/SCHEMBL16107625

> <PUBCHEM_CID_ASSOCIATIONS>
117599508  1

> <PUBCHEM_COORDINATE_TYPE>
1
3

$$$$
