310937659
  -OEChem-07211613022D

 18 18  0     1  0  0  0  0  0999 V2000
    4.2949   -1.9654    0.0000 O   0  0  0  0  0  0  0  0  0  0  0  0
    2.9603   -4.4647    0.0000 O   0  0  0  0  0  0  0  0  0  0  0  0
    2.1596    0.0000    0.0000 O   0  0  0  0  0  0  0  0  0  0  0  0
    2.8633   -1.2375    0.0000 O   0  0  0  0  0  0  0  0  0  0  0  0
    2.1838   -3.2758    0.0000 N   0  0  0  0  0  0  0  0  0  0  0  0
    2.8633   -2.0140    0.0000 N   0  0  0  0  0  0  0  0  0  0  0  0
    1.4559   -2.0625    0.0000 N   0  0  0  0  0  0  0  0  0  0  0  0
    3.6154   -3.2272    0.0000 N   0  0  0  0  0  0  0  0  0  0  0  0
    2.1838   -2.4508    0.0000 C   0  0  0  0  0  0  0  0  0  0  0  0
    3.6154   -2.4022    0.0000 C   0  0  0  0  0  0  0  0  0  0  0  0
    2.9118   -3.6640    0.0000 C   0  0  0  0  0  0  0  0  0  0  0  0
    1.4559   -1.2375    0.0000 C   0  0  3  0  0  0  0  0  0  0  0  0
    2.1596   -0.8250    0.0000 C   0  0  0  0  0  0  0  0  0  0  0  0
    0.7037   -0.8493    0.0000 C   0  0  0  0  0  0  0  0  0  0  0  0
    0.0000   -1.2375    0.0000 C   0  0  0  0  0  0  0  0  0  0  0  0
    0.7037   -0.0243    0.0000 C   0  0  0  0  0  0  0  0  0  0  0  0
    4.2949   -1.1404    0.0000 C   0  0  0  0  0  0  0  0  0  0  0  0
    3.6883   -4.8529    0.0000 C   0  0  0  0  0  0  0  0  0  0  0  0
  1 10  1  0  0  0  0
  1 17  1  0  0  0  0
  2 11  1  0  0  0  0
  2 18  1  0  0  0  0
  3 13  2  0  0  0  0
  4 13  1  0  0  0  0
  5  9  2  0  0  0  0
  5 11  1  0  0  0  0
  6  9  1  0  0  0  0
  6 10  2  0  0  0  0
  7  9  1  0  0  0  0
  7 12  1  0  0  0  0
  8 10  1  0  0  0  0
  8 11  2  0  0  0  0
 12 13  1  0  0  0  0
 12 14  1  0  0  0  0
 14 15  1  0  0  0  0
 14 16  1  0  0  0  0
M  END
> <PUBCHEM_COMPOUND_ID_TYPE>
0

> <PUBCHEM_TOTAL_CHARGE>
0

> <PUBCHEM_SUBSTANCE_ID>
310937659

> <PUBCHEM_SUBSTANCE_VERSION>
1

> <PUBCHEM_EXT_DATASOURCE_NAME>
4488

> <PUBCHEM_EXT_DATASOURCE_REGID>
SCHEMBL16115449

> <PUBCHEM_SUBSTANCE_COMMENT>
InChI=1S/C10H16N4O4/c1-5(2)6(7(15)16)11-8-12-9(17-3)14-10(13-8)18-4/h5-6H,1-4H3,(H,15,16)(H,11,12,13,14)
InChIKey=XAPMDUKUJSSYRA-UHFFFAOYSA-N

> <PUBCHEM_SUBSTANCE_SYNONYM>
SCHEMBL16115449

> <PUBCHEM_XREF_EXT_ID>
SCHEMBL16115449

> <PUBCHEM_EXT_DATASOURCE_URL>
https://www.surechembl.org/

> <PUBCHEM_EXT_SUBSTANCE_URL>
https://www.surechembl.org/chemical/SCHEMBL16115449

> <PUBCHEM_CID_ASSOCIATIONS>
72280243  1

> <PUBCHEM_COORDINATE_TYPE>
1
3

$$$$
