310938220
  -OEChem-07211613022D

 34 37  0     1  0  0  0  0  0999 V2000
    8.5773   -6.0871    0.0000 O   0  0  0  0  0  0  0  0  0  0  0  0
    7.1593   -6.0871    0.0000 O   0  0  0  0  0  0  0  0  0  0  0  0
    1.4526   -1.2451    0.0000 O   0  0  0  0  0  0  0  0  0  0  0  0
    2.1443    0.0000    0.0000 O   0  0  0  0  0  0  0  0  0  0  0  0
    9.3727   -3.3894    0.0000 N   0  0  3  0  0  0  0  0  0  0  0  0
    4.2886   -2.0405    0.0000 N   0  0  0  0  0  0  0  0  0  0  0  0
    5.0495   -3.2510    0.0000 N   0  0  0  0  0  0  0  0  0  0  0  0
    2.8706   -1.2451    0.0000 N   0  0  0  0  0  0  0  0  0  0  0  0
    8.5773   -4.4615    0.0000 C   0  0  0  0  0  0  0  0  0  0  0  0
    8.5773   -3.6661    0.0000 C   0  0  0  0  0  0  0  0  0  0  0  0
    7.8855   -4.8766    0.0000 C   0  0  0  0  0  0  0  0  0  0  0  0
    7.1938   -3.6661    0.0000 C   0  0  0  0  0  0  0  0  0  0  0  0
    7.8855   -3.2165    0.0000 C   0  0  0  0  0  0  0  0  0  0  0  0
    7.1938   -4.4615    0.0000 C   0  0  0  0  0  0  0  0  0  0  0  0
    6.4676   -3.2510    0.0000 C   0  0  0  0  0  0  0  0  0  0  0  0
    9.3727   -4.7037    0.0000 C   0  0  0  0  0  0  0  0  0  0  0  0
    9.8569   -4.0466    0.0000 C   0  0  0  0  0  0  0  0  0  0  0  0
    7.8855   -5.7066    0.0000 C   0  0  0  0  0  0  0  0  0  0  0  0
    5.0149   -2.4210    0.0000 C   0  0  0  0  0  0  0  0  0  0  0  0
    5.7412   -3.6661    0.0000 C   0  0  0  0  0  0  0  0  0  0  0  0
    6.4330   -2.4210    0.0000 C   0  0  0  0  0  0  0  0  0  0  0  0
    9.6148   -2.6285    0.0000 C   0  0  0  0  0  0  0  0  0  0  0  0
    5.7412   -2.0405    0.0000 C   0  0  0  0  0  0  0  0  0  0  0  0
    4.2886   -1.2105    0.0000 C   0  0  0  0  0  0  0  0  0  0  0  0
    3.5969   -2.4556    0.0000 C   0  0  0  0  0  0  0  0  0  0  0  0
    2.1443   -0.8300    0.0000 C   0  0  0  0  0  0  0  0  0  0  0  0
    2.8706   -2.0405    0.0000 C   0  0  0  0  0  0  0  0  0  0  0  0
    3.5623   -0.7955    0.0000 C   0  0  0  0  0  0  0  0  0  0  0  0
    9.0615   -2.0060    0.0000 C   0  0  0  0  0  0  0  0  0  0  0  0
    0.7263   -0.8300    0.0000 C   0  0  0  0  0  0  0  0  0  0  0  0
    8.5773   -6.9171    0.0000 C   0  0  0  0  0  0  0  0  0  0  0  0
    0.0000   -0.4150    0.0000 C   0  0  0  0  0  0  0  0  0  0  0  0
    1.1413   -0.1383    0.0000 C   0  0  0  0  0  0  0  0  0  0  0  0
    0.3459   -1.5564    0.0000 C   0  0  0  0  0  0  0  0  0  0  0  0
  1 18  1  0  0  0  0
  1 31  1  0  0  0  0
  2 18  2  0  0  0  0
  3 26  1  0  0  0  0
  3 30  1  0  0  0  0
  4 26  2  0  0  0  0
  5 10  1  0  0  0  0
  5 17  1  0  0  0  0
  5 22  1  0  0  0  0
  6 19  1  0  0  0  0
  6 24  1  0  0  0  0
  6 25  1  0  0  0  0
  7 19  2  0  0  0  0
  7 20  1  0  0  0  0
  8 26  1  0  0  0  0
  8 27  1  0  0  0  0
  8 28  1  0  0  0  0
  9 10  2  0  0  0  0
  9 11  1  0  0  0  0
  9 16  1  0  0  0  0
 10 13  1  0  0  0  0
 11 14  2  0  0  0  0
 11 18  1  0  0  0  0
 12 13  2  0  0  0  0
 12 14  1  0  0  0  0
 12 15  1  0  0  0  0
 15 20  2  0  0  0  0
 15 21  1  0  0  0  0
 16 17  1  0  0  0  0
 19 23  1  0  0  0  0
 21 23  2  0  0  0  0
 22 29  1  0  0  0  0
 24 28  1  0  0  0  0
 25 27  1  0  0  0  0
 30 32  1  0  0  0  0
 30 33  1  0  0  0  0
 30 34  1  0  0  0  0
M  END
> <PUBCHEM_COMPOUND_ID_TYPE>
0

> <PUBCHEM_TOTAL_CHARGE>
0

> <PUBCHEM_SUBSTANCE_ID>
310938220

> <PUBCHEM_SUBSTANCE_VERSION>
1

> <PUBCHEM_EXT_DATASOURCE_NAME>
4488

> <PUBCHEM_EXT_DATASOURCE_REGID>
SCHEMBL16116081

> <PUBCHEM_SUBSTANCE_COMMENT>
InChI=1S/C26H34N4O4/c1-6-28-10-9-20-21(24(31)33-5)15-19(16-22(20)28)18-7-8-23(27-17-18)29-11-13-30(14-12-29)25(32)34-26(2,3)4/h7-8,15-17H,6,9-14H2,1-5H3
InChIKey=CHNNAHMMHJEKEH-UHFFFAOYSA-N

> <PUBCHEM_SUBSTANCE_SYNONYM>
SCHEMBL16116081

> <PUBCHEM_XREF_EXT_ID>
SCHEMBL16116081

> <PUBCHEM_EXT_DATASOURCE_URL>
https://www.surechembl.org/

> <PUBCHEM_EXT_SUBSTANCE_URL>
https://www.surechembl.org/chemical/SCHEMBL16116081

> <PUBCHEM_CID_ASSOCIATIONS>
117605746  1

> <PUBCHEM_COORDINATE_TYPE>
1
3

$$$$
