310947780
  -OEChem-07211613022D

 15 17  0     1  0  0  0  0  0999 V2000
   -3.3909   -6.1415    0.0000 O   0  0  0  0  0  0  0  0  0  0  0  0
   -4.6840   -5.9660    0.0000 O   0  0  0  0  0  0  0  0  0  0  0  0
   -2.0973   -4.1462    0.0000 C   0  0  3  0  0  0  0  0  0  0  0  0
   -3.9630   -4.7286    0.0000 C   0  0  3  0  0  0  0  0  0  0  0  0
   -2.8077   -3.7276    0.0000 C   0  0  3  0  0  0  0  0  0  0  0  0
   -3.5255   -4.1344    0.0000 C   0  0  3  0  0  0  0  0  0  0  0  0
   -3.0190   -4.1462    0.0000 C   0  0  0  0  0  0  0  0  0  0  0  0
   -3.9696   -5.5535    0.0000 C   0  0  0  0  0  0  0  0  0  0  0  0
   -4.6318   -3.7451    0.0000 C   0  0  0  0  0  0  0  0  0  0  0  0
   -2.8224   -5.3749    0.0000 C   0  0  3  0  0  0  0  0  0  0  0  0
   -2.1047   -4.9681    0.0000 C   0  0  0  0  0  0  0  0  0  0  0  0
   -3.5327   -4.9596    0.0000 C   0  0  0  0  0  0  0  0  0  0  0  0
   -1.3828   -3.7337    0.0000 C   0  0  0  0  0  0  0  0  0  0  0  0
   -4.7880   -4.7286    0.0000 C   0  0  0  0  0  0  0  0  0  0  0  0
   -2.3952   -3.0131    0.0000 C   0  0  0  0  0  0  0  0  0  0  0  0
  1  8  1  0  0  0  0
  1 10  1  0  0  0  0
  2  8  2  0  0  0  0
  3  5  1  0  0  0  0
  3  7  1  0  0  0  0
  3 11  1  0  0  0  0
  3 13  1  0  0  0  0
  4  7  1  0  0  0  0
  4  8  1  0  0  0  0
  4  9  1  0  0  0  0
  4 14  1  0  0  0  0
  5  6  1  0  0  0  0
  5 15  1  0  0  0  0
  6  9  1  0  0  0  0
  6 12  1  0  0  0  0
 10 11  1  0  0  0  0
 10 12  1  0  0  0  0
M  END
> <PUBCHEM_COMPOUND_ID_TYPE>
0

> <PUBCHEM_TOTAL_CHARGE>
0

> <PUBCHEM_SUBSTANCE_ID>
310947780

> <PUBCHEM_SUBSTANCE_VERSION>
1

> <PUBCHEM_EXT_DATASOURCE_NAME>
4488

> <PUBCHEM_EXT_DATASOURCE_REGID>
SCHEMBL16125952

> <PUBCHEM_SUBSTANCE_COMMENT>
InChI=1S/C13H20O2/c1-8-9-4-10-6-12(8,2)7-13(3,5-9)11(14)15-10/h8-10H,4-7H2,1-3H3
InChIKey=KODLPUORPCEWBJ-UHFFFAOYSA-N

> <PUBCHEM_SUBSTANCE_SYNONYM>
SCHEMBL16125952

> <PUBCHEM_XREF_EXT_ID>
SCHEMBL16125952

> <PUBCHEM_EXT_DATASOURCE_URL>
https://www.surechembl.org/

> <PUBCHEM_EXT_SUBSTANCE_URL>
https://www.surechembl.org/chemical/SCHEMBL16125952

> <PUBCHEM_CID_ASSOCIATIONS>
117613449  1

> <PUBCHEM_COORDINATE_TYPE>
1
3

$$$$
