310933751
  -OEChem-07211613022D

 48 54  0     1  0  0  0  0  0999 V2000
    3.6850   -2.5300    0.0000 Cl  0  0  0  0  0  0  0  0  0  0  0  0
    2.7500   -3.8500    0.0000 F   0  0  0  0  0  0  0  0  0  0  0  0
    0.0000   -6.1051    0.0000 O   0  0  0  0  0  0  0  0  0  0  0  0
    2.8050   -4.5100    0.0000 O   0  0  0  0  0  0  0  0  0  0  0  0
    0.7150   -0.7700    0.0000 O   0  0  0  0  0  0  0  0  0  0  0  0
    1.3750   -6.1051    0.0000 N   0  0  0  0  0  0  0  0  0  0  0  0
    3.4650   -8.1400    0.0000 N   0  0  0  0  0  0  0  0  0  0  0  0
    1.1000   -3.6300    0.0000 N   0  0  0  0  0  0  0  0  0  0  0  0
    1.3750   -4.5100    0.0000 N   0  0  0  0  0  0  0  0  0  0  0  0
    0.2750   -3.6300    0.0000 N   0  0  0  0  0  0  0  0  0  0  0  0
    3.4650  -10.6150    0.0000 N   0  0  0  0  0  0  0  0  0  0  0  0
    2.0350   -0.7700    0.0000 N   0  0  0  0  0  0  0  0  0  0  0  0
    2.0900   -5.7200    0.0000 C   0  0  3  0  0  0  0  0  0  0  0  0
    2.8050   -6.1051    0.0000 C   0  0  0  0  0  0  0  0  0  0  0  0
    2.8050   -6.9301    0.0000 C   0  0  0  0  0  0  0  0  0  0  0  0
    3.4650   -7.3700    0.0000 C   0  0  0  0  0  0  0  0  0  0  0  0
    0.6600   -5.7200    0.0000 C   0  0  0  0  0  0  0  0  0  0  0  0
    2.0900   -4.8950    0.0000 C   0  0  0  0  0  0  0  0  0  0  0  0
    1.3750   -6.9301    0.0000 C   0  0  0  0  0  0  0  0  0  0  0  0
    2.0900   -7.3700    0.0000 C   0  0  0  0  0  0  0  0  0  0  0  0
    0.7150   -4.8950    0.0000 C   0  0  0  0  0  0  0  0  0  0  0  0
    3.4650   -5.7200    0.0000 C   0  0  0  0  0  0  0  0  0  0  0  0
    4.1800   -6.9301    0.0000 C   0  0  0  0  0  0  0  0  0  0  0  0
    1.5400   -4.5650    0.0000 C   0  0  0  0  0  0  0  0  0  0  0  0
    4.1800   -6.1051    0.0000 C   0  0  0  0  0  0  0  0  0  0  0  0
    0.0550   -4.4000    0.0000 C   0  0  0  0  0  0  0  0  0  0  0  0
    1.5950   -3.0250    0.0000 C   0  0  0  0  0  0  0  0  0  0  0  0
    4.1800   -8.5801    0.0000 C   0  0  0  0  0  0  0  0  0  0  0  0
    2.8050   -8.5250    0.0000 C   0  0  0  0  0  0  0  0  0  0  0  0
    2.3650   -3.0800    0.0000 C   0  0  0  0  0  0  0  0  0  0  0  0
    1.3750   -3.6850    0.0000 C   0  0  0  0  0  0  0  0  0  0  0  0
    1.2650   -2.2550    0.0000 C   0  0  0  0  0  0  0  0  0  0  0  0
    2.8600   -2.4750    0.0000 C   0  0  0  0  0  0  0  0  0  0  0  0
    3.4650   -9.7900    0.0000 C   0  0  0  0  0  0  0  0  0  0  0  0
    4.1800   -9.4051    0.0000 C   0  0  0  0  0  0  0  0  0  0  0  0
    2.7500   -9.3501    0.0000 C   0  0  0  0  0  0  0  0  0  0  0  0
    0.7150   -3.2450    0.0000 C   0  0  0  0  0  0  0  0  0  0  0  0
    2.0900   -3.2450    0.0000 C   0  0  0  0  0  0  0  0  0  0  0  0
    1.3750   -2.0350    0.0000 C   0  0  0  0  0  0  0  0  0  0  0  0
    1.7600   -1.5950    0.0000 C   0  0  0  0  0  0  0  0  0  0  0  0
    2.5850   -1.7050    0.0000 C   0  0  0  0  0  0  0  0  0  0  0  0
    0.7150   -2.4750    0.0000 C   0  0  0  0  0  0  0  0  0  0  0  0
    2.0900   -2.4750    0.0000 C   0  0  0  0  0  0  0  0  0  0  0  0
    1.3750   -1.2650    0.0000 C   0  0  0  0  0  0  0  0  0  0  0  0
    2.7500  -11.0001    0.0000 C   0  0  0  0  0  0  0  0  0  0  0  0
    4.1800  -11.0001    0.0000 C   0  0  0  0  0  0  0  0  0  0  0  0
    0.9900    0.0000    0.0000 C   0  0  0  0  0  0  0  0  0  0  0  0
    1.8150    0.0000    0.0000 C   0  0  0  0  0  0  0  0  0  0  0  0
  1 33  1  0  0  0  0
  2 30  1  0  0  0  0
  3 17  2  0  0  0  0
  4 18  2  0  0  0  0
  5 44  1  0  0  0  0
  5 47  1  0  0  0  0
  6 13  1  0  0  0  0
  6 17  1  0  0  0  0
  6 19  1  0  0  0  0
  7 16  1  0  0  0  0
  7 28  1  0  0  0  0
  7 29  1  0  0  0  0
  8 10  1  0  0  0  0
  8 24  1  0  0  0  0
  8 27  1  0  0  0  0
  9 18  1  0  0  0  0
  9 31  1  0  0  0  0
 10 26  2  0  0  0  0
 11 34  1  0  0  0  0
 11 45  1  0  0  0  0
 11 46  1  0  0  0  0
 12 44  2  0  0  0  0
 12 48  1  0  0  0  0
 13 14  1  0  0  0  0
 13 18  1  0  0  0  0
 14 15  2  0  0  0  0
 14 22  1  0  0  0  0
 15 16  1  0  0  0  0
 15 20  1  0  0  0  0
 16 23  2  0  0  0  0
 17 21  1  0  0  0  0
 19 20  1  0  0  0  0
 21 24  2  0  0  0  0
 21 26  1  0  0  0  0
 22 25  2  0  0  0  0
 23 25  1  0  0  0  0
 27 30  1  0  0  0  0
 27 32  2  0  0  0  0
 28 35  1  0  0  0  0
 29 36  1  0  0  0  0
 30 33  2  0  0  0  0
 31 37  2  0  0  0  0
 31 38  1  0  0  0  0
 32 40  1  0  0  0  0
 33 41  1  0  0  0  0
 34 35  1  0  0  0  0
 34 36  1  0  0  0  0
 37 42  1  0  0  0  0
 38 43  2  0  0  0  0
 39 42  2  0  0  0  0
 39 43  1  0  0  0  0
 39 44  1  0  0  0  0
 40 41  2  0  0  0  0
 47 48  2  0  0  0  0
M  END
> <PUBCHEM_COMPOUND_ID_TYPE>
0

> <PUBCHEM_TOTAL_CHARGE>
0

> <PUBCHEM_SUBSTANCE_ID>
310933751

> <PUBCHEM_SUBSTANCE_VERSION>
1

> <PUBCHEM_EXT_DATASOURCE_NAME>
4488

> <PUBCHEM_EXT_DATASOURCE_REGID>
SCHEMBL16111187

> <PUBCHEM_SUBSTANCE_COMMENT>
InChI=1S/C36H35ClFN7O3/c1-42(2)26-13-17-43(18-14-26)30-7-3-5-28-27(30)15-19-44(36(47)24-21-40-45(22-24)31-8-4-6-29(37)32(31)38)33(28)34(46)41-25-11-9-23(10-12-25)35-39-16-20-48-35/h3-12,16,20-22,26,33H,13-15,17-19H2,1-2H3,(H,41,46)
InChIKey=DJUCOOVKTPLJLE-UHFFFAOYSA-N

> <PUBCHEM_SUBSTANCE_SYNONYM>
SCHEMBL16111187

> <PUBCHEM_XREF_EXT_ID>
SCHEMBL16111187

> <PUBCHEM_EXT_DATASOURCE_URL>
https://www.surechembl.org/

> <PUBCHEM_EXT_SUBSTANCE_URL>
https://www.surechembl.org/chemical/SCHEMBL16111187

> <PUBCHEM_CID_ASSOCIATIONS>
117602110  1

> <PUBCHEM_COORDINATE_TYPE>
1
3

$$$$
