310931465
  -OEChem-07211613022D

 24 27  0     1  0  0  0  0  0999 V2000
    3.5356   -1.6028    0.0000 O   0  0  0  0  0  0  0  0  0  0  0  0
    4.6670   -3.5592    0.0000 O   0  0  0  0  0  0  0  0  0  0  0  0
    5.3741   -2.3335    0.0000 O   0  0  0  0  0  0  0  0  0  0  0  0
    0.7778    0.0000    0.0000 O   0  0  0  0  0  0  0  0  0  0  0  0
    3.1349   -2.3335    0.0000 C   0  0  3  0  0  0  0  0  0  0  0  0
    3.9599   -2.3335    0.0000 C   0  0  3  0  0  0  0  0  0  0  0  0
    2.5456   -1.7442    0.0000 C   0  0  0  0  0  0  0  0  0  0  0  0
    2.4042   -2.7342    0.0000 C   0  0  0  0  0  0  0  0  0  0  0  0
    4.6670   -2.7342    0.0000 C   0  0  0  0  0  0  0  0  0  0  0  0
    1.7442   -1.9564    0.0000 C   0  0  0  0  0  0  0  0  0  0  0  0
    2.7577   -0.9428    0.0000 C   0  0  0  0  0  0  0  0  0  0  0  0
    2.4042   -3.5827    0.0000 C   0  0  0  0  0  0  0  0  0  0  0  0
    1.6971   -2.3335    0.0000 C   0  0  0  0  0  0  0  0  0  0  0  0
    5.3741   -3.9834    0.0000 C   0  0  0  0  0  0  0  0  0  0  0  0
    1.1550   -1.3907    0.0000 C   0  0  0  0  0  0  0  0  0  0  0  0
    2.1685   -0.3771    0.0000 C   0  0  0  0  0  0  0  0  0  0  0  0
    1.6971   -3.9834    0.0000 C   0  0  0  0  0  0  0  0  0  0  0  0
    0.9900   -2.7342    0.0000 C   0  0  0  0  0  0  0  0  0  0  0  0
    1.3671   -0.5892    0.0000 C   0  0  0  0  0  0  0  0  0  0  0  0
    0.9664   -3.5592    0.0000 C   0  0  0  0  0  0  0  0  0  0  0  0
    6.1991   -3.9834    0.0000 C   0  0  0  0  0  0  0  0  0  0  0  0
    5.8219   -4.7141    0.0000 C   0  0  0  0  0  0  0  0  0  0  0  0
    0.2593   -3.9834    0.0000 C   0  0  0  0  0  0  0  0  0  0  0  0
    0.0000   -0.2121    0.0000 C   0  0  0  0  0  0  0  0  0  0  0  0
  1  5  1  0  0  0  0
  1  6  1  0  0  0  0
  2  9  1  0  0  0  0
  2 14  1  0  0  0  0
  3  9  2  0  0  0  0
  4 19  1  0  0  0  0
  4 24  1  0  0  0  0
  5  6  1  0  0  0  0
  5  7  1  0  0  0  0
  5  8  1  0  0  0  0
  6  9  1  0  0  0  0
  7 10  2  0  0  0  0
  7 11  1  0  0  0  0
  8 12  2  0  0  0  0
  8 13  1  0  0  0  0
 10 15  1  0  0  0  0
 11 16  2  0  0  0  0
 12 17  1  0  0  0  0
 13 18  2  0  0  0  0
 14 21  1  0  0  0  0
 14 22  1  0  0  0  0
 15 19  2  0  0  0  0
 16 19  1  0  0  0  0
 17 20  2  0  0  0  0
 18 20  1  0  0  0  0
 20 23  1  0  0  0  0
 21 22  1  0  0  0  0
M  END
> <PUBCHEM_COMPOUND_ID_TYPE>
0

> <PUBCHEM_TOTAL_CHARGE>
0

> <PUBCHEM_SUBSTANCE_ID>
310931465

> <PUBCHEM_SUBSTANCE_VERSION>
1

> <PUBCHEM_EXT_DATASOURCE_NAME>
4488

> <PUBCHEM_EXT_DATASOURCE_REGID>
SCHEMBL16108790

> <PUBCHEM_SUBSTANCE_COMMENT>
InChI=1S/C20H20O4/c1-13-3-5-14(6-4-13)20(15-7-9-16(22-2)10-8-15)18(24-20)19(21)23-17-11-12-17/h3-10,17-18H,11-12H2,1-2H3
InChIKey=NSAANAOREVRYMK-UHFFFAOYSA-N

> <PUBCHEM_SUBSTANCE_SYNONYM>
SCHEMBL16108790

> <PUBCHEM_XREF_EXT_ID>
SCHEMBL16108790

> <PUBCHEM_EXT_DATASOURCE_URL>
https://www.surechembl.org/

> <PUBCHEM_EXT_SUBSTANCE_URL>
https://www.surechembl.org/chemical/SCHEMBL16108790

> <PUBCHEM_CID_ASSOCIATIONS>
117600236  1

> <PUBCHEM_COORDINATE_TYPE>
1
3

$$$$
