310931193
  -OEChem-07211613022D

 26 29  0     1  0  0  0  0  0999 V2000
    5.0748   -1.6749    0.0000 Br  0  0  0  0  0  0  0  0  0  0  0  0
    0.7249    0.0000    0.0000 O   0  0  0  0  0  0  0  0  0  0  0  0
    1.4499   -1.2499    0.0000 N   0  0  0  0  0  0  0  0  0  0  0  0
    2.1999    0.0000    0.0000 N   0  0  0  0  0  0  0  0  0  0  0  0
    0.7249   -4.1748    0.0000 N   0  0  0  0  0  0  0  0  0  0  0  0
    2.1999   -1.6749    0.0000 C   0  0  3  0  0  0  0  0  0  0  0  0
    2.9248   -1.2499    0.0000 C   0  0  0  0  0  0  0  0  0  0  0  0
    2.9248   -0.4250    0.0000 C   0  0  0  0  0  0  0  0  0  0  0  0
    1.4499   -0.4250    0.0000 C   0  0  0  0  0  0  0  0  0  0  0  0
    2.1999   -2.4998    0.0000 C   0  0  0  0  0  0  0  0  0  0  0  0
    3.6248   -1.6749    0.0000 C   0  0  0  0  0  0  0  0  0  0  0  0
    0.7249   -1.6749    0.0000 C   0  0  0  0  0  0  0  0  0  0  0  0
    3.6248    0.0000    0.0000 C   0  0  0  0  0  0  0  0  0  0  0  0
    4.3498   -1.2499    0.0000 C   0  0  0  0  0  0  0  0  0  0  0  0
    0.7249   -2.4998    0.0000 C   0  0  0  0  0  0  0  0  0  0  0  0
    4.3498   -0.4250    0.0000 C   0  0  0  0  0  0  0  0  0  0  0  0
    2.9248   -2.9248    0.0000 C   0  0  0  0  0  0  0  0  0  0  0  0
    1.6499   -3.0998    0.0000 C   0  0  0  0  0  0  0  0  0  0  0  0
    0.0000   -2.9248    0.0000 C   0  0  0  0  0  0  0  0  0  0  0  0
    1.4499   -2.9248    0.0000 C   0  0  0  0  0  0  0  0  0  0  0  0
    2.9248   -3.7498    0.0000 C   0  0  0  0  0  0  0  0  0  0  0  0
    1.6499   -3.9248    0.0000 C   0  0  0  0  0  0  0  0  0  0  0  0
    2.1999   -4.1748    0.0000 C   0  0  0  0  0  0  0  0  0  0  0  0
    0.0000   -3.7498    0.0000 C   0  0  0  0  0  0  0  0  0  0  0  0
    1.4499   -3.7498    0.0000 C   0  0  0  0  0  0  0  0  0  0  0  0
    0.7249   -4.9997    0.0000 C   0  0  0  0  0  0  0  0  0  0  0  0
  1 14  1  0  0  0  0
  2  9  2  0  0  0  0
  3  6  1  0  0  0  0
  3  9  1  0  0  0  0
  3 12  1  0  0  0  0
  4  8  1  0  0  0  0
  4  9  1  0  0  0  0
  5 24  1  0  0  0  0
  5 25  1  0  0  0  0
  5 26  1  0  0  0  0
  6  7  1  0  0  0  0
  6 10  1  0  0  0  0
  7  8  2  0  0  0  0
  7 11  1  0  0  0  0
  8 13  1  0  0  0  0
 10 17  2  0  0  0  0
 10 18  1  0  0  0  0
 11 14  2  0  0  0  0
 12 15  1  0  0  0  0
 13 16  2  0  0  0  0
 14 16  1  0  0  0  0
 15 19  1  0  0  0  0
 15 20  1  0  0  0  0
 17 21  1  0  0  0  0
 18 22  2  0  0  0  0
 19 24  1  0  0  0  0
 20 25  1  0  0  0  0
 21 23  2  0  0  0  0
 22 23  1  0  0  0  0
M  END
> <PUBCHEM_COMPOUND_ID_TYPE>
0

> <PUBCHEM_TOTAL_CHARGE>
0

> <PUBCHEM_SUBSTANCE_ID>
310931193

> <PUBCHEM_SUBSTANCE_VERSION>
1

> <PUBCHEM_EXT_DATASOURCE_NAME>
4488

> <PUBCHEM_EXT_DATASOURCE_REGID>
SCHEMBL16108502

> <PUBCHEM_SUBSTANCE_COMMENT>
InChI=1S/C21H24BrN3O/c1-24-11-9-15(10-12-24)14-25-20(16-5-3-2-4-6-16)18-13-17(22)7-8-19(18)23-21(25)26/h2-8,13,15,20H,9-12,14H2,1H3,(H,23,26)
InChIKey=BFQSPUNAKRRAGP-UHFFFAOYSA-N

> <PUBCHEM_SUBSTANCE_SYNONYM>
SCHEMBL16108502

> <PUBCHEM_XREF_EXT_ID>
SCHEMBL16108502

> <PUBCHEM_EXT_DATASOURCE_URL>
https://www.surechembl.org/

> <PUBCHEM_EXT_SUBSTANCE_URL>
https://www.surechembl.org/chemical/SCHEMBL16108502

> <PUBCHEM_CID_ASSOCIATIONS>
117600048  1

> <PUBCHEM_COORDINATE_TYPE>
1
3

$$$$
