310942724
  -OEChem-07211613022D

 21 22  0     1  0  0  0  0  0999 V2000
    0.9609    0.3603    0.0000 S   0  0  0  0  0  0  0  0  0  0  0  0
    0.2231    0.9094    0.0000 O   0  0  0  0  0  0  0  0  0  0  0  0
   -1.5099   -1.4928    0.0000 O   0  0  0  0  0  0  0  0  0  0  0  0
    0.2231   -0.0687    0.0000 O   0  0  0  0  0  0  0  0  0  0  0  0
    0.9609    1.2011    0.0000 O   0  0  0  0  0  0  0  0  0  0  0  0
    1.6815    0.7721    0.0000 O   0  0  0  0  0  0  0  0  0  0  0  0
    2.2992    0.2231    0.0000 O   0  0  0  0  0  0  0  0  0  0  0  0
    2.9169   -0.9609    0.0000 O   0  0  0  0  0  0  0  0  0  0  0  0
   -0.4461   -0.4289    0.0000 N   0  0  0  0  0  0  0  0  0  0  0  0
   -1.2525    0.6691    0.0000 C   0  0  0  0  0  0  0  0  0  0  0  0
   -1.7330   -0.0343    0.0000 C   0  0  0  0  0  0  0  0  0  0  0  0
   -0.4804    0.4118    0.0000 C   0  0  0  0  0  0  0  0  0  0  0  0
   -1.2354   -0.6691    0.0000 C   0  0  0  0  0  0  0  0  0  0  0  0
    0.9094   -0.4804    0.0000 C   0  0  3  0  0  0  0  0  0  0  0  0
    0.2402   -0.8408    0.0000 C   0  0  0  0  0  0  0  0  0  0  0  0
   -1.6129    1.4241    0.0000 C   0  0  0  0  0  0  0  0  0  0  0  0
   -2.5737    0.0514    0.0000 C   0  0  0  0  0  0  0  0  0  0  0  0
    1.5786   -0.9094    0.0000 C   0  0  0  0  0  0  0  0  0  0  0  0
   -2.4364    1.4928    0.0000 C   0  0  0  0  0  0  0  0  0  0  0  0
   -2.9169    0.8236    0.0000 C   0  0  0  0  0  0  0  0  0  0  0  0
    2.2477   -0.5662    0.0000 C   0  0  0  0  0  0  0  0  0  0  0  0
  1  4  2  0  0  0  0
  1  5  2  0  0  0  0
  1  6  1  0  0  0  0
  1 14  1  0  0  0  0
  2 12  2  0  0  0  0
  3 13  2  0  0  0  0
  7 21  2  0  0  0  0
  8 21  1  0  0  0  0
  9 12  1  0  0  0  0
  9 13  1  0  0  0  0
  9 15  1  0  0  0  0
 10 11  2  0  0  0  0
 10 12  1  0  0  0  0
 10 16  1  0  0  0  0
 11 13  1  0  0  0  0
 11 17  1  0  0  0  0
 14 15  1  0  0  0  0
 14 18  1  0  0  0  0
 16 19  2  0  0  0  0
 17 20  2  0  0  0  0
 18 21  1  0  0  0  0
 19 20  1  0  0  0  0
M  END
> <PUBCHEM_COMPOUND_ID_TYPE>
0

> <PUBCHEM_TOTAL_CHARGE>
0

> <PUBCHEM_SUBSTANCE_ID>
310942724

> <PUBCHEM_SUBSTANCE_VERSION>
1

> <PUBCHEM_EXT_DATASOURCE_NAME>
4488

> <PUBCHEM_EXT_DATASOURCE_REGID>
SCHEMBL16120770

> <PUBCHEM_SUBSTANCE_COMMENT>
InChI=1S/C12H11NO7S/c14-10(15)5-7(21(18,19)20)6-13-11(16)8-3-1-2-4-9(8)12(13)17/h1-4,7H,5-6H2,(H,14,15)(H,18,19,20)
InChIKey=JBYABZIFJCSYLX-UHFFFAOYSA-N

> <PUBCHEM_SUBSTANCE_SYNONYM>
SCHEMBL16120770

> <PUBCHEM_XREF_EXT_ID>
SCHEMBL16120770

> <PUBCHEM_EXT_DATASOURCE_URL>
https://www.surechembl.org/

> <PUBCHEM_EXT_SUBSTANCE_URL>
https://www.surechembl.org/chemical/SCHEMBL16120770

> <PUBCHEM_CID_ASSOCIATIONS>
117609244  1

> <PUBCHEM_COORDINATE_TYPE>
1
3

$$$$
