310945775
  -OEChem-07211613022D

 46 50  0     1  0  0  0  0  0999 V2000
    5.2523   -1.0037    0.0000 O   0  0  0  0  0  0  0  0  0  0  0  0
    4.1387    0.9487    0.0000 O   0  0  0  0  0  0  0  0  0  0  0  0
    1.7737   -0.9900    0.0000 O   0  0  0  0  0  0  0  0  0  0  0  0
   -3.5199    0.9349    0.0000 O   0  0  0  0  0  0  0  0  0  0  0  0
   -0.5775    0.9487    0.0000 O   0  0  0  0  0  0  0  0  0  0  0  0
   -2.7086   -1.1137    0.0000 O   0  0  0  0  0  0  0  0  0  0  0  0
    0.8525   -2.3511    0.0000 O   0  0  0  0  0  0  0  0  0  0  0  0
    3.9186    2.7224    0.0000 O   0  0  0  0  0  0  0  0  0  0  0  0
    2.4887    0.2475    0.0000 N   0  0  0  0  0  0  0  0  0  0  0  0
    0.1375   -0.2887    0.0000 N   0  0  0  0  0  0  0  0  0  0  0  0
   -1.9937    0.1238    0.0000 N   0  0  0  0  0  0  0  0  0  0  0  0
   -0.5775   -1.5262    0.0000 N   0  0  0  0  0  0  0  0  0  0  0  0
   -4.3174    1.1137    0.0000 N   0  0  0  0  0  0  0  0  0  0  0  0
    4.8537   -0.2750    0.0000 C   0  0  3  0  0  0  0  0  0  0  0  0
    4.1249    0.1238    0.0000 C   0  0  0  0  0  0  0  0  0  0  0  0
    4.4549   -0.9762    0.0000 C   0  0  0  0  0  0  0  0  0  0  0  0
    3.4374   -0.2612    0.0000 C   0  0  3  0  0  0  0  0  0  0  0  0
    5.5549    0.1513    0.0000 C   0  0  0  0  0  0  0  0  0  0  0  0
    3.4236   -1.3337    0.0000 C   0  0  0  0  0  0  0  0  0  0  0  0
    1.7874   -0.1238    0.0000 C   0  0  0  0  0  0  0  0  0  0  0  0
    1.0725    0.2750    0.0000 C   0  0  3  0  0  0  0  0  0  0  0  0
    2.7086   -1.7462    0.0000 C   0  0  0  0  0  0  0  0  0  0  0  0
   -0.5775    0.1238    0.0000 C   0  0  0  0  0  0  0  0  0  0  0  0
   -1.2787   -0.2612    0.0000 C   0  0  3  0  0  0  0  0  0  0  0  0
    1.0862    1.1000    0.0000 C   0  0  0  0  0  0  0  0  0  0  0  0
   -2.7086   -0.2475    0.0000 C   0  0  0  0  0  0  0  0  0  0  0  0
   -3.4374    0.1513    0.0000 C   0  0  0  0  0  0  0  0  0  0  0  0
    1.7874    1.5125    0.0000 C   0  0  0  0  0  0  0  0  0  0  0  0
    1.9662   -1.4300    0.0000 C   0  0  0  0  0  0  0  0  0  0  0  0
    2.6262   -2.5574    0.0000 C   0  0  0  0  0  0  0  0  0  0  0  0
   -1.2787   -1.1000    0.0000 C   0  0  0  0  0  0  0  0  0  0  0  0
   -4.1936   -0.1788    0.0000 C   0  0  0  0  0  0  0  0  0  0  0  0
    1.4162   -2.0212    0.0000 C   0  0  0  0  0  0  0  0  0  0  0  0
    1.8150   -2.7224    0.0000 C   0  0  0  0  0  0  0  0  0  0  0  0
   -4.7299    0.4263    0.0000 C   0  0  0  0  0  0  0  0  0  0  0  0
    1.8012    2.3375    0.0000 C   0  0  0  0  0  0  0  0  0  0  0  0
    2.5024    1.1000    0.0000 C   0  0  0  0  0  0  0  0  0  0  0  0
    3.2174    2.3375    0.0000 C   0  0  0  0  0  0  0  0  0  0  0  0
    2.4887    2.7361    0.0000 C   0  0  0  0  0  0  0  0  0  0  0  0
    3.2174    1.5125    0.0000 C   0  0  0  0  0  0  0  0  0  0  0  0
   -0.5637   -2.3375    0.0000 C   0  0  0  0  0  0  0  0  0  0  0  0
    0.1238   -1.1000    0.0000 C   0  0  0  0  0  0  0  0  0  0  0  0
   -5.5549    0.3162    0.0000 C   0  0  0  0  0  0  0  0  0  0  0  0
    0.1513   -2.7361    0.0000 C   0  0  0  0  0  0  0  0  0  0  0  0
    0.8525   -1.5125    0.0000 C   0  0  0  0  0  0  0  0  0  0  0  0
    4.6474    2.3100    0.0000 C   0  0  0  0  0  0  0  0  0  0  0  0
  1 14  1  0  0  0  0
  1 16  1  0  0  0  0
  2 15  2  0  0  0  0
  3 20  2  0  0  0  0
  4 13  1  0  0  0  0
  4 27  1  0  0  0  0
  5 23  2  0  0  0  0
  6 26  2  0  0  0  0
  7 44  1  0  0  0  0
  7 45  1  0  0  0  0
  8 38  1  0  0  0  0
  8 46  1  0  0  0  0
  9 17  1  0  0  0  0
  9 20  1  0  0  0  0
 10 21  1  0  0  0  0
 10 23  1  0  0  0  0
 11 24  1  0  0  0  0
 11 26  1  0  0  0  0
 12 31  1  0  0  0  0
 12 41  1  0  0  0  0
 12 42  1  0  0  0  0
 13 35  2  0  0  0  0
 14 15  1  0  0  0  0
 14 16  1  0  0  0  0
 14 18  1  0  0  0  0
 15 17  1  0  0  0  0
 17 19  1  0  0  0  0
 19 22  1  0  0  0  0
 20 21  1  0  0  0  0
 21 25  1  0  0  0  0
 22 29  1  0  0  0  0
 22 30  1  0  0  0  0
 23 24  1  0  0  0  0
 24 31  1  0  0  0  0
 25 28  1  0  0  0  0
 26 27  1  0  0  0  0
 27 32  2  0  0  0  0
 28 36  2  0  0  0  0
 28 37  1  0  0  0  0
 29 33  1  0  0  0  0
 30 34  1  0  0  0  0
 32 35  1  0  0  0  0
 33 34  1  0  0  0  0
 35 43  1  0  0  0  0
 36 39  1  0  0  0  0
 37 40  2  0  0  0  0
 38 39  2  0  0  0  0
 38 40  1  0  0  0  0
 41 44  1  0  0  0  0
 42 45  1  0  0  0  0
M  END
> <PUBCHEM_COMPOUND_ID_TYPE>
0

> <PUBCHEM_TOTAL_CHARGE>
0

> <PUBCHEM_SUBSTANCE_ID>
310945775

> <PUBCHEM_SUBSTANCE_VERSION>
1

> <PUBCHEM_EXT_DATASOURCE_NAME>
4488

> <PUBCHEM_EXT_DATASOURCE_REGID>
SCHEMBL16123879

> <PUBCHEM_SUBSTANCE_COMMENT>
InChI=1S/C33H45N5O8/c1-21-16-28(46-37-21)32(42)36-27(19-38-12-14-44-15-13-38)31(41)35-26(18-23-8-10-24(43-3)11-9-23)30(40)34-25(17-22-6-4-5-7-22)29(39)33(2)20-45-33/h8-11,16,22,25-27H,4-7,12-15,17-20H2,1-3H3,(H,34,40)(H,35,41)(H,36,42)
InChIKey=QCQDDRIVVMHWRO-UHFFFAOYSA-N

> <PUBCHEM_SUBSTANCE_SYNONYM>
SCHEMBL16123879

> <PUBCHEM_XREF_EXT_ID>
SCHEMBL16123879

> <PUBCHEM_EXT_DATASOURCE_URL>
https://www.surechembl.org/

> <PUBCHEM_EXT_SUBSTANCE_URL>
https://www.surechembl.org/chemical/SCHEMBL16123879

> <PUBCHEM_CID_ASSOCIATIONS>
117611763  1

> <PUBCHEM_COORDINATE_TYPE>
1
3

$$$$
