310947223
  -OEChem-07211613022D

 26 27  0     1  0  0  0  0  0999 V2000
    2.4254    7.5259    0.0000 F   0  0  0  0  0  0  0  0  0  0  0  0
    3.1398    7.1134    0.0000 F   0  0  0  0  0  0  0  0  0  0  0  0
   -0.4325    5.0509    0.0000 O   0  0  0  0  0  0  0  0  0  0  0  0
   -2.5759    5.4634    0.0000 O   0  0  0  0  0  0  0  0  0  0  0  0
   -1.2171    7.7809    0.0000 N   0  0  0  0  0  0  0  0  0  0  0  0
   -1.7021    7.1134    0.0000 N   0  0  0  0  0  0  0  0  0  0  0  0
   -0.0627    8.9062    0.0000 N   0  0  3  0  0  0  0  0  0  0  0  0
    0.8905   10.8698    0.0000 N   0  0  0  0  0  0  0  0  0  0  0  0
    0.2819    6.2884    0.0000 C   0  0  0  0  0  0  0  0  0  0  0  0
   -0.4325    6.7009    0.0000 C   0  0  0  0  0  0  0  0  0  0  0  0
    0.2819    5.4634    0.0000 C   0  0  0  0  0  0  0  0  0  0  0  0
    1.7109    6.2884    0.0000 C   0  0  0  0  0  0  0  0  0  0  0  0
   -0.4325    7.5259    0.0000 C   0  0  0  0  0  0  0  0  0  0  0  0
    0.9964    6.7009    0.0000 C   0  0  0  0  0  0  0  0  0  0  0  0
    2.4254    6.7009    0.0000 C   0  0  0  0  0  0  0  0  0  0  0  0
   -1.2171    6.4460    0.0000 C   0  0  0  0  0  0  0  0  0  0  0  0
    0.9964    5.0509    0.0000 C   0  0  0  0  0  0  0  0  0  0  0  0
    1.7109    5.4634    0.0000 C   0  0  0  0  0  0  0  0  0  0  0  0
    0.1508    8.1093    0.0000 C   0  0  0  0  0  0  0  0  0  0  0  0
    3.1398    6.2884    0.0000 C   0  0  0  0  0  0  0  0  0  0  0  0
   -1.1470    5.4634    0.0000 C   0  0  0  0  0  0  0  0  0  0  0  0
    0.5207    9.4896    0.0000 C   0  0  0  0  0  0  0  0  0  0  0  0
   -0.8596    9.1197    0.0000 C   0  0  0  0  0  0  0  0  0  0  0  0
   -1.8615    5.0509    0.0000 C   0  0  0  0  0  0  0  0  0  0  0  0
    0.3072   10.2864    0.0000 C   0  0  0  0  0  0  0  0  0  0  0  0
   -3.2904    5.0509    0.0000 C   0  0  0  0  0  0  0  0  0  0  0  0
  1 15  1  0  0  0  0
  2 15  1  0  0  0  0
  3 11  1  0  0  0  0
  3 21  1  0  0  0  0
  4 24  1  0  0  0  0
  4 26  1  0  0  0  0
  5  6  1  0  0  0  0
  5 13  2  0  0  0  0
  6 16  1  0  0  0  0
  7 19  1  0  0  0  0
  7 22  1  0  0  0  0
  7 23  1  0  0  0  0
  8 25  1  0  0  0  0
  9 10  1  0  0  0  0
  9 11  2  0  0  0  0
  9 14  1  0  0  0  0
 10 13  1  0  0  0  0
 10 16  2  0  0  0  0
 11 17  1  0  0  0  0
 12 14  2  0  0  0  0
 12 15  1  0  0  0  0
 12 18  1  0  0  0  0
 13 19  1  0  0  0  0
 15 20  1  0  0  0  0
 17 18  2  0  0  0  0
 21 24  1  0  0  0  0
 22 25  1  0  0  0  0
M  END
> <PUBCHEM_COMPOUND_ID_TYPE>
0

> <PUBCHEM_TOTAL_CHARGE>
0

> <PUBCHEM_SUBSTANCE_ID>
310947223

> <PUBCHEM_SUBSTANCE_VERSION>
1

> <PUBCHEM_EXT_DATASOURCE_NAME>
4488

> <PUBCHEM_EXT_DATASOURCE_REGID>
SCHEMBL16125378

> <PUBCHEM_SUBSTANCE_COMMENT>
InChI=1S/C18H26F2N4O2/c1-18(19,20)13-4-5-17(26-9-8-25-3)14(10-13)15-11-22-23-16(15)12-24(2)7-6-21/h4-5,10-11H,6-9,12,21H2,1-3H3,(H,22,23)
InChIKey=PTNUMSRDBSLTBG-UHFFFAOYSA-N

> <PUBCHEM_SUBSTANCE_SYNONYM>
SCHEMBL16125378

> <PUBCHEM_XREF_EXT_ID>
SCHEMBL16125378

> <PUBCHEM_EXT_DATASOURCE_URL>
https://www.surechembl.org/

> <PUBCHEM_EXT_SUBSTANCE_URL>
https://www.surechembl.org/chemical/SCHEMBL16125378

> <PUBCHEM_CID_ASSOCIATIONS>
117613038  1

> <PUBCHEM_COORDINATE_TYPE>
1
3

$$$$
