310947343
  -OEChem-07211613022D

 31 34  0     1  0  0  0  0  0999 V2000
    3.3284    0.0153    0.0000 F   0  0  0  0  0  0  0  0  0  0  0  0
    1.5783   -1.7348    0.0000 O   0  0  0  0  0  0  0  0  0  0  0  0
   -0.9799    1.9629    0.0000 O   0  0  0  0  0  0  0  0  0  0  0  0
    1.9481   -0.3546    0.0000 N   0  0  0  0  0  0  0  0  0  0  0  0
    2.4330    0.3129    0.0000 N   0  0  0  0  0  0  0  0  0  0  0  0
   -1.6944    0.7254    0.0000 N   0  0  0  0  0  0  0  0  0  0  0  0
    4.5523   -1.7920    0.0000 N   0  0  0  0  0  0  0  0  0  0  0  0
    1.1635   -0.0996    0.0000 C   0  0  0  0  0  0  0  0  0  0  0  0
    1.1635    0.7254    0.0000 C   0  0  0  0  0  0  0  0  0  0  0  0
    1.9481    0.9803    0.0000 C   0  0  0  0  0  0  0  0  0  0  0  0
    2.1616   -1.1514    0.0000 C   0  0  0  0  0  0  0  0  0  0  0  0
    0.4490    1.1379    0.0000 C   0  0  0  0  0  0  0  0  0  0  0  0
   -0.2655    0.7254    0.0000 C   0  0  0  0  0  0  0  0  0  0  0  0
    0.4490   -0.5121    0.0000 C   0  0  0  0  0  0  0  0  0  0  0  0
    2.9585   -1.3650    0.0000 C   0  0  0  0  0  0  0  0  0  0  0  0
   -0.2655   -0.0996    0.0000 C   0  0  0  0  0  0  0  0  0  0  0  0
   -0.9799    1.1379    0.0000 C   0  0  0  0  0  0  0  0  0  0  0  0
    3.5419   -0.7816    0.0000 C   0  0  0  0  0  0  0  0  0  0  0  0
    2.3606    1.6948    0.0000 C   0  0  0  0  0  0  0  0  0  0  0  0
    3.1720   -2.1619    0.0000 C   0  0  0  0  0  0  0  0  0  0  0  0
    4.3388   -0.9951    0.0000 C   0  0  0  0  0  0  0  0  0  0  0  0
   -2.4089    1.1379    0.0000 C   0  0  3  0  0  0  0  0  0  0  0  0
    3.9689   -2.3754    0.0000 C   0  0  0  0  0  0  0  0  0  0  0  0
   -3.1233    0.7254    0.0000 C   0  0  0  0  0  0  0  0  0  0  0  0
   -2.4089    1.9629    0.0000 C   0  0  0  0  0  0  0  0  0  0  0  0
   -3.8378    1.1379    0.0000 C   0  0  0  0  0  0  0  0  0  0  0  0
   -3.1233   -0.0996    0.0000 C   0  0  0  0  0  0  0  0  0  0  0  0
   -4.5523    0.7254    0.0000 C   0  0  0  0  0  0  0  0  0  0  0  0
   -3.8378   -0.5121    0.0000 C   0  0  0  0  0  0  0  0  0  0  0  0
   -4.5523   -0.0996    0.0000 C   0  0  0  0  0  0  0  0  0  0  0  0
   -3.1233    2.3754    0.0000 C   0  0  0  0  0  0  0  0  0  0  0  0
  1 18  1  0  0  0  0
  2 11  2  0  0  0  0
  3 17  2  0  0  0  0
  4  5  1  0  0  0  0
  4  8  1  0  0  0  0
  4 11  1  0  0  0  0
  5 10  2  0  0  0  0
  6 17  1  0  0  0  0
  6 22  1  0  0  0  0
  7 21  1  0  0  0  0
  7 23  2  0  0  0  0
  8  9  1  0  0  0  0
  8 14  2  0  0  0  0
  9 10  1  0  0  0  0
  9 12  2  0  0  0  0
 10 19  1  0  0  0  0
 11 15  1  0  0  0  0
 12 13  1  0  0  0  0
 13 16  2  0  0  0  0
 13 17  1  0  0  0  0
 14 16  1  0  0  0  0
 15 18  1  0  0  0  0
 15 20  2  0  0  0  0
 18 21  2  0  0  0  0
 20 23  1  0  0  0  0
 22 24  1  0  0  0  0
 22 25  1  0  0  0  0
 24 26  2  0  0  0  0
 24 27  1  0  0  0  0
 25 31  1  0  0  0  0
 26 28  1  0  0  0  0
 27 29  2  0  0  0  0
 28 30  2  0  0  0  0
 29 30  1  0  0  0  0
M  END
> <PUBCHEM_COMPOUND_ID_TYPE>
0

> <PUBCHEM_TOTAL_CHARGE>
0

> <PUBCHEM_SUBSTANCE_ID>
310947343

> <PUBCHEM_SUBSTANCE_VERSION>
1

> <PUBCHEM_EXT_DATASOURCE_NAME>
4488

> <PUBCHEM_EXT_DATASOURCE_REGID>
SCHEMBL16125498

> <PUBCHEM_SUBSTANCE_COMMENT>
InChI=1S/C24H21FN4O2/c1-3-21(16-7-5-4-6-8-16)27-23(30)17-9-10-22-19(13-17)15(2)28-29(22)24(31)18-11-12-26-14-20(18)25/h4-14,21H,3H2,1-2H3,(H,27,30)
InChIKey=LVXQMRZUYZETBB-UHFFFAOYSA-N

> <PUBCHEM_SUBSTANCE_SYNONYM>
SCHEMBL16125498

> <PUBCHEM_XREF_EXT_ID>
SCHEMBL16125498

> <PUBCHEM_EXT_DATASOURCE_URL>
https://www.surechembl.org/

> <PUBCHEM_EXT_SUBSTANCE_URL>
https://www.surechembl.org/chemical/SCHEMBL16125498

> <PUBCHEM_CID_ASSOCIATIONS>
71577579  1

> <PUBCHEM_COORDINATE_TYPE>
1
3

$$$$
