310935125
  -OEChem-07211613022D

 39 44  0     1  0  0  0  0  0999 V2000
    3.5724   -5.3625    0.0000 S   0  0  0  0  0  0  0  0  0  0  0  0
    3.9849   -4.6480    0.0000 O   0  0  0  0  0  0  0  0  0  0  0  0
    3.1599   -6.0770    0.0000 O   0  0  0  0  0  0  0  0  0  0  0  0
    1.4289   -2.4750    0.0000 N   0  0  0  0  0  0  0  0  0  0  0  0
    0.7145   -1.2375    0.0000 N   0  0  0  0  0  0  0  0  0  0  0  0
    1.4289    0.0000    0.0000 N   0  0  0  0  0  0  0  0  0  0  0  0
    4.2868   -5.7750    0.0000 N   0  0  3  0  0  0  0  0  0  0  0  0
    5.5925   -1.9275    0.0000 N   0  0  0  0  0  0  0  0  0  0  0  0
    5.1800   -2.6420    0.0000 N   0  0  0  0  0  0  0  0  0  0  0  0
    6.4302   -7.8375    0.0000 N   0  0  0  0  0  0  0  0  0  0  0  0
    2.1434   -1.2375    0.0000 C   0  0  0  0  0  0  0  0  0  0  0  0
    1.4289   -1.6500    0.0000 C   0  0  0  0  0  0  0  0  0  0  0  0
    2.1434   -0.4125    0.0000 C   0  0  0  0  0  0  0  0  0  0  0  0
    2.1434   -3.7125    0.0000 C   0  0  0  0  0  0  0  0  0  0  0  0
    2.8579   -4.9500    0.0000 C   0  0  0  0  0  0  0  0  0  0  0  0
    1.4289   -4.1250    0.0000 C   0  0  0  0  0  0  0  0  0  0  0  0
    3.5724   -1.2375    0.0000 C   0  0  0  0  0  0  0  0  0  0  0  0
    2.8579   -1.6500    0.0000 C   0  0  0  0  0  0  0  0  0  0  0  0
    2.8579    0.0000    0.0000 C   0  0  0  0  0  0  0  0  0  0  0  0
    2.1434   -2.8875    0.0000 C   0  0  0  0  0  0  0  0  0  0  0  0
    2.8579   -4.1250    0.0000 C   0  0  0  0  0  0  0  0  0  0  0  0
    3.5724   -0.4125    0.0000 C   0  0  0  0  0  0  0  0  0  0  0  0
    0.7145   -2.8875    0.0000 C   0  0  0  0  0  0  0  0  0  0  0  0
    4.2868   -1.6500    0.0000 C   0  0  0  0  0  0  0  0  0  0  0  0
    0.7145   -3.7125    0.0000 C   0  0  0  0  0  0  0  0  0  0  0  0
    2.1434   -5.3625    0.0000 C   0  0  0  0  0  0  0  0  0  0  0  0
    1.4289   -4.9500    0.0000 C   0  0  0  0  0  0  0  0  0  0  0  0
    0.7145   -0.4125    0.0000 C   0  0  0  0  0  0  0  0  0  0  0  0
    5.0405   -1.3144    0.0000 C   0  0  0  0  0  0  0  0  0  0  0  0
    4.3731   -2.4705    0.0000 C   0  0  0  0  0  0  0  0  0  0  0  0
    4.2868   -6.6000    0.0000 C   0  0  0  0  0  0  0  0  0  0  0  0
    2.8579    0.8250    0.0000 C   0  0  0  0  0  0  0  0  0  0  0  0
    5.0013   -7.0125    0.0000 C   0  0  0  0  0  0  0  0  0  0  0  0
    5.0013   -5.3625    0.0000 C   0  0  0  0  0  0  0  0  0  0  0  0
    5.7158   -6.6000    0.0000 C   0  0  0  0  0  0  0  0  0  0  0  0
    5.0013   -7.8375    0.0000 C   0  0  0  0  0  0  0  0  0  0  0  0
    6.4130   -1.8413    0.0000 C   0  0  0  0  0  0  0  0  0  0  0  0
    6.4302   -7.0125    0.0000 C   0  0  0  0  0  0  0  0  0  0  0  0
    5.7158   -8.2500    0.0000 C   0  0  0  0  0  0  0  0  0  0  0  0
  1  2  2  0  0  0  0
  1  3  2  0  0  0  0
  1  7  1  0  0  0  0
  1 15  1  0  0  0  0
  4 12  1  0  0  0  0
  4 20  1  0  0  0  0
  4 23  1  0  0  0  0
  5 12  2  0  0  0  0
  5 28  1  0  0  0  0
  6 13  1  0  0  0  0
  6 28  2  0  0  0  0
  7 31  1  0  0  0  0
  7 34  1  0  0  0  0
  8  9  1  0  0  0  0
  8 29  1  0  0  0  0
  8 37  1  0  0  0  0
  9 30  2  0  0  0  0
 10 38  1  0  0  0  0
 10 39  1  0  0  0  0
 11 12  1  0  0  0  0
 11 13  1  0  0  0  0
 11 18  2  0  0  0  0
 13 19  2  0  0  0  0
 14 16  2  0  0  0  0
 14 20  1  0  0  0  0
 14 21  1  0  0  0  0
 15 21  2  0  0  0  0
 15 26  1  0  0  0  0
 16 25  1  0  0  0  0
 16 27  1  0  0  0  0
 17 18  1  0  0  0  0
 17 22  2  0  0  0  0
 17 24  1  0  0  0  0
 19 22  1  0  0  0  0
 19 32  1  0  0  0  0
 23 25  1  0  0  0  0
 24 29  2  0  0  0  0
 24 30  1  0  0  0  0
 26 27  2  0  0  0  0
 31 33  1  0  0  0  0
 33 35  1  0  0  0  0
 33 36  1  0  0  0  0
 35 38  1  0  0  0  0
 36 39  1  0  0  0  0
M  END
> <PUBCHEM_COMPOUND_ID_TYPE>
0

> <PUBCHEM_TOTAL_CHARGE>
0

> <PUBCHEM_SUBSTANCE_ID>
310935125

> <PUBCHEM_SUBSTANCE_VERSION>
1

> <PUBCHEM_EXT_DATASOURCE_NAME>
4488

> <PUBCHEM_EXT_DATASOURCE_REGID>
SCHEMBL16112652

> <PUBCHEM_SUBSTANCE_COMMENT>
InChI=1S/C29H35N7O2S/c1-20-12-23(25-15-33-34(2)17-25)14-27-28(20)31-19-32-29(27)36-11-8-22-4-5-26(13-24(22)18-36)39(37,38)35(3)16-21-6-9-30-10-7-21/h4-5,12-15,17,19,21,30H,6-11,16,18H2,1-3H3
InChIKey=YFVUGFDCJTTYBN-UHFFFAOYSA-N

> <PUBCHEM_SUBSTANCE_SYNONYM>
SCHEMBL16112652

> <PUBCHEM_XREF_EXT_ID>
SCHEMBL16112652

> <PUBCHEM_EXT_DATASOURCE_URL>
https://www.surechembl.org/

> <PUBCHEM_EXT_SUBSTANCE_URL>
https://www.surechembl.org/chemical/SCHEMBL16112652

> <PUBCHEM_CID_ASSOCIATIONS>
86300906  1

> <PUBCHEM_COORDINATE_TYPE>
1
3

$$$$
