310936780
  -OEChem-07211613022D

 18 20  0     1  0  0  0  0  0999 V2000
    1.2089   -2.8460    0.0000 O   0  0  0  0  0  0  0  0  0  0  0  0
    0.1007   -2.4179    0.0000 O   0  0  0  0  0  0  0  0  0  0  0  0
    1.5363   -2.4179    0.0000 O   0  0  0  0  0  0  0  0  0  0  0  0
    0.8311   -1.1586    0.0000 N   0  0  0  0  0  0  0  0  0  0  0  0
    1.2341   -4.3069    0.0000 N   0  0  0  0  0  0  0  0  0  0  0  0
    1.6623   -5.0121    0.0000 N   0  0  0  0  0  0  0  0  0  0  0  0
    1.6119   -0.7052    0.0000 C   0  0  3  0  0  0  0  0  0  0  0  0
    0.0000   -0.7052    0.0000 C   0  0  3  0  0  0  0  0  0  0  0  0
    1.2089   -1.4104    0.0000 C   0  0  3  0  0  0  0  0  0  0  0  0
    0.4281   -1.4104    0.0000 C   0  0  0  0  0  0  0  0  0  0  0  0
    1.2089    0.0000    0.0000 C   0  0  0  0  0  0  0  0  0  0  0  0
    0.4281    0.0000    0.0000 C   0  0  0  0  0  0  0  0  0  0  0  0
    0.8311   -1.9897    0.0000 C   0  0  0  0  0  0  0  0  0  0  0  0
    1.6371   -2.1156    0.0000 C   0  0  0  0  0  0  0  0  0  0  0  0
    1.6371   -3.5513    0.0000 C   0  0  0  0  0  0  0  0  0  0  0  0
    2.4935   -3.5765    0.0000 C   0  0  0  0  0  0  0  0  0  0  0  0
    2.8964   -4.2817    0.0000 C   0  0  0  0  0  0  0  0  0  0  0  0
    2.4935   -5.0372    0.0000 C   0  0  0  0  0  0  0  0  0  0  0  0
  1 14  1  0  0  0  0
  1 15  1  0  0  0  0
  2 13  2  0  0  0  0
  3 13  1  0  0  0  0
  4  7  1  0  0  0  0
  4  8  1  0  0  0  0
  4 13  1  0  0  0  0
  5  6  2  0  0  0  0
  5 15  1  0  0  0  0
  6 18  1  0  0  0  0
  7  9  1  0  0  0  0
  7 11  1  0  0  0  0
  8 10  1  0  0  0  0
  8 12  1  0  0  0  0
  9 10  1  0  0  0  0
  9 14  1  0  0  0  0
 11 12  1  0  0  0  0
 15 16  2  0  0  0  0
 16 17  1  0  0  0  0
 17 18  2  0  0  0  0
M  END
> <PUBCHEM_COMPOUND_ID_TYPE>
0

> <PUBCHEM_TOTAL_CHARGE>
0

> <PUBCHEM_SUBSTANCE_ID>
310936780

> <PUBCHEM_SUBSTANCE_VERSION>
1

> <PUBCHEM_EXT_DATASOURCE_NAME>
4488

> <PUBCHEM_EXT_DATASOURCE_REGID>
SCHEMBL16114464

> <PUBCHEM_SUBSTANCE_COMMENT>
InChI=1S/C12H15N3O3/c16-12(17)15-9-3-4-10(15)8(6-9)7-18-11-2-1-5-13-14-11/h1-2,5,8-10H,3-4,6-7H2,(H,16,17)
InChIKey=BDGHYIUYGZPLML-UHFFFAOYSA-N

> <PUBCHEM_SUBSTANCE_SYNONYM>
SCHEMBL16114464

> <PUBCHEM_XREF_EXT_ID>
SCHEMBL16114464

> <PUBCHEM_EXT_DATASOURCE_URL>
https://www.surechembl.org/

> <PUBCHEM_EXT_SUBSTANCE_URL>
https://www.surechembl.org/chemical/SCHEMBL16114464

> <PUBCHEM_CID_ASSOCIATIONS>
117604675  1

> <PUBCHEM_COORDINATE_TYPE>
1
3

$$$$
