310946598
  -OEChem-07211613022D

 28 27  0     1  0  0  0  0  0999 V2000
   -8.2365   17.2132    0.0000 S   0  0  0  0  0  0  0  0  0  0  0  0
  -11.0864   15.5632    0.0000 O   0  0  0  0  0  0  0  0  0  0  0  0
   -7.5221   18.4508    0.0000 O   0  0  0  0  0  0  0  0  0  0  0  0
   -8.2365   14.7382    0.0000 O   0  0  0  0  0  0  0  0  0  0  0  0
   -7.5221   15.9758    0.0000 O   0  0  0  0  0  0  0  0  0  0  0  0
  -10.3719   16.8925    0.0000 O   0  0  0  0  0  0  0  0  0  0  0  0
   -8.9509   18.4508    0.0000 O   0  0  0  0  0  0  0  0  0  0  0  0
  -11.8008   13.5008    0.0000 O   0  0  0  0  0  0  0  0  0  0  0  0
  -11.8008   11.8508    0.0000 O   0  0  0  0  0  0  0  0  0  0  0  0
   -5.3786   18.0382    0.0000 O   0  0  0  0  0  0  0  0  0  0  0  0
  -10.3719   11.8508    0.0000 O   0  5  0  0  0  0  0  0  0  0  0  0
  -11.0864   13.0883    0.0000 O   0  0  0  0  0  0  0  0  0  0  0  0
   -9.6654   15.5632    0.0000 N   0  0  0  0  0  0  0  0  0  0  0  0
  -11.0864   12.2633    0.0000 N   0  3  0  0  0  0  0  0  0  0  0  0
   -8.9509   15.9758    0.0000 C   0  0  3  0  0  0  0  0  0  0  0  0
   -8.2365   15.5632    0.0000 C   0  0  0  0  0  0  0  0  0  0  0  0
   -8.9509   16.8008    0.0000 C   0  0  0  0  0  0  0  0  0  0  0  0
  -10.3719   15.9758    0.0000 C   0  0  0  0  0  0  0  0  0  0  0  0
   -8.2365   18.0382    0.0000 C   0  0  0  0  0  0  0  0  0  0  0  0
  -11.0864   14.7382    0.0000 C   0  0  0  0  0  0  0  0  0  0  0  0
   -6.8075   18.0382    0.0000 C   0  0  0  0  0  0  0  0  0  0  0  0
  -11.8008   14.3258    0.0000 C   0  0  0  0  0  0  0  0  0  0  0  0
   -6.0931   18.4508    0.0000 C   0  0  0  0  0  0  0  0  0  0  0  0
  -12.5153   13.0883    0.0000 C   0  0  0  0  0  0  0  0  0  0  0  0
  -12.5153   12.2633    0.0000 C   0  0  0  0  0  0  0  0  0  0  0  0
   -4.6642   18.4508    0.0000 C   0  0  0  0  0  0  0  0  0  0  0  0
   -3.9496   18.0382    0.0000 C   0  0  0  0  0  0  0  0  0  0  0  0
   -3.2352   18.4508    0.0000 C   0  0  0  0  0  0  0  0  0  0  0  0
  1 17  1  0  0  0  0
  1 19  1  0  0  0  0
  2 18  1  0  0  0  0
  2 20  1  0  0  0  0
  3 19  1  0  0  0  0
  3 21  1  0  0  0  0
  4 16  2  0  0  0  0
  5 16  1  0  0  0  0
  6 18  2  0  0  0  0
  7 19  2  0  0  0  0
  8 22  1  0  0  0  0
  8 24  1  0  0  0  0
  9 14  1  0  0  0  0
  9 25  1  0  0  0  0
 10 23  1  0  0  0  0
 10 26  1  0  0  0  0
 11 14  1  0  0  0  0
 12 14  2  0  0  0  0
 13 15  1  0  0  0  0
 13 18  1  0  0  0  0
 15 16  1  0  0  0  0
 15 17  1  0  0  0  0
 20 22  1  0  0  0  0
 21 23  1  0  0  0  0
 24 25  1  0  0  0  0
 26 27  1  0  0  0  0
 27 28  1  0  0  0  0
M  CHG  2  11  -1  14   1
M  END
> <PUBCHEM_COMPOUND_ID_TYPE>
0

> <PUBCHEM_TOTAL_CHARGE>
0

> <PUBCHEM_SUBSTANCE_ID>
310946598

> <PUBCHEM_SUBSTANCE_VERSION>
1

> <PUBCHEM_EXT_DATASOURCE_NAME>
4488

> <PUBCHEM_EXT_DATASOURCE_REGID>
SCHEMBL16124719

> <PUBCHEM_SUBSTANCE_COMMENT>
InChI=1S/C14H24N2O11S/c1-2-3-23-5-8-26-14(20)28-10-11(12(17)18)15-13(19)25-7-4-24-6-9-27-16(21)22/h11H,2-10H2,1H3,(H,15,19)(H,17,18)
InChIKey=NQXNGBIQUJFJOG-UHFFFAOYSA-N

> <PUBCHEM_SUBSTANCE_SYNONYM>
SCHEMBL16124719

> <PUBCHEM_XREF_EXT_ID>
SCHEMBL16124719

> <PUBCHEM_EXT_DATASOURCE_URL>
https://www.surechembl.org/

> <PUBCHEM_EXT_SUBSTANCE_URL>
https://www.surechembl.org/chemical/SCHEMBL16124719

> <PUBCHEM_CID_ASSOCIATIONS>
117612498  1

> <PUBCHEM_COORDINATE_TYPE>
1
3

$$$$
