310933331
  -OEChem-07211613022D

 31 35  0     1  0  0  0  0  0999 V2000
    1.5000   -2.8501    0.0000 O   0  0  0  0  0  0  0  0  0  0  0  0
    6.0253   -1.8501    0.0000 O   0  0  0  0  0  0  0  0  0  0  0  0
    0.7250   -0.0250    0.0000 O   0  0  0  0  0  0  0  0  0  0  0  0
    1.5251   -1.2500    0.0000 N   0  0  0  0  0  0  0  0  0  0  0  0
    2.2001   -0.1250    0.0000 N   0  0  0  0  0  0  0  0  0  0  0  0
    2.3251   -4.2502    0.0000 N   0  0  0  0  0  0  0  0  0  0  0  0
    6.0502   -1.0250    0.0000 N   0  0  0  0  0  0  0  0  0  0  0  0
    2.3251   -2.8501    0.0000 C   0  0  3  0  0  0  0  0  0  0  0  0
    2.7251   -2.1501    0.0000 C   0  0  0  0  0  0  0  0  0  0  0  0
    2.3001   -1.4500    0.0000 C   0  0  0  0  0  0  0  0  0  0  0  0
    2.7251   -3.5751    0.0000 C   0  0  0  0  0  0  0  0  0  0  0  0
    2.7251   -0.7000    0.0000 C   0  0  0  0  0  0  0  0  0  0  0  0
    1.9251   -3.5751    0.0000 C   0  0  0  0  0  0  0  0  0  0  0  0
    3.9502   -1.4251    0.0000 C   0  0  0  0  0  0  0  0  0  0  0  0
    3.5251   -2.1501    0.0000 C   0  0  0  0  0  0  0  0  0  0  0  0
    3.5501   -0.7500    0.0000 C   0  0  0  0  0  0  0  0  0  0  0  0
    4.7752   -1.4251    0.0000 C   0  0  0  0  0  0  0  0  0  0  0  0
    1.4251   -0.4500    0.0000 C   0  0  0  0  0  0  0  0  0  0  0  0
    3.5001   -3.7751    0.0000 C   0  0  0  0  0  0  0  0  0  0  0  0
    2.5001   -4.3752    0.0000 C   0  0  0  0  0  0  0  0  0  0  0  0
    5.2502   -2.0751    0.0000 C   0  0  0  0  0  0  0  0  0  0  0  0
    5.2502   -0.7750    0.0000 C   0  0  0  0  0  0  0  0  0  0  0  0
    1.1001   -3.5501    0.0000 C   0  0  0  0  0  0  0  0  0  0  0  0
    3.3001   -4.5752    0.0000 C   0  0  0  0  0  0  0  0  0  0  0  0
    1.9501   -5.0002    0.0000 C   0  0  0  0  0  0  0  0  0  0  0  0
    0.7000   -4.3001    0.0000 C   0  0  0  0  0  0  0  0  0  0  0  0
    1.1251   -4.9752    0.0000 C   0  0  0  0  0  0  0  0  0  0  0  0
    5.0002   -2.8751    0.0000 C   0  0  0  0  0  0  0  0  0  0  0  0
    5.0002    0.0000    0.0000 C   0  0  0  0  0  0  0  0  0  0  0  0
    0.0250   -0.4250    0.0000 C   0  0  0  0  0  0  0  0  0  0  0  0
    0.0000   -1.2500    0.0000 C   0  0  0  0  0  0  0  0  0  0  0  0
  1  8  1  0  0  0  0
  2  7  1  0  0  0  0
  2 21  1  0  0  0  0
  3 18  1  0  0  0  0
  3 30  1  0  0  0  0
  4 10  1  0  0  0  0
  4 18  2  0  0  0  0
  5 12  1  0  0  0  0
  5 18  1  0  0  0  0
  6 13  1  0  0  0  0
  6 25  2  0  0  0  0
  7 22  2  0  0  0  0
  8  9  1  0  0  0  0
  8 11  1  0  0  0  0
  8 13  1  0  0  0  0
  9 10  1  0  0  0  0
  9 15  2  0  0  0  0
 10 12  2  0  0  0  0
 11 19  1  0  0  0  0
 11 20  1  0  0  0  0
 12 16  1  0  0  0  0
 13 23  2  0  0  0  0
 14 15  1  0  0  0  0
 14 16  2  0  0  0  0
 14 17  1  0  0  0  0
 17 21  2  0  0  0  0
 17 22  1  0  0  0  0
 19 24  1  0  0  0  0
 20 24  1  0  0  0  0
 21 28  1  0  0  0  0
 22 29  1  0  0  0  0
 23 26  1  0  0  0  0
 25 27  1  0  0  0  0
 26 27  2  0  0  0  0
 30 31  1  0  0  0  0
M  END
> <PUBCHEM_COMPOUND_ID_TYPE>
0

> <PUBCHEM_TOTAL_CHARGE>
0

> <PUBCHEM_SUBSTANCE_ID>
310933331

> <PUBCHEM_SUBSTANCE_VERSION>
1

> <PUBCHEM_EXT_DATASOURCE_NAME>
4488

> <PUBCHEM_EXT_DATASOURCE_REGID>
SCHEMBL16110743

> <PUBCHEM_SUBSTANCE_COMMENT>
InChI=1S/C24H26N4O3/c1-4-30-23-26-19-13-16(21-14(2)28-31-15(21)3)12-18(22(19)27-23)24(29,17-8-7-9-17)20-10-5-6-11-25-20/h5-6,10-13,17,29H,4,7-9H2,1-3H3,(H,26,27)
InChIKey=FTYTWTJALSPRQG-UHFFFAOYSA-N

> <PUBCHEM_SUBSTANCE_SYNONYM>
SCHEMBL16110743

> <PUBCHEM_XREF_EXT_ID>
SCHEMBL16110743

> <PUBCHEM_EXT_DATASOURCE_URL>
https://www.surechembl.org/

> <PUBCHEM_EXT_SUBSTANCE_URL>
https://www.surechembl.org/chemical/SCHEMBL16110743

> <PUBCHEM_CID_ASSOCIATIONS>
117601745  1

> <PUBCHEM_COORDINATE_TYPE>
1
3

$$$$
