310945836
  -OEChem-07211613022D

 37 39  0     1  0  0  0  0  0999 V2000
    4.3405    0.6704    0.0000 O   0  0  0  0  0  0  0  0  0  0  0  0
    3.2070   -1.2925    0.0000 O   0  0  0  0  0  0  0  0  0  0  0  0
    1.0644    0.7810    0.0000 O   0  0  0  0  0  0  0  0  0  0  0  0
   -1.0920   -1.2925    0.0000 O   0  0  0  0  0  0  0  0  0  0  0  0
    3.2070   -2.9375    0.0000 O   0  0  0  0  0  0  0  0  0  0  0  0
   -3.2347    0.7810    0.0000 O   0  0  0  0  0  0  0  0  0  0  0  0
   -4.6585   -0.0484    0.0000 O   0  0  0  0  0  0  0  0  0  0  0  0
    1.7832   -0.4492    0.0000 N   0  0  0  0  0  0  0  0  0  0  0  0
   -0.3733   -0.0346    0.0000 N   0  0  0  0  0  0  0  0  0  0  0  0
   -2.5158   -0.4492    0.0000 N   0  0  0  0  0  0  0  0  0  0  0  0
    3.9258   -0.0069    0.0000 C   0  0  3  0  0  0  0  0  0  0  0  0
    3.2208   -0.4078    0.0000 C   0  0  0  0  0  0  0  0  0  0  0  0
    3.5388    0.6843    0.0000 C   0  0  0  0  0  0  0  0  0  0  0  0
    2.4882   -0.0207    0.0000 C   0  0  3  0  0  0  0  0  0  0  0  0
    4.6585   -0.4216    0.0000 C   0  0  0  0  0  0  0  0  0  0  0  0
    2.4882    1.2925    0.0000 C   0  0  0  0  0  0  0  0  0  0  0  0
    1.0644   -0.0346    0.0000 C   0  0  0  0  0  0  0  0  0  0  0  0
    0.3594   -0.4216    0.0000 C   0  0  3  0  0  0  0  0  0  0  0  0
    1.7832    1.7210    0.0000 C   0  0  0  0  0  0  0  0  0  0  0  0
    0.3456   -1.2648    0.0000 C   0  0  0  0  0  0  0  0  0  0  0  0
    1.0783   -1.6657    0.0000 C   0  0  0  0  0  0  0  0  0  0  0  0
   -1.0783   -0.4078    0.0000 C   0  0  0  0  0  0  0  0  0  0  0  0
    1.0783    1.3063    0.0000 C   0  0  0  0  0  0  0  0  0  0  0  0
    1.7832    2.5228    0.0000 C   0  0  0  0  0  0  0  0  0  0  0  0
   -1.7970   -0.0207    0.0000 C   0  0  3  0  0  0  0  0  0  0  0  0
    1.7694   -1.2786    0.0000 C   0  0  0  0  0  0  0  0  0  0  0  0
    1.0783   -2.4951    0.0000 C   0  0  0  0  0  0  0  0  0  0  0  0
    2.5020   -2.4951    0.0000 C   0  0  0  0  0  0  0  0  0  0  0  0
    0.3594    1.7210    0.0000 C   0  0  0  0  0  0  0  0  0  0  0  0
    1.0506    2.9375    0.0000 C   0  0  0  0  0  0  0  0  0  0  0  0
    2.5020   -1.6796    0.0000 C   0  0  0  0  0  0  0  0  0  0  0  0
    1.7832   -2.9098    0.0000 C   0  0  0  0  0  0  0  0  0  0  0  0
    0.3594    2.5365    0.0000 C   0  0  0  0  0  0  0  0  0  0  0  0
   -3.2347   -0.0346    0.0000 C   0  0  0  0  0  0  0  0  0  0  0  0
   -1.7832    0.8225    0.0000 C   0  0  0  0  0  0  0  0  0  0  0  0
   -3.9258   -0.4216    0.0000 C   0  0  0  0  0  0  0  0  0  0  0  0
    3.9535   -2.4951    0.0000 C   0  0  0  0  0  0  0  0  0  0  0  0
  1 11  1  0  0  0  0
  1 13  1  0  0  0  0
  2 12  2  0  0  0  0
  3 17  2  0  0  0  0
  4 22  2  0  0  0  0
  5 28  1  0  0  0  0
  5 37  1  0  0  0  0
  6 34  2  0  0  0  0
  7 36  1  0  0  0  0
  8 14  1  0  0  0  0
  8 17  1  0  0  0  0
  9 18  1  0  0  0  0
  9 22  1  0  0  0  0
 10 25  1  0  0  0  0
 10 34  1  0  0  0  0
 11 12  1  0  0  0  0
 11 13  1  0  0  0  0
 11 15  1  0  0  0  0
 12 14  1  0  0  0  0
 14 16  1  0  0  0  0
 16 19  1  0  0  0  0
 17 18  1  0  0  0  0
 18 20  1  0  0  0  0
 19 23  2  0  0  0  0
 19 24  1  0  0  0  0
 20 21  1  0  0  0  0
 21 26  2  0  0  0  0
 21 27  1  0  0  0  0
 22 25  1  0  0  0  0
 23 29  1  0  0  0  0
 24 30  2  0  0  0  0
 25 35  1  0  0  0  0
 26 31  1  0  0  0  0
 27 32  2  0  0  0  0
 28 31  2  0  0  0  0
 28 32  1  0  0  0  0
 29 33  2  0  0  0  0
 30 33  1  0  0  0  0
 34 36  1  0  0  0  0
M  END
> <PUBCHEM_COMPOUND_ID_TYPE>
0

> <PUBCHEM_TOTAL_CHARGE>
0

> <PUBCHEM_SUBSTANCE_ID>
310945836

> <PUBCHEM_SUBSTANCE_VERSION>
1

> <PUBCHEM_EXT_DATASOURCE_NAME>
4488

> <PUBCHEM_EXT_DATASOURCE_REGID>
SCHEMBL16123941

> <PUBCHEM_SUBSTANCE_COMMENT>
InChI=1S/C27H33N3O7/c1-17(28-23(32)15-31)25(34)30-22(14-19-9-11-20(36-3)12-10-19)26(35)29-21(24(33)27(2)16-37-27)13-18-7-5-4-6-8-18/h4-12,17,21-22,31H,13-16H2,1-3H3,(H,28,32)(H,29,35)(H,30,34)
InChIKey=DAEMSMIGSCVJOF-UHFFFAOYSA-N

> <PUBCHEM_SUBSTANCE_SYNONYM>
SCHEMBL16123941

> <PUBCHEM_XREF_EXT_ID>
SCHEMBL16123941

> <PUBCHEM_EXT_DATASOURCE_URL>
https://www.surechembl.org/

> <PUBCHEM_EXT_SUBSTANCE_URL>
https://www.surechembl.org/chemical/SCHEMBL16123941

> <PUBCHEM_CID_ASSOCIATIONS>
117611822  1

> <PUBCHEM_COORDINATE_TYPE>
1
3

$$$$
