310949403
  -OEChem-07211613022D

 15 15  0     1  0  0  0  0  0999 V2000
    2.7222   -0.7222    0.0000 N   0  0  0  0  0  0  0  0  0  0  0  0
    2.4667   -1.5000    0.0000 N   0  0  0  0  0  0  0  0  0  0  0  0
    0.0000   -1.0444    0.0000 N   0  0  3  0  0  0  0  0  0  0  0  0
   -2.2000   -1.2000    0.0000 N   0  0  0  0  0  0  0  0  0  0  0  0
    1.3778   -0.7000    0.0000 C   0  0  0  0  0  0  0  0  0  0  0  0
    2.0444   -0.2111    0.0000 C   0  0  0  0  0  0  0  0  0  0  0  0
    0.5889   -0.4444    0.0000 C   0  0  0  0  0  0  0  0  0  0  0  0
    1.6334   -1.4778    0.0000 C   0  0  0  0  0  0  0  0  0  0  0  0
    2.0556    0.6111    0.0000 C   0  0  0  0  0  0  0  0  0  0  0  0
   -0.8000   -0.8111    0.0000 C   0  0  0  0  0  0  0  0  0  0  0  0
    2.7667    1.0223    0.0000 C   0  0  0  0  0  0  0  0  0  0  0  0
    0.2222   -1.8445    0.0000 C   0  0  0  0  0  0  0  0  0  0  0  0
   -1.3889   -1.3889    0.0000 C   0  0  0  0  0  0  0  0  0  0  0  0
    2.7778    1.8445    0.0000 C   0  0  0  0  0  0  0  0  0  0  0  0
   -2.7778   -1.7889    0.0000 C   0  0  0  0  0  0  0  0  0  0  0  0
  1  2  1  0  0  0  0
  1  6  2  0  0  0  0
  2  8  1  0  0  0  0
  3  7  1  0  0  0  0
  3 10  1  0  0  0  0
  3 12  1  0  0  0  0
  4 13  1  0  0  0  0
  4 15  1  0  0  0  0
  5  6  1  0  0  0  0
  5  7  1  0  0  0  0
  5  8  2  0  0  0  0
  6  9  1  0  0  0  0
  9 11  2  0  0  0  0
 10 13  1  0  0  0  0
 11 14  1  0  0  0  0
M  END
> <PUBCHEM_COMPOUND_ID_TYPE>
0

> <PUBCHEM_TOTAL_CHARGE>
0

> <PUBCHEM_SUBSTANCE_ID>
310949403

> <PUBCHEM_SUBSTANCE_VERSION>
1

> <PUBCHEM_EXT_DATASOURCE_NAME>
4488

> <PUBCHEM_EXT_DATASOURCE_REGID>
SCHEMBL16127596

> <PUBCHEM_SUBSTANCE_COMMENT>
InChI=1S/C11H20N4/c1-4-5-11-10(8-13-14-11)9-15(3)7-6-12-2/h4-5,8,12H,6-7,9H2,1-3H3,(H,13,14)/b5-4+
InChIKey=JQZNJOSCOUALQL-SNAWJCMRSA-N

> <PUBCHEM_SUBSTANCE_SYNONYM>
SCHEMBL16127596

> <PUBCHEM_XREF_EXT_ID>
SCHEMBL16127596

> <PUBCHEM_EXT_DATASOURCE_URL>
https://www.surechembl.org/

> <PUBCHEM_EXT_SUBSTANCE_URL>
https://www.surechembl.org/chemical/SCHEMBL16127596

> <PUBCHEM_CID_ASSOCIATIONS>
117614855  1

> <PUBCHEM_COORDINATE_TYPE>
1
3

$$$$
