310949357
  -OEChem-07211613022D

 33 35  0     1  0  0  0  0  0999 V2000
   -0.8846    0.6541    0.0000 F   0  0  0  0  0  0  0  0  0  0  0  0
   -0.6604    1.4515    0.0000 F   0  0  0  0  0  0  0  0  0  0  0  0
    0.1371    1.6633    0.0000 F   0  0  0  0  0  0  0  0  0  0  0  0
    2.2550   -1.4889    0.0000 O   0  0  0  0  0  0  0  0  0  0  0  0
    1.5200    1.2895    0.0000 O   0  0  0  0  0  0  0  0  0  0  0  0
    4.4105   -1.2771    0.0000 O   0  0  0  0  0  0  0  0  0  0  0  0
   -0.1121   -3.0088    0.0000 N   0  0  0  0  0  0  0  0  0  0  0  0
    0.7973   -3.2580    0.0000 N   0  0  0  0  0  0  0  0  0  0  0  0
   -1.5574   -2.1741    0.0000 N   0  0  3  0  0  0  0  0  0  0  0  0
   -3.7127   -1.7629    0.0000 N   0  0  0  0  0  0  0  0  0  0  0  0
    0.8846   -1.1026    0.0000 C   0  0  0  0  0  0  0  0  0  0  0  0
    0.5233    0.2803    0.0000 C   0  0  0  0  0  0  0  0  0  0  0  0
    1.6820   -0.8908    0.0000 C   0  0  0  0  0  0  0  0  0  0  0  0
    0.6728   -1.9250    0.0000 C   0  0  0  0  0  0  0  0  0  0  0  0
    1.3082    0.4921    0.0000 C   0  0  0  0  0  0  0  0  0  0  0  0
    0.3115   -0.5295    0.0000 C   0  0  0  0  0  0  0  0  0  0  0  0
   -0.0872    0.8784    0.0000 C   0  0  0  0  0  0  0  0  0  0  0  0
    1.8938   -0.0934    0.0000 C   0  0  0  0  0  0  0  0  0  0  0  0
   -0.1246   -2.1741    0.0000 C   0  0  0  0  0  0  0  0  0  0  0  0
    1.1587   -2.5852    0.0000 C   0  0  0  0  0  0  0  0  0  0  0  0
    3.0649   -1.2646    0.0000 C   0  0  3  0  0  0  0  0  0  0  0  0
   -0.8472   -1.7629    0.0000 C   0  0  0  0  0  0  0  0  0  0  0  0
    0.9469    1.8751    0.0000 C   0  0  0  0  0  0  0  0  0  0  0  0
    3.7502   -1.7629    0.0000 C   0  0  0  0  0  0  0  0  0  0  0  0
    3.3390   -0.4796    0.0000 C   0  0  0  0  0  0  0  0  0  0  0  0
    4.1613   -0.4921    0.0000 C   0  0  0  0  0  0  0  0  0  0  0  0
    1.1587    2.6849    0.0000 C   0  0  0  0  0  0  0  0  0  0  0  0
   -2.2800   -1.7629    0.0000 C   0  0  0  0  0  0  0  0  0  0  0  0
   -1.5449   -2.9964    0.0000 C   0  0  0  0  0  0  0  0  0  0  0  0
   -2.9901   -2.1741    0.0000 C   0  0  0  0  0  0  0  0  0  0  0  0
    0.5732    3.2580    0.0000 C   0  0  0  0  0  0  0  0  0  0  0  0
    1.9560    2.8967    0.0000 C   0  0  0  0  0  0  0  0  0  0  0  0
   -4.4105   -2.1741    0.0000 C   0  0  0  0  0  0  0  0  0  0  0  0
  1 17  1  0  0  0  0
  2 17  1  0  0  0  0
  3 17  1  0  0  0  0
  4 13  1  0  0  0  0
  4 21  1  0  0  0  0
  5 15  1  0  0  0  0
  5 23  1  0  0  0  0
  6 24  1  0  0  0  0
  6 26  1  0  0  0  0
  7  8  1  0  0  0  0
  7 19  2  0  0  0  0
  8 20  1  0  0  0  0
  9 22  1  0  0  0  0
  9 28  1  0  0  0  0
  9 29  1  0  0  0  0
 10 30  1  0  0  0  0
 10 33  1  0  0  0  0
 11 13  2  0  0  0  0
 11 14  1  0  0  0  0
 11 16  1  0  0  0  0
 12 15  1  0  0  0  0
 12 16  2  0  0  0  0
 12 17  1  0  0  0  0
 13 18  1  0  0  0  0
 14 19  1  0  0  0  0
 14 20  2  0  0  0  0
 15 18  2  0  0  0  0
 19 22  1  0  0  0  0
 21 24  1  0  0  0  0
 21 25  1  0  0  0  0
 23 27  1  0  0  0  0
 25 26  1  0  0  0  0
 27 31  1  0  0  0  0
 27 32  1  0  0  0  0
 28 30  1  0  0  0  0
M  END
> <PUBCHEM_COMPOUND_ID_TYPE>
0

> <PUBCHEM_TOTAL_CHARGE>
0

> <PUBCHEM_SUBSTANCE_ID>
310949357

> <PUBCHEM_SUBSTANCE_VERSION>
1

> <PUBCHEM_EXT_DATASOURCE_NAME>
4488

> <PUBCHEM_EXT_DATASOURCE_REGID>
SCHEMBL16127549

> <PUBCHEM_SUBSTANCE_COMMENT>
InChI=1S/C23H33F3N4O3/c1-15(2)13-32-22-10-21(33-16-5-8-31-14-16)17(9-19(22)23(24,25)26)18-11-28-29-20(18)12-30(4)7-6-27-3/h9-11,15-16,27H,5-8,12-14H2,1-4H3,(H,28,29)
InChIKey=DALVEUAKIHJYKS-UHFFFAOYSA-N

> <PUBCHEM_SUBSTANCE_SYNONYM>
SCHEMBL16127549

> <PUBCHEM_XREF_EXT_ID>
SCHEMBL16127549

> <PUBCHEM_EXT_DATASOURCE_URL>
https://www.surechembl.org/

> <PUBCHEM_EXT_SUBSTANCE_URL>
https://www.surechembl.org/chemical/SCHEMBL16127549

> <PUBCHEM_CID_ASSOCIATIONS>
85473018  1

> <PUBCHEM_COORDINATE_TYPE>
1
3

$$$$
