310931428
  -OEChem-07211613022D

 49 53  0     1  0  0  0  0  0999 V2000
    6.6145   -5.8363    0.0000 S   0  0  0  0  0  0  0  0  0  0  0  0
    5.8009   -4.3153    0.0000 S   0  0  0  0  0  0  0  0  0  0  0  0
    6.6145   -4.1738    0.0000 F   0  0  0  0  0  0  0  0  0  0  0  0
    3.7494   -5.8363    0.0000 F   0  0  0  0  0  0  0  0  0  0  0  0
    6.1900   -6.5791    0.0000 O   0  0  0  0  0  0  0  0  0  0  0  0
    7.3219   -6.2608    0.0000 O   0  0  0  0  0  0  0  0  0  0  0  0
    3.7494   -4.1385    0.0000 O   0  0  0  0  0  0  0  0  0  0  0  0
    9.5503   -5.1642    0.0000 O   0  0  0  0  0  0  0  0  0  0  0  0
    9.5857   -2.2638    0.0000 O   0  0  0  0  0  0  0  0  0  0  0  0
    0.8489   -1.6625    0.0000 O   0  0  0  0  0  0  0  0  0  0  0  0
    2.2638   -1.6625    0.0000 O   0  0  0  0  0  0  0  0  0  0  0  0
    7.0390   -5.1289    0.0000 N   0  0  0  0  0  0  0  0  0  0  0  0
    6.9682   -3.6433    0.0000 N   0  0  0  0  0  0  0  0  0  0  0  0
    5.6241   -3.5018    0.0000 N   0  0  0  0  0  0  0  0  0  0  0  0
    1.5563   -2.9004    0.0000 N   0  0  0  0  0  0  0  0  0  0  0  0
    5.8717   -5.4472    0.0000 C   0  0  0  0  0  0  0  0  0  0  0  0
    5.9071   -4.5983    0.0000 C   0  0  0  0  0  0  0  0  0  0  0  0
    6.6145   -4.3861    0.0000 C   0  0  0  0  0  0  0  0  0  0  0  0
    5.1642   -5.8363    0.0000 C   0  0  0  0  0  0  0  0  0  0  0  0
    7.8879   -5.1289    0.0000 C   0  0  0  0  0  0  0  0  0  0  0  0
    4.4568   -5.4118    0.0000 C   0  0  0  0  0  0  0  0  0  0  0  0
    4.4568   -4.5983    0.0000 C   0  0  0  0  0  0  0  0  0  0  0  0
    5.1642   -4.1738    0.0000 C   0  0  0  0  0  0  0  0  0  0  0  0
    8.3123   -4.4214    0.0000 C   0  0  0  0  0  0  0  0  0  0  0  0
    9.1258   -4.4568    0.0000 C   0  0  0  0  0  0  0  0  0  0  0  0
    2.2991   -4.1385    0.0000 C   0  0  3  0  0  0  0  0  0  0  0  0
    1.5563   -4.5629    0.0000 C   0  0  3  0  0  0  0  0  0  0  0  0
    7.8879   -3.6786    0.0000 C   0  0  0  0  0  0  0  0  0  0  0  0
    3.0066   -4.5629    0.0000 C   0  0  0  0  0  0  0  0  0  0  0  0
    6.3669   -3.0773    0.0000 C   0  0  0  0  0  0  0  0  0  0  0  0
    9.5857   -3.7140    0.0000 C   0  0  0  0  0  0  0  0  0  0  0  0
    2.2991   -3.3249    0.0000 C   0  0  0  0  0  0  0  0  0  0  0  0
    9.1613   -3.0066    0.0000 C   0  0  0  0  0  0  0  0  0  0  0  0
    1.5563   -5.4118    0.0000 C   0  0  0  0  0  0  0  0  0  0  0  0
    8.3123   -2.9712    0.0000 C   0  0  0  0  0  0  0  0  0  0  0  0
    0.8489   -4.1385    0.0000 C   0  0  0  0  0  0  0  0  0  0  0  0
    0.8489   -3.3249    0.0000 C   0  0  0  0  0  0  0  0  0  0  0  0
    1.5563   -2.0515    0.0000 C   0  0  0  0  0  0  0  0  0  0  0  0
    2.2638   -5.8363    0.0000 C   0  0  0  0  0  0  0  0  0  0  0  0
    0.8489   -5.8363    0.0000 C   0  0  0  0  0  0  0  0  0  0  0  0
    0.8489   -0.8136    0.0000 C   0  0  0  0  0  0  0  0  0  0  0  0
   10.3639   -5.1996    0.0000 C   0  0  0  0  0  0  0  0  0  0  0  0
    2.2638   -6.6499    0.0000 C   0  0  0  0  0  0  0  0  0  0  0  0
    0.8489   -6.6499    0.0000 C   0  0  0  0  0  0  0  0  0  0  0  0
    1.5563   -7.0743    0.0000 C   0  0  0  0  0  0  0  0  0  0  0  0
    9.1966   -1.5563    0.0000 C   0  0  0  0  0  0  0  0  0  0  0  0
    1.6978   -0.8136    0.0000 C   0  0  0  0  0  0  0  0  0  0  0  0
    0.8489    0.0000    0.0000 C   0  0  0  0  0  0  0  0  0  0  0  0
    0.0000   -0.8136    0.0000 C   0  0  0  0  0  0  0  0  0  0  0  0
  1  5  2  0  0  0  0
  1  6  2  0  0  0  0
  1 12  1  0  0  0  0
  1 16  1  0  0  0  0
  2 14  1  0  0  0  0
  2 18  1  0  0  0  0
  3 17  1  0  0  0  0
  4 21  1  0  0  0  0
  7 22  1  0  0  0  0
  7 29  1  0  0  0  0
  8 25  1  0  0  0  0
  8 42  1  0  0  0  0
  9 33  1  0  0  0  0
  9 46  1  0  0  0  0
 10 38  1  0  0  0  0
 10 41  1  0  0  0  0
 11 38  2  0  0  0  0
 12 18  1  0  0  0  0
 12 20  1  0  0  0  0
 13 18  2  0  0  0  0
 13 30  1  0  0  0  0
 14 30  2  0  0  0  0
 15 32  1  0  0  0  0
 15 37  1  0  0  0  0
 15 38  1  0  0  0  0
 16 17  1  0  0  0  0
 16 19  2  0  0  0  0
 17 23  2  0  0  0  0
 19 21  1  0  0  0  0
 20 24  1  0  0  0  0
 21 22  2  0  0  0  0
 22 23  1  0  0  0  0
 24 25  2  0  0  0  0
 24 28  1  0  0  0  0
 25 31  1  0  0  0  0
 26 27  1  0  0  0  0
 26 29  1  0  0  0  0
 26 32  1  0  0  0  0
 27 34  1  0  0  0  0
 27 36  1  0  0  0  0
 28 35  2  0  0  0  0
 31 33  2  0  0  0  0
 33 35  1  0  0  0  0
 34 39  2  0  0  0  0
 34 40  1  0  0  0  0
 36 37  1  0  0  0  0
 39 43  1  0  0  0  0
 40 44  2  0  0  0  0
 41 47  1  0  0  0  0
 41 48  1  0  0  0  0
 41 49  1  0  0  0  0
 43 45  2  0  0  0  0
 44 45  1  0  0  0  0
M  END
> <PUBCHEM_COMPOUND_ID_TYPE>
0

> <PUBCHEM_TOTAL_CHARGE>
0

> <PUBCHEM_SUBSTANCE_ID>
310931428

> <PUBCHEM_SUBSTANCE_VERSION>
1

> <PUBCHEM_EXT_DATASOURCE_NAME>
4488

> <PUBCHEM_EXT_DATASOURCE_REGID>
SCHEMBL16108753

> <PUBCHEM_SUBSTANCE_COMMENT>
InChI=1S/C34H38F2N4O7S2/c1-34(2,3)47-33(41)39-14-13-26(22-9-7-6-8-10-22)24(18-39)20-46-30-16-28(36)31(17-27(30)35)49(42,43)40(32-37-21-38-48-32)19-23-11-12-25(44-4)15-29(23)45-5/h6-12,15-17,21,24,26H,13-14,18-20H2,1-5H3
InChIKey=WJFVXVVPRZKTOZ-UHFFFAOYSA-N

> <PUBCHEM_SUBSTANCE_SYNONYM>
SCHEMBL16108753

> <PUBCHEM_XREF_EXT_ID>
SCHEMBL16108753

> <PUBCHEM_EXT_DATASOURCE_URL>
https://www.surechembl.org/

> <PUBCHEM_EXT_SUBSTANCE_URL>
https://www.surechembl.org/chemical/SCHEMBL16108753

> <PUBCHEM_CID_ASSOCIATIONS>
117600206  1

> <PUBCHEM_COORDINATE_TYPE>
1
3

$$$$
