310943496
  -OEChem-07211613022D

 32 35  0     1  0  0  0  0  0999 V2000
   -3.2928   -1.0211    0.0000 N   0  0  3  0  0  0  0  0  0  0  0  0
    3.2302    1.0837    0.0000 N   0  0  3  0  0  0  0  0  0  0  0  0
    1.2088   -1.9277    0.0000 N   0  0  0  0  0  0  0  0  0  0  0  0
   -5.0746   -0.4793    0.0000 N   0  0  3  0  0  0  0  0  0  0  0  0
    5.0017    0.5314    0.0000 N   0  0  3  0  0  0  0  0  0  0  0  0
   -0.4168   -0.1771    0.0000 C   0  0  0  0  0  0  0  0  0  0  0  0
    0.2918    0.2710    0.0000 C   0  0  0  0  0  0  0  0  0  0  0  0
   -0.4272   -1.0003    0.0000 C   0  0  0  0  0  0  0  0  0  0  0  0
   -1.8652   -1.0108    0.0000 C   0  0  0  0  0  0  0  0  0  0  0  0
   -1.1253   -1.4172    0.0000 C   0  0  0  0  0  0  0  0  0  0  0  0
   -1.1253    0.2292    0.0000 C   0  0  0  0  0  0  0  0  0  0  0  0
   -1.8444   -0.1667    0.0000 C   0  0  0  0  0  0  0  0  0  0  0  0
    1.0211   -0.1459    0.0000 C   0  0  0  0  0  0  0  0  0  0  0  0
    0.3022    1.0941    0.0000 C   0  0  0  0  0  0  0  0  0  0  0  0
    1.7297    1.1150    0.0000 C   0  0  0  0  0  0  0  0  0  0  0  0
   -2.5842   -1.4275    0.0000 C   0  0  0  0  0  0  0  0  0  0  0  0
    1.7193    0.2710    0.0000 C   0  0  0  0  0  0  0  0  0  0  0  0
    1.0003    1.5005    0.0000 C   0  0  0  0  0  0  0  0  0  0  0  0
    0.4793   -1.5213    0.0000 C   0  0  0  0  0  0  0  0  0  0  0  0
    2.4383    1.5213    0.0000 C   0  0  0  0  0  0  0  0  0  0  0  0
   -3.9700   -1.4901    0.0000 C   0  0  0  0  0  0  0  0  0  0  0  0
   -3.2302   -0.1875    0.0000 C   0  0  0  0  0  0  0  0  0  0  0  0
    3.5324    0.3126    0.0000 C   0  0  0  0  0  0  0  0  0  0  0  0
    3.6471    1.8131    0.0000 C   0  0  0  0  0  0  0  0  0  0  0  0
   -4.7620   -1.2400    0.0000 C   0  0  0  0  0  0  0  0  0  0  0  0
   -3.8450    0.3855    0.0000 C   0  0  0  0  0  0  0  0  0  0  0  0
    4.3348    0.0625    0.0000 C   0  0  0  0  0  0  0  0  0  0  0  0
   -4.6578    0.2605    0.0000 C   0  0  0  0  0  0  0  0  0  0  0  0
    4.4598    1.9277    0.0000 C   0  0  0  0  0  0  0  0  0  0  0  0
    5.0537    1.3754    0.0000 C   0  0  0  0  0  0  0  0  0  0  0  0
   -5.9082   -0.4897    0.0000 C   0  0  0  0  0  0  0  0  0  0  0  0
    5.9082    0.0209    0.0000 C   0  0  0  0  0  0  0  0  0  0  0  0
  1 16  1  0  0  0  0
  1 21  1  0  0  0  0
  1 22  1  0  0  0  0
  2 20  1  0  0  0  0
  2 23  1  0  0  0  0
  2 24  1  0  0  0  0
  3 19  3  0  0  0  0
  4 25  1  0  0  0  0
  4 28  1  0  0  0  0
  4 31  1  0  0  0  0
  5 27  1  0  0  0  0
  5 30  1  0  0  0  0
  5 32  1  0  0  0  0
  6  7  1  0  0  0  0
  6  8  1  0  0  0  0
  6 11  2  0  0  0  0
  7 13  2  0  0  0  0
  7 14  1  0  0  0  0
  8 10  2  0  0  0  0
  8 19  1  0  0  0  0
  9 10  1  0  0  0  0
  9 12  2  0  0  0  0
  9 16  1  0  0  0  0
 11 12  1  0  0  0  0
 13 17  1  0  0  0  0
 14 18  2  0  0  0  0
 15 17  2  0  0  0  0
 15 18  1  0  0  0  0
 15 20  1  0  0  0  0
 21 25  1  0  0  0  0
 22 26  1  0  0  0  0
 23 27  1  0  0  0  0
 24 29  1  0  0  0  0
 26 28  1  0  0  0  0
 29 30  1  0  0  0  0
M  END
> <PUBCHEM_COMPOUND_ID_TYPE>
0

> <PUBCHEM_TOTAL_CHARGE>
0

> <PUBCHEM_SUBSTANCE_ID>
310943496

> <PUBCHEM_SUBSTANCE_VERSION>
1

> <PUBCHEM_EXT_DATASOURCE_NAME>
4488

> <PUBCHEM_EXT_DATASOURCE_REGID>
SCHEMBL16121562

> <PUBCHEM_SUBSTANCE_COMMENT>
InChI=1S/C27H37N5/c1-29-11-3-13-31(17-15-29)21-23-5-8-25(9-6-23)27-10-7-24(19-26(27)20-28)22-32-14-4-12-30(2)16-18-32/h5-10,19H,3-4,11-18,21-22H2,1-2H3
InChIKey=MJTWJYMXCDQAOT-UHFFFAOYSA-N

> <PUBCHEM_SUBSTANCE_SYNONYM>
SCHEMBL16121562

> <PUBCHEM_XREF_EXT_ID>
SCHEMBL16121562

> <PUBCHEM_EXT_DATASOURCE_URL>
https://www.surechembl.org/

> <PUBCHEM_EXT_SUBSTANCE_URL>
https://www.surechembl.org/chemical/SCHEMBL16121562

> <PUBCHEM_CID_ASSOCIATIONS>
78425823  1

> <PUBCHEM_COORDINATE_TYPE>
1
3

$$$$
