310945486
  -OEChem-07211613022D

 26 28  0     1  0  0  0  0  0999 V2000
    2.9728    0.6166    0.0000 F   0  0  0  0  0  0  0  0  0  0  0  0
    2.4883   -0.4110    0.0000 F   0  0  0  0  0  0  0  0  0  0  0  0
    1.4460    0.0881    0.0000 F   0  0  0  0  0  0  0  0  0  0  0  0
   -2.4003    1.6736    0.0000 O   0  0  0  0  0  0  0  0  0  0  0  0
   -1.7250   -2.8187    0.0000 O   0  0  0  0  0  0  0  0  0  0  0  0
    0.4184    0.9249    0.0000 N   0  0  0  0  0  0  0  0  0  0  0  0
    2.4443    1.8644    0.0000 N   0  0  0  0  0  0  0  0  0  0  0  0
   -0.3010   -1.1450    0.0000 N   0  0  3  0  0  0  0  0  0  0  0  0
    1.0790    1.4387    0.0000 C   0  0  0  0  0  0  0  0  0  0  0  0
    0.8295    2.2021    0.0000 C   0  0  0  0  0  0  0  0  0  0  0  0
    0.0073    2.2168    0.0000 C   0  0  0  0  0  0  0  0  0  0  0  0
   -0.2569    1.4240    0.0000 C   0  0  0  0  0  0  0  0  0  0  0  0
    1.8864    1.2331    0.0000 C   0  0  0  0  0  0  0  0  0  0  0  0
    2.1947    0.3524    0.0000 C   0  0  0  0  0  0  0  0  0  0  0  0
    1.3873    2.8187    0.0000 C   0  0  0  0  0  0  0  0  0  0  0  0
   -1.0497    1.2478    0.0000 C   0  0  0  0  0  0  0  0  0  0  0  0
   -0.5358    2.8040    0.0000 C   0  0  0  0  0  0  0  0  0  0  0  0
    0.4184    0.1028    0.0000 C   0  0  0  0  0  0  0  0  0  0  0  0
   -1.6222    1.8644    0.0000 C   0  0  0  0  0  0  0  0  0  0  0  0
    2.1801    2.6571    0.0000 C   0  0  0  0  0  0  0  0  0  0  0  0
   -1.3433    2.6425    0.0000 C   0  0  0  0  0  0  0  0  0  0  0  0
   -0.2863   -0.3083    0.0000 C   0  0  0  0  0  0  0  0  0  0  0  0
   -2.9728    2.3049    0.0000 C   0  0  0  0  0  0  0  0  0  0  0  0
   -1.0056   -1.5561    0.0000 C   0  0  0  0  0  0  0  0  0  0  0  0
    0.4184   -1.5855    0.0000 C   0  0  0  0  0  0  0  0  0  0  0  0
   -1.0203   -2.3929    0.0000 C   0  0  0  0  0  0  0  0  0  0  0  0
  1 14  1  0  0  0  0
  2 14  1  0  0  0  0
  3 14  1  0  0  0  0
  4 19  1  0  0  0  0
  4 23  1  0  0  0  0
  5 26  1  0  0  0  0
  6  9  1  0  0  0  0
  6 12  1  0  0  0  0
  6 18  1  0  0  0  0
  7 13  2  0  0  0  0
  7 20  1  0  0  0  0
  8 22  1  0  0  0  0
  8 24  1  0  0  0  0
  8 25  1  0  0  0  0
  9 10  2  0  0  0  0
  9 13  1  0  0  0  0
 10 11  1  0  0  0  0
 10 15  1  0  0  0  0
 11 12  2  0  0  0  0
 11 17  1  0  0  0  0
 12 16  1  0  0  0  0
 13 14  1  0  0  0  0
 15 20  2  0  0  0  0
 16 19  2  0  0  0  0
 17 21  2  0  0  0  0
 18 22  1  0  0  0  0
 19 21  1  0  0  0  0
 24 26  1  0  0  0  0
M  END
> <PUBCHEM_COMPOUND_ID_TYPE>
0

> <PUBCHEM_TOTAL_CHARGE>
0

> <PUBCHEM_SUBSTANCE_ID>
310945486

> <PUBCHEM_SUBSTANCE_VERSION>
1

> <PUBCHEM_EXT_DATASOURCE_NAME>
4488

> <PUBCHEM_EXT_DATASOURCE_REGID>
SCHEMBL16123584

> <PUBCHEM_SUBSTANCE_COMMENT>
InChI=1S/C18H20F3N3O2/c1-23(9-10-25)7-8-24-15-11-12(26-2)3-4-13(15)14-5-6-22-17(16(14)24)18(19,20)21/h3-6,11,25H,7-10H2,1-2H3
InChIKey=HNRHYCYFOGOPJC-UHFFFAOYSA-N

> <PUBCHEM_SUBSTANCE_SYNONYM>
SCHEMBL16123584

> <PUBCHEM_XREF_EXT_ID>
SCHEMBL16123584

> <PUBCHEM_EXT_DATASOURCE_URL>
https://www.surechembl.org/

> <PUBCHEM_EXT_SUBSTANCE_URL>
https://www.surechembl.org/chemical/SCHEMBL16123584

> <PUBCHEM_CID_ASSOCIATIONS>
117611529  1

> <PUBCHEM_COORDINATE_TYPE>
1
3

$$$$
