310944145
  -OEChem-07211613022D

 32 36  0     1  0  0  0  0  0999 V2000
    0.8384   -2.3495    0.0000 F   0  0  0  0  0  0  0  0  0  0  0  0
    2.4709    0.0331    0.0000 O   0  0  0  0  0  0  0  0  0  0  0  0
    4.9859   -1.5222    0.0000 O   0  0  0  0  0  0  0  0  0  0  0  0
    5.4603   -0.1324    0.0000 O   0  0  0  0  0  0  0  0  0  0  0  0
    2.8569   -1.3899    0.0000 N   0  0  0  0  0  0  0  0  0  0  0  0
    0.1214   -0.2868    0.0000 N   0  0  3  0  0  0  0  0  0  0  0  0
   -4.1586    1.3568    0.0000 N   0  0  0  0  0  0  0  0  0  0  0  0
   -2.0076    0.9487    0.0000 N   0  0  0  0  0  0  0  0  0  0  0  0
   -2.7246    1.3568    0.0000 N   0  0  0  0  0  0  0  0  0  0  0  0
   -4.2358    2.1731    0.0000 N   0  0  0  0  0  0  0  0  0  0  0  0
   -5.0521    2.3495    0.0000 N   0  0  0  0  0  0  0  0  0  0  0  0
   -5.4603    1.6326    0.0000 N   0  0  0  0  0  0  0  0  0  0  0  0
    1.5554   -1.0921    0.0000 C   0  0  3  0  0  0  0  0  0  0  0  0
    2.2944   -0.7832    0.0000 C   0  0  0  0  0  0  0  0  0  0  0  0
    0.8494   -1.5112    0.0000 C   0  0  3  0  0  0  0  0  0  0  0  0
    1.6436   -1.9194    0.0000 C   0  0  0  0  0  0  0  0  0  0  0  0
    3.6843   -1.2906    0.0000 C   0  0  0  0  0  0  0  0  0  0  0  0
    1.5554   -0.2758    0.0000 C   0  0  0  0  0  0  0  0  0  0  0  0
    2.4488   -2.0848    0.0000 C   0  0  0  0  0  0  0  0  0  0  0  0
    4.0593   -0.5515    0.0000 C   0  0  0  0  0  0  0  0  0  0  0  0
    0.1324   -1.1031    0.0000 C   0  0  0  0  0  0  0  0  0  0  0  0
    0.8384    0.1324    0.0000 C   0  0  0  0  0  0  0  0  0  0  0  0
    4.2689   -1.8752    0.0000 C   0  0  0  0  0  0  0  0  0  0  0  0
    4.8535   -0.7170    0.0000 C   0  0  0  0  0  0  0  0  0  0  0  0
   -0.5956    0.1324    0.0000 C   0  0  0  0  0  0  0  0  0  0  0  0
    3.6843    0.1875    0.0000 C   0  0  0  0  0  0  0  0  0  0  0  0
   -1.2906   -0.2758    0.0000 C   0  0  0  0  0  0  0  0  0  0  0  0
   -2.0187    0.1324    0.0000 C   0  0  0  0  0  0  0  0  0  0  0  0
   -3.4416    0.9596    0.0000 C   0  0  0  0  0  0  0  0  0  0  0  0
   -2.7136   -0.2758    0.0000 C   0  0  0  0  0  0  0  0  0  0  0  0
   -3.4416    0.1324    0.0000 C   0  0  0  0  0  0  0  0  0  0  0  0
   -4.9087    1.0479    0.0000 C   0  0  0  0  0  0  0  0  0  0  0  0
  1 15  1  0  0  0  0
  2 14  2  0  0  0  0
  3 23  1  0  0  0  0
  3 24  1  0  0  0  0
  4 24  2  0  0  0  0
  5 14  1  0  0  0  0
  5 17  1  0  0  0  0
  5 19  1  0  0  0  0
  6 21  1  0  0  0  0
  6 22  1  0  0  0  0
  6 25  1  0  0  0  0
  7 10  1  0  0  0  0
  7 29  1  0  0  0  0
  7 32  1  0  0  0  0
  8  9  1  0  0  0  0
  8 28  2  0  0  0  0
  9 29  2  0  0  0  0
 10 11  2  0  0  0  0
 11 12  1  0  0  0  0
 12 32  2  0  0  0  0
 13 14  1  0  0  0  0
 13 15  1  0  0  0  0
 13 16  1  0  0  0  0
 13 18  1  0  0  0  0
 15 21  1  0  0  0  0
 16 19  1  0  0  0  0
 17 20  2  0  0  0  0
 17 23  1  0  0  0  0
 18 22  1  0  0  0  0
 20 24  1  0  0  0  0
 20 26  1  0  0  0  0
 25 27  1  0  0  0  0
 27 28  1  0  0  0  0
 28 30  1  0  0  0  0
 29 31  1  0  0  0  0
 30 31  2  0  0  0  0
M  END
> <PUBCHEM_COMPOUND_ID_TYPE>
0

> <PUBCHEM_TOTAL_CHARGE>
0

> <PUBCHEM_SUBSTANCE_ID>
310944145

> <PUBCHEM_SUBSTANCE_VERSION>
1

> <PUBCHEM_EXT_DATASOURCE_NAME>
4488

> <PUBCHEM_EXT_DATASOURCE_REGID>
SCHEMBL16122220

> <PUBCHEM_SUBSTANCE_COMMENT>
InChI=1S/C20H23FN8O3/c1-13-15(11-32-18(13)30)28-9-6-20(19(28)31)5-8-27(10-16(20)21)7-4-14-2-3-17(24-23-14)29-12-22-25-26-29/h2-3,12,16H,4-11H2,1H3
InChIKey=QXVOMCGVXLTANC-UHFFFAOYSA-N

> <PUBCHEM_SUBSTANCE_SYNONYM>
SCHEMBL16122220

> <PUBCHEM_XREF_EXT_ID>
SCHEMBL16122220

> <PUBCHEM_EXT_DATASOURCE_URL>
https://www.surechembl.org/

> <PUBCHEM_EXT_SUBSTANCE_URL>
https://www.surechembl.org/chemical/SCHEMBL16122220

> <PUBCHEM_CID_ASSOCIATIONS>
117610426  1

> <PUBCHEM_COORDINATE_TYPE>
1
3

$$$$
