310941518
  -OEChem-07211613022D

 29 32  0     1  0  0  0  0  0999 V2000
   -3.3031    0.6574    0.0000 Br  0  0  0  0  0  0  0  0  0  0  0  0
   -0.7724   -3.0730    0.0000 O   0  0  0  0  0  0  0  0  0  0  0  0
   -0.3615    1.1175    0.0000 O   0  0  0  0  0  0  0  0  0  0  0  0
    3.4016    1.1996    0.0000 O   0  0  0  0  0  0  0  0  0  0  0  0
    0.3122   -1.7091    0.0000 N   0  0  0  0  0  0  0  0  0  0  0  0
   -2.1363   -2.5306    0.0000 N   0  0  0  0  0  0  0  0  0  0  0  0
   -0.7724    0.1315    0.0000 N   0  0  0  0  0  0  0  0  0  0  0  0
    1.5118    2.2677    0.0000 N   0  0  3  0  0  0  0  0  0  0  0  0
   -1.1503   -1.6433    0.0000 C   0  0  0  0  0  0  0  0  0  0  0  0
   -0.3944   -1.2982    0.0000 C   0  0  0  0  0  0  0  0  0  0  0  0
   -1.8570   -1.2160    0.0000 C   0  0  0  0  0  0  0  0  0  0  0  0
   -0.2300   -0.4765    0.0000 C   0  0  0  0  0  0  0  0  0  0  0  0
    0.5916   -0.4108    0.0000 C   0  0  0  0  0  0  0  0  0  0  0  0
   -1.3311   -2.4321    0.0000 C   0  0  0  0  0  0  0  0  0  0  0  0
   -2.4650   -1.7748    0.0000 C   0  0  0  0  0  0  0  0  0  0  0  0
    0.9367   -1.1339    0.0000 C   0  0  0  0  0  0  0  0  0  0  0  0
   -2.0377   -0.4108    0.0000 C   0  0  0  0  0  0  0  0  0  0  0  0
   -3.2373   -1.5118    0.0000 C   0  0  0  0  0  0  0  0  0  0  0  0
    1.0846    0.2629    0.0000 C   0  0  0  0  0  0  0  0  0  0  0  0
    1.7583   -1.2325    0.0000 C   0  0  0  0  0  0  0  0  0  0  0  0
   -2.8101   -0.1315    0.0000 C   0  0  0  0  0  0  0  0  0  0  0  0
   -3.4016   -0.7066    0.0000 C   0  0  0  0  0  0  0  0  0  0  0  0
    1.8898    0.1808    0.0000 C   0  0  0  0  0  0  0  0  0  0  0  0
    2.2185   -0.5916    0.0000 C   0  0  0  0  0  0  0  0  0  0  0  0
    0.4436    1.2982    0.0000 C   0  0  0  0  0  0  0  0  0  0  0  0
    0.7231    2.0870    0.0000 C   0  0  0  0  0  0  0  0  0  0  0  0
    2.0870    1.6598    0.0000 C   0  0  0  0  0  0  0  0  0  0  0  0
    1.7748    3.0730    0.0000 C   0  0  0  0  0  0  0  0  0  0  0  0
    2.8758    1.8077    0.0000 C   0  0  0  0  0  0  0  0  0  0  0  0
  1 21  1  0  0  0  0
  2 14  2  0  0  0  0
  3  7  1  0  0  0  0
  3 25  1  0  0  0  0
  4 29  1  0  0  0  0
  5 10  1  0  0  0  0
  5 16  1  0  0  0  0
  6 14  1  0  0  0  0
  6 15  1  0  0  0  0
  7 12  2  0  0  0  0
  8 26  1  0  0  0  0
  8 27  1  0  0  0  0
  8 28  1  0  0  0  0
  9 10  2  0  0  0  0
  9 11  1  0  0  0  0
  9 14  1  0  0  0  0
 10 12  1  0  0  0  0
 11 15  2  0  0  0  0
 11 17  1  0  0  0  0
 12 13  1  0  0  0  0
 13 16  2  0  0  0  0
 13 19  1  0  0  0  0
 15 18  1  0  0  0  0
 16 20  1  0  0  0  0
 17 21  2  0  0  0  0
 18 22  2  0  0  0  0
 19 23  2  0  0  0  0
 20 24  2  0  0  0  0
 21 22  1  0  0  0  0
 23 24  1  0  0  0  0
 25 26  1  0  0  0  0
 27 29  1  0  0  0  0
M  END
> <PUBCHEM_COMPOUND_ID_TYPE>
0

> <PUBCHEM_TOTAL_CHARGE>
0

> <PUBCHEM_SUBSTANCE_ID>
310941518

> <PUBCHEM_SUBSTANCE_VERSION>
1

> <PUBCHEM_EXT_DATASOURCE_NAME>
4488

> <PUBCHEM_EXT_DATASOURCE_REGID>
SCHEMBL16119549

> <PUBCHEM_SUBSTANCE_COMMENT>
InChI=1S/C21H21BrN4O3/c1-26(8-10-27)9-11-29-25-19-14-4-2-3-5-16(14)23-20(19)18-15-12-13(22)6-7-17(15)24-21(18)28/h2-7,12,23,27H,8-11H2,1H3,(H,24,28)/b20-18-,25-19+
InChIKey=FMKWNKXAYJWNPP-CULIEIDSSA-N

> <PUBCHEM_SUBSTANCE_SYNONYM>
SCHEMBL16119549

> <PUBCHEM_XREF_EXT_ID>
SCHEMBL16119549

> <PUBCHEM_EXT_DATASOURCE_URL>
https://www.surechembl.org/

> <PUBCHEM_EXT_SUBSTANCE_URL>
https://www.surechembl.org/chemical/SCHEMBL16119549

> <PUBCHEM_CID_ASSOCIATIONS>
86269897  1

> <PUBCHEM_COORDINATE_TYPE>
1
3

$$$$
