310940199
  -OEChem-07211613022D

 20 21  0     1  0  0  0  0  0999 V2000
    0.0242    2.0863    0.0000 Cl  0  0  0  0  0  0  0  0  0  0  0  0
   -1.3989   -0.4043    0.0000 Cl  0  0  0  0  0  0  0  0  0  0  0  0
    0.0404   -0.4043    0.0000 O   0  0  0  0  0  0  0  0  0  0  0  0
    2.1428    0.8571    0.0000 O   0  5  0  0  0  0  0  0  0  0  0  0
    0.7519    0.7763    0.0000 O   0  0  0  0  0  0  0  0  0  0  0  0
    1.4474    0.4205    0.0000 N   0  3  0  0  0  0  0  0  0  0  0  0
    2.1428   -0.8571    0.0000 N   0  0  0  0  0  0  0  0  0  0  0  0
   -2.1428    1.6819    0.0000 N   0  0  0  0  0  0  0  0  0  0  0  0
   -0.7358    0.7763    0.0000 C   0  0  0  0  0  0  0  0  0  0  0  0
    0.0404    0.3720    0.0000 C   0  0  3  0  0  0  0  0  0  0  0  0
    0.7196   -0.8732    0.0000 C   0  0  0  0  0  0  0  0  0  0  0  0
    1.4474   -0.4205    0.0000 C   0  0  0  0  0  0  0  0  0  0  0  0
   -0.7034    1.6496    0.0000 C   0  0  0  0  0  0  0  0  0  0  0  0
   -1.3665    0.3881    0.0000 C   0  0  0  0  0  0  0  0  0  0  0  0
    0.7358   -1.6981    0.0000 C   0  0  0  0  0  0  0  0  0  0  0  0
   -1.4312    2.0377    0.0000 C   0  0  0  0  0  0  0  0  0  0  0  0
   -2.1266    0.7763    0.0000 C   0  0  0  0  0  0  0  0  0  0  0  0
    0.7196    0.7924    0.0000 C   0  0  0  0  0  0  0  0  0  0  0  0
    1.4960   -2.0863    0.0000 C   0  0  0  0  0  0  0  0  0  0  0  0
    2.1428   -1.6819    0.0000 C   0  0  0  0  0  0  0  0  0  0  0  0
  1 13  1  0  0  0  0
  2 14  1  0  0  0  0
  3 10  1  0  0  0  0
  3 11  1  0  0  0  0
  4  6  1  0  0  0  0
  5  6  2  0  0  0  0
  6 12  1  0  0  0  0
  7 12  1  0  0  0  0
  7 20  2  0  0  0  0
  8 16  2  0  0  0  0
  8 17  1  0  0  0  0
  9 10  1  0  0  0  0
  9 13  2  0  0  0  0
  9 14  1  0  0  0  0
 10 18  1  0  0  0  0
 11 12  2  0  0  0  0
 11 15  1  0  0  0  0
 13 16  1  0  0  0  0
 14 17  2  0  0  0  0
 15 19  2  0  0  0  0
 19 20  1  0  0  0  0
M  CHG  2   4  -1   6   1
M  END
> <PUBCHEM_COMPOUND_ID_TYPE>
0

> <PUBCHEM_TOTAL_CHARGE>
0

> <PUBCHEM_SUBSTANCE_ID>
310940199

> <PUBCHEM_SUBSTANCE_VERSION>
1

> <PUBCHEM_EXT_DATASOURCE_NAME>
4488

> <PUBCHEM_EXT_DATASOURCE_REGID>
SCHEMBL16118133

> <PUBCHEM_SUBSTANCE_COMMENT>
InChI=1S/C12H9Cl2N3O3/c1-7(11-8(13)5-15-6-9(11)14)20-10-3-2-4-16-12(10)17(18)19/h2-7H,1H3
InChIKey=BGAXQCBXWOWEDZ-UHFFFAOYSA-N

> <PUBCHEM_SUBSTANCE_SYNONYM>
SCHEMBL16118133

> <PUBCHEM_XREF_EXT_ID>
SCHEMBL16118133

> <PUBCHEM_EXT_DATASOURCE_URL>
https://www.surechembl.org/

> <PUBCHEM_EXT_SUBSTANCE_URL>
https://www.surechembl.org/chemical/SCHEMBL16118133

> <PUBCHEM_CID_ASSOCIATIONS>
117607303  1

> <PUBCHEM_COORDINATE_TYPE>
1
3

$$$$
