310939662
  -OEChem-07211613022D

 29 31  0     1  0  0  0  0  0999 V2000
   -1.1270   14.6921    0.0000 O   0  0  0  0  0  0  0  0  0  0  0  0
   -2.5559   13.8671    0.0000 O   0  0  0  0  0  0  0  0  0  0  0  0
    2.4454   12.6296    0.0000 N   0  0  3  0  0  0  0  0  0  0  0  0
    2.4454   15.1046    0.0000 N   0  0  0  0  0  0  0  0  0  0  0  0
    3.1599   13.8671    0.0000 N   0  0  0  0  0  0  0  0  0  0  0  0
   -3.9849   14.6921    0.0000 N   0  0  0  0  0  0  0  0  0  0  0  0
    1.7309   14.6921    0.0000 C   0  0  0  0  0  0  0  0  0  0  0  0
    2.4454   13.4546    0.0000 C   0  0  0  0  0  0  0  0  0  0  0  0
    1.0164   15.1046    0.0000 C   0  0  0  0  0  0  0  0  0  0  0  0
    1.7309   13.8671    0.0000 C   0  0  0  0  0  0  0  0  0  0  0  0
    3.1599   14.6921    0.0000 C   0  0  0  0  0  0  0  0  0  0  0  0
    3.1599   12.2171    0.0000 C   0  0  0  0  0  0  0  0  0  0  0  0
    0.3020   14.6921    0.0000 C   0  0  0  0  0  0  0  0  0  0  0  0
   -0.4125   15.1046    0.0000 C   0  0  0  0  0  0  0  0  0  0  0  0
    1.0164   15.9296    0.0000 C   0  0  0  0  0  0  0  0  0  0  0  0
   -0.4125   15.9296    0.0000 C   0  0  0  0  0  0  0  0  0  0  0  0
    0.3020   16.3421    0.0000 C   0  0  0  0  0  0  0  0  0  0  0  0
    3.8743   15.1046    0.0000 C   0  0  0  0  0  0  0  0  0  0  0  0
    3.1599   11.3921    0.0000 C   0  0  0  0  0  0  0  0  0  0  0  0
    3.8743   12.6296    0.0000 C   0  0  0  0  0  0  0  0  0  0  0  0
    1.7309   12.2171    0.0000 C   0  0  0  0  0  0  0  0  0  0  0  0
    3.8743   10.9796    0.0000 C   0  0  0  0  0  0  0  0  0  0  0  0
    4.5888   12.2171    0.0000 C   0  0  0  0  0  0  0  0  0  0  0  0
   -1.8414   15.1046    0.0000 C   0  0  0  0  0  0  0  0  0  0  0  0
    4.5888   11.3921    0.0000 C   0  0  0  0  0  0  0  0  0  0  0  0
    3.8743   15.9296    0.0000 C   0  0  0  0  0  0  0  0  0  0  0  0
   -2.5559   14.6921    0.0000 C   0  0  3  0  0  0  0  0  0  0  0  0
   -3.2704   15.1046    0.0000 C   0  0  0  0  0  0  0  0  0  0  0  0
   -4.6993   15.1046    0.0000 C   0  0  0  0  0  0  0  0  0  0  0  0
  1 14  1  0  0  0  0
  1 24  1  0  0  0  0
  2 27  1  0  0  0  0
  3  8  1  0  0  0  0
  3 12  1  0  0  0  0
  3 21  1  0  0  0  0
  4  7  2  0  0  0  0
  4 11  1  0  0  0  0
  5  8  1  0  0  0  0
  5 11  2  0  0  0  0
  6 28  1  0  0  0  0
  6 29  1  0  0  0  0
  7  9  1  0  0  0  0
  7 10  1  0  0  0  0
  8 10  2  0  0  0  0
  9 13  2  0  0  0  0
  9 15  1  0  0  0  0
 11 18  1  0  0  0  0
 12 19  1  0  0  0  0
 12 20  1  0  0  0  0
 13 14  1  0  0  0  0
 14 16  2  0  0  0  0
 15 17  2  0  0  0  0
 16 17  1  0  0  0  0
 18 26  1  0  0  0  0
 19 22  1  0  0  0  0
 20 23  1  0  0  0  0
 22 25  1  0  0  0  0
 23 25  1  0  0  0  0
 24 27  1  0  0  0  0
 27 28  1  0  0  0  0
M  END
> <PUBCHEM_COMPOUND_ID_TYPE>
0

> <PUBCHEM_TOTAL_CHARGE>
0

> <PUBCHEM_SUBSTANCE_ID>
310939662

> <PUBCHEM_SUBSTANCE_VERSION>
1

> <PUBCHEM_EXT_DATASOURCE_NAME>
4488

> <PUBCHEM_EXT_DATASOURCE_REGID>
SCHEMBL16117592

> <PUBCHEM_SUBSTANCE_COMMENT>
InChI=1S/C23H34N4O2/c1-4-22-25-21(14-23(26-22)27(3)18-10-6-5-7-11-18)17-9-8-12-20(13-17)29-16-19(28)15-24-2/h8-9,12-14,18-19,24,28H,4-7,10-11,15-16H2,1-3H3
InChIKey=XQYGDEMCHCDDLF-UHFFFAOYSA-N

> <PUBCHEM_SUBSTANCE_SYNONYM>
SCHEMBL16117592

> <PUBCHEM_XREF_EXT_ID>
SCHEMBL16117592

> <PUBCHEM_EXT_DATASOURCE_URL>
https://www.surechembl.org/

> <PUBCHEM_EXT_SUBSTANCE_URL>
https://www.surechembl.org/chemical/SCHEMBL16117592

> <PUBCHEM_CID_ASSOCIATIONS>
117606897  1

> <PUBCHEM_COORDINATE_TYPE>
1
3

$$$$
