310937088
  -OEChem-07211613022D

 23 24  0     1  0  0  0  0  0999 V2000
    3.5257   -0.0267    0.0000 Cl  0  0  0  0  0  0  0  0  0  0  0  0
    2.1368    0.0000    0.0000 O   0  0  0  0  0  0  0  0  0  0  0  0
    6.7576   -0.9615    0.0000 O   0  0  0  0  0  0  0  0  0  0  0  0
    0.6945   -0.8280    0.0000 O   0  0  0  0  0  0  0  0  0  0  0  0
    6.7576   -2.3772    0.0000 O   0  0  0  0  0  0  0  0  0  0  0  0
    1.4156   -2.0567    0.0000 O   0  0  0  0  0  0  0  0  0  0  0  0
    4.2469   -1.2287    0.0000 N   0  0  0  0  0  0  0  0  0  0  0  0
    5.0481   -1.0149    0.0000 N   0  0  0  0  0  0  0  0  0  0  0  0
    3.5257   -2.4840    0.0000 N   0  0  0  0  0  0  0  0  0  0  0  0
    4.2469   -2.0834    0.0000 C   0  0  0  0  0  0  0  0  0  0  0  0
    2.8312   -1.2287    0.0000 C   0  0  0  0  0  0  0  0  0  0  0  0
    3.5257   -0.8547    0.0000 C   0  0  0  0  0  0  0  0  0  0  0  0
    2.8312   -2.0834    0.0000 C   0  0  0  0  0  0  0  0  0  0  0  0
    5.5289   -1.6560    0.0000 C   0  0  0  0  0  0  0  0  0  0  0  0
    5.0481   -2.3237    0.0000 C   0  0  0  0  0  0  0  0  0  0  0  0
    2.1368   -0.8280    0.0000 C   0  0  3  0  0  0  0  0  0  0  0  0
    6.3569   -1.6560    0.0000 C   0  0  0  0  0  0  0  0  0  0  0  0
    1.4156   -1.2287    0.0000 C   0  0  0  0  0  0  0  0  0  0  0  0
    2.1368   -2.5107    0.0000 C   0  0  0  0  0  0  0  0  0  0  0  0
    7.5855   -0.9615    0.0000 C   0  0  0  0  0  0  0  0  0  0  0  0
    0.0000   -1.2287    0.0000 C   0  0  0  0  0  0  0  0  0  0  0  0
    8.0129   -0.2404    0.0000 C   0  0  0  0  0  0  0  0  0  0  0  0
    0.0000   -2.0567    0.0000 C   0  0  0  0  0  0  0  0  0  0  0  0
  1 12  1  0  0  0  0
  2 16  1  0  0  0  0
  3 17  1  0  0  0  0
  3 20  1  0  0  0  0
  4 18  1  0  0  0  0
  4 21  1  0  0  0  0
  5 17  2  0  0  0  0
  6 18  2  0  0  0  0
  7  8  1  0  0  0  0
  7 10  1  0  0  0  0
  7 12  1  0  0  0  0
  8 14  2  0  0  0  0
  9 10  1  0  0  0  0
  9 13  2  0  0  0  0
 10 15  2  0  0  0  0
 11 12  2  0  0  0  0
 11 13  1  0  0  0  0
 11 16  1  0  0  0  0
 13 19  1  0  0  0  0
 14 15  1  0  0  0  0
 14 17  1  0  0  0  0
 16 18  1  0  0  0  0
 20 22  1  0  0  0  0
 21 23  1  0  0  0  0
M  END
> <PUBCHEM_COMPOUND_ID_TYPE>
0

> <PUBCHEM_TOTAL_CHARGE>
0

> <PUBCHEM_SUBSTANCE_ID>
310937088

> <PUBCHEM_SUBSTANCE_VERSION>
1

> <PUBCHEM_EXT_DATASOURCE_NAME>
4488

> <PUBCHEM_EXT_DATASOURCE_REGID>
SCHEMBL16114802

> <PUBCHEM_SUBSTANCE_COMMENT>
InChI=1S/C14H16ClN3O5/c1-4-22-13(20)8-6-9-16-7(3)10(12(15)18(9)17-8)11(19)14(21)23-5-2/h6,11,19H,4-5H2,1-3H3
InChIKey=JCFDHLKYGQSXIP-UHFFFAOYSA-N

> <PUBCHEM_SUBSTANCE_SYNONYM>
SCHEMBL16114802

> <PUBCHEM_XREF_EXT_ID>
SCHEMBL16114802

> <PUBCHEM_EXT_DATASOURCE_URL>
https://www.surechembl.org/

> <PUBCHEM_EXT_SUBSTANCE_URL>
https://www.surechembl.org/chemical/SCHEMBL16114802

> <PUBCHEM_CID_ASSOCIATIONS>
117604925  1

> <PUBCHEM_COORDINATE_TYPE>
1
3

$$$$
