310928952
  -OEChem-07211613022D

 12 13  0     1  0  0  0  0  0999 V2000
   -1.7190    0.1192    0.0000 Br  0  0  0  0  0  0  0  0  0  0  0  0
    1.7190    1.5308    0.0000 N   0  0  0  0  0  0  0  0  0  0  0  0
    0.4245   -0.2933    0.0000 C   0  0  0  0  0  0  0  0  0  0  0  0
    0.4245   -1.1183    0.0000 C   0  0  0  0  0  0  0  0  0  0  0  0
    1.2091   -0.0384    0.0000 C   0  0  3  0  0  0  0  0  0  0  0  0
   -0.2900    0.1192    0.0000 C   0  0  0  0  0  0  0  0  0  0  0  0
    1.2091   -1.3733    0.0000 C   0  0  0  0  0  0  0  0  0  0  0  0
   -1.0045   -0.2933    0.0000 C   0  0  0  0  0  0  0  0  0  0  0  0
    1.6940   -0.7058    0.0000 C   0  0  0  0  0  0  0  0  0  0  0  0
   -0.2900   -1.5308    0.0000 C   0  0  0  0  0  0  0  0  0  0  0  0
   -1.0045   -1.1183    0.0000 C   0  0  0  0  0  0  0  0  0  0  0  0
    1.4640    0.7462    0.0000 C   0  0  0  0  0  0  0  0  0  0  0  0
  1  8  1  0  0  0  0
  2 12  3  0  0  0  0
  3  4  2  0  0  0  0
  3  5  1  0  0  0  0
  3  6  1  0  0  0  0
  4  7  1  0  0  0  0
  4 10  1  0  0  0  0
  5  9  1  0  0  0  0
  5 12  1  0  0  0  0
  6  8  2  0  0  0  0
  7  9  1  0  0  0  0
  8 11  1  0  0  0  0
 10 11  2  0  0  0  0
M  END
> <PUBCHEM_COMPOUND_ID_TYPE>
0

> <PUBCHEM_TOTAL_CHARGE>
0

> <PUBCHEM_SUBSTANCE_ID>
310928952

> <PUBCHEM_SUBSTANCE_VERSION>
1

> <PUBCHEM_EXT_DATASOURCE_NAME>
11752

> <PUBCHEM_EXT_DATASOURCE_REGID>
BD318431

> <PUBCHEM_SUBSTANCE_SYNONYM>
6-Bromo-2,3-dihydro-1H-indene-1-carbonitrile
783335-58-0

> <PUBCHEM_GENERIC_REGISTRY_NAME>
783335-58-0

> <PUBCHEM_XREF_EXT_ID>
BD318431

> <PUBCHEM_EXT_DATASOURCE_URL>
http://www.bidepharmatech.com/en/index.html

> <PUBCHEM_EXT_SUBSTANCE_URL>
http://www.bidepharmatech.com/en/goodsview_goodscode_BD318431.html

> <PUBCHEM_CID_ASSOCIATIONS>
60145980  1

> <PUBCHEM_COORDINATE_TYPE>
1
3

$$$$
