310943779
  -OEChem-07211613022D

 27 29  0     1  0  0  0  0  0999 V2000
   -2.2835   -1.1941    0.0000 N   0  0  3  0  0  0  0  0  0  0  0  0
   -4.0809   -0.6401    0.0000 N   0  0  3  0  0  0  0  0  0  0  0  0
    4.2040    0.8987    0.0000 N   0  0  0  0  0  0  0  0  0  0  0  0
    2.1974   -2.1175    0.0000 N   0  0  0  0  0  0  0  0  0  0  0  0
    4.9181    1.3172    0.0000 N   0  0  0  0  0  0  0  0  0  0  0  0
    0.5971   -0.3693    0.0000 C   0  0  0  0  0  0  0  0  0  0  0  0
    1.3111    0.0738    0.0000 C   0  0  0  0  0  0  0  0  0  0  0  0
    0.5847   -1.1819    0.0000 C   0  0  0  0  0  0  0  0  0  0  0  0
   -0.8556   -1.1941    0.0000 C   0  0  0  0  0  0  0  0  0  0  0  0
   -0.1046   -1.6004    0.0000 C   0  0  0  0  0  0  0  0  0  0  0  0
   -0.1416    0.0493    0.0000 C   0  0  0  0  0  0  0  0  0  0  0  0
   -0.8433   -0.3571    0.0000 C   0  0  0  0  0  0  0  0  0  0  0  0
    1.3234    0.8987    0.0000 C   0  0  0  0  0  0  0  0  0  0  0  0
    2.0374   -0.3447    0.0000 C   0  0  0  0  0  0  0  0  0  0  0  0
    2.7637    0.9110    0.0000 C   0  0  0  0  0  0  0  0  0  0  0  0
   -1.5572   -1.6004    0.0000 C   0  0  0  0  0  0  0  0  0  0  0  0
    2.0374    1.2926    0.0000 C   0  0  0  0  0  0  0  0  0  0  0  0
    2.7514    0.0616    0.0000 C   0  0  0  0  0  0  0  0  0  0  0  0
    1.4834   -1.7111    0.0000 C   0  0  0  0  0  0  0  0  0  0  0  0
    3.4777    1.3050    0.0000 C   0  0  0  0  0  0  0  0  0  0  0  0
   -2.9730   -1.6619    0.0000 C   0  0  0  0  0  0  0  0  0  0  0  0
   -2.2344   -0.3571    0.0000 C   0  0  0  0  0  0  0  0  0  0  0  0
   -3.7609   -1.4157    0.0000 C   0  0  0  0  0  0  0  0  0  0  0  0
   -2.8129    0.1847    0.0000 C   0  0  0  0  0  0  0  0  0  0  0  0
   -3.6501    0.0862    0.0000 C   0  0  0  0  0  0  0  0  0  0  0  0
    3.4777    2.1175    0.0000 C   0  0  0  0  0  0  0  0  0  0  0  0
   -4.9181   -0.6401    0.0000 C   0  0  0  0  0  0  0  0  0  0  0  0
  1 16  1  0  0  0  0
  1 21  1  0  0  0  0
  1 22  1  0  0  0  0
  2 23  1  0  0  0  0
  2 25  1  0  0  0  0
  2 27  1  0  0  0  0
  3  5  1  0  0  0  0
  3 20  1  0  0  0  0
  4 19  3  0  0  0  0
  6  7  1  0  0  0  0
  6  8  1  0  0  0  0
  6 11  2  0  0  0  0
  7 13  2  0  0  0  0
  7 14  1  0  0  0  0
  8 10  2  0  0  0  0
  8 19  1  0  0  0  0
  9 10  1  0  0  0  0
  9 12  2  0  0  0  0
  9 16  1  0  0  0  0
 11 12  1  0  0  0  0
 13 17  1  0  0  0  0
 14 18  2  0  0  0  0
 15 17  2  0  0  0  0
 15 18  1  0  0  0  0
 15 20  1  0  0  0  0
 20 26  2  0  0  0  0
 21 23  1  0  0  0  0
 22 24  1  0  0  0  0
 24 25  1  0  0  0  0
M  END
> <PUBCHEM_COMPOUND_ID_TYPE>
0

> <PUBCHEM_TOTAL_CHARGE>
0

> <PUBCHEM_SUBSTANCE_ID>
310943779

> <PUBCHEM_SUBSTANCE_VERSION>
1

> <PUBCHEM_EXT_DATASOURCE_NAME>
4488

> <PUBCHEM_EXT_DATASOURCE_REGID>
SCHEMBL16121849

> <PUBCHEM_SUBSTANCE_COMMENT>
InChI=1S/C22H27N5/c1-17(25-24)19-5-7-20(8-6-19)22-9-4-18(14-21(22)15-23)16-27-11-3-10-26(2)12-13-27/h4-9,14,25H,1,3,10-13,16,24H2,2H3
InChIKey=PZTLUGRPPNAIEX-UHFFFAOYSA-N

> <PUBCHEM_SUBSTANCE_SYNONYM>
SCHEMBL16121849

> <PUBCHEM_XREF_EXT_ID>
SCHEMBL16121849

> <PUBCHEM_EXT_DATASOURCE_URL>
https://www.surechembl.org/

> <PUBCHEM_EXT_SUBSTANCE_URL>
https://www.surechembl.org/chemical/SCHEMBL16121849

> <PUBCHEM_CID_ASSOCIATIONS>
117610140  1

> <PUBCHEM_COORDINATE_TYPE>
1
3

$$$$
