310933897
  -OEChem-07211613022D

 17 18  0     1  0  0  0  0  0999 V2000
   -2.8669   -5.2018    0.0000 Br  0  0  0  0  0  0  0  0  0  0  0  0
   -1.2169   -2.3439    0.0000 F   0  0  0  0  0  0  0  0  0  0  0  0
   -0.3919   -3.7728    0.0000 O   0  0  0  0  0  0  0  0  0  0  0  0
    0.7145   -1.2375    0.0000 O   0  0  0  0  0  0  0  0  0  0  0  0
    2.1434   -1.2375    0.0000 O   0  0  0  0  0  0  0  0  0  0  0  0
    1.4289   -2.4750    0.0000 N   0  0  0  0  0  0  0  0  0  0  0  0
   -2.4544   -3.0584    0.0000 N   0  0  0  0  0  0  0  0  0  0  0  0
    0.8456   -3.0584    0.0000 C   0  0  3  0  0  0  0  0  0  0  0  0
   -1.2169   -3.7728    0.0000 C   0  0  0  0  0  0  0  0  0  0  0  0
   -1.6294   -3.0584    0.0000 C   0  0  0  0  0  0  0  0  0  0  0  0
    1.4289   -3.6417    0.0000 C   0  0  0  0  0  0  0  0  0  0  0  0
    2.0123   -3.0584    0.0000 C   0  0  0  0  0  0  0  0  0  0  0  0
    0.0206   -3.0584    0.0000 C   0  0  0  0  0  0  0  0  0  0  0  0
   -1.6294   -4.4873    0.0000 C   0  0  0  0  0  0  0  0  0  0  0  0
    1.4289   -1.6500    0.0000 C   0  0  0  0  0  0  0  0  0  0  0  0
   -2.4544   -4.4873    0.0000 C   0  0  0  0  0  0  0  0  0  0  0  0
   -2.8669   -3.7728    0.0000 C   0  0  0  0  0  0  0  0  0  0  0  0
  1 16  1  0  0  0  0
  2 10  1  0  0  0  0
  3  9  1  0  0  0  0
  3 13  1  0  0  0  0
  4 15  2  0  0  0  0
  5 15  1  0  0  0  0
  6  8  1  0  0  0  0
  6 12  1  0  0  0  0
  6 15  1  0  0  0  0
  7 10  2  0  0  0  0
  7 17  1  0  0  0  0
  8 11  1  0  0  0  0
  8 13  1  0  0  0  0
  9 10  1  0  0  0  0
  9 14  2  0  0  0  0
 11 12  1  0  0  0  0
 14 16  1  0  0  0  0
 16 17  2  0  0  0  0
M  END
> <PUBCHEM_COMPOUND_ID_TYPE>
0

> <PUBCHEM_TOTAL_CHARGE>
0

> <PUBCHEM_SUBSTANCE_ID>
310933897

> <PUBCHEM_SUBSTANCE_VERSION>
1

> <PUBCHEM_EXT_DATASOURCE_NAME>
4488

> <PUBCHEM_EXT_DATASOURCE_REGID>
SCHEMBL16111336

> <PUBCHEM_SUBSTANCE_COMMENT>
InChI=1S/C10H10BrFN2O3/c11-6-3-8(9(12)13-4-6)17-5-7-1-2-14(7)10(15)16/h3-4,7H,1-2,5H2,(H,15,16)
InChIKey=QZZUMZSGNQTNMZ-UHFFFAOYSA-N

> <PUBCHEM_SUBSTANCE_SYNONYM>
SCHEMBL16111336

> <PUBCHEM_XREF_EXT_ID>
SCHEMBL16111336

> <PUBCHEM_EXT_DATASOURCE_URL>
https://www.surechembl.org/

> <PUBCHEM_EXT_SUBSTANCE_URL>
https://www.surechembl.org/chemical/SCHEMBL16111336

> <PUBCHEM_CID_ASSOCIATIONS>
117602227  1

> <PUBCHEM_COORDINATE_TYPE>
1
3

$$$$
