310934656
  -OEChem-07211613022D

 35 39  0     1  0  0  0  0  0999 V2000
    4.2918   -6.1312    0.0000 N   0  0  3  0  0  0  0  0  0  0  0  0
    4.9993   -7.3574    0.0000 N   0  0  0  0  0  0  0  0  0  0  0  0
    4.2918   -8.6309    0.0000 N   0  0  0  0  0  0  0  0  0  0  0  0
    1.4149   -6.1312    0.0000 N   0  0  0  0  0  0  0  0  0  0  0  0
    2.1223   -3.3014    0.0000 N   0  0  0  0  0  0  0  0  0  0  0  0
    0.0000   -6.9801    0.0000 N   0  0  0  0  0  0  0  0  0  0  0  0
    1.4149   -1.2262    0.0000 N   0  0  0  0  0  0  0  0  0  0  0  0
    3.5844   -7.3574    0.0000 C   0  0  0  0  0  0  0  0  0  0  0  0
    4.2918   -6.9801    0.0000 C   0  0  0  0  0  0  0  0  0  0  0  0
    3.5844   -8.2064    0.0000 C   0  0  0  0  0  0  0  0  0  0  0  0
    2.8769   -8.6309    0.0000 C   0  0  0  0  0  0  0  0  0  0  0  0
    2.1695   -7.4046    0.0000 C   0  0  0  0  0  0  0  0  0  0  0  0
    2.8769   -6.9801    0.0000 C   0  0  0  0  0  0  0  0  0  0  0  0
    3.5372   -4.9049    0.0000 C   0  0  0  0  0  0  0  0  0  0  0  0
    2.1695   -8.2064    0.0000 C   0  0  0  0  0  0  0  0  0  0  0  0
    3.5844   -5.7539    0.0000 C   0  0  0  0  0  0  0  0  0  0  0  0
    4.2447   -4.4805    0.0000 C   0  0  0  0  0  0  0  0  0  0  0  0
    1.4620   -6.9801    0.0000 C   0  0  0  0  0  0  0  0  0  0  0  0
    4.9993   -5.7539    0.0000 C   0  0  0  0  0  0  0  0  0  0  0  0
    4.9993   -8.2064    0.0000 C   0  0  0  0  0  0  0  0  0  0  0  0
    4.9521   -4.9049    0.0000 C   0  0  0  0  0  0  0  0  0  0  0  0
    2.8769   -4.5276    0.0000 C   0  0  0  0  0  0  0  0  0  0  0  0
    2.8298   -3.6787    0.0000 C   0  0  0  0  0  0  0  0  0  0  0  0
    4.2918   -3.6787    0.0000 C   0  0  0  0  0  0  0  0  0  0  0  0
    2.8769   -9.4326    0.0000 C   0  0  0  0  0  0  0  0  0  0  0  0
    0.7074   -7.3574    0.0000 C   0  0  0  0  0  0  0  0  0  0  0  0
    3.5372   -3.3014    0.0000 C   0  0  0  0  0  0  0  0  0  0  0  0
    0.7074   -5.7539    0.0000 C   0  0  0  0  0  0  0  0  0  0  0  0
    0.0000   -6.1312    0.0000 C   0  0  0  0  0  0  0  0  0  0  0  0
    2.1223   -2.4525    0.0000 C   0  0  0  0  0  0  0  0  0  0  0  0
    1.4149   -2.0751    0.0000 C   0  0  0  0  0  0  0  0  0  0  0  0
    0.7074   -0.8018    0.0000 C   0  0  0  0  0  0  0  0  0  0  0  0
    2.1223   -0.8018    0.0000 C   0  0  0  0  0  0  0  0  0  0  0  0
    0.0000   -1.2262    0.0000 C   0  0  0  0  0  0  0  0  0  0  0  0
    2.1223    0.0000    0.0000 C   0  0  0  0  0  0  0  0  0  0  0  0
  1  9  1  0  0  0  0
  1 16  1  0  0  0  0
  1 19  1  0  0  0  0
  2  9  1  0  0  0  0
  2 20  2  0  0  0  0
  3 10  2  0  0  0  0
  3 20  1  0  0  0  0
  4 18  2  0  0  0  0
  4 28  1  0  0  0  0
  5 23  1  0  0  0  0
  5 30  1  0  0  0  0
  6 26  2  0  0  0  0
  6 29  1  0  0  0  0
  7 31  1  0  0  0  0
  7 32  1  0  0  0  0
  7 33  1  0  0  0  0
  8  9  2  0  0  0  0
  8 10  1  0  0  0  0
  8 13  1  0  0  0  0
 10 11  1  0  0  0  0
 11 15  2  0  0  0  0
 11 25  1  0  0  0  0
 12 13  2  0  0  0  0
 12 15  1  0  0  0  0
 12 18  1  0  0  0  0
 14 16  1  0  0  0  0
 14 17  2  0  0  0  0
 14 22  1  0  0  0  0
 17 21  1  0  0  0  0
 17 24  1  0  0  0  0
 18 26  1  0  0  0  0
 19 21  1  0  0  0  0
 22 23  2  0  0  0  0
 23 27  1  0  0  0  0
 24 27  2  0  0  0  0
 28 29  2  0  0  0  0
 30 31  1  0  0  0  0
 32 34  1  0  0  0  0
 33 35  1  0  0  0  0
M  END
> <PUBCHEM_COMPOUND_ID_TYPE>
0

> <PUBCHEM_TOTAL_CHARGE>
0

> <PUBCHEM_SUBSTANCE_ID>
310934656

> <PUBCHEM_SUBSTANCE_VERSION>
1

> <PUBCHEM_EXT_DATASOURCE_NAME>
4488

> <PUBCHEM_EXT_DATASOURCE_REGID>
SCHEMBL16112154

> <PUBCHEM_SUBSTANCE_COMMENT>
InChI=1S/C28H33N7/c1-4-34(5-2)13-11-30-24-7-6-21-8-12-35(18-23(21)15-24)28-25-16-22(26-17-29-9-10-31-26)14-20(3)27(25)32-19-33-28/h6-7,9-10,14-17,19,30H,4-5,8,11-13,18H2,1-3H3
InChIKey=YHFDHLLMWQCOBK-UHFFFAOYSA-N

> <PUBCHEM_SUBSTANCE_SYNONYM>
SCHEMBL16112154

> <PUBCHEM_XREF_EXT_ID>
SCHEMBL16112154

> <PUBCHEM_EXT_DATASOURCE_URL>
https://www.surechembl.org/

> <PUBCHEM_EXT_SUBSTANCE_URL>
https://www.surechembl.org/chemical/SCHEMBL16112154

> <PUBCHEM_CID_ASSOCIATIONS>
117602823  1

> <PUBCHEM_COORDINATE_TYPE>
1
3

$$$$
