310949535
  -OEChem-07211613022D

 34 35  0     1  0  0  0  0  0999 V2000
   -3.6328   -0.2635    0.0000 O   0  0  0  0  0  0  0  0  0  0  0  0
   -5.0610    0.5547    0.0000 O   0  0  0  0  0  0  0  0  0  0  0  0
   -2.2046    0.5547    0.0000 O   0  0  0  0  0  0  0  0  0  0  0  0
   -5.0610    2.1908    0.0000 O   0  0  0  0  0  0  0  0  0  0  0  0
   -3.6051    0.6101    0.0000 C   0  0  0  0  0  0  0  0  0  0  0  0
   -4.3261    1.0260    0.0000 C   0  0  0  0  0  0  0  0  0  0  0  0
   -2.8979    1.8581    0.0000 C   0  0  3  0  0  0  0  0  0  0  0  0
   -2.8979    1.0260    0.0000 C   0  0  3  0  0  0  0  0  0  0  0  0
   -4.3122    1.8442    0.0000 C   0  0  0  0  0  0  0  0  0  0  0  0
   -3.6051    2.2600    0.0000 C   0  0  3  0  0  0  0  0  0  0  0  0
   -2.1769    2.2600    0.0000 C   0  0  0  0  0  0  0  0  0  0  0  0
   -3.6051    3.0921    0.0000 C   0  0  0  0  0  0  0  0  0  0  0  0
   -2.8979   -0.6379    0.0000 C   0  0  0  0  0  0  0  0  0  0  0  0
   -1.4282    1.8581    0.0000 C   0  0  0  0  0  0  0  0  0  0  0  0
   -2.8979   -1.4559    0.0000 C   0  0  0  0  0  0  0  0  0  0  0  0
   -5.7681    1.0399    0.0000 C   0  0  0  0  0  0  0  0  0  0  0  0
   -0.7348    2.2600    0.0000 C   0  0  0  0  0  0  0  0  0  0  0  0
   -3.5912   -1.8719    0.0000 C   0  0  0  0  0  0  0  0  0  0  0  0
   -2.1769   -1.8719    0.0000 C   0  0  0  0  0  0  0  0  0  0  0  0
    0.0139    1.8581    0.0000 C   0  0  0  0  0  0  0  0  0  0  0  0
   -3.5912   -2.6900    0.0000 C   0  0  0  0  0  0  0  0  0  0  0  0
   -2.1769   -2.6900    0.0000 C   0  0  0  0  0  0  0  0  0  0  0  0
   -0.7348    3.0921    0.0000 C   0  0  0  0  0  0  0  0  0  0  0  0
   -2.8841   -3.0921    0.0000 C   0  0  0  0  0  0  0  0  0  0  0  0
    0.7071    2.2600    0.0000 C   0  0  0  0  0  0  0  0  0  0  0  0
    1.4559    1.8581    0.0000 C   0  0  0  0  0  0  0  0  0  0  0  0
    2.1492    2.2600    0.0000 C   0  0  0  0  0  0  0  0  0  0  0  0
    2.8563    1.8581    0.0000 C   0  0  0  0  0  0  0  0  0  0  0  0
    2.1492    3.0921    0.0000 C   0  0  0  0  0  0  0  0  0  0  0  0
    3.5773    2.2600    0.0000 C   0  0  0  0  0  0  0  0  0  0  0  0
    4.3261    1.8581    0.0000 C   0  0  0  0  0  0  0  0  0  0  0  0
    5.0194    2.2600    0.0000 C   0  0  0  0  0  0  0  0  0  0  0  0
    5.0194    3.0921    0.0000 C   0  0  0  0  0  0  0  0  0  0  0  0
    5.7681    1.8581    0.0000 C   0  0  0  0  0  0  0  0  0  0  0  0
  1  5  1  0  0  0  0
  1 13  1  0  0  0  0
  2  6  1  0  0  0  0
  2 16  1  0  0  0  0
  3  8  1  0  0  0  0
  4  9  2  0  0  0  0
  5  6  2  0  0  0  0
  5  8  1  0  0  0  0
  6  9  1  0  0  0  0
  7  8  1  0  0  0  0
  7 10  1  0  0  0  0
  7 11  1  0  0  0  0
  9 10  1  0  0  0  0
 10 12  1  0  0  0  0
 11 14  1  0  0  0  0
 13 15  1  0  0  0  0
 14 17  2  0  0  0  0
 15 18  2  0  0  0  0
 15 19  1  0  0  0  0
 17 20  1  0  0  0  0
 17 23  1  0  0  0  0
 18 21  1  0  0  0  0
 19 22  2  0  0  0  0
 20 25  1  0  0  0  0
 21 24  2  0  0  0  0
 22 24  1  0  0  0  0
 25 26  1  0  0  0  0
 26 27  2  0  0  0  0
 27 28  1  0  0  0  0
 27 29  1  0  0  0  0
 28 30  1  0  0  0  0
 30 31  1  0  0  0  0
 31 32  2  0  0  0  0
 32 33  1  0  0  0  0
 32 34  1  0  0  0  0
M  END
> <PUBCHEM_COMPOUND_ID_TYPE>
0

> <PUBCHEM_TOTAL_CHARGE>
0

> <PUBCHEM_SUBSTANCE_ID>
310949535

> <PUBCHEM_SUBSTANCE_VERSION>
1

> <PUBCHEM_EXT_DATASOURCE_NAME>
4488

> <PUBCHEM_EXT_DATASOURCE_REGID>
SCHEMBL16127730

> <PUBCHEM_SUBSTANCE_COMMENT>
InChI=1S/C30H42O4/c1-21(2)12-10-13-22(3)14-11-15-23(4)18-19-26-24(5)27(31)29(33-6)30(28(26)32)34-20-25-16-8-7-9-17-25/h7-9,12,14,16-18,24,26,28,32H,10-11,13,15,19-20H2,1-6H3/b22-14+,23-18+
InChIKey=MOPBZEZKCQYHSP-BSEQPRGQSA-N

> <PUBCHEM_SUBSTANCE_SYNONYM>
SCHEMBL16127730

> <PUBCHEM_XREF_EXT_ID>
SCHEMBL16127730

> <PUBCHEM_EXT_DATASOURCE_URL>
https://www.surechembl.org/

> <PUBCHEM_EXT_SUBSTANCE_URL>
https://www.surechembl.org/chemical/SCHEMBL16127730

> <PUBCHEM_CID_ASSOCIATIONS>
78320125  1

> <PUBCHEM_COORDINATE_TYPE>
1
3

$$$$
