310932782
  -OEChem-07211613022D

 16 17  0     1  0  0  0  0  0999 V2000
    2.1397    0.0000    0.0000 Cl  0  0  0  0  0  0  0  0  0  0  0  0
    2.1397   -1.6499    0.0000 F   0  0  0  0  0  0  0  0  0  0  0  0
    1.2632   -5.1561    0.0000 O   0  0  0  0  0  0  0  0  0  0  0  0
    2.4234   -4.3053    0.0000 O   0  0  0  0  0  0  0  0  0  0  0  0
    0.7218   -2.4749    0.0000 N   0  0  3  0  0  0  0  0  0  0  0  0
    0.7218   -1.6499    0.0000 C   0  0  0  0  0  0  0  0  0  0  0  0
    1.4179   -1.2375    0.0000 C   0  0  0  0  0  0  0  0  0  0  0  0
    1.1344   -3.7382    0.0000 C   0  0  3  0  0  0  0  0  0  0  0  0
    1.3922   -2.9647    0.0000 C   0  0  0  0  0  0  0  0  0  0  0  0
    1.4179   -0.4125    0.0000 C   0  0  0  0  0  0  0  0  0  0  0  0
    0.0516   -2.9647    0.0000 C   0  0  0  0  0  0  0  0  0  0  0  0
    0.0000   -1.2375    0.0000 C   0  0  0  0  0  0  0  0  0  0  0  0
    0.3094   -3.7382    0.0000 C   0  0  0  0  0  0  0  0  0  0  0  0
    1.6242   -4.4085    0.0000 C   0  0  0  0  0  0  0  0  0  0  0  0
    0.7218    0.0000    0.0000 C   0  0  0  0  0  0  0  0  0  0  0  0
    0.0000   -0.4125    0.0000 C   0  0  0  0  0  0  0  0  0  0  0  0
  1 10  1  0  0  0  0
  2  7  1  0  0  0  0
  3 14  2  0  0  0  0
  4 14  1  0  0  0  0
  5  6  1  0  0  0  0
  5  9  1  0  0  0  0
  5 11  1  0  0  0  0
  6  7  1  0  0  0  0
  6 12  2  0  0  0  0
  7 10  2  0  0  0  0
  8  9  1  0  0  0  0
  8 13  1  0  0  0  0
  8 14  1  0  0  0  0
 10 15  1  0  0  0  0
 11 13  1  0  0  0  0
 12 16  1  0  0  0  0
 15 16  2  0  0  0  0
M  END
> <PUBCHEM_COMPOUND_ID_TYPE>
0

> <PUBCHEM_TOTAL_CHARGE>
0

> <PUBCHEM_SUBSTANCE_ID>
310932782

> <PUBCHEM_SUBSTANCE_VERSION>
1

> <PUBCHEM_EXT_DATASOURCE_NAME>
4488

> <PUBCHEM_EXT_DATASOURCE_REGID>
SCHEMBL16110168

> <PUBCHEM_SUBSTANCE_COMMENT>
InChI=1S/C11H11ClFNO2/c12-8-2-1-3-9(10(8)13)14-5-4-7(6-14)11(15)16/h1-3,7H,4-6H2,(H,15,16)
InChIKey=IFPDWUAQWCBCLS-UHFFFAOYSA-N

> <PUBCHEM_SUBSTANCE_SYNONYM>
SCHEMBL16110168

> <PUBCHEM_XREF_EXT_ID>
SCHEMBL16110168

> <PUBCHEM_EXT_DATASOURCE_URL>
https://www.surechembl.org/

> <PUBCHEM_EXT_SUBSTANCE_URL>
https://www.surechembl.org/chemical/SCHEMBL16110168

> <PUBCHEM_CID_ASSOCIATIONS>
117601277  1

> <PUBCHEM_COORDINATE_TYPE>
1
3

$$$$
