310947681
  -OEChem-07211613022D

 28 29  0     1  0  0  0  0  0999 V2000
   -0.7818   -2.4336    0.0000 Cl  0  0  0  0  0  0  0  0  0  0  0  0
    1.3616   -3.6711    0.0000 F   0  0  0  0  0  0  0  0  0  0  0  0
   -0.0673   -3.6711    0.0000 F   0  0  0  0  0  0  0  0  0  0  0  0
    0.6471   -4.0836    0.0000 F   0  0  0  0  0  0  0  0  0  0  0  0
   -0.7818   -0.7836    0.0000 O   0  0  0  0  0  0  0  0  0  0  0  0
    2.8607   -1.0385    0.0000 N   0  0  0  0  0  0  0  0  0  0  0  0
    1.7062    1.4217    0.0000 N   0  0  3  0  0  0  0  0  0  0  0  0
    0.7530    3.3853    0.0000 N   0  0  0  0  0  0  0  0  0  0  0  0
    0.6471   -2.4336    0.0000 C   0  0  0  0  0  0  0  0  0  0  0  0
    1.3616   -1.1961    0.0000 C   0  0  0  0  0  0  0  0  0  0  0  0
   -0.0673   -2.0211    0.0000 C   0  0  0  0  0  0  0  0  0  0  0  0
    2.0761   -0.7836    0.0000 C   0  0  0  0  0  0  0  0  0  0  0  0
   -0.0673   -1.1961    0.0000 C   0  0  0  0  0  0  0  0  0  0  0  0
    0.6471   -3.2586    0.0000 C   0  0  0  0  0  0  0  0  0  0  0  0
    1.3616   -2.0211    0.0000 C   0  0  0  0  0  0  0  0  0  0  0  0
    0.6471   -0.7836    0.0000 C   0  0  0  0  0  0  0  0  0  0  0  0
    2.0761    0.0414    0.0000 C   0  0  0  0  0  0  0  0  0  0  0  0
    2.8607    0.2964    0.0000 C   0  0  0  0  0  0  0  0  0  0  0  0
    3.3456   -0.3711    0.0000 C   0  0  0  0  0  0  0  0  0  0  0  0
    1.4927    0.6248    0.0000 C   0  0  0  0  0  0  0  0  0  0  0  0
   -1.4963   -1.1961    0.0000 C   0  0  0  0  0  0  0  0  0  0  0  0
    1.1229    2.0050    0.0000 C   0  0  0  0  0  0  0  0  0  0  0  0
   -2.2107   -0.7836    0.0000 C   0  0  0  0  0  0  0  0  0  0  0  0
    2.5031    1.6352    0.0000 C   0  0  0  0  0  0  0  0  0  0  0  0
   -2.9252   -1.1961    0.0000 C   0  0  0  0  0  0  0  0  0  0  0  0
    1.3364    2.8019    0.0000 C   0  0  0  0  0  0  0  0  0  0  0  0
   -3.6397   -0.7836    0.0000 C   0  0  0  0  0  0  0  0  0  0  0  0
   -2.9252   -2.0211    0.0000 C   0  0  0  0  0  0  0  0  0  0  0  0
  1 11  1  0  0  0  0
  2 14  1  0  0  0  0
  3 14  1  0  0  0  0
  4 14  1  0  0  0  0
  5 13  1  0  0  0  0
  5 21  1  0  0  0  0
  6 12  2  0  0  0  0
  6 19  1  0  0  0  0
  7 20  1  0  0  0  0
  7 22  1  0  0  0  0
  7 24  1  0  0  0  0
  8 26  1  0  0  0  0
  9 11  1  0  0  0  0
  9 14  1  0  0  0  0
  9 15  2  0  0  0  0
 10 12  1  0  0  0  0
 10 15  1  0  0  0  0
 10 16  2  0  0  0  0
 11 13  2  0  0  0  0
 12 17  1  0  0  0  0
 13 16  1  0  0  0  0
 17 18  2  0  0  0  0
 17 20  1  0  0  0  0
 18 19  1  0  0  0  0
 21 23  1  0  0  0  0
 22 26  1  0  0  0  0
 23 25  1  0  0  0  0
 25 27  1  0  0  0  0
 25 28  1  0  0  0  0
M  END
> <PUBCHEM_COMPOUND_ID_TYPE>
0

> <PUBCHEM_TOTAL_CHARGE>
0

> <PUBCHEM_SUBSTANCE_ID>
310947681

> <PUBCHEM_SUBSTANCE_VERSION>
1

> <PUBCHEM_EXT_DATASOURCE_NAME>
4488

> <PUBCHEM_EXT_DATASOURCE_REGID>
SCHEMBL16125849

> <PUBCHEM_SUBSTANCE_COMMENT>
InChI=1S/C20H27ClF3N3O/c1-13(2)5-9-28-17-11-15(10-16(18(17)21)20(22,23)24)19-14(4-7-26-19)12-27(3)8-6-25/h4,10-11,13H,5-9,12,25H2,1-3H3
InChIKey=MEBYQZTWXQEACJ-UHFFFAOYSA-N

> <PUBCHEM_SUBSTANCE_SYNONYM>
SCHEMBL16125849

> <PUBCHEM_XREF_EXT_ID>
SCHEMBL16125849

> <PUBCHEM_EXT_DATASOURCE_URL>
https://www.surechembl.org/

> <PUBCHEM_EXT_SUBSTANCE_URL>
https://www.surechembl.org/chemical/SCHEMBL16125849

> <PUBCHEM_CID_ASSOCIATIONS>
117613396  1

> <PUBCHEM_COORDINATE_TYPE>
1
3

$$$$
