310946286
  -OEChem-07211613022D

 26 28  0     1  0  0  0  0  0999 V2000
    3.2914   -1.9763    0.0000 S   0  0  0  0  0  0  0  0  0  0  0  0
   -4.1164    1.7214    0.0000 S   0  0  0  0  0  0  0  0  0  0  0  0
    2.4664   -1.9763    0.0000 O   0  0  0  0  0  0  0  0  0  0  0  0
   -0.1293   -1.9763    0.0000 O   0  0  0  0  0  0  0  0  0  0  0  0
   -0.2604    1.4945    0.0000 O   0  0  0  0  0  0  0  0  0  0  0  0
    3.2914   -1.1513    0.0000 O   0  0  0  0  0  0  0  0  0  0  0  0
    3.2914   -2.8013    0.0000 O   0  0  0  0  0  0  0  0  0  0  0  0
    4.1164   -1.9763    0.0000 O   0  0  0  0  0  0  0  0  0  0  0  0
   -1.6893    0.6695    0.0000 O   0  0  0  0  0  0  0  0  0  0  0  0
    0.4541   -0.5680    0.0000 N   0  0  0  0  0  0  0  0  0  0  0  0
    1.8830   -1.3930    0.0000 N   0  0  0  0  0  0  0  0  0  0  0  0
   -0.9748    0.2570    0.0000 N   0  0  0  0  0  0  0  0  0  0  0  0
   -3.3318    2.8013    0.0000 N   0  0  0  0  0  0  0  0  0  0  0  0
   -3.7016    0.0862    0.0000 N   0  0  0  0  0  0  0  0  0  0  0  0
    0.4541   -1.3930    0.0000 C   0  0  0  0  0  0  0  0  0  0  0  0
    1.8830   -0.5680    0.0000 C   0  0  3  0  0  0  0  0  0  0  0  0
    0.4541    0.2570    0.0000 C   0  0  3  0  0  0  0  0  0  0  0  0
    1.1686   -0.9805    0.0000 C   0  0  0  0  0  0  0  0  0  0  0  0
    1.8830    0.2570    0.0000 C   0  0  0  0  0  0  0  0  0  0  0  0
    1.1686    0.6695    0.0000 C   0  0  0  0  0  0  0  0  0  0  0  0
   -0.2604    0.6695    0.0000 C   0  0  0  0  0  0  0  0  0  0  0  0
   -3.3318    1.4664    0.0000 C   0  0  0  0  0  0  0  0  0  0  0  0
   -3.1183    0.6695    0.0000 C   0  0  3  0  0  0  0  0  0  0  0  0
   -2.4038    0.2570    0.0000 C   0  0  0  0  0  0  0  0  0  0  0  0
   -2.8469    2.1339    0.0000 C   0  0  0  0  0  0  0  0  0  0  0  0
   -4.1164    2.5464    0.0000 C   0  0  0  0  0  0  0  0  0  0  0  0
  1  3  1  0  0  0  0
  1  6  2  0  0  0  0
  1  7  2  0  0  0  0
  1  8  1  0  0  0  0
  2 22  1  0  0  0  0
  2 26  1  0  0  0  0
  3 11  1  0  0  0  0
  4 15  2  0  0  0  0
  5 21  2  0  0  0  0
  9 12  1  0  0  0  0
  9 24  1  0  0  0  0
 10 15  1  0  0  0  0
 10 17  1  0  0  0  0
 10 18  1  0  0  0  0
 11 15  1  0  0  0  0
 11 16  1  0  0  0  0
 12 21  1  0  0  0  0
 13 25  1  0  0  0  0
 13 26  2  0  0  0  0
 14 23  1  0  0  0  0
 16 18  1  6  0  0  0
 16 19  1  0  0  0  0
 17 20  1  0  0  0  0
 17 21  1  6  0  0  0
 19 20  1  0  0  0  0
 22 23  1  0  0  0  0
 22 25  2  0  0  0  0
 23 24  1  0  0  0  0
M  END
> <PUBCHEM_COMPOUND_ID_TYPE>
0

> <PUBCHEM_TOTAL_CHARGE>
0

> <PUBCHEM_SUBSTANCE_ID>
310946286

> <PUBCHEM_SUBSTANCE_VERSION>
1

> <PUBCHEM_EXT_DATASOURCE_NAME>
4488

> <PUBCHEM_EXT_DATASOURCE_REGID>
SCHEMBL16124404

> <PUBCHEM_SUBSTANCE_COMMENT>
InChI=1S/C12H17N5O7S2/c13-8(10-3-14-6-25-10)5-23-15-11(18)9-2-1-7-4-16(9)12(19)17(7)24-26(20,21)22/h3,6-9H,1-2,4-5,13H2,(H,15,18)(H,20,21,22)/t7-,8?,9+/m1/s1
InChIKey=LIMSFCCYYRSUJW-NBXIYJJMSA-N

> <PUBCHEM_SUBSTANCE_SYNONYM>
SCHEMBL16124404

> <PUBCHEM_XREF_EXT_ID>
SCHEMBL16124404

> <PUBCHEM_EXT_DATASOURCE_URL>
https://www.surechembl.org/

> <PUBCHEM_EXT_SUBSTANCE_URL>
https://www.surechembl.org/chemical/SCHEMBL16124404

> <PUBCHEM_CID_ASSOCIATIONS>
117612234  1

> <PUBCHEM_COORDINATE_TYPE>
1
3

> <PUBCHEM_BONDANNOTATIONS>
16  18  6
17  21  6

$$$$
