310940336
  -OEChem-07211613022D

 15 16  0     1  0  0  0  0  0999 V2000
    1.6575   -0.9961    0.0000 Br  0  0  0  0  0  0  0  0  0  0  0  0
    0.9571   -2.2100    0.0000 Cl  0  0  0  0  0  0  0  0  0  0  0  0
   -0.5058    0.2801    0.0000 O   0  0  0  0  0  0  0  0  0  0  0  0
    0.2568   -1.0117    0.0000 C   0  0  0  0  0  0  0  0  0  0  0  0
   -0.4903   -0.6226    0.0000 C   0  0  0  0  0  0  0  0  0  0  0  0
    0.2412   -1.8209    0.0000 C   0  0  0  0  0  0  0  0  0  0  0  0
    0.9416   -0.6070    0.0000 C   0  0  3  0  0  0  0  0  0  0  0  0
   -1.2062   -1.0427    0.0000 C   0  0  0  0  0  0  0  0  0  0  0  0
   -0.4903   -2.2256    0.0000 C   0  0  0  0  0  0  0  0  0  0  0  0
   -1.2062    1.5096    0.0000 C   0  0  0  0  0  0  0  0  0  0  0  0
   -1.1906   -1.8365    0.0000 C   0  0  0  0  0  0  0  0  0  0  0  0
   -1.2062    0.6692    0.0000 C   0  0  0  0  0  0  0  0  0  0  0  0
   -1.6575    2.2256    0.0000 C   0  0  0  0  0  0  0  0  0  0  0  0
   -0.8326    2.2100    0.0000 C   0  0  0  0  0  0  0  0  0  0  0  0
    0.9416    0.2646    0.0000 C   0  0  0  0  0  0  0  0  0  0  0  0
  1  7  1  0  0  0  0
  2  6  1  0  0  0  0
  3  5  1  0  0  0  0
  3 12  1  0  0  0  0
  4  5  2  0  0  0  0
  4  6  1  0  0  0  0
  4  7  1  0  0  0  0
  5  8  1  0  0  0  0
  6  9  2  0  0  0  0
  7 15  1  0  0  0  0
  8 11  2  0  0  0  0
  9 11  1  0  0  0  0
 10 12  1  0  0  0  0
 10 13  1  0  0  0  0
 10 14  1  0  0  0  0
 13 14  1  0  0  0  0
M  END
> <PUBCHEM_COMPOUND_ID_TYPE>
0

> <PUBCHEM_TOTAL_CHARGE>
0

> <PUBCHEM_SUBSTANCE_ID>
310940336

> <PUBCHEM_SUBSTANCE_VERSION>
1

> <PUBCHEM_EXT_DATASOURCE_NAME>
4488

> <PUBCHEM_EXT_DATASOURCE_REGID>
SCHEMBL16118280

> <PUBCHEM_SUBSTANCE_COMMENT>
InChI=1S/C12H14BrClO/c1-8(13)12-10(14)3-2-4-11(12)15-7-9-5-6-9/h2-4,8-9H,5-7H2,1H3
InChIKey=QBCIFPHHQMZANL-UHFFFAOYSA-N

> <PUBCHEM_SUBSTANCE_SYNONYM>
SCHEMBL16118280

> <PUBCHEM_XREF_EXT_ID>
SCHEMBL16118280

> <PUBCHEM_EXT_DATASOURCE_URL>
https://www.surechembl.org/

> <PUBCHEM_EXT_SUBSTANCE_URL>
https://www.surechembl.org/chemical/SCHEMBL16118280

> <PUBCHEM_CID_ASSOCIATIONS>
117607390  1

> <PUBCHEM_COORDINATE_TYPE>
1
3

$$$$
