310931126
  -OEChem-07211613022D

 14 15  0     1  0  0  0  0  0999 V2000
    0.0000   -0.2158    0.0000 O   0  0  0  0  0  0  0  0  0  0  0  0
    3.7857   -3.9229    0.0000 O   0  0  0  0  0  0  0  0  0  0  0  0
    1.8438   -1.2554    0.0000 N   0  0  3  0  0  0  0  0  0  0  0  0
    1.4319    0.0000    0.0000 N   0  0  0  0  0  0  0  0  0  0  0  0
    2.3341   -1.9222    0.0000 C   0  0  0  0  0  0  0  0  0  0  0  0
    1.0200   -1.2554    0.0000 C   0  0  0  0  0  0  0  0  0  0  0  0
    0.7649   -0.4708    0.0000 C   0  0  0  0  0  0  0  0  0  0  0  0
    2.0988   -0.4708    0.0000 C   0  0  0  0  0  0  0  0  0  0  0  0
    3.1383   -1.8438    0.0000 C   0  0  0  0  0  0  0  0  0  0  0  0
    2.0007   -2.6872    0.0000 C   0  0  0  0  0  0  0  0  0  0  0  0
    3.2953   -3.2561    0.0000 C   0  0  0  0  0  0  0  0  0  0  0  0
    3.6288   -2.5107    0.0000 C   0  0  0  0  0  0  0  0  0  0  0  0
    2.4715   -3.3345    0.0000 C   0  0  0  0  0  0  0  0  0  0  0  0
    4.5899   -3.8445    0.0000 C   0  0  0  0  0  0  0  0  0  0  0  0
  1  7  2  0  0  0  0
  2 11  1  0  0  0  0
  2 14  1  0  0  0  0
  3  5  1  0  0  0  0
  3  6  1  0  0  0  0
  3  8  1  0  0  0  0
  4  7  1  0  0  0  0
  4  8  1  0  0  0  0
  5  9  2  0  0  0  0
  5 10  1  0  0  0  0
  6  7  1  0  0  0  0
  9 12  1  0  0  0  0
 10 13  2  0  0  0  0
 11 12  2  0  0  0  0
 11 13  1  0  0  0  0
M  END
> <PUBCHEM_COMPOUND_ID_TYPE>
0

> <PUBCHEM_TOTAL_CHARGE>
0

> <PUBCHEM_SUBSTANCE_ID>
310931126

> <PUBCHEM_SUBSTANCE_VERSION>
1

> <PUBCHEM_EXT_DATASOURCE_NAME>
4488

> <PUBCHEM_EXT_DATASOURCE_REGID>
SCHEMBL16108430

> <PUBCHEM_SUBSTANCE_COMMENT>
InChI=1S/C10H12N2O2/c1-14-9-4-2-8(3-5-9)12-6-10(13)11-7-12/h2-5H,6-7H2,1H3,(H,11,13)
InChIKey=IVPOZMCKYDWXEG-UHFFFAOYSA-N

> <PUBCHEM_SUBSTANCE_SYNONYM>
SCHEMBL16108430

> <PUBCHEM_XREF_EXT_ID>
SCHEMBL16108430

> <PUBCHEM_EXT_DATASOURCE_URL>
https://www.surechembl.org/

> <PUBCHEM_EXT_SUBSTANCE_URL>
https://www.surechembl.org/chemical/SCHEMBL16108430

> <PUBCHEM_CID_ASSOCIATIONS>
117600010  1

> <PUBCHEM_COORDINATE_TYPE>
1
3

$$$$
