310946608
  -OEChem-07211613022D

 26 26  0     1  0  0  0  0  0999 V2000
    1.8110    5.3247    0.0000 O   0  0  0  0  0  0  0  0  0  0  0  0
    3.9544    7.1661    0.0000 O   0  0  0  0  0  0  0  0  0  0  0  0
    0.5735    6.0392    0.0000 O   0  0  0  0  0  0  0  0  0  0  0  0
    3.2399    5.9286    0.0000 O   0  0  0  0  0  0  0  0  0  0  0  0
    5.6853    4.6102    0.0000 O   0  0  0  0  0  0  0  0  0  0  0  0
    6.3998    5.8477    0.0000 O   0  5  0  0  0  0  0  0  0  0  0  0
    4.9708    5.8477    0.0000 O   0  0  0  0  0  0  0  0  0  0  0  0
    1.8110    6.7536    0.0000 N   0  0  0  0  0  0  0  0  0  0  0  0
    5.6853    5.4352    0.0000 N   0  3  0  0  0  0  0  0  0  0  0  0
    2.5255    7.1661    0.0000 C   0  0  3  0  0  0  0  0  0  0  0  0
    1.3985    6.0392    0.0000 C   0  0  0  0  0  0  0  0  0  0  0  0
    3.2399    6.7536    0.0000 C   0  0  0  0  0  0  0  0  0  0  0  0
    1.0965    7.1661    0.0000 C   0  0  0  0  0  0  0  0  0  0  0  0
    2.5255    7.9911    0.0000 C   0  0  0  0  0  0  0  0  0  0  0  0
    1.0965    7.9911    0.0000 C   0  0  0  0  0  0  0  0  0  0  0  0
    1.3985    4.6102    0.0000 C   0  0  0  0  0  0  0  0  0  0  0  0
    4.6689    6.7536    0.0000 C   0  0  0  0  0  0  0  0  0  0  0  0
    2.1130    4.1977    0.0000 C   0  0  0  0  0  0  0  0  0  0  0  0
    5.3834    7.1661    0.0000 C   0  0  0  0  0  0  0  0  0  0  0  0
    2.8274    4.6102    0.0000 C   0  0  0  0  0  0  0  0  0  0  0  0
    6.0978    6.7536    0.0000 C   0  0  0  0  0  0  0  0  0  0  0  0
    3.5419    4.1977    0.0000 C   0  0  0  0  0  0  0  0  0  0  0  0
    4.2564    4.6102    0.0000 C   0  0  0  0  0  0  0  0  0  0  0  0
    4.9708    4.1977    0.0000 C   0  0  0  0  0  0  0  0  0  0  0  0
    6.8123    7.1661    0.0000 C   0  0  0  0  0  0  0  0  0  0  0  0
    7.5268    6.7536    0.0000 C   0  0  0  0  0  0  0  0  0  0  0  0
  1 11  1  0  0  0  0
  1 16  1  0  0  0  0
  2 12  1  0  0  0  0
  2 17  1  0  0  0  0
  3 11  2  0  0  0  0
  4 12  2  0  0  0  0
  5  9  1  0  0  0  0
  5 24  1  0  0  0  0
  6  9  1  0  0  0  0
  7  9  2  0  0  0  0
  8 10  1  0  0  0  0
  8 11  1  0  0  0  0
  8 13  1  0  0  0  0
 10 12  1  0  0  0  0
 10 14  1  0  0  0  0
 13 15  1  0  0  0  0
 14 15  1  0  0  0  0
 16 18  1  0  0  0  0
 17 19  1  0  0  0  0
 18 20  1  0  0  0  0
 19 21  1  0  0  0  0
 20 22  1  0  0  0  0
 21 25  1  0  0  0  0
 22 23  1  0  0  0  0
 23 24  1  0  0  0  0
 25 26  1  0  0  0  0
M  CHG  2   6  -1   9   1
M  END
> <PUBCHEM_COMPOUND_ID_TYPE>
0

> <PUBCHEM_TOTAL_CHARGE>
0

> <PUBCHEM_SUBSTANCE_ID>
310946608

> <PUBCHEM_SUBSTANCE_VERSION>
1

> <PUBCHEM_EXT_DATASOURCE_NAME>
4488

> <PUBCHEM_EXT_DATASOURCE_REGID>
SCHEMBL16124729

> <PUBCHEM_SUBSTANCE_COMMENT>
InChI=1S/C17H30N2O7/c1-2-3-6-12-24-16(20)15-10-9-11-18(15)17(21)25-13-7-4-5-8-14-26-19(22)23/h15H,2-14H2,1H3
InChIKey=FRCCMKOTUOKZPI-UHFFFAOYSA-N

> <PUBCHEM_SUBSTANCE_SYNONYM>
SCHEMBL16124729

> <PUBCHEM_XREF_EXT_ID>
SCHEMBL16124729

> <PUBCHEM_EXT_DATASOURCE_URL>
https://www.surechembl.org/

> <PUBCHEM_EXT_SUBSTANCE_URL>
https://www.surechembl.org/chemical/SCHEMBL16124729

> <PUBCHEM_CID_ASSOCIATIONS>
117612508  1

> <PUBCHEM_COORDINATE_TYPE>
1
3

$$$$
