310946418
  -OEChem-07211613022D

 21 20  0     1  0  0  0  0  0999 V2000
    1.3885    3.2936    0.0000 O   0  0  0  0  0  0  0  0  0  0  0  0
    2.8174    4.1186    0.0000 O   0  0  0  0  0  0  0  0  0  0  0  0
    2.1030    2.0561    0.0000 O   0  5  0  0  0  0  0  0  0  0  0  0
    2.8174    3.2936    0.0000 O   0  0  0  0  0  0  0  0  0  0  0  0
    4.2464    4.1186    0.0000 O   0  5  0  0  0  0  0  0  0  0  0  0
    3.5319    5.3561    0.0000 O   0  0  0  0  0  0  0  0  0  0  0  0
    2.1030    2.8811    0.0000 N   0  3  0  0  0  0  0  0  0  0  0  0
    3.5319    4.5311    0.0000 N   0  3  0  0  0  0  0  0  0  0  0  0
    1.3885    4.1186    0.0000 C   0  0  3  0  0  0  0  0  0  0  0  0
    2.1030    4.5311    0.0000 C   0  0  0  0  0  0  0  0  0  0  0  0
    0.6740    4.5311    0.0000 C   0  0  0  0  0  0  0  0  0  0  0  0
   -0.0405    4.1186    0.0000 C   0  0  0  0  0  0  0  0  0  0  0  0
   -2.1839    4.5311    0.0000 C   0  0  0  0  0  0  0  0  0  0  0  0
   -0.7549    4.5311    0.0000 C   0  0  0  0  0  0  0  0  0  0  0  0
   -1.4694    4.1186    0.0000 C   0  0  0  0  0  0  0  0  0  0  0  0
   -3.0089    4.5311    0.0000 C   0  0  0  0  0  0  0  0  0  0  0  0
   -1.7714    5.2455    0.0000 C   0  0  0  0  0  0  0  0  0  0  0  0
   -3.4214    3.8166    0.0000 C   0  0  0  0  0  0  0  0  0  0  0  0
   -0.9464    5.2455    0.0000 C   0  0  0  0  0  0  0  0  0  0  0  0
   -4.2464    3.8166    0.0000 C   0  0  0  0  0  0  0  0  0  0  0  0
   -0.5339    5.9600    0.0000 C   0  0  0  0  0  0  0  0  0  0  0  0
  1  7  1  0  0  0  0
  1  9  1  0  0  0  0
  2  8  1  0  0  0  0
  2 10  1  0  0  0  0
  3  7  1  0  0  0  0
  4  7  2  0  0  0  0
  5  8  1  0  0  0  0
  6  8  2  0  0  0  0
  9 10  1  0  0  0  0
  9 11  1  0  0  0  0
 11 12  1  0  0  0  0
 12 14  1  0  0  0  0
 13 15  1  0  0  0  0
 13 16  1  0  0  0  0
 13 17  1  0  0  0  0
 14 15  1  0  0  0  0
 16 18  1  0  0  0  0
 17 19  1  0  0  0  0
 18 20  1  0  0  0  0
 19 21  1  0  0  0  0
M  CHG  4   3  -1   5  -1   7   1   8   1
M  END
> <PUBCHEM_COMPOUND_ID_TYPE>
0

> <PUBCHEM_TOTAL_CHARGE>
0

> <PUBCHEM_SUBSTANCE_ID>
310946418

> <PUBCHEM_SUBSTANCE_VERSION>
1

> <PUBCHEM_EXT_DATASOURCE_NAME>
4488

> <PUBCHEM_EXT_DATASOURCE_REGID>
SCHEMBL16124539

> <PUBCHEM_SUBSTANCE_COMMENT>
InChI=1S/C13H26N2O6/c1-3-7-12(8-4-2)9-5-6-10-13(21-15(18)19)11-20-14(16)17/h12-13H,3-11H2,1-2H3
InChIKey=ZZCBHZUBRCHYSZ-UHFFFAOYSA-N

> <PUBCHEM_SUBSTANCE_SYNONYM>
SCHEMBL16124539

> <PUBCHEM_XREF_EXT_ID>
SCHEMBL16124539

> <PUBCHEM_EXT_DATASOURCE_URL>
https://www.surechembl.org/

> <PUBCHEM_EXT_SUBSTANCE_URL>
https://www.surechembl.org/chemical/SCHEMBL16124539

> <PUBCHEM_CID_ASSOCIATIONS>
117612331  1

> <PUBCHEM_COORDINATE_TYPE>
1
3

$$$$
