310932999
  -OEChem-07211613022D

 19 20  0     1  0  0  0  0  0999 V2000
    2.7579   -1.6028    0.0000 O   0  0  0  0  0  0  0  0  0  0  0  0
    3.8892   -3.5593    0.0000 O   0  0  0  0  0  0  0  0  0  0  0  0
    4.5964   -2.3336    0.0000 O   0  0  0  0  0  0  0  0  0  0  0  0
    2.3572   -2.3336    0.0000 C   0  0  3  0  0  0  0  0  0  0  0  0
    3.1822   -2.3336    0.0000 C   0  0  3  0  0  0  0  0  0  0  0  0
    1.7678   -1.7443    0.0000 C   0  0  0  0  0  0  0  0  0  0  0  0
    3.8892   -2.7343    0.0000 C   0  0  0  0  0  0  0  0  0  0  0  0
    1.6264   -2.7343    0.0000 C   0  0  0  0  0  0  0  0  0  0  0  0
    0.9428   -1.9564    0.0000 C   0  0  0  0  0  0  0  0  0  0  0  0
    1.9564   -0.9428    0.0000 C   0  0  0  0  0  0  0  0  0  0  0  0
    4.5964   -3.9836    0.0000 C   0  0  0  0  0  0  0  0  0  0  0  0
    0.3771   -1.3907    0.0000 C   0  0  0  0  0  0  0  0  0  0  0  0
    1.3907   -0.3771    0.0000 C   0  0  0  0  0  0  0  0  0  0  0  0
    1.6264   -3.5593    0.0000 C   0  0  0  0  0  0  0  0  0  0  0  0
    0.5893   -0.5893    0.0000 C   0  0  0  0  0  0  0  0  0  0  0  0
    4.1721   -4.7142    0.0000 C   0  0  0  0  0  0  0  0  0  0  0  0
    5.3035   -4.3843    0.0000 C   0  0  0  0  0  0  0  0  0  0  0  0
    4.9971   -3.2764    0.0000 C   0  0  0  0  0  0  0  0  0  0  0  0
    0.0000    0.0000    0.0000 C   0  0  0  0  0  0  0  0  0  0  0  0
  1  4  1  0  0  0  0
  1  5  1  0  0  0  0
  2  7  1  0  0  0  0
  2 11  1  0  0  0  0
  3  7  2  0  0  0  0
  4  5  1  0  0  0  0
  4  6  1  0  0  0  0
  4  8  1  0  0  0  0
  5  7  1  0  0  0  0
  6  9  2  0  0  0  0
  6 10  1  0  0  0  0
  8 14  1  0  0  0  0
  9 12  1  0  0  0  0
 10 13  2  0  0  0  0
 11 16  1  0  0  0  0
 11 17  1  0  0  0  0
 11 18  1  0  0  0  0
 12 15  2  0  0  0  0
 13 15  1  0  0  0  0
 15 19  1  0  0  0  0
M  END
> <PUBCHEM_COMPOUND_ID_TYPE>
0

> <PUBCHEM_TOTAL_CHARGE>
0

> <PUBCHEM_SUBSTANCE_ID>
310932999

> <PUBCHEM_SUBSTANCE_VERSION>
1

> <PUBCHEM_EXT_DATASOURCE_NAME>
4488

> <PUBCHEM_EXT_DATASOURCE_REGID>
SCHEMBL16110397

> <PUBCHEM_SUBSTANCE_COMMENT>
InChI=1S/C16H22O3/c1-6-16(12-9-7-11(2)8-10-12)13(18-16)14(17)19-15(3,4)5/h7-10,13H,6H2,1-5H3
InChIKey=OFEVXGHEWYQMCO-UHFFFAOYSA-N

> <PUBCHEM_SUBSTANCE_SYNONYM>
SCHEMBL16110397

> <PUBCHEM_XREF_EXT_ID>
SCHEMBL16110397

> <PUBCHEM_EXT_DATASOURCE_URL>
https://www.surechembl.org/

> <PUBCHEM_EXT_SUBSTANCE_URL>
https://www.surechembl.org/chemical/SCHEMBL16110397

> <PUBCHEM_CID_ASSOCIATIONS>
12750056  1

> <PUBCHEM_COORDINATE_TYPE>
1
3

$$$$
