310938729
  -OEChem-07211613022D

 52 61  0     1  0  0  0  0  0999 V2000
    4.9218  -16.5826    0.0000 N   0  0  0  0  0  0  0  0  0  0  0  0
   14.4878  -17.8870    0.0000 N   0  0  0  0  0  0  0  0  0  0  0  0
   14.4878  -19.2218    0.0000 N   0  0  0  0  0  0  0  0  0  0  0  0
    5.7287  -16.4110    0.0000 C   0  0  0  0  0  0  0  0  0  0  0  0
    6.1412  -17.1254    0.0000 C   0  0  0  0  0  0  0  0  0  0  0  0
    4.8355  -17.4030    0.0000 C   0  0  0  0  0  0  0  0  0  0  0  0
    5.5893  -17.7385    0.0000 C   0  0  0  0  0  0  0  0  0  0  0  0
    4.5093  -15.8682    0.0000 C   0  0  0  0  0  0  0  0  0  0  0  0
    6.9662  -17.1254    0.0000 C   0  0  0  0  0  0  0  0  0  0  0  0
    7.3787  -16.4110    0.0000 C   0  0  0  0  0  0  0  0  0  0  0  0
    6.1412  -15.6965    0.0000 C   0  0  0  0  0  0  0  0  0  0  0  0
   14.0030  -18.5544    0.0000 C   0  0  0  0  0  0  0  0  0  0  0  0
    4.1682  -17.8879    0.0000 C   0  0  0  0  0  0  0  0  0  0  0  0
    5.6755  -18.5590    0.0000 C   0  0  0  0  0  0  0  0  0  0  0  0
   15.2725  -18.1419    0.0000 C   0  0  3  0  0  0  0  0  0  0  0  0
    6.9662  -15.6965    0.0000 C   0  0  0  0  0  0  0  0  0  0  0  0
   15.2725  -18.9669    0.0000 C   0  0  3  0  0  0  0  0  0  0  0  0
    8.1053  -16.4110    0.0000 C   0  0  0  0  0  0  0  0  0  0  0  0
   13.3552  -18.5544    0.0000 C   0  0  0  0  0  0  0  0  0  0  0  0
   14.2743  -17.0901    0.0000 C   0  0  0  0  0  0  0  0  0  0  0  0
    4.9218  -15.1537    0.0000 C   0  0  0  0  0  0  0  0  0  0  0  0
    3.6843  -15.8682    0.0000 C   0  0  0  0  0  0  0  0  0  0  0  0
    4.2545  -18.7084    0.0000 C   0  0  0  0  0  0  0  0  0  0  0  0
    5.0080  -19.0439    0.0000 C   0  0  0  0  0  0  0  0  0  0  0  0
   15.9870  -17.7294    0.0000 C   0  0  0  0  0  0  0  0  0  0  0  0
    8.5178  -17.1254    0.0000 C   0  0  0  0  0  0  0  0  0  0  0  0
    9.3428  -17.1254    0.0000 C   0  0  0  0  0  0  0  0  0  0  0  0
   15.9870  -19.3794    0.0000 C   0  0  0  0  0  0  0  0  0  0  0  0
    8.5178  -15.6965    0.0000 C   0  0  0  0  0  0  0  0  0  0  0  0
   12.9427  -19.2688    0.0000 C   0  0  0  0  0  0  0  0  0  0  0  0
   12.9427  -17.8399    0.0000 C   0  0  0  0  0  0  0  0  0  0  0  0
   11.7052  -18.5544    0.0000 C   0  0  0  0  0  0  0  0  0  0  0  0
    9.7553  -17.8399    0.0000 C   0  0  0  0  0  0  0  0  0  0  0  0
   10.9928  -18.5544    0.0000 C   0  0  0  0  0  0  0  0  0  0  0  0
   14.8577  -16.5067    0.0000 C   0  0  0  0  0  0  0  0  0  0  0  0
   13.4775  -16.8766    0.0000 C   0  0  0  0  0  0  0  0  0  0  0  0
    4.5093  -14.4392    0.0000 C   0  0  0  0  0  0  0  0  0  0  0  0
    3.2718  -15.1537    0.0000 C   0  0  0  0  0  0  0  0  0  0  0  0
   12.1177  -19.2688    0.0000 C   0  0  0  0  0  0  0  0  0  0  0  0
   12.1177  -17.8399    0.0000 C   0  0  0  0  0  0  0  0  0  0  0  0
   16.7015  -18.1419    0.0000 C   0  0  0  0  0  0  0  0  0  0  0  0
   16.7015  -18.9669    0.0000 C   0  0  0  0  0  0  0  0  0  0  0  0
   10.5803  -17.8399    0.0000 C   0  0  0  0  0  0  0  0  0  0  0  0
    9.7553  -16.4110    0.0000 C   0  0  0  0  0  0  0  0  0  0  0  0
    9.3428  -15.6965    0.0000 C   0  0  0  0  0  0  0  0  0  0  0  0
    3.6843  -14.4392    0.0000 C   0  0  0  0  0  0  0  0  0  0  0  0
    9.3428  -18.5544    0.0000 C   0  0  0  0  0  0  0  0  0  0  0  0
   10.5803  -19.2688    0.0000 C   0  0  0  0  0  0  0  0  0  0  0  0
   14.6442  -15.7099    0.0000 C   0  0  0  0  0  0  0  0  0  0  0  0
   13.2640  -16.0796    0.0000 C   0  0  0  0  0  0  0  0  0  0  0  0
    9.7553  -19.2688    0.0000 C   0  0  0  0  0  0  0  0  0  0  0  0
   13.8473  -15.4964    0.0000 C   0  0  0  0  0  0  0  0  0  0  0  0
  1  4  1  0  0  0  0
  1  6  1  0  0  0  0
  1  8  1  0  0  0  0
  2 12  1  0  0  0  0
  2 15  1  0  0  0  0
  2 20  1  0  0  0  0
  3 12  2  0  0  0  0
  3 17  1  0  0  0  0
  4  5  1  0  0  0  0
  4 11  2  0  0  0  0
  5  7  1  0  0  0  0
  5  9  2  0  0  0  0
  6  7  1  0  0  0  0
  6 13  2  0  0  0  0
  7 14  2  0  0  0  0
  8 21  2  0  0  0  0
  8 22  1  0  0  0  0
  9 10  1  0  0  0  0
 10 16  2  0  0  0  0
 10 18  1  0  0  0  0
 11 16  1  0  0  0  0
 12 19  1  0  0  0  0
 13 23  1  0  0  0  0
 14 24  1  0  0  0  0
 15 17  1  0  0  0  0
 15 25  1  0  0  0  0
 17 28  1  0  0  0  0
 18 26  1  0  0  0  0
 18 29  2  0  0  0  0
 19 30  2  0  0  0  0
 19 31  1  0  0  0  0
 20 35  2  0  0  0  0
 20 36  1  0  0  0  0
 21 37  1  0  0  0  0
 22 38  2  0  0  0  0
 23 24  2  0  0  0  0
 25 41  1  0  0  0  0
 26 27  2  0  0  0  0
 27 33  1  0  0  0  0
 27 44  1  0  0  0  0
 28 42  1  0  0  0  0
 29 45  1  0  0  0  0
 30 39  1  0  0  0  0
 31 40  2  0  0  0  0
 32 34  1  0  0  0  0
 32 39  2  0  0  0  0
 32 40  1  0  0  0  0
 33 43  1  0  0  0  0
 33 47  2  0  0  0  0
 34 43  2  0  0  0  0
 34 48  1  0  0  0  0
 35 49  1  0  0  0  0
 36 50  2  0  0  0  0
 37 46  2  0  0  0  0
 38 46  1  0  0  0  0
 41 42  1  0  0  0  0
 44 45  2  0  0  0  0
 47 51  1  0  0  0  0
 48 51  2  0  0  0  0
 49 52  2  0  0  0  0
 50 52  1  0  0  0  0
M  END
> <PUBCHEM_COMPOUND_ID_TYPE>
0

> <PUBCHEM_TOTAL_CHARGE>
0

> <PUBCHEM_SUBSTANCE_ID>
310938729

> <PUBCHEM_SUBSTANCE_VERSION>
1

> <PUBCHEM_EXT_DATASOURCE_NAME>
4488

> <PUBCHEM_EXT_DATASOURCE_REGID>
SCHEMBL16116644

> <PUBCHEM_SUBSTANCE_COMMENT>
InChI=1S/C49H39N3/c1-3-17-41(18-4-1)51-46-23-9-7-21-43(46)44-33-40(29-30-47(44)51)39-16-12-15-38(32-39)37-14-11-13-36(31-37)34-25-27-35(28-26-34)49-50-45-22-8-10-24-48(45)52(49)42-19-5-2-6-20-42/h1-7,9,11-21,23,25-33,45,48H,8,10,22,24H2
InChIKey=XAUYFXWYAKSIPD-UHFFFAOYSA-N

> <PUBCHEM_SUBSTANCE_SYNONYM>
SCHEMBL16116644

> <PUBCHEM_XREF_EXT_ID>
SCHEMBL16116644

> <PUBCHEM_EXT_DATASOURCE_URL>
https://www.surechembl.org/

> <PUBCHEM_EXT_SUBSTANCE_URL>
https://www.surechembl.org/chemical/SCHEMBL16116644

> <PUBCHEM_CID_ASSOCIATIONS>
117606151  1

> <PUBCHEM_COORDINATE_TYPE>
1
3

$$$$
