310931986
  -OEChem-07211613022D

 30 32  0     1  0  0  0  0  0999 V2000
    4.0546   -2.1340    0.0000 O   0  0  0  0  0  0  0  0  0  0  0  0
    8.5359   -2.2051    0.0000 O   0  0  0  0  0  0  0  0  0  0  0  0
    9.9586   -3.8767    0.0000 O   0  0  0  0  0  0  0  0  0  0  0  0
    4.9437   -0.9958    0.0000 N   0  0  0  0  0  0  0  0  0  0  0  0
    4.8726   -0.1422    0.0000 N   0  0  0  0  0  0  0  0  0  0  0  0
    6.3664   -0.9958    0.0000 N   0  0  0  0  0  0  0  0  0  0  0  0
    7.8246   -3.4499    0.0000 N   0  0  0  0  0  0  0  0  0  0  0  0
    0.0000   -1.8494    0.0000 N   0  0  0  0  0  0  0  0  0  0  0  0
    4.1968   -1.3159    0.0000 C   0  0  0  0  0  0  0  0  0  0  0  0
    3.6278   -0.7114    0.0000 C   0  0  0  0  0  0  0  0  0  0  0  0
    5.6550   -1.3871    0.0000 C   0  0  0  0  0  0  0  0  0  0  0  0
    2.8098   -0.8180    0.0000 C   0  0  0  0  0  0  0  0  0  0  0  0
    4.0546    0.0000    0.0000 C   0  0  0  0  0  0  0  0  0  0  0  0
    5.6550   -2.2051    0.0000 C   0  0  0  0  0  0  0  0  0  0  0  0
    7.0777   -2.2051    0.0000 C   0  0  0  0  0  0  0  0  0  0  0  0
    7.0777   -1.3871    0.0000 C   0  0  0  0  0  0  0  0  0  0  0  0
    6.3664   -2.6319    0.0000 C   0  0  0  0  0  0  0  0  0  0  0  0
    2.4897   -1.5649    0.0000 C   0  0  0  0  0  0  0  0  0  0  0  0
    2.3118   -0.1422    0.0000 C   0  0  0  0  0  0  0  0  0  0  0  0
    7.8246   -2.6319    0.0000 C   0  0  0  0  0  0  0  0  0  0  0  0
    1.1737   -0.9958    0.0000 C   0  0  0  0  0  0  0  0  0  0  0  0
    1.6716   -1.6716    0.0000 C   0  0  0  0  0  0  0  0  0  0  0  0
    1.4938   -0.2490    0.0000 C   0  0  0  0  0  0  0  0  0  0  0  0
    8.5359   -3.8767    0.0000 C   0  0  3  0  0  0  0  0  0  0  0  0
    8.5359   -4.6947    0.0000 C   0  0  0  0  0  0  0  0  0  0  0  0
    0.3557   -1.1026    0.0000 C   0  0  0  0  0  0  0  0  0  0  0  0
    9.2472   -3.4499    0.0000 C   0  0  0  0  0  0  0  0  0  0  0  0
    7.8246   -5.1215    0.0000 C   0  0  0  0  0  0  0  0  0  0  0  0
    9.2472   -5.0860    0.0000 C   0  0  0  0  0  0  0  0  0  0  0  0
   10.6699   -3.4499    0.0000 C   0  0  0  0  0  0  0  0  0  0  0  0
  1  9  1  0  0  0  0
  2 20  2  0  0  0  0
  3 27  1  0  0  0  0
  3 30  1  0  0  0  0
  4  5  1  0  0  0  0
  4  9  1  0  0  0  0
  4 11  1  0  0  0  0
  5 13  2  0  0  0  0
  6 11  2  0  0  0  0
  6 16  1  0  0  0  0
  7 20  1  0  0  0  0
  7 24  1  0  0  0  0
  8 26  3  0  0  0  0
  9 10  2  0  0  0  0
 10 12  1  0  0  0  0
 10 13  1  0  0  0  0
 11 14  1  0  0  0  0
 12 18  2  0  0  0  0
 12 19  1  0  0  0  0
 14 17  2  0  0  0  0
 15 16  2  0  0  0  0
 15 17  1  0  0  0  0
 15 20  1  0  0  0  0
 18 22  1  0  0  0  0
 19 23  2  0  0  0  0
 21 22  2  0  0  0  0
 21 23  1  0  0  0  0
 21 26  1  0  0  0  0
 24 25  1  0  0  0  0
 24 27  1  0  0  0  0
 25 28  1  0  0  0  0
 25 29  1  0  0  0  0
M  END
> <PUBCHEM_COMPOUND_ID_TYPE>
0

> <PUBCHEM_TOTAL_CHARGE>
0

> <PUBCHEM_SUBSTANCE_ID>
310931986

> <PUBCHEM_SUBSTANCE_VERSION>
1

> <PUBCHEM_EXT_DATASOURCE_NAME>
4488

> <PUBCHEM_EXT_DATASOURCE_REGID>
SCHEMBL16109326

> <PUBCHEM_SUBSTANCE_COMMENT>
InChI=1S/C22H23N5O3/c1-14(2)19(13-30-3)26-21(28)17-8-9-20(24-11-17)27-22(29)18(12-25-27)16-6-4-15(10-23)5-7-16/h4-9,11-12,14,19,29H,13H2,1-3H3,(H,26,28)
InChIKey=UDJLOSWVNYFMKB-UHFFFAOYSA-N

> <PUBCHEM_SUBSTANCE_SYNONYM>
SCHEMBL16109326

> <PUBCHEM_XREF_EXT_ID>
SCHEMBL16109326

> <PUBCHEM_EXT_DATASOURCE_URL>
https://www.surechembl.org/

> <PUBCHEM_EXT_SUBSTANCE_URL>
https://www.surechembl.org/chemical/SCHEMBL16109326

> <PUBCHEM_CID_ASSOCIATIONS>
117600629  1

> <PUBCHEM_COORDINATE_TYPE>
1
3

$$$$
