310936636
  -OEChem-07211613022D

 24 25  0     1  0  0  0  0  0999 V2000
    1.4122   -4.0933    0.0000 O   0  0  0  0  0  0  0  0  0  0  0  0
    2.1285   -2.8653    0.0000 O   0  0  0  0  0  0  0  0  0  0  0  0
    0.0000   -2.4559    0.0000 O   0  0  0  0  0  0  0  0  0  0  0  0
    0.0000   -4.0933    0.0000 O   0  0  0  0  0  0  0  0  0  0  0  0
    3.5407   -2.8653    0.0000 O   0  0  0  0  0  0  0  0  0  0  0  0
    0.7164   -2.8653    0.0000 C   0  0  0  0  0  0  0  0  0  0  0  0
    0.6959   -3.6840    0.0000 C   0  0  0  0  0  0  0  0  0  0  0  0
    1.4326   -2.4559    0.0000 C   0  0  0  0  0  0  0  0  0  0  0  0
    2.1285   -3.6840    0.0000 C   0  0  3  0  0  0  0  0  0  0  0  0
    3.0085   -2.6197    0.0000 C   0  0  0  0  0  0  0  0  0  0  0  0
    3.0085   -1.8010    0.0000 C   0  0  0  0  0  0  0  0  0  0  0  0
    1.4326   -1.6373    0.0000 C   0  0  0  0  0  0  0  0  0  0  0  0
    2.2922   -3.0290    0.0000 C   0  0  0  0  0  0  0  0  0  0  0  0
    2.8448   -4.0933    0.0000 C   0  0  0  0  0  0  0  0  0  0  0  0
    3.5611   -1.2280    0.0000 C   0  0  0  0  0  0  0  0  0  0  0  0
    2.2922   -1.3917    0.0000 C   0  0  0  0  0  0  0  0  0  0  0  0
    2.1490   -1.2280    0.0000 C   0  0  0  0  0  0  0  0  0  0  0  0
    2.8448   -2.4764    0.0000 C   0  0  0  0  0  0  0  0  0  0  0  0
    3.5611   -0.4093    0.0000 C   0  0  0  0  0  0  0  0  0  0  0  0
    2.1285   -0.4093    0.0000 C   0  0  0  0  0  0  0  0  0  0  0  0
    2.8653   -1.6578    0.0000 C   0  0  0  0  0  0  0  0  0  0  0  0
    2.8448    0.0000    0.0000 C   0  0  0  0  0  0  0  0  0  0  0  0
    3.5407   -3.6840    0.0000 C   0  0  0  0  0  0  0  0  0  0  0  0
    4.2570   -4.0933    0.0000 C   0  0  0  0  0  0  0  0  0  0  0  0
  1  7  1  0  0  0  0
  1  9  1  0  0  0  0
  2  9  1  0  0  0  0
  2 10  1  0  0  0  0
  3  6  2  0  0  0  0
  4  7  2  0  0  0  0
  5 10  2  0  0  0  0
  6  7  1  0  0  0  0
  6  8  1  0  0  0  0
  8 12  2  0  0  0  0
  8 13  1  0  0  0  0
  9 14  1  0  0  0  0
 10 11  1  0  0  0  0
 11 15  2  0  0  0  0
 11 16  1  0  0  0  0
 12 17  1  0  0  0  0
 13 18  2  0  0  0  0
 14 23  1  0  0  0  0
 15 19  1  0  0  0  0
 16 20  2  0  0  0  0
 17 21  2  0  0  0  0
 18 21  1  0  0  0  0
 19 22  2  0  0  0  0
 20 22  1  0  0  0  0
 23 24  1  0  0  0  0
M  END
> <PUBCHEM_COMPOUND_ID_TYPE>
0

> <PUBCHEM_TOTAL_CHARGE>
0

> <PUBCHEM_SUBSTANCE_ID>
310936636

> <PUBCHEM_SUBSTANCE_VERSION>
1

> <PUBCHEM_EXT_DATASOURCE_NAME>
4488

> <PUBCHEM_EXT_DATASOURCE_REGID>
SCHEMBL16114298

> <PUBCHEM_SUBSTANCE_COMMENT>
InChI=1S/C19H18O5/c1-2-9-16(23-18(21)15-12-7-4-8-13-15)24-19(22)17(20)14-10-5-3-6-11-14/h3-8,10-13,16H,2,9H2,1H3
InChIKey=RPMGYPIXWJUCRM-UHFFFAOYSA-N

> <PUBCHEM_SUBSTANCE_SYNONYM>
SCHEMBL16114298

> <PUBCHEM_XREF_EXT_ID>
SCHEMBL16114298

> <PUBCHEM_EXT_DATASOURCE_URL>
https://www.surechembl.org/

> <PUBCHEM_EXT_SUBSTANCE_URL>
https://www.surechembl.org/chemical/SCHEMBL16114298

> <PUBCHEM_CID_ASSOCIATIONS>
117604550  1

> <PUBCHEM_COORDINATE_TYPE>
1
3

$$$$
