310936376
  -OEChem-07211613022D

 29 31  0     1  0  0  0  0  0999 V2000
    2.8685   -1.6486    0.0000 S   0  0  0  0  0  0  0  0  0  0  0  0
    4.2864   -4.0885    0.0000 S   0  0  0  0  0  0  0  0  0  0  0  0
    2.1431   -2.0443    0.0000 O   0  0  0  0  0  0  0  0  0  0  0  0
    4.2864   -3.2642    0.0000 O   0  0  0  0  0  0  0  0  0  0  0  0
    2.4069   -0.8573    0.0000 O   0  0  0  0  0  0  0  0  0  0  0  0
    3.2642   -2.3081    0.0000 O   0  0  0  0  0  0  0  0  0  0  0  0
    5.1766   -4.0885    0.0000 O   0  0  0  0  0  0  0  0  0  0  0  0
    3.4950   -4.0885    0.0000 O   0  0  0  0  0  0  0  0  0  0  0  0
    3.5610   -1.2200    0.0000 C   0  0  0  0  0  0  0  0  0  0  0  0
    2.1431   -2.8685    0.0000 C   0  0  3  0  0  0  0  0  0  0  0  0
    1.4178   -3.2642    0.0000 C   0  0  0  0  0  0  0  0  0  0  0  0
    4.2864   -4.9128    0.0000 C   0  0  0  0  0  0  0  0  0  0  0  0
    2.8685   -3.2642    0.0000 C   0  0  0  0  0  0  0  0  0  0  0  0
    3.5939   -0.3956    0.0000 C   0  0  0  0  0  0  0  0  0  0  0  0
    4.3193   -1.6156    0.0000 C   0  0  0  0  0  0  0  0  0  0  0  0
    3.5610   -2.8685    0.0000 C   0  0  0  0  0  0  0  0  0  0  0  0
    1.4178   -4.1215    0.0000 C   0  0  0  0  0  0  0  0  0  0  0  0
    0.7254   -2.8685    0.0000 C   0  0  0  0  0  0  0  0  0  0  0  0
    4.9787   -5.3744    0.0000 C   0  0  0  0  0  0  0  0  0  0  0  0
    3.5610   -5.3744    0.0000 C   0  0  0  0  0  0  0  0  0  0  0  0
    4.2864    0.0000    0.0000 C   0  0  0  0  0  0  0  0  0  0  0  0
    4.9787   -1.2200    0.0000 C   0  0  0  0  0  0  0  0  0  0  0  0
    5.0117   -0.3956    0.0000 C   0  0  0  0  0  0  0  0  0  0  0  0
    4.9787   -6.1658    0.0000 C   0  0  0  0  0  0  0  0  0  0  0  0
    3.5610   -6.1658    0.0000 C   0  0  0  0  0  0  0  0  0  0  0  0
    0.7254   -4.5171    0.0000 C   0  0  0  0  0  0  0  0  0  0  0  0
    0.0000   -3.2642    0.0000 C   0  0  0  0  0  0  0  0  0  0  0  0
    4.2864   -6.5944    0.0000 C   0  0  0  0  0  0  0  0  0  0  0  0
    0.0000   -4.0885    0.0000 C   0  0  0  0  0  0  0  0  0  0  0  0
  1  3  1  0  0  0  0
  1  5  2  0  0  0  0
  1  6  2  0  0  0  0
  1  9  1  0  0  0  0
  2  4  1  0  0  0  0
  2  7  2  0  0  0  0
  2  8  2  0  0  0  0
  2 12  1  0  0  0  0
  3 10  1  0  0  0  0
  4 16  1  0  0  0  0
  9 14  2  0  0  0  0
  9 15  1  0  0  0  0
 10 11  1  0  0  0  0
 10 13  1  0  0  0  0
 11 17  2  0  0  0  0
 11 18  1  0  0  0  0
 12 19  2  0  0  0  0
 12 20  1  0  0  0  0
 13 16  1  0  0  0  0
 14 21  1  0  0  0  0
 15 22  2  0  0  0  0
 17 26  1  0  0  0  0
 18 27  2  0  0  0  0
 19 24  1  0  0  0  0
 20 25  2  0  0  0  0
 21 23  2  0  0  0  0
 22 23  1  0  0  0  0
 24 28  2  0  0  0  0
 25 28  1  0  0  0  0
 26 29  2  0  0  0  0
 27 29  1  0  0  0  0
M  END
> <PUBCHEM_COMPOUND_ID_TYPE>
0

> <PUBCHEM_TOTAL_CHARGE>
0

> <PUBCHEM_SUBSTANCE_ID>
310936376

> <PUBCHEM_SUBSTANCE_VERSION>
1

> <PUBCHEM_EXT_DATASOURCE_NAME>
4488

> <PUBCHEM_EXT_DATASOURCE_REGID>
SCHEMBL16114013

> <PUBCHEM_SUBSTANCE_COMMENT>
InChI=1S/C21H20O6S2/c22-28(23,19-12-6-2-7-13-19)26-17-16-21(18-10-4-1-5-11-18)27-29(24,25)20-14-8-3-9-15-20/h1-15,21H,16-17H2
InChIKey=CKXSZFSCIQOGBD-UHFFFAOYSA-N

> <PUBCHEM_SUBSTANCE_SYNONYM>
SCHEMBL16114013

> <PUBCHEM_XREF_EXT_ID>
SCHEMBL16114013

> <PUBCHEM_EXT_DATASOURCE_URL>
https://www.surechembl.org/

> <PUBCHEM_EXT_SUBSTANCE_URL>
https://www.surechembl.org/chemical/SCHEMBL16114013

> <PUBCHEM_CID_ASSOCIATIONS>
117604318  1

> <PUBCHEM_COORDINATE_TYPE>
1
3

$$$$
