310948361
  -OEChem-07211613022D

 17 18  0     1  0  0  0  0  0999 V2000
   -0.0275    2.5987    0.0000 Br  0  0  0  0  0  0  0  0  0  0  0  0
    0.4950   -1.2787    0.0000 N   0  0  0  0  0  0  0  0  0  0  0  0
    1.3337   -1.2924    0.0000 N   0  0  0  0  0  0  0  0  0  0  0  0
    1.5125   -2.1587    0.0000 N   0  0  0  0  0  0  0  0  0  0  0  0
   -0.1100   -0.6875    0.0000 C   0  0  3  0  0  0  0  0  0  0  0  0
   -0.0825    0.1375    0.0000 C   0  0  0  0  0  0  0  0  0  0  0  0
    0.6187    0.5363    0.0000 C   0  0  0  0  0  0  0  0  0  0  0  0
   -0.7975   -1.1000    0.0000 C   0  0  0  0  0  0  0  0  0  0  0  0
   -0.7837    0.5499    0.0000 C   0  0  0  0  0  0  0  0  0  0  0  0
    0.1513   -2.0212    0.0000 C   0  0  0  0  0  0  0  0  0  0  0  0
    0.6325    1.3337    0.0000 C   0  0  0  0  0  0  0  0  0  0  0  0
   -0.0275    1.7874    0.0000 C   0  0  0  0  0  0  0  0  0  0  0  0
   -0.7837    1.3749    0.0000 C   0  0  0  0  0  0  0  0  0  0  0  0
    0.8112   -2.5987    0.0000 C   0  0  0  0  0  0  0  0  0  0  0  0
    1.3474    0.0963    0.0000 C   0  0  0  0  0  0  0  0  0  0  0  0
   -1.5125   -0.6600    0.0000 C   0  0  0  0  0  0  0  0  0  0  0  0
   -0.8250   -1.9112    0.0000 C   0  0  0  0  0  0  0  0  0  0  0  0
  1 12  1  0  0  0  0
  2  3  1  0  0  0  0
  2  5  1  0  0  0  0
  2 10  1  0  0  0  0
  3  4  2  0  0  0  0
  4 14  1  0  0  0  0
  5  6  1  0  0  0  0
  5  8  1  0  0  0  0
  6  7  1  0  0  0  0
  6  9  2  0  0  0  0
  7 11  2  0  0  0  0
  7 15  1  0  0  0  0
  8 16  1  0  0  0  0
  8 17  1  0  0  0  0
  9 13  1  0  0  0  0
 10 14  2  0  0  0  0
 11 12  1  0  0  0  0
 12 13  2  0  0  0  0
M  END
> <PUBCHEM_COMPOUND_ID_TYPE>
0

> <PUBCHEM_TOTAL_CHARGE>
0

> <PUBCHEM_SUBSTANCE_ID>
310948361

> <PUBCHEM_SUBSTANCE_VERSION>
1

> <PUBCHEM_EXT_DATASOURCE_NAME>
4488

> <PUBCHEM_EXT_DATASOURCE_REGID>
SCHEMBL16126539

> <PUBCHEM_SUBSTANCE_COMMENT>
InChI=1S/C13H16BrN3/c1-9(2)13(17-7-6-15-16-17)12-5-4-11(14)8-10(12)3/h4-9,13H,1-3H3
InChIKey=UZWOVORPXUGXIC-UHFFFAOYSA-N

> <PUBCHEM_SUBSTANCE_SYNONYM>
SCHEMBL16126539

> <PUBCHEM_XREF_EXT_ID>
SCHEMBL16126539

> <PUBCHEM_EXT_DATASOURCE_URL>
https://www.surechembl.org/

> <PUBCHEM_EXT_SUBSTANCE_URL>
https://www.surechembl.org/chemical/SCHEMBL16126539

> <PUBCHEM_CID_ASSOCIATIONS>
117613925  1

> <PUBCHEM_COORDINATE_TYPE>
1
3

$$$$
