310933681
  -OEChem-07211613022D

 16 17  0     1  0  0  0  0  0999 V2000
    0.0000   -1.2374    0.0000 Cl  0  0  0  0  0  0  0  0  0  0  0  0
    3.9103   -2.2934    0.0000 O   0  0  0  0  0  0  0  0  0  0  0  0
    4.9498   -0.8249    0.0000 O   0  0  0  0  0  0  0  0  0  0  0  0
    3.6463   -0.1650    0.0000 N   0  0  0  0  0  0  0  0  0  0  0  0
    2.8709   -1.2374    0.0000 C   0  0  0  0  0  0  0  0  0  0  0  0
    2.8709   -0.4290    0.0000 C   0  0  0  0  0  0  0  0  0  0  0  0
    3.6463   -1.5014    0.0000 C   0  0  0  0  0  0  0  0  0  0  0  0
    4.1248   -0.8249    0.0000 C   0  0  0  0  0  0  0  0  0  0  0  0
    1.4354   -1.2374    0.0000 C   0  0  0  0  0  0  0  0  0  0  0  0
    2.1449   -1.6664    0.0000 C   0  0  0  0  0  0  0  0  0  0  0  0
    2.1449    0.0000    0.0000 C   0  0  0  0  0  0  0  0  0  0  0  0
    1.4354   -0.4290    0.0000 C   0  0  0  0  0  0  0  0  0  0  0  0
    0.7259   -1.6664    0.0000 C   0  0  3  0  0  0  0  0  0  0  0  0
    0.7259   -2.4914    0.0000 C   0  0  0  0  0  0  0  0  0  0  0  0
    0.0165   -2.9038    0.0000 C   0  0  0  0  0  0  0  0  0  0  0  0
    1.4354   -2.9038    0.0000 C   0  0  0  0  0  0  0  0  0  0  0  0
  1 13  1  0  0  0  0
  2  7  2  0  0  0  0
  3  8  2  0  0  0  0
  4  6  1  0  0  0  0
  4  8  1  0  0  0  0
  5  6  2  0  0  0  0
  5  7  1  0  0  0  0
  5 10  1  0  0  0  0
  6 11  1  0  0  0  0
  7  8  1  0  0  0  0
  9 10  2  0  0  0  0
  9 12  1  0  0  0  0
  9 13  1  0  0  0  0
 11 12  2  0  0  0  0
 13 14  1  0  0  0  0
 14 15  1  0  0  0  0
 14 16  1  0  0  0  0
M  END
> <PUBCHEM_COMPOUND_ID_TYPE>
0

> <PUBCHEM_TOTAL_CHARGE>
0

> <PUBCHEM_SUBSTANCE_ID>
310933681

> <PUBCHEM_SUBSTANCE_VERSION>
1

> <PUBCHEM_EXT_DATASOURCE_NAME>
4488

> <PUBCHEM_EXT_DATASOURCE_REGID>
SCHEMBL16111115

> <PUBCHEM_SUBSTANCE_COMMENT>
InChI=1S/C12H12ClNO2/c1-6(2)10(13)7-3-4-9-8(5-7)11(15)12(16)14-9/h3-6,10H,1-2H3,(H,14,15,16)
InChIKey=WDMSPWJENSBVRE-UHFFFAOYSA-N

> <PUBCHEM_SUBSTANCE_SYNONYM>
SCHEMBL16111115

> <PUBCHEM_XREF_EXT_ID>
SCHEMBL16111115

> <PUBCHEM_EXT_DATASOURCE_URL>
https://www.surechembl.org/

> <PUBCHEM_EXT_SUBSTANCE_URL>
https://www.surechembl.org/chemical/SCHEMBL16111115

> <PUBCHEM_CID_ASSOCIATIONS>
117602049  1

> <PUBCHEM_COORDINATE_TYPE>
1
3

$$$$
