310949591
  -OEChem-07211613022D

 35 39  0     1  0  0  0  0  0999 V2000
    1.9582   -0.7237    0.0000 Cl  0  0  0  0  0  0  0  0  0  0  0  0
   -4.0442   -3.2034    0.0000 Cl  0  0  0  0  0  0  0  0  0  0  0  0
    1.9582    3.2034    0.0000 O   0  0  0  0  0  0  0  0  0  0  0  0
   -0.9046   -1.5326    0.0000 N   0  0  0  0  0  0  0  0  0  0  0  0
    0.5215   -0.7131    0.0000 N   0  0  0  0  0  0  0  0  0  0  0  0
    0.5215    0.9365    0.0000 N   0  0  0  0  0  0  0  0  0  0  0  0
   -1.6177   -0.3087    0.0000 N   0  0  0  0  0  0  0  0  0  0  0  0
   -0.9046    0.9365    0.0000 N   0  0  0  0  0  0  0  0  0  0  0  0
    2.7990    1.7773    0.0000 N   0  0  0  0  0  0  0  0  0  0  0  0
    3.2034    2.4903    0.0000 N   0  0  0  0  0  0  0  0  0  0  0  0
   -0.2128   -0.2874    0.0000 C   0  0  0  0  0  0  0  0  0  0  0  0
   -0.9046   -0.7024    0.0000 C   0  0  0  0  0  0  0  0  0  0  0  0
    0.4895   -1.5219    0.0000 C   0  0  3  0  0  0  0  0  0  0  0  0
   -0.2128    0.5321    0.0000 C   0  0  0  0  0  0  0  0  0  0  0  0
   -1.6390   -1.9476    0.0000 C   0  0  0  0  0  0  0  0  0  0  0  0
    1.2345   -1.9476    0.0000 C   0  0  0  0  0  0  0  0  0  0  0  0
    1.9476    1.7880    0.0000 C   0  0  0  0  0  0  0  0  0  0  0  0
    1.9476   -1.5432    0.0000 C   0  0  0  0  0  0  0  0  0  0  0  0
   -1.6390    0.5321    0.0000 C   0  0  0  0  0  0  0  0  0  0  0  0
    1.2452    0.5428    0.0000 C   0  0  0  0  0  0  0  0  0  0  0  0
    0.5108    1.7773    0.0000 C   0  0  0  0  0  0  0  0  0  0  0  0
   -2.3520   -1.5432    0.0000 C   0  0  0  0  0  0  0  0  0  0  0  0
   -1.6496   -2.7777    0.0000 C   0  0  0  0  0  0  0  0  0  0  0  0
    1.2345   -2.7670    0.0000 C   0  0  0  0  0  0  0  0  0  0  0  0
    1.9370    0.9365    0.0000 C   0  0  0  0  0  0  0  0  0  0  0  0
    1.2239    2.1924    0.0000 C   0  0  0  0  0  0  0  0  0  0  0  0
    2.3839    2.4797    0.0000 C   0  0  0  0  0  0  0  0  0  0  0  0
    2.6606   -1.9582    0.0000 C   0  0  0  0  0  0  0  0  0  0  0  0
   -3.0650   -1.9582    0.0000 C   0  0  0  0  0  0  0  0  0  0  0  0
   -2.3520   -3.1821    0.0000 C   0  0  0  0  0  0  0  0  0  0  0  0
    1.9582   -3.1821    0.0000 C   0  0  0  0  0  0  0  0  0  0  0  0
   -3.0650   -2.7564    0.0000 C   0  0  0  0  0  0  0  0  0  0  0  0
    2.6393   -2.7883    0.0000 C   0  0  0  0  0  0  0  0  0  0  0  0
    3.1821    1.0642    0.0000 C   0  0  0  0  0  0  0  0  0  0  0  0
    4.0442    1.0642    0.0000 C   0  0  0  0  0  0  0  0  0  0  0  0
  1 18  1  0  0  0  0
  2 32  1  0  0  0  0
  3 27  2  0  0  0  0
  4 12  1  0  0  0  0
  4 13  1  0  0  0  0
  4 15  1  0  0  0  0
  5 11  1  0  0  0  0
  5 13  1  0  0  0  0
  6 14  1  0  0  0  0
  6 20  1  0  0  0  0
  6 21  1  0  0  0  0
  7 12  1  0  0  0  0
  7 19  2  0  0  0  0
  8 14  2  0  0  0  0
  8 19  1  0  0  0  0
  9 17  1  0  0  0  0
  9 34  1  0  0  0  0
 10 27  1  0  0  0  0
 11 12  2  0  0  0  0
 11 14  1  0  0  0  0
 13 16  1  0  0  0  0
 15 22  2  0  0  0  0
 15 23  1  0  0  0  0
 16 18  1  0  0  0  0
 16 24  2  0  0  0  0
 17 25  1  0  0  0  0
 17 26  1  0  0  0  0
 17 27  1  0  0  0  0
 18 28  2  0  0  0  0
 20 25  1  0  0  0  0
 21 26  1  0  0  0  0
 22 29  1  0  0  0  0
 23 30  2  0  0  0  0
 24 31  1  0  0  0  0
 28 33  1  0  0  0  0
 29 32  2  0  0  0  0
 30 32  1  0  0  0  0
 31 33  2  0  0  0  0
 34 35  1  0  0  0  0
M  END
> <PUBCHEM_COMPOUND_ID_TYPE>
0

> <PUBCHEM_TOTAL_CHARGE>
0

> <PUBCHEM_SUBSTANCE_ID>
310949591

> <PUBCHEM_SUBSTANCE_VERSION>
1

> <PUBCHEM_EXT_DATASOURCE_NAME>
4488

> <PUBCHEM_EXT_DATASOURCE_REGID>
SCHEMBL16127788

> <PUBCHEM_SUBSTANCE_COMMENT>
InChI=1S/C25H27Cl2N7O/c1-2-31-25(24(28)35)11-13-33(14-12-25)22-20-23(30-15-29-22)34(17-9-7-16(26)8-10-17)21(32-20)18-5-3-4-6-19(18)27/h3-10,15,21,31-32H,2,11-14H2,1H3,(H2,28,35)
InChIKey=ZXQFANPHXVOPIX-UHFFFAOYSA-N

> <PUBCHEM_SUBSTANCE_SYNONYM>
SCHEMBL16127788

> <PUBCHEM_XREF_EXT_ID>
SCHEMBL16127788

> <PUBCHEM_EXT_DATASOURCE_URL>
https://www.surechembl.org/

> <PUBCHEM_EXT_SUBSTANCE_URL>
https://www.surechembl.org/chemical/SCHEMBL16127788

> <PUBCHEM_CID_ASSOCIATIONS>
92043125  1

> <PUBCHEM_COORDINATE_TYPE>
1
3

$$$$
