310939632
  -OEChem-07211613022D

 30 32  0     1  0  0  0  0  0999 V2000
   -2.1435   12.3623    0.0000 O   0  0  0  0  0  0  0  0  0  0  0  0
   -3.5723   11.5373    0.0000 O   0  0  0  0  0  0  0  0  0  0  0  0
    0.7145   11.5373    0.0000 N   0  0  0  0  0  0  0  0  0  0  0  0
    1.4290   12.7748    0.0000 N   0  0  0  0  0  0  0  0  0  0  0  0
    2.8579   12.7748    0.0000 N   0  0  0  0  0  0  0  0  0  0  0  0
   -5.0013   12.3623    0.0000 N   0  0  0  0  0  0  0  0  0  0  0  0
    0.7145   12.3623    0.0000 C   0  0  0  0  0  0  0  0  0  0  0  0
    1.4290   11.1248    0.0000 C   0  0  0  0  0  0  0  0  0  0  0  0
    2.1435   12.3623    0.0000 C   0  0  0  0  0  0  0  0  0  0  0  0
    0.0000   12.7748    0.0000 C   0  0  0  0  0  0  0  0  0  0  0  0
    2.1435   11.5373    0.0000 C   0  0  0  0  0  0  0  0  0  0  0  0
    1.4290   10.2998    0.0000 C   0  0  0  0  0  0  0  0  0  0  0  0
   -0.7145   12.3623    0.0000 C   0  0  0  0  0  0  0  0  0  0  0  0
    0.0000   13.5999    0.0000 C   0  0  0  0  0  0  0  0  0  0  0  0
   -1.4290   12.7748    0.0000 C   0  0  0  0  0  0  0  0  0  0  0  0
    0.7615    9.8149    0.0000 C   0  0  0  0  0  0  0  0  0  0  0  0
    2.0963    9.8149    0.0000 C   0  0  0  0  0  0  0  0  0  0  0  0
   -1.4290   13.5999    0.0000 C   0  0  0  0  0  0  0  0  0  0  0  0
   -0.7145   14.0123    0.0000 C   0  0  0  0  0  0  0  0  0  0  0  0
    3.5723   12.3623    0.0000 C   0  0  0  0  0  0  0  0  0  0  0  0
    1.0165    9.0302    0.0000 C   0  0  0  0  0  0  0  0  0  0  0  0
    1.8414    9.0302    0.0000 C   0  0  0  0  0  0  0  0  0  0  0  0
    2.8579   13.5999    0.0000 C   0  0  0  0  0  0  0  0  0  0  0  0
   -2.8579   12.7748    0.0000 C   0  0  0  0  0  0  0  0  0  0  0  0
    4.2868   12.7748    0.0000 C   0  0  0  0  0  0  0  0  0  0  0  0
   -3.5723   12.3623    0.0000 C   0  0  3  0  0  0  0  0  0  0  0  0
    5.0013   12.3623    0.0000 C   0  0  0  0  0  0  0  0  0  0  0  0
   -4.2868   12.7748    0.0000 C   0  0  0  0  0  0  0  0  0  0  0  0
    5.7158   11.9499    0.0000 C   0  0  0  0  0  0  0  0  0  0  0  0
   -5.7158   12.7748    0.0000 C   0  0  0  0  0  0  0  0  0  0  0  0
  1 15  1  0  0  0  0
  1 24  1  0  0  0  0
  2 26  1  0  0  0  0
  3  7  2  0  0  0  0
  3  8  1  0  0  0  0
  4  7  1  0  0  0  0
  4  9  2  0  0  0  0
  5  9  1  0  0  0  0
  5 20  1  0  0  0  0
  5 23  1  0  0  0  0
  6 28  1  0  0  0  0
  6 30  1  0  0  0  0
  7 10  1  0  0  0  0
  8 11  2  0  0  0  0
  8 12  1  0  0  0  0
  9 11  1  0  0  0  0
 10 13  2  0  0  0  0
 10 14  1  0  0  0  0
 12 16  2  0  0  0  0
 12 17  1  0  0  0  0
 13 15  1  0  0  0  0
 14 19  2  0  0  0  0
 15 18  2  0  0  0  0
 16 21  1  0  0  0  0
 17 22  1  0  0  0  0
 18 19  1  0  0  0  0
 20 25  1  0  0  0  0
 21 22  1  0  0  0  0
 24 26  1  0  0  0  0
 25 27  1  0  0  0  0
 26 28  1  0  0  0  0
 27 29  3  0  0  0  0
M  END
> <PUBCHEM_COMPOUND_ID_TYPE>
0

> <PUBCHEM_TOTAL_CHARGE>
0

> <PUBCHEM_SUBSTANCE_ID>
310939632

> <PUBCHEM_SUBSTANCE_VERSION>
1

> <PUBCHEM_EXT_DATASOURCE_NAME>
4488

> <PUBCHEM_EXT_DATASOURCE_REGID>
SCHEMBL16117562

> <PUBCHEM_SUBSTANCE_COMMENT>
InChI=1S/C24H30N4O2/c1-4-5-13-28(3)23-15-22(18-9-6-7-10-18)26-24(27-23)19-11-8-12-21(14-19)30-17-20(29)16-25-2/h1,8-9,11-12,14-15,20,25,29H,5-7,10,13,16-17H2,2-3H3
InChIKey=NRZVEPQULZZXHJ-UHFFFAOYSA-N

> <PUBCHEM_SUBSTANCE_SYNONYM>
SCHEMBL16117562

> <PUBCHEM_XREF_EXT_ID>
SCHEMBL16117562

> <PUBCHEM_EXT_DATASOURCE_URL>
https://www.surechembl.org/

> <PUBCHEM_EXT_SUBSTANCE_URL>
https://www.surechembl.org/chemical/SCHEMBL16117562

> <PUBCHEM_CID_ASSOCIATIONS>
117606872  1

> <PUBCHEM_COORDINATE_TYPE>
1
3

$$$$
