310937132
  -OEChem-07211613022D

 11 11  0     1  0  0  0  0  0999 V2000
    0.2414   -2.5747    0.0000 O   0  0  0  0  0  0  0  0  0  0  0  0
    1.6293    0.0000    0.0000 O   0  0  0  0  0  0  0  0  0  0  0  0
    2.3534   -1.2471    0.0000 O   0  0  0  0  0  0  0  0  0  0  0  0
    1.5690   -2.5747    0.0000 N   0  0  0  0  0  0  0  0  0  0  0  0
    1.3276   -3.3391    0.0000 N   0  0  0  0  0  0  0  0  0  0  0  0
    0.9253   -2.0718    0.0000 C   0  0  0  0  0  0  0  0  0  0  0  0
    0.9253   -1.2471    0.0000 C   0  0  3  0  0  0  0  0  0  0  0  0
    0.5028   -3.3592    0.0000 C   0  0  0  0  0  0  0  0  0  0  0  0
    1.6293   -0.8247    0.0000 C   0  0  0  0  0  0  0  0  0  0  0  0
    0.2011   -0.8247    0.0000 C   0  0  0  0  0  0  0  0  0  0  0  0
    0.0000   -4.0230    0.0000 C   0  0  0  0  0  0  0  0  0  0  0  0
  1  6  1  0  0  0  0
  1  8  1  0  0  0  0
  2  9  2  0  0  0  0
  3  9  1  0  0  0  0
  4  5  1  0  0  0  0
  4  6  2  0  0  0  0
  5  8  2  0  0  0  0
  6  7  1  0  0  0  0
  7  9  1  0  0  0  0
  7 10  1  0  0  0  0
  8 11  1  0  0  0  0
M  END
> <PUBCHEM_COMPOUND_ID_TYPE>
0

> <PUBCHEM_TOTAL_CHARGE>
0

> <PUBCHEM_SUBSTANCE_ID>
310937132

> <PUBCHEM_SUBSTANCE_VERSION>
1

> <PUBCHEM_EXT_DATASOURCE_NAME>
4488

> <PUBCHEM_EXT_DATASOURCE_REGID>
SCHEMBL16114851

> <PUBCHEM_SUBSTANCE_COMMENT>
InChI=1S/C6H8N2O3/c1-3(6(9)10)5-8-7-4(2)11-5/h3H,1-2H3,(H,9,10)
InChIKey=RTOLBWZJSDFPHI-UHFFFAOYSA-N

> <PUBCHEM_SUBSTANCE_SYNONYM>
SCHEMBL16114851

> <PUBCHEM_XREF_EXT_ID>
SCHEMBL16114851

> <PUBCHEM_EXT_DATASOURCE_URL>
https://www.surechembl.org/

> <PUBCHEM_EXT_SUBSTANCE_URL>
https://www.surechembl.org/chemical/SCHEMBL16114851

> <PUBCHEM_CID_ASSOCIATIONS>
82416193  1

> <PUBCHEM_COORDINATE_TYPE>
1
3

$$$$
