310948685
  -OEChem-07211613022D

 32 34  0     1  0  0  0  0  0999 V2000
   -1.6819   -0.2137    0.0000 F   0  0  0  0  0  0  0  0  0  0  0  0
   -2.0955    1.7991    0.0000 O   0  0  0  0  0  0  0  0  0  0  0  0
    0.4687    2.6814    0.0000 O   0  0  0  0  0  0  0  0  0  0  0  0
    3.9291    1.9784    0.0000 O   0  0  0  0  0  0  0  0  0  0  0  0
   -3.2122    0.1861    0.0000 O   0  0  0  0  0  0  0  0  0  0  0  0
   -3.9291    1.4269    0.0000 O   0  0  0  0  0  0  0  0  0  0  0  0
    1.1856   -0.2137    0.0000 N   0  0  3  0  0  0  0  0  0  0  0  0
    1.1856    1.4407    0.0000 N   0  0  0  0  0  0  0  0  0  0  0  0
    1.9025    2.6953    0.0000 N   0  0  0  0  0  0  0  0  0  0  0  0
    3.3639    2.6125    0.0000 N   0  0  0  0  0  0  0  0  0  0  0  0
    0.4550    0.2137    0.0000 C   0  0  0  0  0  0  0  0  0  0  0  0
    0.4687    1.0271    0.0000 C   0  0  0  0  0  0  0  0  0  0  0  0
   -0.9513    1.0271    0.0000 C   0  0  0  0  0  0  0  0  0  0  0  0
   -0.9650    0.1999    0.0000 C   0  0  0  0  0  0  0  0  0  0  0  0
   -0.2482   -0.2137    0.0000 C   0  0  0  0  0  0  0  0  0  0  0  0
   -0.2482    1.4269    0.0000 C   0  0  0  0  0  0  0  0  0  0  0  0
    1.1856   -1.0408    0.0000 C   0  0  0  0  0  0  0  0  0  0  0  0
    1.8887    0.1999    0.0000 C   0  0  0  0  0  0  0  0  0  0  0  0
    1.1994    2.2679    0.0000 C   0  0  0  0  0  0  0  0  0  0  0  0
    0.4687   -1.4682    0.0000 C   0  0  0  0  0  0  0  0  0  0  0  0
    1.8887   -1.4682    0.0000 C   0  0  0  0  0  0  0  0  0  0  0  0
    2.6194    2.2817    0.0000 C   0  0  0  0  0  0  0  0  0  0  0  0
    2.6194   -0.2137    0.0000 C   0  0  0  0  0  0  0  0  0  0  0  0
   -3.2536    1.0547    0.0000 C   0  0  0  0  0  0  0  0  0  0  0  0
    2.7021    1.4544    0.0000 C   0  0  0  0  0  0  0  0  0  0  0  0
    0.4687   -2.2817    0.0000 C   0  0  0  0  0  0  0  0  0  0  0  0
    1.8887   -2.2817    0.0000 C   0  0  0  0  0  0  0  0  0  0  0  0
    3.5017    1.2615    0.0000 C   0  0  0  0  0  0  0  0  0  0  0  0
    1.1856   -2.6953    0.0000 C   0  0  0  0  0  0  0  0  0  0  0  0
    2.6056   -1.0547    0.0000 C   0  0  0  0  0  0  0  0  0  0  0  0
    3.3225    0.1999    0.0000 C   0  0  0  0  0  0  0  0  0  0  0  0
    3.8464    0.4894    0.0000 C   0  0  0  0  0  0  0  0  0  0  0  0
  1 14  1  0  0  0  0
  2 13  1  0  0  0  0
  2 24  1  0  0  0  0
  3 19  2  0  0  0  0
  4 10  1  0  0  0  0
  4 28  1  0  0  0  0
  5 24  2  0  0  0  0
  6 24  1  0  0  0  0
  7 11  1  0  0  0  0
  7 17  1  0  0  0  0
  7 18  1  0  0  0  0
  8 12  1  0  0  0  0
  8 19  1  0  0  0  0
  9 19  1  0  0  0  0
  9 22  1  0  0  0  0
 10 22  2  0  0  0  0
 11 12  1  0  0  0  0
 11 15  2  0  0  0  0
 12 16  2  0  0  0  0
 13 14  2  0  0  0  0
 13 16  1  0  0  0  0
 14 15  1  0  0  0  0
 17 20  1  0  0  0  0
 17 21  1  0  0  0  0
 18 23  1  0  0  0  0
 20 26  1  0  0  0  0
 21 27  1  0  0  0  0
 22 25  1  0  0  0  0
 23 30  1  0  0  0  0
 23 31  1  0  0  0  0
 25 28  2  0  0  0  0
 26 29  1  0  0  0  0
 27 29  1  0  0  0  0
 28 32  1  0  0  0  0
M  END
> <PUBCHEM_COMPOUND_ID_TYPE>
0

> <PUBCHEM_TOTAL_CHARGE>
0

> <PUBCHEM_SUBSTANCE_ID>
310948685

> <PUBCHEM_SUBSTANCE_VERSION>
1

> <PUBCHEM_EXT_DATASOURCE_NAME>
4488

> <PUBCHEM_EXT_DATASOURCE_REGID>
SCHEMBL16126869

> <PUBCHEM_SUBSTANCE_COMMENT>
InChI=1S/C22H29FN4O5/c1-13(2)12-27(15-7-5-4-6-8-15)18-10-16(23)19(31-22(29)30)11-17(18)24-21(28)25-20-9-14(3)32-26-20/h9-11,13,15H,4-8,12H2,1-3H3,(H,29,30)(H2,24,25,26,28)
InChIKey=MKWMKIHOJCBVHY-UHFFFAOYSA-N

> <PUBCHEM_SUBSTANCE_SYNONYM>
SCHEMBL16126869

> <PUBCHEM_XREF_EXT_ID>
SCHEMBL16126869

> <PUBCHEM_EXT_DATASOURCE_URL>
https://www.surechembl.org/

> <PUBCHEM_EXT_SUBSTANCE_URL>
https://www.surechembl.org/chemical/SCHEMBL16126869

> <PUBCHEM_CID_ASSOCIATIONS>
117614226  1

> <PUBCHEM_COORDINATE_TYPE>
1
3

$$$$
