310937104
  -OEChem-07211613022D

 27 29  0     1  0  0  0  0  0999 V2000
    5.7043   -1.4458    0.0000 S   0  0  0  0  0  0  0  0  0  0  0  0
    2.1556   -2.7602    0.0000 O   0  0  0  0  0  0  0  0  0  0  0  0
    7.1764   -3.1807    0.0000 O   0  0  0  0  0  0  0  0  0  0  0  0
    6.4403   -1.9452    0.0000 O   0  0  0  0  0  0  0  0  0  0  0  0
    4.6003   -0.6572    0.0000 N   0  0  0  0  0  0  0  0  0  0  0  0
    5.0209   -2.7602    0.0000 C   0  0  3  0  0  0  0  0  0  0  0  0
    5.0209   -1.9452    0.0000 C   0  0  0  0  0  0  0  0  0  0  0  0
    4.3111   -3.1807    0.0000 C   0  0  0  0  0  0  0  0  0  0  0  0
    3.5751   -2.7602    0.0000 C   0  0  0  0  0  0  0  0  0  0  0  0
    5.7306   -3.1807    0.0000 C   0  0  0  0  0  0  0  0  0  0  0  0
    4.3637   -1.4458    0.0000 C   0  0  0  0  0  0  0  0  0  0  0  0
    2.8653   -3.1807    0.0000 C   0  0  0  0  0  0  0  0  0  0  0  0
    5.4151   -0.6572    0.0000 C   0  0  0  0  0  0  0  0  0  0  0  0
    4.2848   -4.0219    0.0000 C   0  0  0  0  0  0  0  0  0  0  0  0
    6.4403   -2.7602    0.0000 C   0  0  0  0  0  0  0  0  0  0  0  0
    2.8653   -3.9957    0.0000 C   0  0  0  0  0  0  0  0  0  0  0  0
    3.5751   -4.4162    0.0000 C   0  0  0  0  0  0  0  0  0  0  0  0
    2.1556   -1.9452    0.0000 C   0  0  0  0  0  0  0  0  0  0  0  0
    5.9146    0.0000    0.0000 C   0  0  0  0  0  0  0  0  0  0  0  0
    1.4195   -1.5246    0.0000 C   0  0  0  0  0  0  0  0  0  0  0  0
    1.4458   -0.6834    0.0000 C   0  0  0  0  0  0  0  0  0  0  0  0
    0.7098   -1.9190    0.0000 C   0  0  0  0  0  0  0  0  0  0  0  0
    7.8861   -2.7602    0.0000 C   0  0  0  0  0  0  0  0  0  0  0  0
    0.7098   -0.2629    0.0000 C   0  0  0  0  0  0  0  0  0  0  0  0
    0.0000   -1.5246    0.0000 C   0  0  0  0  0  0  0  0  0  0  0  0
    0.0000   -0.6834    0.0000 C   0  0  0  0  0  0  0  0  0  0  0  0
    7.8861   -1.9452    0.0000 C   0  0  0  0  0  0  0  0  0  0  0  0
  1  7  1  0  0  0  0
  1 13  1  0  0  0  0
  2 12  1  0  0  0  0
  2 18  1  0  0  0  0
  3 15  1  0  0  0  0
  3 23  1  0  0  0  0
  4 15  2  0  0  0  0
  5 11  1  0  0  0  0
  5 13  2  0  0  0  0
  6  7  1  0  0  0  0
  6  8  1  0  0  0  0
  6 10  1  0  0  0  0
  7 11  2  0  0  0  0
  8  9  1  0  0  0  0
  8 14  2  0  0  0  0
  9 12  2  0  0  0  0
 10 15  1  0  0  0  0
 12 16  1  0  0  0  0
 13 19  1  0  0  0  0
 14 17  1  0  0  0  0
 16 17  2  0  0  0  0
 18 20  1  0  0  0  0
 20 21  2  0  0  0  0
 20 22  1  0  0  0  0
 21 24  1  0  0  0  0
 22 25  2  0  0  0  0
 23 27  1  0  0  0  0
 24 26  2  0  0  0  0
 25 26  1  0  0  0  0
M  END
> <PUBCHEM_COMPOUND_ID_TYPE>
0

> <PUBCHEM_TOTAL_CHARGE>
0

> <PUBCHEM_SUBSTANCE_ID>
310937104

> <PUBCHEM_SUBSTANCE_VERSION>
1

> <PUBCHEM_EXT_DATASOURCE_NAME>
4488

> <PUBCHEM_EXT_DATASOURCE_REGID>
SCHEMBL16114820

> <PUBCHEM_SUBSTANCE_COMMENT>
InChI=1S/C22H23NO3S/c1-3-25-22(24)13-20(21-14-23-16(2)27-21)18-10-7-11-19(12-18)26-15-17-8-5-4-6-9-17/h4-12,14,20H,3,13,15H2,1-2H3
InChIKey=KNMPOTHWBPYTGC-UHFFFAOYSA-N

> <PUBCHEM_SUBSTANCE_SYNONYM>
SCHEMBL16114820

> <PUBCHEM_XREF_EXT_ID>
SCHEMBL16114820

> <PUBCHEM_EXT_DATASOURCE_URL>
https://www.surechembl.org/

> <PUBCHEM_EXT_SUBSTANCE_URL>
https://www.surechembl.org/chemical/SCHEMBL16114820

> <PUBCHEM_CID_ASSOCIATIONS>
117604938  1

> <PUBCHEM_COORDINATE_TYPE>
1
3

$$$$
