310948131
  -OEChem-07211613022D

 33 35  0     1  0  0  0  0  0999 V2000
    0.5198   -1.4891    0.0000 Br  0  0  0  0  0  0  0  0  0  0  0  0
   -2.0650   -0.6883    0.0000 F   0  0  0  0  0  0  0  0  0  0  0  0
   -1.5312   -1.6155    0.0000 F   0  0  0  0  0  0  0  0  0  0  0  0
    4.1721    1.5874    0.0000 F   0  0  0  0  0  0  0  0  0  0  0  0
    2.9640    1.6295    0.0000 F   0  0  0  0  0  0  0  0  0  0  0  0
    4.0737    0.4074    0.0000 F   0  0  0  0  0  0  0  0  0  0  0  0
   -2.3319    0.9974    0.0000 O   0  0  0  0  0  0  0  0  0  0  0  0
    2.9079    0.4635    0.0000 O   0  0  0  0  0  0  0  0  0  0  0  0
   -3.7788   -1.4891    0.0000 O   0  0  0  0  0  0  0  0  0  0  0  0
   -0.9131    1.0114    0.0000 N   0  0  0  0  0  0  0  0  0  0  0  0
   -1.5733    1.5031    0.0000 N   0  0  0  0  0  0  0  0  0  0  0  0
   -1.3205    2.2897    0.0000 N   0  0  0  0  0  0  0  0  0  0  0  0
   -0.9131    0.1967    0.0000 C   0  0  0  0  0  0  0  0  0  0  0  0
   -1.6155   -0.2107    0.0000 C   0  0  0  0  0  0  0  0  0  0  0  0
   -0.2528    1.5312    0.0000 C   0  0  0  0  0  0  0  0  0  0  0  0
   -2.3600    0.1827    0.0000 C   0  0  0  0  0  0  0  0  0  0  0  0
    0.5479    1.2643    0.0000 C   0  0  0  0  0  0  0  0  0  0  0  0
   -0.2107   -0.2248    0.0000 C   0  0  0  0  0  0  0  0  0  0  0  0
   -3.0623   -0.2107    0.0000 C   0  0  3  0  0  0  0  0  0  0  0  0
   -0.4917    2.2897    0.0000 C   0  0  0  0  0  0  0  0  0  0  0  0
   -1.6295   -1.0395    0.0000 C   0  0  0  0  0  0  0  0  0  0  0  0
   -0.2107   -1.0254    0.0000 C   0  0  0  0  0  0  0  0  0  0  0  0
   -3.0623   -1.0254    0.0000 C   0  0  0  0  0  0  0  0  0  0  0  0
   -0.9131   -1.4469    0.0000 C   0  0  0  0  0  0  0  0  0  0  0  0
    0.7165    0.4495    0.0000 C   0  0  0  0  0  0  0  0  0  0  0  0
    1.1519    1.7981    0.0000 C   0  0  0  0  0  0  0  0  0  0  0  0
   -2.3319   -1.4469    0.0000 C   0  0  0  0  0  0  0  0  0  0  0  0
    2.1071    0.7586    0.0000 C   0  0  0  0  0  0  0  0  0  0  0  0
    1.5031    0.1967    0.0000 C   0  0  0  0  0  0  0  0  0  0  0  0
    1.9386    1.5452    0.0000 C   0  0  0  0  0  0  0  0  0  0  0  0
   -4.1721    0.1827    0.0000 C   0  0  0  0  0  0  0  0  0  0  0  0
    3.5400    1.0254    0.0000 C   0  0  0  0  0  0  0  0  0  0  0  0
   -2.3459   -2.2897    0.0000 C   0  0  0  0  0  0  0  0  0  0  0  0
  1 22  1  0  0  0  0
  2 27  1  0  0  0  0
  3 27  1  0  0  0  0
  4 32  1  0  0  0  0
  5 32  1  0  0  0  0
  6 32  1  0  0  0  0
  7 16  2  0  0  0  0
  8 28  1  0  0  0  0
  8 32  1  0  0  0  0
  9 23  2  0  0  0  0
 10 11  1  0  0  0  0
 10 13  1  0  0  0  0
 10 15  1  0  0  0  0
 11 12  2  0  0  0  0
 12 20  1  0  0  0  0
 13 14  2  0  0  0  0
 13 18  1  0  0  0  0
 14 16  1  0  0  0  0
 14 21  1  0  0  0  0
 15 17  1  0  0  0  0
 15 20  2  0  0  0  0
 16 19  1  0  0  0  0
 17 25  2  0  0  0  0
 17 26  1  0  0  0  0
 18 22  2  0  0  0  0
 19 23  1  0  0  0  0
 19 31  1  0  0  0  0
 21 24  2  0  0  0  0
 22 24  1  0  0  0  0
 23 27  1  0  0  0  0
 25 29  1  0  0  0  0
 26 30  2  0  0  0  0
 27 33  1  0  0  0  0
 28 29  2  0  0  0  0
 28 30  1  0  0  0  0
M  END
> <PUBCHEM_COMPOUND_ID_TYPE>
0

> <PUBCHEM_TOTAL_CHARGE>
0

> <PUBCHEM_SUBSTANCE_ID>
310948131

> <PUBCHEM_SUBSTANCE_VERSION>
1

> <PUBCHEM_EXT_DATASOURCE_NAME>
4488

> <PUBCHEM_EXT_DATASOURCE_REGID>
SCHEMBL16126307

> <PUBCHEM_SUBSTANCE_COMMENT>
InChI=1S/C21H15BrF5N3O3/c1-11(19(32)20(2,23)24)18(31)15-8-5-13(22)9-16(15)30-17(10-28-29-30)12-3-6-14(7-4-12)33-21(25,26)27/h3-11H,1-2H3
InChIKey=LWPCIHIPDLSNSW-UHFFFAOYSA-N

> <PUBCHEM_SUBSTANCE_SYNONYM>
SCHEMBL16126307

> <PUBCHEM_XREF_EXT_ID>
SCHEMBL16126307

> <PUBCHEM_EXT_DATASOURCE_URL>
https://www.surechembl.org/

> <PUBCHEM_EXT_SUBSTANCE_URL>
https://www.surechembl.org/chemical/SCHEMBL16126307

> <PUBCHEM_CID_ASSOCIATIONS>
117613747  1

> <PUBCHEM_COORDINATE_TYPE>
1
3

$$$$
