310931022
  -OEChem-07211613022D

 30 34  0     1  0  0  0  0  0999 V2000
   -2.0926   -0.2184    0.0000 O   0  0  0  0  0  0  0  0  0  0  0  0
    2.8579    0.8250    0.0000 O   0  0  0  0  0  0  0  0  0  0  0  0
   -3.3220    0.6108    0.0000 N   0  0  0  0  0  0  0  0  0  0  0  0
   -2.7369    1.8106    0.0000 N   0  0  0  0  0  0  0  0  0  0  0  0
   -4.1797    1.8358    0.0000 N   0  0  0  0  0  0  0  0  0  0  0  0
   -2.1434    1.2375    0.0000 C   0  0  3  0  0  0  0  0  0  0  0  0
   -2.5051    0.4960    0.0000 C   0  0  0  0  0  0  0  0  0  0  0  0
   -1.6131    1.8695    0.0000 C   0  0  0  0  0  0  0  0  0  0  0  0
   -1.4290    0.8250    0.0000 C   0  0  0  0  0  0  0  0  0  0  0  0
   -3.4653    1.4233    0.0000 C   0  0  0  0  0  0  0  0  0  0  0  0
   -1.4699    2.6820    0.0000 C   0  0  0  0  0  0  0  0  0  0  0  0
   -0.8378    2.1517    0.0000 C   0  0  0  0  0  0  0  0  0  0  0  0
   -3.8951    0.0174    0.0000 C   0  0  0  0  0  0  0  0  0  0  0  0
   -0.7144    1.2375    0.0000 C   0  0  0  0  0  0  0  0  0  0  0  0
   -1.4290    0.0000    0.0000 C   0  0  0  0  0  0  0  0  0  0  0  0
    0.0000    0.8250    0.0000 C   0  0  0  0  0  0  0  0  0  0  0  0
   -0.7144   -0.4125    0.0000 C   0  0  0  0  0  0  0  0  0  0  0  0
   -3.6677   -0.7757    0.0000 C   0  0  0  0  0  0  0  0  0  0  0  0
   -4.6956    0.2169    0.0000 C   0  0  0  0  0  0  0  0  0  0  0  0
    0.7144    1.2375    0.0000 C   0  0  0  0  0  0  0  0  0  0  0  0
    0.0000    0.0000    0.0000 C   0  0  0  0  0  0  0  0  0  0  0  0
   -4.2409   -1.3691    0.0000 C   0  0  0  0  0  0  0  0  0  0  0  0
   -5.2687   -0.3765    0.0000 C   0  0  0  0  0  0  0  0  0  0  0  0
    1.4290    0.8250    0.0000 C   0  0  0  0  0  0  0  0  0  0  0  0
    0.7144    2.0625    0.0000 C   0  0  0  0  0  0  0  0  0  0  0  0
   -5.0413   -1.1696    0.0000 C   0  0  0  0  0  0  0  0  0  0  0  0
    2.1434    1.2375    0.0000 C   0  0  0  0  0  0  0  0  0  0  0  0
    1.4290    2.4750    0.0000 C   0  0  0  0  0  0  0  0  0  0  0  0
    2.1434    2.0625    0.0000 C   0  0  0  0  0  0  0  0  0  0  0  0
    3.5724    1.2375    0.0000 C   0  0  0  0  0  0  0  0  0  0  0  0
  1  7  2  0  0  0  0
  2 27  1  0  0  0  0
  2 30  1  0  0  0  0
  3  7  1  0  0  0  0
  3 10  1  0  0  0  0
  3 13  1  0  0  0  0
  4  6  1  0  0  0  0
  4 10  1  0  0  0  0
  5 10  2  3  0  0  0
  6  7  1  0  0  0  0
  6  8  1  0  0  0  0
  6  9  1  0  0  0  0
  8 11  1  0  0  0  0
  8 12  1  0  0  0  0
  9 14  1  0  0  0  0
  9 15  2  0  0  0  0
 11 12  1  0  0  0  0
 13 18  1  0  0  0  0
 13 19  1  0  0  0  0
 14 16  2  0  0  0  0
 15 17  1  0  0  0  0
 16 20  1  0  0  0  0
 16 21  1  0  0  0  0
 17 21  2  0  0  0  0
 18 22  1  0  0  0  0
 19 23  1  0  0  0  0
 20 24  1  0  0  0  0
 20 25  2  0  0  0  0
 22 26  1  0  0  0  0
 23 26  1  0  0  0  0
 24 27  2  0  0  0  0
 25 28  1  0  0  0  0
 27 29  1  0  0  0  0
 28 29  2  0  0  0  0
M  END
> <PUBCHEM_COMPOUND_ID_TYPE>
0

> <PUBCHEM_TOTAL_CHARGE>
0

> <PUBCHEM_SUBSTANCE_ID>
310931022

> <PUBCHEM_SUBSTANCE_VERSION>
1

> <PUBCHEM_EXT_DATASOURCE_NAME>
4488

> <PUBCHEM_EXT_DATASOURCE_REGID>
SCHEMBL16108322

> <PUBCHEM_SUBSTANCE_COMMENT>
InChI=1S/C25H29N3O2/c1-30-22-12-6-8-18(16-22)17-7-5-9-20(15-17)25(19-13-14-19)23(29)28(24(26)27-25)21-10-3-2-4-11-21/h5-9,12,15-16,19,21H,2-4,10-11,13-14H2,1H3,(H2,26,27)
InChIKey=XHQIVBKVZTWKFJ-UHFFFAOYSA-N

> <PUBCHEM_SUBSTANCE_SYNONYM>
SCHEMBL16108322

> <PUBCHEM_XREF_EXT_ID>
SCHEMBL16108322

> <PUBCHEM_EXT_DATASOURCE_URL>
https://www.surechembl.org/

> <PUBCHEM_EXT_SUBSTANCE_URL>
https://www.surechembl.org/chemical/SCHEMBL16108322

> <PUBCHEM_CID_ASSOCIATIONS>
86273364  1

> <PUBCHEM_COORDINATE_TYPE>
1
3

$$$$
