310939927
  -OEChem-07211613022D

 28 30  0     1  0  0  0  0  0999 V2000
    1.7862    3.0584    0.0000 Cl  0  0  0  0  0  0  0  0  0  0  0  0
    1.7862    4.7084    0.0000 Cl  0  0  0  0  0  0  0  0  0  0  0  0
    0.3572    2.2334    0.0000 O   0  0  0  0  0  0  0  0  0  0  0  0
   -1.0717    4.7084    0.0000 O   0  0  0  0  0  0  0  0  0  0  0  0
    0.3572   -3.8834    0.0000 O   0  0  0  0  0  0  0  0  0  0  0  0
   -0.3572   -0.6541    0.0000 N   0  0  0  0  0  0  0  0  0  0  0  0
   -0.3572   -2.6459    0.0000 N   0  0  0  0  0  0  0  0  0  0  0  0
   -0.3572    0.9959    0.0000 N   0  0  0  0  0  0  0  0  0  0  0  0
   -1.0717    3.0584    0.0000 N   0  0  0  0  0  0  0  0  0  0  0  0
   -0.3572   -1.4791    0.0000 C   0  0  0  0  0  0  0  0  0  0  0  0
   -0.9406   -2.0625    0.0000 C   0  0  0  0  0  0  0  0  0  0  0  0
    0.2261   -2.0625    0.0000 C   0  0  0  0  0  0  0  0  0  0  0  0
   -0.3572    1.8209    0.0000 C   0  0  0  0  0  0  0  0  0  0  0  0
   -0.3572    3.4709    0.0000 C   0  0  0  0  0  0  0  0  0  0  0  0
   -1.0717    2.2334    0.0000 C   0  0  3  0  0  0  0  0  0  0  0  0
   -1.0717   -0.2416    0.0000 C   0  0  0  0  0  0  0  0  0  0  0  0
    0.3572   -0.2416    0.0000 C   0  0  0  0  0  0  0  0  0  0  0  0
   -0.3572   -3.4709    0.0000 C   0  0  0  0  0  0  0  0  0  0  0  0
   -0.3572    4.2959    0.0000 C   0  0  0  0  0  0  0  0  0  0  0  0
   -1.0717    0.5834    0.0000 C   0  0  0  0  0  0  0  0  0  0  0  0
    0.3572    0.5834    0.0000 C   0  0  0  0  0  0  0  0  0  0  0  0
    1.0717    3.4709    0.0000 C   0  0  0  0  0  0  0  0  0  0  0  0
    0.3572    3.0584    0.0000 C   0  0  0  0  0  0  0  0  0  0  0  0
    1.0717    4.2959    0.0000 C   0  0  0  0  0  0  0  0  0  0  0  0
    0.3572    4.7084    0.0000 C   0  0  0  0  0  0  0  0  0  0  0  0
   -1.0717   -3.8834    0.0000 C   0  0  0  0  0  0  0  0  0  0  0  0
   -1.7862    1.8209    0.0000 C   0  0  0  0  0  0  0  0  0  0  0  0
   -1.0717   -4.7084    0.0000 C   0  0  0  0  0  0  0  0  0  0  0  0
  1 22  1  0  0  0  0
  2 24  1  0  0  0  0
  3 13  2  0  0  0  0
  4 19  1  0  0  0  0
  5 18  2  0  0  0  0
  6 10  1  0  0  0  0
  6 16  1  0  0  0  0
  6 17  1  0  0  0  0
  7 11  1  0  0  0  0
  7 12  1  0  0  0  0
  7 18  1  0  0  0  0
  8 13  1  0  0  0  0
  8 20  1  0  0  0  0
  8 21  1  0  0  0  0
  9 14  1  0  0  0  0
  9 15  1  0  0  0  0
 10 11  1  0  0  0  0
 10 12  1  0  0  0  0
 13 15  1  0  0  0  0
 14 19  1  0  0  0  0
 14 23  2  0  0  0  0
 15 27  1  0  0  0  0
 16 20  1  0  0  0  0
 17 21  1  0  0  0  0
 18 26  1  0  0  0  0
 19 25  2  0  0  0  0
 22 23  1  0  0  0  0
 22 24  2  0  0  0  0
 24 25  1  0  0  0  0
 26 28  2  0  0  0  0
M  END
> <PUBCHEM_COMPOUND_ID_TYPE>
0

> <PUBCHEM_TOTAL_CHARGE>
0

> <PUBCHEM_SUBSTANCE_ID>
310939927

> <PUBCHEM_SUBSTANCE_VERSION>
1

> <PUBCHEM_EXT_DATASOURCE_NAME>
4488

> <PUBCHEM_EXT_DATASOURCE_REGID>
SCHEMBL16117857

> <PUBCHEM_SUBSTANCE_COMMENT>
InChI=1S/C19H24Cl2N4O3/c1-3-18(27)25-10-13(11-25)23-4-6-24(7-5-23)19(28)12(2)22-16-8-14(20)15(21)9-17(16)26/h3,8-9,12-13,22,26H,1,4-7,10-11H2,2H3
InChIKey=BWFPTGMDOVQWST-UHFFFAOYSA-N

> <PUBCHEM_SUBSTANCE_SYNONYM>
SCHEMBL16117857

> <PUBCHEM_XREF_EXT_ID>
SCHEMBL16117857

> <PUBCHEM_EXT_DATASOURCE_URL>
https://www.surechembl.org/

> <PUBCHEM_EXT_SUBSTANCE_URL>
https://www.surechembl.org/chemical/SCHEMBL16117857

> <PUBCHEM_CID_ASSOCIATIONS>
86279884  1

> <PUBCHEM_COORDINATE_TYPE>
1
3

$$$$
