310949435
  -OEChem-07211613022D

 33 37  0     1  0  0  0  0  0999 V2000
   -1.8216    1.3946    0.0000 O   0  0  0  0  0  0  0  0  0  0  0  0
   -0.8681    3.0311    0.0000 O   0  0  0  0  0  0  0  0  0  0  0  0
    1.6081    2.7750    0.0000 O   0  0  0  0  0  0  0  0  0  0  0  0
   -2.1773    2.4477    0.0000 O   0  0  0  0  0  0  0  0  0  0  0  0
   -3.2019    1.0104    0.0000 O   0  0  0  0  0  0  0  0  0  0  0  0
   -2.1915    0.0000    0.0000 O   0  0  0  0  0  0  0  0  0  0  0  0
    3.7569   -3.0311    0.0000 O   0  0  0  0  0  0  0  0  0  0  0  0
    1.4800    1.3519    0.0000 N   0  0  0  0  0  0  0  0  0  0  0  0
    1.3092   -0.8112    0.0000 N   0  0  0  0  0  0  0  0  0  0  0  0
   -0.1708    1.5085    0.0000 C   0  0  0  0  0  0  0  0  0  0  0  0
    0.9962    0.6831    0.0000 C   0  0  0  0  0  0  0  0  0  0  0  0
   -0.9962    1.6081    0.0000 C   0  0  3  0  0  0  0  0  0  0  0  0
    1.4800    0.0142    0.0000 C   0  0  0  0  0  0  0  0  0  0  0  0
    0.3131    2.2057    0.0000 C   0  0  0  0  0  0  0  0  0  0  0  0
    2.2484    0.2704    0.0000 C   0  0  0  0  0  0  0  0  0  0  0  0
    1.1243    2.0919    0.0000 C   0  0  0  0  0  0  0  0  0  0  0  0
    0.1566    0.7685    0.0000 C   0  0  0  0  0  0  0  0  0  0  0  0
    2.2627    1.0816    0.0000 C   0  0  0  0  0  0  0  0  0  0  0  0
    2.9030   -0.2847    0.0000 C   0  0  0  0  0  0  0  0  0  0  0  0
   -1.3234    2.3623    0.0000 C   0  0  0  0  0  0  0  0  0  0  0  0
    2.7039   -1.1100    0.0000 C   0  0  0  0  0  0  0  0  0  0  0  0
    1.9354   -1.3661    0.0000 C   0  0  0  0  0  0  0  0  0  0  0  0
   -0.0142    2.9457    0.0000 C   0  0  0  0  0  0  0  0  0  0  0  0
   -0.7827    0.8112    0.0000 C   0  0  0  0  0  0  0  0  0  0  0  0
    3.3300   -1.6650    0.0000 C   0  0  0  0  0  0  0  0  0  0  0  0
    3.6857   -0.0854    0.0000 C   0  0  0  0  0  0  0  0  0  0  0  0
   -2.3908    0.8112    0.0000 C   0  0  0  0  0  0  0  0  0  0  0  0
    1.7646   -2.1773    0.0000 C   0  0  0  0  0  0  0  0  0  0  0  0
    3.1450   -2.4619    0.0000 C   0  0  0  0  0  0  0  0  0  0  0  0
    2.3623   -2.7323    0.0000 C   0  0  0  0  0  0  0  0  0  0  0  0
   -1.3519    0.2135    0.0000 C   0  0  0  0  0  0  0  0  0  0  0  0
    3.8992    0.7115    0.0000 C   0  0  0  0  0  0  0  0  0  0  0  0
   -3.8992    1.4231    0.0000 C   0  0  0  0  0  0  0  0  0  0  0  0
  1 12  1  0  0  0  0
  1 27  1  0  0  0  0
  2 20  1  0  0  0  0
  2 23  1  0  0  0  0
  3 16  2  0  0  0  0
  4 20  2  0  0  0  0
  5 27  1  0  0  0  0
  5 33  1  0  0  0  0
  6 27  2  0  0  0  0
  7 29  1  0  0  0  0
  8 11  1  0  0  0  0
  8 16  1  0  0  0  0
  8 18  1  0  0  0  0
  9 13  2  0  0  0  0
  9 22  1  0  0  0  0
 10 12  1  0  0  0  0
 10 14  2  0  0  0  0
 10 17  1  0  0  0  0
 11 13  1  0  0  0  0
 11 17  2  0  0  0  0
 12 20  1  0  0  0  0
 12 24  1  0  0  0  0
 13 15  1  0  0  0  0
 14 16  1  0  0  0  0
 14 23  1  0  0  0  0
 15 18  1  0  0  0  0
 15 19  2  0  0  0  0
 19 21  1  0  0  0  0
 19 26  1  0  0  0  0
 21 22  1  0  0  0  0
 21 25  2  0  0  0  0
 22 28  2  0  0  0  0
 24 31  1  0  0  0  0
 25 29  1  0  0  0  0
 26 32  1  0  0  0  0
 28 30  1  0  0  0  0
 29 30  2  0  0  0  0
M  END
> <PUBCHEM_COMPOUND_ID_TYPE>
0

> <PUBCHEM_TOTAL_CHARGE>
0

> <PUBCHEM_SUBSTANCE_ID>
310949435

> <PUBCHEM_SUBSTANCE_VERSION>
1

> <PUBCHEM_EXT_DATASOURCE_NAME>
4488

> <PUBCHEM_EXT_DATASOURCE_REGID>
SCHEMBL16127629

> <PUBCHEM_SUBSTANCE_COMMENT>
InChI=1S/C24H22N2O7/c1-4-13-14-8-12(27)6-7-18(14)25-20-15(13)10-26-19(20)9-17-16(21(26)28)11-32-22(29)24(17,5-2)33-23(30)31-3/h6-9,27H,4-5,10-11H2,1-3H3
InChIKey=LADSJGLNWWLNGJ-UHFFFAOYSA-N

> <PUBCHEM_SUBSTANCE_SYNONYM>
SCHEMBL16127629

> <PUBCHEM_XREF_EXT_ID>
SCHEMBL16127629

> <PUBCHEM_EXT_DATASOURCE_URL>
https://www.surechembl.org/

> <PUBCHEM_EXT_SUBSTANCE_URL>
https://www.surechembl.org/chemical/SCHEMBL16127629

> <PUBCHEM_CID_ASSOCIATIONS>
72312411  1

> <PUBCHEM_COORDINATE_TYPE>
1
3

$$$$
