310930702
  -OEChem-07211613022D

 25 28  0     1  0  0  0  0  0999 V2000
    4.5066   -3.6770    0.0000 O   0  0  0  0  0  0  0  0  0  0  0  0
    0.4260   -0.3812    0.0000 O   0  0  0  0  0  0  0  0  0  0  0  0
    4.7532   -2.2196    0.0000 N   0  0  0  0  0  0  0  0  0  0  0  0
    0.0000   -1.0986    0.0000 N   0  0  0  0  0  0  0  0  0  0  0  0
    4.2599   -1.5694    0.0000 C   0  0  3  0  0  0  0  0  0  0  0  0
    3.4753   -1.7937    0.0000 C   0  0  0  0  0  0  0  0  0  0  0  0
    3.4753   -2.6681    0.0000 C   0  0  0  0  0  0  0  0  0  0  0  0
    4.2599   -2.8923    0.0000 C   0  0  0  0  0  0  0  0  0  0  0  0
    5.0671   -1.4350    0.0000 C   0  0  0  0  0  0  0  0  0  0  0  0
    2.7354   -1.3901    0.0000 C   0  0  0  0  0  0  0  0  0  0  0  0
    2.0403   -1.7937    0.0000 C   0  0  0  0  0  0  0  0  0  0  0  0
    2.7354   -3.0492    0.0000 C   0  0  0  0  0  0  0  0  0  0  0  0
    1.3228   -1.3901    0.0000 C   0  0  0  0  0  0  0  0  0  0  0  0
    4.5066   -0.7847    0.0000 C   0  0  0  0  0  0  0  0  0  0  0  0
    2.0403   -2.6681    0.0000 C   0  0  0  0  0  0  0  0  0  0  0  0
    5.3810   -0.6502    0.0000 C   0  0  0  0  0  0  0  0  0  0  0  0
    5.6052   -2.0627    0.0000 C   0  0  0  0  0  0  0  0  0  0  0  0
    5.5828   -2.2196    0.0000 C   0  0  0  0  0  0  0  0  0  0  0  0
    1.2332   -0.5605    0.0000 C   0  0  0  0  0  0  0  0  0  0  0  0
    0.5605   -1.7040    0.0000 C   0  0  0  0  0  0  0  0  0  0  0  0
    6.1882   -0.5157    0.0000 C   0  0  0  0  0  0  0  0  0  0  0  0
    6.4348   -1.9282    0.0000 C   0  0  0  0  0  0  0  0  0  0  0  0
    6.7263   -1.1659    0.0000 C   0  0  0  0  0  0  0  0  0  0  0  0
    1.8385    0.0000    0.0000 C   0  0  0  0  0  0  0  0  0  0  0  0
    0.3812   -2.5336    0.0000 C   0  0  0  0  0  0  0  0  0  0  0  0
  1  8  2  0  0  0  0
  2  4  1  0  0  0  0
  2 19  1  0  0  0  0
  3  5  1  0  0  0  0
  3  8  1  0  0  0  0
  3 18  1  0  0  0  0
  4 20  2  0  0  0  0
  5  6  1  0  0  0  0
  5  9  1  0  0  0  0
  5 14  1  0  0  0  0
  6  7  2  0  0  0  0
  6 10  1  0  0  0  0
  7  8  1  0  0  0  0
  7 12  1  0  0  0  0
  9 16  2  0  0  0  0
  9 17  1  0  0  0  0
 10 11  2  0  0  0  0
 11 13  1  0  0  0  0
 11 15  1  0  0  0  0
 12 15  2  0  0  0  0
 13 19  2  0  0  0  0
 13 20  1  0  0  0  0
 16 21  1  0  0  0  0
 17 22  2  0  0  0  0
 19 24  1  0  0  0  0
 20 25  1  0  0  0  0
 21 23  2  0  0  0  0
 22 23  1  0  0  0  0
M  END
> <PUBCHEM_COMPOUND_ID_TYPE>
0

> <PUBCHEM_TOTAL_CHARGE>
0

> <PUBCHEM_SUBSTANCE_ID>
310930702

> <PUBCHEM_SUBSTANCE_VERSION>
1

> <PUBCHEM_EXT_DATASOURCE_NAME>
4488

> <PUBCHEM_EXT_DATASOURCE_REGID>
SCHEMBL16107999

> <PUBCHEM_SUBSTANCE_COMMENT>
InChI=1S/C21H20N2O2/c1-13-19(14(2)25-22-13)15-10-11-17-18(12-15)21(3,23(4)20(17)24)16-8-6-5-7-9-16/h5-12H,1-4H3
InChIKey=NOOLACPXFHFONW-UHFFFAOYSA-N

> <PUBCHEM_SUBSTANCE_SYNONYM>
SCHEMBL16107999

> <PUBCHEM_XREF_EXT_ID>
SCHEMBL16107999

> <PUBCHEM_EXT_DATASOURCE_URL>
https://www.surechembl.org/

> <PUBCHEM_EXT_SUBSTANCE_URL>
https://www.surechembl.org/chemical/SCHEMBL16107999

> <PUBCHEM_CID_ASSOCIATIONS>
86295671  1

> <PUBCHEM_COORDINATE_TYPE>
1
3

$$$$
