310935347
  -OEChem-07211613022D

 14 15  0     1  0  0  0  0  0999 V2000
    2.0140   -0.7969    0.0000 S   0  0  0  0  0  0  0  0  0  0  0  0
    2.8254   -0.7244    0.0000 O   0  0  0  0  0  0  0  0  0  0  0  0
    1.2026   -0.8693    0.0000 O   0  0  0  0  0  0  0  0  0  0  0  0
    3.5209   -2.1879    0.0000 N   0  0  0  0  0  0  0  0  0  0  0  0
    0.0000   -2.1879    0.0000 N   0  0  0  0  0  0  0  0  0  0  0  0
    1.6662   -2.1879    0.0000 C   0  0  0  0  0  0  0  0  0  0  0  0
    2.0864   -1.6083    0.0000 C   0  0  3  0  0  0  0  0  0  0  0  0
    2.7095   -2.1879    0.0000 C   0  0  3  0  0  0  0  0  0  0  0  0
    2.0864   -2.7674    0.0000 C   0  0  0  0  0  0  0  0  0  0  0  0
    1.2461   -2.8978    0.0000 C   0  0  0  0  0  0  0  0  0  0  0  0
    1.2461   -1.4779    0.0000 C   0  0  0  0  0  0  0  0  0  0  0  0
    0.4202   -2.8978    0.0000 C   0  0  0  0  0  0  0  0  0  0  0  0
    0.4202   -1.4779    0.0000 C   0  0  0  0  0  0  0  0  0  0  0  0
    1.9415    0.0000    0.0000 C   0  0  0  0  0  0  0  0  0  0  0  0
  1  2  2  0  0  0  0
  1  3  2  0  0  0  0
  1  7  1  0  0  0  0
  1 14  1  0  0  0  0
  4  8  1  0  0  0  0
  5 12  1  0  0  0  0
  5 13  1  0  0  0  0
  6  7  1  0  0  0  0
  6  9  1  0  0  0  0
  6 10  1  0  0  0  0
  6 11  1  0  0  0  0
  7  8  1  0  0  0  0
  8  9  1  0  0  0  0
 10 12  1  0  0  0  0
 11 13  1  0  0  0  0
M  END
> <PUBCHEM_COMPOUND_ID_TYPE>
0

> <PUBCHEM_TOTAL_CHARGE>
0

> <PUBCHEM_SUBSTANCE_ID>
310935347

> <PUBCHEM_SUBSTANCE_VERSION>
1

> <PUBCHEM_EXT_DATASOURCE_NAME>
4488

> <PUBCHEM_EXT_DATASOURCE_REGID>
SCHEMBL16112885

> <PUBCHEM_SUBSTANCE_COMMENT>
InChI=1S/C9H18N2O2S/c1-14(12,13)8-7(10)6-9(8)2-4-11-5-3-9/h7-8,11H,2-6,10H2,1H3
InChIKey=OYWPAUXKNLUEFI-UHFFFAOYSA-N

> <PUBCHEM_SUBSTANCE_SYNONYM>
SCHEMBL16112885

> <PUBCHEM_XREF_EXT_ID>
SCHEMBL16112885

> <PUBCHEM_EXT_DATASOURCE_URL>
https://www.surechembl.org/

> <PUBCHEM_EXT_SUBSTANCE_URL>
https://www.surechembl.org/chemical/SCHEMBL16112885

> <PUBCHEM_CID_ASSOCIATIONS>
117603403  1

> <PUBCHEM_COORDINATE_TYPE>
1
3

$$$$
