310940822
  -OEChem-07211613022D

 41 44  0     1  0  0  0  0  0999 V2000
    5.2008    1.1885    0.0000 O   0  0  0  0  0  0  0  0  0  0  0  0
    4.0652   -0.7797    0.0000 O   0  0  0  0  0  0  0  0  0  0  0  0
    1.6881    1.1734    0.0000 O   0  0  0  0  0  0  0  0  0  0  0  0
   -0.4769   -0.9009    0.0000 O   0  0  0  0  0  0  0  0  0  0  0  0
   -2.6420    1.1734    0.0000 O   0  0  0  0  0  0  0  0  0  0  0  0
   -5.5187   -1.3248    0.0000 O   0  0  0  0  0  0  0  0  0  0  0  0
    2.3998   -0.0682    0.0000 N   0  0  0  0  0  0  0  0  0  0  0  0
    0.2498    0.3407    0.0000 N   0  0  0  0  0  0  0  0  0  0  0  0
   -1.9153   -0.0682    0.0000 N   0  0  0  0  0  0  0  0  0  0  0  0
    4.5648   -2.9751    0.0000 N   0  0  0  0  0  0  0  0  0  0  0  0
    4.7768    0.5072    0.0000 C   0  0  3  0  0  0  0  0  0  0  0  0
    4.0652    0.0985    0.0000 C   0  0  0  0  0  0  0  0  0  0  0  0
    4.3983    1.2036    0.0000 C   0  0  0  0  0  0  0  0  0  0  0  0
    3.3536    0.4921    0.0000 C   0  0  3  0  0  0  0  0  0  0  0  0
    5.5187    0.0682    0.0000 C   0  0  0  0  0  0  0  0  0  0  0  0
    3.3536    1.5519    0.0000 C   0  0  0  0  0  0  0  0  0  0  0  0
    1.6730    0.3407    0.0000 C   0  0  0  0  0  0  0  0  0  0  0  0
    0.9765   -0.0379    0.0000 C   0  0  3  0  0  0  0  0  0  0  0  0
    2.6117    1.9909    0.0000 C   0  0  0  0  0  0  0  0  0  0  0  0
    0.9614   -0.8706    0.0000 C   0  0  0  0  0  0  0  0  0  0  0  0
   -0.4618   -0.0379    0.0000 C   0  0  0  0  0  0  0  0  0  0  0  0
    1.7033   -1.2945    0.0000 C   0  0  0  0  0  0  0  0  0  0  0  0
    1.8850    1.6579    0.0000 C   0  0  0  0  0  0  0  0  0  0  0  0
    2.5360    2.7934    0.0000 C   0  0  0  0  0  0  0  0  0  0  0  0
   -1.1885    0.3710    0.0000 C   0  0  3  0  0  0  0  0  0  0  0  0
   -2.6420    0.3558    0.0000 C   0  0  0  0  0  0  0  0  0  0  0  0
   -3.3536   -0.0379    0.0000 C   0  0  0  0  0  0  0  0  0  0  0  0
    1.3248    2.2635    0.0000 C   0  0  0  0  0  0  0  0  0  0  0  0
    1.7336    2.9751    0.0000 C   0  0  0  0  0  0  0  0  0  0  0  0
    2.3998   -0.8857    0.0000 C   0  0  0  0  0  0  0  0  0  0  0  0
    1.7033   -2.1273    0.0000 C   0  0  0  0  0  0  0  0  0  0  0  0
    3.1265   -2.1121    0.0000 C   0  0  0  0  0  0  0  0  0  0  0  0
    3.1265   -1.3097    0.0000 C   0  0  0  0  0  0  0  0  0  0  0  0
    2.4149   -2.5360    0.0000 C   0  0  0  0  0  0  0  0  0  0  0  0
   -4.0803    0.3558    0.0000 C   0  0  0  0  0  0  0  0  0  0  0  0
   -3.3536   -0.8706    0.0000 C   0  0  0  0  0  0  0  0  0  0  0  0
   -1.1734    1.2188    0.0000 C   0  0  0  0  0  0  0  0  0  0  0  0
   -4.8071   -0.8706    0.0000 C   0  0  0  0  0  0  0  0  0  0  0  0
   -4.7768   -0.0530    0.0000 C   0  0  0  0  0  0  0  0  0  0  0  0
   -4.0652   -1.2794    0.0000 C   0  0  0  0  0  0  0  0  0  0  0  0
    3.8381   -2.5512    0.0000 C   0  0  0  0  0  0  0  0  0  0  0  0
  1 11  1  0  0  0  0
  1 13  1  0  0  0  0
  2 12  2  0  0  0  0
  3 17  2  0  0  0  0
  4 21  2  0  0  0  0
  5 26  2  0  0  0  0
  6 38  1  0  0  0  0
  7 14  1  0  0  0  0
  7 17  1  0  0  0  0
  8 18  1  0  0  0  0
  8 21  1  0  0  0  0
  9 25  1  0  0  0  0
  9 26  1  0  0  0  0
 10 41  3  0  0  0  0
 11 12  1  0  0  0  0
 11 13  1  0  0  0  0
 11 15  1  0  0  0  0
 12 14  1  0  0  0  0
 14 16  1  0  0  0  0
 16 19  1  0  0  0  0
 17 18  1  0  0  0  0
 18 20  1  0  0  0  0
 19 23  1  0  0  0  0
 19 24  1  0  0  0  0
 20 22  1  0  0  0  0
 21 25  1  0  0  0  0
 22 30  2  0  0  0  0
 22 31  1  0  0  0  0
 23 28  1  0  0  0  0
 24 29  1  0  0  0  0
 25 37  1  0  0  0  0
 26 27  1  0  0  0  0
 27 35  1  0  0  0  0
 27 36  1  0  0  0  0
 28 29  1  0  0  0  0
 30 33  1  0  0  0  0
 31 34  2  0  0  0  0
 32 33  2  0  0  0  0
 32 34  1  0  0  0  0
 32 41  1  0  0  0  0
 35 39  1  0  0  0  0
 36 40  1  0  0  0  0
 38 39  1  0  0  0  0
 38 40  1  0  0  0  0
M  END
> <PUBCHEM_COMPOUND_ID_TYPE>
0

> <PUBCHEM_TOTAL_CHARGE>
0

> <PUBCHEM_SUBSTANCE_ID>
310940822

> <PUBCHEM_SUBSTANCE_VERSION>
1

> <PUBCHEM_EXT_DATASOURCE_NAME>
4488

> <PUBCHEM_EXT_DATASOURCE_REGID>
SCHEMBL16118781

> <PUBCHEM_SUBSTANCE_COMMENT>
InChI=1S/C31H42N4O6/c1-19(33-29(39)23-11-13-24(36)14-12-23)28(38)35-26(16-21-7-9-22(17-32)10-8-21)30(40)34-25(15-20-5-3-4-6-20)27(37)31(2)18-41-31/h7-10,19-20,23-26,36H,3-6,11-16,18H2,1-2H3,(H,33,39)(H,34,40)(H,35,38)
InChIKey=JOKICPUZQCKLTH-UHFFFAOYSA-N

> <PUBCHEM_SUBSTANCE_SYNONYM>
SCHEMBL16118781

> <PUBCHEM_XREF_EXT_ID>
SCHEMBL16118781

> <PUBCHEM_EXT_DATASOURCE_URL>
https://www.surechembl.org/

> <PUBCHEM_EXT_SUBSTANCE_URL>
https://www.surechembl.org/chemical/SCHEMBL16118781

> <PUBCHEM_CID_ASSOCIATIONS>
86296130  1

> <PUBCHEM_COORDINATE_TYPE>
1
3

$$$$
