310938281
  -OEChem-07211613022D

 39 43  0     1  0  0  0  0  0999 V2000
    4.3145   -5.3032    0.0000 O   0  0  0  0  0  0  0  0  0  0  0  0
    7.1908   -5.3032    0.0000 O   0  0  0  0  0  0  0  0  0  0  0  0
    6.5167   -2.6066    0.0000 N   0  0  3  0  0  0  0  0  0  0  0  0
    5.7526   -5.3032    0.0000 N   0  0  0  0  0  0  0  0  0  0  0  0
    2.2022   -2.4718    0.0000 N   0  0  0  0  0  0  0  0  0  0  0  0
    1.4382   -1.2134    0.0000 N   0  0  0  0  0  0  0  0  0  0  0  0
    7.8650   -6.5616    0.0000 N   0  0  0  0  0  0  0  0  0  0  0  0
    0.0000   -0.4045    0.0000 N   0  0  0  0  0  0  0  0  0  0  0  0
    5.7526   -3.6404    0.0000 C   0  0  0  0  0  0  0  0  0  0  0  0
    5.7526   -2.8314    0.0000 C   0  0  0  0  0  0  0  0  0  0  0  0
    5.0336   -4.0898    0.0000 C   0  0  0  0  0  0  0  0  0  0  0  0
    4.3145   -2.8314    0.0000 C   0  0  0  0  0  0  0  0  0  0  0  0
    5.0336   -2.4269    0.0000 C   0  0  0  0  0  0  0  0  0  0  0  0
    4.3145   -3.6404    0.0000 C   0  0  0  0  0  0  0  0  0  0  0  0
    6.5167   -3.9100    0.0000 C   0  0  0  0  0  0  0  0  0  0  0  0
    5.0336   -4.8987    0.0000 C   0  0  0  0  0  0  0  0  0  0  0  0
    7.0111   -3.2358    0.0000 C   0  0  0  0  0  0  0  0  0  0  0  0
    3.5954   -2.4269    0.0000 C   0  0  0  0  0  0  0  0  0  0  0  0
    6.7863   -1.7977    0.0000 C   0  0  0  0  0  0  0  0  0  0  0  0
    2.8763   -2.8314    0.0000 C   0  0  0  0  0  0  0  0  0  0  0  0
    3.5954   -1.6180    0.0000 C   0  0  0  0  0  0  0  0  0  0  0  0
    6.4268   -6.5167    0.0000 C   0  0  0  0  0  0  0  0  0  0  0  0
    2.1572   -1.6180    0.0000 C   0  0  0  0  0  0  0  0  0  0  0  0
    5.7526   -6.1122    0.0000 C   0  0  0  0  0  0  0  0  0  0  0  0
    2.8763   -1.2134    0.0000 C   0  0  0  0  0  0  0  0  0  0  0  0
    6.4717   -7.3706    0.0000 C   0  0  0  0  0  0  0  0  0  0  0  0
    7.1908   -6.1571    0.0000 C   0  0  0  0  0  0  0  0  0  0  0  0
    6.2021   -1.2134    0.0000 C   0  0  0  0  0  0  0  0  0  0  0  0
    7.5504   -1.6180    0.0000 C   0  0  0  0  0  0  0  0  0  0  0  0
    7.1459   -7.7751    0.0000 C   0  0  0  0  0  0  0  0  0  0  0  0
    7.8650   -7.3706    0.0000 C   0  0  0  0  0  0  0  0  0  0  0  0
    5.7526   -7.7751    0.0000 C   0  0  0  0  0  0  0  0  0  0  0  0
    1.4382   -0.4045    0.0000 C   0  0  0  0  0  0  0  0  0  0  0  0
    0.7640   -1.6628    0.0000 C   0  0  0  0  0  0  0  0  0  0  0  0
    0.0450   -1.2584    0.0000 C   0  0  0  0  0  0  0  0  0  0  0  0
    0.7191    0.0000    0.0000 C   0  0  0  0  0  0  0  0  0  0  0  0
    8.5841   -7.7751    0.0000 C   0  0  0  0  0  0  0  0  0  0  0  0
    5.7526   -8.5841    0.0000 C   0  0  0  0  0  0  0  0  0  0  0  0
    6.4717   -8.9885    0.0000 C   0  0  0  0  0  0  0  0  0  0  0  0
  1 16  2  0  0  0  0
  2 27  2  0  0  0  0
  3 10  1  0  0  0  0
  3 17  1  0  0  0  0
  3 19  1  0  0  0  0
  4 16  1  0  0  0  0
  4 24  1  0  0  0  0
  5 20  1  0  0  0  0
  5 23  2  0  0  0  0
  6 23  1  0  0  0  0
  6 33  1  0  0  0  0
  6 34  1  0  0  0  0
  7 27  1  0  0  0  0
  7 31  1  0  0  0  0
  8 35  1  0  0  0  0
  8 36  1  0  0  0  0
  9 10  2  0  0  0  0
  9 11  1  0  0  0  0
  9 15  1  0  0  0  0
 10 13  1  0  0  0  0
 11 14  2  0  0  0  0
 11 16  1  0  0  0  0
 12 13  2  0  0  0  0
 12 14  1  0  0  0  0
 12 18  1  0  0  0  0
 15 17  1  0  0  0  0
 18 20  2  0  0  0  0
 18 21  1  0  0  0  0
 19 28  1  0  0  0  0
 19 29  1  0  0  0  0
 21 25  2  0  0  0  0
 22 24  1  0  0  0  0
 22 26  2  0  0  0  0
 22 27  1  0  0  0  0
 23 25  1  0  0  0  0
 26 30  1  0  0  0  0
 26 32  1  0  0  0  0
 30 31  2  0  0  0  0
 31 37  1  0  0  0  0
 32 38  1  0  0  0  0
 33 36  1  0  0  0  0
 34 35  1  0  0  0  0
 38 39  1  0  0  0  0
M  END
> <PUBCHEM_COMPOUND_ID_TYPE>
0

> <PUBCHEM_TOTAL_CHARGE>
0

> <PUBCHEM_SUBSTANCE_ID>
310938281

> <PUBCHEM_SUBSTANCE_VERSION>
1

> <PUBCHEM_EXT_DATASOURCE_NAME>
4488

> <PUBCHEM_EXT_DATASOURCE_REGID>
SCHEMBL16116151

> <PUBCHEM_SUBSTANCE_COMMENT>
InChI=1S/C31H40N6O2/c1-5-6-22-15-21(4)35-31(39)27(22)19-34-30(38)26-16-24(17-28-25(26)9-12-37(28)20(2)3)23-7-8-29(33-18-23)36-13-10-32-11-14-36/h7-8,15-18,20,32H,5-6,9-14,19H2,1-4H3,(H,34,38)(H,35,39)
InChIKey=VNRUXZJCFZMFIZ-UHFFFAOYSA-N

> <PUBCHEM_SUBSTANCE_SYNONYM>
SCHEMBL16116151

> <PUBCHEM_XREF_EXT_ID>
SCHEMBL16116151

> <PUBCHEM_EXT_DATASOURCE_URL>
https://www.surechembl.org/

> <PUBCHEM_EXT_SUBSTANCE_URL>
https://www.surechembl.org/chemical/SCHEMBL16116151

> <PUBCHEM_CID_ASSOCIATIONS>
86272681  1

> <PUBCHEM_COORDINATE_TYPE>
1
3

$$$$
