310935453
  -OEChem-07211613022D

 31 35  0     1  0  0  0  0  0999 V2000
    5.6891   -3.6859    0.0000 S   0  0  0  0  0  0  0  0  0  0  0  0
    6.1431   -4.4871    0.0000 O   0  0  0  0  0  0  0  0  0  0  0  0
    5.2885   -2.9915    0.0000 O   0  0  0  0  0  0  0  0  0  0  0  0
    2.1367   -4.1133    0.0000 N   0  0  3  0  0  0  0  0  0  0  0  0
    0.7212   -4.1133    0.0000 N   0  0  0  0  0  0  0  0  0  0  0  0
    0.0000   -2.8579    0.0000 N   0  0  0  0  0  0  0  0  0  0  0  0
    6.3835   -3.2853    0.0000 N   0  0  0  0  0  0  0  0  0  0  0  0
    3.5791    0.0000    0.0000 N   0  0  0  0  0  0  0  0  0  0  0  0
    1.4423   -2.8579    0.0000 C   0  0  0  0  0  0  0  0  0  0  0  0
    1.4156   -3.6859    0.0000 C   0  0  0  0  0  0  0  0  0  0  0  0
    0.7212   -2.4573    0.0000 C   0  0  0  0  0  0  0  0  0  0  0  0
    3.5791   -4.1133    0.0000 C   0  0  0  0  0  0  0  0  0  0  0  0
    0.7212   -1.6560    0.0000 C   0  0  0  0  0  0  0  0  0  0  0  0
    2.1367   -2.4840    0.0000 C   0  0  0  0  0  0  0  0  0  0  0  0
    2.1367   -1.6560    0.0000 C   0  0  0  0  0  0  0  0  0  0  0  0
    3.5791   -4.9412    0.0000 C   0  0  0  0  0  0  0  0  0  0  0  0
    2.8579   -3.6859    0.0000 C   0  0  0  0  0  0  0  0  0  0  0  0
    4.9679   -4.1133    0.0000 C   0  0  0  0  0  0  0  0  0  0  0  0
    2.1367   -4.9412    0.0000 C   0  0  0  0  0  0  0  0  0  0  0  0
    1.4156   -1.2286    0.0000 C   0  0  0  0  0  0  0  0  0  0  0  0
    4.2735   -3.6859    0.0000 C   0  0  0  0  0  0  0  0  0  0  0  0
    2.8579   -5.3419    0.0000 C   0  0  0  0  0  0  0  0  0  0  0  0
    2.8579   -1.2286    0.0000 C   0  0  0  0  0  0  0  0  0  0  0  0
    0.0000   -3.7126    0.0000 C   0  0  0  0  0  0  0  0  0  0  0  0
    4.2735   -5.3419    0.0000 C   0  0  0  0  0  0  0  0  0  0  0  0
    4.9679   -4.9412    0.0000 C   0  0  0  0  0  0  0  0  0  0  0  0
    0.0000   -1.2286    0.0000 C   0  0  0  0  0  0  0  0  0  0  0  0
    2.8846   -0.4006    0.0000 C   0  0  0  0  0  0  0  0  0  0  0  0
    3.5791   -1.6293    0.0000 C   0  0  0  0  0  0  0  0  0  0  0  0
    4.2735   -1.2286    0.0000 C   0  0  0  0  0  0  0  0  0  0  0  0
    4.3002   -0.4006    0.0000 C   0  0  0  0  0  0  0  0  0  0  0  0
  1  2  2  0  0  0  0
  1  3  2  0  0  0  0
  1  7  1  0  0  0  0
  1 18  1  0  0  0  0
  4 10  1  0  0  0  0
  4 17  1  0  0  0  0
  4 19  1  0  0  0  0
  5 10  1  0  0  0  0
  5 24  2  0  0  0  0
  6 11  2  0  0  0  0
  6 24  1  0  0  0  0
  8 28  1  0  0  0  0
  8 31  2  0  0  0  0
  9 10  2  0  0  0  0
  9 11  1  0  0  0  0
  9 14  1  0  0  0  0
 11 13  1  0  0  0  0
 12 16  2  0  0  0  0
 12 17  1  0  0  0  0
 12 21  1  0  0  0  0
 13 20  2  0  0  0  0
 13 27  1  0  0  0  0
 14 15  2  0  0  0  0
 15 20  1  0  0  0  0
 15 23  1  0  0  0  0
 16 22  1  0  0  0  0
 16 25  1  0  0  0  0
 18 21  2  0  0  0  0
 18 26  1  0  0  0  0
 19 22  1  0  0  0  0
 23 28  2  0  0  0  0
 23 29  1  0  0  0  0
 25 26  2  0  0  0  0
 29 30  2  0  0  0  0
 30 31  1  0  0  0  0
M  END
> <PUBCHEM_COMPOUND_ID_TYPE>
0

> <PUBCHEM_TOTAL_CHARGE>
0

> <PUBCHEM_SUBSTANCE_ID>
310935453

> <PUBCHEM_SUBSTANCE_VERSION>
1

> <PUBCHEM_EXT_DATASOURCE_NAME>
4488

> <PUBCHEM_EXT_DATASOURCE_REGID>
SCHEMBL16112998

> <PUBCHEM_SUBSTANCE_COMMENT>
InChI=1S/C23H21N5O2S/c1-15-9-18(17-3-2-7-25-12-17)11-21-22(15)26-14-27-23(21)28-8-6-16-4-5-20(31(24,29)30)10-19(16)13-28/h2-5,7,9-12,14H,6,8,13H2,1H3,(H2,24,29,30)
InChIKey=GNYQVJLPUFBQJY-UHFFFAOYSA-N

> <PUBCHEM_SUBSTANCE_SYNONYM>
SCHEMBL16112998

> <PUBCHEM_XREF_EXT_ID>
SCHEMBL16112998

> <PUBCHEM_EXT_DATASOURCE_URL>
https://www.surechembl.org/

> <PUBCHEM_EXT_SUBSTANCE_URL>
https://www.surechembl.org/chemical/SCHEMBL16112998

> <PUBCHEM_CID_ASSOCIATIONS>
117603493  1

> <PUBCHEM_COORDINATE_TYPE>
1
3

$$$$
