310942367
  -OEChem-07211613022D

 32 35  0     1  0  0  0  0  0999 V2000
   -0.6432   -1.4752    0.0000 O   0  0  0  0  0  0  0  0  0  0  0  0
   -1.5211    1.2404    0.0000 O   0  0  0  0  0  0  0  0  0  0  0  0
    4.3183    0.7708    0.0000 O   0  0  0  0  0  0  0  0  0  0  0  0
   -3.4301   -0.8831    0.0000 O   0  0  0  0  0  0  0  0  0  0  0  0
    1.6334   -0.4135    0.0000 N   0  0  0  0  0  0  0  0  0  0  0  0
    2.3889   -0.7504    0.0000 N   0  0  0  0  0  0  0  0  0  0  0  0
   -1.0822   -0.1174    0.0000 N   0  0  0  0  0  0  0  0  0  0  0  0
   -3.8691    0.4747    0.0000 N   0  0  0  0  0  0  0  0  0  0  0  0
    1.3782    0.3624    0.0000 C   0  0  0  0  0  0  0  0  0  0  0  0
    0.2961   -0.4135    0.0000 C   0  0  0  0  0  0  0  0  0  0  0  0
    0.9801   -0.8933    0.0000 C   0  0  0  0  0  0  0  0  0  0  0  0
    0.5615    0.3726    0.0000 C   0  0  0  0  0  0  0  0  0  0  0  0
    1.8683    1.0362    0.0000 C   0  0  3  0  0  0  0  0  0  0  0  0
   -0.4594   -0.6483    0.0000 C   0  0  0  0  0  0  0  0  0  0  0  0
    1.0617   -1.7100    0.0000 C   0  0  0  0  0  0  0  0  0  0  0  0
    2.6747    0.9443    0.0000 C   0  0  0  0  0  0  0  0  0  0  0  0
    0.0715    1.0464    0.0000 C   0  0  0  0  0  0  0  0  0  0  0  0
    2.4705   -1.5773    0.0000 C   0  0  0  0  0  0  0  0  0  0  0  0
    1.8172   -2.0571    0.0000 C   0  0  0  0  0  0  0  0  0  0  0  0
   -2.4910    0.1787    0.0000 C   0  0  0  0  0  0  0  0  0  0  0  0
    1.5314    1.8019    0.0000 C   0  0  0  0  0  0  0  0  0  0  0  0
   -1.8580   -0.3726    0.0000 C   0  0  0  0  0  0  0  0  0  0  0  0
   -2.2970    0.9852    0.0000 C   0  0  0  0  0  0  0  0  0  0  0  0
   -3.2464   -0.0561    0.0000 C   0  0  0  0  0  0  0  0  0  0  0  0
    3.1647    1.6181    0.0000 C   0  0  0  0  0  0  0  0  0  0  0  0
    3.0218    0.1991    0.0000 C   0  0  0  0  0  0  0  0  0  0  0  0
   -2.9197    1.5263    0.0000 C   0  0  0  0  0  0  0  0  0  0  0  0
   -3.6956    1.2914    0.0000 C   0  0  0  0  0  0  0  0  0  0  0  0
    3.9916    1.5263    0.0000 C   0  0  0  0  0  0  0  0  0  0  0  0
    3.8385    0.1072    0.0000 C   0  0  0  0  0  0  0  0  0  0  0  0
   -4.3183    1.8325    0.0000 C   0  0  0  0  0  0  0  0  0  0  0  0
   -1.3578    2.0571    0.0000 C   0  0  0  0  0  0  0  0  0  0  0  0
  1 14  2  0  0  0  0
  2 23  1  0  0  0  0
  2 32  1  0  0  0  0
  3 29  1  0  0  0  0
  3 30  1  0  0  0  0
  4 24  2  0  0  0  0
  5  6  1  0  0  0  0
  5  9  1  0  0  0  0
  5 11  1  0  0  0  0
  6 18  2  0  0  0  0
  7 14  1  0  0  0  0
  7 22  1  0  0  0  0
  8 24  1  0  0  0  0
  8 28  1  0  0  0  0
  9 12  2  0  0  0  0
  9 13  1  0  0  0  0
 10 11  2  0  0  0  0
 10 12  1  0  0  0  0
 10 14  1  0  0  0  0
 11 15  1  0  0  0  0
 12 17  1  0  0  0  0
 13 16  1  0  0  0  0
 13 21  1  0  0  0  0
 15 19  2  0  0  0  0
 16 25  1  0  0  0  0
 16 26  1  0  0  0  0
 18 19  1  0  0  0  0
 20 22  1  0  0  0  0
 20 23  2  0  0  0  0
 20 24  1  0  0  0  0
 23 27  1  0  0  0  0
 25 29  1  0  0  0  0
 26 30  1  0  0  0  0
 27 28  2  0  0  0  0
 28 31  1  0  0  0  0
M  END
> <PUBCHEM_COMPOUND_ID_TYPE>
0

> <PUBCHEM_TOTAL_CHARGE>
0

> <PUBCHEM_SUBSTANCE_ID>
310942367

> <PUBCHEM_SUBSTANCE_VERSION>
1

> <PUBCHEM_EXT_DATASOURCE_NAME>
4488

> <PUBCHEM_EXT_DATASOURCE_REGID>
SCHEMBL16120403

> <PUBCHEM_SUBSTANCE_COMMENT>
InChI=1S/C24H30N4O4/c1-14-12-20(31-4)18(23(29)27-14)13-25-24(30)21-16(3)22(28-19(21)6-5-9-26-28)15(2)17-7-10-32-11-8-17/h5-6,9,12,15,17H,7-8,10-11,13H2,1-4H3,(H,25,30)(H,27,29)
InChIKey=VDKHWLDQZYRJDQ-UHFFFAOYSA-N

> <PUBCHEM_SUBSTANCE_SYNONYM>
SCHEMBL16120403

> <PUBCHEM_XREF_EXT_ID>
SCHEMBL16120403

> <PUBCHEM_EXT_DATASOURCE_URL>
https://www.surechembl.org/

> <PUBCHEM_EXT_SUBSTANCE_URL>
https://www.surechembl.org/chemical/SCHEMBL16120403

> <PUBCHEM_CID_ASSOCIATIONS>
86299764  1

> <PUBCHEM_COORDINATE_TYPE>
1
3

$$$$
