310946534
  -OEChem-07211613022D

 21 21  0     1  0  0  0  0  0999 V2000
   -6.5672  -11.0837    0.0000 O   0  0  0  0  0  0  0  0  0  0  0  0
   -7.9961  -11.0837    0.0000 O   0  0  0  0  0  0  0  0  0  0  0  0
   -7.6515  -14.5265    0.0000 O   0  0  0  0  0  0  0  0  0  0  0  0
   -8.3660  -13.2890    0.0000 O   0  0  0  0  0  0  0  0  0  0  0  0
   -7.2817  -12.3212    0.0000 N   0  0  0  0  0  0  0  0  0  0  0  0
   -7.0681  -13.1181    0.0000 C   0  0  3  0  0  0  0  0  0  0  0  0
   -6.3537  -10.2868    0.0000 C   0  0  0  0  0  0  0  0  0  0  0  0
   -7.2817  -11.4962    0.0000 C   0  0  0  0  0  0  0  0  0  0  0  0
   -6.2712  -13.3316    0.0000 C   0  0  3  0  0  0  0  0  0  0  0  0
   -7.6515  -13.7015    0.0000 C   0  0  0  0  0  0  0  0  0  0  0  0
   -5.5568  -10.0733    0.0000 C   0  0  0  0  0  0  0  0  0  0  0  0
   -5.3432   -9.2764    0.0000 C   0  0  0  0  0  0  0  0  0  0  0  0
   -6.9370   -9.7035    0.0000 C   0  0  0  0  0  0  0  0  0  0  0  0
   -5.9266   -8.6930    0.0000 C   0  0  0  0  0  0  0  0  0  0  0  0
   -6.7235   -8.9066    0.0000 C   0  0  0  0  0  0  0  0  0  0  0  0
   -5.6879  -12.7483    0.0000 C   0  0  0  0  0  0  0  0  0  0  0  0
   -4.5464   -9.0629    0.0000 C   0  0  0  0  0  0  0  0  0  0  0  0
   -6.0577  -14.1285    0.0000 C   0  0  0  0  0  0  0  0  0  0  0  0
   -4.3328   -8.2660    0.0000 C   0  0  0  0  0  0  0  0  0  0  0  0
   -4.8910  -12.9618    0.0000 C   0  0  0  0  0  0  0  0  0  0  0  0
   -3.5359   -8.0525    0.0000 C   0  0  0  0  0  0  0  0  0  0  0  0
  1  7  1  0  0  0  0
  1  8  1  0  0  0  0
  2  8  2  0  0  0  0
  3 10  2  0  0  0  0
  4 10  1  0  0  0  0
  5  6  1  0  0  0  0
  5  8  1  0  0  0  0
  6  9  1  0  0  0  0
  6 10  1  0  0  0  0
  7 11  2  0  0  0  0
  7 13  1  0  0  0  0
  9 16  1  0  0  0  0
  9 18  1  0  0  0  0
 11 12  1  0  0  0  0
 12 14  2  0  0  0  0
 12 17  1  0  0  0  0
 13 15  2  0  0  0  0
 14 15  1  0  0  0  0
 16 20  1  0  0  0  0
 17 19  1  0  0  0  0
 19 21  1  0  0  0  0
M  END
> <PUBCHEM_COMPOUND_ID_TYPE>
0

> <PUBCHEM_TOTAL_CHARGE>
0

> <PUBCHEM_SUBSTANCE_ID>
310946534

> <PUBCHEM_SUBSTANCE_VERSION>
1

> <PUBCHEM_EXT_DATASOURCE_NAME>
4488

> <PUBCHEM_EXT_DATASOURCE_REGID>
SCHEMBL16124655

> <PUBCHEM_SUBSTANCE_COMMENT>
InChI=1S/C16H23NO4/c1-4-7-12-8-6-9-13(10-12)21-16(20)17-14(15(18)19)11(3)5-2/h6,8-11,14H,4-5,7H2,1-3H3,(H,17,20)(H,18,19)
InChIKey=XTFMGKXTKQGYQF-UHFFFAOYSA-N

> <PUBCHEM_SUBSTANCE_SYNONYM>
SCHEMBL16124655

> <PUBCHEM_XREF_EXT_ID>
SCHEMBL16124655

> <PUBCHEM_EXT_DATASOURCE_URL>
https://www.surechembl.org/

> <PUBCHEM_EXT_SUBSTANCE_URL>
https://www.surechembl.org/chemical/SCHEMBL16124655

> <PUBCHEM_CID_ASSOCIATIONS>
117612439  1

> <PUBCHEM_COORDINATE_TYPE>
1
3

$$$$
