310949365
  -OEChem-07211613022D

 28 29  0     1  0  0  0  0  0999 V2000
   -0.1366    1.1182    0.0000 F   0  0  0  0  0  0  0  0  0  0  0  0
    0.0869    1.9258    0.0000 F   0  0  0  0  0  0  0  0  0  0  0  0
    0.8821    2.1370    0.0000 F   0  0  0  0  0  0  0  0  0  0  0  0
    2.9942   -1.0064    0.0000 O   0  0  0  0  0  0  0  0  0  0  0  0
    1.9009   -2.0997    0.0000 N   0  0  0  0  0  0  0  0  0  0  0  0
    1.5406   -2.7706    0.0000 N   0  0  0  0  0  0  0  0  0  0  0  0
   -0.8075   -1.6897    0.0000 N   0  0  3  0  0  0  0  0  0  0  0  0
   -2.9570   -1.2797    0.0000 N   0  0  0  0  0  0  0  0  0  0  0  0
    1.6276   -0.6337    0.0000 C   0  0  0  0  0  0  0  0  0  0  0  0
    1.2673    0.7579    0.0000 C   0  0  0  0  0  0  0  0  0  0  0  0
    1.4039   -1.4412    0.0000 C   0  0  0  0  0  0  0  0  0  0  0  0
    2.4227   -0.4100    0.0000 C   0  0  0  0  0  0  0  0  0  0  0  0
    2.0500    0.9691    0.0000 C   0  0  0  0  0  0  0  0  0  0  0  0
    1.0561   -0.0497    0.0000 C   0  0  0  0  0  0  0  0  0  0  0  0
    0.6585    1.3543    0.0000 C   0  0  0  0  0  0  0  0  0  0  0  0
    0.6212   -1.6897    0.0000 C   0  0  0  0  0  0  0  0  0  0  0  0
    2.6339    0.3727    0.0000 C   0  0  0  0  0  0  0  0  0  0  0  0
    2.2736    1.7642    0.0000 C   0  0  0  0  0  0  0  0  0  0  0  0
    0.6212   -2.5097    0.0000 C   0  0  0  0  0  0  0  0  0  0  0  0
   -0.0994   -1.2797    0.0000 C   0  0  0  0  0  0  0  0  0  0  0  0
    3.0688    1.9755    0.0000 C   0  0  0  0  0  0  0  0  0  0  0  0
    2.8079   -1.8015    0.0000 C   0  0  0  0  0  0  0  0  0  0  0  0
   -1.5406   -1.2797    0.0000 C   0  0  0  0  0  0  0  0  0  0  0  0
    3.2800    2.7706    0.0000 C   0  0  0  0  0  0  0  0  0  0  0  0
    3.6651    1.4039    0.0000 C   0  0  0  0  0  0  0  0  0  0  0  0
   -0.7952   -2.5221    0.0000 C   0  0  0  0  0  0  0  0  0  0  0  0
   -2.2364   -1.6897    0.0000 C   0  0  0  0  0  0  0  0  0  0  0  0
   -3.6651   -1.7021    0.0000 C   0  0  0  0  0  0  0  0  0  0  0  0
  1 15  1  0  0  0  0
  2 15  1  0  0  0  0
  3 15  1  0  0  0  0
  4 12  1  0  0  0  0
  4 22  1  0  0  0  0
  5  6  1  0  0  0  0
  5 11  2  0  0  0  0
  6 19  1  0  0  0  0
  7 20  1  0  0  0  0
  7 23  1  0  0  0  0
  7 26  1  0  0  0  0
  8 27  1  0  0  0  0
  8 28  1  0  0  0  0
  9 11  1  0  0  0  0
  9 12  1  0  0  0  0
  9 14  2  0  0  0  0
 10 13  2  0  0  0  0
 10 14  1  0  0  0  0
 10 15  1  0  0  0  0
 11 16  1  0  0  0  0
 12 17  2  0  0  0  0
 13 17  1  0  0  0  0
 13 18  1  0  0  0  0
 16 19  2  0  0  0  0
 16 20  1  0  0  0  0
 18 21  1  0  0  0  0
 21 24  1  0  0  0  0
 21 25  1  0  0  0  0
 23 27  1  0  0  0  0
M  END
> <PUBCHEM_COMPOUND_ID_TYPE>
0

> <PUBCHEM_TOTAL_CHARGE>
0

> <PUBCHEM_SUBSTANCE_ID>
310949365

> <PUBCHEM_SUBSTANCE_VERSION>
1

> <PUBCHEM_EXT_DATASOURCE_NAME>
4488

> <PUBCHEM_EXT_DATASOURCE_REGID>
SCHEMBL16127557

> <PUBCHEM_SUBSTANCE_COMMENT>
InChI=1S/C20H29F3N4O/c1-13(2)8-14-9-18(28-5)16(10-17(14)20(21,22)23)19-15(11-25-26-19)12-27(4)7-6-24-3/h9-11,13,24H,6-8,12H2,1-5H3,(H,25,26)
InChIKey=ZECGEENMDFMAHB-UHFFFAOYSA-N

> <PUBCHEM_SUBSTANCE_SYNONYM>
SCHEMBL16127557

> <PUBCHEM_XREF_EXT_ID>
SCHEMBL16127557

> <PUBCHEM_EXT_DATASOURCE_URL>
https://www.surechembl.org/

> <PUBCHEM_EXT_SUBSTANCE_URL>
https://www.surechembl.org/chemical/SCHEMBL16127557

> <PUBCHEM_CID_ASSOCIATIONS>
117614828  1

> <PUBCHEM_COORDINATE_TYPE>
1
3

$$$$
