310935753
  -OEChem-07211613022D

 28 29  0     1  0  0  0  0  0999 V2000
    0.6411   -0.5396    0.0000 S   0  0  0  0  0  0  0  0  0  0  0  0
   -0.4859   -0.2376    0.0000 F   0  0  0  0  0  0  0  0  0  0  0  0
    0.3391   -1.6665    0.0000 F   0  0  0  0  0  0  0  0  0  0  0  0
   -0.7878   -1.3646    0.0000 F   0  0  0  0  0  0  0  0  0  0  0  0
    1.3556   -0.1271    0.0000 O   0  0  0  0  0  0  0  0  0  0  0  0
    0.2286    0.1749    0.0000 O   0  0  0  0  0  0  0  0  0  0  0  0
    1.0536   -1.2540    0.0000 O   0  0  0  0  0  0  0  0  0  0  0  0
    2.7845   -0.1271    0.0000 O   0  0  0  0  0  0  0  0  0  0  0  0
   -1.8659    2.2374    0.0000 O   0  0  0  0  0  0  0  0  0  0  0  0
    4.2135    0.6979    0.0000 O   0  0  0  0  0  0  0  0  0  0  0  0
   -1.8659    0.8085    0.0000 O   0  0  0  0  0  0  0  0  0  0  0  0
    3.4990    1.9354    0.0000 O   0  0  0  0  0  0  0  0  0  0  0  0
    0.6411    1.9354    0.0000 N   0  0  0  0  0  0  0  0  0  0  0  0
   -0.1435    2.1904    0.0000 N   0  0  0  0  0  0  0  0  0  0  0  0
    1.3556    0.6979    0.0000 C   0  0  0  0  0  0  0  0  0  0  0  0
    0.6411    1.1104    0.0000 C   0  0  0  0  0  0  0  0  0  0  0  0
    2.0701    1.1104    0.0000 C   0  0  0  0  0  0  0  0  0  0  0  0
    2.0701    1.9354    0.0000 C   0  0  0  0  0  0  0  0  0  0  0  0
   -0.0734   -0.9521    0.0000 C   0  0  0  0  0  0  0  0  0  0  0  0
   -0.1435    0.8555    0.0000 C   0  0  0  0  0  0  0  0  0  0  0  0
    1.3556    2.3479    0.0000 C   0  0  0  0  0  0  0  0  0  0  0  0
   -0.6284    1.5229    0.0000 C   0  0  0  0  0  0  0  0  0  0  0  0
    2.7845    0.6979    0.0000 C   0  0  3  0  0  0  0  0  0  0  0  0
   -1.4534    1.5229    0.0000 C   0  0  0  0  0  0  0  0  0  0  0  0
    3.4990    1.1104    0.0000 C   0  0  0  0  0  0  0  0  0  0  0  0
    2.7845    2.3479    0.0000 C   0  0  0  0  0  0  0  0  0  0  0  0
   -2.6909    2.2374    0.0000 C   0  0  0  0  0  0  0  0  0  0  0  0
    4.9279    1.1104    0.0000 C   0  0  0  0  0  0  0  0  0  0  0  0
  1  5  1  0  0  0  0
  1  6  2  0  0  0  0
  1  7  2  0  0  0  0
  1 19  1  0  0  0  0
  2 19  1  0  0  0  0
  3 19  1  0  0  0  0
  4 19  1  0  0  0  0
  5 15  1  0  0  0  0
  8 23  1  0  0  0  0
  9 24  1  0  0  0  0
  9 27  1  0  0  0  0
 10 25  1  0  0  0  0
 10 28  1  0  0  0  0
 11 24  2  0  0  0  0
 12 25  2  0  0  0  0
 13 14  1  0  0  0  0
 13 16  1  0  0  0  0
 13 21  1  0  0  0  0
 14 22  2  0  0  0  0
 15 16  1  0  0  0  0
 15 17  2  0  0  0  0
 16 20  2  0  0  0  0
 17 18  1  0  0  0  0
 17 23  1  0  0  0  0
 18 21  2  0  0  0  0
 18 26  1  0  0  0  0
 20 22  1  0  0  0  0
 22 24  1  0  0  0  0
 23 25  1  0  0  0  0
M  END
> <PUBCHEM_COMPOUND_ID_TYPE>
0

> <PUBCHEM_TOTAL_CHARGE>
0

> <PUBCHEM_SUBSTANCE_ID>
310935753

> <PUBCHEM_SUBSTANCE_VERSION>
1

> <PUBCHEM_EXT_DATASOURCE_NAME>
4488

> <PUBCHEM_EXT_DATASOURCE_REGID>
SCHEMBL16113337

> <PUBCHEM_SUBSTANCE_COMMENT>
InChI=1S/C14H13F3N2O8S/c1-6-5-19-8(4-7(18-19)12(21)25-2)11(9(6)10(20)13(22)26-3)27-28(23,24)14(15,16)17/h4-5,10,20H,1-3H3
InChIKey=SSQLTWMJURBECB-UHFFFAOYSA-N

> <PUBCHEM_SUBSTANCE_SYNONYM>
SCHEMBL16113337

> <PUBCHEM_XREF_EXT_ID>
SCHEMBL16113337

> <PUBCHEM_EXT_DATASOURCE_URL>
https://www.surechembl.org/

> <PUBCHEM_EXT_SUBSTANCE_URL>
https://www.surechembl.org/chemical/SCHEMBL16113337

> <PUBCHEM_CID_ASSOCIATIONS>
117603754  1

> <PUBCHEM_COORDINATE_TYPE>
1
3

$$$$
