310932270
  -OEChem-07211613022D

 26 29  0     1  0  0  0  0  0999 V2000
    0.6910   -2.4762    0.0000 O   0  0  0  0  0  0  0  0  0  0  0  0
    1.4108   -3.6855    0.0000 N   0  0  0  0  0  0  0  0  0  0  0  0
    2.1307   -2.4762    0.0000 N   0  0  0  0  0  0  0  0  0  0  0  0
    2.1307   -4.1174    0.0000 C   0  0  3  0  0  0  0  0  0  0  0  0
    2.8505   -3.6855    0.0000 C   0  0  0  0  0  0  0  0  0  0  0  0
    2.8505   -2.8793    0.0000 C   0  0  0  0  0  0  0  0  0  0  0  0
    1.4108   -2.8793    0.0000 C   0  0  0  0  0  0  0  0  0  0  0  0
    1.4397   -4.5205    0.0000 C   0  0  0  0  0  0  0  0  0  0  0  0
    3.5415   -4.1174    0.0000 C   0  0  0  0  0  0  0  0  0  0  0  0
    2.1307   -4.9236    0.0000 C   0  0  0  0  0  0  0  0  0  0  0  0
    3.5415   -2.4762    0.0000 C   0  0  0  0  0  0  0  0  0  0  0  0
    2.1307   -1.6412    0.0000 C   0  0  0  0  0  0  0  0  0  0  0  0
    1.4397   -5.3555    0.0000 C   0  0  0  0  0  0  0  0  0  0  0  0
    0.8638   -4.2901    0.0000 C   0  0  0  0  0  0  0  0  0  0  0  0
    0.6910   -4.1174    0.0000 C   0  0  0  0  0  0  0  0  0  0  0  0
    4.2613   -3.6855    0.0000 C   0  0  0  0  0  0  0  0  0  0  0  0
    4.2613   -2.8793    0.0000 C   0  0  0  0  0  0  0  0  0  0  0  0
    1.4108   -1.2381    0.0000 C   0  0  0  0  0  0  0  0  0  0  0  0
    0.7198   -5.7586    0.0000 C   0  0  0  0  0  0  0  0  0  0  0  0
    0.0000   -4.5205    0.0000 C   0  0  0  0  0  0  0  0  0  0  0  0
    0.0000   -5.3555    0.0000 C   0  0  0  0  0  0  0  0  0  0  0  0
    1.4397   -0.4319    0.0000 C   0  0  0  0  0  0  0  0  0  0  0  0
    0.7198   -1.6412    0.0000 C   0  0  0  0  0  0  0  0  0  0  0  0
    0.7198    0.0000    0.0000 C   0  0  0  0  0  0  0  0  0  0  0  0
    0.0000   -1.2381    0.0000 C   0  0  0  0  0  0  0  0  0  0  0  0
    0.0000   -0.4031    0.0000 C   0  0  0  0  0  0  0  0  0  0  0  0
  1  7  2  0  0  0  0
  2  4  1  0  0  0  0
  2  7  1  0  0  0  0
  2 15  1  0  0  0  0
  3  6  1  0  0  0  0
  3  7  1  0  0  0  0
  3 12  1  0  0  0  0
  4  5  1  0  0  0  0
  4  8  1  0  0  0  0
  4 10  1  0  0  0  0
  5  6  2  0  0  0  0
  5  9  1  0  0  0  0
  6 11  1  0  0  0  0
  8 13  2  0  0  0  0
  8 14  1  0  0  0  0
  9 16  2  0  0  0  0
 11 17  2  0  0  0  0
 12 18  1  0  0  0  0
 13 19  1  0  0  0  0
 14 20  2  0  0  0  0
 16 17  1  0  0  0  0
 18 22  2  0  0  0  0
 18 23  1  0  0  0  0
 19 21  2  0  0  0  0
 20 21  1  0  0  0  0
 22 24  1  0  0  0  0
 23 25  2  0  0  0  0
 24 26  2  0  0  0  0
 25 26  1  0  0  0  0
M  END
> <PUBCHEM_COMPOUND_ID_TYPE>
0

> <PUBCHEM_TOTAL_CHARGE>
0

> <PUBCHEM_SUBSTANCE_ID>
310932270

> <PUBCHEM_SUBSTANCE_VERSION>
1

> <PUBCHEM_EXT_DATASOURCE_NAME>
4488

> <PUBCHEM_EXT_DATASOURCE_REGID>
SCHEMBL16109630

> <PUBCHEM_SUBSTANCE_COMMENT>
InChI=1S/C23H22N2O/c1-23(19-13-7-4-8-14-19)20-15-9-10-16-21(20)25(22(26)24(23)2)17-18-11-5-3-6-12-18/h3-16H,17H2,1-2H3
InChIKey=JTXPTQVYRBYBSG-UHFFFAOYSA-N

> <PUBCHEM_SUBSTANCE_SYNONYM>
SCHEMBL16109630

> <PUBCHEM_XREF_EXT_ID>
SCHEMBL16109630

> <PUBCHEM_EXT_DATASOURCE_URL>
https://www.surechembl.org/

> <PUBCHEM_EXT_SUBSTANCE_URL>
https://www.surechembl.org/chemical/SCHEMBL16109630

> <PUBCHEM_CID_ASSOCIATIONS>
117600837  1

> <PUBCHEM_COORDINATE_TYPE>
1
3

$$$$
