310947751
  -OEChem-07211613022D

 24 25  0     1  0  0  0  0  0999 V2000
   -0.4831   -2.2933    0.0000 N   0  0  0  0  0  0  0  0  0  0  0  0
   -0.6407    0.6348    0.0000 N   0  0  0  0  0  0  0  0  0  0  0  0
    0.1843   -2.7782    0.0000 N   0  0  0  0  0  0  0  0  0  0  0  0
   -1.8782    1.3492    0.0000 N   0  0  3  0  0  0  0  0  0  0  0  0
    1.9771   -1.1388    0.0000 N   0  0  3  0  0  0  0  0  0  0  0  0
    3.9407   -0.1856    0.0000 N   0  0  0  0  0  0  0  0  0  0  0  0
   -0.2282   -1.5086    0.0000 C   0  0  0  0  0  0  0  0  0  0  0  0
   -0.6407   -0.7942    0.0000 C   0  0  0  0  0  0  0  0  0  0  0  0
    0.5968   -1.5086    0.0000 C   0  0  0  0  0  0  0  0  0  0  0  0
   -1.4657    0.6348    0.0000 C   0  0  0  0  0  0  0  0  0  0  0  0
   -0.2282   -0.0797    0.0000 C   0  0  0  0  0  0  0  0  0  0  0  0
   -1.4657   -0.7942    0.0000 C   0  0  0  0  0  0  0  0  0  0  0  0
    0.8518   -2.2933    0.0000 C   0  0  0  0  0  0  0  0  0  0  0  0
    1.1802   -0.9253    0.0000 C   0  0  0  0  0  0  0  0  0  0  0  0
   -1.8782   -0.0797    0.0000 C   0  0  0  0  0  0  0  0  0  0  0  0
   -2.7032    1.3492    0.0000 C   0  0  0  0  0  0  0  0  0  0  0  0
    2.5604   -0.5554    0.0000 C   0  0  0  0  0  0  0  0  0  0  0  0
   -1.4657    2.0637    0.0000 C   0  0  0  0  0  0  0  0  0  0  0  0
   -3.1157    2.0637    0.0000 C   0  0  0  0  0  0  0  0  0  0  0  0
    2.1906   -1.9357    0.0000 C   0  0  0  0  0  0  0  0  0  0  0  0
    3.3573   -0.7690    0.0000 C   0  0  0  0  0  0  0  0  0  0  0  0
   -2.7032    2.7782    0.0000 C   0  0  0  0  0  0  0  0  0  0  0  0
   -3.9407    2.0637    0.0000 C   0  0  0  0  0  0  0  0  0  0  0  0
    3.7272    0.6113    0.0000 C   0  0  0  0  0  0  0  0  0  0  0  0
  1  3  1  0  0  0  0
  1  7  2  0  0  0  0
  2 10  1  0  0  0  0
  2 11  2  0  0  0  0
  3 13  1  0  0  0  0
  4 10  1  0  0  0  0
  4 16  1  0  0  0  0
  4 18  1  0  0  0  0
  5 14  1  0  0  0  0
  5 17  1  0  0  0  0
  5 20  1  0  0  0  0
  6 21  1  0  0  0  0
  6 24  1  0  0  0  0
  7  8  1  0  0  0  0
  7  9  1  0  0  0  0
  8 11  1  0  0  0  0
  8 12  2  0  0  0  0
  9 13  2  0  0  0  0
  9 14  1  0  0  0  0
 10 15  2  0  0  0  0
 12 15  1  0  0  0  0
 16 19  1  0  0  0  0
 17 21  1  0  0  0  0
 19 22  1  0  0  0  0
 19 23  1  0  0  0  0
M  END
> <PUBCHEM_COMPOUND_ID_TYPE>
0

> <PUBCHEM_TOTAL_CHARGE>
0

> <PUBCHEM_SUBSTANCE_ID>
310947751

> <PUBCHEM_SUBSTANCE_VERSION>
1

> <PUBCHEM_EXT_DATASOURCE_NAME>
4488

> <PUBCHEM_EXT_DATASOURCE_REGID>
SCHEMBL16125923

> <PUBCHEM_SUBSTANCE_COMMENT>
InChI=1S/C18H30N6/c1-14(2)12-24(5)17-7-6-15(10-20-17)18-16(11-21-22-18)13-23(4)9-8-19-3/h6-7,10-11,14,19H,8-9,12-13H2,1-5H3,(H,21,22)
InChIKey=KESUFBZIBSOZDO-UHFFFAOYSA-N

> <PUBCHEM_SUBSTANCE_SYNONYM>
SCHEMBL16125923

> <PUBCHEM_XREF_EXT_ID>
SCHEMBL16125923

> <PUBCHEM_EXT_DATASOURCE_URL>
https://www.surechembl.org/

> <PUBCHEM_EXT_SUBSTANCE_URL>
https://www.surechembl.org/chemical/SCHEMBL16125923

> <PUBCHEM_CID_ASSOCIATIONS>
86301859  1

> <PUBCHEM_COORDINATE_TYPE>
1
3

$$$$
