310939045
  -OEChem-07211613022D

 30 29  0     1  0  0  0  0  0999 V2000
   -3.6980    0.4995    0.0000 O   0  0  0  0  0  0  0  0  0  0  0  0
   -4.4125    1.7370    0.0000 O   0  0  0  0  0  0  0  0  0  0  0  0
   -4.1611   -1.7370    0.0000 O   0  0  0  0  0  0  0  0  0  0  0  0
   -5.1270   -0.3255    0.0000 N   0  0  0  0  0  0  0  0  0  0  0  0
   -5.1270    0.4995    0.0000 C   0  0  3  0  0  0  0  0  0  0  0  0
   -4.4125    0.9120    0.0000 C   0  0  0  0  0  0  0  0  0  0  0  0
   -5.8415    0.9120    0.0000 C   0  0  0  0  0  0  0  0  0  0  0  0
   -4.1611   -0.9120    0.0000 C   0  0  0  0  0  0  0  0  0  0  0  0
   -3.4467   -0.4995    0.0000 C   0  0  0  0  0  0  0  0  0  0  0  0
   -2.9836    0.9120    0.0000 C   0  0  0  0  0  0  0  0  0  0  0  0
   -5.8415    1.7370    0.0000 C   0  0  0  0  0  0  0  0  0  0  0  0
   -6.5559    0.4995    0.0000 C   0  0  0  0  0  0  0  0  0  0  0  0
   -2.7322   -0.9120    0.0000 C   0  0  0  0  0  0  0  0  0  0  0  0
   -2.2691    0.4995    0.0000 C   0  0  0  0  0  0  0  0  0  0  0  0
   -1.5546    0.9120    0.0000 C   0  0  0  0  0  0  0  0  0  0  0  0
   -2.0177   -0.4995    0.0000 C   0  0  0  0  0  0  0  0  0  0  0  0
   -1.3033   -0.9120    0.0000 C   0  0  0  0  0  0  0  0  0  0  0  0
   -0.5888   -0.4995    0.0000 C   0  0  0  0  0  0  0  0  0  0  0  0
   -0.8402    0.4995    0.0000 C   0  0  0  0  0  0  0  0  0  0  0  0
   -1.5546    1.7370    0.0000 C   0  0  0  0  0  0  0  0  0  0  0  0
    0.1257   -0.9120    0.0000 C   0  0  0  0  0  0  0  0  0  0  0  0
    0.8402   -0.4995    0.0000 C   0  0  0  0  0  0  0  0  0  0  0  0
    1.5546   -0.9120    0.0000 C   0  0  0  0  0  0  0  0  0  0  0  0
    2.2691   -0.4995    0.0000 C   0  0  0  0  0  0  0  0  0  0  0  0
    2.9836   -0.9120    0.0000 C   0  0  0  0  0  0  0  0  0  0  0  0
    3.6980   -0.4995    0.0000 C   0  0  0  0  0  0  0  0  0  0  0  0
    4.4125   -0.9120    0.0000 C   0  0  0  0  0  0  0  0  0  0  0  0
    5.1270   -0.4995    0.0000 C   0  0  0  0  0  0  0  0  0  0  0  0
    5.8415   -0.9120    0.0000 C   0  0  0  0  0  0  0  0  0  0  0  0
    6.5559   -0.4995    0.0000 C   0  0  0  0  0  0  0  0  0  0  0  0
  1  6  1  0  0  0  0
  1 10  1  0  0  0  0
  2  6  2  0  0  0  0
  3  8  2  0  0  0  0
  4  5  1  0  0  0  0
  4  8  1  0  0  0  0
  5  6  1  0  0  0  0
  5  7  1  0  0  0  0
  7 11  1  0  0  0  0
  7 12  1  0  0  0  0
  8  9  1  0  0  0  0
  9 13  1  0  0  0  0
 10 14  1  0  0  0  0
 13 16  1  0  0  0  0
 14 15  1  0  0  0  0
 15 19  1  0  0  0  0
 15 20  1  0  0  0  0
 16 17  1  0  0  0  0
 17 18  1  0  0  0  0
 18 21  1  0  0  0  0
 21 22  1  0  0  0  0
 22 23  1  0  0  0  0
 23 24  1  0  0  0  0
 24 25  1  0  0  0  0
 25 26  1  0  0  0  0
 26 27  1  0  0  0  0
 27 28  1  0  0  0  0
 28 29  1  0  0  0  0
 29 30  1  0  0  0  0
M  END
> <PUBCHEM_COMPOUND_ID_TYPE>
0

> <PUBCHEM_TOTAL_CHARGE>
0

> <PUBCHEM_SUBSTANCE_ID>
310939045

> <PUBCHEM_SUBSTANCE_VERSION>
1

> <PUBCHEM_EXT_DATASOURCE_NAME>
4488

> <PUBCHEM_EXT_DATASOURCE_REGID>
SCHEMBL16116964

> <PUBCHEM_SUBSTANCE_COMMENT>
InChI=1S/C26H51NO3/c1-6-7-8-9-10-11-12-13-14-15-16-17-18-19-24(28)27-25(23(4)5)26(29)30-21-20-22(2)3/h22-23,25H,6-21H2,1-5H3,(H,27,28)
InChIKey=PUFFBFJVWTXGRH-UHFFFAOYSA-N

> <PUBCHEM_SUBSTANCE_SYNONYM>
SCHEMBL16116964

> <PUBCHEM_XREF_EXT_ID>
SCHEMBL16116964

> <PUBCHEM_EXT_DATASOURCE_URL>
https://www.surechembl.org/

> <PUBCHEM_EXT_SUBSTANCE_URL>
https://www.surechembl.org/chemical/SCHEMBL16116964

> <PUBCHEM_CID_ASSOCIATIONS>
117606415  1

> <PUBCHEM_COORDINATE_TYPE>
1
3

$$$$
