310936881
  -OEChem-07211613022D

 24 25  0     1  0  0  0  0  0999 V2000
    0.7145   -6.5704    0.0000 O   0  0  0  0  0  0  0  0  0  0  0  0
    0.7145   -3.7125    0.0000 O   0  0  0  0  0  0  0  0  0  0  0  0
   -0.5230   -4.4270    0.0000 O   0  0  0  0  0  0  0  0  0  0  0  0
    0.7145   -5.1414    0.0000 N   0  0  0  0  0  0  0  0  0  0  0  0
    0.3020   -5.8559    0.0000 C   0  0  3  0  0  0  0  0  0  0  0  0
   -0.5230   -5.8559    0.0000 C   0  0  0  0  0  0  0  0  0  0  0  0
    0.3020   -4.4270    0.0000 C   0  0  0  0  0  0  0  0  0  0  0  0
    1.5395   -5.1414    0.0000 C   0  0  0  0  0  0  0  0  0  0  0  0
   -0.9355   -6.5704    0.0000 C   0  0  0  0  0  0  0  0  0  0  0  0
   -0.9355   -5.1414    0.0000 C   0  0  0  0  0  0  0  0  0  0  0  0
    1.9520   -4.4270    0.0000 C   0  0  0  0  0  0  0  0  0  0  0  0
   -1.7605   -6.5704    0.0000 C   0  0  0  0  0  0  0  0  0  0  0  0
   -1.7605   -5.1414    0.0000 C   0  0  0  0  0  0  0  0  0  0  0  0
   -2.1730   -5.8559    0.0000 C   0  0  0  0  0  0  0  0  0  0  0  0
    2.7770   -4.4270    0.0000 C   0  0  0  0  0  0  0  0  0  0  0  0
    4.0145   -3.7125    0.0000 C   0  0  0  0  0  0  0  0  0  0  0  0
    3.1895   -3.7125    0.0000 C   0  0  0  0  0  0  0  0  0  0  0  0
    0.3020   -2.9980    0.0000 C   0  0  0  0  0  0  0  0  0  0  0  0
    4.4270   -2.9980    0.0000 C   0  0  0  0  0  0  0  0  0  0  0  0
    4.4270   -4.4270    0.0000 C   0  0  0  0  0  0  0  0  0  0  0  0
    5.2520   -2.9980    0.0000 C   0  0  0  0  0  0  0  0  0  0  0  0
    5.2520   -4.4270    0.0000 C   0  0  0  0  0  0  0  0  0  0  0  0
    5.6645   -3.7125    0.0000 C   0  0  0  0  0  0  0  0  0  0  0  0
    0.7145   -2.2836    0.0000 C   0  0  0  0  0  0  0  0  0  0  0  0
  1  5  1  0  0  0  0
  2  7  1  0  0  0  0
  2 18  1  0  0  0  0
  3  7  2  0  0  0  0
  4  5  1  0  0  0  0
  4  7  1  0  0  0  0
  4  8  1  0  0  0  0
  5  6  1  0  0  0  0
  6  9  2  0  0  0  0
  6 10  1  0  0  0  0
  8 11  1  0  0  0  0
  9 12  1  0  0  0  0
 10 13  2  0  0  0  0
 11 15  1  0  0  0  0
 12 14  2  0  0  0  0
 13 14  1  0  0  0  0
 15 17  1  0  0  0  0
 16 17  1  0  0  0  0
 16 19  2  0  0  0  0
 16 20  1  0  0  0  0
 18 24  1  0  0  0  0
 19 21  1  0  0  0  0
 20 22  2  0  0  0  0
 21 23  2  0  0  0  0
 22 23  1  0  0  0  0
M  END
> <PUBCHEM_COMPOUND_ID_TYPE>
0

> <PUBCHEM_TOTAL_CHARGE>
0

> <PUBCHEM_SUBSTANCE_ID>
310936881

> <PUBCHEM_SUBSTANCE_VERSION>
1

> <PUBCHEM_EXT_DATASOURCE_NAME>
4488

> <PUBCHEM_EXT_DATASOURCE_REGID>
SCHEMBL16114577

> <PUBCHEM_SUBSTANCE_COMMENT>
InChI=1S/C20H25NO3/c1-2-24-20(23)21(19(22)18-14-7-4-8-15-18)16-10-9-13-17-11-5-3-6-12-17/h3-8,11-12,14-15,19,22H,2,9-10,13,16H2,1H3
InChIKey=UJOVSEYMFOZYNQ-UHFFFAOYSA-N

> <PUBCHEM_SUBSTANCE_SYNONYM>
SCHEMBL16114577

> <PUBCHEM_XREF_EXT_ID>
SCHEMBL16114577

> <PUBCHEM_EXT_DATASOURCE_URL>
https://www.surechembl.org/

> <PUBCHEM_EXT_SUBSTANCE_URL>
https://www.surechembl.org/chemical/SCHEMBL16114577

> <PUBCHEM_CID_ASSOCIATIONS>
117604770  1

> <PUBCHEM_COORDINATE_TYPE>
1
3

$$$$
