310943764
  -OEChem-07211613022D

 31 34  0     1  0  0  0  0  0999 V2000
    2.1830    2.0071    0.0000 O   0  0  0  0  0  0  0  0  0  0  0  0
    2.8868    0.5555    0.0000 N   0  0  0  0  0  0  0  0  0  0  0  0
   -3.5358   -1.5452    0.0000 N   0  0  3  0  0  0  0  0  0  0  0  0
    5.1414    0.0385    0.0000 N   0  0  3  0  0  0  0  0  0  0  0  0
   -5.3174   -0.9952    0.0000 N   0  0  3  0  0  0  0  0  0  0  0  0
    1.4682    0.5555    0.0000 C   0  0  0  0  0  0  0  0  0  0  0  0
    0.0385   -0.2804    0.0000 C   0  0  0  0  0  0  0  0  0  0  0  0
    2.1720    0.9513    0.0000 C   0  0  0  0  0  0  0  0  0  0  0  0
   -0.6764   -0.7093    0.0000 C   0  0  0  0  0  0  0  0  0  0  0  0
    1.4572   -0.2695    0.0000 C   0  0  0  0  0  0  0  0  0  0  0  0
    0.7533    0.9513    0.0000 C   0  0  0  0  0  0  0  0  0  0  0  0
    0.7643   -0.6873    0.0000 C   0  0  0  0  0  0  0  0  0  0  0  0
    0.0605    0.5555    0.0000 C   0  0  0  0  0  0  0  0  0  0  0  0
   -2.1060   -1.5232    0.0000 C   0  0  0  0  0  0  0  0  0  0  0  0
   -1.4022   -0.3025    0.0000 C   0  0  0  0  0  0  0  0  0  0  0  0
   -0.6653   -1.5232    0.0000 C   0  0  0  0  0  0  0  0  0  0  0  0
   -2.1060   -0.6983    0.0000 C   0  0  0  0  0  0  0  0  0  0  0  0
   -1.3692   -1.9411    0.0000 C   0  0  0  0  0  0  0  0  0  0  0  0
    3.6788    1.2043    0.0000 C   0  0  0  0  0  0  0  0  0  0  0  0
    2.8979   -0.4784    0.0000 C   0  0  0  0  0  0  0  0  0  0  0  0
   -2.8100   -1.9520    0.0000 C   0  0  0  0  0  0  0  0  0  0  0  0
    4.6905    0.9733    0.0000 C   0  0  0  0  0  0  0  0  0  0  0  0
    3.7008   -1.1162    0.0000 C   0  0  0  0  0  0  0  0  0  0  0  0
   -4.2066   -2.0071    0.0000 C   0  0  0  0  0  0  0  0  0  0  0  0
    4.6905   -0.8963    0.0000 C   0  0  0  0  0  0  0  0  0  0  0  0
   -3.4918   -0.7313    0.0000 C   0  0  0  0  0  0  0  0  0  0  0  0
   -4.9985   -1.7650    0.0000 C   0  0  0  0  0  0  0  0  0  0  0  0
   -4.0856   -0.1594    0.0000 C   0  0  0  0  0  0  0  0  0  0  0  0
   -4.8885   -0.2695    0.0000 C   0  0  0  0  0  0  0  0  0  0  0  0
    6.1532   -0.2255    0.0000 C   0  0  0  0  0  0  0  0  0  0  0  0
   -6.1532   -0.9952    0.0000 C   0  0  0  0  0  0  0  0  0  0  0  0
  1  8  2  0  0  0  0
  2  8  1  0  0  0  0
  2 19  1  0  0  0  0
  2 20  1  0  0  0  0
  3 21  1  0  0  0  0
  3 24  1  0  0  0  0
  3 26  1  0  0  0  0
  4 22  1  0  0  0  0
  4 25  1  0  0  0  0
  4 30  1  0  0  0  0
  5 27  1  0  0  0  0
  5 29  1  0  0  0  0
  5 31  1  0  0  0  0
  6  8  1  0  0  0  0
  6 10  2  0  0  0  0
  6 11  1  0  0  0  0
  7  9  1  0  0  0  0
  7 12  2  0  0  0  0
  7 13  1  0  0  0  0
  9 15  2  0  0  0  0
  9 16  1  0  0  0  0
 10 12  1  0  0  0  0
 11 13  2  0  0  0  0
 14 17  2  0  0  0  0
 14 18  1  0  0  0  0
 14 21  1  0  0  0  0
 15 17  1  0  0  0  0
 16 18  2  0  0  0  0
 19 22  1  0  0  0  0
 20 23  1  0  0  0  0
 23 25  1  0  0  0  0
 24 27  1  0  0  0  0
 26 28  1  0  0  0  0
 28 29  1  0  0  0  0
M  END
> <PUBCHEM_COMPOUND_ID_TYPE>
0

> <PUBCHEM_TOTAL_CHARGE>
0

> <PUBCHEM_SUBSTANCE_ID>
310943764

> <PUBCHEM_SUBSTANCE_VERSION>
1

> <PUBCHEM_EXT_DATASOURCE_NAME>
4488

> <PUBCHEM_EXT_DATASOURCE_REGID>
SCHEMBL16121833

> <PUBCHEM_SUBSTANCE_COMMENT>
InChI=1S/C26H36N4O/c1-27-13-3-15-29(19-17-27)21-22-5-7-23(8-6-22)24-9-11-25(12-10-24)26(31)30-16-4-14-28(2)18-20-30/h5-12H,3-4,13-21H2,1-2H3
InChIKey=OMKDQAGNWSHGET-UHFFFAOYSA-N

> <PUBCHEM_SUBSTANCE_SYNONYM>
SCHEMBL16121833

> <PUBCHEM_XREF_EXT_ID>
SCHEMBL16121833

> <PUBCHEM_EXT_DATASOURCE_URL>
https://www.surechembl.org/

> <PUBCHEM_EXT_SUBSTANCE_URL>
https://www.surechembl.org/chemical/SCHEMBL16121833

> <PUBCHEM_CID_ASSOCIATIONS>
117610126  1

> <PUBCHEM_COORDINATE_TYPE>
1
3

$$$$
