310942346
  -OEChem-07211613022D

 25 27  0     1  0  0  0  0  0999 V2000
   -2.4399    0.0237    0.0000 O   0  0  0  0  0  0  0  0  0  0  0  0
   -2.0767   -1.3187    0.0000 O   0  0  0  0  0  0  0  0  0  0  0  0
    2.8347   -0.5133    0.0000 O   0  0  0  0  0  0  0  0  0  0  0  0
    0.2763   -0.2763    0.0000 N   0  0  0  0  0  0  0  0  0  0  0  0
    1.0345   -0.6080    0.0000 N   0  0  0  0  0  0  0  0  0  0  0  0
    2.9769    0.8923    0.0000 N   0  0  0  0  0  0  0  0  0  0  0  0
    0.0237    0.4659    0.0000 C   0  0  0  0  0  0  0  0  0  0  0  0
   -1.0660   -0.2763    0.0000 C   0  0  0  0  0  0  0  0  0  0  0  0
   -0.3869   -0.7501    0.0000 C   0  0  0  0  0  0  0  0  0  0  0  0
   -0.7975    0.4817    0.0000 C   0  0  0  0  0  0  0  0  0  0  0  0
    0.5133    1.1607    0.0000 C   0  0  3  0  0  0  0  0  0  0  0  0
   -1.8399   -0.5133    0.0000 C   0  0  0  0  0  0  0  0  0  0  0  0
    1.3345    1.0345    0.0000 C   0  0  0  0  0  0  0  0  0  0  0  0
   -0.3079   -1.5713    0.0000 C   0  0  0  0  0  0  0  0  0  0  0  0
   -1.3029    1.1607    0.0000 C   0  0  0  0  0  0  0  0  0  0  0  0
    1.1134   -1.4293    0.0000 C   0  0  0  0  0  0  0  0  0  0  0  0
    0.4659   -1.9030    0.0000 C   0  0  0  0  0  0  0  0  0  0  0  0
    1.6661    0.3237    0.0000 C   0  0  0  0  0  0  0  0  0  0  0  0
    1.8241    1.6977    0.0000 C   0  0  0  0  0  0  0  0  0  0  0  0
    0.1816    1.9030    0.0000 C   0  0  0  0  0  0  0  0  0  0  0  0
    2.4873    0.2448    0.0000 C   0  0  0  0  0  0  0  0  0  0  0  0
    2.6453    1.6187    0.0000 C   0  0  0  0  0  0  0  0  0  0  0  0
   -3.2296   -0.1659    0.0000 C   0  0  0  0  0  0  0  0  0  0  0  0
    3.8297    0.7975    0.0000 C   0  0  0  0  0  0  0  0  0  0  0  0
   -3.8297    0.4027    0.0000 C   0  0  0  0  0  0  0  0  0  0  0  0
  1 12  1  0  0  0  0
  1 23  1  0  0  0  0
  2 12  2  0  0  0  0
  3 21  2  0  0  0  0
  4  5  1  0  0  0  0
  4  7  1  0  0  0  0
  4  9  1  0  0  0  0
  5 16  2  0  0  0  0
  6 21  1  0  0  0  0
  6 22  1  0  0  0  0
  6 24  1  0  0  0  0
  7 10  2  0  0  0  0
  7 11  1  0  0  0  0
  8  9  2  0  0  0  0
  8 10  1  0  0  0  0
  8 12  1  0  0  0  0
  9 14  1  0  0  0  0
 10 15  1  0  0  0  0
 11 13  1  0  0  0  0
 11 20  1  0  0  0  0
 13 18  2  0  0  0  0
 13 19  1  0  0  0  0
 14 17  2  0  0  0  0
 16 17  1  0  0  0  0
 18 21  1  0  0  0  0
 19 22  2  0  0  0  0
 23 25  1  0  0  0  0
M  END
> <PUBCHEM_COMPOUND_ID_TYPE>
0

> <PUBCHEM_TOTAL_CHARGE>
0

> <PUBCHEM_SUBSTANCE_ID>
310942346

> <PUBCHEM_SUBSTANCE_VERSION>
1

> <PUBCHEM_EXT_DATASOURCE_NAME>
4488

> <PUBCHEM_EXT_DATASOURCE_REGID>
SCHEMBL16120382

> <PUBCHEM_SUBSTANCE_COMMENT>
InChI=1S/C19H21N3O3/c1-5-25-19(24)17-13(3)18(22-15(17)7-6-9-20-22)12(2)14-8-10-21(4)16(23)11-14/h6-12H,5H2,1-4H3
InChIKey=NFEBRCXLGXZOSN-UHFFFAOYSA-N

> <PUBCHEM_SUBSTANCE_SYNONYM>
SCHEMBL16120382

> <PUBCHEM_XREF_EXT_ID>
SCHEMBL16120382

> <PUBCHEM_EXT_DATASOURCE_URL>
https://www.surechembl.org/

> <PUBCHEM_EXT_SUBSTANCE_URL>
https://www.surechembl.org/chemical/SCHEMBL16120382

> <PUBCHEM_CID_ASSOCIATIONS>
117608970  1

> <PUBCHEM_COORDINATE_TYPE>
1
3

$$$$
