310931050
  -OEChem-07211613022D

 51 55  0     1  0  0  0  0  0999 V2000
    6.5534   -5.8078    0.0000 S   0  0  0  0  0  0  0  0  0  0  0  0
    6.5534   -4.1204    0.0000 F   0  0  0  0  0  0  0  0  0  0  0  0
    3.6887   -5.7685    0.0000 F   0  0  0  0  0  0  0  0  0  0  0  0
    1.5304   -7.8484    0.0000 F   0  0  0  0  0  0  0  0  0  0  0  0
    6.1217   -6.5142    0.0000 O   0  0  0  0  0  0  0  0  0  0  0  0
    7.2597   -6.2394    0.0000 O   0  0  0  0  0  0  0  0  0  0  0  0
    3.6887   -4.1204    0.0000 O   0  0  0  0  0  0  0  0  0  0  0  0
    9.4573   -5.1407    0.0000 O   0  0  0  0  0  0  0  0  0  0  0  0
    0.8241   -1.6481    0.0000 O   0  0  0  0  0  0  0  0  0  0  0  0
    9.4965   -2.2760    0.0000 O   0  0  0  0  0  0  0  0  0  0  0  0
    2.2760   -1.6481    0.0000 O   0  0  0  0  0  0  0  0  0  0  0  0
    6.9850   -5.1014    0.0000 N   0  0  0  0  0  0  0  0  0  0  0  0
    6.9850   -3.6495    0.0000 N   0  0  0  0  0  0  0  0  0  0  0  0
    5.7293   -4.3558    0.0000 N   0  0  0  0  0  0  0  0  0  0  0  0
    1.5304   -2.8646    0.0000 N   0  0  0  0  0  0  0  0  0  0  0  0
    5.8470   -5.3761    0.0000 C   0  0  0  0  0  0  0  0  0  0  0  0
    5.8470   -4.5521    0.0000 C   0  0  0  0  0  0  0  0  0  0  0  0
    6.5534   -4.3558    0.0000 C   0  0  0  0  0  0  0  0  0  0  0  0
    5.1407   -5.7685    0.0000 C   0  0  0  0  0  0  0  0  0  0  0  0
    4.3950   -5.3761    0.0000 C   0  0  0  0  0  0  0  0  0  0  0  0
    4.4343   -4.5521    0.0000 C   0  0  0  0  0  0  0  0  0  0  0  0
    7.8091   -5.1014    0.0000 C   0  0  0  0  0  0  0  0  0  0  0  0
    5.1407   -4.1204    0.0000 C   0  0  0  0  0  0  0  0  0  0  0  0
    8.2408   -4.3950    0.0000 C   0  0  0  0  0  0  0  0  0  0  0  0
    9.0648   -4.3950    0.0000 C   0  0  0  0  0  0  0  0  0  0  0  0
    2.2760   -4.1204    0.0000 C   0  0  3  0  0  0  0  0  0  0  0  0
    1.5304   -4.5128    0.0000 C   0  0  3  0  0  0  0  0  0  0  0  0
    2.9823   -4.5128    0.0000 C   0  0  0  0  0  0  0  0  0  0  0  0
    7.8484   -3.6495    0.0000 C   0  0  0  0  0  0  0  0  0  0  0  0
    1.5304   -5.3369    0.0000 C   0  0  0  0  0  0  0  0  0  0  0  0
    2.2760   -3.2963    0.0000 C   0  0  0  0  0  0  0  0  0  0  0  0
    9.4965   -3.6887    0.0000 C   0  0  0  0  0  0  0  0  0  0  0  0
    6.5926   -2.9039    0.0000 C   0  0  0  0  0  0  0  0  0  0  0  0
    5.3369   -3.6102    0.0000 C   0  0  0  0  0  0  0  0  0  0  0  0
    9.0648   -2.9823    0.0000 C   0  0  0  0  0  0  0  0  0  0  0  0
    0.8241   -4.1204    0.0000 C   0  0  0  0  0  0  0  0  0  0  0  0
    8.2408   -2.9823    0.0000 C   0  0  0  0  0  0  0  0  0  0  0  0
    0.8241   -3.2963    0.0000 C   0  0  0  0  0  0  0  0  0  0  0  0
    5.7293   -2.9039    0.0000 C   0  0  0  0  0  0  0  0  0  0  0  0
    1.5304   -2.0406    0.0000 C   0  0  0  0  0  0  0  0  0  0  0  0
    2.2760   -5.7685    0.0000 C   0  0  0  0  0  0  0  0  0  0  0  0
    0.8241   -5.7685    0.0000 C   0  0  0  0  0  0  0  0  0  0  0  0
    2.2760   -6.5926    0.0000 C   0  0  0  0  0  0  0  0  0  0  0  0
    0.8241   -6.5926    0.0000 C   0  0  0  0  0  0  0  0  0  0  0  0
    1.5304   -7.0243    0.0000 C   0  0  0  0  0  0  0  0  0  0  0  0
    0.8241   -0.8241    0.0000 C   0  0  0  0  0  0  0  0  0  0  0  0
   10.2813   -5.1407    0.0000 C   0  0  0  0  0  0  0  0  0  0  0  0
    9.1041   -1.5304    0.0000 C   0  0  0  0  0  0  0  0  0  0  0  0
    1.6874   -0.8241    0.0000 C   0  0  0  0  0  0  0  0  0  0  0  0
    0.8241    0.0000    0.0000 C   0  0  0  0  0  0  0  0  0  0  0  0
    0.0000   -0.8241    0.0000 C   0  0  0  0  0  0  0  0  0  0  0  0
  1  5  2  0  0  0  0
  1  6  2  0  0  0  0
  1 12  1  0  0  0  0
  1 16  1  0  0  0  0
  2 17  1  0  0  0  0
  3 20  1  0  0  0  0
  4 45  1  0  0  0  0
  7 21  1  0  0  0  0
  7 28  1  0  0  0  0
  8 25  1  0  0  0  0
  8 47  1  0  0  0  0
  9 40  1  0  0  0  0
  9 46  1  0  0  0  0
 10 35  1  0  0  0  0
 10 48  1  0  0  0  0
 11 40  2  0  0  0  0
 12 18  1  0  0  0  0
 12 22  1  0  0  0  0
 13 18  2  0  0  0  0
 13 33  1  0  0  0  0
 14 18  1  0  0  0  0
 14 34  2  0  0  0  0
 15 31  1  0  0  0  0
 15 38  1  0  0  0  0
 15 40  1  0  0  0  0
 16 17  1  0  0  0  0
 16 19  2  0  0  0  0
 17 23  2  0  0  0  0
 19 20  1  0  0  0  0
 20 21  2  0  0  0  0
 21 23  1  0  0  0  0
 22 24  1  0  0  0  0
 24 25  2  0  0  0  0
 24 29  1  0  0  0  0
 25 32  1  0  0  0  0
 26 27  1  0  0  0  0
 26 28  1  0  0  0  0
 26 31  1  0  0  0  0
 27 30  1  0  0  0  0
 27 36  1  0  0  0  0
 29 37  2  0  0  0  0
 30 41  2  0  0  0  0
 30 42  1  0  0  0  0
 32 35  2  0  0  0  0
 33 39  2  0  0  0  0
 34 39  1  0  0  0  0
 35 37  1  0  0  0  0
 36 38  1  0  0  0  0
 41 43  1  0  0  0  0
 42 44  2  0  0  0  0
 43 45  2  0  0  0  0
 44 45  1  0  0  0  0
 46 49  1  0  0  0  0
 46 50  1  0  0  0  0
 46 51  1  0  0  0  0
M  END
> <PUBCHEM_COMPOUND_ID_TYPE>
0

> <PUBCHEM_TOTAL_CHARGE>
0

> <PUBCHEM_SUBSTANCE_ID>
310931050

> <PUBCHEM_SUBSTANCE_VERSION>
1

> <PUBCHEM_EXT_DATASOURCE_NAME>
4488

> <PUBCHEM_EXT_DATASOURCE_REGID>
SCHEMBL16108352

> <PUBCHEM_SUBSTANCE_COMMENT>
InChI=1S/C36H39F3N4O7S/c1-36(2,3)50-35(44)42-16-13-28(23-7-10-26(37)11-8-23)25(20-42)22-49-32-18-30(39)33(19-29(32)38)51(45,46)43(34-40-14-6-15-41-34)21-24-9-12-27(47-4)17-31(24)48-5/h6-12,14-15,17-19,25,28H,13,16,20-22H2,1-5H3
InChIKey=QKRXVMGNDJZSGE-UHFFFAOYSA-N

> <PUBCHEM_SUBSTANCE_SYNONYM>
SCHEMBL16108352

> <PUBCHEM_XREF_EXT_ID>
SCHEMBL16108352

> <PUBCHEM_EXT_DATASOURCE_URL>
https://www.surechembl.org/

> <PUBCHEM_EXT_SUBSTANCE_URL>
https://www.surechembl.org/chemical/SCHEMBL16108352

> <PUBCHEM_CID_ASSOCIATIONS>
117599960  1

> <PUBCHEM_COORDINATE_TYPE>
1
3

$$$$
