310931070
  -OEChem-07211613022D

 20 21  0     1  0  0  0  0  0999 V2000
    1.4720   -1.4457    0.0000 S   0  0  0  0  0  0  0  0  0  0  0  0
    4.2847   -3.1806    0.0000 O   0  0  0  0  0  0  0  0  0  0  0  0
    0.7360   -5.2573    0.0000 O   0  0  0  0  0  0  0  0  0  0  0  0
    3.5750   -1.9452    0.0000 O   0  0  0  0  0  0  0  0  0  0  0  0
    2.8126   -1.4457    0.0000 N   0  0  0  0  0  0  0  0  0  0  0  0
    1.4194   -3.9955    0.0000 N   0  0  0  0  0  0  0  0  0  0  0  0
    2.1292   -2.7601    0.0000 C   0  0  3  0  0  0  0  0  0  0  0  0
    2.1292   -1.9452    0.0000 C   0  0  0  0  0  0  0  0  0  0  0  0
    1.4194   -3.1806    0.0000 C   0  0  0  0  0  0  0  0  0  0  0  0
    2.8389   -3.1806    0.0000 C   0  0  0  0  0  0  0  0  0  0  0  0
    1.7349   -0.6572    0.0000 C   0  0  0  0  0  0  0  0  0  0  0  0
    0.7097   -2.7338    0.0000 C   0  0  0  0  0  0  0  0  0  0  0  0
    2.5498   -0.6572    0.0000 C   0  0  0  0  0  0  0  0  0  0  0  0
    0.7097   -4.4424    0.0000 C   0  0  0  0  0  0  0  0  0  0  0  0
    3.5750   -2.7601    0.0000 C   0  0  0  0  0  0  0  0  0  0  0  0
    0.0000   -3.1806    0.0000 C   0  0  0  0  0  0  0  0  0  0  0  0
    0.0000   -3.9955    0.0000 C   0  0  0  0  0  0  0  0  0  0  0  0
    1.2354    0.0000    0.0000 C   0  0  0  0  0  0  0  0  0  0  0  0
    4.9944   -2.7601    0.0000 C   0  0  0  0  0  0  0  0  0  0  0  0
    4.9944   -1.9452    0.0000 C   0  0  0  0  0  0  0  0  0  0  0  0
  1  8  1  0  0  0  0
  1 11  1  0  0  0  0
  2 15  1  0  0  0  0
  2 19  1  0  0  0  0
  3 14  1  0  0  0  0
  4 15  2  0  0  0  0
  5  8  2  0  0  0  0
  5 13  1  0  0  0  0
  6  9  1  0  0  0  0
  6 14  2  0  0  0  0
  7  8  1  0  0  0  0
  7  9  1  0  0  0  0
  7 10  1  0  0  0  0
  9 12  2  0  0  0  0
 10 15  1  0  0  0  0
 11 13  2  0  0  0  0
 11 18  1  0  0  0  0
 12 16  1  0  0  0  0
 14 17  1  0  0  0  0
 16 17  2  0  0  0  0
 19 20  1  0  0  0  0
M  END
> <PUBCHEM_COMPOUND_ID_TYPE>
0

> <PUBCHEM_TOTAL_CHARGE>
0

> <PUBCHEM_SUBSTANCE_ID>
310931070

> <PUBCHEM_SUBSTANCE_VERSION>
1

> <PUBCHEM_EXT_DATASOURCE_NAME>
4488

> <PUBCHEM_EXT_DATASOURCE_REGID>
SCHEMBL16108373

> <PUBCHEM_SUBSTANCE_COMMENT>
InChI=1S/C14H16N2O3S/c1-3-19-13(18)7-10(14-15-8-9(2)20-14)11-5-4-6-12(17)16-11/h4-6,8,10H,3,7H2,1-2H3,(H,16,17)
InChIKey=CJECAWWYCWWPBH-UHFFFAOYSA-N

> <PUBCHEM_SUBSTANCE_SYNONYM>
SCHEMBL16108373

> <PUBCHEM_XREF_EXT_ID>
SCHEMBL16108373

> <PUBCHEM_EXT_DATASOURCE_URL>
https://www.surechembl.org/

> <PUBCHEM_EXT_SUBSTANCE_URL>
https://www.surechembl.org/chemical/SCHEMBL16108373

> <PUBCHEM_CID_ASSOCIATIONS>
117599975  1

> <PUBCHEM_COORDINATE_TYPE>
1
3

$$$$
