310936738
  -OEChem-07211613022D

 26 28  0     1  0  0  0  0  0999 V2000
    1.6483    0.0000    0.0000 Cl  0  0  0  0  0  0  0  0  0  0  0  0
    7.1243   -5.5877    0.0000 F   0  0  0  0  0  0  0  0  0  0  0  0
    7.6830   -4.2745    0.0000 F   0  0  0  0  0  0  0  0  0  0  0  0
    3.6879   -3.5481    0.0000 O   0  0  0  0  0  0  0  0  0  0  0  0
    5.3083   -3.5481    0.0000 N   0  0  0  0  0  0  0  0  0  0  0  0
    5.5877   -4.8613    0.0000 N   0  0  0  0  0  0  0  0  0  0  0  0
    2.4306   -2.8218    0.0000 N   0  0  0  0  0  0  0  0  0  0  0  0
    1.6204   -4.2466    0.0000 N   0  0  0  0  0  0  0  0  0  0  0  0
    6.2861   -4.4422    0.0000 C   0  0  0  0  0  0  0  0  0  0  0  0
    5.0010   -4.3025    0.0000 C   0  0  0  0  0  0  0  0  0  0  0  0
    6.1185   -3.6320    0.0000 C   0  0  0  0  0  0  0  0  0  0  0  0
    1.6204   -2.8218    0.0000 C   0  0  0  0  0  0  0  0  0  0  0  0
    4.9171   -2.8218    0.0000 C   0  0  0  0  0  0  0  0  0  0  0  0
    2.8497   -3.5481    0.0000 C   0  0  0  0  0  0  0  0  0  0  0  0
    1.2293   -2.1233    0.0000 C   0  0  0  0  0  0  0  0  0  0  0  0
    4.0790   -2.8218    0.0000 C   0  0  3  0  0  0  0  0  0  0  0  0
    7.0404   -4.7774    0.0000 C   0  0  0  0  0  0  0  0  0  0  0  0
    1.1734   -3.5481    0.0000 C   0  0  0  0  0  0  0  0  0  0  0  0
    2.4306   -4.2466    0.0000 C   0  0  0  0  0  0  0  0  0  0  0  0
    1.6204   -1.4249    0.0000 C   0  0  0  0  0  0  0  0  0  0  0  0
    0.3912   -2.1233    0.0000 C   0  0  0  0  0  0  0  0  0  0  0  0
    1.2293   -0.6985    0.0000 C   0  0  0  0  0  0  0  0  0  0  0  0
    4.1908   -4.4701    0.0000 C   0  0  0  0  0  0  0  0  0  0  0  0
    0.0000   -1.3969    0.0000 C   0  0  0  0  0  0  0  0  0  0  0  0
    0.4191   -0.6985    0.0000 C   0  0  0  0  0  0  0  0  0  0  0  0
    3.6879   -2.1233    0.0000 C   0  0  0  0  0  0  0  0  0  0  0  0
  1 22  1  0  0  0  0
  2 17  1  0  0  0  0
  3 17  1  0  0  0  0
  4 14  1  0  0  0  0
  4 16  1  0  0  0  0
  5 10  1  0  0  0  0
  5 11  1  0  0  0  0
  5 13  1  0  0  0  0
  6  9  1  0  0  0  0
  6 10  2  0  0  0  0
  7 12  2  0  0  0  0
  7 14  1  0  0  0  0
  8 18  2  0  0  0  0
  8 19  1  0  0  0  0
  9 11  2  0  0  0  0
  9 17  1  0  0  0  0
 10 23  1  0  0  0  0
 12 15  1  0  0  0  0
 12 18  1  0  0  0  0
 13 16  1  0  0  0  0
 14 19  2  0  0  0  0
 15 20  1  0  0  0  0
 15 21  2  0  0  0  0
 16 26  1  0  0  0  0
 20 22  2  0  0  0  0
 21 24  1  0  0  0  0
 22 25  1  0  0  0  0
 24 25  2  0  0  0  0
M  END
> <PUBCHEM_COMPOUND_ID_TYPE>
0

> <PUBCHEM_TOTAL_CHARGE>
0

> <PUBCHEM_SUBSTANCE_ID>
310936738

> <PUBCHEM_SUBSTANCE_VERSION>
1

> <PUBCHEM_EXT_DATASOURCE_NAME>
4488

> <PUBCHEM_EXT_DATASOURCE_REGID>
SCHEMBL16114419

> <PUBCHEM_SUBSTANCE_COMMENT>
InChI=1S/C18H17ClF2N4O/c1-11(9-25-10-16(18(20)21)23-12(25)2)26-17-8-22-7-15(24-17)13-4-3-5-14(19)6-13/h3-8,10-11,18H,9H2,1-2H3
InChIKey=QUMKSAQRFWZLAZ-UHFFFAOYSA-N

> <PUBCHEM_SUBSTANCE_SYNONYM>
SCHEMBL16114419

> <PUBCHEM_XREF_EXT_ID>
SCHEMBL16114419

> <PUBCHEM_EXT_DATASOURCE_URL>
https://www.surechembl.org/

> <PUBCHEM_EXT_SUBSTANCE_URL>
https://www.surechembl.org/chemical/SCHEMBL16114419

> <PUBCHEM_CID_ASSOCIATIONS>
117604637  1

> <PUBCHEM_COORDINATE_TYPE>
1
3

$$$$
