310935082
  -OEChem-07211613022D

 37 42  0     1  0  0  0  0  0999 V2000
    1.1946   -6.4247    0.0000 O   0  0  0  0  0  0  0  0  0  0  0  0
    1.2591   -2.1631    0.0000 N   0  0  3  0  0  0  0  0  0  0  0  0
    1.2591   -0.7102    0.0000 N   0  0  0  0  0  0  0  0  0  0  0  0
    2.5183   -0.0323    0.0000 N   0  0  0  0  0  0  0  0  0  0  0  0
    2.4537   -5.7144    0.0000 N   0  0  0  0  0  0  0  0  0  0  0  0
    4.1325   -4.2939    0.0000 N   0  0  0  0  0  0  0  0  0  0  0  0
    6.1987   -3.5837    0.0000 N   0  0  0  0  0  0  0  0  0  0  0  0
    4.9073   -5.7790    0.0000 N   0  0  0  0  0  0  0  0  0  0  0  0
    2.4859   -1.4528    0.0000 C   0  0  0  0  0  0  0  0  0  0  0  0
    1.6788   -1.4528    0.0000 C   0  0  0  0  0  0  0  0  0  0  0  0
    2.9379   -0.7426    0.0000 C   0  0  0  0  0  0  0  0  0  0  0  0
    3.7128   -2.1631    0.0000 C   0  0  0  0  0  0  0  0  0  0  0  0
    3.7451   -0.7426    0.0000 C   0  0  0  0  0  0  0  0  0  0  0  0
    2.8734   -2.1631    0.0000 C   0  0  0  0  0  0  0  0  0  0  0  0
    1.2268   -3.5837    0.0000 C   0  0  0  0  0  0  0  0  0  0  0  0
    1.6465   -2.8734    0.0000 C   0  0  0  0  0  0  0  0  0  0  0  0
    0.4197   -3.5837    0.0000 C   0  0  0  0  0  0  0  0  0  0  0  0
    4.1325   -1.4528    0.0000 C   0  0  0  0  0  0  0  0  0  0  0  0
    0.4197   -2.1308    0.0000 C   0  0  0  0  0  0  0  0  0  0  0  0
    4.1325   -2.9057    0.0000 C   0  0  0  0  0  0  0  0  0  0  0  0
    1.2268   -5.0042    0.0000 C   0  0  0  0  0  0  0  0  0  0  0  0
    1.6465   -4.2939    0.0000 C   0  0  0  0  0  0  0  0  0  0  0  0
    0.0000   -2.8734    0.0000 C   0  0  0  0  0  0  0  0  0  0  0  0
    1.6788    0.0000    0.0000 C   0  0  0  0  0  0  0  0  0  0  0  0
    0.0000   -4.2616    0.0000 C   0  0  0  0  0  0  0  0  0  0  0  0
    1.6465   -5.7144    0.0000 C   0  0  0  0  0  0  0  0  0  0  0  0
    0.3874   -5.0042    0.0000 C   0  0  0  0  0  0  0  0  0  0  0  0
    4.9396   -2.9057    0.0000 C   0  0  0  0  0  0  0  0  0  0  0  0
    4.1648   -0.0323    0.0000 C   0  0  0  0  0  0  0  0  0  0  0  0
    3.6805   -3.5837    0.0000 C   0  0  0  0  0  0  0  0  0  0  0  0
    5.3594   -3.5837    0.0000 C   0  0  0  0  0  0  0  0  0  0  0  0
    2.8734   -5.0042    0.0000 C   0  0  0  0  0  0  0  0  0  0  0  0
    2.8411   -6.4570    0.0000 C   0  0  0  0  0  0  0  0  0  0  0  0
    4.9396   -4.2939    0.0000 C   0  0  0  0  0  0  0  0  0  0  0  0
    3.7128   -5.0365    0.0000 C   0  0  0  0  0  0  0  0  0  0  0  0
    3.6805   -6.4570    0.0000 C   0  0  0  0  0  0  0  0  0  0  0  0
    4.1002   -5.7468    0.0000 C   0  0  0  0  0  0  0  0  0  0  0  0
  1 26  2  0  0  0  0
  2 10  1  0  0  0  0
  2 16  1  0  0  0  0
  2 19  1  0  0  0  0
  3 10  1  0  0  0  0
  3 24  2  0  0  0  0
  4 11  2  0  0  0  0
  4 24  1  0  0  0  0
  5 26  1  0  0  0  0
  5 32  1  0  0  0  0
  5 33  1  0  0  0  0
  6 30  2  0  0  0  0
  6 34  1  0  0  0  0
  7 31  1  0  0  0  0
  8 37  1  0  0  0  0
  9 10  2  0  0  0  0
  9 11  1  0  0  0  0
  9 14  1  0  0  0  0
 11 13  1  0  0  0  0
 12 14  2  0  0  0  0
 12 18  1  0  0  0  0
 12 20  1  0  0  0  0
 13 18  2  0  0  0  0
 13 29  1  0  0  0  0
 15 16  1  0  0  0  0
 15 17  2  0  0  0  0
 15 22  1  0  0  0  0
 17 23  1  0  0  0  0
 17 25  1  0  0  0  0
 19 23  1  0  0  0  0
 20 28  2  0  0  0  0
 20 30  1  0  0  0  0
 21 22  2  0  0  0  0
 21 26  1  0  0  0  0
 21 27  1  0  0  0  0
 25 27  2  0  0  0  0
 28 31  1  0  0  0  0
 31 34  2  0  0  0  0
 32 35  1  0  0  0  0
 33 36  1  0  0  0  0
 35 37  1  0  0  0  0
 36 37  1  0  0  0  0
M  END
> <PUBCHEM_COMPOUND_ID_TYPE>
0

> <PUBCHEM_TOTAL_CHARGE>
0

> <PUBCHEM_SUBSTANCE_ID>
310935082

> <PUBCHEM_SUBSTANCE_VERSION>
1

> <PUBCHEM_EXT_DATASOURCE_NAME>
4488

> <PUBCHEM_EXT_DATASOURCE_REGID>
SCHEMBL16112608

> <PUBCHEM_SUBSTANCE_COMMENT>
InChI=1S/C29H31N7O/c1-18-10-21(22-12-25(31)15-32-14-22)13-26-27(18)33-17-34-28(26)36-7-4-19-2-3-20(11-23(19)16-36)29(37)35-8-5-24(30)6-9-35/h2-3,10-15,17,24H,4-9,16,30-31H2,1H3
InChIKey=SXLUHVXRAVZGRS-UHFFFAOYSA-N

> <PUBCHEM_SUBSTANCE_SYNONYM>
SCHEMBL16112608

> <PUBCHEM_XREF_EXT_ID>
SCHEMBL16112608

> <PUBCHEM_EXT_DATASOURCE_URL>
https://www.surechembl.org/

> <PUBCHEM_EXT_SUBSTANCE_URL>
https://www.surechembl.org/chemical/SCHEMBL16112608

> <PUBCHEM_CID_ASSOCIATIONS>
86300622  1

> <PUBCHEM_COORDINATE_TYPE>
1
3

$$$$
