310934135
  -OEChem-07211613022D

 39 45  0     1  0  0  0  0  0999 V2000
    3.4505    4.5195    0.0000 S   0  0  0  0  0  0  0  0  0  0  0  0
    0.4210    4.5375    0.0000 O   0  0  0  0  0  0  0  0  0  0  0  0
    0.9389    7.7656    0.0000 O   0  0  0  0  0  0  0  0  0  0  0  0
    3.4459    8.8925    0.0000 O   0  0  0  0  0  0  0  0  0  0  0  0
    3.9934    2.4750    0.0000 N   0  0  0  0  0  0  0  0  0  0  0  0
    2.5645    2.4750    0.0000 N   0  0  0  0  0  0  0  0  0  0  0  0
    1.8500    3.7125    0.0000 N   0  0  0  0  0  0  0  0  0  0  0  0
    4.2709    6.0346    0.0000 N   0  0  0  0  0  0  0  0  0  0  0  0
    1.7798   -0.2549    0.0000 N   0  0  0  0  0  0  0  0  0  0  0  0
    1.2949    0.4125    0.0000 N   0  0  0  0  0  0  0  0  0  0  0  0
    3.4459    7.4636    0.0000 N   0  0  0  0  0  0  0  0  0  0  0  0
    1.7235    7.5106    0.0000 N   0  0  0  0  0  0  0  0  0  0  0  0
    3.2789    3.7125    0.0000 C   0  0  0  0  0  0  0  0  0  0  0  0
    3.9934    3.3000    0.0000 C   0  0  0  0  0  0  0  0  0  0  0  0
    2.5645    3.3000    0.0000 C   0  0  0  0  0  0  0  0  0  0  0  0
    3.2789    2.0625    0.0000 C   0  0  0  0  0  0  0  0  0  0  0  0
    3.2789    1.2375    0.0000 C   0  0  0  0  0  0  0  0  0  0  0  0
    4.2709    4.6057    0.0000 C   0  0  0  0  0  0  0  0  0  0  0  0
    4.6065    3.8520    0.0000 C   0  0  0  0  0  0  0  0  0  0  0  0
    2.5645    0.8250    0.0000 C   0  0  0  0  0  0  0  0  0  0  0  0
    2.5645    0.0000    0.0000 C   0  0  0  0  0  0  0  0  0  0  0  0
    3.9934    0.8250    0.0000 C   0  0  0  0  0  0  0  0  0  0  0  0
    4.6834    5.3202    0.0000 C   0  0  0  0  0  0  0  0  0  0  0  0
    1.7798    1.0799    0.0000 C   0  0  0  0  0  0  0  0  0  0  0  0
    1.1355    3.3000    0.0000 C   0  0  0  0  0  0  0  0  0  0  0  0
    1.8500    4.5375    0.0000 C   0  0  0  0  0  0  0  0  0  0  0  0
    3.2789   -0.4125    0.0000 C   0  0  0  0  0  0  0  0  0  0  0  0
    3.9934    0.0000    0.0000 C   0  0  0  0  0  0  0  0  0  0  0  0
    3.0334    8.1781    0.0000 C   0  0  3  0  0  0  0  0  0  0  0  0
    4.6834    6.7491    0.0000 C   0  0  0  0  0  0  0  0  0  0  0  0
    3.4459    6.0346    0.0000 C   0  0  0  0  0  0  0  0  0  0  0  0
    2.2084    8.1781    0.0000 C   0  0  0  0  0  0  0  0  0  0  0  0
    0.4210    3.7125    0.0000 C   0  0  0  0  0  0  0  0  0  0  0  0
    1.1355    4.9500    0.0000 C   0  0  0  0  0  0  0  0  0  0  0  0
    4.2709    7.4636    0.0000 C   0  0  0  0  0  0  0  0  0  0  0  0
    3.0334    6.7491    0.0000 C   0  0  0  0  0  0  0  0  0  0  0  0
    1.7235    8.8455    0.0000 C   0  0  0  0  0  0  0  0  0  0  0  0
    0.9389    8.5906    0.0000 C   0  0  0  0  0  0  0  0  0  0  0  0
    0.2715    9.0755    0.0000 C   0  0  0  0  0  0  0  0  0  0  0  0
  1 13  1  0  0  0  0
  1 18  1  0  0  0  0
  2 33  1  0  0  0  0
  2 34  1  0  0  0  0
  3 12  1  0  0  0  0
  3 38  1  0  0  0  0
  4 29  1  0  0  0  0
  5 14  2  0  0  0  0
  5 16  1  0  0  0  0
  6 15  1  0  0  0  0
  6 16  2  0  0  0  0
  7 15  1  0  0  0  0
  7 25  1  0  0  0  0
  7 26  1  0  0  0  0
  8 23  1  0  0  0  0
  8 30  1  0  0  0  0
  8 31  1  0  0  0  0
  9 10  1  0  0  0  0
  9 21  1  0  0  0  0
 10 24  2  0  0  0  0
 11 29  1  0  0  0  0
 11 35  1  0  0  0  0
 11 36  1  0  0  0  0
 12 32  2  0  0  0  0
 13 14  1  0  0  0  0
 13 15  2  0  0  0  0
 14 19  1  0  0  0  0
 16 17  1  0  0  0  0
 17 20  1  0  0  0  0
 17 22  2  0  0  0  0
 18 19  2  0  0  0  0
 18 23  1  0  0  0  0
 20 21  2  0  0  0  0
 20 24  1  0  0  0  0
 21 27  1  0  0  0  0
 22 28  1  0  0  0  0
 25 33  1  0  0  0  0
 26 34  1  0  0  0  0
 27 28  2  0  0  0  0
 29 32  1  0  0  0  0
 30 35  1  0  0  0  0
 31 36  1  0  0  0  0
 32 37  1  0  0  0  0
 37 38  2  0  0  0  0
 38 39  1  0  0  0  0
M  END
> <PUBCHEM_COMPOUND_ID_TYPE>
0

> <PUBCHEM_TOTAL_CHARGE>
0

> <PUBCHEM_SUBSTANCE_ID>
310934135

> <PUBCHEM_SUBSTANCE_VERSION>
1

> <PUBCHEM_EXT_DATASOURCE_NAME>
4488

> <PUBCHEM_EXT_DATASOURCE_REGID>
SCHEMBL16111583

> <PUBCHEM_SUBSTANCE_COMMENT>
InChI=1S/C27H30N8O3S/c1-17-13-23(32-38-17)27(36)35-7-5-33(6-8-35)16-18-14-22-24(39-18)26(34-9-11-37-12-10-34)30-25(29-22)19-3-2-4-21-20(19)15-28-31-21/h2-4,13-15,27,36H,5-12,16H2,1H3,(H,28,31)
InChIKey=PYZLFPMLJLDHBQ-UHFFFAOYSA-N

> <PUBCHEM_SUBSTANCE_SYNONYM>
SCHEMBL16111583

> <PUBCHEM_XREF_EXT_ID>
SCHEMBL16111583

> <PUBCHEM_EXT_DATASOURCE_URL>
https://www.surechembl.org/

> <PUBCHEM_EXT_SUBSTANCE_URL>
https://www.surechembl.org/chemical/SCHEMBL16111583

> <PUBCHEM_CID_ASSOCIATIONS>
117602412  1

> <PUBCHEM_COORDINATE_TYPE>
1
3

$$$$
