310945552
  -OEChem-07211613022D

 18 19  0     1  0  0  0  0  0999 V2000
   -2.5920   -0.3623    0.0000 F   0  0  0  0  0  0  0  0  0  0  0  0
    1.5886    1.5608    0.0000 O   0  0  0  0  0  0  0  0  0  0  0  0
    1.1706    2.2993    0.0000 N   0  0  0  0  0  0  0  0  0  0  0  0
    1.9927   -0.1115    0.0000 N   0  0  3  0  0  0  0  0  0  0  0  0
    1.7838   -2.2993    0.0000 N   0  0  0  0  0  0  0  0  0  0  0  0
    0.2648    1.2960    0.0000 C   0  0  0  0  0  0  0  0  0  0  0  0
    1.0312    0.9476    0.0000 C   0  0  0  0  0  0  0  0  0  0  0  0
   -0.4320    0.8779    0.0000 C   0  0  0  0  0  0  0  0  0  0  0  0
    0.3623    2.1182    0.0000 C   0  0  0  0  0  0  0  0  0  0  0  0
    1.1984    0.1533    0.0000 C   0  0  0  0  0  0  0  0  0  0  0  0
   -1.1706    1.2821    0.0000 C   0  0  0  0  0  0  0  0  0  0  0  0
   -0.4459    0.0557    0.0000 C   0  0  0  0  0  0  0  0  0  0  0  0
   -1.8813    0.0557    0.0000 C   0  0  0  0  0  0  0  0  0  0  0  0
   -1.8674    0.8779    0.0000 C   0  0  0  0  0  0  0  0  0  0  0  0
   -1.1427   -0.3484    0.0000 C   0  0  0  0  0  0  0  0  0  0  0  0
    2.1600   -0.9198    0.0000 C   0  0  0  0  0  0  0  0  0  0  0  0
    2.5920    0.4599    0.0000 C   0  0  0  0  0  0  0  0  0  0  0  0
    1.5747   -1.5050    0.0000 C   0  0  0  0  0  0  0  0  0  0  0  0
  1 13  1  0  0  0  0
  2  3  1  0  0  0  0
  2  7  1  0  0  0  0
  3  9  2  0  0  0  0
  4 10  1  0  0  0  0
  4 16  1  0  0  0  0
  4 17  1  0  0  0  0
  5 18  1  0  0  0  0
  6  7  2  0  0  0  0
  6  8  1  0  0  0  0
  6  9  1  0  0  0  0
  7 10  1  0  0  0  0
  8 11  2  0  0  0  0
  8 12  1  0  0  0  0
 11 14  1  0  0  0  0
 12 15  2  0  0  0  0
 13 14  2  0  0  0  0
 13 15  1  0  0  0  0
 16 18  1  0  0  0  0
M  END
> <PUBCHEM_COMPOUND_ID_TYPE>
0

> <PUBCHEM_TOTAL_CHARGE>
0

> <PUBCHEM_SUBSTANCE_ID>
310945552

> <PUBCHEM_SUBSTANCE_VERSION>
1

> <PUBCHEM_EXT_DATASOURCE_NAME>
4488

> <PUBCHEM_EXT_DATASOURCE_REGID>
SCHEMBL16123650

> <PUBCHEM_SUBSTANCE_COMMENT>
InChI=1S/C13H16FN3O/c1-17(7-6-15)9-13-12(8-16-18-13)10-2-4-11(14)5-3-10/h2-5,8H,6-7,9,15H2,1H3
InChIKey=LEMWWSARWWXKTM-UHFFFAOYSA-N

> <PUBCHEM_SUBSTANCE_SYNONYM>
SCHEMBL16123650

> <PUBCHEM_XREF_EXT_ID>
SCHEMBL16123650

> <PUBCHEM_EXT_DATASOURCE_URL>
https://www.surechembl.org/

> <PUBCHEM_EXT_SUBSTANCE_URL>
https://www.surechembl.org/chemical/SCHEMBL16123650

> <PUBCHEM_CID_ASSOCIATIONS>
86275297  1

> <PUBCHEM_COORDINATE_TYPE>
1
3

$$$$
