310936961
  -OEChem-07211613022D

 26 29  0     1  0  0  0  0  0999 V2000
    2.8220   -2.9275    0.0000 O   0  0  0  0  0  0  0  0  0  0  0  0
    6.9100   -2.2154    0.0000 O   0  0  0  0  0  0  0  0  0  0  0  0
    5.6705   -1.8198    0.0000 N   0  0  0  0  0  0  0  0  0  0  0  0
    5.0902   -3.9033    0.0000 N   0  0  0  0  0  0  0  0  0  0  0  0
    6.4353   -2.9012    0.0000 N   0  0  0  0  0  0  0  0  0  0  0  0
    0.7648   -3.6133    0.0000 N   0  0  3  0  0  0  0  0  0  0  0  0
    3.6923   -4.0616    0.0000 C   0  0  0  0  0  0  0  0  0  0  0  0
    3.5868   -3.2704    0.0000 C   0  0  0  0  0  0  0  0  0  0  0  0
    4.9847   -3.1122    0.0000 C   0  0  0  0  0  0  0  0  0  0  0  0
    5.6705   -2.6374    0.0000 C   0  0  0  0  0  0  0  0  0  0  0  0
    3.0067   -4.5363    0.0000 C   0  0  0  0  0  0  0  0  0  0  0  0
    4.2462   -2.7429    0.0000 C   0  0  0  0  0  0  0  0  0  0  0  0
    6.4353   -1.5561    0.0000 C   0  0  0  0  0  0  0  0  0  0  0  0
    4.4308   -4.4045    0.0000 C   0  0  0  0  0  0  0  0  0  0  0  0
    6.6990   -0.7648    0.0000 C   0  0  0  0  0  0  0  0  0  0  0  0
    2.6638   -5.2748    0.0000 C   0  0  0  0  0  0  0  0  0  0  0  0
    2.1890   -4.6155    0.0000 C   0  0  0  0  0  0  0  0  0  0  0  0
    2.1890   -3.4287    0.0000 C   0  0  3  0  0  0  0  0  0  0  0  0
    1.4242   -3.1122    0.0000 C   0  0  0  0  0  0  0  0  0  0  0  0
    2.2682   -4.2726    0.0000 C   0  0  0  0  0  0  0  0  0  0  0  0
    7.4903   -1.0286    0.0000 C   0  0  0  0  0  0  0  0  0  0  0  0
    6.9628    0.0000    0.0000 C   0  0  0  0  0  0  0  0  0  0  0  0
    5.9342   -0.5275    0.0000 C   0  0  0  0  0  0  0  0  0  0  0  0
    1.6352   -4.7473    0.0000 C   0  0  0  0  0  0  0  0  0  0  0  0
    0.8703   -4.4308    0.0000 C   0  0  0  0  0  0  0  0  0  0  0  0
    0.0000   -3.3232    0.0000 C   0  0  0  0  0  0  0  0  0  0  0  0
  1  8  1  0  0  0  0
  1 18  1  0  0  0  0
  2  5  1  0  0  0  0
  2 13  1  0  0  0  0
  3 10  1  0  0  0  0
  3 13  2  0  0  0  0
  4  9  1  0  0  0  0
  4 14  2  0  0  0  0
  5 10  2  0  0  0  0
  6 19  1  0  0  0  0
  6 25  1  0  0  0  0
  6 26  1  0  0  0  0
  7  8  2  0  0  0  0
  7 11  1  0  0  0  0
  7 14  1  0  0  0  0
  8 12  1  0  0  0  0
  9 10  1  0  0  0  0
  9 12  2  0  0  0  0
 11 16  1  0  0  0  0
 11 17  1  0  0  0  0
 13 15  1  0  0  0  0
 15 21  1  0  0  0  0
 15 22  1  0  0  0  0
 15 23  1  0  0  0  0
 16 17  1  0  0  0  0
 18 19  1  0  0  0  0
 18 20  1  0  0  0  0
 20 24  1  0  0  0  0
 24 25  1  0  0  0  0
M  END
> <PUBCHEM_COMPOUND_ID_TYPE>
0

> <PUBCHEM_TOTAL_CHARGE>
0

> <PUBCHEM_SUBSTANCE_ID>
310936961

> <PUBCHEM_SUBSTANCE_VERSION>
1

> <PUBCHEM_EXT_DATASOURCE_NAME>
4488

> <PUBCHEM_EXT_DATASOURCE_REGID>
SCHEMBL16114664

> <PUBCHEM_SUBSTANCE_COMMENT>
InChI=1S/C20H28N4O2/c1-20(2,3)19-22-18(23-26-19)16-10-17(15(11-21-16)13-7-8-13)25-14-6-5-9-24(4)12-14/h10-11,13-14H,5-9,12H2,1-4H3
InChIKey=XDKWAFOSQNNEDA-UHFFFAOYSA-N

> <PUBCHEM_SUBSTANCE_SYNONYM>
SCHEMBL16114664

> <PUBCHEM_XREF_EXT_ID>
SCHEMBL16114664

> <PUBCHEM_EXT_DATASOURCE_URL>
https://www.surechembl.org/

> <PUBCHEM_EXT_SUBSTANCE_URL>
https://www.surechembl.org/chemical/SCHEMBL16114664

> <PUBCHEM_CID_ASSOCIATIONS>
117604829  1

> <PUBCHEM_COORDINATE_TYPE>
1
3

$$$$
