310933746
  -OEChem-07211613022D

 44 49  0     1  0  0  0  0  0999 V2000
    1.8173   -0.6923    0.0000 Cl  0  0  0  0  0  0  0  0  0  0  0  0
    2.4519   -2.1923    0.0000 F   0  0  0  0  0  0  0  0  0  0  0  0
    3.0576   -5.7691    0.0000 O   0  0  0  0  0  0  0  0  0  0  0  0
    2.3653   -3.6922    0.0000 O   0  0  0  0  0  0  0  0  0  0  0  0
    5.9134    0.0000    0.0000 O   0  0  0  0  0  0  0  0  0  0  0  0
    6.6345   -1.2404    0.0000 O   0  0  0  0  0  0  0  0  0  0  0  0
    3.7499   -4.5288    0.0000 N   0  0  0  0  0  0  0  0  0  0  0  0
    1.4712   -3.5192    0.0000 N   0  0  0  0  0  0  0  0  0  0  0  0
    1.0384   -4.2403    0.0000 N   0  0  0  0  0  0  0  0  0  0  0  0
    3.0576   -2.4807    0.0000 N   0  0  0  0  0  0  0  0  0  0  0  0
    2.8558   -3.1442    0.0000 N   0  0  0  0  0  0  0  0  0  0  0  0
    7.3268   -4.9903    0.0000 N   0  0  0  0  0  0  0  0  0  0  0  0
    8.0480   -3.7788    0.0000 N   0  0  0  0  0  0  0  0  0  0  0  0
    3.7788   -3.6922    0.0000 C   0  0  3  0  0  0  0  0  0  0  0  0
    4.4999   -3.2884    0.0000 C   0  0  0  0  0  0  0  0  0  0  0  0
    5.1922   -3.7211    0.0000 C   0  0  0  0  0  0  0  0  0  0  0  0
    3.0576   -4.9326    0.0000 C   0  0  0  0  0  0  0  0  0  0  0  0
    2.3653   -4.4999    0.0000 C   0  0  0  0  0  0  0  0  0  0  0  0
    2.2788   -3.6922    0.0000 C   0  0  0  0  0  0  0  0  0  0  0  0
    5.9134   -3.3173    0.0000 C   0  0  0  0  0  0  0  0  0  0  0  0
    3.0576   -3.2884    0.0000 C   0  0  0  0  0  0  0  0  0  0  0  0
    4.4711   -4.9326    0.0000 C   0  0  0  0  0  0  0  0  0  0  0  0
    5.1922   -4.5288    0.0000 C   0  0  0  0  0  0  0  0  0  0  0  0
    1.1538   -2.7692    0.0000 C   0  0  0  0  0  0  0  0  0  0  0  0
    1.5865   -4.8461    0.0000 C   0  0  0  0  0  0  0  0  0  0  0  0
    4.6442   -2.6538    0.0000 C   0  0  0  0  0  0  0  0  0  0  0  0
    6.6057   -3.7499    0.0000 C   0  0  0  0  0  0  0  0  0  0  0  0
    5.9134   -2.4807    0.0000 C   0  0  0  0  0  0  0  0  0  0  0  0
    1.6442   -2.1058    0.0000 C   0  0  0  0  0  0  0  0  0  0  0  0
    5.3653   -2.2211    0.0000 C   0  0  0  0  0  0  0  0  0  0  0  0
    0.3173   -2.6538    0.0000 C   0  0  0  0  0  0  0  0  0  0  0  0
    1.3269   -1.3558    0.0000 C   0  0  0  0  0  0  0  0  0  0  0  0
    3.7788   -2.0481    0.0000 C   0  0  0  0  0  0  0  0  0  0  0  0
    6.6345   -4.5576    0.0000 C   0  0  0  0  0  0  0  0  0  0  0  0
    7.3557   -3.3461    0.0000 C   0  0  0  0  0  0  0  0  0  0  0  0
    0.0000   -1.9038    0.0000 C   0  0  0  0  0  0  0  0  0  0  0  0
    0.4904   -1.2404    0.0000 C   0  0  0  0  0  0  0  0  0  0  0  0
    3.7788   -1.2404    0.0000 C   0  0  0  0  0  0  0  0  0  0  0  0
    4.4999   -2.4807    0.0000 C   0  0  0  0  0  0  0  0  0  0  0  0
    8.0480   -4.5865    0.0000 C   0  0  0  0  0  0  0  0  0  0  0  0
    5.2211   -1.2404    0.0000 C   0  0  0  0  0  0  0  0  0  0  0  0
    4.4999   -0.8366    0.0000 C   0  0  0  0  0  0  0  0  0  0  0  0
    5.2211   -2.0481    0.0000 C   0  0  0  0  0  0  0  0  0  0  0  0
    5.9134   -0.8366    0.0000 C   0  0  0  0  0  0  0  0  0  0  0  0
  1 32  1  0  0  0  0
  2 29  1  0  0  0  0
  3 17  2  0  0  0  0
  4 21  2  0  0  0  0
  5 44  2  0  0  0  0
  6 44  1  0  0  0  0
  7 14  1  0  0  0  0
  7 17  1  0  0  0  0
  7 22  1  0  0  0  0
  8  9  1  0  0  0  0
  8 19  1  0  0  0  0
  8 24  1  0  0  0  0
  9 25  2  0  0  0  0
 10 21  1  0  0  0  0
 10 33  1  0  0  0  0
 11 19  1  0  0  0  0
 12 34  2  0  0  0  0
 12 40  1  0  0  0  0
 13 35  1  0  0  0  0
 13 40  2  0  0  0  0
 14 15  1  0  0  0  0
 14 21  1  0  0  0  0
 15 16  2  0  0  0  0
 15 26  1  0  0  0  0
 16 20  1  0  0  0  0
 16 23  1  0  0  0  0
 17 18  1  0  0  0  0
 18 19  2  0  0  0  0
 18 25  1  0  0  0  0
 20 27  1  0  0  0  0
 20 28  2  0  0  0  0
 22 23  1  0  0  0  0
 24 29  1  0  0  0  0
 24 31  2  0  0  0  0
 26 30  2  0  0  0  0
 27 34  1  0  0  0  0
 27 35  2  0  0  0  0
 28 30  1  0  0  0  0
 29 32  2  0  0  0  0
 31 36  1  0  0  0  0
 32 37  1  0  0  0  0
 33 38  2  0  0  0  0
 33 39  1  0  0  0  0
 36 37  2  0  0  0  0
 38 42  1  0  0  0  0
 39 43  2  0  0  0  0
 41 42  2  0  0  0  0
 41 43  1  0  0  0  0
 41 44  1  0  0  0  0
M  END
> <PUBCHEM_COMPOUND_ID_TYPE>
0

> <PUBCHEM_TOTAL_CHARGE>
0

> <PUBCHEM_SUBSTANCE_ID>
310933746

> <PUBCHEM_SUBSTANCE_VERSION>
1

> <PUBCHEM_EXT_DATASOURCE_NAME>
4488

> <PUBCHEM_EXT_DATASOURCE_REGID>
SCHEMBL16111181

> <PUBCHEM_SUBSTANCE_COMMENT>
InChI=1S/C31H23ClFN7O4/c32-24-5-2-6-25(26(24)33)40-28(34)23(15-37-40)30(42)39-12-11-21-20(18-13-35-16-36-14-18)3-1-4-22(21)27(39)29(41)38-19-9-7-17(8-10-19)31(43)44/h1-10,13-16,27H,11-12,34H2,(H,38,41)(H,43,44)
InChIKey=DYZTYGBGDOZFGS-UHFFFAOYSA-N

> <PUBCHEM_SUBSTANCE_SYNONYM>
SCHEMBL16111181

> <PUBCHEM_XREF_EXT_ID>
SCHEMBL16111181

> <PUBCHEM_EXT_DATASOURCE_URL>
https://www.surechembl.org/

> <PUBCHEM_EXT_SUBSTANCE_URL>
https://www.surechembl.org/chemical/SCHEMBL16111181

> <PUBCHEM_CID_ASSOCIATIONS>
117602105  1

> <PUBCHEM_COORDINATE_TYPE>
1
3

$$$$
