310940106
  -OEChem-07211613022D

 36 40  0     1  0  0  0  0  0999 V2000
    2.3176   -2.5399    0.0000 S   0  0  0  0  0  0  0  0  0  0  0  0
    3.0796   -2.8732    0.0000 O   0  0  0  0  0  0  0  0  0  0  0  0
    2.4129   -3.3495    0.0000 O   0  0  0  0  0  0  0  0  0  0  0  0
   -2.6669   -2.2224    0.0000 O   0  0  0  0  0  0  0  0  0  0  0  0
    1.6826    2.3017    0.0000 O   0  0  0  0  0  0  0  0  0  0  0  0
    0.7144    3.3495    0.0000 O   0  0  0  0  0  0  0  0  0  0  0  0
   -1.1747    0.1111    0.0000 N   0  0  0  0  0  0  0  0  0  0  0  0
   -0.6985   -0.5715    0.0000 N   0  0  0  0  0  0  0  0  0  0  0  0
   -0.9207   -2.0160    0.0000 N   0  0  0  0  0  0  0  0  0  0  0  0
    2.5716   -1.7462    0.0000 N   0  0  3  0  0  0  0  0  0  0  0  0
   -3.3811   -0.9683    0.0000 N   0  0  0  0  0  0  0  0  0  0  0  0
    0.2857    2.0001    0.0000 N   0  0  0  0  0  0  0  0  0  0  0  0
   -2.8097    1.8890    0.0000 N   0  0  0  0  0  0  0  0  0  0  0  0
   -0.9366    0.8889    0.0000 C   0  0  0  0  0  0  0  0  0  0  0  0
   -1.9525   -0.1429    0.0000 C   0  0  0  0  0  0  0  0  0  0  0  0
   -1.9684   -0.9683    0.0000 C   0  0  0  0  0  0  0  0  0  0  0  0
   -1.1747   -1.2382    0.0000 C   0  0  0  0  0  0  0  0  0  0  0  0
    1.4763   -2.5240    0.0000 C   0  0  0  0  0  0  0  0  0  0  0  0
    1.2382   -1.7462    0.0000 C   0  0  0  0  0  0  0  0  0  0  0  0
   -2.6669   -1.3652    0.0000 C   0  0  0  0  0  0  0  0  0  0  0  0
   -0.1111   -2.1747    0.0000 C   0  0  0  0  0  0  0  0  0  0  0  0
   -1.0953    1.6667    0.0000 C   0  0  0  0  0  0  0  0  0  0  0  0
   -0.1429    0.6349    0.0000 C   0  0  0  0  0  0  0  0  0  0  0  0
   -2.6827    0.2540    0.0000 C   0  0  0  0  0  0  0  0  0  0  0  0
   -1.7144    0.7144    0.0000 C   0  0  0  0  0  0  0  0  0  0  0  0
    0.4286   -1.5874    0.0000 C   0  0  0  0  0  0  0  0  0  0  0  0
    1.9049   -1.2540    0.0000 C   0  0  0  0  0  0  0  0  0  0  0  0
    0.9525   -3.1272    0.0000 C   0  0  0  0  0  0  0  0  0  0  0  0
    0.1588   -2.9684    0.0000 C   0  0  0  0  0  0  0  0  0  0  0  0
   -3.3653   -0.1429    0.0000 C   0  0  0  0  0  0  0  0  0  0  0  0
   -0.4762    2.2382    0.0000 C   0  0  0  0  0  0  0  0  0  0  0  0
    0.4762    1.1906    0.0000 C   0  0  0  0  0  0  0  0  0  0  0  0
   -2.2700    1.3175    0.0000 C   0  0  0  0  0  0  0  0  0  0  0  0
    3.3811   -1.4763    0.0000 C   0  0  0  0  0  0  0  0  0  0  0  0
    0.9048    2.5558    0.0000 C   0  0  0  0  0  0  0  0  0  0  0  0
    1.8732    1.4922    0.0000 C   0  0  0  0  0  0  0  0  0  0  0  0
  1  2  2  0  0  0  0
  1  3  2  0  0  0  0
  1 10  1  0  0  0  0
  1 18  1  0  0  0  0
  4 20  2  0  0  0  0
  5 35  1  0  0  0  0
  5 36  1  0  0  0  0
  6 35  2  0  0  0  0
  7  8  1  0  0  0  0
  7 14  1  0  0  0  0
  7 15  1  0  0  0  0
  8 17  2  0  0  0  0
  9 17  1  0  0  0  0
  9 21  1  0  0  0  0
 10 27  1  0  0  0  0
 10 34  1  0  0  0  0
 11 20  1  0  0  0  0
 11 30  1  0  0  0  0
 12 31  1  0  0  0  0
 12 32  1  0  0  0  0
 12 35  1  0  0  0  0
 13 33  3  0  0  0  0
 14 22  1  0  0  0  0
 14 23  1  0  0  0  0
 14 25  1  0  0  0  0
 15 16  2  0  0  0  0
 15 24  1  0  0  0  0
 16 17  1  0  0  0  0
 16 20  1  0  0  0  0
 18 19  2  0  0  0  0
 18 28  1  0  0  0  0
 19 26  1  0  0  0  0
 19 27  1  0  0  0  0
 21 26  2  0  0  0  0
 21 29  1  0  0  0  0
 22 31  1  0  0  0  0
 23 32  1  0  0  0  0
 24 30  2  0  0  0  0
 25 33  1  0  0  0  0
 28 29  2  0  0  0  0
M  END
> <PUBCHEM_COMPOUND_ID_TYPE>
0

> <PUBCHEM_TOTAL_CHARGE>
0

> <PUBCHEM_SUBSTANCE_ID>
310940106

> <PUBCHEM_SUBSTANCE_VERSION>
1

> <PUBCHEM_EXT_DATASOURCE_NAME>
4488

> <PUBCHEM_EXT_DATASOURCE_REGID>
SCHEMBL16118037

> <PUBCHEM_SUBSTANCE_COMMENT>
InChI=1S/C23H25N7O5S/c1-28-14-15-13-16(3-4-18(15)36(28,33)34)26-20-19-17(5-10-25-21(19)31)30(27-20)23(6-9-24)7-11-29(12-8-23)22(32)35-2/h3-5,10,13H,6-8,11-12,14H2,1-2H3,(H,25,31)(H,26,27)
InChIKey=YNJSNNAMLJBQCZ-UHFFFAOYSA-N

> <PUBCHEM_SUBSTANCE_SYNONYM>
SCHEMBL16118037

> <PUBCHEM_XREF_EXT_ID>
SCHEMBL16118037

> <PUBCHEM_EXT_DATASOURCE_URL>
https://www.surechembl.org/

> <PUBCHEM_EXT_SUBSTANCE_URL>
https://www.surechembl.org/chemical/SCHEMBL16118037

> <PUBCHEM_CID_ASSOCIATIONS>
117607238  1

> <PUBCHEM_COORDINATE_TYPE>
1
3

$$$$
