310934082
  -OEChem-07211613022D

 38 42  0     1  0  0  0  0  0999 V2000
    4.3613   -8.6363    0.0000 Cl  0  0  0  0  0  0  0  0  0  0  0  0
    3.3682   -7.2977    0.0000 F   0  0  0  0  0  0  0  0  0  0  0  0
    4.3181   -3.2818    0.0000 O   0  0  0  0  0  0  0  0  0  0  0  0
    3.5841   -1.2522    0.0000 O   0  0  0  0  0  0  0  0  0  0  0  0
    7.1681    0.0000    0.0000 O   0  0  0  0  0  0  0  0  0  0  0  0
    7.9022   -1.2522    0.0000 O   0  0  0  0  0  0  0  0  0  0  0  0
    2.8932   -3.2818    0.0000 N   0  0  0  0  0  0  0  0  0  0  0  0
    0.8204   -1.9432    0.0000 N   0  0  0  0  0  0  0  0  0  0  0  0
    1.1227   -1.1659    0.0000 N   0  0  0  0  0  0  0  0  0  0  0  0
    4.0159   -5.7863    0.0000 N   0  0  0  0  0  0  0  0  0  0  0  0
    2.9363   -5.0091    0.0000 N   0  0  0  0  0  0  0  0  0  0  0  0
    4.3181   -2.5046    0.0000 N   0  0  0  0  0  0  0  0  0  0  0  0
    3.1954   -5.7863    0.0000 N   0  0  0  0  0  0  0  0  0  0  0  0
    2.1591   -2.0296    0.0000 C   0  0  0  0  0  0  0  0  0  0  0  0
    2.8932   -2.5046    0.0000 C   0  0  3  0  0  0  0  0  0  0  0  0
    1.4250   -2.5046    0.0000 C   0  0  0  0  0  0  0  0  0  0  0  0
    1.9432   -1.2522    0.0000 C   0  0  0  0  0  0  0  0  0  0  0  0
    3.5841   -3.6704    0.0000 C   0  0  0  0  0  0  0  0  0  0  0  0
    3.5841   -2.0727    0.0000 C   0  0  0  0  0  0  0  0  0  0  0  0
    1.4250   -3.3250    0.0000 C   0  0  0  0  0  0  0  0  0  0  0  0
    2.1159   -3.7136    0.0000 C   0  0  0  0  0  0  0  0  0  0  0  0
    3.5841   -4.5341    0.0000 C   0  0  0  0  0  0  0  0  0  0  0  0
    4.2750   -5.0091    0.0000 C   0  0  0  0  0  0  0  0  0  0  0  0
    4.5341   -6.4341    0.0000 C   0  0  0  0  0  0  0  0  0  0  0  0
    2.5046   -0.6477    0.0000 C   0  0  0  0  0  0  0  0  0  0  0  0
    4.1886   -7.2113    0.0000 C   0  0  0  0  0  0  0  0  0  0  0  0
    0.0000   -2.1159    0.0000 C   0  0  0  0  0  0  0  0  0  0  0  0
    5.0091   -2.0727    0.0000 C   0  0  0  0  0  0  0  0  0  0  0  0
    5.3545   -6.3477    0.0000 C   0  0  0  0  0  0  0  0  0  0  0  0
    4.6636   -7.8590    0.0000 C   0  0  0  0  0  0  0  0  0  0  0  0
    5.8295   -7.0386    0.0000 C   0  0  0  0  0  0  0  0  0  0  0  0
    5.0091   -1.2522    0.0000 C   0  0  0  0  0  0  0  0  0  0  0  0
    5.7431   -2.5046    0.0000 C   0  0  0  0  0  0  0  0  0  0  0  0
    5.4841   -7.7727    0.0000 C   0  0  0  0  0  0  0  0  0  0  0  0
    6.4772   -1.2522    0.0000 C   0  0  0  0  0  0  0  0  0  0  0  0
    5.7431   -0.8204    0.0000 C   0  0  0  0  0  0  0  0  0  0  0  0
    6.4772   -2.0727    0.0000 C   0  0  0  0  0  0  0  0  0  0  0  0
    7.1681   -0.8204    0.0000 C   0  0  0  0  0  0  0  0  0  0  0  0
  1 30  1  0  0  0  0
  2 26  1  0  0  0  0
  3 18  2  0  0  0  0
  4 19  2  0  0  0  0
  5 38  2  0  0  0  0
  6 38  1  0  0  0  0
  7 15  1  0  0  0  0
  7 18  1  0  0  0  0
  7 21  1  0  0  0  0
  8  9  1  0  0  0  0
  8 16  1  0  0  0  0
  8 27  1  0  0  0  0
  9 17  2  0  0  0  0
 10 13  1  0  0  0  0
 10 23  1  0  0  0  0
 10 24  1  0  0  0  0
 11 13  2  0  0  0  0
 11 22  1  0  0  0  0
 12 19  1  0  0  0  0
 12 28  1  0  0  0  0
 14 15  1  0  0  0  0
 14 16  2  0  0  0  0
 14 17  1  0  0  0  0
 15 19  1  0  0  0  0
 16 20  1  0  0  0  0
 17 25  1  0  0  0  0
 18 22  1  0  0  0  0
 20 21  1  0  0  0  0
 22 23  2  0  0  0  0
 24 26  1  0  0  0  0
 24 29  2  0  0  0  0
 26 30  2  0  0  0  0
 28 32  2  0  0  0  0
 28 33  1  0  0  0  0
 29 31  1  0  0  0  0
 30 34  1  0  0  0  0
 31 34  2  0  0  0  0
 32 36  1  0  0  0  0
 33 37  2  0  0  0  0
 35 36  2  0  0  0  0
 35 37  1  0  0  0  0
 35 38  1  0  0  0  0
M  END
> <PUBCHEM_COMPOUND_ID_TYPE>
0

> <PUBCHEM_TOTAL_CHARGE>
0

> <PUBCHEM_SUBSTANCE_ID>
310934082

> <PUBCHEM_SUBSTANCE_VERSION>
1

> <PUBCHEM_EXT_DATASOURCE_NAME>
4488

> <PUBCHEM_EXT_DATASOURCE_REGID>
SCHEMBL16111528

> <PUBCHEM_SUBSTANCE_COMMENT>
InChI=1S/C25H21ClFN7O4/c1-13-20-18(32(2)30-13)10-11-33(22(20)23(35)28-15-8-6-14(7-9-15)25(37)38)24(36)17-12-34(31-29-17)19-5-3-4-16(26)21(19)27/h3-9,12,22H,10-11H2,1-2H3,(H,28,35)(H,37,38)
InChIKey=LNKXXEMOPNVZGM-UHFFFAOYSA-N

> <PUBCHEM_SUBSTANCE_SYNONYM>
SCHEMBL16111528

> <PUBCHEM_XREF_EXT_ID>
SCHEMBL16111528

> <PUBCHEM_EXT_DATASOURCE_URL>
https://www.surechembl.org/

> <PUBCHEM_EXT_SUBSTANCE_URL>
https://www.surechembl.org/chemical/SCHEMBL16111528

> <PUBCHEM_CID_ASSOCIATIONS>
117602368  1

> <PUBCHEM_COORDINATE_TYPE>
1
3

$$$$
