310941337
  -OEChem-07211613022D

 37 40  0     1  0  0  0  0  0999 V2000
    5.0765    0.3953    0.0000 O   0  0  0  0  0  0  0  0  0  0  0  0
    3.9391   -1.5743    0.0000 O   0  0  0  0  0  0  0  0  0  0  0  0
    1.7893    0.5063    0.0000 O   0  0  0  0  0  0  0  0  0  0  0  0
   -0.3745   -1.5743    0.0000 O   0  0  0  0  0  0  0  0  0  0  0  0
   -2.5383    0.5063    0.0000 O   0  0  0  0  0  0  0  0  0  0  0  0
   -5.4094    0.5063    0.0000 O   0  0  0  0  0  0  0  0  0  0  0  0
    2.5105   -0.7420    0.0000 N   0  0  0  0  0  0  0  0  0  0  0  0
    0.3468   -0.3259    0.0000 N   0  0  0  0  0  0  0  0  0  0  0  0
   -1.8031   -0.7420    0.0000 N   0  0  0  0  0  0  0  0  0  0  0  0
   -3.9669   -0.3259    0.0000 N   0  0  0  0  0  0  0  0  0  0  0  0
    4.6743   -0.2844    0.0000 C   0  0  3  0  0  0  0  0  0  0  0  0
    3.9530   -0.6866    0.0000 C   0  0  0  0  0  0  0  0  0  0  0  0
    4.2721    0.4092    0.0000 C   0  0  0  0  0  0  0  0  0  0  0  0
    3.2179   -0.2982    0.0000 C   0  0  3  0  0  0  0  0  0  0  0  0
    5.4094   -0.7143    0.0000 C   0  0  0  0  0  0  0  0  0  0  0  0
    3.2179    1.0195    0.0000 C   0  0  0  0  0  0  0  0  0  0  0  0
    1.7754   -0.3259    0.0000 C   0  0  0  0  0  0  0  0  0  0  0  0
    1.0818   -0.7005    0.0000 C   0  0  3  0  0  0  0  0  0  0  0  0
    2.5105    1.4494    0.0000 C   0  0  0  0  0  0  0  0  0  0  0  0
    1.0680   -1.5465    0.0000 C   0  0  0  0  0  0  0  0  0  0  0  0
    1.8031   -1.9487    0.0000 C   0  0  0  0  0  0  0  0  0  0  0  0
   -0.3606   -0.6866    0.0000 C   0  0  0  0  0  0  0  0  0  0  0  0
    2.6076   -1.9626    0.0000 C   0  0  0  0  0  0  0  0  0  0  0  0
    2.2053   -2.6561    0.0000 C   0  0  0  0  0  0  0  0  0  0  0  0
    1.8031    1.0333    0.0000 C   0  0  0  0  0  0  0  0  0  0  0  0
    2.5105    2.2539    0.0000 C   0  0  0  0  0  0  0  0  0  0  0  0
   -1.0818   -0.2982    0.0000 C   0  0  3  0  0  0  0  0  0  0  0  0
    1.0818    1.4355    0.0000 C   0  0  0  0  0  0  0  0  0  0  0  0
    1.7893    2.6561    0.0000 C   0  0  0  0  0  0  0  0  0  0  0  0
   -2.5383   -0.3259    0.0000 C   0  0  0  0  0  0  0  0  0  0  0  0
    1.0818    2.2539    0.0000 C   0  0  0  0  0  0  0  0  0  0  0  0
   -3.2318   -0.7005    0.0000 C   0  0  0  0  0  0  0  0  0  0  0  0
   -1.0680    0.5479    0.0000 C   0  0  0  0  0  0  0  0  0  0  0  0
   -3.9669    0.5201    0.0000 C   0  0  0  0  0  0  0  0  0  0  0  0
   -4.6882   -0.7005    0.0000 C   0  0  0  0  0  0  0  0  0  0  0  0
   -4.7159    0.9362    0.0000 C   0  0  0  0  0  0  0  0  0  0  0  0
   -5.3956   -0.2982    0.0000 C   0  0  0  0  0  0  0  0  0  0  0  0
  1 11  1  0  0  0  0
  1 13  1  0  0  0  0
  2 12  2  0  0  0  0
  3 17  2  0  0  0  0
  4 22  2  0  0  0  0
  5 30  2  0  0  0  0
  6 36  1  0  0  0  0
  6 37  1  0  0  0  0
  7 14  1  0  0  0  0
  7 17  1  0  0  0  0
  8 18  1  0  0  0  0
  8 22  1  0  0  0  0
  9 27  1  0  0  0  0
  9 30  1  0  0  0  0
 10 32  1  0  0  0  0
 10 34  1  0  0  0  0
 10 35  1  0  0  0  0
 11 12  1  0  0  0  0
 11 13  1  0  0  0  0
 11 15  1  0  0  0  0
 12 14  1  0  0  0  0
 14 16  1  0  0  0  0
 16 19  1  0  0  0  0
 17 18  1  0  0  0  0
 18 20  1  0  0  0  0
 19 25  2  0  0  0  0
 19 26  1  0  0  0  0
 20 21  1  0  0  0  0
 21 23  1  0  0  0  0
 21 24  1  0  0  0  0
 22 27  1  0  0  0  0
 23 24  1  0  0  0  0
 25 28  1  0  0  0  0
 26 29  2  0  0  0  0
 27 33  1  0  0  0  0
 28 31  2  0  0  0  0
 29 31  1  0  0  0  0
 30 32  1  0  0  0  0
 34 36  1  0  0  0  0
 35 37  1  0  0  0  0
M  END
> <PUBCHEM_COMPOUND_ID_TYPE>
0

> <PUBCHEM_TOTAL_CHARGE>
0

> <PUBCHEM_SUBSTANCE_ID>
310941337

> <PUBCHEM_SUBSTANCE_VERSION>
1

> <PUBCHEM_EXT_DATASOURCE_NAME>
4488

> <PUBCHEM_EXT_DATASOURCE_REGID>
SCHEMBL16119297

> <PUBCHEM_SUBSTANCE_COMMENT>
InChI=1S/C27H38N4O6/c1-18(28-23(32)16-31-10-12-36-13-11-31)25(34)30-22(15-20-8-9-20)26(35)29-21(24(33)27(2)17-37-27)14-19-6-4-3-5-7-19/h3-7,18,20-22H,8-17H2,1-2H3,(H,28,32)(H,29,35)(H,30,34)
InChIKey=MKDREPKCWGHSFK-UHFFFAOYSA-N

> <PUBCHEM_SUBSTANCE_SYNONYM>
SCHEMBL16119297

> <PUBCHEM_XREF_EXT_ID>
SCHEMBL16119297

> <PUBCHEM_EXT_DATASOURCE_URL>
https://www.surechembl.org/

> <PUBCHEM_EXT_SUBSTANCE_URL>
https://www.surechembl.org/chemical/SCHEMBL16119297

> <PUBCHEM_CID_ASSOCIATIONS>
117608180  1

> <PUBCHEM_COORDINATE_TYPE>
1
3

$$$$
