310936003
  -OEChem-07211613022D

 40 45  0     1  0  0  0  0  0999 V2000
    3.5700   -4.8852    0.0000 O   0  0  0  0  0  0  0  0  0  0  0  0
    5.7119   -3.6827    0.0000 O   0  0  0  0  0  0  0  0  0  0  0  0
    0.7140   -3.2693    0.0000 N   0  0  3  0  0  0  0  0  0  0  0  0
    0.0000   -2.0668    0.0000 N   0  0  0  0  0  0  0  0  0  0  0  0
    0.7140   -0.8267    0.0000 N   0  0  0  0  0  0  0  0  0  0  0  0
    4.9603   -6.5386    0.0000 N   0  0  0  0  0  0  0  0  0  0  0  0
    2.8559   -6.1252    0.0000 N   0  0  0  0  0  0  0  0  0  0  0  0
    4.9603   -2.4426    0.0000 N   0  0  0  0  0  0  0  0  0  0  0  0
    1.4280   -2.0668    0.0000 C   0  0  0  0  0  0  0  0  0  0  0  0
    0.7140   -2.4426    0.0000 C   0  0  0  0  0  0  0  0  0  0  0  0
    1.4280   -1.2401    0.0000 C   0  0  0  0  0  0  0  0  0  0  0  0
    2.8184   -2.0292    0.0000 C   0  0  0  0  0  0  0  0  0  0  0  0
    2.1044   -0.8267    0.0000 C   0  0  0  0  0  0  0  0  0  0  0  0
    2.1044   -2.4426    0.0000 C   0  0  0  0  0  0  0  0  0  0  0  0
    1.4280   -4.5094    0.0000 C   0  0  0  0  0  0  0  0  0  0  0  0
    1.4280   -3.6827    0.0000 C   0  0  0  0  0  0  0  0  0  0  0  0
    0.7140   -4.9228    0.0000 C   0  0  0  0  0  0  0  0  0  0  0  0
    2.8184   -1.2401    0.0000 C   0  0  0  0  0  0  0  0  0  0  0  0
    0.0000   -3.6827    0.0000 C   0  0  0  0  0  0  0  0  0  0  0  0
    3.5323   -2.4426    0.0000 C   0  0  0  0  0  0  0  0  0  0  0  0
    4.2839   -6.1252    0.0000 C   0  0  0  0  0  0  0  0  0  0  0  0
    2.1420   -5.7119    0.0000 C   0  0  0  0  0  0  0  0  0  0  0  0
    2.1420   -4.8852    0.0000 C   0  0  0  0  0  0  0  0  0  0  0  0
    0.0000   -1.2401    0.0000 C   0  0  0  0  0  0  0  0  0  0  0  0
    0.0000   -4.5094    0.0000 C   0  0  0  0  0  0  0  0  0  0  0  0
    3.5700   -5.7119    0.0000 C   0  0  0  0  0  0  0  0  0  0  0  0
    0.7140   -5.7119    0.0000 C   0  0  0  0  0  0  0  0  0  0  0  0
    1.4280   -6.1252    0.0000 C   0  0  0  0  0  0  0  0  0  0  0  0
    2.1044    0.0000    0.0000 C   0  0  0  0  0  0  0  0  0  0  0  0
    4.2839   -2.0668    0.0000 C   0  0  0  0  0  0  0  0  0  0  0  0
    3.5700   -3.2693    0.0000 C   0  0  0  0  0  0  0  0  0  0  0  0
    5.7495   -6.2004    0.0000 C   0  0  0  0  0  0  0  0  0  0  0  0
    5.0730   -7.3653    0.0000 C   0  0  0  0  0  0  0  0  0  0  0  0
    4.9603   -5.7119    0.0000 C   0  0  0  0  0  0  0  0  0  0  0  0
    4.2839   -6.9520    0.0000 C   0  0  0  0  0  0  0  0  0  0  0  0
    4.9979   -3.2693    0.0000 C   0  0  0  0  0  0  0  0  0  0  0  0
    4.2464   -3.6827    0.0000 C   0  0  0  0  0  0  0  0  0  0  0  0
    6.2756   -6.8017    0.0000 C   0  0  0  0  0  0  0  0  0  0  0  0
    5.8622   -7.5157    0.0000 C   0  0  0  0  0  0  0  0  0  0  0  0
    6.3883   -3.2693    0.0000 C   0  0  0  0  0  0  0  0  0  0  0  0
  1 26  2  0  0  0  0
  2 36  1  0  0  0  0
  2 40  1  0  0  0  0
  3 10  1  0  0  0  0
  3 16  1  0  0  0  0
  3 19  1  0  0  0  0
  4 10  1  0  0  0  0
  4 24  2  0  0  0  0
  5 11  2  0  0  0  0
  5 24  1  0  0  0  0
  6 21  1  0  0  0  0
  6 32  1  0  0  0  0
  6 33  1  0  0  0  0
  7 22  1  0  0  0  0
  7 26  1  0  0  0  0
  8 30  1  0  0  0  0
  8 36  2  0  0  0  0
  9 10  2  0  0  0  0
  9 11  1  0  0  0  0
  9 14  1  0  0  0  0
 11 13  1  0  0  0  0
 12 14  2  0  0  0  0
 12 18  1  0  0  0  0
 12 20  1  0  0  0  0
 13 18  2  0  0  0  0
 13 29  1  0  0  0  0
 15 16  1  0  0  0  0
 15 17  2  0  0  0  0
 15 23  1  0  0  0  0
 17 25  1  0  0  0  0
 17 27  1  0  0  0  0
 19 25  1  0  0  0  0
 20 30  2  0  0  0  0
 20 31  1  0  0  0  0
 21 26  1  0  0  0  0
 21 34  1  0  0  0  0
 21 35  1  0  0  0  0
 22 23  2  0  0  0  0
 22 28  1  0  0  0  0
 27 28  2  0  0  0  0
 31 37  2  0  0  0  0
 32 38  1  0  0  0  0
 33 39  1  0  0  0  0
 36 37  1  0  0  0  0
 38 39  1  0  0  0  0
M  END
> <PUBCHEM_COMPOUND_ID_TYPE>
0

> <PUBCHEM_TOTAL_CHARGE>
0

> <PUBCHEM_SUBSTANCE_ID>
310936003

> <PUBCHEM_SUBSTANCE_VERSION>
1

> <PUBCHEM_EXT_DATASOURCE_NAME>
4488

> <PUBCHEM_EXT_DATASOURCE_REGID>
SCHEMBL16113604

> <PUBCHEM_SUBSTANCE_COMMENT>
InChI=1S/C32H36N6O2/c1-21-15-24(23-8-10-28(40-4)33-18-23)17-27-29(21)34-20-35-30(27)37-14-11-22-7-9-26(16-25(22)19-37)36-31(39)32(2,3)38-12-5-6-13-38/h7-10,15-18,20H,5-6,11-14,19H2,1-4H3,(H,36,39)
InChIKey=HPGXMLMQKKBCRH-UHFFFAOYSA-N

> <PUBCHEM_SUBSTANCE_SYNONYM>
SCHEMBL16113604

> <PUBCHEM_XREF_EXT_ID>
SCHEMBL16113604

> <PUBCHEM_EXT_DATASOURCE_URL>
https://www.surechembl.org/

> <PUBCHEM_EXT_SUBSTANCE_URL>
https://www.surechembl.org/chemical/SCHEMBL16113604

> <PUBCHEM_CID_ASSOCIATIONS>
117603975  1

> <PUBCHEM_COORDINATE_TYPE>
1
3

$$$$
