310946067
  -OEChem-07211613022D

 37 40  0     1  0  0  0  0  0999 V2000
    3.6405    1.4039    0.0000 O   0  0  0  0  0  0  0  0  0  0  0  0
    1.3832    1.4039    0.0000 O   0  0  0  0  0  0  0  0  0  0  0  0
   -0.0482    1.4039    0.0000 O   0  0  0  0  0  0  0  0  0  0  0  0
    0.6676    0.9910    0.0000 O   0  0  0  0  0  0  0  0  0  0  0  0
   -3.2275    2.6289    0.0000 O   0  0  0  0  0  0  0  0  0  0  0  0
   -2.9110   -2.7252    0.0000 O   0  0  0  0  0  0  0  0  0  0  0  0
    1.3832   -0.2477    0.0000 N   0  0  0  0  0  0  0  0  0  0  0  0
   -2.3053    1.5002    0.0000 N   0  0  0  0  0  0  0  0  0  0  0  0
   -0.7639    0.1651    0.0000 N   0  0  0  0  0  0  0  0  0  0  0  0
    2.8146    1.4314    0.0000 C   0  0  3  0  0  0  0  0  0  0  0  0
    2.1127    1.0047    0.0000 C   0  0  0  0  0  0  0  0  0  0  0  0
    3.2275    0.7295    0.0000 C   0  0  0  0  0  0  0  0  0  0  0  0
    2.0852    0.1927    0.0000 C   0  0  3  0  0  0  0  0  0  0  0  0
   -1.4658    1.4176    0.0000 C   0  0  3  0  0  0  0  0  0  0  0  0
   -0.7777    1.0047    0.0000 C   0  0  0  0  0  0  0  0  0  0  0  0
    2.8146    2.2572    0.0000 C   0  0  0  0  0  0  0  0  0  0  0  0
   -0.0344   -0.2202    0.0000 C   0  0  3  0  0  0  0  0  0  0  0  0
    0.6676    0.1651    0.0000 C   0  0  0  0  0  0  0  0  0  0  0  0
    2.8146   -0.2340    0.0000 C   0  0  0  0  0  0  0  0  0  0  0  0
   -1.1492    2.1884    0.0000 C   0  0  0  0  0  0  0  0  0  0  0  0
   -2.4430    2.2985    0.0000 C   0  0  0  0  0  0  0  0  0  0  0  0
   -1.7824    2.7252    0.0000 C   0  0  0  0  0  0  0  0  0  0  0  0
    2.8146   -1.0460    0.0000 C   0  0  0  0  0  0  0  0  0  0  0  0
   -0.0482   -1.0460    0.0000 C   0  0  0  0  0  0  0  0  0  0  0  0
   -1.4658    0.5919    0.0000 C   0  0  0  0  0  0  0  0  0  0  0  0
   -0.7639   -1.4452    0.0000 C   0  0  0  0  0  0  0  0  0  0  0  0
    3.5304   -1.4589    0.0000 C   0  0  0  0  0  0  0  0  0  0  0  0
    2.1127   -1.4589    0.0000 C   0  0  0  0  0  0  0  0  0  0  0  0
   -1.4934   -1.0598    0.0000 C   0  0  0  0  0  0  0  0  0  0  0  0
   -0.7639   -2.2847    0.0000 C   0  0  0  0  0  0  0  0  0  0  0  0
   -2.1953   -2.2847    0.0000 C   0  0  0  0  0  0  0  0  0  0  0  0
   -2.1815   -1.4589    0.0000 C   0  0  0  0  0  0  0  0  0  0  0  0
   -1.4796   -2.6839    0.0000 C   0  0  0  0  0  0  0  0  0  0  0  0
    3.5304   -2.2847    0.0000 C   0  0  0  0  0  0  0  0  0  0  0  0
    2.1127   -2.2847    0.0000 C   0  0  0  0  0  0  0  0  0  0  0  0
    2.8146   -2.6839    0.0000 C   0  0  0  0  0  0  0  0  0  0  0  0
   -3.6405   -2.2985    0.0000 C   0  0  0  0  0  0  0  0  0  0  0  0
  1 10  1  0  0  0  0
  1 12  1  0  0  0  0
  2 11  2  0  0  0  0
  3 15  2  0  0  0  0
  4 18  2  0  0  0  0
  5 21  2  0  0  0  0
  6 31  1  0  0  0  0
  6 37  1  0  0  0  0
  7 13  1  0  0  0  0
  7 18  1  0  0  0  0
  8 14  1  0  0  0  0
  8 21  1  0  0  0  0
  9 15  1  0  0  0  0
  9 17  1  0  0  0  0
 10 11  1  0  0  0  0
 10 12  1  0  0  0  0
 10 16  1  0  0  0  0
 11 13  1  0  0  0  0
 13 19  1  0  0  0  0
 14 15  1  0  0  0  0
 14 20  1  0  0  0  0
 14 25  1  0  0  0  0
 17 18  1  0  0  0  0
 17 24  1  0  0  0  0
 19 23  1  0  0  0  0
 20 22  1  0  0  0  0
 21 22  1  0  0  0  0
 23 27  2  0  0  0  0
 23 28  1  0  0  0  0
 24 26  1  0  0  0  0
 26 29  2  0  0  0  0
 26 30  1  0  0  0  0
 27 34  1  0  0  0  0
 28 35  2  0  0  0  0
 29 32  1  0  0  0  0
 30 33  2  0  0  0  0
 31 32  2  0  0  0  0
 31 33  1  0  0  0  0
 34 36  2  0  0  0  0
 35 36  1  0  0  0  0
M  END
> <PUBCHEM_COMPOUND_ID_TYPE>
0

> <PUBCHEM_TOTAL_CHARGE>
0

> <PUBCHEM_SUBSTANCE_ID>
310946067

> <PUBCHEM_SUBSTANCE_VERSION>
1

> <PUBCHEM_EXT_DATASOURCE_NAME>
4488

> <PUBCHEM_EXT_DATASOURCE_REGID>
SCHEMBL16124173

> <PUBCHEM_SUBSTANCE_COMMENT>
InChI=1S/C28H33N3O6/c1-27(14-13-23(32)31-27)26(35)30-22(16-19-9-11-20(36-3)12-10-19)25(34)29-21(24(33)28(2)17-37-28)15-18-7-5-4-6-8-18/h4-12,21-22H,13-17H2,1-3H3,(H,29,34)(H,30,35)(H,31,32)
InChIKey=FDTHJNWPZPQEPA-UHFFFAOYSA-N

> <PUBCHEM_SUBSTANCE_SYNONYM>
SCHEMBL16124173

> <PUBCHEM_XREF_EXT_ID>
SCHEMBL16124173

> <PUBCHEM_EXT_DATASOURCE_URL>
https://www.surechembl.org/

> <PUBCHEM_EXT_SUBSTANCE_URL>
https://www.surechembl.org/chemical/SCHEMBL16124173

> <PUBCHEM_CID_ASSOCIATIONS>
117612038  1

> <PUBCHEM_COORDINATE_TYPE>
1
3

$$$$
