310939128
  -OEChem-07211613022D

 23 25  0     1  0  0  0  0  0999 V2000
    0.2093    0.6328    0.0000 F   0  0  0  0  0  0  0  0  0  0  0  0
   -1.2197   -1.8422    0.0000 F   0  0  0  0  0  0  0  0  0  0  0  0
   -1.2197   -0.1922    0.0000 O   0  0  0  0  0  0  0  0  0  0  0  0
    1.6382    0.6328    0.0000 N   0  0  0  0  0  0  0  0  0  0  0  0
    0.9237   -0.6047    0.0000 C   0  0  0  0  0  0  0  0  0  0  0  0
    0.2093   -0.1922    0.0000 C   0  0  0  0  0  0  0  0  0  0  0  0
   -0.5052   -0.6047    0.0000 C   0  0  0  0  0  0  0  0  0  0  0  0
   -0.5052   -1.4297    0.0000 C   0  0  0  0  0  0  0  0  0  0  0  0
    1.6382   -0.1922    0.0000 C   0  0  3  0  0  0  0  0  0  0  0  0
    0.9237   -1.4297    0.0000 C   0  0  0  0  0  0  0  0  0  0  0  0
    0.2093   -1.8422    0.0000 C   0  0  0  0  0  0  0  0  0  0  0  0
   -1.9341   -0.6047    0.0000 C   0  0  0  0  0  0  0  0  0  0  0  0
    2.3527    1.0453    0.0000 C   0  0  0  0  0  0  0  0  0  0  0  0
    2.3527   -0.6047    0.0000 C   0  0  0  0  0  0  0  0  0  0  0  0
   -1.9341   -1.4297    0.0000 C   0  0  0  0  0  0  0  0  0  0  0  0
   -2.6486   -0.1922    0.0000 C   0  0  0  0  0  0  0  0  0  0  0  0
    3.1496    0.8318    0.0000 C   0  0  0  0  0  0  0  0  0  0  0  0
    2.5662    1.8422    0.0000 C   0  0  0  0  0  0  0  0  0  0  0  0
    3.3631    1.6287    0.0000 C   0  0  0  0  0  0  0  0  0  0  0  0
   -2.6486   -1.8422    0.0000 C   0  0  0  0  0  0  0  0  0  0  0  0
   -3.3631   -0.6047    0.0000 C   0  0  0  0  0  0  0  0  0  0  0  0
    2.3527   -1.4297    0.0000 C   0  0  0  0  0  0  0  0  0  0  0  0
   -3.3631   -1.4297    0.0000 C   0  0  0  0  0  0  0  0  0  0  0  0
  1  6  1  0  0  0  0
  2  8  1  0  0  0  0
  3  7  1  0  0  0  0
  3 12  1  0  0  0  0
  4  9  1  0  0  0  0
  4 13  1  0  0  0  0
  5  6  2  0  0  0  0
  5  9  1  0  0  0  0
  5 10  1  0  0  0  0
  6  7  1  0  0  0  0
  7  8  2  0  0  0  0
  8 11  1  0  0  0  0
  9 14  1  0  0  0  0
 10 11  2  0  0  0  0
 12 15  2  0  0  0  0
 12 16  1  0  0  0  0
 13 17  1  0  0  0  0
 13 18  1  0  0  0  0
 14 22  1  0  0  0  0
 15 20  1  0  0  0  0
 16 21  2  0  0  0  0
 17 19  1  0  0  0  0
 18 19  1  0  0  0  0
 20 23  2  0  0  0  0
 21 23  1  0  0  0  0
M  END
> <PUBCHEM_COMPOUND_ID_TYPE>
0

> <PUBCHEM_TOTAL_CHARGE>
0

> <PUBCHEM_SUBSTANCE_ID>
310939128

> <PUBCHEM_SUBSTANCE_VERSION>
1

> <PUBCHEM_EXT_DATASOURCE_NAME>
4488

> <PUBCHEM_EXT_DATASOURCE_REGID>
SCHEMBL16117049

> <PUBCHEM_SUBSTANCE_COMMENT>
InChI=1S/C19H21F2NO/c1-2-17(22-13-7-6-8-13)15-11-12-16(20)19(18(15)21)23-14-9-4-3-5-10-14/h3-5,9-13,17,22H,2,6-8H2,1H3
InChIKey=NPYNTMHEVNLQIW-UHFFFAOYSA-N

> <PUBCHEM_SUBSTANCE_SYNONYM>
SCHEMBL16117049

> <PUBCHEM_XREF_EXT_ID>
SCHEMBL16117049

> <PUBCHEM_EXT_DATASOURCE_URL>
https://www.surechembl.org/

> <PUBCHEM_EXT_SUBSTANCE_URL>
https://www.surechembl.org/chemical/SCHEMBL16117049

> <PUBCHEM_CID_ASSOCIATIONS>
117606483  1

> <PUBCHEM_COORDINATE_TYPE>
1
3

$$$$
