310939483
  -OEChem-07211613022D

 23 26  0     1  0  0  0  0  0999 V2000
    2.7282   -0.0527    0.0000 O   0  0  0  0  0  0  0  0  0  0  0  0
   -3.3413    1.2541    0.0000 O   0  0  0  0  0  0  0  0  0  0  0  0
    0.9455    1.2541    0.0000 N   0  0  0  0  0  0  0  0  0  0  0  0
    0.2310    0.8416    0.0000 N   0  0  0  0  0  0  0  0  0  0  0  0
    1.7301    2.3340    0.0000 N   0  0  0  0  0  0  0  0  0  0  0  0
   -1.1979    0.8416    0.0000 N   0  0  0  0  0  0  0  0  0  0  0  0
    1.7301    0.9992    0.0000 C   0  0  0  0  0  0  0  0  0  0  0  0
    1.9436    0.2023    0.0000 C   0  0  0  0  0  0  0  0  0  0  0  0
    0.9455    2.0791    0.0000 C   0  0  0  0  0  0  0  0  0  0  0  0
    2.7282   -0.8777    0.0000 C   0  0  0  0  0  0  0  0  0  0  0  0
    1.9436   -1.1326    0.0000 C   0  0  0  0  0  0  0  0  0  0  0  0
    2.2150    1.6666    0.0000 C   0  0  0  0  0  0  0  0  0  0  0  0
    1.4587   -0.4652    0.0000 C   0  0  0  0  0  0  0  0  0  0  0  0
   -0.4835    1.2541    0.0000 C   0  0  0  0  0  0  0  0  0  0  0  0
    0.2310    2.4916    0.0000 C   0  0  0  0  0  0  0  0  0  0  0  0
   -0.4835    2.0791    0.0000 C   0  0  0  0  0  0  0  0  0  0  0  0
    3.3413   -1.4297    0.0000 C   0  0  0  0  0  0  0  0  0  0  0  0
    1.7721   -1.9396    0.0000 C   0  0  0  0  0  0  0  0  0  0  0  0
    3.1698   -2.2367    0.0000 C   0  0  0  0  0  0  0  0  0  0  0  0
    2.3852   -2.4916    0.0000 C   0  0  0  0  0  0  0  0  0  0  0  0
   -1.9124    1.2541    0.0000 C   0  0  3  0  0  0  0  0  0  0  0  0
   -2.6269    0.8416    0.0000 C   0  0  0  0  0  0  0  0  0  0  0  0
   -1.9124    2.0791    0.0000 C   0  0  0  0  0  0  0  0  0  0  0  0
  1  8  1  0  0  0  0
  1 10  1  0  0  0  0
  2 22  1  0  0  0  0
  3  4  1  0  0  0  0
  3  7  1  0  0  0  0
  3  9  1  0  0  0  0
  4 14  2  0  0  0  0
  5  9  2  0  0  0  0
  5 12  1  0  0  0  0
  6 14  1  0  0  0  0
  6 21  1  0  0  0  0
  7  8  1  0  0  0  0
  7 12  2  0  0  0  0
  8 13  2  0  0  0  0
  9 15  1  0  0  0  0
 10 11  2  0  0  0  0
 10 17  1  0  0  0  0
 11 13  1  0  0  0  0
 11 18  1  0  0  0  0
 14 16  1  0  0  0  0
 15 16  2  0  0  0  0
 17 19  2  0  0  0  0
 18 20  2  0  0  0  0
 19 20  1  0  0  0  0
 21 22  1  0  0  0  0
 21 23  1  0  0  0  0
M  END
> <PUBCHEM_COMPOUND_ID_TYPE>
0

> <PUBCHEM_TOTAL_CHARGE>
0

> <PUBCHEM_SUBSTANCE_ID>
310939483

> <PUBCHEM_SUBSTANCE_VERSION>
1

> <PUBCHEM_EXT_DATASOURCE_NAME>
4488

> <PUBCHEM_EXT_DATASOURCE_REGID>
SCHEMBL16117412

> <PUBCHEM_SUBSTANCE_COMMENT>
InChI=1S/C17H16N4O2/c1-11(10-22)19-16-6-7-17-18-9-13(21(17)20-16)15-8-12-4-2-3-5-14(12)23-15/h2-9,11,22H,10H2,1H3,(H,19,20)
InChIKey=IWISQJRXUSVULY-UHFFFAOYSA-N

> <PUBCHEM_SUBSTANCE_SYNONYM>
SCHEMBL16117412

> <PUBCHEM_XREF_EXT_ID>
SCHEMBL16117412

> <PUBCHEM_EXT_DATASOURCE_URL>
https://www.surechembl.org/

> <PUBCHEM_EXT_SUBSTANCE_URL>
https://www.surechembl.org/chemical/SCHEMBL16117412

> <PUBCHEM_CID_ASSOCIATIONS>
78077937  1

> <PUBCHEM_COORDINATE_TYPE>
1
3

$$$$
