310945640
  -OEChem-07211613022D

 34 37  0     1  0  0  0  0  0999 V2000
    4.6132    0.8109    0.0000 O   0  0  0  0  0  0  0  0  0  0  0  0
    1.6765    0.9643    0.0000 O   0  0  0  0  0  0  0  0  0  0  0  0
   -4.0653   -0.7013    0.0000 O   0  0  0  0  0  0  0  0  0  0  0  0
    6.2350   -0.8766    0.0000 O   0  0  0  0  0  0  0  0  0  0  0  0
    5.9501   -2.2792    0.0000 O   0  0  0  0  0  0  0  0  0  0  0  0
   -6.2350   -1.0957    0.0000 N   0  0  0  0  0  0  0  0  0  0  0  0
    3.7366   -0.1754    0.0000 C   0  0  0  0  0  0  0  0  0  0  0  0
    3.7805    0.6355    0.0000 C   0  0  0  0  0  0  0  0  0  0  0  0
    4.5475   -0.4602    0.0000 C   0  0  3  0  0  0  0  0  0  0  0  0
   -1.9833    0.6355    0.0000 C   0  0  0  0  0  0  0  0  0  0  0  0
   -1.2821    1.0519    0.0000 C   0  0  0  0  0  0  0  0  0  0  0  0
    2.3340    0.6355    0.0000 C   0  0  0  0  0  0  0  0  0  0  0  0
    3.0134    1.0300    0.0000 C   0  0  0  0  0  0  0  0  0  0  0  0
   -2.7066    1.0300    0.0000 C   0  0  0  0  0  0  0  0  0  0  0  0
   -2.0053   -0.1972    0.0000 C   0  0  0  0  0  0  0  0  0  0  0  0
    3.0792   -0.5917    0.0000 C   0  0  0  0  0  0  0  0  0  0  0  0
    5.0296    0.1972    0.0000 C   0  0  0  0  0  0  0  0  0  0  0  0
    2.3340   -0.1972    0.0000 C   0  0  0  0  0  0  0  0  0  0  0  0
   -0.5370    0.6574    0.0000 C   0  0  0  0  0  0  0  0  0  0  0  0
    0.1644    1.0519    0.0000 C   0  0  0  0  0  0  0  0  0  0  0  0
   -3.4298   -0.1972    0.0000 C   0  0  0  0  0  0  0  0  0  0  0  0
    4.7885   -1.2492    0.0000 C   0  0  0  0  0  0  0  0  0  0  0  0
   -3.4079    0.6355    0.0000 C   0  0  0  0  0  0  0  0  0  0  0  0
   -2.7504   -0.5917    0.0000 C   0  0  0  0  0  0  0  0  0  0  0  0
   -1.2602    1.8847    0.0000 C   0  0  0  0  0  0  0  0  0  0  0  0
    0.8657    0.6355    0.0000 C   0  0  0  0  0  0  0  0  0  0  0  0
    0.1644    1.8628    0.0000 C   0  0  0  0  0  0  0  0  0  0  0  0
    5.5994   -1.4245    0.0000 C   0  0  0  0  0  0  0  0  0  0  0  0
   -0.5808    2.2792    0.0000 C   0  0  0  0  0  0  0  0  0  0  0  0
   -2.7285    1.8847    0.0000 C   0  0  0  0  0  0  0  0  0  0  0  0
   -1.2602   -0.6136    0.0000 C   0  0  0  0  0  0  0  0  0  0  0  0
   -4.8762   -0.2191    0.0000 C   0  0  0  0  0  0  0  0  0  0  0  0
   -5.5775   -0.6136    0.0000 C   0  0  0  0  0  0  0  0  0  0  0  0
    5.9063    0.0000    0.0000 C   0  0  0  0  0  0  0  0  0  0  0  0
  1  8  1  0  0  0  0
  1 17  1  0  0  0  0
  2 12  1  0  0  0  0
  2 26  1  0  0  0  0
  3 21  1  0  0  0  0
  3 32  1  0  0  0  0
  4 28  1  0  0  0  0
  4 34  1  0  0  0  0
  5 28  2  0  0  0  0
  6 33  3  0  0  0  0
  7  8  1  0  0  0  0
  7  9  1  0  0  0  0
  7 16  2  0  0  0  0
  8 13  2  0  0  0  0
  9 17  1  0  0  0  0
  9 22  1  0  0  0  0
 10 11  1  0  0  0  0
 10 14  2  0  0  0  0
 10 15  1  0  0  0  0
 11 19  2  0  0  0  0
 11 25  1  0  0  0  0
 12 13  1  0  0  0  0
 12 18  2  0  0  0  0
 14 23  1  0  0  0  0
 14 30  1  0  0  0  0
 15 24  2  0  0  0  0
 15 31  1  0  0  0  0
 16 18  1  0  0  0  0
 19 20  1  0  0  0  0
 20 26  1  0  0  0  0
 20 27  2  0  0  0  0
 21 23  2  0  0  0  0
 21 24  1  0  0  0  0
 22 28  1  0  0  0  0
 25 29  2  0  0  0  0
 27 29  1  0  0  0  0
 32 33  1  0  0  0  0
M  END
> <PUBCHEM_COMPOUND_ID_TYPE>
0

> <PUBCHEM_TOTAL_CHARGE>
0

> <PUBCHEM_SUBSTANCE_ID>
310945640

> <PUBCHEM_SUBSTANCE_VERSION>
1

> <PUBCHEM_EXT_DATASOURCE_NAME>
4488

> <PUBCHEM_EXT_DATASOURCE_REGID>
SCHEMBL16123739

> <PUBCHEM_SUBSTANCE_COMMENT>
InChI=1S/C28H27NO5/c1-18-11-24(32-10-9-29)12-19(2)28(18)21-6-4-5-20(13-21)16-33-23-7-8-25-22(14-27(30)31-3)17-34-26(25)15-23/h4-8,11-13,15,22H,10,14,16-17H2,1-3H3
InChIKey=LGCKDBOGGMRKKP-UHFFFAOYSA-N

> <PUBCHEM_SUBSTANCE_SYNONYM>
SCHEMBL16123739

> <PUBCHEM_XREF_EXT_ID>
SCHEMBL16123739

> <PUBCHEM_EXT_DATASOURCE_URL>
https://www.surechembl.org/

> <PUBCHEM_EXT_SUBSTANCE_URL>
https://www.surechembl.org/chemical/SCHEMBL16123739

> <PUBCHEM_CID_ASSOCIATIONS>
117611651  1

> <PUBCHEM_COORDINATE_TYPE>
1
3

$$$$
