310946596
  -OEChem-07211613022D

 22 21  0     1  0  0  0  0  0999 V2000
    4.3787    7.1281    0.0000 S   0  0  0  0  0  0  0  0  0  0  0  0
    4.3787    4.6533    0.0000 O   0  0  0  0  0  0  0  0  0  0  0  0
    5.0932    5.8908    0.0000 O   0  0  0  0  0  0  0  0  0  0  0  0
    2.2454    6.7158    0.0000 O   0  0  0  0  0  0  0  0  0  0  0  0
    0.8144    3.4158    0.0000 O   0  0  0  0  0  0  0  0  0  0  0  0
    3.6643    8.3658    0.0000 O   0  0  0  0  0  0  0  0  0  0  0  0
    1.5289    2.1783    0.0000 O   0  5  0  0  0  0  0  0  0  0  0  0
    2.2434    3.4158    0.0000 O   0  0  0  0  0  0  0  0  0  0  0  0
    2.9499    5.4783    0.0000 N   0  0  0  0  0  0  0  0  0  0  0  0
    1.5289    3.0033    0.0000 N   0  3  0  0  0  0  0  0  0  0  0  0
    3.6643    5.8908    0.0000 C   0  0  3  0  0  0  0  0  0  0  0  0
    4.3787    5.4783    0.0000 C   0  0  0  0  0  0  0  0  0  0  0  0
    2.2434    5.8908    0.0000 C   0  0  0  0  0  0  0  0  0  0  0  0
    3.6643    6.7158    0.0000 C   0  0  0  0  0  0  0  0  0  0  0  0
    4.3787    7.9531    0.0000 C   0  0  0  0  0  0  0  0  0  0  0  0
    1.5289    5.4783    0.0000 C   0  0  0  0  0  0  0  0  0  0  0  0
    1.5289    4.6533    0.0000 C   0  0  0  0  0  0  0  0  0  0  0  0
    5.0932    8.3658    0.0000 C   0  0  0  0  0  0  0  0  0  0  0  0
    0.8144    4.2408    0.0000 C   0  0  0  0  0  0  0  0  0  0  0  0
    5.8078    7.9531    0.0000 C   0  0  0  0  0  0  0  0  0  0  0  0
    6.5222    8.3658    0.0000 C   0  0  0  0  0  0  0  0  0  0  0  0
    7.2367    7.9531    0.0000 C   0  0  0  0  0  0  0  0  0  0  0  0
  1 14  1  0  0  0  0
  1 15  1  0  0  0  0
  2 12  2  0  0  0  0
  3 12  1  0  0  0  0
  4 13  2  0  0  0  0
  5 10  1  0  0  0  0
  5 19  1  0  0  0  0
  6 15  2  0  0  0  0
  7 10  1  0  0  0  0
  8 10  2  0  0  0  0
  9 11  1  0  0  0  0
  9 13  1  0  0  0  0
 11 12  1  0  0  0  0
 11 14  1  0  0  0  0
 13 16  1  0  0  0  0
 15 18  1  0  0  0  0
 16 17  1  0  0  0  0
 17 19  1  0  0  0  0
 18 20  1  0  0  0  0
 20 21  1  0  0  0  0
 21 22  1  0  0  0  0
M  CHG  2   7  -1  10   1
M  END
> <PUBCHEM_COMPOUND_ID_TYPE>
0

> <PUBCHEM_TOTAL_CHARGE>
0

> <PUBCHEM_SUBSTANCE_ID>
310946596

> <PUBCHEM_SUBSTANCE_VERSION>
1

> <PUBCHEM_EXT_DATASOURCE_NAME>
4488

> <PUBCHEM_EXT_DATASOURCE_REGID>
SCHEMBL16124717

> <PUBCHEM_SUBSTANCE_COMMENT>
InChI=1S/C12H20N2O7S/c1-2-3-6-11(16)22-8-9(12(17)18)13-10(15)5-4-7-21-14(19)20/h9H,2-8H2,1H3,(H,13,15)(H,17,18)
InChIKey=RVYNKDKTGJSMOM-UHFFFAOYSA-N

> <PUBCHEM_SUBSTANCE_SYNONYM>
SCHEMBL16124717

> <PUBCHEM_XREF_EXT_ID>
SCHEMBL16124717

> <PUBCHEM_EXT_DATASOURCE_URL>
https://www.surechembl.org/

> <PUBCHEM_EXT_SUBSTANCE_URL>
https://www.surechembl.org/chemical/SCHEMBL16124717

> <PUBCHEM_CID_ASSOCIATIONS>
117612496  1

> <PUBCHEM_COORDINATE_TYPE>
1
3

$$$$
