310936367
  -OEChem-07211613022D

 42 45  0     1  0  0  0  0  0999 V2000
    0.0000   -7.4152    0.0000 F   0  0  0  0  0  0  0  0  0  0  0  0
    7.4152   -1.1408    0.0000 O   0  0  0  0  0  0  0  0  0  0  0  0
    8.8412   -1.9557    0.0000 O   0  0  0  0  0  0  0  0  0  0  0  0
    8.1485   -3.2186    0.0000 O   0  0  0  0  0  0  0  0  0  0  0  0
    3.7484   -5.2558    0.0000 O   0  0  0  0  0  0  0  0  0  0  0  0
    3.3001   -5.9892    0.0000 O   0  0  0  0  0  0  0  0  0  0  0  0
    5.2558   -3.2186    0.0000 N   0  0  0  0  0  0  0  0  0  0  0  0
    7.4152   -3.6261    0.0000 N   0  0  0  0  0  0  0  0  0  0  0  0
    4.6447   -3.7891    0.0000 N   0  0  0  0  0  0  0  0  0  0  0  0
    4.9706   -5.9484    0.0000 N   0  0  0  0  0  0  0  0  0  0  0  0
    6.6818   -3.2186    0.0000 C   0  0  0  0  0  0  0  0  0  0  0  0
    5.9892   -3.6261    0.0000 C   0  0  0  0  0  0  0  0  0  0  0  0
    6.6818   -2.4038    0.0000 C   0  0  0  0  0  0  0  0  0  0  0  0
    5.9892   -1.9557    0.0000 C   0  0  0  0  0  0  0  0  0  0  0  0
    7.4152   -1.9557    0.0000 C   0  0  3  0  0  0  0  0  0  0  0  0
    5.7854   -4.4410    0.0000 C   0  0  0  0  0  0  0  0  0  0  0  0
    5.2558   -2.4038    0.0000 C   0  0  0  0  0  0  0  0  0  0  0  0
    4.9706   -4.5224    0.0000 C   0  0  0  0  0  0  0  0  0  0  0  0
    8.1485   -2.4038    0.0000 C   0  0  0  0  0  0  0  0  0  0  0  0
    8.2708   -3.3816    0.0000 C   0  0  0  0  0  0  0  0  0  0  0  0
    7.3744   -4.4410    0.0000 C   0  0  0  0  0  0  0  0  0  0  0  0
    4.5632   -5.2558    0.0000 C   0  0  0  0  0  0  0  0  0  0  0  0
    8.8412   -4.4817    0.0000 C   0  0  0  0  0  0  0  0  0  0  0  0
    5.9892   -1.1408    0.0000 C   0  0  0  0  0  0  0  0  0  0  0  0
    6.6818   -0.7334    0.0000 C   0  0  0  0  0  0  0  0  0  0  0  0
    8.8412   -3.6261    0.0000 C   0  0  0  0  0  0  0  0  0  0  0  0
    8.1078   -4.8891    0.0000 C   0  0  0  0  0  0  0  0  0  0  0  0
    9.5338   -4.8891    0.0000 C   0  0  0  0  0  0  0  0  0  0  0  0
    8.8412   -5.2965    0.0000 C   0  0  0  0  0  0  0  0  0  0  0  0
    5.9892   -0.2852    0.0000 C   0  0  0  0  0  0  0  0  0  0  0  0
    7.1300    0.0000    0.0000 C   0  0  0  0  0  0  0  0  0  0  0  0
    6.2744   -1.4260    0.0000 C   0  0  0  0  0  0  0  0  0  0  0  0
    4.5632   -6.6818    0.0000 C   0  0  0  0  0  0  0  0  0  0  0  0
    8.8412   -1.1408    0.0000 C   0  0  0  0  0  0  0  0  0  0  0  0
    3.7076   -6.6818    0.0000 C   0  0  0  0  0  0  0  0  0  0  0  0
    3.3409   -7.4152    0.0000 C   0  0  0  0  0  0  0  0  0  0  0  0
    2.4853   -7.4152    0.0000 C   0  0  0  0  0  0  0  0  0  0  0  0
    2.0779   -8.1485    0.0000 C   0  0  0  0  0  0  0  0  0  0  0  0
    2.0372   -6.7225    0.0000 C   0  0  0  0  0  0  0  0  0  0  0  0
    0.8148   -7.4152    0.0000 C   0  0  0  0  0  0  0  0  0  0  0  0
    1.2223   -8.1485    0.0000 C   0  0  0  0  0  0  0  0  0  0  0  0
    1.2223   -6.7225    0.0000 C   0  0  0  0  0  0  0  0  0  0  0  0
  1 40  1  0  0  0  0
  2 15  1  0  0  0  0
  2 25  1  0  0  0  0
  3 19  1  0  0  0  0
  3 34  1  0  0  0  0
  4 19  2  0  0  0  0
  5 22  2  0  0  0  0
  6 35  2  0  0  0  0
  7  9  1  0  0  0  0
  7 12  1  0  0  0  0
  7 17  1  0  0  0  0
  8 11  1  0  0  0  0
  8 20  1  0  0  0  0
  8 21  1  0  0  0  0
  9 18  2  0  0  0  0
 10 22  1  0  0  0  0
 10 33  1  0  0  0  0
 11 12  1  0  0  0  0
 11 13  2  0  0  0  0
 12 16  2  0  0  0  0
 13 14  1  0  0  0  0
 13 15  1  0  0  0  0
 14 17  2  0  0  0  0
 14 24  1  0  0  0  0
 15 19  1  0  0  0  0
 16 18  1  0  0  0  0
 18 22  1  0  0  0  0
 20 26  1  0  0  0  0
 21 27  1  0  0  0  0
 23 26  1  0  0  0  0
 23 27  1  0  0  0  0
 23 28  1  0  0  0  0
 23 29  1  0  0  0  0
 25 30  1  0  0  0  0
 25 31  1  0  0  0  0
 25 32  1  0  0  0  0
 33 35  1  0  0  0  0
 35 36  1  0  0  0  0
 36 37  1  0  0  0  0
 37 38  2  0  0  0  0
 37 39  1  0  0  0  0
 38 41  1  0  0  0  0
 39 42  2  0  0  0  0
 40 41  2  0  0  0  0
 40 42  1  0  0  0  0
M  END
> <PUBCHEM_COMPOUND_ID_TYPE>
0

> <PUBCHEM_TOTAL_CHARGE>
0

> <PUBCHEM_SUBSTANCE_ID>
310936367

> <PUBCHEM_SUBSTANCE_VERSION>
1

> <PUBCHEM_EXT_DATASOURCE_NAME>
4488

> <PUBCHEM_EXT_DATASOURCE_REGID>
SCHEMBL16114001

> <PUBCHEM_SUBSTANCE_COMMENT>
InChI=1S/C32H41FN4O5/c1-20-19-37-25(17-24(35-37)29(39)34-18-23(38)16-21-8-10-22(33)11-9-21)27(36-14-12-32(5,6)13-15-36)26(20)28(30(40)41-7)42-31(2,3)4/h8-11,17,19,28H,12-16,18H2,1-7H3,(H,34,39)
InChIKey=QSXSYIYNSIRYPW-UHFFFAOYSA-N

> <PUBCHEM_SUBSTANCE_SYNONYM>
SCHEMBL16114001

> <PUBCHEM_XREF_EXT_ID>
SCHEMBL16114001

> <PUBCHEM_EXT_DATASOURCE_URL>
https://www.surechembl.org/

> <PUBCHEM_EXT_SUBSTANCE_URL>
https://www.surechembl.org/chemical/SCHEMBL16114001

> <PUBCHEM_CID_ASSOCIATIONS>
117604309  1

> <PUBCHEM_COORDINATE_TYPE>
1
3

$$$$
