310932050
  -OEChem-07211613022D

 39 42  0     1  0  0  0  0  0999 V2000
    2.8711    0.0000    0.0000 Br  0  0  0  0  0  0  0  0  0  0  0  0
    4.1910   -4.1251    0.0000 O   0  0  0  0  0  0  0  0  0  0  0  0
    2.8380   -2.4751    0.0000 O   0  0  0  0  0  0  0  0  0  0  0  0
    2.0790   -3.6961    0.0000 O   0  0  0  0  0  0  0  0  0  0  0  0
    5.6100   -4.1581    0.0000 O   0  0  0  0  0  0  0  0  0  0  0  0
    4.3891   -1.8480    0.0000 O   0  0  0  0  0  0  0  0  0  0  0  0
    6.3691   -1.3200    0.0000 O   0  0  0  0  0  0  0  0  0  0  0  0
    7.0621   -1.7160    0.0000 O   0  0  0  0  0  0  0  0  0  0  0  0
    9.1741   -3.7620    0.0000 O   0  0  0  0  0  0  0  0  0  0  0  0
    9.9001   -2.5410    0.0000 O   0  0  0  0  0  0  0  0  0  0  0  0
    5.6431   -2.5080    0.0000 N   0  0  0  0  0  0  0  0  0  0  0  0
    7.7551   -2.9700    0.0000 N   0  0  0  0  0  0  0  0  0  0  0  0
    4.9170   -2.9040    0.0000 C   0  0  3  0  0  0  0  0  0  0  0  0
    3.5310   -2.9040    0.0000 C   0  0  3  0  0  0  0  0  0  0  0  0
    4.2240   -2.5080    0.0000 C   0  0  3  0  0  0  0  0  0  0  0  0
    3.5310   -3.6961    0.0000 C   0  0  3  0  0  0  0  0  0  0  0  0
    4.9170   -3.7291    0.0000 C   0  0  3  0  0  0  0  0  0  0  0  0
    5.6761   -1.7160    0.0000 C   0  0  0  0  0  0  0  0  0  0  0  0
    2.1120   -2.8711    0.0000 C   0  0  3  0  0  0  0  0  0  0  0  0
    2.8050   -4.0920    0.0000 C   0  0  0  0  0  0  0  0  0  0  0  0
    6.3361   -2.9370    0.0000 C   0  0  0  0  0  0  0  0  0  0  0  0
    4.9831   -1.2870    0.0000 C   0  0  0  0  0  0  0  0  0  0  0  0
    1.3860   -2.4420    0.0000 C   0  0  0  0  0  0  0  0  0  0  0  0
    7.0621   -2.5410    0.0000 C   0  0  0  0  0  0  0  0  0  0  0  0
    4.9831   -0.4620    0.0000 C   0  0  0  0  0  0  0  0  0  0  0  0
    4.2571   -1.6830    0.0000 C   0  0  0  0  0  0  0  0  0  0  0  0
    0.6600   -2.8380    0.0000 C   0  0  0  0  0  0  0  0  0  0  0  0
    1.4190   -1.6500    0.0000 C   0  0  0  0  0  0  0  0  0  0  0  0
    6.3361   -3.7620    0.0000 C   0  0  0  0  0  0  0  0  0  0  0  0
    4.2901   -0.0330    0.0000 C   0  0  0  0  0  0  0  0  0  0  0  0
    3.5641   -1.2540    0.0000 C   0  0  0  0  0  0  0  0  0  0  0  0
    3.5641   -0.4290    0.0000 C   0  0  0  0  0  0  0  0  0  0  0  0
    8.4811   -2.5410    0.0000 C   0  0  3  0  0  0  0  0  0  0  0  0
    0.0000   -2.4420    0.0000 C   0  0  0  0  0  0  0  0  0  0  0  0
    0.7260   -1.1880    0.0000 C   0  0  0  0  0  0  0  0  0  0  0  0
    0.0000   -1.6170    0.0000 C   0  0  0  0  0  0  0  0  0  0  0  0
    9.1741   -2.9700    0.0000 C   0  0  0  0  0  0  0  0  0  0  0  0
    8.4811   -1.7160    0.0000 C   0  0  0  0  0  0  0  0  0  0  0  0
    7.7551   -1.3200    0.0000 C   0  0  0  0  0  0  0  0  0  0  0  0
  1 32  1  0  0  0  0
  2 16  1  0  0  0  0
  2 17  1  0  0  0  0
  3 14  1  0  0  0  0
  3 19  1  0  0  0  0
  4 19  1  0  0  0  0
  4 20  1  0  0  0  0
  5 17  1  0  0  0  0
  5 29  1  0  0  0  0
  6 15  1  0  0  0  0
  7 18  2  0  0  0  0
  8 24  2  0  0  0  0
  9 37  2  0  0  0  0
 10 37  1  0  0  0  0
 11 13  1  0  0  0  0
 11 18  1  0  0  0  0
 11 21  1  0  0  0  0
 12 24  1  0  0  0  0
 12 33  1  0  0  0  0
 13 15  1  0  0  0  0
 13 17  1  0  0  0  0
 14 15  1  0  0  0  0
 14 16  1  0  0  0  0
 16 20  1  0  0  0  0
 18 22  1  0  0  0  0
 19 23  1  0  0  0  0
 21 24  1  0  0  0  0
 22 25  2  0  0  0  0
 22 26  1  0  0  0  0
 23 27  2  0  0  0  0
 23 28  1  0  0  0  0
 25 30  1  0  0  0  0
 26 31  2  0  0  0  0
 27 34  1  0  0  0  0
 28 35  2  0  0  0  0
 30 32  2  0  0  0  0
 31 32  1  0  0  0  0
 33 37  1  0  0  0  0
 33 38  1  0  0  0  0
 34 36  2  0  0  0  0
 35 36  1  0  0  0  0
 38 39  1  0  0  0  0
M  END
> <PUBCHEM_COMPOUND_ID_TYPE>
0

> <PUBCHEM_TOTAL_CHARGE>
0

> <PUBCHEM_SUBSTANCE_ID>
310932050

> <PUBCHEM_SUBSTANCE_VERSION>
1

> <PUBCHEM_EXT_DATASOURCE_NAME>
4488

> <PUBCHEM_EXT_DATASOURCE_REGID>
SCHEMBL16109396

> <PUBCHEM_SUBSTANCE_COMMENT>
InChI=1S/C27H31BrN2O9/c1-3-18(25(34)35)29-20(31)13-30(24(33)15-9-11-17(28)12-10-15)21-22(32)23-19(38-27(21)36-2)14-37-26(39-23)16-7-5-4-6-8-16/h4-12,18-19,21-23,26-27,32H,3,13-14H2,1-2H3,(H,29,31)(H,34,35)
InChIKey=MFTBUVMZQNCRMZ-UHFFFAOYSA-N

> <PUBCHEM_SUBSTANCE_SYNONYM>
SCHEMBL16109396

> <PUBCHEM_XREF_EXT_ID>
SCHEMBL16109396

> <PUBCHEM_EXT_DATASOURCE_URL>
https://www.surechembl.org/

> <PUBCHEM_EXT_SUBSTANCE_URL>
https://www.surechembl.org/chemical/SCHEMBL16109396

> <PUBCHEM_CID_ASSOCIATIONS>
117600680  1

> <PUBCHEM_COORDINATE_TYPE>
1
3

$$$$
