310939081
  -OEChem-07211613022D

 34 36  0     1  0  0  0  0  0999 V2000
   -2.8878    0.8250    0.0000 O   0  0  0  0  0  0  0  0  0  0  0  0
   -4.3167    0.8250    0.0000 O   0  0  0  0  0  0  0  0  0  0  0  0
    1.4089    0.8250    0.0000 O   0  0  0  0  0  0  0  0  0  0  0  0
    2.8379    0.8250    0.0000 O   0  0  0  0  0  0  0  0  0  0  0  0
   -0.8526    0.8250    0.0000 O   0  0  0  0  0  0  0  0  0  0  0  0
    5.0312    0.8250    0.0000 O   0  0  0  0  0  0  0  0  0  0  0  0
    3.6023    0.8250    0.0000 O   0  0  0  0  0  0  0  0  0  0  0  0
   -2.8878   -0.8250    0.0000 N   0  0  0  0  0  0  0  0  0  0  0  0
   -3.6023    0.4125    0.0000 C   0  0  3  0  0  0  0  0  0  0  0  0
   -2.8878    1.6500    0.0000 C   0  0  3  0  0  0  0  0  0  0  0  0
   -3.6023   -0.4125    0.0000 C   0  0  0  0  0  0  0  0  0  0  0  0
   -4.3167    1.6500    0.0000 C   0  0  3  0  0  0  0  0  0  0  0  0
    1.4089    1.6500    0.0000 C   0  0  3  0  0  0  0  0  0  0  0  0
   -3.6023    2.0625    0.0000 C   0  0  0  0  0  0  0  0  0  0  0  0
    2.8379    1.6500    0.0000 C   0  0  3  0  0  0  0  0  0  0  0  0
   -1.5670    2.0625    0.0000 C   0  0  0  0  0  0  0  0  0  0  0  0
   -0.8526    1.6500    0.0000 C   0  0  3  0  0  0  0  0  0  0  0  0
    2.1234    0.4125    0.0000 C   0  0  3  0  0  0  0  0  0  0  0  0
    2.1234    2.0625    0.0000 C   0  0  0  0  0  0  0  0  0  0  0  0
    0.6945    2.0625    0.0000 C   0  0  0  0  0  0  0  0  0  0  0  0
   -4.3167   -0.8250    0.0000 C   0  0  0  0  0  0  0  0  0  0  0  0
    4.3167    2.0625    0.0000 C   0  0  0  0  0  0  0  0  0  0  0  0
   -5.0312    2.0625    0.0000 C   0  0  0  0  0  0  0  0  0  0  0  0
    2.1234   -0.4125    0.0000 C   0  0  0  0  0  0  0  0  0  0  0  0
    5.0312    1.6500    0.0000 C   0  0  3  0  0  0  0  0  0  0  0  0
   -2.8878   -1.6500    0.0000 C   0  0  0  0  0  0  0  0  0  0  0  0
   -4.3167   -1.6500    0.0000 C   0  0  0  0  0  0  0  0  0  0  0  0
   -3.6023   -2.0625    0.0000 C   0  0  0  0  0  0  0  0  0  0  0  0
    2.8379   -0.8250    0.0000 C   0  0  0  0  0  0  0  0  0  0  0  0
   -5.7457    1.6500    0.0000 C   0  0  0  0  0  0  0  0  0  0  0  0
    5.7457    2.0625    0.0000 C   0  0  0  0  0  0  0  0  0  0  0  0
    4.3167    0.4125    0.0000 C   0  0  0  0  0  0  0  0  0  0  0  0
    2.8379   -1.6500    0.0000 C   0  0  0  0  0  0  0  0  0  0  0  0
    4.3167   -0.4125    0.0000 C   0  0  0  0  0  0  0  0  0  0  0  0
  1  9  1  0  0  0  0
  1 10  1  0  0  0  0
  2  9  1  0  0  0  0
  2 12  1  0  0  0  0
  3 13  1  0  0  0  0
  3 18  1  0  0  0  0
  4 15  1  0  0  0  0
  4 18  1  0  0  0  0
  5 17  1  0  0  0  0
  6 25  1  0  0  0  0
  6 32  1  0  0  0  0
  7 32  2  0  0  0  0
  8 11  1  0  0  0  0
  8 26  2  0  0  0  0
  9 11  1  0  0  0  0
 10 14  1  0  0  0  0
 10 16  1  0  0  0  0
 11 21  2  0  0  0  0
 12 14  1  0  0  0  0
 12 23  1  0  0  0  0
 13 19  1  0  0  0  0
 13 20  1  0  0  0  0
 15 19  1  0  0  0  0
 15 22  1  0  0  0  0
 16 17  1  0  0  0  0
 17 20  1  0  0  0  0
 18 24  1  0  0  0  0
 21 27  1  0  0  0  0
 22 25  1  0  0  0  0
 23 30  1  0  0  0  0
 24 29  1  0  0  0  0
 25 31  1  0  0  0  0
 26 28  1  0  0  0  0
 27 28  2  0  0  0  0
 29 33  1  0  0  0  0
 32 34  1  0  0  0  0
M  END
> <PUBCHEM_COMPOUND_ID_TYPE>
0

> <PUBCHEM_TOTAL_CHARGE>
0

> <PUBCHEM_SUBSTANCE_ID>
310939081

> <PUBCHEM_SUBSTANCE_VERSION>
1

> <PUBCHEM_EXT_DATASOURCE_NAME>
4488

> <PUBCHEM_EXT_DATASOURCE_REGID>
SCHEMBL16117000

> <PUBCHEM_SUBSTANCE_COMMENT>
InChI=1S/C26H41NO7/c1-5-9-25-31-21(12-17(3)30-18(4)28)16-22(32-25)13-19(29)14-23-15-20(6-2)33-26(34-23)24-10-7-8-11-27-24/h7-8,10-11,17,19-23,25-26,29H,5-6,9,12-16H2,1-4H3
InChIKey=APSHVDNNEVCXPV-UHFFFAOYSA-N

> <PUBCHEM_SUBSTANCE_SYNONYM>
SCHEMBL16117000

> <PUBCHEM_XREF_EXT_ID>
SCHEMBL16117000

> <PUBCHEM_EXT_DATASOURCE_URL>
https://www.surechembl.org/

> <PUBCHEM_EXT_SUBSTANCE_URL>
https://www.surechembl.org/chemical/SCHEMBL16117000

> <PUBCHEM_CID_ASSOCIATIONS>
117606443  1

> <PUBCHEM_COORDINATE_TYPE>
1
3

$$$$
