310939556
  -OEChem-07211613022D

 30 33  0     1  0  0  0  0  0999 V2000
   -1.7862    1.0390    0.0000 O   0  0  0  0  0  0  0  0  0  0  0  0
    1.7951   -2.6890    0.0000 O   0  0  0  0  0  0  0  0  0  0  0  0
    4.6441    2.2765    0.0000 O   0  0  0  0  0  0  0  0  0  0  0  0
   -3.2151    0.2140    0.0000 O   0  0  0  0  0  0  0  0  0  0  0  0
    1.0717    0.2140    0.0000 N   0  0  0  0  0  0  0  0  0  0  0  0
    1.7862    1.4515    0.0000 N   0  0  0  0  0  0  0  0  0  0  0  0
    1.7862   -1.0235    0.0000 N   0  0  0  0  0  0  0  0  0  0  0  0
    3.2151    1.4515    0.0000 N   0  0  0  0  0  0  0  0  0  0  0  0
   -4.6441    1.0390    0.0000 N   0  0  0  0  0  0  0  0  0  0  0  0
    1.0717    1.0390    0.0000 C   0  0  0  0  0  0  0  0  0  0  0  0
    1.7862   -0.1985    0.0000 C   0  0  0  0  0  0  0  0  0  0  0  0
    2.5006    1.0390    0.0000 C   0  0  0  0  0  0  0  0  0  0  0  0
    0.3572    1.4515    0.0000 C   0  0  0  0  0  0  0  0  0  0  0  0
    2.5006    0.2140    0.0000 C   0  0  0  0  0  0  0  0  0  0  0  0
   -0.3572    1.0390    0.0000 C   0  0  0  0  0  0  0  0  0  0  0  0
    0.3572    2.2765    0.0000 C   0  0  0  0  0  0  0  0  0  0  0  0
   -1.0717    1.4515    0.0000 C   0  0  0  0  0  0  0  0  0  0  0  0
    2.5006   -1.4360    0.0000 C   0  0  0  0  0  0  0  0  0  0  0  0
    1.0717   -1.4360    0.0000 C   0  0  0  0  0  0  0  0  0  0  0  0
    3.9296    1.0390    0.0000 C   0  0  0  0  0  0  0  0  0  0  0  0
    3.2151    2.2765    0.0000 C   0  0  0  0  0  0  0  0  0  0  0  0
   -0.3572    2.6890    0.0000 C   0  0  0  0  0  0  0  0  0  0  0  0
   -1.0717    2.2765    0.0000 C   0  0  0  0  0  0  0  0  0  0  0  0
    2.5006   -2.2610    0.0000 C   0  0  0  0  0  0  0  0  0  0  0  0
    1.0717   -2.2687    0.0000 C   0  0  0  0  0  0  0  0  0  0  0  0
    4.6441    1.4515    0.0000 C   0  0  0  0  0  0  0  0  0  0  0  0
    3.9296    2.6890    0.0000 C   0  0  0  0  0  0  0  0  0  0  0  0
   -2.5006    1.4515    0.0000 C   0  0  0  0  0  0  0  0  0  0  0  0
   -3.2151    1.0390    0.0000 C   0  0  3  0  0  0  0  0  0  0  0  0
   -3.9296    1.4515    0.0000 C   0  0  0  0  0  0  0  0  0  0  0  0
  1 17  1  0  0  0  0
  1 28  1  0  0  0  0
  2 24  1  0  0  0  0
  2 25  1  0  0  0  0
  3 26  1  0  0  0  0
  3 27  1  0  0  0  0
  4 29  1  0  0  0  0
  5 10  1  0  0  0  0
  5 11  2  0  0  0  0
  6 10  2  0  0  0  0
  6 12  1  0  0  0  0
  7 11  1  0  0  0  0
  7 18  1  0  0  0  0
  7 19  1  0  0  0  0
  8 12  1  0  0  0  0
  8 20  1  0  0  0  0
  8 21  1  0  0  0  0
  9 30  1  0  0  0  0
 10 13  1  0  0  0  0
 11 14  1  0  0  0  0
 12 14  2  0  0  0  0
 13 15  2  0  0  0  0
 13 16  1  0  0  0  0
 15 17  1  0  0  0  0
 16 22  2  0  0  0  0
 17 23  2  0  0  0  0
 18 24  1  0  0  0  0
 19 25  1  0  0  0  0
 20 26  1  0  0  0  0
 21 27  1  0  0  0  0
 22 23  1  0  0  0  0
 28 29  1  0  0  0  0
 29 30  1  0  0  0  0
M  END
> <PUBCHEM_COMPOUND_ID_TYPE>
0

> <PUBCHEM_TOTAL_CHARGE>
0

> <PUBCHEM_SUBSTANCE_ID>
310939556

> <PUBCHEM_SUBSTANCE_VERSION>
1

> <PUBCHEM_EXT_DATASOURCE_NAME>
4488

> <PUBCHEM_EXT_DATASOURCE_REGID>
SCHEMBL16117485

> <PUBCHEM_SUBSTANCE_COMMENT>
InChI=1S/C21H29N5O4/c22-14-17(27)15-30-18-3-1-2-16(12-18)21-23-19(25-4-8-28-9-5-25)13-20(24-21)26-6-10-29-11-7-26/h1-3,12-13,17,27H,4-11,14-15,22H2
InChIKey=WCDJOTJGARTPNE-UHFFFAOYSA-N

> <PUBCHEM_SUBSTANCE_SYNONYM>
SCHEMBL16117485

> <PUBCHEM_XREF_EXT_ID>
SCHEMBL16117485

> <PUBCHEM_EXT_DATASOURCE_URL>
https://www.surechembl.org/

> <PUBCHEM_EXT_SUBSTANCE_URL>
https://www.surechembl.org/chemical/SCHEMBL16117485

> <PUBCHEM_CID_ASSOCIATIONS>
85471641  1

> <PUBCHEM_COORDINATE_TYPE>
1
3

$$$$
