310942462
  -OEChem-07211613022D

 20 21  0     1  0  0  0  0  0999 V2000
   -2.1661    0.4068    0.0000 S   0  0  3  0  0  0  0  0  0  0  0  0
   -2.1573   -0.4156    0.0000 O   0  0  0  0  0  0  0  0  0  0  0  0
   -0.7161    0.4068    0.0000 N   0  0  0  0  0  0  0  0  0  0  0  0
    0.7249    0.4068    0.0000 N   0  0  0  0  0  0  0  0  0  0  0  0
   -1.4324    1.6357    0.0000 N   0  0  0  0  0  0  0  0  0  0  0  0
    1.3970   -1.0079    0.0000 N   0  0  0  0  0  0  0  0  0  0  0  0
    1.1671   -1.7772    0.0000 N   0  0  0  0  0  0  0  0  0  0  0  0
    2.8823    2.4402    0.0000 N   0  0  0  0  0  0  0  0  0  0  0  0
    0.0088    0.8222    0.0000 C   0  0  0  0  0  0  0  0  0  0  0  0
    0.0177    1.6357    0.0000 C   0  0  0  0  0  0  0  0  0  0  0  0
   -1.4324    0.8222    0.0000 C   0  0  0  0  0  0  0  0  0  0  0  0
    0.7072   -0.5040    0.0000 C   0  0  0  0  0  0  0  0  0  0  0  0
   -0.7161    2.0423    0.0000 C   0  0  0  0  0  0  0  0  0  0  0  0
    0.0707   -0.9990    0.0000 C   0  0  0  0  0  0  0  0  0  0  0  0
    0.7249    2.0423    0.0000 C   0  0  0  0  0  0  0  0  0  0  0  0
    0.3448   -1.7772    0.0000 C   0  0  0  0  0  0  0  0  0  0  0  0
    1.4501    1.6357    0.0000 C   0  0  0  0  0  0  0  0  0  0  0  0
   -2.8823    0.8045    0.0000 C   0  0  0  0  0  0  0  0  0  0  0  0
    1.6888   -2.4402    0.0000 C   0  0  0  0  0  0  0  0  0  0  0  0
    2.1661    2.0512    0.0000 C   0  0  0  0  0  0  0  0  0  0  0  0
  1  2  2  0  0  0  0
  1 11  1  0  0  0  0
  1 18  1  0  0  0  0
  3  9  2  0  0  0  0
  3 11  1  0  0  0  0
  4  9  1  0  0  0  0
  4 12  1  0  0  0  0
  5 11  2  0  0  0  0
  5 13  1  0  0  0  0
  6  7  1  0  0  0  0
  6 12  2  0  0  0  0
  7 16  1  0  0  0  0
  7 19  1  0  0  0  0
  8 20  3  0  0  0  0
  9 10  1  0  0  0  0
 10 13  2  0  0  0  0
 10 15  1  0  0  0  0
 12 14  1  0  0  0  0
 14 16  2  0  0  0  0
 15 17  2  0  0  0  0
 17 20  1  0  0  0  0
M  END
> <PUBCHEM_COMPOUND_ID_TYPE>
0

> <PUBCHEM_TOTAL_CHARGE>
0

> <PUBCHEM_SUBSTANCE_ID>
310942462

> <PUBCHEM_SUBSTANCE_VERSION>
1

> <PUBCHEM_EXT_DATASOURCE_NAME>
4488

> <PUBCHEM_EXT_DATASOURCE_REGID>
SCHEMBL16120498

> <PUBCHEM_SUBSTANCE_COMMENT>
InChI=1S/C12H12N6OS/c1-18-7-5-10(17-18)15-11-9(4-3-6-13)8-14-12(16-11)20(2)19/h3-5,7-8H,1-2H3,(H,14,15,16,17)/b4-3+
InChIKey=DRKCQYVLQKBVJJ-ONEGZZNKSA-N

> <PUBCHEM_SUBSTANCE_SYNONYM>
SCHEMBL16120498

> <PUBCHEM_XREF_EXT_ID>
SCHEMBL16120498

> <PUBCHEM_EXT_DATASOURCE_URL>
https://www.surechembl.org/

> <PUBCHEM_EXT_SUBSTANCE_URL>
https://www.surechembl.org/chemical/SCHEMBL16120498

> <PUBCHEM_CID_ASSOCIATIONS>
117609042  1

> <PUBCHEM_COORDINATE_TYPE>
1
3

$$$$
