310931821
  -OEChem-07211613022D

 27 30  0     1  0  0  0  0  0999 V2000
    0.7379   -2.7168    0.0000 O   0  0  0  0  0  0  0  0  0  0  0  0
    3.2534   -6.6410    0.0000 O   0  0  0  0  0  0  0  0  0  0  0  0
    2.1801   -2.4820    0.0000 N   0  0  0  0  0  0  0  0  0  0  0  0
    2.5826   -3.7230    0.0000 N   0  0  0  0  0  0  0  0  0  0  0  0
    3.6224   -2.7168    0.0000 N   0  0  0  0  0  0  0  0  0  0  0  0
    1.7776   -3.7230    0.0000 C   0  0  3  0  0  0  0  0  0  0  0  0
    1.5093   -2.9515    0.0000 C   0  0  0  0  0  0  0  0  0  0  0  0
    2.1466   -4.4609    0.0000 C   0  0  0  0  0  0  0  0  0  0  0  0
    1.2745   -4.3938    0.0000 C   0  0  0  0  0  0  0  0  0  0  0  0
    2.8174   -2.9515    0.0000 C   0  0  0  0  0  0  0  0  0  0  0  0
    2.1801   -1.6770    0.0000 C   0  0  0  0  0  0  0  0  0  0  0  0
    2.9515   -4.5280    0.0000 C   0  0  0  0  0  0  0  0  0  0  0  0
    1.6770   -5.1653    0.0000 C   0  0  0  0  0  0  0  0  0  0  0  0
    1.5764   -5.1653    0.0000 C   0  0  0  0  0  0  0  0  0  0  0  0
    0.4696   -4.3267    0.0000 C   0  0  0  0  0  0  0  0  0  0  0  0
    1.4758   -1.2410    0.0000 C   0  0  0  0  0  0  0  0  0  0  0  0
    2.8845   -1.2410    0.0000 C   0  0  0  0  0  0  0  0  0  0  0  0
    3.3205   -5.2323    0.0000 C   0  0  0  0  0  0  0  0  0  0  0  0
    2.0460   -5.8696    0.0000 C   0  0  0  0  0  0  0  0  0  0  0  0
    2.8845   -5.9367    0.0000 C   0  0  0  0  0  0  0  0  0  0  0  0
    1.1404   -5.8025    0.0000 C   0  0  0  0  0  0  0  0  0  0  0  0
    0.0000   -4.9640    0.0000 C   0  0  0  0  0  0  0  0  0  0  0  0
    0.3019   -5.7354    0.0000 C   0  0  0  0  0  0  0  0  0  0  0  0
    1.4758   -0.4360    0.0000 C   0  0  0  0  0  0  0  0  0  0  0  0
    2.8845   -0.4360    0.0000 C   0  0  0  0  0  0  0  0  0  0  0  0
    2.1801    0.0000    0.0000 C   0  0  0  0  0  0  0  0  0  0  0  0
    4.0584   -6.7081    0.0000 C   0  0  0  0  0  0  0  0  0  0  0  0
  1  7  2  0  0  0  0
  2 20  1  0  0  0  0
  2 27  1  0  0  0  0
  3  7  1  0  0  0  0
  3 10  1  0  0  0  0
  3 11  1  0  0  0  0
  4  6  1  0  0  0  0
  4 10  1  0  0  0  0
  5 10  2  3  0  0  0
  6  7  1  0  0  0  0
  6  8  1  0  0  0  0
  6  9  1  0  0  0  0
  8 12  2  0  0  0  0
  8 13  1  0  0  0  0
  9 14  1  0  0  0  0
  9 15  1  0  0  0  0
 11 16  1  0  0  0  0
 11 17  1  0  0  0  0
 12 18  1  0  0  0  0
 13 19  2  0  0  0  0
 14 21  1  0  0  0  0
 15 22  1  0  0  0  0
 16 24  1  0  0  0  0
 17 25  1  0  0  0  0
 18 20  2  0  0  0  0
 19 20  1  0  0  0  0
 21 23  1  0  0  0  0
 22 23  1  0  0  0  0
 24 26  1  0  0  0  0
 25 26  1  0  0  0  0
M  END
> <PUBCHEM_COMPOUND_ID_TYPE>
0

> <PUBCHEM_TOTAL_CHARGE>
0

> <PUBCHEM_SUBSTANCE_ID>
310931821

> <PUBCHEM_SUBSTANCE_VERSION>
1

> <PUBCHEM_EXT_DATASOURCE_NAME>
4488

> <PUBCHEM_EXT_DATASOURCE_REGID>
SCHEMBL16109154

> <PUBCHEM_SUBSTANCE_COMMENT>
InChI=1S/C22H31N3O2/c1-27-19-14-12-17(13-15-19)22(16-8-4-2-5-9-16)20(26)25(21(23)24-22)18-10-6-3-7-11-18/h12-16,18H,2-11H2,1H3,(H2,23,24)
InChIKey=ZJNLHTWNGPZJLN-UHFFFAOYSA-N

> <PUBCHEM_SUBSTANCE_SYNONYM>
SCHEMBL16109154

> <PUBCHEM_XREF_EXT_ID>
SCHEMBL16109154

> <PUBCHEM_EXT_DATASOURCE_URL>
https://www.surechembl.org/

> <PUBCHEM_EXT_SUBSTANCE_URL>
https://www.surechembl.org/chemical/SCHEMBL16109154

> <PUBCHEM_CID_ASSOCIATIONS>
86273844  1

> <PUBCHEM_COORDINATE_TYPE>
1
3

$$$$
