310934990
  -OEChem-07211613022D

 25 27  0     1  0  0  0  0  0999 V2000
    0.1067    2.4134    0.0000 F   0  0  0  0  0  0  0  0  0  0  0  0
    2.0528   -2.4861    0.0000 F   0  0  0  0  0  0  0  0  0  0  0  0
    1.6113   -3.8451    0.0000 F   0  0  0  0  0  0  0  0  0  0  0  0
   -2.9458    0.5154    0.0000 O   0  0  0  0  0  0  0  0  0  0  0  0
   -4.1720   -0.5887    0.0000 O   0  0  0  0  0  0  0  0  0  0  0  0
    0.6551   -2.7832    0.0000 N   0  0  0  0  0  0  0  0  0  0  0  0
   -0.0123   -3.2681    0.0000 N   0  0  0  0  0  0  0  0  0  0  0  0
   -3.3874   -0.8436    0.0000 N   0  0  0  0  0  0  0  0  0  0  0  0
   -1.3222   -0.0616    0.0000 C   0  0  3  0  0  0  0  0  0  0  0  0
   -1.9897   -0.5465    0.0000 C   0  0  3  0  0  0  0  0  0  0  0  0
   -0.9097   -1.3312    0.0000 C   0  0  0  0  0  0  0  0  0  0  0  0
   -1.3222    0.7634    0.0000 C   0  0  0  0  0  0  0  0  0  0  0  0
   -0.6548   -0.5465    0.0000 C   0  0  0  0  0  0  0  0  0  0  0  0
   -0.4248   -1.9986    0.0000 C   0  0  0  0  0  0  0  0  0  0  0  0
   -1.7347   -1.3312    0.0000 C   0  0  0  0  0  0  0  0  0  0  0  0
   -0.6078    1.1759    0.0000 C   0  0  0  0  0  0  0  0  0  0  0  0
   -2.7743   -0.2916    0.0000 C   0  0  0  0  0  0  0  0  0  0  0  0
    0.4002   -1.9986    0.0000 C   0  0  0  0  0  0  0  0  0  0  0  0
   -0.6798   -2.7832    0.0000 C   0  0  0  0  0  0  0  0  0  0  0  0
   -2.0367    1.1759    0.0000 C   0  0  0  0  0  0  0  0  0  0  0  0
   -0.6078    2.0009    0.0000 C   0  0  0  0  0  0  0  0  0  0  0  0
    1.4397   -3.0382    0.0000 C   0  0  0  0  0  0  0  0  0  0  0  0
   -2.0367    2.0009    0.0000 C   0  0  0  0  0  0  0  0  0  0  0  0
   -1.3222    2.4134    0.0000 C   0  0  0  0  0  0  0  0  0  0  0  0
    0.1067    0.7634    0.0000 C   0  0  0  0  0  0  0  0  0  0  0  0
  1 21  1  0  0  0  0
  2 22  1  0  0  0  0
  3 22  1  0  0  0  0
  4 17  2  0  0  0  0
  5  8  1  0  0  0  0
  6  7  1  0  0  0  0
  6 18  1  0  0  0  0
  6 22  1  0  0  0  0
  7 19  2  0  0  0  0
  8 17  1  0  0  0  0
  9 10  1  0  0  0  0
  9 12  1  0  0  0  0
  9 13  1  0  0  0  0
 10 15  1  0  0  0  0
 10 17  1  0  0  0  0
 11 13  2  0  0  0  0
 11 14  1  0  0  0  0
 11 15  1  0  0  0  0
 12 16  2  0  0  0  0
 12 20  1  0  0  0  0
 14 18  2  0  0  0  0
 14 19  1  0  0  0  0
 16 21  1  0  0  0  0
 16 25  1  0  0  0  0
 20 23  2  0  0  0  0
 21 24  2  0  0  0  0
 23 24  1  0  0  0  0
M  END
> <PUBCHEM_COMPOUND_ID_TYPE>
0

> <PUBCHEM_TOTAL_CHARGE>
0

> <PUBCHEM_SUBSTANCE_ID>
310934990

> <PUBCHEM_SUBSTANCE_VERSION>
1

> <PUBCHEM_EXT_DATASOURCE_NAME>
4488

> <PUBCHEM_EXT_DATASOURCE_REGID>
SCHEMBL16112508

> <PUBCHEM_SUBSTANCE_COMMENT>
InChI=1S/C17H16F3N3O2/c1-9-12(3-2-4-15(9)18)13-5-10(6-14(13)16(24)22-25)11-7-21-23(8-11)17(19)20/h2-5,7-8,13-14,17,25H,6H2,1H3,(H,22,24)
InChIKey=DWYZSLRJQKPILA-UHFFFAOYSA-N

> <PUBCHEM_SUBSTANCE_SYNONYM>
SCHEMBL16112508

> <PUBCHEM_XREF_EXT_ID>
SCHEMBL16112508

> <PUBCHEM_EXT_DATASOURCE_URL>
https://www.surechembl.org/

> <PUBCHEM_EXT_SUBSTANCE_URL>
https://www.surechembl.org/chemical/SCHEMBL16112508

> <PUBCHEM_CID_ASSOCIATIONS>
117603107  1

> <PUBCHEM_COORDINATE_TYPE>
1
3

$$$$
