310940014
  -OEChem-07211613022D

 17 17  0     1  0  0  0  0  0999 V2000
   -3.9380    2.8182    0.0000 Cl  0  0  0  0  0  0  0  0  0  0  0  0
   -3.9380    1.1682    0.0000 Cl  0  0  0  0  0  0  0  0  0  0  0  0
   -0.3656    1.5807    0.0000 O   0  5  0  0  0  0  0  0  0  0  0  0
   -1.0801    0.3432    0.0000 O   0  0  0  0  0  0  0  0  0  0  0  0
    0.3488    3.6432    0.0000 O   0  0  0  0  0  0  0  0  0  0  0  0
    1.0633    2.4057    0.0000 O   0  0  0  0  0  0  0  0  0  0  0  0
   -1.0801    1.1682    0.0000 N   0  3  0  0  0  0  0  0  0  0  0  0
   -1.0801    3.6432    0.0000 N   0  0  0  0  0  0  0  0  0  0  0  0
   -1.7946    2.4057    0.0000 C   0  0  0  0  0  0  0  0  0  0  0  0
   -1.7946    1.5807    0.0000 C   0  0  0  0  0  0  0  0  0  0  0  0
   -3.2235    2.4057    0.0000 C   0  0  0  0  0  0  0  0  0  0  0  0
   -3.2235    1.5807    0.0000 C   0  0  0  0  0  0  0  0  0  0  0  0
   -2.5090    2.8182    0.0000 C   0  0  0  0  0  0  0  0  0  0  0  0
   -1.0801    2.8182    0.0000 C   0  0  3  0  0  0  0  0  0  0  0  0
   -2.5090    1.1682    0.0000 C   0  0  0  0  0  0  0  0  0  0  0  0
   -0.3656    2.4057    0.0000 C   0  0  0  0  0  0  0  0  0  0  0  0
    0.3488    2.8182    0.0000 C   0  0  0  0  0  0  0  0  0  0  0  0
  1 11  1  0  0  0  0
  2 12  1  0  0  0  0
  3  7  1  0  0  0  0
  4  7  2  0  0  0  0
  5 17  2  0  0  0  0
  6 17  1  0  0  0  0
  7 10  1  0  0  0  0
  8 14  1  0  0  0  0
  9 10  1  0  0  0  0
  9 13  2  0  0  0  0
  9 14  1  0  0  0  0
 10 15  2  0  0  0  0
 11 12  2  0  0  0  0
 11 13  1  0  0  0  0
 12 15  1  0  0  0  0
 14 16  1  0  0  0  0
 16 17  1  0  0  0  0
M  CHG  2   3  -1   7   1
M  END
> <PUBCHEM_COMPOUND_ID_TYPE>
0

> <PUBCHEM_TOTAL_CHARGE>
0

> <PUBCHEM_SUBSTANCE_ID>
310940014

> <PUBCHEM_SUBSTANCE_VERSION>
1

> <PUBCHEM_EXT_DATASOURCE_NAME>
4488

> <PUBCHEM_EXT_DATASOURCE_REGID>
SCHEMBL16117944

> <PUBCHEM_SUBSTANCE_COMMENT>
InChI=1S/C9H8Cl2N2O4/c10-5-1-4(7(12)3-9(14)15)8(13(16)17)2-6(5)11/h1-2,7H,3,12H2,(H,14,15)
InChIKey=RRQCXEHFDADKOF-UHFFFAOYSA-N

> <PUBCHEM_SUBSTANCE_SYNONYM>
SCHEMBL16117944

> <PUBCHEM_XREF_EXT_ID>
SCHEMBL16117944

> <PUBCHEM_EXT_DATASOURCE_URL>
https://www.surechembl.org/

> <PUBCHEM_EXT_SUBSTANCE_URL>
https://www.surechembl.org/chemical/SCHEMBL16117944

> <PUBCHEM_CID_ASSOCIATIONS>
117607172  1

> <PUBCHEM_COORDINATE_TYPE>
1
3

$$$$
