310948916
  -OEChem-07211613022D

 11 12  0     1  0  0  0  0  0999 V2000
    1.3498    1.6131    0.0000 I   0  0  0  0  0  0  0  0  0  0  0  0
   -1.3498   -1.6241    0.0000 O   0  0  0  0  0  0  0  0  0  0  0  0
    0.0548   -0.0110    0.0000 C   0  0  0  0  0  0  0  0  0  0  0  0
   -0.6584    0.3950    0.0000 C   0  0  0  0  0  0  0  0  0  0  0  0
   -0.1207   -0.8230    0.0000 C   0  0  0  0  0  0  0  0  0  0  0  0
   -0.9437   -0.9108    0.0000 C   0  0  3  0  0  0  0  0  0  0  0  0
   -1.2620   -0.1426    0.0000 C   0  0  0  0  0  0  0  0  0  0  0  0
    0.7681    0.3950    0.0000 C   0  0  0  0  0  0  0  0  0  0  0  0
    0.7681    1.2290    0.0000 C   0  0  0  0  0  0  0  0  0  0  0  0
   -0.6475    1.2290    0.0000 C   0  0  0  0  0  0  0  0  0  0  0  0
    0.0439    1.6241    0.0000 C   0  0  0  0  0  0  0  0  0  0  0  0
  1  9  1  0  0  0  0
  2  6  1  0  0  0  0
  3  4  1  0  0  0  0
  3  5  1  0  0  0  0
  3  8  2  0  0  0  0
  4  7  1  0  0  0  0
  4 10  2  0  0  0  0
  5  6  1  0  0  0  0
  6  7  1  0  0  0  0
  8  9  1  0  0  0  0
  9 11  2  0  0  0  0
 10 11  1  0  0  0  0
M  END
> <PUBCHEM_COMPOUND_ID_TYPE>
0

> <PUBCHEM_TOTAL_CHARGE>
0

> <PUBCHEM_SUBSTANCE_ID>
310948916

> <PUBCHEM_SUBSTANCE_VERSION>
1

> <PUBCHEM_EXT_DATASOURCE_NAME>
4488

> <PUBCHEM_EXT_DATASOURCE_REGID>
SCHEMBL16127102

> <PUBCHEM_SUBSTANCE_COMMENT>
InChI=1S/C9H9IO/c10-8-2-1-6-4-9(11)5-7(6)3-8/h1-3,9,11H,4-5H2
InChIKey=DTUWNECUKSHQJH-UHFFFAOYSA-N

> <PUBCHEM_SUBSTANCE_SYNONYM>
SCHEMBL16127102

> <PUBCHEM_XREF_EXT_ID>
SCHEMBL16127102

> <PUBCHEM_EXT_DATASOURCE_URL>
https://www.surechembl.org/

> <PUBCHEM_EXT_SUBSTANCE_URL>
https://www.surechembl.org/chemical/SCHEMBL16127102

> <PUBCHEM_CID_ASSOCIATIONS>
91163594  1

> <PUBCHEM_COORDINATE_TYPE>
1
3

$$$$
