310944653
  -OEChem-07211613022D

 33 36  0     1  0  0  0  0  0999 V2000
   -3.3545   -0.5218    0.0000 Cl  0  0  0  0  0  0  0  0  0  0  0  0
   -2.4600    2.3730    0.0000 Cl  0  0  0  0  0  0  0  0  0  0  0  0
   -5.3299    2.3854    0.0000 F   0  0  0  0  0  0  0  0  0  0  0  0
   -0.3230   -0.5218    0.0000 O   0  0  0  0  0  0  0  0  0  0  0  0
    1.1057    1.9630    0.0000 O   0  0  0  0  0  0  0  0  0  0  0  0
    5.3299   -0.7703    0.0000 O   0  0  0  0  0  0  0  0  0  0  0  0
    1.8512    0.7330    0.0000 N   0  0  0  0  0  0  0  0  0  0  0  0
    3.9260   -0.7703    0.0000 N   0  0  0  0  0  0  0  0  0  0  0  0
   -0.3106    1.1430    0.0000 N   0  0  0  0  0  0  0  0  0  0  0  0
    2.6339   -0.3603    0.0000 C   0  0  3  0  0  0  0  0  0  0  0  0
    3.1185    0.3230    0.0000 C   0  0  3  0  0  0  0  0  0  0  0  0
   -2.4600    0.7330    0.0000 C   0  0  0  0  0  0  0  0  0  0  0  0
    1.8636   -0.0994    0.0000 C   0  0  0  0  0  0  0  0  0  0  0  0
    2.6339    0.9815    0.0000 C   0  0  0  0  0  0  0  0  0  0  0  0
   -3.1930    1.1430    0.0000 C   0  0  0  0  0  0  0  0  0  0  0  0
   -1.0312    0.7330    0.0000 C   0  0  0  0  0  0  0  0  0  0  0  0
    3.1309   -1.0188    0.0000 C   0  0  0  0  0  0  0  0  0  0  0  0
    3.9136    0.0497    0.0000 C   0  0  0  0  0  0  0  0  0  0  0  0
   -2.4600   -0.0994    0.0000 C   0  0  0  0  0  0  0  0  0  0  0  0
   -1.0312   -0.0869    0.0000 C   0  0  0  0  0  0  0  0  0  0  0  0
    1.1182    1.1306    0.0000 C   0  0  0  0  0  0  0  0  0  0  0  0
   -1.7518    1.1306    0.0000 C   0  0  0  0  0  0  0  0  0  0  0  0
   -3.1806    1.9755    0.0000 C   0  0  0  0  0  0  0  0  0  0  0  0
   -1.7394   -0.5094    0.0000 C   0  0  0  0  0  0  0  0  0  0  0  0
    4.6218   -1.1927    0.0000 C   0  0  0  0  0  0  0  0  0  0  0  0
    0.4224    0.7330    0.0000 C   0  0  0  0  0  0  0  0  0  0  0  0
   -3.8887    0.7330    0.0000 C   0  0  0  0  0  0  0  0  0  0  0  0
   -3.9012    2.3730    0.0000 C   0  0  0  0  0  0  0  0  0  0  0  0
   -4.6093    1.9755    0.0000 C   0  0  0  0  0  0  0  0  0  0  0  0
   -4.6093    1.1430    0.0000 C   0  0  0  0  0  0  0  0  0  0  0  0
    4.6342   -2.0127    0.0000 C   0  0  0  0  0  0  0  0  0  0  0  0
    0.4100   -0.0994    0.0000 C   0  0  0  0  0  0  0  0  0  0  0  0
    3.8887   -2.3854    0.0000 C   0  0  0  0  0  0  0  0  0  0  0  0
  1 19  1  0  0  0  0
  2 23  1  0  0  0  0
  3 29  1  0  0  0  0
  4 20  1  0  0  0  0
  4 32  1  0  0  0  0
  5 21  2  0  0  0  0
  6 25  2  0  0  0  0
  7 13  1  0  0  0  0
  7 14  1  0  0  0  0
  7 21  1  0  0  0  0
  8 17  1  0  0  0  0
  8 18  1  0  0  0  0
  8 25  1  0  0  0  0
  9 16  1  0  0  0  0
  9 26  1  0  0  0  0
 10 11  1  0  0  0  0
 10 13  1  0  0  0  0
 10 17  1  0  0  0  0
 11 14  1  0  0  0  0
 11 18  1  0  0  0  0
 12 15  1  0  0  0  0
 12 19  2  0  0  0  0
 12 22  1  0  0  0  0
 15 23  1  0  0  0  0
 15 27  2  0  0  0  0
 16 20  1  0  0  0  0
 16 22  2  0  0  0  0
 19 24  1  0  0  0  0
 20 24  2  0  0  0  0
 21 26  1  0  0  0  0
 23 28  2  0  0  0  0
 25 31  1  0  0  0  0
 27 30  1  0  0  0  0
 28 29  1  0  0  0  0
 29 30  2  0  0  0  0
 31 33  2  0  0  0  0
M  END
> <PUBCHEM_COMPOUND_ID_TYPE>
0

> <PUBCHEM_TOTAL_CHARGE>
0

> <PUBCHEM_SUBSTANCE_ID>
310944653

> <PUBCHEM_SUBSTANCE_VERSION>
1

> <PUBCHEM_EXT_DATASOURCE_NAME>
4488

> <PUBCHEM_EXT_DATASOURCE_REGID>
SCHEMBL16122731

> <PUBCHEM_SUBSTANCE_COMMENT>
InChI=1S/C24H24Cl2FN3O3/c1-3-23(31)29-10-14-12-30(13-15(14)11-29)24(32)9-28-21-7-18(20(26)8-22(21)33-2)17-5-4-16(27)6-19(17)25/h3-8,14-15,28H,1,9-13H2,2H3
InChIKey=ASBICAZCCQPKIS-UHFFFAOYSA-N

> <PUBCHEM_SUBSTANCE_SYNONYM>
SCHEMBL16122731

> <PUBCHEM_XREF_EXT_ID>
SCHEMBL16122731

> <PUBCHEM_EXT_DATASOURCE_URL>
https://www.surechembl.org/

> <PUBCHEM_EXT_SUBSTANCE_URL>
https://www.surechembl.org/chemical/SCHEMBL16122731

> <PUBCHEM_CID_ASSOCIATIONS>
117610883  1

> <PUBCHEM_COORDINATE_TYPE>
1
3

$$$$
