310946546
  -OEChem-07211613022D

 14 13  0     1  0  0  0  0  0999 V2000
    3.7382    0.9356    0.0000 O   0  0  0  0  0  0  0  0  0  0  0  0
    0.8803    0.1106    0.0000 O   0  0  0  0  0  0  0  0  0  0  0  0
    1.5947   -1.1269    0.0000 O   0  0  0  0  0  0  0  0  0  0  0  0
    4.4526   -0.3019    0.0000 N   0  0  0  0  0  0  0  0  0  0  0  0
    3.0237   -1.1269    0.0000 N   0  0  0  0  0  0  0  0  0  0  0  0
    3.0237   -0.3019    0.0000 C   0  0  3  0  0  0  0  0  0  0  0  0
    3.7382    0.1106    0.0000 C   0  0  0  0  0  0  0  0  0  0  0  0
    2.3092    0.1106    0.0000 C   0  0  0  0  0  0  0  0  0  0  0  0
    1.5947   -0.3019    0.0000 C   0  0  0  0  0  0  0  0  0  0  0  0
    5.1671    0.1106    0.0000 C   0  0  0  0  0  0  0  0  0  0  0  0
    5.8816   -0.3019    0.0000 C   0  0  0  0  0  0  0  0  0  0  0  0
    6.5960    0.1106    0.0000 C   0  0  0  0  0  0  0  0  0  0  0  0
    7.3105   -0.3019    0.0000 C   0  0  0  0  0  0  0  0  0  0  0  0
    8.0250    0.1106    0.0000 C   0  0  0  0  0  0  0  0  0  0  0  0
  1  7  2  0  0  0  0
  2  9  2  0  0  0  0
  3  9  1  0  0  0  0
  4  7  1  0  0  0  0
  4 10  1  0  0  0  0
  5  6  1  0  0  0  0
  6  7  1  0  0  0  0
  6  8  1  0  0  0  0
  8  9  1  0  0  0  0
 10 11  1  0  0  0  0
 11 12  1  0  0  0  0
 12 13  1  0  0  0  0
 13 14  1  0  0  0  0
M  END
> <PUBCHEM_COMPOUND_ID_TYPE>
0

> <PUBCHEM_TOTAL_CHARGE>
0

> <PUBCHEM_SUBSTANCE_ID>
310946546

> <PUBCHEM_SUBSTANCE_VERSION>
1

> <PUBCHEM_EXT_DATASOURCE_NAME>
4488

> <PUBCHEM_EXT_DATASOURCE_REGID>
SCHEMBL16124667

> <PUBCHEM_SUBSTANCE_COMMENT>
InChI=1S/C9H18N2O3/c1-2-3-4-5-11-9(14)7(10)6-8(12)13/h7H,2-6,10H2,1H3,(H,11,14)(H,12,13)
InChIKey=ASURFSUGZIQKCG-UHFFFAOYSA-N

> <PUBCHEM_SUBSTANCE_SYNONYM>
SCHEMBL16124667

> <PUBCHEM_XREF_EXT_ID>
SCHEMBL16124667

> <PUBCHEM_EXT_DATASOURCE_URL>
https://www.surechembl.org/

> <PUBCHEM_EXT_SUBSTANCE_URL>
https://www.surechembl.org/chemical/SCHEMBL16124667

> <PUBCHEM_CID_ASSOCIATIONS>
64896823  1

> <PUBCHEM_COORDINATE_TYPE>
1
3

$$$$
