310934758
  -OEChem-07211613022D

 35 38  0     1  0  0  0  0  0999 V2000
    2.8563   -3.4452    0.0000 O   0  0  0  0  0  0  0  0  0  0  0  0
    4.9469   -3.5335    0.0000 O   0  0  0  0  0  0  0  0  0  0  0  0
    2.1495   -2.2084    0.0000 O   0  0  0  0  0  0  0  0  0  0  0  0
    7.2143   -2.0318    0.0000 O   0  0  0  0  0  0  0  0  0  0  0  0
    6.2720   -0.6773    0.0000 O   0  0  0  0  0  0  0  0  0  0  0  0
    4.5347   -2.1201    0.0000 N   0  0  0  0  0  0  0  0  0  0  0  0
    3.5630   -3.0329    0.0000 C   0  0  3  0  0  0  0  0  0  0  0  0
    3.2391   -2.2968    0.0000 C   0  0  0  0  0  0  0  0  0  0  0  0
    4.3875   -2.9446    0.0000 C   0  0  0  0  0  0  0  0  0  0  0  0
    4.0341   -3.7102    0.0000 C   0  0  3  0  0  0  0  0  0  0  0  0
    3.8280   -1.7373    0.0000 C   0  0  0  0  0  0  0  0  0  0  0  0
    2.4441   -2.0612    0.0000 C   0  0  0  0  0  0  0  0  0  0  0  0
    4.8586   -3.6513    0.0000 C   0  0  0  0  0  0  0  0  0  0  0  0
    2.1495   -3.0329    0.0000 C   0  0  0  0  0  0  0  0  0  0  0  0
    3.6513   -0.9128    0.0000 C   0  0  0  0  0  0  0  0  0  0  0  0
    3.6808   -4.4464    0.0000 C   0  0  0  0  0  0  0  0  0  0  0  0
    5.2120   -2.9152    0.0000 C   0  0  0  0  0  0  0  0  0  0  0  0
    2.2379   -1.2662    0.0000 C   0  0  0  0  0  0  0  0  0  0  0  0
    2.8268   -0.7067    0.0000 C   0  0  0  0  0  0  0  0  0  0  0  0
    1.4134   -3.4452    0.0000 C   0  0  0  0  0  0  0  0  0  0  0  0
    4.1519   -5.1237    0.0000 C   0  0  0  0  0  0  0  0  0  0  0  0
    6.0365   -2.8563    0.0000 C   0  0  0  0  0  0  0  0  0  0  0  0
    4.7409   -2.2379    0.0000 C   0  0  0  0  0  0  0  0  0  0  0  0
    6.3898   -2.0907    0.0000 C   0  0  0  0  0  0  0  0  0  0  0  0
    0.7067   -3.0329    0.0000 C   0  0  0  0  0  0  0  0  0  0  0  0
    1.4134   -4.2697    0.0000 C   0  0  0  0  0  0  0  0  0  0  0  0
    5.9187   -1.4134    0.0000 C   0  0  0  0  0  0  0  0  0  0  0  0
    5.0942   -1.4723    0.0000 C   0  0  0  0  0  0  0  0  0  0  0  0
    3.7986   -5.8892    0.0000 C   0  0  0  0  0  0  0  0  0  0  0  0
    4.9764   -5.0647    0.0000 C   0  0  0  0  0  0  0  0  0  0  0  0
    0.0000   -3.4452    0.0000 C   0  0  0  0  0  0  0  0  0  0  0  0
    0.7067   -4.6820    0.0000 C   0  0  0  0  0  0  0  0  0  0  0  0
    0.0000   -4.2697    0.0000 C   0  0  0  0  0  0  0  0  0  0  0  0
    7.5677   -1.2662    0.0000 C   0  0  0  0  0  0  0  0  0  0  0  0
    5.8009    0.0000    0.0000 C   0  0  0  0  0  0  0  0  0  0  0  0
  1  7  1  0  0  0  0
  1 14  1  0  0  0  0
  2  9  2  0  0  0  0
  3 14  2  0  0  0  0
  4 24  1  0  0  0  0
  4 34  1  0  0  0  0
  5 27  1  0  0  0  0
  5 35  1  0  0  0  0
  6  9  1  0  0  0  0
  6 11  1  0  0  0  0
  7  8  1  0  0  0  0
  7  9  1  0  0  0  0
  7 10  1  0  0  0  0
  8 11  2  0  0  0  0
  8 12  1  0  0  0  0
 10 13  1  0  0  0  0
 10 16  1  0  0  0  0
 11 15  1  0  0  0  0
 12 18  2  0  0  0  0
 13 17  1  0  0  0  0
 14 20  1  0  0  0  0
 15 19  2  0  0  0  0
 16 21  1  0  0  0  0
 17 22  2  0  0  0  0
 17 23  1  0  0  0  0
 18 19  1  0  0  0  0
 20 25  2  0  0  0  0
 20 26  1  0  0  0  0
 21 29  1  0  0  0  0
 21 30  1  0  0  0  0
 22 24  1  0  0  0  0
 23 28  2  0  0  0  0
 24 27  2  0  0  0  0
 25 31  1  0  0  0  0
 26 32  2  0  0  0  0
 27 28  1  0  0  0  0
 31 33  2  0  0  0  0
 32 33  1  0  0  0  0
M  END
> <PUBCHEM_COMPOUND_ID_TYPE>
0

> <PUBCHEM_TOTAL_CHARGE>
0

> <PUBCHEM_SUBSTANCE_ID>
310934758

> <PUBCHEM_SUBSTANCE_VERSION>
1

> <PUBCHEM_EXT_DATASOURCE_NAME>
4488

> <PUBCHEM_EXT_DATASOURCE_REGID>
SCHEMBL16112259

> <PUBCHEM_SUBSTANCE_COMMENT>
InChI=1S/C29H31NO5/c1-19(2)16-22(17-20-14-15-25(33-3)26(18-20)34-4)29(35-27(31)21-10-6-5-7-11-21)23-12-8-9-13-24(23)30-28(29)32/h5-15,18-19,22H,16-17H2,1-4H3,(H,30,32)
InChIKey=PWJZTKJWTWEQGB-UHFFFAOYSA-N

> <PUBCHEM_SUBSTANCE_SYNONYM>
SCHEMBL16112259

> <PUBCHEM_XREF_EXT_ID>
SCHEMBL16112259

> <PUBCHEM_EXT_DATASOURCE_URL>
https://www.surechembl.org/

> <PUBCHEM_EXT_SUBSTANCE_URL>
https://www.surechembl.org/chemical/SCHEMBL16112259

> <PUBCHEM_CID_ASSOCIATIONS>
117602909  1

> <PUBCHEM_COORDINATE_TYPE>
1
3

$$$$
