310933465
  -OEChem-07211613022D

 40 45  0     1  0  0  0  0  0999 V2000
    6.0050    0.0000    0.0000 Cl  0  0  0  0  0  0  0  0  0  0  0  0
    0.0000   -2.7023    0.0000 F   0  0  0  0  0  0  0  0  0  0  0  0
    3.6030   -8.5786    0.0000 F   0  0  0  0  0  0  0  0  0  0  0  0
    6.4340   -4.9756    0.0000 O   0  0  0  0  0  0  0  0  0  0  0  0
    5.2329   -4.2893    0.0000 N   0  0  0  0  0  0  0  0  0  0  0  0
    7.6779   -2.8309    0.0000 N   0  0  0  0  0  0  0  0  0  0  0  0
    3.4743   -4.3322    0.0000 N   0  0  0  0  0  0  0  0  0  0  0  0
    3.5172   -5.6619    0.0000 N   0  0  0  0  0  0  0  0  0  0  0  0
    8.4928   -2.8738    0.0000 N   0  0  0  0  0  0  0  0  0  0  0  0
    8.6644   -3.6888    0.0000 N   0  0  0  0  0  0  0  0  0  0  0  0
    7.9781   -4.1177    0.0000 N   0  0  0  0  0  0  0  0  0  0  0  0
    4.8040   -4.9756    0.0000 C   0  0  3  0  0  0  0  0  0  0  0  0
    6.4340   -2.1447    0.0000 C   0  0  0  0  0  0  0  0  0  0  0  0
    6.0050   -2.8738    0.0000 C   0  0  0  0  0  0  0  0  0  0  0  0
    7.2489   -2.1447    0.0000 C   0  0  0  0  0  0  0  0  0  0  0  0
    3.9890   -5.0185    0.0000 C   0  0  0  0  0  0  0  0  0  0  0  0
    6.0050   -4.2893    0.0000 C   0  0  0  0  0  0  0  0  0  0  0  0
    6.4340   -3.5601    0.0000 C   0  0  0  0  0  0  0  0  0  0  0  0
    4.7611   -3.5601    0.0000 C   0  0  0  0  0  0  0  0  0  0  0  0
    5.2329   -2.8738    0.0000 C   0  0  0  0  0  0  0  0  0  0  0  0
    2.7023   -4.5895    0.0000 C   0  0  0  0  0  0  0  0  0  0  0  0
    6.0050   -1.4155    0.0000 C   0  0  0  0  0  0  0  0  0  0  0  0
    5.2329   -5.7048    0.0000 C   0  0  0  0  0  0  0  0  0  0  0  0
    7.6350   -1.4155    0.0000 C   0  0  0  0  0  0  0  0  0  0  0  0
    6.3911   -0.7292    0.0000 C   0  0  0  0  0  0  0  0  0  0  0  0
    2.7023   -5.4045    0.0000 C   0  0  0  0  0  0  0  0  0  0  0  0
    2.0589   -4.1177    0.0000 C   0  0  0  0  0  0  0  0  0  0  0  0
    4.8040   -6.4340    0.0000 C   0  0  0  0  0  0  0  0  0  0  0  0
    7.2489   -0.6863    0.0000 C   0  0  0  0  0  0  0  0  0  0  0  0
    7.3347   -3.5601    0.0000 C   0  0  0  0  0  0  0  0  0  0  0  0
    1.2868   -4.4608    0.0000 C   0  0  0  0  0  0  0  0  0  0  0  0
    2.1018   -3.3028    0.0000 C   0  0  0  0  0  0  0  0  0  0  0  0
    5.2329   -7.1203    0.0000 C   0  0  0  0  0  0  0  0  0  0  0  0
    3.9890   -6.4340    0.0000 C   0  0  0  0  0  0  0  0  0  0  0  0
    0.6005   -3.9890    0.0000 C   0  0  0  0  0  0  0  0  0  0  0  0
    1.4155   -2.8309    0.0000 C   0  0  0  0  0  0  0  0  0  0  0  0
    0.6863   -3.1741    0.0000 C   0  0  0  0  0  0  0  0  0  0  0  0
    4.8469   -7.8494    0.0000 C   0  0  0  0  0  0  0  0  0  0  0  0
    3.6030   -7.1631    0.0000 C   0  0  0  0  0  0  0  0  0  0  0  0
    3.9890   -7.8494    0.0000 C   0  0  0  0  0  0  0  0  0  0  0  0
  1 25  1  0  0  0  0
  2 37  1  0  0  0  0
  3 40  1  0  0  0  0
  4 17  2  0  0  0  0
  5 12  1  0  0  0  0
  5 17  1  0  0  0  0
  5 19  1  0  0  0  0
  6  9  1  0  0  0  0
  6 15  1  0  0  0  0
  6 30  1  0  0  0  0
  7 16  2  0  0  0  0
  7 21  1  0  0  0  0
  8 16  1  0  0  0  0
  8 26  1  0  0  0  0
  9 10  2  0  0  0  0
 10 11  1  0  0  0  0
 11 30  2  0  0  0  0
 12 16  1  0  0  0  0
 12 23  1  0  0  0  0
 13 14  1  0  0  0  0
 13 15  1  0  0  0  0
 13 22  2  0  0  0  0
 14 18  2  0  0  0  0
 14 20  1  0  0  0  0
 15 24  2  0  0  0  0
 17 18  1  0  0  0  0
 19 20  2  0  0  0  0
 21 26  2  0  0  0  0
 21 27  1  0  0  0  0
 22 25  1  0  0  0  0
 23 28  1  0  0  0  0
 24 29  1  0  0  0  0
 25 29  2  0  0  0  0
 27 31  2  0  0  0  0
 27 32  1  0  0  0  0
 28 33  2  0  0  0  0
 28 34  1  0  0  0  0
 31 35  1  0  0  0  0
 32 36  2  0  0  0  0
 33 38  1  0  0  0  0
 34 39  2  0  0  0  0
 35 37  2  0  0  0  0
 36 37  1  0  0  0  0
 38 40  2  0  0  0  0
 39 40  1  0  0  0  0
M  END
> <PUBCHEM_COMPOUND_ID_TYPE>
0

> <PUBCHEM_TOTAL_CHARGE>
0

> <PUBCHEM_SUBSTANCE_ID>
310933465

> <PUBCHEM_SUBSTANCE_VERSION>
1

> <PUBCHEM_EXT_DATASOURCE_NAME>
4488

> <PUBCHEM_EXT_DATASOURCE_REGID>
SCHEMBL16110883

> <PUBCHEM_SUBSTANCE_COMMENT>
InChI=1S/C29H20ClF2N7O/c30-21-5-10-26(39-17-34-36-37-39)24(15-21)20-11-12-38(28(40)14-20)27(13-18-1-6-22(31)7-2-18)29-33-16-25(35-29)19-3-8-23(32)9-4-19/h1-12,14-17,27H,13H2,(H,33,35)
InChIKey=VVCBEJBKHAOKPO-UHFFFAOYSA-N

> <PUBCHEM_SUBSTANCE_SYNONYM>
SCHEMBL16110883

> <PUBCHEM_XREF_EXT_ID>
SCHEMBL16110883

> <PUBCHEM_EXT_DATASOURCE_URL>
https://www.surechembl.org/

> <PUBCHEM_EXT_SUBSTANCE_URL>
https://www.surechembl.org/chemical/SCHEMBL16110883

> <PUBCHEM_CID_ASSOCIATIONS>
86301540  1

> <PUBCHEM_COORDINATE_TYPE>
1
3

$$$$
