310941162
  -OEChem-07211613022D

 14 14  0     1  0  0  0  0  0999 V2000
    1.1112   -0.4188    0.0000 O   0  0  0  0  0  0  0  0  0  0  0  0
    0.4103   -1.5985    0.0000 O   0  0  0  0  0  0  0  0  0  0  0  0
   -0.3761   -1.9233    0.0000 O   0  0  0  0  0  0  0  0  0  0  0  0
   -1.0257   -0.6924    0.0000 N   0  0  0  0  0  0  0  0  0  0  0  0
   -0.2906   -0.2992    0.0000 C   0  0  3  0  0  0  0  0  0  0  0  0
   -0.2565    0.5385    0.0000 C   0  0  0  0  0  0  0  0  0  0  0  0
    0.4445    0.9488    0.0000 C   0  0  0  0  0  0  0  0  0  0  0  0
    0.4103   -0.7607    0.0000 C   0  0  0  0  0  0  0  0  0  0  0  0
   -1.0941   -1.4788    0.0000 C   0  0  0  0  0  0  0  0  0  0  0  0
    0.5300    1.7694    0.0000 C   0  0  0  0  0  0  0  0  0  0  0  0
    1.1967    0.6069    0.0000 C   0  0  0  0  0  0  0  0  0  0  0  0
    1.3335    1.9233    0.0000 C   0  0  0  0  0  0  0  0  0  0  0  0
    1.7437    1.2395    0.0000 C   0  0  0  0  0  0  0  0  0  0  0  0
   -1.7437   -1.8378    0.0000 C   0  0  0  0  0  0  0  0  0  0  0  0
  1  8  2  0  0  0  0
  2  8  1  0  0  0  0
  3  9  2  0  0  0  0
  4  5  1  0  0  0  0
  4  9  1  0  0  0  0
  5  6  1  0  0  0  0
  5  8  1  0  0  0  0
  6  7  1  0  0  0  0
  7 10  1  0  0  0  0
  7 11  1  0  0  0  0
  9 14  1  0  0  0  0
 10 12  1  0  0  0  0
 11 13  1  0  0  0  0
 12 13  2  0  0  0  0
M  END
> <PUBCHEM_COMPOUND_ID_TYPE>
0

> <PUBCHEM_TOTAL_CHARGE>
0

> <PUBCHEM_SUBSTANCE_ID>
310941162

> <PUBCHEM_SUBSTANCE_VERSION>
1

> <PUBCHEM_EXT_DATASOURCE_NAME>
4488

> <PUBCHEM_EXT_DATASOURCE_REGID>
SCHEMBL16119122

> <PUBCHEM_SUBSTANCE_COMMENT>
InChI=1S/C10H15NO3/c1-7(12)11-9(10(13)14)6-8-4-2-3-5-8/h2-3,8-9H,4-6H2,1H3,(H,11,12)(H,13,14)
InChIKey=AIQKGWFONLNSBR-UHFFFAOYSA-N

> <PUBCHEM_SUBSTANCE_SYNONYM>
SCHEMBL16119122

> <PUBCHEM_XREF_EXT_ID>
SCHEMBL16119122

> <PUBCHEM_EXT_DATASOURCE_URL>
https://www.surechembl.org/

> <PUBCHEM_EXT_SUBSTANCE_URL>
https://www.surechembl.org/chemical/SCHEMBL16119122

> <PUBCHEM_CID_ASSOCIATIONS>
117608039  1

> <PUBCHEM_COORDINATE_TYPE>
1
3

$$$$
