310932716
  -OEChem-07211613022D

 14 13  0     1  0  0  0  0  0999 V2000
    2.3645    0.2898    0.0000 P   0  0  0  0  0  0  0  0  0  0  0  0
   -0.6581    0.5025    0.0000 O   0  0  0  0  0  0  0  0  0  0  0  0
    2.3645    1.1148    0.0000 O   0  0  0  0  0  0  0  0  0  0  0  0
    1.5395    0.2898    0.0000 O   0  0  0  0  0  0  0  0  0  0  0  0
    2.3645   -0.5353    0.0000 O   0  0  0  0  0  0  0  0  0  0  0  0
    3.1895    0.2898    0.0000 O   0  0  0  0  0  0  0  0  0  0  0  0
    0.7145   -0.0243    0.0000 O   0  0  0  0  0  0  0  0  0  0  0  0
   -2.8407    0.1670    0.0000 O   0  5  0  0  0  0  0  0  0  0  0  0
   -2.1262    1.4045    0.0000 O   0  0  0  0  0  0  0  0  0  0  0  0
   -2.1262    0.5795    0.0000 N   0  3  0  0  0  0  0  0  0  0  0  0
   -1.4117    0.1670    0.0000 C   0  0  3  0  0  0  0  0  0  0  0  0
   -0.1060   -0.1106    0.0000 C   0  0  0  0  0  0  0  0  0  0  0  0
   -1.3255   -0.6535    0.0000 C   0  0  0  0  0  0  0  0  0  0  0  0
   -0.5185   -0.8250    0.0000 C   0  0  0  0  0  0  0  0  0  0  0  0
  1  3  2  0  0  0  0
  1  4  1  0  0  0  0
  1  5  1  0  0  0  0
  1  6  1  0  0  0  0
  2 11  1  0  0  0  0
  2 12  1  0  0  0  0
  7 12  2  0  0  0  0
  8 10  1  0  0  0  0
  9 10  2  0  0  0  0
 10 11  1  0  0  0  0
 11 13  1  0  0  0  0
 12 14  1  0  0  0  0
 13 14  1  0  0  0  0
M  CHG  2   8  -1  10   1
M  END
> <PUBCHEM_COMPOUND_ID_TYPE>
0

> <PUBCHEM_TOTAL_CHARGE>
0

> <PUBCHEM_SUBSTANCE_ID>
310932716

> <PUBCHEM_SUBSTANCE_VERSION>
1

> <PUBCHEM_EXT_DATASOURCE_NAME>
4488

> <PUBCHEM_EXT_DATASOURCE_REGID>
SCHEMBL16110099

> <PUBCHEM_SUBSTANCE_COMMENT>
InChI=1S/C4H5NO4.H3O4P/c6-4-2-1-3(9-4)5(7)8;1-5(2,3)4/h3H,1-2H2;(H3,1,2,3,4)
InChIKey=FEZFUTOZYNWVMI-UHFFFAOYSA-N

> <PUBCHEM_SUBSTANCE_SYNONYM>
SCHEMBL16110099

> <PUBCHEM_XREF_EXT_ID>
SCHEMBL16110099

> <PUBCHEM_EXT_DATASOURCE_URL>
https://www.surechembl.org/

> <PUBCHEM_EXT_SUBSTANCE_URL>
https://www.surechembl.org/chemical/SCHEMBL16110099

> <PUBCHEM_CID_ASSOCIATIONS>
117601223  1
1004  2
23067838  2

> <PUBCHEM_COORDINATE_TYPE>
1
3

$$$$
