310935345
  -OEChem-07211613022D

 13 14  0     1  0  0  0  0  0999 V2000
    0.7882   -2.7325    0.0000 S   0  0  0  0  0  0  0  0  0  0  0  0
    1.0334   -3.5031    0.0000 O   0  0  0  0  0  0  0  0  0  0  0  0
    0.2102   -3.3105    0.0000 O   0  0  0  0  0  0  0  0  0  0  0  0
    1.8392   -0.4379    0.0000 O   0  0  0  0  0  0  0  0  0  0  0  0
    2.2946   -2.0669    0.0000 N   0  0  0  0  0  0  0  0  0  0  0  0
    0.5080    0.0000    0.0000 N   0  0  0  0  0  0  0  0  0  0  0  0
    1.2786   -2.0669    0.0000 C   0  0  0  0  0  0  0  0  0  0  0  0
    0.7882   -1.3838    0.0000 C   0  0  3  0  0  0  0  0  0  0  0  0
    1.6990   -1.4713    0.0000 C   0  0  0  0  0  0  0  0  0  0  0  0
    1.6990   -2.6624    0.0000 C   0  0  0  0  0  0  0  0  0  0  0  0
    0.0000   -2.4872    0.0000 C   0  0  0  0  0  0  0  0  0  0  0  0
    0.0000   -1.6465    0.0000 C   0  0  0  0  0  0  0  0  0  0  0  0
    1.0334   -0.6131    0.0000 C   0  0  0  0  0  0  0  0  0  0  0  0
  1  2  2  0  0  0  0
  1  3  2  0  0  0  0
  1  7  1  0  0  0  0
  1 11  1  0  0  0  0
  4 13  2  0  0  0  0
  5  9  1  0  0  0  0
  5 10  1  0  0  0  0
  6 13  1  0  0  0  0
  7  8  1  0  0  0  0
  7  9  1  0  0  0  0
  7 10  1  0  0  0  0
  8 12  1  0  0  0  0
  8 13  1  0  0  0  0
 11 12  1  0  0  0  0
M  END
> <PUBCHEM_COMPOUND_ID_TYPE>
0

> <PUBCHEM_TOTAL_CHARGE>
0

> <PUBCHEM_SUBSTANCE_ID>
310935345

> <PUBCHEM_SUBSTANCE_VERSION>
1

> <PUBCHEM_EXT_DATASOURCE_NAME>
4488

> <PUBCHEM_EXT_DATASOURCE_REGID>
SCHEMBL16112883

> <PUBCHEM_SUBSTANCE_COMMENT>
InChI=1S/C7H12N2O3S/c8-6(10)5-1-2-13(11,12)7(5)3-9-4-7/h5,9H,1-4H2,(H2,8,10)
InChIKey=KVCZZEWYMNFSIA-UHFFFAOYSA-N

> <PUBCHEM_SUBSTANCE_SYNONYM>
SCHEMBL16112883

> <PUBCHEM_XREF_EXT_ID>
SCHEMBL16112883

> <PUBCHEM_EXT_DATASOURCE_URL>
https://www.surechembl.org/

> <PUBCHEM_EXT_SUBSTANCE_URL>
https://www.surechembl.org/chemical/SCHEMBL16112883

> <PUBCHEM_CID_ASSOCIATIONS>
117603401  1

> <PUBCHEM_COORDINATE_TYPE>
1
3

$$$$
