310949313
  -OEChem-07211613022D

 16 18  0     1  0  0  0  0  0999 V2000
   -1.1129   -1.2919    0.0000 O   0  0  0  0  0  0  0  0  0  0  0  0
   -2.4104   -0.6207    0.0000 O   0  0  0  0  0  0  0  0  0  0  0  0
    1.7840   -1.5379    0.0000 O   0  0  0  0  0  0  0  0  0  0  0  0
    2.4104   -0.2628    0.0000 O   0  0  0  0  0  0  0  0  0  0  0  0
   -1.1688    0.1398    0.0000 C   0  0  3  0  0  0  0  0  0  0  0  0
   -0.3412   -0.0504    0.0000 C   0  0  3  0  0  0  0  0  0  0  0  0
    0.0280    0.6656    0.0000 C   0  0  3  0  0  0  0  0  0  0  0  0
   -0.7550    0.8892    0.0000 C   0  0  3  0  0  0  0  0  0  0  0  0
   -1.1241    1.5379    0.0000 C   0  0  0  0  0  0  0  0  0  0  0  0
   -1.9294   -0.0504    0.0000 C   0  0  0  0  0  0  0  0  0  0  0  0
   -1.5603   -0.5760    0.0000 C   0  0  0  0  0  0  0  0  0  0  0  0
    0.1957   -0.6767    0.0000 C   0  0  0  0  0  0  0  0  0  0  0  0
    0.9676   -0.3524    0.0000 C   0  0  0  0  0  0  0  0  0  0  0  0
   -1.5491    0.6656    0.0000 C   0  0  0  0  0  0  0  0  0  0  0  0
    0.9004    0.4866    0.0000 C   0  0  0  0  0  0  0  0  0  0  0  0
    1.7393   -0.6879    0.0000 C   0  0  0  0  0  0  0  0  0  0  0  0
  1 11  2  0  0  0  0
  2 11  1  0  0  0  0
  3 16  2  0  0  0  0
  4 16  1  0  0  0  0
  5  6  1  0  0  0  0
  5  9  1  0  0  0  0
  5 10  1  0  0  0  0
  5 11  1  0  0  0  0
  6  7  1  0  0  0  0
  6 12  1  0  0  0  0
  7  8  1  0  0  0  0
  7 15  1  0  0  0  0
  8  9  1  0  0  0  0
  8 14  1  0  0  0  0
 10 14  2  0  0  0  0
 12 13  1  0  0  0  0
 13 15  2  0  0  0  0
 13 16  1  0  0  0  0
M  END
> <PUBCHEM_COMPOUND_ID_TYPE>
0

> <PUBCHEM_TOTAL_CHARGE>
0

> <PUBCHEM_SUBSTANCE_ID>
310949313

> <PUBCHEM_SUBSTANCE_VERSION>
1

> <PUBCHEM_EXT_DATASOURCE_NAME>
4488

> <PUBCHEM_EXT_DATASOURCE_REGID>
SCHEMBL16127503

> <PUBCHEM_SUBSTANCE_COMMENT>
InChI=1S/C12H12O4/c13-10(14)7-3-8-6-1-2-12(5-6,11(15)16)9(8)4-7/h1-3,6,8-9H,4-5H2,(H,13,14)(H,15,16)
InChIKey=MGOBPYANXHWPME-UHFFFAOYSA-N

> <PUBCHEM_SUBSTANCE_SYNONYM>
SCHEMBL16127503

> <PUBCHEM_XREF_EXT_ID>
SCHEMBL16127503

> <PUBCHEM_EXT_DATASOURCE_URL>
https://www.surechembl.org/

> <PUBCHEM_EXT_SUBSTANCE_URL>
https://www.surechembl.org/chemical/SCHEMBL16127503

> <PUBCHEM_CID_ASSOCIATIONS>
285933  1

> <PUBCHEM_COORDINATE_TYPE>
1
3

$$$$
