310946254
  -OEChem-07211613022D

 23 25  0     1  0  0  0  0  0999 V2000
    3.5892    7.4406    0.0000 S   0  0  0  0  0  0  0  0  0  0  0  0
    2.7642    7.4406    0.0000 O   0  0  0  0  0  0  0  0  0  0  0  0
   -0.0937    7.4406    0.0000 O   0  0  0  0  0  0  0  0  0  0  0  0
   -1.5226    9.9156    0.0000 O   0  0  0  0  0  0  0  0  0  0  0  0
   -0.0937   10.7406    0.0000 O   0  0  0  0  0  0  0  0  0  0  0  0
    4.0017    8.1550    0.0000 O   0  0  0  0  0  0  0  0  0  0  0  0
    4.0017    6.7261    0.0000 O   0  0  0  0  0  0  0  0  0  0  0  0
    4.4142    7.4406    0.0000 O   0  0  0  0  0  0  0  0  0  0  0  0
    0.6208    8.6781    0.0000 N   0  0  0  0  0  0  0  0  0  0  0  0
    2.0497    7.8531    0.0000 N   0  0  0  0  0  0  0  0  0  0  0  0
   -0.8081    9.5031    0.0000 N   0  0  0  0  0  0  0  0  0  0  0  0
   -3.6173   10.2999    0.0000 N   0  0  0  0  0  0  0  0  0  0  0  0
    0.6208    7.8531    0.0000 C   0  0  0  0  0  0  0  0  0  0  0  0
    2.0497    8.6781    0.0000 C   0  0  3  0  0  0  0  0  0  0  0  0
    0.6208    9.5031    0.0000 C   0  0  3  0  0  0  0  0  0  0  0  0
    1.3353    8.2656    0.0000 C   0  0  0  0  0  0  0  0  0  0  0  0
    2.0497    9.5031    0.0000 C   0  0  0  0  0  0  0  0  0  0  0  0
    1.3353    9.9156    0.0000 C   0  0  0  0  0  0  0  0  0  0  0  0
   -0.0937    9.9156    0.0000 C   0  0  0  0  0  0  0  0  0  0  0  0
   -2.2371    9.5031    0.0000 C   0  0  3  0  0  0  0  0  0  0  0  0
   -3.0340    9.7166    0.0000 C   0  0  3  0  0  0  0  0  0  0  0  0
   -2.8204    8.9197    0.0000 C   0  0  0  0  0  0  0  0  0  0  0  0
   -4.4142   10.0864    0.0000 C   0  0  0  0  0  0  0  0  0  0  0  0
  1  2  1  0  0  0  0
  1  6  2  0  0  0  0
  1  7  2  0  0  0  0
  1  8  1  0  0  0  0
  2 10  1  0  0  0  0
  3 13  2  0  0  0  0
  4 11  1  0  0  0  0
  4 20  1  0  0  0  0
  5 19  2  0  0  0  0
  9 13  1  0  0  0  0
  9 15  1  0  0  0  0
  9 16  1  0  0  0  0
 10 13  1  0  0  0  0
 10 14  1  0  0  0  0
 11 19  1  0  0  0  0
 12 21  1  0  0  0  0
 12 23  1  0  0  0  0
 14 16  1  6  0  0  0
 14 17  1  0  0  0  0
 15 18  1  0  0  0  0
 15 19  1  6  0  0  0
 17 18  1  0  0  0  0
 20 21  1  0  0  0  0
 20 22  1  0  0  0  0
 21 22  1  0  0  0  0
M  END
> <PUBCHEM_COMPOUND_ID_TYPE>
0

> <PUBCHEM_TOTAL_CHARGE>
0

> <PUBCHEM_SUBSTANCE_ID>
310946254

> <PUBCHEM_SUBSTANCE_VERSION>
1

> <PUBCHEM_EXT_DATASOURCE_NAME>
4488

> <PUBCHEM_EXT_DATASOURCE_REGID>
SCHEMBL16124372

> <PUBCHEM_SUBSTANCE_COMMENT>
InChI=1S/C11H18N4O7S/c1-12-7-4-9(7)21-13-10(16)8-3-2-6-5-14(8)11(17)15(6)22-23(18,19)20/h6-9,12H,2-5H2,1H3,(H,13,16)(H,18,19,20)/t6-,7?,8+,9?/m1/s1
InChIKey=CLGGQXYWIRYXDV-PQNACEFISA-N

> <PUBCHEM_SUBSTANCE_SYNONYM>
SCHEMBL16124372

> <PUBCHEM_XREF_EXT_ID>
SCHEMBL16124372

> <PUBCHEM_EXT_DATASOURCE_URL>
https://www.surechembl.org/

> <PUBCHEM_EXT_SUBSTANCE_URL>
https://www.surechembl.org/chemical/SCHEMBL16124372

> <PUBCHEM_CID_ASSOCIATIONS>
117612202  1

> <PUBCHEM_COORDINATE_TYPE>
1
3

> <PUBCHEM_BONDANNOTATIONS>
14  16  6
15  19  6

$$$$
