310943926
  -OEChem-07211613022D

 24 26  0     1  0  0  0  0  0999 V2000
    3.8569    1.9035    0.0000 O   0  0  0  0  0  0  0  0  0  0  0  0
    4.5809    0.7177    0.0000 O   0  0  0  0  0  0  0  0  0  0  0  0
   -1.9472   -1.4417    0.0000 N   0  0  3  0  0  0  0  0  0  0  0  0
   -3.7446   -0.8924    0.0000 N   0  0  3  0  0  0  0  0  0  0  0  0
    0.9362   -0.5929    0.0000 C   0  0  0  0  0  0  0  0  0  0  0  0
    1.6850   -0.1186    0.0000 C   0  0  0  0  0  0  0  0  0  0  0  0
   -0.4993   -1.4292    0.0000 C   0  0  0  0  0  0  0  0  0  0  0  0
    3.1204    0.7177    0.0000 C   0  0  0  0  0  0  0  0  0  0  0  0
    0.2122   -0.1935    0.0000 C   0  0  0  0  0  0  0  0  0  0  0  0
    0.9362   -1.4167    0.0000 C   0  0  0  0  0  0  0  0  0  0  0  0
    2.3965   -0.5180    0.0000 C   0  0  0  0  0  0  0  0  0  0  0  0
    1.6975    0.7302    0.0000 C   0  0  0  0  0  0  0  0  0  0  0  0
   -0.4868   -0.5929    0.0000 C   0  0  0  0  0  0  0  0  0  0  0  0
    0.2372   -1.8411    0.0000 C   0  0  0  0  0  0  0  0  0  0  0  0
    3.1204   -0.1061    0.0000 C   0  0  0  0  0  0  0  0  0  0  0  0
    2.4090    1.1296    0.0000 C   0  0  0  0  0  0  0  0  0  0  0  0
   -1.2107   -1.8411    0.0000 C   0  0  0  0  0  0  0  0  0  0  0  0
    3.8444    1.1296    0.0000 C   0  0  0  0  0  0  0  0  0  0  0  0
   -2.6462   -1.9035    0.0000 C   0  0  0  0  0  0  0  0  0  0  0  0
   -1.8972   -0.5929    0.0000 C   0  0  0  0  0  0  0  0  0  0  0  0
   -3.4325   -1.6539    0.0000 C   0  0  0  0  0  0  0  0  0  0  0  0
   -2.5088   -0.0312    0.0000 C   0  0  0  0  0  0  0  0  0  0  0  0
   -3.3202   -0.1560    0.0000 C   0  0  0  0  0  0  0  0  0  0  0  0
   -4.5809   -0.8924    0.0000 C   0  0  0  0  0  0  0  0  0  0  0  0
  1 18  2  0  0  0  0
  2 18  1  0  0  0  0
  3 17  1  0  0  0  0
  3 19  1  0  0  0  0
  3 20  1  0  0  0  0
  4 21  1  0  0  0  0
  4 23  1  0  0  0  0
  4 24  1  0  0  0  0
  5  6  1  0  0  0  0
  5  9  2  0  0  0  0
  5 10  1  0  0  0  0
  6 11  2  0  0  0  0
  6 12  1  0  0  0  0
  7 13  2  0  0  0  0
  7 14  1  0  0  0  0
  7 17  1  0  0  0  0
  8 15  2  0  0  0  0
  8 16  1  0  0  0  0
  8 18  1  0  0  0  0
  9 13  1  0  0  0  0
 10 14  2  0  0  0  0
 11 15  1  0  0  0  0
 12 16  2  0  0  0  0
 19 21  1  0  0  0  0
 20 22  1  0  0  0  0
 22 23  1  0  0  0  0
M  END
> <PUBCHEM_COMPOUND_ID_TYPE>
0

> <PUBCHEM_TOTAL_CHARGE>
0

> <PUBCHEM_SUBSTANCE_ID>
310943926

> <PUBCHEM_SUBSTANCE_VERSION>
1

> <PUBCHEM_EXT_DATASOURCE_NAME>
4488

> <PUBCHEM_EXT_DATASOURCE_REGID>
SCHEMBL16121997

> <PUBCHEM_SUBSTANCE_COMMENT>
InChI=1S/C20H24N2O2/c1-21-11-2-12-22(14-13-21)15-16-3-5-17(6-4-16)18-7-9-19(10-8-18)20(23)24/h3-10H,2,11-15H2,1H3,(H,23,24)
InChIKey=JNOWNXJKDKKZMA-UHFFFAOYSA-N

> <PUBCHEM_SUBSTANCE_SYNONYM>
SCHEMBL16121997

> <PUBCHEM_XREF_EXT_ID>
SCHEMBL16121997

> <PUBCHEM_EXT_DATASOURCE_URL>
https://www.surechembl.org/

> <PUBCHEM_EXT_SUBSTANCE_URL>
https://www.surechembl.org/chemical/SCHEMBL16121997

> <PUBCHEM_CID_ASSOCIATIONS>
86300472  1

> <PUBCHEM_COORDINATE_TYPE>
1
3

$$$$
