310932527
  -OEChem-07211613022D

 32 35  0     1  0  0  0  0  0999 V2000
    4.0210   -2.1044    0.0000 O   0  0  0  0  0  0  0  0  0  0  0  0
    8.4553   -2.1796    0.0000 O   0  0  0  0  0  0  0  0  0  0  0  0
   11.2737   -3.7955    0.0000 O   0  0  0  0  0  0  0  0  0  0  0  0
    4.8853   -0.9770    0.0000 N   0  0  0  0  0  0  0  0  0  0  0  0
    4.8101   -0.1503    0.0000 N   0  0  0  0  0  0  0  0  0  0  0  0
    6.3133   -0.9770    0.0000 N   0  0  0  0  0  0  0  0  0  0  0  0
    7.7413   -3.4197    0.0000 N   0  0  0  0  0  0  0  0  0  0  0  0
    0.0000   -1.8038    0.0000 N   0  0  0  0  0  0  0  0  0  0  0  0
    4.1713   -1.3153    0.0000 C   0  0  0  0  0  0  0  0  0  0  0  0
    3.6076   -0.7140    0.0000 C   0  0  0  0  0  0  0  0  0  0  0  0
    5.5993   -1.3904    0.0000 C   0  0  0  0  0  0  0  0  0  0  0  0
    2.7808   -0.7891    0.0000 C   0  0  0  0  0  0  0  0  0  0  0  0
    4.0210    0.0000    0.0000 C   0  0  0  0  0  0  0  0  0  0  0  0
    5.5993   -2.1796    0.0000 C   0  0  0  0  0  0  0  0  0  0  0  0
    7.0273   -2.1796    0.0000 C   0  0  0  0  0  0  0  0  0  0  0  0
    6.3133   -2.5929    0.0000 C   0  0  0  0  0  0  0  0  0  0  0  0
    7.0273   -1.3904    0.0000 C   0  0  0  0  0  0  0  0  0  0  0  0
    7.7413   -2.5929    0.0000 C   0  0  0  0  0  0  0  0  0  0  0  0
    2.4427   -1.5408    0.0000 C   0  0  0  0  0  0  0  0  0  0  0  0
    2.2923   -0.1503    0.0000 C   0  0  0  0  0  0  0  0  0  0  0  0
    1.1649   -0.9770    0.0000 C   0  0  0  0  0  0  0  0  0  0  0  0
    1.6535   -1.6535    0.0000 C   0  0  0  0  0  0  0  0  0  0  0  0
    1.5032   -0.2255    0.0000 C   0  0  0  0  0  0  0  0  0  0  0  0
    6.3133   -3.4197    0.0000 C   0  0  0  0  0  0  0  0  0  0  0  0
    0.3382   -1.0898    0.0000 C   0  0  0  0  0  0  0  0  0  0  0  0
    8.4553   -3.8331    0.0000 C   0  0  0  0  0  0  0  0  0  0  0  0
    9.1693   -3.4197    0.0000 C   0  0  0  0  0  0  0  0  0  0  0  0
    9.8457   -3.8331    0.0000 C   0  0  3  0  0  0  0  0  0  0  0  0
   10.5597   -3.4197    0.0000 C   0  0  0  0  0  0  0  0  0  0  0  0
    9.8457   -4.6598    0.0000 C   0  0  0  0  0  0  0  0  0  0  0  0
   10.5973   -5.0356    0.0000 C   0  0  0  0  0  0  0  0  0  0  0  0
   11.2737   -4.6222    0.0000 C   0  0  0  0  0  0  0  0  0  0  0  0
  1  9  1  0  0  0  0
  2 18  2  0  0  0  0
  3 29  1  0  0  0  0
  3 32  1  0  0  0  0
  4  5  1  0  0  0  0
  4  9  1  0  0  0  0
  4 11  1  0  0  0  0
  5 13  2  0  0  0  0
  6 11  2  0  0  0  0
  6 17  1  0  0  0  0
  7 18  1  0  0  0  0
  7 26  1  0  0  0  0
  8 25  3  0  0  0  0
  9 10  2  0  0  0  0
 10 12  1  0  0  0  0
 10 13  1  0  0  0  0
 11 14  1  0  0  0  0
 12 19  2  0  0  0  0
 12 20  1  0  0  0  0
 14 16  2  0  0  0  0
 15 16  1  0  0  0  0
 15 17  2  0  0  0  0
 15 18  1  0  0  0  0
 16 24  1  0  0  0  0
 19 22  1  0  0  0  0
 20 23  2  0  0  0  0
 21 22  2  0  0  0  0
 21 23  1  0  0  0  0
 21 25  1  0  0  0  0
 26 27  1  0  0  0  0
 27 28  1  0  0  0  0
 28 29  1  0  0  0  0
 28 30  1  0  0  0  0
 30 31  1  0  0  0  0
 31 32  1  0  0  0  0
M  END
> <PUBCHEM_COMPOUND_ID_TYPE>
0

> <PUBCHEM_TOTAL_CHARGE>
0

> <PUBCHEM_SUBSTANCE_ID>
310932527

> <PUBCHEM_SUBSTANCE_VERSION>
1

> <PUBCHEM_EXT_DATASOURCE_NAME>
4488

> <PUBCHEM_EXT_DATASOURCE_REGID>
SCHEMBL16109902

> <PUBCHEM_SUBSTANCE_COMMENT>
InChI=1S/C24H25N5O3/c1-16-11-22(27-13-20(16)23(30)26-9-8-18-3-2-10-32-15-18)29-24(31)21(14-28-29)19-6-4-17(12-25)5-7-19/h4-7,11,13-14,18,31H,2-3,8-10,15H2,1H3,(H,26,30)
InChIKey=KSUOSSYPPFXVOM-UHFFFAOYSA-N

> <PUBCHEM_SUBSTANCE_SYNONYM>
SCHEMBL16109902

> <PUBCHEM_XREF_EXT_ID>
SCHEMBL16109902

> <PUBCHEM_EXT_DATASOURCE_URL>
https://www.surechembl.org/

> <PUBCHEM_EXT_SUBSTANCE_URL>
https://www.surechembl.org/chemical/SCHEMBL16109902

> <PUBCHEM_CID_ASSOCIATIONS>
117601059  1

> <PUBCHEM_COORDINATE_TYPE>
1
3

$$$$
