310933011
  -OEChem-07211613022D

 34 38  0     1  0  0  0  0  0999 V2000
    3.5376    0.0000    0.0000 F   0  0  0  0  0  0  0  0  0  0  0  0
    3.5641   -2.8726    0.0000 F   0  0  0  0  0  0  0  0  0  0  0  0
    6.0377   -1.4097    0.0000 F   0  0  0  0  0  0  0  0  0  0  0  0
    3.1120   -0.7447    0.0000 O   0  0  0  0  0  0  0  0  0  0  0  0
    0.0000   -4.2291    0.0000 O   0  0  0  0  0  0  0  0  0  0  0  0
    5.5590   -3.1120    0.0000 O   0  0  0  0  0  0  0  0  0  0  0  0
    4.2291   -2.4470    0.0000 N   0  0  0  0  0  0  0  0  0  0  0  0
    4.2291   -3.7769    0.0000 N   0  0  0  0  0  0  0  0  0  0  0  0
    1.4363   -0.7447    0.0000 N   0  0  0  0  0  0  0  0  0  0  0  0
    0.6384   -2.1810    0.0000 N   0  0  0  0  0  0  0  0  0  0  0  0
    0.3990   -4.9472    0.0000 N   0  0  0  0  0  0  0  0  0  0  0  0
    2.7130   -1.4629    0.0000 C   0  0  3  0  0  0  0  0  0  0  0  0
    2.7130   -2.2874    0.0000 C   0  0  0  0  0  0  0  0  0  0  0  0
    3.5376   -1.4363    0.0000 C   0  0  0  0  0  0  0  0  0  0  0  0
    3.4578   -2.6864    0.0000 C   0  0  0  0  0  0  0  0  0  0  0  0
    1.8885   -1.4629    0.0000 C   0  0  0  0  0  0  0  0  0  0  0  0
    3.4578   -3.5376    0.0000 C   0  0  0  0  0  0  0  0  0  0  0  0
    2.0214   -2.6864    0.0000 C   0  0  0  0  0  0  0  0  0  0  0  0
    2.0214   -3.5376    0.0000 C   0  0  0  0  0  0  0  0  0  0  0  0
    3.9631   -0.7182    0.0000 C   0  0  0  0  0  0  0  0  0  0  0  0
    3.9631   -2.1544    0.0000 C   0  0  0  0  0  0  0  0  0  0  0  0
    2.7130   -3.9365    0.0000 C   0  0  0  0  0  0  0  0  0  0  0  0
    1.3033   -3.9631    0.0000 C   0  0  0  0  0  0  0  0  0  0  0  0
    4.7344   -3.1120    0.0000 C   0  0  0  0  0  0  0  0  0  0  0  0
    1.4363   -2.1810    0.0000 C   0  0  0  0  0  0  0  0  0  0  0  0
    4.7877   -0.7182    0.0000 C   0  0  0  0  0  0  0  0  0  0  0  0
    4.7877   -2.1279    0.0000 C   0  0  0  0  0  0  0  0  0  0  0  0
    0.5586   -3.6173    0.0000 C   0  0  0  0  0  0  0  0  0  0  0  0
    1.2235   -4.7610    0.0000 C   0  0  0  0  0  0  0  0  0  0  0  0
    5.2132   -1.4363    0.0000 C   0  0  0  0  0  0  0  0  0  0  0  0
    0.6384   -0.7447    0.0000 C   0  0  0  0  0  0  0  0  0  0  0  0
    0.1862   -1.4895    0.0000 C   0  0  0  0  0  0  0  0  0  0  0  0
    0.3724   -2.8194    0.0000 C   0  0  0  0  0  0  0  0  0  0  0  0
    1.8352   -5.3196    0.0000 C   0  0  0  0  0  0  0  0  0  0  0  0
  1 20  1  0  0  0  0
  2 21  1  0  0  0  0
  3 30  1  0  0  0  0
  4 12  1  0  0  0  0
  5 11  1  0  0  0  0
  5 28  1  0  0  0  0
  6 24  2  0  0  0  0
  7 15  1  0  0  0  0
  7 24  1  0  0  0  0
  8 17  1  0  0  0  0
  8 24  1  0  0  0  0
  9 16  2  0  0  0  0
  9 31  1  0  0  0  0
 10 25  2  0  0  0  0
 10 32  1  0  0  0  0
 11 29  2  0  0  0  0
 12 13  1  0  0  0  0
 12 14  1  0  0  0  0
 12 16  1  0  0  0  0
 13 15  1  0  0  0  0
 13 18  2  0  0  0  0
 14 20  2  0  0  0  0
 14 21  1  0  0  0  0
 15 17  2  0  0  0  0
 16 25  1  0  0  0  0
 17 22  1  0  0  0  0
 18 19  1  0  0  0  0
 19 22  2  0  0  0  0
 19 23  1  0  0  0  0
 20 26  1  0  0  0  0
 21 27  2  0  0  0  0
 23 28  2  0  0  0  0
 23 29  1  0  0  0  0
 26 30  2  0  0  0  0
 27 30  1  0  0  0  0
 28 33  1  0  0  0  0
 29 34  1  0  0  0  0
 31 32  2  0  0  0  0
M  END
> <PUBCHEM_COMPOUND_ID_TYPE>
0

> <PUBCHEM_TOTAL_CHARGE>
0

> <PUBCHEM_SUBSTANCE_ID>
310933011

> <PUBCHEM_SUBSTANCE_VERSION>
1

> <PUBCHEM_EXT_DATASOURCE_NAME>
4488

> <PUBCHEM_EXT_DATASOURCE_REGID>
SCHEMBL16110411

> <PUBCHEM_SUBSTANCE_COMMENT>
InChI=1S/C23H16F3N5O3/c1-10-19(11(2)34-31-10)12-5-14(21-17(6-12)29-22(32)30-21)23(33,18-9-27-3-4-28-18)20-15(25)7-13(24)8-16(20)26/h3-9,33H,1-2H3,(H2,29,30,32)
InChIKey=DJNMLTYAYVRHCQ-UHFFFAOYSA-N

> <PUBCHEM_SUBSTANCE_SYNONYM>
SCHEMBL16110411

> <PUBCHEM_XREF_EXT_ID>
SCHEMBL16110411

> <PUBCHEM_EXT_DATASOURCE_URL>
https://www.surechembl.org/

> <PUBCHEM_EXT_SUBSTANCE_URL>
https://www.surechembl.org/chemical/SCHEMBL16110411

> <PUBCHEM_CID_ASSOCIATIONS>
86296964  1

> <PUBCHEM_COORDINATE_TYPE>
1
3

$$$$
