310928677
  -OEChem-07211613022D

  9  9  0     1  0  0  0  0  0999 V2000
   -1.5598   -0.5204    0.0000 O   0  0  0  0  0  0  0  0  0  0  0  0
    1.5598    0.9819    0.0000 O   0  0  0  0  0  0  0  0  0  0  0  0
   -0.5719    0.4675    0.0000 N   0  0  0  0  0  0  0  0  0  0  0  0
   -0.7554   -0.3368    0.0000 C   0  0  0  0  0  0  0  0  0  0  0  0
    0.9147    0.4675    0.0000 C   0  0  3  0  0  0  0  0  0  0  0  0
    0.1714    0.8254    0.0000 C   0  0  0  0  0  0  0  0  0  0  0  0
   -0.2411   -0.9819    0.0000 C   0  0  0  0  0  0  0  0  0  0  0  0
    1.0983   -0.3368    0.0000 C   0  0  0  0  0  0  0  0  0  0  0  0
    0.5839   -0.9819    0.0000 C   0  0  0  0  0  0  0  0  0  0  0  0
  1  4  2  0  0  0  0
  2  5  1  0  0  0  0
  3  4  1  0  0  0  0
  3  6  1  0  0  0  0
  4  7  1  0  0  0  0
  5  6  1  0  0  0  0
  5  8  1  0  0  0  0
  7  9  1  0  0  0  0
  8  9  1  0  0  0  0
M  END
> <PUBCHEM_COMPOUND_ID_TYPE>
0

> <PUBCHEM_TOTAL_CHARGE>
0

> <PUBCHEM_SUBSTANCE_ID>
310928677

> <PUBCHEM_SUBSTANCE_VERSION>
1

> <PUBCHEM_EXT_DATASOURCE_NAME>
11752

> <PUBCHEM_EXT_DATASOURCE_REGID>
BD267745

> <PUBCHEM_SUBSTANCE_SYNONYM>
1292369-55-1
6-Hydroxyazepan-2-one

> <PUBCHEM_GENERIC_REGISTRY_NAME>
1292369-55-1

> <PUBCHEM_XREF_EXT_ID>
BD267745

> <PUBCHEM_EXT_DATASOURCE_URL>
http://www.bidepharmatech.com/en/index.html

> <PUBCHEM_EXT_SUBSTANCE_URL>
http://www.bidepharmatech.com/en/goodsview_goodscode_BD267745.html

> <PUBCHEM_CID_ASSOCIATIONS>
67764878  1

> <PUBCHEM_COORDINATE_TYPE>
1
3

$$$$
