310939602
  -OEChem-07211613022D

 34 37  0     1  0  0  0  0  0999 V2000
    0.7615   -0.9919    0.0000 O   0  0  0  0  0  0  0  0  0  0  0  0
   -2.1434    1.5555    0.0000 O   0  0  0  0  0  0  0  0  0  0  0  0
   -3.5724    0.7305    0.0000 O   0  0  0  0  0  0  0  0  0  0  0  0
    0.7145    0.7305    0.0000 N   0  0  0  0  0  0  0  0  0  0  0  0
    1.4289    1.9680    0.0000 N   0  0  0  0  0  0  0  0  0  0  0  0
    2.8579    1.9680    0.0000 N   0  0  0  0  0  0  0  0  0  0  0  0
    5.7158    1.1430    0.0000 N   0  0  0  0  0  0  0  0  0  0  0  0
   -5.0013    1.5555    0.0000 N   0  0  0  0  0  0  0  0  0  0  0  0
    1.4289    0.3180    0.0000 C   0  0  0  0  0  0  0  0  0  0  0  0
    1.4289   -0.5070    0.0000 C   0  0  0  0  0  0  0  0  0  0  0  0
    0.7145    1.5555    0.0000 C   0  0  0  0  0  0  0  0  0  0  0  0
    1.0164   -1.7766    0.0000 C   0  0  0  0  0  0  0  0  0  0  0  0
    1.8414   -1.7766    0.0000 C   0  0  0  0  0  0  0  0  0  0  0  0
    2.1434    1.5555    0.0000 C   0  0  0  0  0  0  0  0  0  0  0  0
    2.0964   -0.9919    0.0000 C   0  0  0  0  0  0  0  0  0  0  0  0
    2.1434    0.7305    0.0000 C   0  0  0  0  0  0  0  0  0  0  0  0
    0.0000    1.9680    0.0000 C   0  0  0  0  0  0  0  0  0  0  0  0
    0.6039   -2.4910    0.0000 C   0  0  0  0  0  0  0  0  0  0  0  0
    2.2539   -2.4910    0.0000 C   0  0  0  0  0  0  0  0  0  0  0  0
   -0.7145    1.5555    0.0000 C   0  0  0  0  0  0  0  0  0  0  0  0
    0.0000    2.7930    0.0000 C   0  0  0  0  0  0  0  0  0  0  0  0
   -1.4289    1.9680    0.0000 C   0  0  0  0  0  0  0  0  0  0  0  0
    1.0164   -3.2055    0.0000 C   0  0  0  0  0  0  0  0  0  0  0  0
    1.8414   -3.2055    0.0000 C   0  0  0  0  0  0  0  0  0  0  0  0
   -0.7145    3.2055    0.0000 C   0  0  0  0  0  0  0  0  0  0  0  0
   -1.4289    2.7930    0.0000 C   0  0  0  0  0  0  0  0  0  0  0  0
    3.5724    1.5555    0.0000 C   0  0  0  0  0  0  0  0  0  0  0  0
    2.8579    2.7930    0.0000 C   0  0  0  0  0  0  0  0  0  0  0  0
    4.2868    1.9680    0.0000 C   0  0  0  0  0  0  0  0  0  0  0  0
   -2.8579    1.9680    0.0000 C   0  0  0  0  0  0  0  0  0  0  0  0
   -3.5724    1.5555    0.0000 C   0  0  3  0  0  0  0  0  0  0  0  0
    5.0013    1.5555    0.0000 C   0  0  0  0  0  0  0  0  0  0  0  0
   -4.2868    1.9680    0.0000 C   0  0  0  0  0  0  0  0  0  0  0  0
   -5.7158    1.9680    0.0000 C   0  0  0  0  0  0  0  0  0  0  0  0
  1 10  1  0  0  0  0
  1 12  1  0  0  0  0
  2 22  1  0  0  0  0
  2 30  1  0  0  0  0
  3 31  1  0  0  0  0
  4  9  1  0  0  0  0
  4 11  2  0  0  0  0
  5 11  1  0  0  0  0
  5 14  2  0  0  0  0
  6 14  1  0  0  0  0
  6 27  1  0  0  0  0
  6 28  1  0  0  0  0
  7 32  3  0  0  0  0
  8 33  1  0  0  0  0
  8 34  1  0  0  0  0
  9 10  1  0  0  0  0
  9 16  2  0  0  0  0
 10 15  2  0  0  0  0
 11 17  1  0  0  0  0
 12 13  2  0  0  0  0
 12 18  1  0  0  0  0
 13 15  1  0  0  0  0
 13 19  1  0  0  0  0
 14 16  1  0  0  0  0
 17 20  2  0  0  0  0
 17 21  1  0  0  0  0
 18 23  2  0  0  0  0
 19 24  2  0  0  0  0
 20 22  1  0  0  0  0
 21 25  2  0  0  0  0
 22 26  2  0  0  0  0
 23 24  1  0  0  0  0
 25 26  1  0  0  0  0
 27 29  1  0  0  0  0
 29 32  1  0  0  0  0
 30 31  1  0  0  0  0
 31 33  1  0  0  0  0
M  END
> <PUBCHEM_COMPOUND_ID_TYPE>
0

> <PUBCHEM_TOTAL_CHARGE>
0

> <PUBCHEM_SUBSTANCE_ID>
310939602

> <PUBCHEM_SUBSTANCE_VERSION>
1

> <PUBCHEM_EXT_DATASOURCE_NAME>
4488

> <PUBCHEM_EXT_DATASOURCE_REGID>
SCHEMBL16117532

> <PUBCHEM_SUBSTANCE_COMMENT>
InChI=1S/C26H27N5O3/c1-28-16-20(32)17-33-21-9-5-8-19(13-21)26-29-22(15-25(30-26)31(2)12-6-11-27)24-14-18-7-3-4-10-23(18)34-24/h3-5,7-10,13-15,20,28,32H,6,12,16-17H2,1-2H3
InChIKey=FSTFLJJFHVGJFA-UHFFFAOYSA-N

> <PUBCHEM_SUBSTANCE_SYNONYM>
SCHEMBL16117532

> <PUBCHEM_XREF_EXT_ID>
SCHEMBL16117532

> <PUBCHEM_EXT_DATASOURCE_URL>
https://www.surechembl.org/

> <PUBCHEM_EXT_SUBSTANCE_URL>
https://www.surechembl.org/chemical/SCHEMBL16117532

> <PUBCHEM_CID_ASSOCIATIONS>
85472159  1

> <PUBCHEM_COORDINATE_TYPE>
1
3

$$$$
