310933620
  -OEChem-07211613022D

 29 32  0     1  0  0  0  0  0999 V2000
    0.0000    0.0000    0.0000 F   0  0  0  0  0  0  0  0  0  0  0  0
    0.0306   -1.4400    0.0000 F   0  0  0  0  0  0  0  0  0  0  0  0
    0.8272    0.0000    0.0000 F   0  0  0  0  0  0  0  0  0  0  0  0
    0.6128   -5.0554    0.0000 O   0  0  0  0  0  0  0  0  0  0  0  0
    3.9831   -1.8996    0.0000 O   0  0  0  0  0  0  0  0  0  0  0  0
    6.0972   -3.9524    0.0000 O   0  0  0  0  0  0  0  0  0  0  0  0
    4.7797   -3.2784    0.0000 N   0  0  0  0  0  0  0  0  0  0  0  0
    4.7797   -4.5959    0.0000 N   0  0  0  0  0  0  0  0  0  0  0  0
    1.0111   -5.7601    0.0000 N   0  0  0  0  0  0  0  0  0  0  0  0
    1.8690   -2.3286    0.0000 N   0  0  0  0  0  0  0  0  0  0  0  0
    4.0137   -3.5235    0.0000 C   0  0  0  0  0  0  0  0  0  0  0  0
    3.2784   -3.1252    0.0000 C   0  0  0  0  0  0  0  0  0  0  0  0
    4.0137   -4.3507    0.0000 C   0  0  0  0  0  0  0  0  0  0  0  0
    2.6043   -4.3507    0.0000 C   0  0  0  0  0  0  0  0  0  0  0  0
    1.8996   -4.7797    0.0000 C   0  0  0  0  0  0  0  0  0  0  0  0
    2.6043   -3.5235    0.0000 C   0  0  0  0  0  0  0  0  0  0  0  0
    3.2784   -2.2979    0.0000 C   0  0  3  0  0  0  0  0  0  0  0  0
    3.2784   -4.7490    0.0000 C   0  0  0  0  0  0  0  0  0  0  0  0
    2.5737   -1.8996    0.0000 C   0  0  0  0  0  0  0  0  0  0  0  0
    5.2699   -3.9524    0.0000 C   0  0  0  0  0  0  0  0  0  0  0  0
    1.1336   -4.4427    0.0000 C   0  0  0  0  0  0  0  0  0  0  0  0
    1.8077   -5.5763    0.0000 C   0  0  0  0  0  0  0  0  0  0  0  0
    1.1643   -1.1030    0.0000 C   0  0  0  0  0  0  0  0  0  0  0  0
    2.5737   -1.0723    0.0000 C   0  0  0  0  0  0  0  0  0  0  0  0
    0.4290   -0.7047    0.0000 C   0  0  0  0  0  0  0  0  0  0  0  0
    1.1336   -1.9302    0.0000 C   0  0  0  0  0  0  0  0  0  0  0  0
    1.8383   -0.7047    0.0000 C   0  0  0  0  0  0  0  0  0  0  0  0
    0.9498   -3.6461    0.0000 C   0  0  0  0  0  0  0  0  0  0  0  0
    2.4205   -6.1278    0.0000 C   0  0  0  0  0  0  0  0  0  0  0  0
  1 25  1  0  0  0  0
  2 25  1  0  0  0  0
  3 25  1  0  0  0  0
  4  9  1  0  0  0  0
  4 21  1  0  0  0  0
  5 17  1  0  0  0  0
  6 20  2  0  0  0  0
  7 11  1  0  0  0  0
  7 20  1  0  0  0  0
  8 13  1  0  0  0  0
  8 20  1  0  0  0  0
  9 22  2  0  0  0  0
 10 19  1  0  0  0  0
 10 26  2  0  0  0  0
 11 12  1  0  0  0  0
 11 13  2  0  0  0  0
 12 16  2  0  0  0  0
 12 17  1  0  0  0  0
 13 18  1  0  0  0  0
 14 15  1  0  0  0  0
 14 16  1  0  0  0  0
 14 18  2  0  0  0  0
 15 21  2  0  0  0  0
 15 22  1  0  0  0  0
 17 19  1  0  0  0  0
 19 24  2  0  0  0  0
 21 28  1  0  0  0  0
 22 29  1  0  0  0  0
 23 25  1  0  0  0  0
 23 26  1  0  0  0  0
 23 27  2  0  0  0  0
 24 27  1  0  0  0  0
M  END
> <PUBCHEM_COMPOUND_ID_TYPE>
0

> <PUBCHEM_TOTAL_CHARGE>
0

> <PUBCHEM_SUBSTANCE_ID>
310933620

> <PUBCHEM_SUBSTANCE_VERSION>
1

> <PUBCHEM_EXT_DATASOURCE_NAME>
4488

> <PUBCHEM_EXT_DATASOURCE_REGID>
SCHEMBL16111050

> <PUBCHEM_SUBSTANCE_COMMENT>
InChI=1S/C19H15F3N4O3/c1-8-15(9(2)29-26-8)10-5-12(16-14(6-10)24-18(28)25-16)17(27)13-4-3-11(7-23-13)19(20,21)22/h3-7,17,27H,1-2H3,(H2,24,25,28)
InChIKey=WQIZJHSQTVSDHC-UHFFFAOYSA-N

> <PUBCHEM_SUBSTANCE_SYNONYM>
SCHEMBL16111050

> <PUBCHEM_XREF_EXT_ID>
SCHEMBL16111050

> <PUBCHEM_EXT_DATASOURCE_URL>
https://www.surechembl.org/

> <PUBCHEM_EXT_SUBSTANCE_URL>
https://www.surechembl.org/chemical/SCHEMBL16111050

> <PUBCHEM_CID_ASSOCIATIONS>
117601994  1

> <PUBCHEM_COORDINATE_TYPE>
1
3

$$$$
