310933946
  -OEChem-07211613022D

 49 54  0     1  0  0  0  0  0999 V2000
    7.8915   -2.4426    0.0000 Cl  0  0  0  0  0  0  0  0  0  0  0  0
    6.2756   -2.2547    0.0000 F   0  0  0  0  0  0  0  0  0  0  0  0
    2.8936   -0.9771    0.0000 O   0  0  0  0  0  0  0  0  0  0  0  0
    5.0355   -1.4280    0.0000 O   0  0  0  0  0  0  0  0  0  0  0  0
    0.0000   -5.8623    0.0000 O   0  0  0  0  0  0  0  0  0  0  0  0
    8.6055   -0.1879    0.0000 O   0  0  0  0  0  0  0  0  0  0  0  0
    9.3195   -1.4280    0.0000 O   0  0  0  0  0  0  0  0  0  0  0  0
    3.6076   -2.2172    0.0000 N   0  0  0  0  0  0  0  0  0  0  0  0
    5.6368   -0.7140    0.0000 N   0  0  0  0  0  0  0  0  0  0  0  0
    2.8560   -5.0731    0.0000 N   0  0  0  0  0  0  0  0  0  0  0  0
    5.2234    0.0000    0.0000 N   0  0  0  0  0  0  0  0  0  0  0  0
    5.7495   -2.6305    0.0000 N   0  0  0  0  0  0  0  0  0  0  0  0
    5.2610   -2.1420    0.0000 N   0  0  0  0  0  0  0  0  0  0  0  0
    0.7140   -7.1024    0.0000 N   0  0  0  0  0  0  0  0  0  0  0  0
    4.3215   -2.6305    0.0000 C   0  0  3  0  0  0  0  0  0  0  0  0
    4.3215   -3.4572    0.0000 C   0  0  0  0  0  0  0  0  0  0  0  0
    3.6076   -3.8706    0.0000 C   0  0  0  0  0  0  0  0  0  0  0  0
    3.6076   -1.3904    0.0000 C   0  0  0  0  0  0  0  0  0  0  0  0
    4.3215   -1.0147    0.0000 C   0  0  0  0  0  0  0  0  0  0  0  0
    3.5700   -4.6973    0.0000 C   0  0  0  0  0  0  0  0  0  0  0  0
    5.2610   -1.5031    0.0000 C   0  0  0  0  0  0  0  0  0  0  0  0
    5.0355   -2.2172    0.0000 C   0  0  0  0  0  0  0  0  0  0  0  0
    2.8936   -2.6305    0.0000 C   0  0  0  0  0  0  0  0  0  0  0  0
    2.8936   -3.4572    0.0000 C   0  0  0  0  0  0  0  0  0  0  0  0
    5.0355   -3.8706    0.0000 C   0  0  0  0  0  0  0  0  0  0  0  0
    6.4259   -0.8267    0.0000 C   0  0  0  0  0  0  0  0  0  0  0  0
    4.4343   -0.1879    0.0000 C   0  0  0  0  0  0  0  0  0  0  0  0
    4.2839   -5.1107    0.0000 C   0  0  0  0  0  0  0  0  0  0  0  0
    5.0355   -4.6973    0.0000 C   0  0  0  0  0  0  0  0  0  0  0  0
    6.7642   -1.5783    0.0000 C   0  0  0  0  0  0  0  0  0  0  0  0
    6.9520   -0.1503    0.0000 C   0  0  0  0  0  0  0  0  0  0  0  0
    2.8560   -5.8999    0.0000 C   0  0  0  0  0  0  0  0  0  0  0  0
    2.1796   -4.6597    0.0000 C   0  0  0  0  0  0  0  0  0  0  0  0
    7.5909   -1.6910    0.0000 C   0  0  0  0  0  0  0  0  0  0  0  0
    6.4635   -2.2172    0.0000 C   0  0  0  0  0  0  0  0  0  0  0  0
    1.4280   -5.8623    0.0000 C   0  0  0  0  0  0  0  0  0  0  0  0
    2.1420   -6.3132    0.0000 C   0  0  0  0  0  0  0  0  0  0  0  0
    1.4656   -5.0731    0.0000 C   0  0  0  0  0  0  0  0  0  0  0  0
    7.7412   -0.2631    0.0000 C   0  0  0  0  0  0  0  0  0  0  0  0
    8.0794   -1.0147    0.0000 C   0  0  0  0  0  0  0  0  0  0  0  0
    6.4635   -1.4280    0.0000 C   0  0  0  0  0  0  0  0  0  0  0  0
    7.1775   -2.6305    0.0000 C   0  0  0  0  0  0  0  0  0  0  0  0
    0.7140   -6.2756    0.0000 C   0  0  0  0  0  0  0  0  0  0  0  0
    7.8915   -1.4280    0.0000 C   0  0  0  0  0  0  0  0  0  0  0  0
    7.1775   -1.0147    0.0000 C   0  0  0  0  0  0  0  0  0  0  0  0
    7.8915   -2.2172    0.0000 C   0  0  0  0  0  0  0  0  0  0  0  0
    8.6055   -1.0147    0.0000 C   0  0  0  0  0  0  0  0  0  0  0  0
    0.0000   -7.5157    0.0000 C   0  0  0  0  0  0  0  0  0  0  0  0
    1.4280   -7.5157    0.0000 C   0  0  0  0  0  0  0  0  0  0  0  0
  1 34  1  0  0  0  0
  2 30  1  0  0  0  0
  3 18  2  0  0  0  0
  4 22  2  0  0  0  0
  5 43  2  0  0  0  0
  6 47  2  0  0  0  0
  7 47  1  0  0  0  0
  8 15  1  0  0  0  0
  8 18  1  0  0  0  0
  8 23  1  0  0  0  0
  9 11  1  0  0  0  0
  9 21  1  0  0  0  0
  9 26  1  0  0  0  0
 10 20  1  0  0  0  0
 10 32  1  0  0  0  0
 10 33  1  0  0  0  0
 11 27  2  0  0  0  0
 12 22  1  0  0  0  0
 12 35  1  0  0  0  0
 13 21  1  0  0  0  0
 14 43  1  0  0  0  0
 14 48  1  0  0  0  0
 14 49  1  0  0  0  0
 15 16  1  0  0  0  0
 15 22  1  0  0  0  0
 16 17  2  0  0  0  0
 16 25  1  0  0  0  0
 17 20  1  0  0  0  0
 17 24  1  0  0  0  0
 18 19  1  0  0  0  0
 19 21  2  0  0  0  0
 19 27  1  0  0  0  0
 20 28  2  0  0  0  0
 23 24  1  0  0  0  0
 25 29  2  0  0  0  0
 26 30  1  0  0  0  0
 26 31  2  0  0  0  0
 28 29  1  0  0  0  0
 30 34  2  0  0  0  0
 31 39  1  0  0  0  0
 32 37  1  0  0  0  0
 33 38  1  0  0  0  0
 34 40  1  0  0  0  0
 35 41  2  0  0  0  0
 35 42  1  0  0  0  0
 36 37  1  0  0  0  0
 36 38  1  0  0  0  0
 36 43  1  0  0  0  0
 39 40  2  0  0  0  0
 41 45  1  0  0  0  0
 42 46  2  0  0  0  0
 44 45  2  0  0  0  0
 44 46  1  0  0  0  0
 44 47  1  0  0  0  0
M  END
> <PUBCHEM_COMPOUND_ID_TYPE>
0

> <PUBCHEM_TOTAL_CHARGE>
0

> <PUBCHEM_SUBSTANCE_ID>
310933946

> <PUBCHEM_SUBSTANCE_VERSION>
1

> <PUBCHEM_EXT_DATASOURCE_NAME>
4488

> <PUBCHEM_EXT_DATASOURCE_REGID>
SCHEMBL16111385

> <PUBCHEM_SUBSTANCE_COMMENT>
InChI=1S/C35H35ClFN7O5/c1-41(2)33(46)20-13-16-42(17-14-20)27-7-3-5-24-23(27)15-18-43(30(24)32(45)40-22-11-9-21(10-12-22)35(48)49)34(47)25-19-39-44(31(25)38)28-8-4-6-26(36)29(28)37/h3-12,19-20,30H,13-18,38H2,1-2H3,(H,40,45)(H,48,49)
InChIKey=LWVFYGGVTSBNPF-UHFFFAOYSA-N

> <PUBCHEM_SUBSTANCE_SYNONYM>
SCHEMBL16111385

> <PUBCHEM_XREF_EXT_ID>
SCHEMBL16111385

> <PUBCHEM_EXT_DATASOURCE_URL>
https://www.surechembl.org/

> <PUBCHEM_EXT_SUBSTANCE_URL>
https://www.surechembl.org/chemical/SCHEMBL16111385

> <PUBCHEM_CID_ASSOCIATIONS>
117602265  1

> <PUBCHEM_COORDINATE_TYPE>
1
3

$$$$
