310935929
  -OEChem-07211613022D

 34 38  0     1  0  0  0  0  0999 V2000
   -1.4290    2.0625    0.0000 Cl  0  0  0  0  0  0  0  0  0  0  0  0
    3.7576    0.5690    0.0000 F   0  0  0  0  0  0  0  0  0  0  0  0
    0.7846    0.6674    0.0000 N   0  0  0  0  0  0  0  0  0  0  0  0
   -3.5724    1.6500    0.0000 N   0  0  3  0  0  0  0  0  0  0  0  0
    0.7846   -0.6674    0.0000 N   0  0  0  0  0  0  0  0  0  0  0  0
   -4.2868    0.4125    0.0000 N   0  0  0  0  0  0  0  0  0  0  0  0
   -5.7158    2.8875    0.0000 N   0  0  0  0  0  0  0  0  0  0  0  0
   -7.1447    2.0625    0.0000 N   0  0  0  0  0  0  0  0  0  0  0  0
    0.0000    0.4125    0.0000 C   0  0  0  0  0  0  0  0  0  0  0  0
   -1.4290    0.4125    0.0000 C   0  0  0  0  0  0  0  0  0  0  0  0
   -2.1434    0.8250    0.0000 C   0  0  0  0  0  0  0  0  0  0  0  0
    0.0000   -0.4125    0.0000 C   0  0  0  0  0  0  0  0  0  0  0  0
   -0.7144    0.8250    0.0000 C   0  0  0  0  0  0  0  0  0  0  0  0
   -2.1434    1.6500    0.0000 C   0  0  0  0  0  0  0  0  0  0  0  0
   -3.5724    0.8250    0.0000 C   0  0  0  0  0  0  0  0  0  0  0  0
   -2.8579    0.4125    0.0000 C   0  0  0  0  0  0  0  0  0  0  0  0
   -1.4290   -0.4125    0.0000 C   0  0  0  0  0  0  0  0  0  0  0  0
   -0.7144   -0.8250    0.0000 C   0  0  0  0  0  0  0  0  0  0  0  0
   -2.8579    2.0625    0.0000 C   0  0  0  0  0  0  0  0  0  0  0  0
    1.2696    0.0000    0.0000 C   0  0  0  0  0  0  0  0  0  0  0  0
    1.0396    1.4521    0.0000 C   0  0  0  0  0  0  0  0  0  0  0  0
   -4.2868    2.0625    0.0000 C   0  0  3  0  0  0  0  0  0  0  0  0
    1.8465    1.6236    0.0000 C   0  0  0  0  0  0  0  0  0  0  0  0
   -5.0013    1.6500    0.0000 C   0  0  0  0  0  0  0  0  0  0  0  0
   -5.7158    2.0625    0.0000 C   0  0  0  0  0  0  0  0  0  0  0  0
    2.3986    1.0105    0.0000 C   0  0  0  0  0  0  0  0  0  0  0  0
    2.1015    2.4082    0.0000 C   0  0  0  0  0  0  0  0  0  0  0  0
   -4.2868    2.8875    0.0000 C   0  0  0  0  0  0  0  0  0  0  0  0
    3.2055    1.1820    0.0000 C   0  0  0  0  0  0  0  0  0  0  0  0
    2.9084    2.5797    0.0000 C   0  0  0  0  0  0  0  0  0  0  0  0
   -6.4302    1.6500    0.0000 C   0  0  0  0  0  0  0  0  0  0  0  0
    3.4605    1.9666    0.0000 C   0  0  0  0  0  0  0  0  0  0  0  0
   -6.4302    3.3000    0.0000 C   0  0  0  0  0  0  0  0  0  0  0  0
   -7.1447    2.8875    0.0000 C   0  0  0  0  0  0  0  0  0  0  0  0
  1 14  1  0  0  0  0
  2 29  1  0  0  0  0
  3  9  1  0  0  0  0
  3 20  1  0  0  0  0
  3 21  1  0  0  0  0
  4 15  1  0  0  0  0
  4 19  1  0  0  0  0
  4 22  1  0  0  0  0
  5 12  1  0  0  0  0
  5 20  2  0  0  0  0
  6 15  1  0  0  0  0
  7 25  2  0  0  0  0
  7 33  1  0  0  0  0
  8 31  2  0  0  0  0
  8 34  1  0  0  0  0
  9 12  1  0  0  0  0
  9 13  2  0  0  0  0
 10 11  1  0  0  0  0
 10 13  1  0  0  0  0
 10 17  2  0  0  0  0
 11 14  2  0  0  0  0
 11 16  1  0  0  0  0
 12 18  2  0  0  0  0
 14 19  1  0  0  0  0
 15 16  2  0  0  0  0
 17 18  1  0  0  0  0
 21 23  1  0  0  0  0
 22 24  1  0  0  0  0
 22 28  1  0  0  0  0
 23 26  1  0  0  0  0
 23 27  2  0  0  0  0
 24 25  1  0  0  0  0
 25 31  1  0  0  0  0
 26 29  2  0  0  0  0
 27 30  1  0  0  0  0
 29 32  1  0  0  0  0
 30 32  2  0  0  0  0
 33 34  2  0  0  0  0
M  END
> <PUBCHEM_COMPOUND_ID_TYPE>
0

> <PUBCHEM_TOTAL_CHARGE>
0

> <PUBCHEM_SUBSTANCE_ID>
310935929

> <PUBCHEM_SUBSTANCE_VERSION>
1

> <PUBCHEM_EXT_DATASOURCE_NAME>
4488

> <PUBCHEM_EXT_DATASOURCE_REGID>
SCHEMBL16113525

> <PUBCHEM_SUBSTANCE_COMMENT>
InChI=1S/C26H24ClFN6/c1-17(9-21-13-30-7-8-31-21)34-15-23(27)22(12-26(34)29)19-5-6-24-25(11-19)33(16-32-24)14-18-3-2-4-20(28)10-18/h2-8,10-13,16-17H,9,14-15,29H2,1H3
InChIKey=CZUKILKTIPBRGR-UHFFFAOYSA-N

> <PUBCHEM_SUBSTANCE_SYNONYM>
SCHEMBL16113525

> <PUBCHEM_XREF_EXT_ID>
SCHEMBL16113525

> <PUBCHEM_EXT_DATASOURCE_URL>
https://www.surechembl.org/

> <PUBCHEM_EXT_SUBSTANCE_URL>
https://www.surechembl.org/chemical/SCHEMBL16113525

> <PUBCHEM_CID_ASSOCIATIONS>
117603913  1

> <PUBCHEM_COORDINATE_TYPE>
1
3

$$$$
