310936078
  -OEChem-07211613022D

 21 22  0     1  0  0  0  0  0999 V2000
    2.8590   -3.7213    0.0000 Cl  0  0  0  0  0  0  0  0  0  0  0  0
    4.2886   -4.5381    0.0000 Cl  0  0  0  0  0  0  0  0  0  0  0  0
    0.7034   -0.8169    0.0000 S   0  0  0  0  0  0  0  0  0  0  0  0
    3.5624    0.0000    0.0000 O   0  0  0  0  0  0  0  0  0  0  0  0
    5.6954   -1.2480    0.0000 N   0  0  0  0  0  0  0  0  0  0  0  0
    4.2886   -1.2480    0.0000 C   0  0  3  0  0  0  0  0  0  0  0  0
    4.2886   -2.0648    0.0000 C   0  0  0  0  0  0  0  0  0  0  0  0
    3.5624   -0.8169    0.0000 C   0  0  3  0  0  0  0  0  0  0  0  0
    2.8590   -1.2480    0.0000 C   0  0  0  0  0  0  0  0  0  0  0  0
    3.5624   -2.4733    0.0000 C   0  0  0  0  0  0  0  0  0  0  0  0
    3.5624   -3.2902    0.0000 C   0  0  0  0  0  0  0  0  0  0  0  0
    4.9920   -2.4733    0.0000 C   0  0  0  0  0  0  0  0  0  0  0  0
    4.2886   -3.7213    0.0000 C   0  0  0  0  0  0  0  0  0  0  0  0
    2.1329   -0.8396    0.0000 C   0  0  0  0  0  0  0  0  0  0  0  0
    4.9920   -3.2902    0.0000 C   0  0  0  0  0  0  0  0  0  0  0  0
    4.9920   -0.8169    0.0000 C   0  0  0  0  0  0  0  0  0  0  0  0
    2.8363   -2.0648    0.0000 C   0  0  0  0  0  0  0  0  0  0  0  0
    1.4295   -1.2480    0.0000 C   0  0  0  0  0  0  0  0  0  0  0  0
    2.1329   -2.4733    0.0000 C   0  0  0  0  0  0  0  0  0  0  0  0
    1.4068   -2.0648    0.0000 C   0  0  0  0  0  0  0  0  0  0  0  0
    0.0000   -1.2480    0.0000 C   0  0  0  0  0  0  0  0  0  0  0  0
  1 11  1  0  0  0  0
  2 13  1  0  0  0  0
  3 18  1  0  0  0  0
  3 21  1  0  0  0  0
  4  8  1  0  0  0  0
  5 16  1  0  0  0  0
  6  7  1  0  0  0  0
  6  8  1  0  0  0  0
  6 16  1  0  0  0  0
  7 10  1  0  0  0  0
  7 12  2  0  0  0  0
  8  9  1  0  0  0  0
  9 14  1  0  0  0  0
  9 17  2  0  0  0  0
 10 11  2  0  0  0  0
 11 13  1  0  0  0  0
 12 15  1  0  0  0  0
 13 15  2  0  0  0  0
 14 18  2  0  0  0  0
 17 19  1  0  0  0  0
 18 20  1  0  0  0  0
 19 20  2  0  0  0  0
M  END
> <PUBCHEM_COMPOUND_ID_TYPE>
0

> <PUBCHEM_TOTAL_CHARGE>
0

> <PUBCHEM_SUBSTANCE_ID>
310936078

> <PUBCHEM_SUBSTANCE_VERSION>
1

> <PUBCHEM_EXT_DATASOURCE_NAME>
4488

> <PUBCHEM_EXT_DATASOURCE_REGID>
SCHEMBL16113684

> <PUBCHEM_SUBSTANCE_COMMENT>
InChI=1S/C16H17Cl2NOS/c1-21-12-4-2-3-11(7-12)16(20)13(9-19)10-5-6-14(17)15(18)8-10/h2-8,13,16,20H,9,19H2,1H3
InChIKey=MURORFPRKUJNKF-UHFFFAOYSA-N

> <PUBCHEM_SUBSTANCE_SYNONYM>
SCHEMBL16113684

> <PUBCHEM_XREF_EXT_ID>
SCHEMBL16113684

> <PUBCHEM_EXT_DATASOURCE_URL>
https://www.surechembl.org/

> <PUBCHEM_EXT_SUBSTANCE_URL>
https://www.surechembl.org/chemical/SCHEMBL16113684

> <PUBCHEM_CID_ASSOCIATIONS>
117604044  1

> <PUBCHEM_COORDINATE_TYPE>
1
3

$$$$
