310946570
  -OEChem-07211613022D

 21 20  0     1  0  0  0  0  0999 V2000
   -9.0817   -2.1626    0.0000 O   0  0  0  0  0  0  0  0  0  0  0  0
   -5.7007   -1.0357    0.0000 O   0  0  0  0  0  0  0  0  0  0  0  0
   -7.8442   -2.8771    0.0000 O   0  0  0  0  0  0  0  0  0  0  0  0
   -4.9863   -2.2732    0.0000 O   0  0  0  0  0  0  0  0  0  0  0  0
   -7.8442   -1.4482    0.0000 N   0  0  0  0  0  0  0  0  0  0  0  0
   -7.1297   -1.0357    0.0000 C   0  0  3  0  0  0  0  0  0  0  0  0
   -8.2567   -2.1626    0.0000 C   0  0  0  0  0  0  0  0  0  0  0  0
   -9.4942   -2.8771    0.0000 C   0  0  0  0  0  0  0  0  0  0  0  0
   -6.4152   -1.4482    0.0000 C   0  0  0  0  0  0  0  0  0  0  0  0
   -7.1297   -0.2107    0.0000 C   0  0  0  0  0  0  0  0  0  0  0  0
   -4.9863   -1.4482    0.0000 C   0  0  0  0  0  0  0  0  0  0  0  0
   -6.5463    0.3727    0.0000 C   0  0  0  0  0  0  0  0  0  0  0  0
  -10.3192   -2.8771    0.0000 C   0  0  0  0  0  0  0  0  0  0  0  0
   -9.0817   -3.5916    0.0000 C   0  0  0  0  0  0  0  0  0  0  0  0
   -9.9067   -2.1626    0.0000 C   0  0  0  0  0  0  0  0  0  0  0  0
   -4.2718   -1.0357    0.0000 C   0  0  0  0  0  0  0  0  0  0  0  0
   -6.7599    1.1696    0.0000 C   0  0  0  0  0  0  0  0  0  0  0  0
   -5.7494    0.1592    0.0000 C   0  0  0  0  0  0  0  0  0  0  0  0
   -3.5573   -1.4482    0.0000 C   0  0  0  0  0  0  0  0  0  0  0  0
   -2.8429   -1.0357    0.0000 C   0  0  0  0  0  0  0  0  0  0  0  0
   -2.1284   -1.4482    0.0000 C   0  0  0  0  0  0  0  0  0  0  0  0
  1  7  1  0  0  0  0
  1  8  1  0  0  0  0
  2  9  1  0  0  0  0
  2 11  1  0  0  0  0
  3  7  2  0  0  0  0
  4 11  2  0  0  0  0
  5  6  1  0  0  0  0
  5  7  1  0  0  0  0
  6  9  1  0  0  0  0
  6 10  1  0  0  0  0
  8 13  1  0  0  0  0
  8 14  1  0  0  0  0
  8 15  1  0  0  0  0
 10 12  1  0  0  0  0
 11 16  1  0  0  0  0
 12 17  1  0  0  0  0
 12 18  1  0  0  0  0
 16 19  1  0  0  0  0
 19 20  1  0  0  0  0
 20 21  1  0  0  0  0
M  END
> <PUBCHEM_COMPOUND_ID_TYPE>
0

> <PUBCHEM_TOTAL_CHARGE>
0

> <PUBCHEM_SUBSTANCE_ID>
310946570

> <PUBCHEM_SUBSTANCE_VERSION>
1

> <PUBCHEM_EXT_DATASOURCE_NAME>
4488

> <PUBCHEM_EXT_DATASOURCE_REGID>
SCHEMBL16124691

> <PUBCHEM_SUBSTANCE_COMMENT>
InChI=1S/C16H31NO4/c1-7-8-9-14(18)20-11-13(10-12(2)3)17-15(19)21-16(4,5)6/h12-13H,7-11H2,1-6H3,(H,17,19)
InChIKey=ZKRMXLNFVQZHMS-UHFFFAOYSA-N

> <PUBCHEM_SUBSTANCE_SYNONYM>
SCHEMBL16124691

> <PUBCHEM_XREF_EXT_ID>
SCHEMBL16124691

> <PUBCHEM_EXT_DATASOURCE_URL>
https://www.surechembl.org/

> <PUBCHEM_EXT_SUBSTANCE_URL>
https://www.surechembl.org/chemical/SCHEMBL16124691

> <PUBCHEM_CID_ASSOCIATIONS>
117612472  1

> <PUBCHEM_COORDINATE_TYPE>
1
3

$$$$
