310931551
  -OEChem-07211613022D

 51 55  0     1  0  0  0  0  0999 V2000
   13.5749    2.6411    0.0000 Cl  0  0  0  0  0  0  0  0  0  0  0  0
   12.1460    1.8161    0.0000 Cl  0  0  0  0  0  0  0  0  0  0  0  0
    7.1447    3.8786    0.0000 S   0  0  0  0  0  0  0  0  0  0  0  0
    5.7628    2.1562    0.0000 S   0  0  0  0  0  0  0  0  0  0  0  0
    7.1447    5.5286    0.0000 F   0  0  0  0  0  0  0  0  0  0  0  0
   10.0026    3.8786    0.0000 F   0  0  0  0  0  0  0  0  0  0  0  0
    6.7322    4.5930    0.0000 O   0  0  0  0  0  0  0  0  0  0  0  0
    7.5572    3.1641    0.0000 O   0  0  0  0  0  0  0  0  0  0  0  0
   10.0026    5.5286    0.0000 O   0  0  0  0  0  0  0  0  0  0  0  0
    2.8579    3.8786    0.0000 O   0  0  0  0  0  0  0  0  0  0  0  0
   11.4315    8.0036    0.0000 O   0  0  0  0  0  0  0  0  0  0  0  0
    2.8579    2.2286    0.0000 O   0  0  0  0  0  0  0  0  0  0  0  0
   12.8605    8.0036    0.0000 O   0  0  0  0  0  0  0  0  0  0  0  0
    6.4302    3.4661    0.0000 N   0  0  0  0  0  0  0  0  0  0  0  0
    7.0977    2.1562    0.0000 N   0  0  0  0  0  0  0  0  0  0  0  0
    6.0177    1.3715    0.0000 N   0  0  0  0  0  0  0  0  0  0  0  0
   12.1460    6.7661    0.0000 N   0  0  0  0  0  0  0  0  0  0  0  0
    7.8592    4.2911    0.0000 C   0  0  0  0  0  0  0  0  0  0  0  0
    7.8592    5.1161    0.0000 C   0  0  0  0  0  0  0  0  0  0  0  0
    6.4302    2.6411    0.0000 C   0  0  0  0  0  0  0  0  0  0  0  0
    8.5737    3.8786    0.0000 C   0  0  0  0  0  0  0  0  0  0  0  0
    9.2881    5.1161    0.0000 C   0  0  0  0  0  0  0  0  0  0  0  0
    9.2881    4.2911    0.0000 C   0  0  0  0  0  0  0  0  0  0  0  0
    5.7158    3.8786    0.0000 C   0  0  0  0  0  0  0  0  0  0  0  0
    8.5737    5.5286    0.0000 C   0  0  0  0  0  0  0  0  0  0  0  0
    5.0013    3.4661    0.0000 C   0  0  0  0  0  0  0  0  0  0  0  0
   11.4315    5.5286    0.0000 C   0  0  3  0  0  0  0  0  0  0  0  0
   12.1460    5.1161    0.0000 C   0  0  3  0  0  0  0  0  0  0  0  0
   10.7171    5.1161    0.0000 C   0  0  0  0  0  0  0  0  0  0  0  0
   12.1460    4.2911    0.0000 C   0  0  0  0  0  0  0  0  0  0  0  0
    4.2868    3.8786    0.0000 C   0  0  0  0  0  0  0  0  0  0  0  0
    6.8427    1.3715    0.0000 C   0  0  0  0  0  0  0  0  0  0  0  0
   11.4315    6.3536    0.0000 C   0  0  0  0  0  0  0  0  0  0  0  0
    5.0013    2.6411    0.0000 C   0  0  0  0  0  0  0  0  0  0  0  0
    3.5724    3.4661    0.0000 C   0  0  0  0  0  0  0  0  0  0  0  0
   12.8605    5.5286    0.0000 C   0  0  0  0  0  0  0  0  0  0  0  0
    3.5724    2.6411    0.0000 C   0  0  0  0  0  0  0  0  0  0  0  0
   12.8605    6.3536    0.0000 C   0  0  0  0  0  0  0  0  0  0  0  0
    4.2868    2.2286    0.0000 C   0  0  0  0  0  0  0  0  0  0  0  0
   12.8605    3.8786    0.0000 C   0  0  0  0  0  0  0  0  0  0  0  0
   12.1460    7.5911    0.0000 C   0  0  0  0  0  0  0  0  0  0  0  0
   11.4315    3.8786    0.0000 C   0  0  0  0  0  0  0  0  0  0  0  0
   12.8605    3.0536    0.0000 C   0  0  0  0  0  0  0  0  0  0  0  0
   12.1460    2.6411    0.0000 C   0  0  0  0  0  0  0  0  0  0  0  0
   11.4315    3.0536    0.0000 C   0  0  0  0  0  0  0  0  0  0  0  0
   11.4315    8.8286    0.0000 C   0  0  0  0  0  0  0  0  0  0  0  0
    2.8579    4.7036    0.0000 C   0  0  0  0  0  0  0  0  0  0  0  0
    2.8579    1.4036    0.0000 C   0  0  0  0  0  0  0  0  0  0  0  0
   12.2565    8.8286    0.0000 C   0  0  0  0  0  0  0  0  0  0  0  0
   10.6065    8.8286    0.0000 C   0  0  0  0  0  0  0  0  0  0  0  0
   11.4315    9.6536    0.0000 C   0  0  0  0  0  0  0  0  0  0  0  0
  1 43  1  0  0  0  0
  2 44  1  0  0  0  0
  3  7  2  0  0  0  0
  3  8  2  0  0  0  0
  3 14  1  0  0  0  0
  3 18  1  0  0  0  0
  4 16  1  0  0  0  0
  4 20  1  0  0  0  0
  5 19  1  0  0  0  0
  6 23  1  0  0  0  0
  9 22  1  0  0  0  0
  9 29  1  0  0  0  0
 10 35  1  0  0  0  0
 10 47  1  0  0  0  0
 11 41  1  0  0  0  0
 11 46  1  0  0  0  0
 12 37  1  0  0  0  0
 12 48  1  0  0  0  0
 13 41  2  0  0  0  0
 14 20  1  0  0  0  0
 14 24  1  0  0  0  0
 15 20  2  0  0  0  0
 15 32  1  0  0  0  0
 16 32  2  0  0  0  0
 17 33  1  0  0  0  0
 17 38  1  0  0  0  0
 17 41  1  0  0  0  0
 18 19  1  0  0  0  0
 18 21  2  0  0  0  0
 19 25  2  0  0  0  0
 21 23  1  0  0  0  0
 22 23  2  0  0  0  0
 22 25  1  0  0  0  0
 24 26  1  0  0  0  0
 26 31  2  0  0  0  0
 26 34  1  0  0  0  0
 27 28  1  0  0  0  0
 27 29  1  0  0  0  0
 27 33  1  0  0  0  0
 28 30  1  0  0  0  0
 28 36  1  0  0  0  0
 30 40  2  0  0  0  0
 30 42  1  0  0  0  0
 31 35  1  0  0  0  0
 34 39  2  0  0  0  0
 35 37  2  0  0  0  0
 36 38  1  0  0  0  0
 37 39  1  0  0  0  0
 40 43  1  0  0  0  0
 42 45  2  0  0  0  0
 43 44  2  0  0  0  0
 44 45  1  0  0  0  0
 46 49  1  0  0  0  0
 46 50  1  0  0  0  0
 46 51  1  0  0  0  0
M  END
> <PUBCHEM_COMPOUND_ID_TYPE>
0

> <PUBCHEM_TOTAL_CHARGE>
0

> <PUBCHEM_SUBSTANCE_ID>
310931551

> <PUBCHEM_SUBSTANCE_VERSION>
1

> <PUBCHEM_EXT_DATASOURCE_NAME>
4488

> <PUBCHEM_EXT_DATASOURCE_REGID>
SCHEMBL16108877

> <PUBCHEM_SUBSTANCE_COMMENT>
InChI=1S/C34H36Cl2F2N4O7S2/c1-34(2,3)49-33(43)41-11-10-23(21-7-8-24(35)25(36)13-21)22(17-41)18-48-29-14-27(38)31(15-26(29)37)51(44,45)42(32-39-19-40-50-32)16-20-6-9-28(46-4)30(12-20)47-5/h6-9,12-15,19,22-23H,10-11,16-18H2,1-5H3
InChIKey=AWDXCKYSSGIVIQ-UHFFFAOYSA-N

> <PUBCHEM_SUBSTANCE_SYNONYM>
SCHEMBL16108877

> <PUBCHEM_XREF_EXT_ID>
SCHEMBL16108877

> <PUBCHEM_EXT_DATASOURCE_URL>
https://www.surechembl.org/

> <PUBCHEM_EXT_SUBSTANCE_URL>
https://www.surechembl.org/chemical/SCHEMBL16108877

> <PUBCHEM_CID_ASSOCIATIONS>
117600299  1

> <PUBCHEM_COORDINATE_TYPE>
1
3

$$$$
