310947030
  -OEChem-07211613022D

 17 18  0     1  0  0  0  0  0999 V2000
   -3.1115   -0.0563    0.0000 Br  0  0  0  0  0  0  0  0  0  0  0  0
    1.9869   -1.5932    0.0000 S   0  0  0  0  0  0  0  0  0  0  0  0
    0.7685    1.1434    0.0000 O   0  0  0  0  0  0  0  0  0  0  0  0
    0.9747   -0.2812    0.0000 N   0  0  0  0  0  0  0  0  0  0  0  0
   -0.3562    0.2812    0.0000 C   0  0  0  0  0  0  0  0  0  0  0  0
    0.4499    0.3749    0.0000 C   0  0  0  0  0  0  0  0  0  0  0  0
   -0.8810    0.9184    0.0000 C   0  0  0  0  0  0  0  0  0  0  0  0
   -0.6561   -0.4874    0.0000 C   0  0  0  0  0  0  0  0  0  0  0  0
    1.7807   -0.1687    0.0000 C   0  0  0  0  0  0  0  0  0  0  0  0
    0.6748   -1.0684    0.0000 C   0  0  0  0  0  0  0  0  0  0  0  0
   -1.6682    0.7873    0.0000 C   0  0  0  0  0  0  0  0  0  0  0  0
    2.2868   -0.8060    0.0000 C   0  0  3  0  0  0  0  0  0  0  0  0
   -1.9869    0.0375    0.0000 C   0  0  0  0  0  0  0  0  0  0  0  0
   -1.4808   -0.5998    0.0000 C   0  0  0  0  0  0  0  0  0  0  0  0
    1.1622   -1.6870    0.0000 C   0  0  0  0  0  0  0  0  0  0  0  0
   -0.5436    1.6870    0.0000 C   0  0  0  0  0  0  0  0  0  0  0  0
    3.1115   -0.6935    0.0000 C   0  0  0  0  0  0  0  0  0  0  0  0
  1 13  1  0  0  0  0
  2 12  1  0  0  0  0
  2 15  1  0  0  0  0
  3  6  2  0  0  0  0
  4  6  1  0  0  0  0
  4  9  1  0  0  0  0
  4 10  1  0  0  0  0
  5  6  1  0  0  0  0
  5  7  1  0  0  0  0
  5  8  2  0  0  0  0
  7 11  2  0  0  0  0
  7 16  1  0  0  0  0
  8 14  1  0  0  0  0
  9 12  1  0  0  0  0
 10 15  1  0  0  0  0
 11 13  1  0  0  0  0
 12 17  1  0  0  0  0
 13 14  2  0  0  0  0
M  END
> <PUBCHEM_COMPOUND_ID_TYPE>
0

> <PUBCHEM_TOTAL_CHARGE>
0

> <PUBCHEM_SUBSTANCE_ID>
310947030

> <PUBCHEM_SUBSTANCE_VERSION>
1

> <PUBCHEM_EXT_DATASOURCE_NAME>
4488

> <PUBCHEM_EXT_DATASOURCE_REGID>
SCHEMBL16125183

> <PUBCHEM_SUBSTANCE_COMMENT>
InChI=1S/C13H16BrNOS/c1-9-7-11(14)3-4-12(9)13(16)15-5-6-17-10(2)8-15/h3-4,7,10H,5-6,8H2,1-2H3
InChIKey=YHEMNMRKGDXKGX-UHFFFAOYSA-N

> <PUBCHEM_SUBSTANCE_SYNONYM>
SCHEMBL16125183

> <PUBCHEM_XREF_EXT_ID>
SCHEMBL16125183

> <PUBCHEM_EXT_DATASOURCE_URL>
https://www.surechembl.org/

> <PUBCHEM_EXT_SUBSTANCE_URL>
https://www.surechembl.org/chemical/SCHEMBL16125183

> <PUBCHEM_CID_ASSOCIATIONS>
117612881  1

> <PUBCHEM_COORDINATE_TYPE>
1
3

$$$$
