310946283
  -OEChem-07211613022D

 24 26  0     1  0  0  0  0  0999 V2000
    3.2968  -12.6104    0.0000 S   0  0  0  0  0  0  0  0  0  0  0  0
    2.4718  -12.6104    0.0000 O   0  0  0  0  0  0  0  0  0  0  0  0
    0.2179  -12.6104    0.0000 O   0  0  0  0  0  0  0  0  0  0  0  0
   -1.5130   -9.8335    0.0000 O   0  0  0  0  0  0  0  0  0  0  0  0
   -0.0841   -9.0085    0.0000 O   0  0  0  0  0  0  0  0  0  0  0  0
    3.7093  -11.8960    0.0000 O   0  0  0  0  0  0  0  0  0  0  0  0
    3.7093  -13.3249    0.0000 O   0  0  0  0  0  0  0  0  0  0  0  0
    4.1218  -12.6104    0.0000 O   0  0  0  0  0  0  0  0  0  0  0  0
    0.6304  -11.0710    0.0000 N   0  0  0  0  0  0  0  0  0  0  0  0
    2.0593  -11.8960    0.0000 N   0  0  0  0  0  0  0  0  0  0  0  0
   -0.7985  -10.2460    0.0000 N   0  0  0  0  0  0  0  0  0  0  0  0
   -3.4369   -9.3180    0.0000 N   0  0  0  0  0  0  0  0  0  0  0  0
    0.6304  -11.8960    0.0000 C   0  0  0  0  0  0  0  0  0  0  0  0
    2.0593  -11.0710    0.0000 C   0  0  3  0  0  0  0  0  0  0  0  0
    0.6304  -10.2460    0.0000 C   0  0  3  0  0  0  0  0  0  0  0  0
    1.3449  -11.4835    0.0000 C   0  0  0  0  0  0  0  0  0  0  0  0
    2.0593  -10.2460    0.0000 C   0  0  0  0  0  0  0  0  0  0  0  0
    1.3449   -9.8335    0.0000 C   0  0  0  0  0  0  0  0  0  0  0  0
   -0.0841   -9.8335    0.0000 C   0  0  0  0  0  0  0  0  0  0  0  0
   -2.2275  -10.2460    0.0000 C   0  0  3  0  0  0  0  0  0  0  0  0
   -3.0244  -10.0324    0.0000 C   0  0  3  0  0  0  0  0  0  0  0  0
   -2.4410  -11.0429    0.0000 C   0  0  0  0  0  0  0  0  0  0  0  0
   -3.2379  -10.8293    0.0000 C   0  0  0  0  0  0  0  0  0  0  0  0
   -3.0244   -8.6035    0.0000 C   0  0  0  0  0  0  0  0  0  0  0  0
  1  2  1  0  0  0  0
  1  6  2  0  0  0  0
  1  7  2  0  0  0  0
  1  8  1  0  0  0  0
  2 10  1  0  0  0  0
  3 13  2  0  0  0  0
  4 11  1  0  0  0  0
  4 20  1  0  0  0  0
  5 19  2  0  0  0  0
  9 13  1  0  0  0  0
  9 15  1  0  0  0  0
  9 16  1  0  0  0  0
 10 13  1  0  0  0  0
 10 14  1  0  0  0  0
 11 19  1  0  0  0  0
 12 21  1  0  0  0  0
 12 24  1  0  0  0  0
 14 16  1  6  0  0  0
 14 17  1  0  0  0  0
 15 18  1  0  0  0  0
 15 19  1  6  0  0  0
 17 18  1  0  0  0  0
 20 21  1  0  0  0  0
 20 22  1  0  0  0  0
 21 23  1  0  0  0  0
 22 23  1  0  0  0  0
M  END
> <PUBCHEM_COMPOUND_ID_TYPE>
0

> <PUBCHEM_TOTAL_CHARGE>
0

> <PUBCHEM_SUBSTANCE_ID>
310946283

> <PUBCHEM_SUBSTANCE_VERSION>
1

> <PUBCHEM_EXT_DATASOURCE_NAME>
4488

> <PUBCHEM_EXT_DATASOURCE_REGID>
SCHEMBL16124401

> <PUBCHEM_SUBSTANCE_COMMENT>
InChI=1S/C12H20N4O7S/c1-13-8-3-5-10(8)22-14-11(17)9-4-2-7-6-15(9)12(18)16(7)23-24(19,20)21/h7-10,13H,2-6H2,1H3,(H,14,17)(H,19,20,21)/t7-,8?,9+,10?/m1/s1
InChIKey=BZOQONMIGZBERI-RJQCTPFPSA-N

> <PUBCHEM_SUBSTANCE_SYNONYM>
SCHEMBL16124401

> <PUBCHEM_XREF_EXT_ID>
SCHEMBL16124401

> <PUBCHEM_EXT_DATASOURCE_URL>
https://www.surechembl.org/

> <PUBCHEM_EXT_SUBSTANCE_URL>
https://www.surechembl.org/chemical/SCHEMBL16124401

> <PUBCHEM_CID_ASSOCIATIONS>
117612231  1

> <PUBCHEM_COORDINATE_TYPE>
1
3

> <PUBCHEM_BONDANNOTATIONS>
14  16  6
15  19  6

$$$$
