310947220
  -OEChem-07211613022D

 26 27  0     1  0  0  0  0  0999 V2000
   -0.0197  -12.4796    0.0000 F   0  0  0  0  0  0  0  0  0  0  0  0
   -0.6603  -10.0889    0.0000 F   0  0  0  0  0  0  0  0  0  0  0  0
    0.3501  -11.0993    0.0000 F   0  0  0  0  0  0  0  0  0  0  0  0
    0.1366  -10.3024    0.0000 F   0  0  0  0  0  0  0  0  0  0  0  0
   -2.0406  -10.4587    0.0000 O   0  0  0  0  0  0  0  0  0  0  0  0
   -1.6714  -14.3137    0.0000 N   0  0  0  0  0  0  0  0  0  0  0  0
   -1.1865  -14.9812    0.0000 N   0  0  0  0  0  0  0  0  0  0  0  0
    1.0271  -13.9012    0.0000 N   0  0  3  0  0  0  0  0  0  0  0  0
   -1.0302  -11.4691    0.0000 C   0  0  0  0  0  0  0  0  0  0  0  0
   -1.4000  -12.8494    0.0000 C   0  0  0  0  0  0  0  0  0  0  0  0
   -0.8166  -12.2660    0.0000 C   0  0  0  0  0  0  0  0  0  0  0  0
   -1.8270  -11.2556    0.0000 C   0  0  0  0  0  0  0  0  0  0  0  0
   -1.1865  -13.6463    0.0000 C   0  0  0  0  0  0  0  0  0  0  0  0
   -0.4468  -10.8858    0.0000 C   0  0  0  0  0  0  0  0  0  0  0  0
   -0.4019  -13.9012    0.0000 C   0  0  0  0  0  0  0  0  0  0  0  0
   -2.1969  -12.6359    0.0000 C   0  0  0  0  0  0  0  0  0  0  0  0
   -2.4104  -11.8390    0.0000 C   0  0  0  0  0  0  0  0  0  0  0  0
   -0.4019  -14.7262    0.0000 C   0  0  0  0  0  0  0  0  0  0  0  0
    0.3126  -13.4887    0.0000 C   0  0  0  0  0  0  0  0  0  0  0  0
   -2.8375  -10.2452    0.0000 C   0  0  0  0  0  0  0  0  0  0  0  0
    1.7416  -13.4887    0.0000 C   0  0  0  0  0  0  0  0  0  0  0  0
   -3.4208  -10.8286    0.0000 C   0  0  0  0  0  0  0  0  0  0  0  0
   -3.0510   -9.4483    0.0000 C   0  0  0  0  0  0  0  0  0  0  0  0
    1.0271  -14.7262    0.0000 C   0  0  0  0  0  0  0  0  0  0  0  0
    2.4560  -13.9012    0.0000 C   0  0  0  0  0  0  0  0  0  0  0  0
    3.1705  -13.4887    0.0000 C   0  0  0  0  0  0  0  0  0  0  0  0
  1 11  1  0  0  0  0
  2 14  1  0  0  0  0
  3 14  1  0  0  0  0
  4 14  1  0  0  0  0
  5 12  1  0  0  0  0
  5 20  1  0  0  0  0
  6  7  1  0  0  0  0
  6 13  2  0  0  0  0
  7 18  1  0  0  0  0
  8 19  1  0  0  0  0
  8 21  1  0  0  0  0
  8 24  1  0  0  0  0
  9 11  2  0  0  0  0
  9 12  1  0  0  0  0
  9 14  1  0  0  0  0
 10 11  1  0  0  0  0
 10 13  1  0  0  0  0
 10 16  2  0  0  0  0
 12 17  2  0  0  0  0
 13 15  1  0  0  0  0
 15 18  2  0  0  0  0
 15 19  1  0  0  0  0
 16 17  1  0  0  0  0
 20 22  1  0  0  0  0
 20 23  1  0  0  0  0
 21 25  1  0  0  0  0
 25 26  1  0  0  0  0
M  END
> <PUBCHEM_COMPOUND_ID_TYPE>
0

> <PUBCHEM_TOTAL_CHARGE>
0

> <PUBCHEM_SUBSTANCE_ID>
310947220

> <PUBCHEM_SUBSTANCE_VERSION>
1

> <PUBCHEM_EXT_DATASOURCE_NAME>
4488

> <PUBCHEM_EXT_DATASOURCE_REGID>
SCHEMBL16125375

> <PUBCHEM_SUBSTANCE_COMMENT>
InChI=1S/C18H23F4N3O/c1-5-8-25(4)10-12-9-23-24-17(12)13-6-7-14(26-11(2)3)15(16(13)19)18(20,21)22/h6-7,9,11H,5,8,10H2,1-4H3,(H,23,24)
InChIKey=MKFCKMZLSGMXNJ-UHFFFAOYSA-N

> <PUBCHEM_SUBSTANCE_SYNONYM>
SCHEMBL16125375

> <PUBCHEM_XREF_EXT_ID>
SCHEMBL16125375

> <PUBCHEM_EXT_DATASOURCE_URL>
https://www.surechembl.org/

> <PUBCHEM_EXT_SUBSTANCE_URL>
https://www.surechembl.org/chemical/SCHEMBL16125375

> <PUBCHEM_CID_ASSOCIATIONS>
117613035  1

> <PUBCHEM_COORDINATE_TYPE>
1
3

$$$$
