310946878
  -OEChem-07211613022D

 43 46  0     1  0  0  0  0  0999 V2000
   -0.0100    2.6482    0.0000 F   0  0  0  0  0  0  0  0  0  0  0  0
   -1.4393    5.1495    0.0000 F   0  0  0  0  0  0  0  0  0  0  0  0
    1.8176   -2.6097    0.0000 O   0  0  0  0  0  0  0  0  0  0  0  0
   -2.0825   -0.8332    0.0000 O   0  0  0  0  0  0  0  0  0  0  0  0
    1.4194    5.1597    0.0000 O   0  0  0  0  0  0  0  0  0  0  0  0
    0.8578   -1.2825    0.0000 N   0  0  0  0  0  0  0  0  0  0  0  0
   -0.9084   -0.0267    0.0000 N   0  0  0  0  0  0  0  0  0  0  0  0
    0.2350    0.7901    0.0000 N   0  0  0  0  0  0  0  0  0  0  0  0
   -0.7757   -1.4356    0.0000 N   0  0  0  0  0  0  0  0  0  0  0  0
    1.5419    0.2184    0.0000 N   0  0  0  0  0  0  0  0  0  0  0  0
   -1.4495    2.6482    0.0000 N   0  0  0  0  0  0  0  0  0  0  0  0
   -0.7859    2.1581    0.0000 N   0  0  0  0  0  0  0  0  0  0  0  0
    1.9503    0.9126    0.0000 N   0  0  0  0  0  0  0  0  0  0  0  0
   -1.9498   -2.2728    0.0000 N   0  0  0  0  0  0  0  0  0  0  0  0
   -2.5220   -3.3746    0.0000 N   0  0  0  0  0  0  0  0  0  0  0  0
   -2.5537   -4.2774    0.0000 N   0  3  0  0  0  0  0  0  0  0  0  0
   -2.5853   -5.1802    0.0000 N   0  5  0  0  0  0  0  0  0  0  0  0
    0.3780   -0.5780    0.0000 C   0  0  0  0  0  0  0  0  0  0  0  0
   -0.4489   -0.6494    0.0000 C   0  0  0  0  0  0  0  0  0  0  0  0
   -0.5612    0.7390    0.0000 C   0  0  3  0  0  0  0  0  0  0  0  0
    0.7047    0.1673    0.0000 C   0  0  0  0  0  0  0  0  0  0  0  0
   -1.0513    1.4027    0.0000 C   0  0  3  0  0  0  0  0  0  0  0  0
   -1.8987    1.4027    0.0000 C   0  0  0  0  0  0  0  0  0  0  0  0
   -2.1233    2.1888    0.0000 C   0  0  0  0  0  0  0  0  0  0  0  0
    0.5210   -2.0073    0.0000 C   0  0  0  0  0  0  0  0  0  0  0  0
    1.6848   -1.1804    0.0000 C   0  0  0  0  0  0  0  0  0  0  0  0
   -2.4398    0.7901    0.0000 C   0  0  0  0  0  0  0  0  0  0  0  0
   -1.5924   -1.4968    0.0000 C   0  0  0  0  0  0  0  0  0  0  0  0
   -0.7450    3.9244    0.0000 C   0  0  0  0  0  0  0  0  0  0  0  0
   -2.9605    2.3420    0.0000 C   0  0  0  0  0  0  0  0  0  0  0  0
   -1.4495    3.5365    0.0000 C   0  0  0  0  0  0  0  0  0  0  0  0
   -0.0202    3.4956    0.0000 C   0  0  0  0  0  0  0  0  0  0  0  0
   -0.7450    4.7412    0.0000 C   0  0  0  0  0  0  0  0  0  0  0  0
    0.9804   -2.6709    0.0000 C   0  0  0  0  0  0  0  0  0  0  0  0
    2.1544   -1.8337    0.0000 C   0  0  0  0  0  0  0  0  0  0  0  0
   -3.2464    0.9432    0.0000 C   0  0  0  0  0  0  0  0  0  0  0  0
   -3.4608    1.7600    0.0000 C   0  0  0  0  0  0  0  0  0  0  0  0
    0.6945    4.7616    0.0000 C   0  0  0  0  0  0  0  0  0  0  0  0
    0.6945    3.9142    0.0000 C   0  0  0  0  0  0  0  0  0  0  0  0
   -0.0202    5.1393    0.0000 C   0  0  0  0  0  0  0  0  0  0  0  0
   -2.7767   -2.3238    0.0000 C   0  0  0  0  0  0  0  0  0  0  0  0
   -3.1239   -3.0895    0.0000 C   0  0  0  0  0  0  0  0  0  0  0  0
    2.1544    4.7820    0.0000 C   0  0  0  0  0  0  0  0  0  0  0  0
  1 32  1  0  0  0  0
  2 33  1  0  0  0  0
  3 34  1  0  0  0  0
  3 35  1  0  0  0  0
  4 28  2  0  0  0  0
  5 38  1  0  0  0  0
  5 43  1  0  0  0  0
  6 18  1  0  0  0  0
  6 25  1  0  0  0  0
  6 26  1  0  0  0  0
  7 19  1  0  0  0  0
  7 20  1  0  0  0  0
  8 20  1  0  0  0  0
  8 21  2  0  0  0  0
  9 19  1  0  0  0  0
  9 28  1  0  0  0  0
 10 13  1  0  0  0  0
 10 21  1  0  0  0  0
 11 24  1  0  0  0  0
 11 31  1  0  0  0  0
 12 22  1  0  0  0  0
 14 28  1  0  0  0  0
 14 41  1  0  0  0  0
 15 16  2  0  0  0  0
 15 42  1  0  0  0  0
 16 17  2  0  0  0  0
 18 19  2  0  0  0  0
 18 21  1  0  0  0  0
 20 22  1  0  0  0  0
 22 23  1  0  0  0  0
 23 24  2  0  0  0  0
 23 27  1  0  0  0  0
 24 30  1  0  0  0  0
 25 34  1  0  0  0  0
 26 35  1  0  0  0  0
 27 36  2  0  0  0  0
 29 31  1  0  0  0  0
 29 32  2  0  0  0  0
 29 33  1  0  0  0  0
 30 37  1  0  0  0  0
 32 39  1  0  0  0  0
 33 40  2  0  0  0  0
 36 37  1  0  0  0  0
 38 39  2  0  0  0  0
 38 40  1  0  0  0  0
 41 42  1  0  0  0  0
M  CHG  2  16   1  17  -1
M  END
> <PUBCHEM_COMPOUND_ID_TYPE>
0

> <PUBCHEM_TOTAL_CHARGE>
0

> <PUBCHEM_SUBSTANCE_ID>
310946878

> <PUBCHEM_SUBSTANCE_VERSION>
1

> <PUBCHEM_EXT_DATASOURCE_NAME>
4488

> <PUBCHEM_EXT_DATASOURCE_REGID>
SCHEMBL16125002

> <PUBCHEM_SUBSTANCE_COMMENT>
InChI=1S/C26H36F2N12O3/c1-42-15-12-18(27)17(19(28)13-15)14-33-20-5-3-2-4-16(20)21(29)23-35-24(37-26(41)32-6-7-34-39-31)22(25(36-23)38-30)40-8-10-43-11-9-40/h2,4,12-13,21,23,33,35H,3,5-11,14,29-30H2,1H3,(H,36,38)(H2,32,37,41)
InChIKey=WBWTUHIYFGTQRM-UHFFFAOYSA-N

> <PUBCHEM_SUBSTANCE_SYNONYM>
SCHEMBL16125002

> <PUBCHEM_XREF_EXT_ID>
SCHEMBL16125002

> <PUBCHEM_EXT_DATASOURCE_URL>
https://www.surechembl.org/

> <PUBCHEM_EXT_SUBSTANCE_URL>
https://www.surechembl.org/chemical/SCHEMBL16125002

> <PUBCHEM_CID_ASSOCIATIONS>
117612736  1

> <PUBCHEM_COORDINATE_TYPE>
1
3

$$$$
