310933683
  -OEChem-07211613022D

 43 47  0     1  0  0  0  0  0999 V2000
   -6.4302    2.4750    0.0000 Cl  0  0  0  0  0  0  0  0  0  0  0  0
   -3.5724   -1.6500    0.0000 O   0  0  0  0  0  0  0  0  0  0  0  0
   -4.2868   -3.7125    0.0000 O   0  0  0  0  0  0  0  0  0  0  0  0
    0.0000   -3.7125    0.0000 O   0  0  0  0  0  0  0  0  0  0  0  0
   -0.7144   -4.9500    0.0000 O   0  0  0  0  0  0  0  0  0  0  0  0
   -5.0013   -1.6500    0.0000 N   0  0  0  0  0  0  0  0  0  0  0  0
   -3.5724    0.8250    0.0000 N   0  0  0  0  0  0  0  0  0  0  0  0
   -3.4861    0.0045    0.0000 N   0  0  0  0  0  0  0  0  0  0  0  0
   -3.5724   -2.4750    0.0000 N   0  0  0  0  0  0  0  0  0  0  0  0
   -2.6791   -0.1670    0.0000 N   0  0  0  0  0  0  0  0  0  0  0  0
   -2.2666    0.5474    0.0000 N   0  0  0  0  0  0  0  0  0  0  0  0
   -5.0013    0.8250    0.0000 C   0  0  0  0  0  0  0  0  0  0  0  0
   -5.0013    0.0000    0.0000 C   0  0  0  0  0  0  0  0  0  0  0  0
   -4.2868    1.2375    0.0000 C   0  0  0  0  0  0  0  0  0  0  0  0
   -4.2868   -1.2375    0.0000 C   0  0  0  0  0  0  0  0  0  0  0  0
   -5.0013   -2.4750    0.0000 C   0  0  3  0  0  0  0  0  0  0  0  0
   -4.2868   -0.4125    0.0000 C   0  0  0  0  0  0  0  0  0  0  0  0
   -5.7158   -0.4125    0.0000 C   0  0  0  0  0  0  0  0  0  0  0  0
   -5.7158    1.2375    0.0000 C   0  0  0  0  0  0  0  0  0  0  0  0
   -5.7158   -1.2375    0.0000 C   0  0  0  0  0  0  0  0  0  0  0  0
   -4.2868    2.0625    0.0000 C   0  0  0  0  0  0  0  0  0  0  0  0
   -4.2868   -2.8875    0.0000 C   0  0  0  0  0  0  0  0  0  0  0  0
   -5.7158    2.0625    0.0000 C   0  0  0  0  0  0  0  0  0  0  0  0
   -5.7158   -2.8875    0.0000 C   0  0  0  0  0  0  0  0  0  0  0  0
   -5.0013    2.4750    0.0000 C   0  0  0  0  0  0  0  0  0  0  0  0
   -2.8187    1.1605    0.0000 C   0  0  0  0  0  0  0  0  0  0  0  0
   -6.4302   -2.4750    0.0000 C   0  0  0  0  0  0  0  0  0  0  0  0
   -2.8579   -2.8875    0.0000 C   0  0  0  0  0  0  0  0  0  0  0  0
   -1.4290   -3.7125    0.0000 C   0  0  0  0  0  0  0  0  0  0  0  0
   -2.8579   -3.7125    0.0000 C   0  0  0  0  0  0  0  0  0  0  0  0
   -2.1434   -2.4750    0.0000 C   0  0  0  0  0  0  0  0  0  0  0  0
   -2.1434   -4.1250    0.0000 C   0  0  0  0  0  0  0  0  0  0  0  0
   -1.4290   -2.8875    0.0000 C   0  0  0  0  0  0  0  0  0  0  0  0
   -0.7144   -4.1250    0.0000 C   0  0  0  0  0  0  0  0  0  0  0  0
   -7.1447   -2.8875    0.0000 C   0  0  0  0  0  0  0  0  0  0  0  0
   -6.4302   -1.6500    0.0000 C   0  0  0  0  0  0  0  0  0  0  0  0
    0.7144   -4.1250    0.0000 C   0  0  0  0  0  0  0  0  0  0  0  0
   -7.8592   -2.4750    0.0000 C   0  0  0  0  0  0  0  0  0  0  0  0
   -7.1447   -1.2375    0.0000 C   0  0  0  0  0  0  0  0  0  0  0  0
   -7.8592   -1.6500    0.0000 C   0  0  0  0  0  0  0  0  0  0  0  0
    0.7144   -4.9500    0.0000 C   0  0  0  0  0  0  0  0  0  0  0  0
    1.4290   -4.5375    0.0000 C   0  0  0  0  0  0  0  0  0  0  0  0
    1.4290   -3.7125    0.0000 C   0  0  0  0  0  0  0  0  0  0  0  0
  1 23  1  0  0  0  0
  2 15  2  0  0  0  0
  3 22  2  0  0  0  0
  4 34  1  0  0  0  0
  4 37  1  0  0  0  0
  5 34  2  0  0  0  0
  6 15  1  0  0  0  0
  6 16  1  0  0  0  0
  6 20  1  0  0  0  0
  7  8  1  0  0  0  0
  7 14  1  0  0  0  0
  7 26  1  0  0  0  0
  8 10  2  0  0  0  0
  9 22  1  0  0  0  0
  9 28  1  0  0  0  0
 10 11  1  0  0  0  0
 11 26  2  0  0  0  0
 12 13  1  0  0  0  0
 12 14  1  0  0  0  0
 12 19  2  0  0  0  0
 13 17  2  0  0  0  0
 13 18  1  0  0  0  0
 14 21  2  0  0  0  0
 15 17  1  0  0  0  0
 16 22  1  0  0  0  0
 16 24  1  0  0  0  0
 18 20  2  0  0  0  0
 19 23  1  0  0  0  0
 21 25  1  0  0  0  0
 23 25  2  0  0  0  0
 24 27  1  0  0  0  0
 27 35  2  0  0  0  0
 27 36  1  0  0  0  0
 28 30  2  0  0  0  0
 28 31  1  0  0  0  0
 29 32  2  0  0  0  0
 29 33  1  0  0  0  0
 29 34  1  0  0  0  0
 30 32  1  0  0  0  0
 31 33  2  0  0  0  0
 35 38  1  0  0  0  0
 36 39  2  0  0  0  0
 37 41  1  0  0  0  0
 37 42  1  0  0  0  0
 37 43  1  0  0  0  0
 38 40  2  0  0  0  0
 39 40  1  0  0  0  0
M  END
> <PUBCHEM_COMPOUND_ID_TYPE>
0

> <PUBCHEM_TOTAL_CHARGE>
0

> <PUBCHEM_SUBSTANCE_ID>
310933683

> <PUBCHEM_SUBSTANCE_VERSION>
1

> <PUBCHEM_EXT_DATASOURCE_NAME>
4488

> <PUBCHEM_EXT_DATASOURCE_REGID>
SCHEMBL16111117

> <PUBCHEM_SUBSTANCE_COMMENT>
InChI=1S/C32H29ClN6O4/c1-32(2,3)43-31(42)22-9-12-25(13-10-22)35-30(41)28(17-21-7-5-4-6-8-21)38-16-15-23(18-29(38)40)26-19-24(33)11-14-27(26)39-20-34-36-37-39/h4-16,18-20,28H,17H2,1-3H3,(H,35,41)
InChIKey=GUWGRQOAAKJNHS-UHFFFAOYSA-N

> <PUBCHEM_SUBSTANCE_SYNONYM>
SCHEMBL16111117

> <PUBCHEM_XREF_EXT_ID>
SCHEMBL16111117

> <PUBCHEM_EXT_DATASOURCE_URL>
https://www.surechembl.org/

> <PUBCHEM_EXT_SUBSTANCE_URL>
https://www.surechembl.org/chemical/SCHEMBL16111117

> <PUBCHEM_CID_ASSOCIATIONS>
86301700  1

> <PUBCHEM_COORDINATE_TYPE>
1
3

$$$$
