310944058
  -OEChem-07211613022D

 16 18  0     1  0  0  0  0  0999 V2000
    2.4418    0.6984    0.0000 O   0  0  0  0  0  0  0  0  0  0  0  0
   -1.1329   -0.5224    0.0000 N   0  0  0  0  0  0  0  0  0  0  0  0
    0.2969    1.1055    0.0000 N   0  0  0  0  0  0  0  0  0  0  0  0
   -0.4180    0.6984    0.0000 N   0  0  0  0  0  0  0  0  0  0  0  0
   -1.8918   -0.1925    0.0000 N   0  0  0  0  0  0  0  0  0  0  0  0
   -2.4418   -0.7974    0.0000 N   0  0  0  0  0  0  0  0  0  0  0  0
   -2.0238   -1.5014    0.0000 N   0  0  0  0  0  0  0  0  0  0  0  0
    1.0119    0.7094    0.0000 C   0  0  0  0  0  0  0  0  0  0  0  0
   -0.4290   -0.1155    0.0000 C   0  0  0  0  0  0  0  0  0  0  0  0
    1.0009   -0.1155    0.0000 C   0  0  0  0  0  0  0  0  0  0  0  0
    0.2969   -0.5115    0.0000 C   0  0  0  0  0  0  0  0  0  0  0  0
    1.7158    1.0944    0.0000 C   0  0  3  0  0  0  0  0  0  0  0  0
    2.4418    1.5014    0.0000 C   0  0  0  0  0  0  0  0  0  0  0  0
   -1.2209   -1.3364    0.0000 C   0  0  0  0  0  0  0  0  0  0  0  0
    1.7379   -0.5115    0.0000 C   0  0  0  0  0  0  0  0  0  0  0  0
    0.3080   -1.3584    0.0000 C   0  0  0  0  0  0  0  0  0  0  0  0
 12  1  1  1  0  0  0
  1 13  1  0  0  0  0
  2  5  1  0  0  0  0
  2  9  1  0  0  0  0
  2 14  1  0  0  0  0
  3  4  1  0  0  0  0
  3  8  2  0  0  0  0
  4  9  2  0  0  0  0
  5  6  2  0  0  0  0
  6  7  1  0  0  0  0
  7 14  2  0  0  0  0
  8 10  1  0  0  0  0
  8 12  1  0  0  0  0
  9 11  1  0  0  0  0
 10 11  2  0  0  0  0
 10 15  1  0  0  0  0
 11 16  1  0  0  0  0
 12 13  1  0  0  0  0
M  END
> <PUBCHEM_COMPOUND_ID_TYPE>
0

> <PUBCHEM_TOTAL_CHARGE>
0

> <PUBCHEM_SUBSTANCE_ID>
310944058

> <PUBCHEM_SUBSTANCE_VERSION>
1

> <PUBCHEM_EXT_DATASOURCE_NAME>
4488

> <PUBCHEM_EXT_DATASOURCE_REGID>
SCHEMBL16122133

> <PUBCHEM_SUBSTANCE_COMMENT>
InChI=1S/C9H10N6O/c1-5-6(2)9(15-4-10-13-14-15)12-11-8(5)7-3-16-7/h4,7H,3H2,1-2H3/t7-/m1/s1
InChIKey=LTYJOJYYUBQXFL-SSDOTTSWSA-N

> <PUBCHEM_SUBSTANCE_SYNONYM>
SCHEMBL16122133

> <PUBCHEM_XREF_EXT_ID>
SCHEMBL16122133

> <PUBCHEM_EXT_DATASOURCE_URL>
https://www.surechembl.org/

> <PUBCHEM_EXT_SUBSTANCE_URL>
https://www.surechembl.org/chemical/SCHEMBL16122133

> <PUBCHEM_CID_ASSOCIATIONS>
117610354  1

> <PUBCHEM_COORDINATE_TYPE>
1
3

> <PUBCHEM_BONDANNOTATIONS>
12  1  5

$$$$
