310935381
  -OEChem-07211613022D

 14 13  0     1  0  0  0  0  0999 V2000
    3.7191    0.0000    0.0000 O   0  0  0  0  0  0  0  0  0  0  0  0
    4.9707   -0.7152    0.0000 O   0  0  0  0  0  0  0  0  0  0  0  0
    1.6629   -2.1456    0.0000 N   0  0  0  0  0  0  0  0  0  0  0  0
    3.7191   -1.4305    0.0000 N   0  0  0  0  0  0  0  0  0  0  0  0
    2.8966   -1.4305    0.0000 C   0  0  3  0  0  0  0  0  0  0  0  0
    2.4853   -2.1456    0.0000 C   0  0  0  0  0  0  0  0  0  0  0  0
    4.1303   -0.7152    0.0000 C   0  0  0  0  0  0  0  0  0  0  0  0
    1.2338   -1.4483    0.0000 C   0  0  0  0  0  0  0  0  0  0  0  0
    1.2516   -2.8787    0.0000 C   0  0  0  0  0  0  0  0  0  0  0  0
    2.4853   -0.7152    0.0000 C   0  0  0  0  0  0  0  0  0  0  0  0
    0.4112   -1.4483    0.0000 C   0  0  0  0  0  0  0  0  0  0  0  0
    1.6629   -3.5761    0.0000 C   0  0  0  0  0  0  0  0  0  0  0  0
    0.0000   -2.1635    0.0000 C   0  0  0  0  0  0  0  0  0  0  0  0
    2.4853   -3.5761    0.0000 C   0  0  0  0  0  0  0  0  0  0  0  0
  1  7  2  0  0  0  0
  2  7  1  0  0  0  0
  3  6  1  0  0  0  0
  3  8  1  0  0  0  0
  3  9  1  0  0  0  0
  4  5  1  0  0  0  0
  4  7  1  0  0  0  0
  5  6  1  0  0  0  0
  5 10  1  0  0  0  0
  8 11  1  0  0  0  0
  9 12  1  0  0  0  0
 11 13  1  0  0  0  0
 12 14  1  0  0  0  0
M  END
> <PUBCHEM_COMPOUND_ID_TYPE>
0

> <PUBCHEM_TOTAL_CHARGE>
0

> <PUBCHEM_SUBSTANCE_ID>
310935381

> <PUBCHEM_SUBSTANCE_VERSION>
1

> <PUBCHEM_EXT_DATASOURCE_NAME>
4488

> <PUBCHEM_EXT_DATASOURCE_REGID>
SCHEMBL16112921

> <PUBCHEM_SUBSTANCE_COMMENT>
InChI=1S/C10H22N2O2/c1-4-6-12(7-5-2)8-9(3)11-10(13)14/h9,11H,4-8H2,1-3H3,(H,13,14)
InChIKey=JRIZLXMXXDJVIO-UHFFFAOYSA-N

> <PUBCHEM_SUBSTANCE_SYNONYM>
SCHEMBL16112921

> <PUBCHEM_XREF_EXT_ID>
SCHEMBL16112921

> <PUBCHEM_EXT_DATASOURCE_URL>
https://www.surechembl.org/

> <PUBCHEM_EXT_SUBSTANCE_URL>
https://www.surechembl.org/chemical/SCHEMBL16112921

> <PUBCHEM_CID_ASSOCIATIONS>
117603433  1

> <PUBCHEM_COORDINATE_TYPE>
1
3

$$$$
