310937961
  -OEChem-07211613022D

 31 33  0     1  0  0  0  0  0999 V2000
    3.4570   -0.3536    0.0000 S   0  0  0  0  0  0  0  0  0  0  0  0
    1.9642    0.0000    0.0000 F   0  0  0  0  0  0  0  0  0  0  0  0
    3.1427   -3.6927    0.0000 F   0  0  0  0  0  0  0  0  0  0  0  0
    6.0104   -3.6927    0.0000 F   0  0  0  0  0  0  0  0  0  0  0  0
    4.5963   -2.8677    0.0000 O   0  0  0  0  0  0  0  0  0  0  0  0
    6.0104   -5.3819    0.0000 O   0  0  0  0  0  0  0  0  0  0  0  0
    6.7176   -6.5997    0.0000 O   0  0  0  0  0  0  0  0  0  0  0  0
    4.2820   -0.3536    0.0000 N   0  0  0  0  0  0  0  0  0  0  0  0
    3.1820   -1.1392    0.0000 C   0  0  0  0  0  0  0  0  0  0  0  0
    3.8498   -1.6106    0.0000 C   0  0  0  0  0  0  0  0  0  0  0  0
    2.3964   -1.3750    0.0000 C   0  0  0  0  0  0  0  0  0  0  0  0
    4.5177   -1.1392    0.0000 C   0  0  0  0  0  0  0  0  0  0  0  0
    4.5963   -3.6927    0.0000 C   0  0  0  0  0  0  0  0  0  0  0  0
    1.7678   -0.8249    0.0000 C   0  0  0  0  0  0  0  0  0  0  0  0
    3.8498   -2.4356    0.0000 C   0  0  0  0  0  0  0  0  0  0  0  0
    3.8498   -4.1248    0.0000 C   0  0  0  0  0  0  0  0  0  0  0  0
    5.3033   -4.1248    0.0000 C   0  0  0  0  0  0  0  0  0  0  0  0
    2.1999   -2.1999    0.0000 C   0  0  0  0  0  0  0  0  0  0  0  0
    4.5963   -5.3819    0.0000 C   0  0  0  0  0  0  0  0  0  0  0  0
    3.8498   -4.9498    0.0000 C   0  0  0  0  0  0  0  0  0  0  0  0
    5.3033   -4.9498    0.0000 C   0  0  0  0  0  0  0  0  0  0  0  0
    0.9821   -1.0607    0.0000 C   0  0  0  0  0  0  0  0  0  0  0  0
    0.8249   -1.8856    0.0000 C   0  0  0  0  0  0  0  0  0  0  0  0
    1.4143   -2.4356    0.0000 C   0  0  0  0  0  0  0  0  0  0  0  0
    5.3033   -1.4143    0.0000 C   0  0  0  0  0  0  0  0  0  0  0  0
    4.5963   -6.2069    0.0000 C   0  0  0  0  0  0  0  0  0  0  0  0
    5.3033   -6.5997    0.0000 C   0  0  3  0  0  0  0  0  0  0  0  0
    6.0104   -6.2069    0.0000 C   0  0  0  0  0  0  0  0  0  0  0  0
    0.0000   -2.1213    0.0000 C   0  0  0  0  0  0  0  0  0  0  0  0
    5.3033   -7.4247    0.0000 C   0  0  0  0  0  0  0  0  0  0  0  0
    6.0104   -7.8568    0.0000 C   0  0  0  0  0  0  0  0  0  0  0  0
  1  8  1  0  0  0  0
  1  9  1  0  0  0  0
  2 14  1  0  0  0  0
  3 16  1  0  0  0  0
  4 17  1  0  0  0  0
  5 13  1  0  0  0  0
  5 15  1  0  0  0  0
  6 28  2  0  0  0  0
  7 28  1  0  0  0  0
  8 12  2  0  0  0  0
  9 10  2  0  0  0  0
  9 11  1  0  0  0  0
 10 12  1  0  0  0  0
 10 15  1  0  0  0  0
 11 14  1  0  0  0  0
 11 18  2  0  0  0  0
 12 25  1  0  0  0  0
 13 16  2  0  0  0  0
 13 17  1  0  0  0  0
 14 22  2  0  0  0  0
 16 20  1  0  0  0  0
 17 21  2  0  0  0  0
 18 24  1  0  0  0  0
 19 20  2  0  0  0  0
 19 21  1  0  0  0  0
 19 26  1  0  0  0  0
 22 23  1  0  0  0  0
 23 24  2  0  0  0  0
 23 29  1  0  0  0  0
 26 27  1  0  0  0  0
 27 28  1  0  0  0  0
 27 30  1  0  0  0  0
 30 31  1  0  0  0  0
M  END
> <PUBCHEM_COMPOUND_ID_TYPE>
0

> <PUBCHEM_TOTAL_CHARGE>
0

> <PUBCHEM_SUBSTANCE_ID>
310937961

> <PUBCHEM_SUBSTANCE_VERSION>
1

> <PUBCHEM_EXT_DATASOURCE_NAME>
4488

> <PUBCHEM_EXT_DATASOURCE_REGID>
SCHEMBL16115793

> <PUBCHEM_SUBSTANCE_COMMENT>
InChI=1S/C23H22F3NO3S/c1-4-15(23(28)29)8-14-9-19(25)21(20(26)10-14)30-11-17-13(3)27-31-22(17)16-6-5-12(2)7-18(16)24/h5-7,9-10,15H,4,8,11H2,1-3H3,(H,28,29)
InChIKey=JKHJWUOCNRLVNB-UHFFFAOYSA-N

> <PUBCHEM_SUBSTANCE_SYNONYM>
SCHEMBL16115793

> <PUBCHEM_XREF_EXT_ID>
SCHEMBL16115793

> <PUBCHEM_EXT_DATASOURCE_URL>
https://www.surechembl.org/

> <PUBCHEM_EXT_SUBSTANCE_URL>
https://www.surechembl.org/chemical/SCHEMBL16115793

> <PUBCHEM_CID_ASSOCIATIONS>
117605562  1

> <PUBCHEM_COORDINATE_TYPE>
1
3

$$$$
