310933803
  -OEChem-07211613022D

 30 33  0     1  0  0  0  0  0999 V2000
    4.2626   -1.2375    0.0000 O   0  0  0  0  0  0  0  0  0  0  0  0
    0.0000   -6.0501    0.0000 O   0  0  0  0  0  0  0  0  0  0  0  0
    7.8032    0.0000    0.0000 O   0  0  0  0  0  0  0  0  0  0  0  0
    8.4908   -1.2375    0.0000 O   0  0  0  0  0  0  0  0  0  0  0  0
    2.1313   -4.8813    0.0000 N   0  0  0  0  0  0  0  0  0  0  0  0
    2.8532   -2.0282    0.0000 N   0  0  0  0  0  0  0  0  0  0  0  0
    4.9845   -2.4406    0.0000 N   0  0  0  0  0  0  0  0  0  0  0  0
    2.8532   -3.6782    0.0000 C   0  0  0  0  0  0  0  0  0  0  0  0
    3.5751   -3.2657    0.0000 C   0  0  0  0  0  0  0  0  0  0  0  0
    2.8188   -4.4688    0.0000 C   0  0  0  0  0  0  0  0  0  0  0  0
    3.5751   -2.4406    0.0000 C   0  0  3  0  0  0  0  0  0  0  0  0
    4.2626   -2.0282    0.0000 C   0  0  0  0  0  0  0  0  0  0  0  0
    2.1313   -3.2657    0.0000 C   0  0  0  0  0  0  0  0  0  0  0  0
    4.2626   -3.6438    0.0000 C   0  0  0  0  0  0  0  0  0  0  0  0
    3.5407   -4.8813    0.0000 C   0  0  0  0  0  0  0  0  0  0  0  0
    4.2626   -4.4688    0.0000 C   0  0  0  0  0  0  0  0  0  0  0  0
    2.1313   -2.4406    0.0000 C   0  0  0  0  0  0  0  0  0  0  0  0
    2.1313   -5.7063    0.0000 C   0  0  0  0  0  0  0  0  0  0  0  0
    1.4438   -4.4344    0.0000 C   0  0  0  0  0  0  0  0  0  0  0  0
    5.6720   -2.0282    0.0000 C   0  0  0  0  0  0  0  0  0  0  0  0
    0.7219   -5.6376    0.0000 C   0  0  0  0  0  0  0  0  0  0  0  0
    1.4094   -6.0845    0.0000 C   0  0  0  0  0  0  0  0  0  0  0  0
    0.7219   -4.8470    0.0000 C   0  0  0  0  0  0  0  0  0  0  0  0
    5.6720   -1.2375    0.0000 C   0  0  0  0  0  0  0  0  0  0  0  0
    6.3939   -2.4406    0.0000 C   0  0  0  0  0  0  0  0  0  0  0  0
    7.0814   -1.2375    0.0000 C   0  0  0  0  0  0  0  0  0  0  0  0
    6.3939   -0.8250    0.0000 C   0  0  0  0  0  0  0  0  0  0  0  0
    7.0814   -2.0282    0.0000 C   0  0  0  0  0  0  0  0  0  0  0  0
    7.8032   -0.8250    0.0000 C   0  0  0  0  0  0  0  0  0  0  0  0
    0.0000   -6.8751    0.0000 C   0  0  0  0  0  0  0  0  0  0  0  0
  1 12  2  0  0  0  0
  2 21  1  0  0  0  0
  2 30  1  0  0  0  0
  3 29  2  0  0  0  0
  4 29  1  0  0  0  0
  5 10  1  0  0  0  0
  5 18  1  0  0  0  0
  5 19  1  0  0  0  0
  6 11  1  0  0  0  0
  6 17  1  0  0  0  0
  7 12  1  0  0  0  0
  7 20  1  0  0  0  0
  8  9  2  0  0  0  0
  8 10  1  0  0  0  0
  8 13  1  0  0  0  0
  9 11  1  0  0  0  0
  9 14  1  0  0  0  0
 10 15  2  0  0  0  0
 11 12  1  0  0  0  0
 13 17  1  0  0  0  0
 14 16  2  0  0  0  0
 15 16  1  0  0  0  0
 18 22  1  0  0  0  0
 19 23  1  0  0  0  0
 20 24  2  0  0  0  0
 20 25  1  0  0  0  0
 21 22  1  0  0  0  0
 21 23  1  0  0  0  0
 24 27  1  0  0  0  0
 25 28  2  0  0  0  0
 26 27  2  0  0  0  0
 26 28  1  0  0  0  0
 26 29  1  0  0  0  0
M  END
> <PUBCHEM_COMPOUND_ID_TYPE>
0

> <PUBCHEM_TOTAL_CHARGE>
0

> <PUBCHEM_SUBSTANCE_ID>
310933803

> <PUBCHEM_SUBSTANCE_VERSION>
1

> <PUBCHEM_EXT_DATASOURCE_NAME>
4488

> <PUBCHEM_EXT_DATASOURCE_REGID>
SCHEMBL16111241

> <PUBCHEM_SUBSTANCE_COMMENT>
InChI=1S/C23H27N3O4/c1-30-17-10-13-26(14-11-17)20-4-2-3-19-18(20)9-12-24-21(19)22(27)25-16-7-5-15(6-8-16)23(28)29/h2-8,17,21,24H,9-14H2,1H3,(H,25,27)(H,28,29)
InChIKey=MLSQMZSHHHZLNU-UHFFFAOYSA-N

> <PUBCHEM_SUBSTANCE_SYNONYM>
SCHEMBL16111241

> <PUBCHEM_XREF_EXT_ID>
SCHEMBL16111241

> <PUBCHEM_EXT_DATASOURCE_URL>
https://www.surechembl.org/

> <PUBCHEM_EXT_SUBSTANCE_URL>
https://www.surechembl.org/chemical/SCHEMBL16111241

> <PUBCHEM_CID_ASSOCIATIONS>
117602151  1

> <PUBCHEM_COORDINATE_TYPE>
1
3

$$$$
