310930096
  -OEChem-07211613022D

 22 23  0     1  0  0  0  0  0999 V2000
    0.8250   -8.3414    0.0000 S   0  0  0  0  0  0  0  0  0  0  0  0
    0.8250   -7.5164    0.0000 O   0  0  0  0  0  0  0  0  0  0  0  0
    1.6499   -8.3414    0.0000 O   0  0  0  0  0  0  0  0  0  0  0  0
    0.0000   -8.3414    0.0000 O   0  0  0  0  0  0  0  0  0  0  0  0
    0.8250   -9.1664    0.0000 O   0  0  0  0  0  0  0  0  0  0  0  0
    2.2916   -5.8665    0.0000 N   0  0  3  0  0  0  0  0  0  0  0  0
    2.2458   -2.5207    0.0000 N   0  0  0  0  0  0  0  0  0  0  0  0
    1.5124   -2.1083    0.0000 N   0  0  0  0  0  0  0  0  0  0  0  0
    2.1999   -0.7791    0.0000 N   0  0  0  0  0  0  0  0  0  0  0  0
    0.8708   -0.8250    0.0000 N   0  0  0  0  0  0  0  0  0  0  0  0
    1.9249    0.0000    0.0000 N   0  0  0  0  0  0  0  0  0  0  0  0
    2.2916   -5.0415    0.0000 C   0  0  0  0  0  0  0  0  0  0  0  0
    2.2458   -3.3457    0.0000 C   0  0  0  0  0  0  0  0  0  0  0  0
    1.5583   -4.5832    0.0000 C   0  0  0  0  0  0  0  0  0  0  0  0
    2.9791   -4.5832    0.0000 C   0  0  0  0  0  0  0  0  0  0  0  0
    1.5124   -1.2833    0.0000 C   0  0  0  0  0  0  0  0  0  0  0  0
    1.5583   -3.7582    0.0000 C   0  0  0  0  0  0  0  0  0  0  0  0
    2.9791   -3.7582    0.0000 C   0  0  0  0  0  0  0  0  0  0  0  0
    1.5583   -6.2790    0.0000 C   0  0  0  0  0  0  0  0  0  0  0  0
    1.5583   -7.1040    0.0000 C   0  0  0  0  0  0  0  0  0  0  0  0
    1.0999    0.0000    0.0000 C   0  0  0  0  0  0  0  0  0  0  0  0
    2.9791   -6.2790    0.0000 C   0  0  0  0  0  0  0  0  0  0  0  0
  1  2  1  0  0  0  0
  1  3  2  0  0  0  0
  1  4  2  0  0  0  0
  1  5  1  0  0  0  0
  2 20  1  0  0  0  0
  6 12  1  0  0  0  0
  6 19  1  0  0  0  0
  6 22  1  0  0  0  0
  7  8  2  0  0  0  0
  7 13  1  0  0  0  0
  8 16  1  0  0  0  0
  9 11  1  0  0  0  0
  9 16  2  0  0  0  0
 10 16  1  0  0  0  0
 10 21  1  0  0  0  0
 11 21  2  0  0  0  0
 12 14  2  0  0  0  0
 12 15  1  0  0  0  0
 13 17  2  0  0  0  0
 13 18  1  0  0  0  0
 14 17  1  0  0  0  0
 15 18  2  0  0  0  0
 19 20  1  0  0  0  0
M  END
> <PUBCHEM_COMPOUND_ID_TYPE>
0

> <PUBCHEM_TOTAL_CHARGE>
0

> <PUBCHEM_SUBSTANCE_ID>
310930096

> <PUBCHEM_SUBSTANCE_VERSION>
1

> <PUBCHEM_EXT_DATASOURCE_NAME>
4488

> <PUBCHEM_EXT_DATASOURCE_REGID>
SCHEMBL16107342

> <PUBCHEM_SUBSTANCE_COMMENT>
InChI=1S/C11H14N6O4S/c1-17(6-7-21-22(18,19)20)10-4-2-9(3-5-10)14-16-11-12-8-13-15-11/h2-5,8H,6-7H2,1H3,(H,12,13,15)(H,18,19,20)/b16-14+
InChIKey=OOXXTHJUNBYJNP-JQIJEIRASA-N

> <PUBCHEM_SUBSTANCE_SYNONYM>
SCHEMBL16107342

> <PUBCHEM_XREF_EXT_ID>
SCHEMBL16107342

> <PUBCHEM_EXT_DATASOURCE_URL>
https://www.surechembl.org/

> <PUBCHEM_EXT_SUBSTANCE_URL>
https://www.surechembl.org/chemical/SCHEMBL16107342

> <PUBCHEM_CID_ASSOCIATIONS>
117599327  1

> <PUBCHEM_COORDINATE_TYPE>
1
3

$$$$
