310934267
  -OEChem-07211613022D

 36 41  0     1  0  0  0  0  0999 V2000
    0.7000  -11.6670    0.0000 O   0  0  0  0  0  0  0  0  0  0  0  0
    2.1000  -11.6670    0.0000 O   0  0  0  0  0  0  0  0  0  0  0  0
    0.7000   -4.2001    0.0000 N   0  0  0  0  0  0  0  0  0  0  0  0
    0.1167   -3.6751    0.0000 N   0  0  0  0  0  0  0  0  0  0  0  0
    2.1584   -4.2001    0.0000 N   0  0  0  0  0  0  0  0  0  0  0  0
    1.4000   -8.7502    0.0000 N   0  0  0  0  0  0  0  0  0  0  0  0
    0.7000   -7.5252    0.0000 N   0  0  0  0  0  0  0  0  0  0  0  0
    1.4000  -10.4419    0.0000 N   0  0  0  0  0  0  0  0  0  0  0  0
    1.8084   -0.1750    0.0000 N   0  0  0  0  0  0  0  0  0  0  0  0
    1.2250   -2.9751    0.0000 C   0  0  0  0  0  0  0  0  0  0  0  0
    1.4000   -3.7918    0.0000 C   0  0  0  0  0  0  0  0  0  0  0  0
    1.8084   -2.3334    0.0000 C   0  0  0  0  0  0  0  0  0  0  0  0
    1.5167   -1.5750    0.0000 C   0  0  0  0  0  0  0  0  0  0  0  0
    1.4000   -5.4251    0.0000 C   0  0  0  0  0  0  0  0  0  0  0  0
    0.4083   -2.9168    0.0000 C   0  0  0  0  0  0  0  0  0  0  0  0
    0.7000   -5.0751    0.0000 C   0  0  0  0  0  0  0  0  0  0  0  0
    1.4000   -6.3002    0.0000 C   0  0  0  0  0  0  0  0  0  0  0  0
    1.4000   -7.9335    0.0000 C   0  0  0  0  0  0  0  0  0  0  0  0
    2.1000   -0.9334    0.0000 C   0  0  0  0  0  0  0  0  0  0  0  0
    2.1584   -5.0168    0.0000 C   0  0  0  0  0  0  0  0  0  0  0  0
    2.6251   -2.5084    0.0000 C   0  0  0  0  0  0  0  0  0  0  0  0
    0.7000   -9.1586    0.0000 C   0  0  3  0  0  0  0  0  0  0  0  0
    2.1584   -9.1586    0.0000 C   0  0  3  0  0  0  0  0  0  0  0  0
    0.7000   -6.7085    0.0000 C   0  0  0  0  0  0  0  0  0  0  0  0
    2.1000   -6.7085    0.0000 C   0  0  0  0  0  0  0  0  0  0  0  0
    2.1584   -7.5252    0.0000 C   0  0  0  0  0  0  0  0  0  0  0  0
    0.7000   -1.4584    0.0000 C   0  0  0  0  0  0  0  0  0  0  0  0
    2.8584   -1.1083    0.0000 C   0  0  0  0  0  0  0  0  0  0  0  0
    2.1584  -10.0336    0.0000 C   0  0  0  0  0  0  0  0  0  0  0  0
    0.7000  -10.0336    0.0000 C   0  0  0  0  0  0  0  0  0  0  0  0
    3.1501   -1.9251    0.0000 C   0  0  0  0  0  0  0  0  0  0  0  0
    0.4667   -0.6417    0.0000 C   0  0  0  0  0  0  0  0  0  0  0  0
    1.4000  -11.2586    0.0000 C   0  0  0  0  0  0  0  0  0  0  0  0
    0.9917    0.0000    0.0000 C   0  0  0  0  0  0  0  0  0  0  0  0
    0.0000   -8.7502    0.0000 C   0  0  0  0  0  0  0  0  0  0  0  0
    2.8584   -8.7502    0.0000 C   0  0  0  0  0  0  0  0  0  0  0  0
  1 33  2  0  0  0  0
  2 33  1  0  0  0  0
  3  4  1  0  0  0  0
  3 11  1  0  0  0  0
  3 16  1  0  0  0  0
  4 15  2  0  0  0  0
  5 11  1  0  0  0  0
  5 20  2  0  0  0  0
  6 18  1  0  0  0  0
  6 22  1  0  0  0  0
  6 23  1  0  0  0  0
  7 18  1  0  0  0  0
  7 24  2  0  0  0  0
  8 29  1  0  0  0  0
  8 30  1  0  0  0  0
  8 33  1  0  0  0  0
  9 19  2  0  0  0  0
  9 34  1  0  0  0  0
 10 11  2  0  0  0  0
 10 12  1  0  0  0  0
 10 15  1  0  0  0  0
 12 13  1  0  0  0  0
 12 21  2  0  0  0  0
 13 19  1  0  0  0  0
 13 27  2  0  0  0  0
 14 16  2  0  0  0  0
 14 17  1  0  0  0  0
 14 20  1  0  0  0  0
 17 24  1  0  0  0  0
 17 25  2  0  0  0  0
 18 26  2  0  0  0  0
 19 28  1  0  0  0  0
 21 31  1  0  0  0  0
 22 30  1  0  0  0  0
 22 35  1  0  0  0  0
 23 29  1  0  0  0  0
 23 36  1  0  0  0  0
 25 26  1  0  0  0  0
 27 32  1  0  0  0  0
 28 31  2  0  0  0  0
 32 34  2  0  0  0  0
M  END
> <PUBCHEM_COMPOUND_ID_TYPE>
0

> <PUBCHEM_TOTAL_CHARGE>
0

> <PUBCHEM_SUBSTANCE_ID>
310934267

> <PUBCHEM_SUBSTANCE_VERSION>
1

> <PUBCHEM_EXT_DATASOURCE_NAME>
4488

> <PUBCHEM_EXT_DATASOURCE_REGID>
SCHEMBL16111725

> <PUBCHEM_SUBSTANCE_COMMENT>
InChI=1S/C27H25N7O2/c1-17-14-32(27(35)36)15-18(2)34(17)25-9-8-19(11-29-25)20-12-30-26-23(13-31-33(26)16-20)21-5-3-7-24-22(21)6-4-10-28-24/h3-13,16-18H,14-15H2,1-2H3,(H,35,36)
InChIKey=UZZHPJJPSJPYCK-UHFFFAOYSA-N

> <PUBCHEM_SUBSTANCE_SYNONYM>
SCHEMBL16111725

> <PUBCHEM_XREF_EXT_ID>
SCHEMBL16111725

> <PUBCHEM_EXT_DATASOURCE_URL>
https://www.surechembl.org/

> <PUBCHEM_EXT_SUBSTANCE_URL>
https://www.surechembl.org/chemical/SCHEMBL16111725

> <PUBCHEM_CID_ASSOCIATIONS>
117602522  1

> <PUBCHEM_COORDINATE_TYPE>
1
3

$$$$
