310937259
  -OEChem-07211613022D

 27 28  0     1  0  0  0  0  0999 V2000
    0.8250   -0.7250    0.0000 Cl  0  0  0  0  0  0  0  0  0  0  0  0
    0.0000   -2.1500    0.0000 Cl  0  0  0  0  0  0  0  0  0  0  0  0
    2.2250   -3.0250    0.0000 S   0  0  0  0  0  0  0  0  0  0  0  0
    4.5251   -2.8500    0.0000 O   0  0  0  0  0  0  0  0  0  0  0  0
    2.7751   -2.4500    0.0000 O   0  0  0  0  0  0  0  0  0  0  0  0
    1.6500   -2.1500    0.0000 O   0  0  0  0  0  0  0  0  0  0  0  0
    4.5251    0.0000    0.0000 O   0  0  0  0  0  0  0  0  0  0  0  0
    5.7751   -0.7250    0.0000 O   0  0  0  0  0  0  0  0  0  0  0  0
    1.3500   -3.2751    0.0000 N   0  0  0  0  0  0  0  0  0  0  0  0
    4.5251   -1.4250    0.0000 N   0  0  0  0  0  0  0  0  0  0  0  0
    3.3001   -3.5751    0.0000 C   0  0  0  0  0  0  0  0  0  0  0  0
    2.4751   -3.5751    0.0000 C   0  0  0  0  0  0  0  0  0  0  0  0
    3.7001   -2.8500    0.0000 C   0  0  3  0  0  0  0  0  0  0  0  0
    3.3001   -2.1500    0.0000 C   0  0  3  0  0  0  0  0  0  0  0  0
    2.4751   -2.1500    0.0000 C   0  0  0  0  0  0  0  0  0  0  0  0
    3.7001   -4.3001    0.0000 C   0  0  0  0  0  0  0  0  0  0  0  0
    2.0751   -4.2750    0.0000 C   0  0  0  0  0  0  0  0  0  0  0  0
    2.0500   -1.4250    0.0000 C   0  0  0  0  0  0  0  0  0  0  0  0
    3.7001   -1.4250    0.0000 C   0  0  0  0  0  0  0  0  0  0  0  0
    2.0500   -2.8500    0.0000 C   0  0  0  0  0  0  0  0  0  0  0  0
    1.2500   -1.4250    0.0000 C   0  0  0  0  0  0  0  0  0  0  0  0
    3.3001   -5.0001    0.0000 C   0  0  0  0  0  0  0  0  0  0  0  0
    2.4751   -5.0001    0.0000 C   0  0  0  0  0  0  0  0  0  0  0  0
    0.8250   -2.1500    0.0000 C   0  0  0  0  0  0  0  0  0  0  0  0
    1.2500   -2.8500    0.0000 C   0  0  0  0  0  0  0  0  0  0  0  0
    0.6250   -2.8751    0.0000 C   0  0  0  0  0  0  0  0  0  0  0  0
    4.9501   -0.7250    0.0000 C   0  0  0  0  0  0  0  0  0  0  0  0
  1 21  1  0  0  0  0
  2 24  1  0  0  0  0
  3  5  2  0  0  0  0
  3  6  2  0  0  0  0
  3  9  1  0  0  0  0
  3 12  1  0  0  0  0
  4 13  1  0  0  0  0
  7 27  2  0  0  0  0
  8 27  1  0  0  0  0
  9 26  1  0  0  0  0
 10 19  1  0  0  0  0
 10 27  1  0  0  0  0
 11 12  1  0  0  0  0
 11 13  1  0  0  0  0
 11 16  2  0  0  0  0
 12 17  2  0  0  0  0
 13 14  1  0  0  0  0
 14 15  1  0  0  0  0
 14 19  1  0  0  0  0
 15 18  1  0  0  0  0
 15 20  2  0  0  0  0
 16 22  1  0  0  0  0
 17 23  1  0  0  0  0
 18 21  2  0  0  0  0
 20 25  1  0  0  0  0
 21 24  1  0  0  0  0
 22 23  2  0  0  0  0
 24 25  2  0  0  0  0
M  END
> <PUBCHEM_COMPOUND_ID_TYPE>
0

> <PUBCHEM_TOTAL_CHARGE>
0

> <PUBCHEM_SUBSTANCE_ID>
310937259

> <PUBCHEM_SUBSTANCE_VERSION>
1

> <PUBCHEM_EXT_DATASOURCE_NAME>
4488

> <PUBCHEM_EXT_DATASOURCE_REGID>
SCHEMBL16114999

> <PUBCHEM_SUBSTANCE_COMMENT>
InChI=1S/C17H18Cl2N2O5S/c1-20-27(25,26)15-5-3-2-4-11(15)16(22)12(9-21-17(23)24)10-6-7-13(18)14(19)8-10/h2-8,12,16,20-22H,9H2,1H3,(H,23,24)
InChIKey=ZOAHFUDKDKLHEZ-UHFFFAOYSA-N

> <PUBCHEM_SUBSTANCE_SYNONYM>
SCHEMBL16114999

> <PUBCHEM_XREF_EXT_ID>
SCHEMBL16114999

> <PUBCHEM_EXT_DATASOURCE_URL>
https://www.surechembl.org/

> <PUBCHEM_EXT_SUBSTANCE_URL>
https://www.surechembl.org/chemical/SCHEMBL16114999

> <PUBCHEM_CID_ASSOCIATIONS>
117605056  1

> <PUBCHEM_COORDINATE_TYPE>
1
3

$$$$
