310933220
  -OEChem-07211613022D

 34 38  0     1  0  0  0  0  0999 V2000
    5.1868   -2.8993    0.0000 Br  0  0  0  0  0  0  0  0  0  0  0  0
    3.5111    0.0000    0.0000 F   0  0  0  0  0  0  0  0  0  0  0  0
    2.2875   -0.7448    0.0000 O   0  0  0  0  0  0  0  0  0  0  0  0
    0.0000   -4.2292    0.0000 O   0  0  0  0  0  0  0  0  0  0  0  0
    5.5326   -3.1121    0.0000 O   0  0  0  0  0  0  0  0  0  0  0  0
    4.2027   -2.4471    0.0000 N   0  0  0  0  0  0  0  0  0  0  0  0
    4.2027   -3.7770    0.0000 N   0  0  0  0  0  0  0  0  0  0  0  0
    1.4896   -2.1811    0.0000 N   0  0  0  0  0  0  0  0  0  0  0  0
    5.1602   -1.4363    0.0000 N   0  0  0  0  0  0  0  0  0  0  0  0
    0.3990   -4.9740    0.0000 N   0  0  0  0  0  0  0  0  0  0  0  0
    2.6865   -1.4629    0.0000 C   0  0  3  0  0  0  0  0  0  0  0  0
    2.7131   -2.2875    0.0000 C   0  0  0  0  0  0  0  0  0  0  0  0
    3.4313   -2.6865    0.0000 C   0  0  0  0  0  0  0  0  0  0  0  0
    3.5111   -1.4629    0.0000 C   0  0  0  0  0  0  0  0  0  0  0  0
    1.8619   -1.4629    0.0000 C   0  0  0  0  0  0  0  0  0  0  0  0
    3.4313   -3.5377    0.0000 C   0  0  0  0  0  0  0  0  0  0  0  0
    2.0215   -2.6865    0.0000 C   0  0  0  0  0  0  0  0  0  0  0  0
    2.0215   -3.5377    0.0000 C   0  0  0  0  0  0  0  0  0  0  0  0
    3.9101   -0.7182    0.0000 C   0  0  0  0  0  0  0  0  0  0  0  0
    2.7131   -3.9366    0.0000 C   0  0  0  0  0  0  0  0  0  0  0  0
    1.3033   -3.9633    0.0000 C   0  0  0  0  0  0  0  0  0  0  0  0
    3.9366   -2.1545    0.0000 C   0  0  0  0  0  0  0  0  0  0  0  0
    4.7081   -3.1121    0.0000 C   0  0  0  0  0  0  0  0  0  0  0  0
    4.7612   -0.7448    0.0000 C   0  0  0  0  0  0  0  0  0  0  0  0
    1.4629   -0.7448    0.0000 C   0  0  0  0  0  0  0  0  0  0  0  0
    4.7612   -2.1811    0.0000 C   0  0  0  0  0  0  0  0  0  0  0  0
    0.5320   -3.6440    0.0000 C   0  0  0  0  0  0  0  0  0  0  0  0
    1.2235   -4.7612    0.0000 C   0  0  0  0  0  0  0  0  0  0  0  0
    0.6383   -2.2343    0.0000 C   0  0  0  0  0  0  0  0  0  0  0  0
    0.6383   -0.7980    0.0000 C   0  0  0  0  0  0  0  0  0  0  0  0
    0.2394   -1.4896    0.0000 C   0  0  0  0  0  0  0  0  0  0  0  0
    5.1602   -0.0266    0.0000 C   0  0  0  0  0  0  0  0  0  0  0  0
    0.3724   -2.8195    0.0000 C   0  0  0  0  0  0  0  0  0  0  0  0
    1.8353   -5.3198    0.0000 C   0  0  0  0  0  0  0  0  0  0  0  0
  1 26  1  0  0  0  0
  2 19  1  0  0  0  0
  3 11  1  0  0  0  0
  4 10  1  0  0  0  0
  4 27  1  0  0  0  0
  5 23  2  0  0  0  0
  6 13  1  0  0  0  0
  6 23  1  0  0  0  0
  7 16  1  0  0  0  0
  7 23  1  0  0  0  0
  8 15  1  0  0  0  0
  8 29  2  0  0  0  0
  9 24  1  0  0  0  0
  9 26  2  0  0  0  0
 10 28  2  0  0  0  0
 11 12  1  0  0  0  0
 11 14  1  0  0  0  0
 11 15  1  0  0  0  0
 12 13  1  0  0  0  0
 12 17  2  0  0  0  0
 13 16  2  0  0  0  0
 14 19  1  0  0  0  0
 14 22  2  0  0  0  0
 15 25  2  0  0  0  0
 16 20  1  0  0  0  0
 17 18  1  0  0  0  0
 18 20  2  0  0  0  0
 18 21  1  0  0  0  0
 19 24  2  0  0  0  0
 21 27  2  0  0  0  0
 21 28  1  0  0  0  0
 22 26  1  0  0  0  0
 24 32  1  0  0  0  0
 25 30  1  0  0  0  0
 27 33  1  0  0  0  0
 28 34  1  0  0  0  0
 29 31  1  0  0  0  0
 30 31  2  0  0  0  0
M  END
> <PUBCHEM_COMPOUND_ID_TYPE>
0

> <PUBCHEM_TOTAL_CHARGE>
0

> <PUBCHEM_SUBSTANCE_ID>
310933220

> <PUBCHEM_SUBSTANCE_VERSION>
1

> <PUBCHEM_EXT_DATASOURCE_NAME>
4488

> <PUBCHEM_EXT_DATASOURCE_REGID>
SCHEMBL16110629

> <PUBCHEM_SUBSTANCE_COMMENT>
InChI=1S/C24H19BrFN5O3/c1-11-20(13(3)34-31-11)14-8-16(22-17(9-14)29-23(32)30-22)24(33,18-6-4-5-7-27-18)15-10-19(25)28-12(2)21(15)26/h4-10,33H,1-3H3,(H2,29,30,32)
InChIKey=YBYYXBWGSMVTPH-UHFFFAOYSA-N

> <PUBCHEM_SUBSTANCE_SYNONYM>
SCHEMBL16110629

> <PUBCHEM_XREF_EXT_ID>
SCHEMBL16110629

> <PUBCHEM_EXT_DATASOURCE_URL>
https://www.surechembl.org/

> <PUBCHEM_EXT_SUBSTANCE_URL>
https://www.surechembl.org/chemical/SCHEMBL16110629

> <PUBCHEM_CID_ASSOCIATIONS>
117601655  1

> <PUBCHEM_COORDINATE_TYPE>
1
3

$$$$
