310943533
  -OEChem-07211613022D

 32 35  0     1  0  0  0  0  0999 V2000
   -0.6942   -3.3904    0.0000 N   0  0  3  0  0  0  0  0  0  0  0  0
    0.7143    3.3502    0.0000 N   0  0  3  0  0  0  0  0  0  0  0  0
   -2.0825   -4.6581    0.0000 N   0  0  3  0  0  0  0  0  0  0  0  0
    2.1228   -2.5051    0.0000 N   0  0  0  0  0  0  0  0  0  0  0  0
    2.0624    4.6380    0.0000 N   0  0  3  0  0  0  0  0  0  0  0  0
   -0.0101   -0.4326    0.0000 C   0  0  0  0  0  0  0  0  0  0  0  0
    0.0101   -2.0825    0.0000 C   0  0  0  0  0  0  0  0  0  0  0  0
    0.6942   -1.6600    0.0000 C   0  0  0  0  0  0  0  0  0  0  0  0
   -0.0101    0.4326    0.0000 C   0  0  0  0  0  0  0  0  0  0  0  0
    0.6942   -0.8350    0.0000 C   0  0  0  0  0  0  0  0  0  0  0  0
   -0.7143   -0.8350    0.0000 C   0  0  0  0  0  0  0  0  0  0  0  0
   -0.6942   -1.7002    0.0000 C   0  0  0  0  0  0  0  0  0  0  0  0
   -0.0101   -2.9477    0.0000 C   0  0  0  0  0  0  0  0  0  0  0  0
    0.6942    0.8551    0.0000 C   0  0  0  0  0  0  0  0  0  0  0  0
   -0.7143    0.8551    0.0000 C   0  0  0  0  0  0  0  0  0  0  0  0
   -0.0101    2.0825    0.0000 C   0  0  0  0  0  0  0  0  0  0  0  0
    0.6741    1.7002    0.0000 C   0  0  0  0  0  0  0  0  0  0  0  0
   -0.7143    1.7002    0.0000 C   0  0  0  0  0  0  0  0  0  0  0  0
    1.4387   -2.1026    0.0000 C   0  0  0  0  0  0  0  0  0  0  0  0
    0.0101    2.9477    0.0000 C   0  0  0  0  0  0  0  0  0  0  0  0
   -0.6540   -4.1752    0.0000 C   0  0  0  0  0  0  0  0  0  0  0  0
   -1.4186   -2.8874    0.0000 C   0  0  0  0  0  0  0  0  0  0  0  0
    0.6741    4.2154    0.0000 C   0  0  0  0  0  0  0  0  0  0  0  0
   -1.2374   -4.7587    0.0000 C   0  0  0  0  0  0  0  0  0  0  0  0
    1.4387    2.9075    0.0000 C   0  0  0  0  0  0  0  0  0  0  0  0
   -2.2033   -3.1490    0.0000 C   0  0  0  0  0  0  0  0  0  0  0  0
   -2.4849   -3.9337    0.0000 C   0  0  0  0  0  0  0  0  0  0  0  0
    1.2576    4.7587    0.0000 C   0  0  0  0  0  0  0  0  0  0  0  0
    2.1832    3.1490    0.0000 C   0  0  0  0  0  0  0  0  0  0  0  0
    2.4849    3.9337    0.0000 C   0  0  0  0  0  0  0  0  0  0  0  0
   -2.5252   -5.3422    0.0000 C   0  0  0  0  0  0  0  0  0  0  0  0
    2.5252    5.3422    0.0000 C   0  0  0  0  0  0  0  0  0  0  0  0
  1 13  1  0  0  0  0
  1 21  1  0  0  0  0
  1 22  1  0  0  0  0
  2 20  1  0  0  0  0
  2 23  1  0  0  0  0
  2 25  1  0  0  0  0
  3 24  1  0  0  0  0
  3 27  1  0  0  0  0
  3 31  1  0  0  0  0
  4 19  3  0  0  0  0
  5 28  1  0  0  0  0
  5 30  1  0  0  0  0
  5 32  1  0  0  0  0
  6  9  1  0  0  0  0
  6 10  1  0  0  0  0
  6 11  2  0  0  0  0
  7  8  1  0  0  0  0
  7 12  2  0  0  0  0
  7 13  1  0  0  0  0
  8 10  2  0  0  0  0
  8 19  1  0  0  0  0
  9 14  2  0  0  0  0
  9 15  1  0  0  0  0
 11 12  1  0  0  0  0
 14 17  1  0  0  0  0
 15 18  2  0  0  0  0
 16 17  2  0  0  0  0
 16 18  1  0  0  0  0
 16 20  1  0  0  0  0
 21 24  1  0  0  0  0
 22 26  1  0  0  0  0
 23 28  1  0  0  0  0
 25 29  1  0  0  0  0
 26 27  1  0  0  0  0
 29 30  1  0  0  0  0
M  END
> <PUBCHEM_COMPOUND_ID_TYPE>
0

> <PUBCHEM_TOTAL_CHARGE>
0

> <PUBCHEM_SUBSTANCE_ID>
310943533

> <PUBCHEM_SUBSTANCE_VERSION>
1

> <PUBCHEM_EXT_DATASOURCE_NAME>
4488

> <PUBCHEM_EXT_DATASOURCE_REGID>
SCHEMBL16121599

> <PUBCHEM_SUBSTANCE_COMMENT>
InChI=1S/C27H37N5/c1-29-11-3-13-31(17-15-29)21-23-5-7-24(8-6-23)25-9-10-26(27(19-25)20-28)22-32-14-4-12-30(2)16-18-32/h5-10,19H,3-4,11-18,21-22H2,1-2H3
InChIKey=NBIMKLLDMWMQCV-UHFFFAOYSA-N

> <PUBCHEM_SUBSTANCE_SYNONYM>
SCHEMBL16121599

> <PUBCHEM_XREF_EXT_ID>
SCHEMBL16121599

> <PUBCHEM_EXT_DATASOURCE_URL>
https://www.surechembl.org/

> <PUBCHEM_EXT_SUBSTANCE_URL>
https://www.surechembl.org/chemical/SCHEMBL16121599

> <PUBCHEM_CID_ASSOCIATIONS>
86300469  1

> <PUBCHEM_COORDINATE_TYPE>
1
3

$$$$
