310945639
  -OEChem-07211613022D

 41 44  0     1  0  0  0  0  0999 V2000
   -8.2207   -0.6948    0.0000 Cl  0  0  0  0  0  0  0  0  0  0  0  0
   -4.9923   -0.6948    0.0000 S   0  0  0  0  0  0  0  0  0  0  0  0
    6.6172    0.8018    0.0000 O   0  0  0  0  0  0  0  0  0  0  0  0
    3.6667    0.9728    0.0000 O   0  0  0  0  0  0  0  0  0  0  0  0
   -2.1059   -0.6948    0.0000 O   0  0  0  0  0  0  0  0  0  0  0  0
    8.2207   -0.8659    0.0000 O   0  0  0  0  0  0  0  0  0  0  0  0
    7.9214   -2.2770    0.0000 O   0  0  0  0  0  0  0  0  0  0  0  0
   -4.3937   -1.2721    0.0000 O   0  0  0  0  0  0  0  0  0  0  0  0
   -5.5695   -1.2721    0.0000 O   0  0  0  0  0  0  0  0  0  0  0  0
   -4.2654   -0.2886    0.0000 N   0  0  0  0  0  0  0  0  0  0  0  0
    5.7192   -0.1818    0.0000 C   0  0  0  0  0  0  0  0  0  0  0  0
    5.7406    0.6307    0.0000 C   0  0  0  0  0  0  0  0  0  0  0  0
    6.5103   -0.4597    0.0000 C   0  0  3  0  0  0  0  0  0  0  0  0
   -0.0107    0.6307    0.0000 C   0  0  0  0  0  0  0  0  0  0  0  0
    0.6948    1.0583    0.0000 C   0  0  0  0  0  0  0  0  0  0  0  0
    4.2867    0.6307    0.0000 C   0  0  0  0  0  0  0  0  0  0  0  0
   -0.7590    1.0369    0.0000 C   0  0  0  0  0  0  0  0  0  0  0  0
   -0.0320   -0.1818    0.0000 C   0  0  0  0  0  0  0  0  0  0  0  0
    5.0137    1.0369    0.0000 C   0  0  0  0  0  0  0  0  0  0  0  0
    5.0350   -0.5880    0.0000 C   0  0  0  0  0  0  0  0  0  0  0  0
    7.0021    0.2245    0.0000 C   0  0  0  0  0  0  0  0  0  0  0  0
    4.3081   -0.2031    0.0000 C   0  0  0  0  0  0  0  0  0  0  0  0
   -1.4646   -0.1818    0.0000 C   0  0  0  0  0  0  0  0  0  0  0  0
    1.4432    0.6521    0.0000 C   0  0  0  0  0  0  0  0  0  0  0  0
    2.1487    1.0583    0.0000 C   0  0  0  0  0  0  0  0  0  0  0  0
   -1.4432    0.6307    0.0000 C   0  0  0  0  0  0  0  0  0  0  0  0
   -0.7163   -0.5880    0.0000 C   0  0  0  0  0  0  0  0  0  0  0  0
    6.7668   -1.2293    0.0000 C   0  0  0  0  0  0  0  0  0  0  0  0
    0.7163    1.8708    0.0000 C   0  0  0  0  0  0  0  0  0  0  0  0
    2.8756    0.6307    0.0000 C   0  0  0  0  0  0  0  0  0  0  0  0
    2.1274    1.8708    0.0000 C   0  0  0  0  0  0  0  0  0  0  0  0
    1.4218    2.2770    0.0000 C   0  0  0  0  0  0  0  0  0  0  0  0
    7.5793   -1.4004    0.0000 C   0  0  0  0  0  0  0  0  0  0  0  0
   -0.7376    1.8921    0.0000 C   0  0  0  0  0  0  0  0  0  0  0  0
    0.7163   -0.6093    0.0000 C   0  0  0  0  0  0  0  0  0  0  0  0
   -2.8970   -0.2031    0.0000 C   0  0  0  0  0  0  0  0  0  0  0  0
   -3.6026   -0.6093    0.0000 C   0  0  0  0  0  0  0  0  0  0  0  0
   -5.7833   -0.2031    0.0000 C   0  0  0  0  0  0  0  0  0  0  0  0
    7.8786   -0.0107    0.0000 C   0  0  0  0  0  0  0  0  0  0  0  0
   -6.4676   -0.6093    0.0000 C   0  0  0  0  0  0  0  0  0  0  0  0
   -7.2158   -0.2031    0.0000 C   0  0  0  0  0  0  0  0  0  0  0  0
  1 41  1  0  0  0  0
  2  8  2  0  0  0  0
  2  9  2  0  0  0  0
  2 10  1  0  0  0  0
  2 38  1  0  0  0  0
  3 12  1  0  0  0  0
  3 21  1  0  0  0  0
  4 16  1  0  0  0  0
  4 30  1  0  0  0  0
  5 23  1  0  0  0  0
  5 36  1  0  0  0  0
  6 33  1  0  0  0  0
  6 39  1  0  0  0  0
  7 33  2  0  0  0  0
 10 37  1  0  0  0  0
 11 12  1  0  0  0  0
 11 13  1  0  0  0  0
 11 20  2  0  0  0  0
 12 19  2  0  0  0  0
 13 21  1  0  0  0  0
 13 28  1  0  0  0  0
 14 15  1  0  0  0  0
 14 17  2  0  0  0  0
 14 18  1  0  0  0  0
 15 24  2  0  0  0  0
 15 29  1  0  0  0  0
 16 19  1  0  0  0  0
 16 22  2  0  0  0  0
 17 26  1  0  0  0  0
 17 34  1  0  0  0  0
 18 27  2  0  0  0  0
 18 35  1  0  0  0  0
 20 22  1  0  0  0  0
 23 26  2  0  0  0  0
 23 27  1  0  0  0  0
 24 25  1  0  0  0  0
 25 30  1  0  0  0  0
 25 31  2  0  0  0  0
 28 33  1  0  0  0  0
 29 32  2  0  0  0  0
 31 32  1  0  0  0  0
 36 37  1  0  0  0  0
 38 40  1  0  0  0  0
 40 41  1  0  0  0  0
M  END
> <PUBCHEM_COMPOUND_ID_TYPE>
0

> <PUBCHEM_TOTAL_CHARGE>
0

> <PUBCHEM_SUBSTANCE_ID>
310945639

> <PUBCHEM_SUBSTANCE_VERSION>
1

> <PUBCHEM_EXT_DATASOURCE_NAME>
4488

> <PUBCHEM_EXT_DATASOURCE_REGID>
SCHEMBL16123738

> <PUBCHEM_SUBSTANCE_COMMENT>
InChI=1S/C31H36ClNO7S/c1-21-14-27(38-12-11-33-41(35,36)13-5-10-32)15-22(2)31(21)24-7-4-6-23(16-24)19-39-26-8-9-28-25(17-30(34)37-3)20-40-29(28)18-26/h4,6-9,14-16,18,25,33H,5,10-13,17,19-20H2,1-3H3
InChIKey=GKNYPIGQJRJNIG-UHFFFAOYSA-N

> <PUBCHEM_SUBSTANCE_SYNONYM>
SCHEMBL16123738

> <PUBCHEM_XREF_EXT_ID>
SCHEMBL16123738

> <PUBCHEM_EXT_DATASOURCE_URL>
https://www.surechembl.org/

> <PUBCHEM_EXT_SUBSTANCE_URL>
https://www.surechembl.org/chemical/SCHEMBL16123738

> <PUBCHEM_CID_ASSOCIATIONS>
117611650  1

> <PUBCHEM_COORDINATE_TYPE>
1
3

$$$$
