310938811
  -OEChem-07211613022D

 14 15  0     1  0  0  0  0  0999 V2000
   -0.0662    1.6771    0.0000 O   0  0  0  0  0  0  0  0  0  0  0  0
    1.1108    0.8680    0.0000 O   0  0  0  0  0  0  0  0  0  0  0  0
   -0.1839    0.2501    0.0000 C   0  0  3  0  0  0  0  0  0  0  0  0
    0.3752   -0.2796    0.0000 C   0  0  0  0  0  0  0  0  0  0  0  0
    0.0662   -1.0445    0.0000 C   0  0  0  0  0  0  0  0  0  0  0  0
   -0.9636   -0.2060    0.0000 C   0  0  0  0  0  0  0  0  0  0  0  0
    0.3016    0.9268    0.0000 C   0  0  0  0  0  0  0  0  0  0  0  0
   -0.7576   -0.9857    0.0000 C   0  0  0  0  0  0  0  0  0  0  0  0
   -0.9931    0.6767    0.0000 C   0  0  0  0  0  0  0  0  0  0  0  0
    1.1843   -0.1471    0.0000 C   0  0  0  0  0  0  0  0  0  0  0  0
    0.5958   -1.6771    0.0000 C   0  0  0  0  0  0  0  0  0  0  0  0
    1.6992   -0.7944    0.0000 C   0  0  0  0  0  0  0  0  0  0  0  0
    1.4049   -1.5447    0.0000 C   0  0  0  0  0  0  0  0  0  0  0  0
   -1.6992    0.2354    0.0000 C   0  0  0  0  0  0  0  0  0  0  0  0
  1  7  2  0  0  0  0
  2  7  1  0  0  0  0
  3  4  1  0  0  0  0
  3  6  1  0  0  0  0
  3  7  1  0  0  0  0
  3  9  1  0  0  0  0
  4  5  2  0  0  0  0
  4 10  1  0  0  0  0
  5  8  1  0  0  0  0
  5 11  1  0  0  0  0
  6  8  1  0  0  0  0
  9 14  1  0  0  0  0
 10 12  2  0  0  0  0
 11 13  2  0  0  0  0
 12 13  1  0  0  0  0
M  END
> <PUBCHEM_COMPOUND_ID_TYPE>
0

> <PUBCHEM_TOTAL_CHARGE>
0

> <PUBCHEM_SUBSTANCE_ID>
310938811

> <PUBCHEM_SUBSTANCE_VERSION>
1

> <PUBCHEM_EXT_DATASOURCE_NAME>
4488

> <PUBCHEM_EXT_DATASOURCE_REGID>
SCHEMBL16116728

> <PUBCHEM_SUBSTANCE_COMMENT>
InChI=1S/C12H14O2/c1-2-12(11(13)14)8-7-9-5-3-4-6-10(9)12/h3-6H,2,7-8H2,1H3,(H,13,14)
InChIKey=ADYQGVQJHZJHKO-UHFFFAOYSA-N

> <PUBCHEM_SUBSTANCE_SYNONYM>
SCHEMBL16116728

> <PUBCHEM_XREF_EXT_ID>
SCHEMBL16116728

> <PUBCHEM_EXT_DATASOURCE_URL>
https://www.surechembl.org/

> <PUBCHEM_EXT_SUBSTANCE_URL>
https://www.surechembl.org/chemical/SCHEMBL16116728

> <PUBCHEM_CID_ASSOCIATIONS>
65406815  1

> <PUBCHEM_COORDINATE_TYPE>
1
3

$$$$
