310930803
  -OEChem-07211613022D

 32 36  0     1  0  0  0  0  0999 V2000
    1.8725   -3.1640    0.0000 O   0  0  0  0  0  0  0  0  0  0  0  0
    6.1020   -2.0340    0.0000 O   0  0  0  0  0  0  0  0  0  0  0  0
    2.2600   -4.5523    0.0000 N   0  0  0  0  0  0  0  0  0  0  0  0
    3.5837   -4.3908    0.0000 N   0  0  0  0  0  0  0  0  0  0  0  0
    3.0994   -5.7791    0.0000 N   0  0  0  0  0  0  0  0  0  0  0  0
    9.6857    0.0000    0.0000 N   0  0  0  0  0  0  0  0  0  0  0  0
    3.2609   -3.6806    0.0000 C   0  0  3  0  0  0  0  0  0  0  0  0
    2.4214   -3.7451    0.0000 C   0  0  0  0  0  0  0  0  0  0  0  0
    2.8089   -2.9703    0.0000 C   0  0  0  0  0  0  0  0  0  0  0  0
    3.9712   -3.2609    0.0000 C   0  0  0  0  0  0  0  0  0  0  0  0
    3.0026   -4.9720    0.0000 C   0  0  0  0  0  0  0  0  0  0  0  0
    2.0663   -2.6151    0.0000 C   0  0  0  0  0  0  0  0  0  0  0  0
    2.7443   -2.1631    0.0000 C   0  0  0  0  0  0  0  0  0  0  0  0
    1.5174   -4.9074    0.0000 C   0  0  0  0  0  0  0  0  0  0  0  0
    3.9712   -2.4537    0.0000 C   0  0  0  0  0  0  0  0  0  0  0  0
    4.6814   -3.6806    0.0000 C   0  0  0  0  0  0  0  0  0  0  0  0
    4.6814   -2.0340    0.0000 C   0  0  0  0  0  0  0  0  0  0  0  0
    5.3917   -3.2609    0.0000 C   0  0  0  0  0  0  0  0  0  0  0  0
    1.4206   -5.7468    0.0000 C   0  0  0  0  0  0  0  0  0  0  0  0
    0.8394   -4.4554    0.0000 C   0  0  0  0  0  0  0  0  0  0  0  0
    5.3917   -2.4537    0.0000 C   0  0  0  0  0  0  0  0  0  0  0  0
    0.7103   -6.0697    0.0000 C   0  0  0  0  0  0  0  0  0  0  0  0
    0.0969   -4.8106    0.0000 C   0  0  0  0  0  0  0  0  0  0  0  0
    0.0000   -5.6500    0.0000 C   0  0  0  0  0  0  0  0  0  0  0  0
    6.8445   -2.4537    0.0000 C   0  0  0  0  0  0  0  0  0  0  0  0
    7.5549   -2.0663    0.0000 C   0  0  0  0  0  0  0  0  0  0  0  0
    7.5549   -1.2269    0.0000 C   0  0  0  0  0  0  0  0  0  0  0  0
    8.2651   -2.4537    0.0000 C   0  0  0  0  0  0  0  0  0  0  0  0
    8.9754   -1.2269    0.0000 C   0  0  0  0  0  0  0  0  0  0  0  0
    8.2651   -0.8071    0.0000 C   0  0  0  0  0  0  0  0  0  0  0  0
    8.9754   -2.0663    0.0000 C   0  0  0  0  0  0  0  0  0  0  0  0
    9.6857   -0.8071    0.0000 C   0  0  0  0  0  0  0  0  0  0  0  0
  1  8  2  0  0  0  0
  2 21  1  0  0  0  0
  2 25  1  0  0  0  0
  3  8  1  0  0  0  0
  3 11  1  0  0  0  0
  3 14  1  0  0  0  0
  4  7  1  0  0  0  0
  4 11  1  0  0  0  0
  5 11  2  3  0  0  0
  6 32  3  0  0  0  0
  7  8  1  0  0  0  0
  7  9  1  0  0  0  0
  7 10  1  0  0  0  0
  9 12  1  0  0  0  0
  9 13  1  0  0  0  0
 10 15  2  0  0  0  0
 10 16  1  0  0  0  0
 12 13  1  0  0  0  0
 14 19  1  0  0  0  0
 14 20  1  0  0  0  0
 15 17  1  0  0  0  0
 16 18  2  0  0  0  0
 17 21  2  0  0  0  0
 18 21  1  0  0  0  0
 19 22  1  0  0  0  0
 20 23  1  0  0  0  0
 22 24  1  0  0  0  0
 23 24  1  0  0  0  0
 25 26  1  0  0  0  0
 26 27  2  0  0  0  0
 26 28  1  0  0  0  0
 27 30  1  0  0  0  0
 28 31  2  0  0  0  0
 29 30  2  0  0  0  0
 29 31  1  0  0  0  0
 29 32  1  0  0  0  0
M  END
> <PUBCHEM_COMPOUND_ID_TYPE>
0

> <PUBCHEM_TOTAL_CHARGE>
0

> <PUBCHEM_SUBSTANCE_ID>
310930803

> <PUBCHEM_SUBSTANCE_VERSION>
1

> <PUBCHEM_EXT_DATASOURCE_NAME>
4488

> <PUBCHEM_EXT_DATASOURCE_REGID>
SCHEMBL16108100

> <PUBCHEM_SUBSTANCE_COMMENT>
InChI=1S/C26H28N4O2/c27-16-18-6-8-19(9-7-18)17-32-23-14-12-21(13-15-23)26(20-10-11-20)24(31)30(25(28)29-26)22-4-2-1-3-5-22/h6-9,12-15,20,22H,1-5,10-11,17H2,(H2,28,29)
InChIKey=ZKJOYECNCIWESO-UHFFFAOYSA-N

> <PUBCHEM_SUBSTANCE_SYNONYM>
SCHEMBL16108100

> <PUBCHEM_XREF_EXT_ID>
SCHEMBL16108100

> <PUBCHEM_EXT_DATASOURCE_URL>
https://www.surechembl.org/

> <PUBCHEM_EXT_SUBSTANCE_URL>
https://www.surechembl.org/chemical/SCHEMBL16108100

> <PUBCHEM_CID_ASSOCIATIONS>
86274552  1

> <PUBCHEM_COORDINATE_TYPE>
1
3

$$$$
