310946276
  -OEChem-07211613022D

 26 28  0     1  0  0  0  0  0999 V2000
    3.1099  -16.4365    0.0000 S   0  0  0  0  0  0  0  0  0  0  0  0
   -4.4290  -12.9097    0.0000 S   0  0  0  0  0  0  0  0  0  0  0  0
    2.2849  -16.4365    0.0000 O   0  0  0  0  0  0  0  0  0  0  0  0
   -0.5730  -16.4365    0.0000 O   0  0  0  0  0  0  0  0  0  0  0  0
   -0.5730  -13.1365    0.0000 O   0  0  0  0  0  0  0  0  0  0  0  0
    3.5224  -17.1510    0.0000 O   0  0  0  0  0  0  0  0  0  0  0  0
    3.5224  -15.7221    0.0000 O   0  0  0  0  0  0  0  0  0  0  0  0
   -2.0020  -13.9615    0.0000 O   0  0  0  0  0  0  0  0  0  0  0  0
    0.1415  -15.1990    0.0000 N   0  0  0  0  0  0  0  0  0  0  0  0
    1.5704  -16.0240    0.0000 N   0  0  0  0  0  0  0  0  0  0  0  0
   -1.2875  -14.3740    0.0000 N   0  0  0  0  0  0  0  0  0  0  0  0
   -3.6444  -11.8298    0.0000 N   0  0  0  0  0  0  0  0  0  0  0  0
   -4.0143  -14.5449    0.0000 N   0  0  0  0  0  0  0  0  0  0  0  0
    0.1415  -16.0240    0.0000 C   0  0  0  0  0  0  0  0  0  0  0  0
    1.5704  -15.1990    0.0000 C   0  0  3  0  0  0  0  0  0  0  0  0
    0.1415  -14.3740    0.0000 C   0  0  3  0  0  0  0  0  0  0  0  0
    0.8559  -15.6115    0.0000 C   0  0  0  0  0  0  0  0  0  0  0  0
    1.5704  -14.3740    0.0000 C   0  0  0  0  0  0  0  0  0  0  0  0
    0.8559  -13.9615    0.0000 C   0  0  0  0  0  0  0  0  0  0  0  0
   -0.5730  -13.9615    0.0000 C   0  0  0  0  0  0  0  0  0  0  0  0
    3.9349  -16.4365    0.0000 C   0  0  0  0  0  0  0  0  0  0  0  0
   -3.6444  -13.1646    0.0000 C   0  0  0  0  0  0  0  0  0  0  0  0
   -3.4309  -13.9615    0.0000 C   0  0  3  0  0  0  0  0  0  0  0  0
   -2.7164  -14.3740    0.0000 C   0  0  0  0  0  0  0  0  0  0  0  0
   -3.1595  -12.4972    0.0000 C   0  0  0  0  0  0  0  0  0  0  0  0
   -4.4290  -12.0847    0.0000 C   0  0  0  0  0  0  0  0  0  0  0  0
  1  3  1  0  0  0  0
  1  6  2  0  0  0  0
  1  7  2  0  0  0  0
  1 21  1  0  0  0  0
  2 22  1  0  0  0  0
  2 26  1  0  0  0  0
  3 10  1  0  0  0  0
  4 14  2  0  0  0  0
  5 20  2  0  0  0  0
  8 11  1  0  0  0  0
  8 24  1  0  0  0  0
  9 14  1  0  0  0  0
  9 16  1  0  0  0  0
  9 17  1  0  0  0  0
 10 14  1  0  0  0  0
 10 15  1  0  0  0  0
 11 20  1  0  0  0  0
 12 25  1  0  0  0  0
 12 26  2  0  0  0  0
 13 23  1  0  0  0  0
 15 17  1  6  0  0  0
 15 18  1  0  0  0  0
 16 19  1  0  0  0  0
 16 20  1  6  0  0  0
 18 19  1  0  0  0  0
 22 23  1  0  0  0  0
 22 25  2  0  0  0  0
 23 24  1  0  0  0  0
M  END
> <PUBCHEM_COMPOUND_ID_TYPE>
0

> <PUBCHEM_TOTAL_CHARGE>
0

> <PUBCHEM_SUBSTANCE_ID>
310946276

> <PUBCHEM_SUBSTANCE_VERSION>
1

> <PUBCHEM_EXT_DATASOURCE_NAME>
4488

> <PUBCHEM_EXT_DATASOURCE_REGID>
SCHEMBL16124394

> <PUBCHEM_SUBSTANCE_COMMENT>
InChI=1S/C13H19N5O6S2/c1-26(21,22)24-18-8-2-3-10(17(5-8)13(18)20)12(19)16-23-6-9(14)11-4-15-7-25-11/h4,7-10H,2-3,5-6,14H2,1H3,(H,16,19)/t8-,9?,10+/m1/s1
InChIKey=PLBHURJIJKVQLL-FIBVVXLUSA-N

> <PUBCHEM_SUBSTANCE_SYNONYM>
SCHEMBL16124394

> <PUBCHEM_XREF_EXT_ID>
SCHEMBL16124394

> <PUBCHEM_EXT_DATASOURCE_URL>
https://www.surechembl.org/

> <PUBCHEM_EXT_SUBSTANCE_URL>
https://www.surechembl.org/chemical/SCHEMBL16124394

> <PUBCHEM_CID_ASSOCIATIONS>
117612224  1

> <PUBCHEM_COORDINATE_TYPE>
1
3

> <PUBCHEM_BONDANNOTATIONS>
15  17  6
16  20  6

$$$$
