310940272
  -OEChem-07211613022D

 40 43  0     1  0  0  0  0  0999 V2000
    3.6571   -0.1524    0.0000 Cl  0  0  0  0  0  0  0  0  0  0  0  0
    1.0218   -1.5865    0.0000 Cl  0  0  0  0  0  0  0  0  0  0  0  0
    4.5176   -1.5865    0.0000 F   0  0  0  0  0  0  0  0  0  0  0  0
    2.4201    0.5826    0.0000 O   0  0  0  0  0  0  0  0  0  0  0  0
   -3.4957   -1.6762    0.0000 O   0  0  0  0  0  0  0  0  0  0  0  0
   -4.5176   -0.6543    0.0000 O   0  0  0  0  0  0  0  0  0  0  0  0
   -1.3445    1.4789    0.0000 N   0  0  0  0  0  0  0  0  0  0  0  0
   -1.4162    2.2857    0.0000 N   0  0  0  0  0  0  0  0  0  0  0  0
   -3.1193   -0.2958    0.0000 N   0  0  0  0  0  0  0  0  0  0  0  0
    1.9900    2.7338    0.0000 N   0  0  0  0  0  0  0  0  0  0  0  0
    3.2448    2.0168    0.0000 N   0  0  0  0  0  0  0  0  0  0  0  0
   -3.7468    2.2139    0.0000 N   0  0  0  0  0  0  0  0  0  0  0  0
   -1.9182    0.8874    0.0000 C   0  0  0  0  0  0  0  0  0  0  0  0
   -0.0897    1.9989    0.0000 C   0  0  0  0  0  0  0  0  0  0  0  0
   -0.5198    1.2818    0.0000 C   0  0  0  0  0  0  0  0  0  0  0  0
    0.7350    1.9810    0.0000 C   0  0  0  0  0  0  0  0  0  0  0  0
   -1.7210    0.0448    0.0000 C   0  0  0  0  0  0  0  0  0  0  0  0
   -2.7428    1.0667    0.0000 C   0  0  0  0  0  0  0  0  0  0  0  0
   -2.1334    1.6582    0.0000 C   0  0  0  0  0  0  0  0  0  0  0  0
   -0.6633    2.5904    0.0000 C   0  0  0  0  0  0  0  0  0  0  0  0
    1.9900    1.2639    0.0000 C   0  0  0  0  0  0  0  0  0  0  0  0
    1.1652    1.2818    0.0000 C   0  0  0  0  0  0  0  0  0  0  0  0
   -2.3126   -0.5288    0.0000 C   0  0  0  0  0  0  0  0  0  0  0  0
   -3.3344    0.4750    0.0000 C   0  0  0  0  0  0  0  0  0  0  0  0
    2.4201   -0.8874    0.0000 C   0  0  0  0  0  0  0  0  0  0  0  0
    2.0079   -0.1882    0.0000 C   0  0  3  0  0  0  0  0  0  0  0  0
    2.4022    2.0168    0.0000 C   0  0  0  0  0  0  0  0  0  0  0  0
    1.1652    2.6980    0.0000 C   0  0  0  0  0  0  0  0  0  0  0  0
    3.2448   -0.9233    0.0000 C   0  0  0  0  0  0  0  0  0  0  0  0
   -3.6930   -0.9053    0.0000 C   0  0  0  0  0  0  0  0  0  0  0  0
    2.0079   -1.6044    0.0000 C   0  0  0  0  0  0  0  0  0  0  0  0
    3.6571   -1.6223    0.0000 C   0  0  0  0  0  0  0  0  0  0  0  0
   -2.9938    1.9630    0.0000 C   0  0  0  0  0  0  0  0  0  0  0  0
    2.4380   -2.3215    0.0000 C   0  0  0  0  0  0  0  0  0  0  0  0
    3.2448   -2.3215    0.0000 C   0  0  0  0  0  0  0  0  0  0  0  0
   -2.6532   -1.9451    0.0000 C   0  0  0  0  0  0  0  0  0  0  0  0
    1.1832   -0.2062    0.0000 C   0  0  0  0  0  0  0  0  0  0  0  0
   -2.4380   -2.7338    0.0000 C   0  0  0  0  0  0  0  0  0  0  0  0
   -2.0795   -1.3175    0.0000 C   0  0  0  0  0  0  0  0  0  0  0  0
   -1.9361   -2.3215    0.0000 C   0  0  0  0  0  0  0  0  0  0  0  0
  1 29  1  0  0  0  0
  2 31  1  0  0  0  0
  3 32  1  0  0  0  0
  4 21  1  0  0  0  0
  4 26  1  0  0  0  0
  5 30  1  0  0  0  0
  5 36  1  0  0  0  0
  6 30  2  0  0  0  0
  7  8  1  0  0  0  0
  7 13  1  0  0  0  0
  7 15  1  0  0  0  0
  8 20  2  0  0  0  0
  9 23  1  0  0  0  0
  9 24  1  0  0  0  0
  9 30  1  0  0  0  0
 10 27  1  0  0  0  0
 10 28  2  0  0  0  0
 11 27  1  0  0  0  0
 12 33  3  0  0  0  0
 13 17  1  0  0  0  0
 13 18  1  0  0  0  0
 13 19  1  0  0  0  0
 14 15  2  0  0  0  0
 14 16  1  0  0  0  0
 14 20  1  0  0  0  0
 16 22  2  0  0  0  0
 16 28  1  0  0  0  0
 17 23  1  0  0  0  0
 18 24  1  0  0  0  0
 19 33  1  0  0  0  0
 21 22  1  0  0  0  0
 21 27  2  0  0  0  0
 25 26  1  0  0  0  0
 25 29  2  0  0  0  0
 25 31  1  0  0  0  0
 26 37  1  0  0  0  0
 29 32  1  0  0  0  0
 31 34  2  0  0  0  0
 32 35  2  0  0  0  0
 34 35  1  0  0  0  0
 36 38  1  0  0  0  0
 36 39  1  0  0  0  0
 36 40  1  0  0  0  0
M  END
> <PUBCHEM_COMPOUND_ID_TYPE>
0

> <PUBCHEM_TOTAL_CHARGE>
0

> <PUBCHEM_SUBSTANCE_ID>
310940272

> <PUBCHEM_SUBSTANCE_VERSION>
1

> <PUBCHEM_EXT_DATASOURCE_NAME>
4488

> <PUBCHEM_EXT_DATASOURCE_REGID>
SCHEMBL16118215

> <PUBCHEM_SUBSTANCE_COMMENT>
InChI=1S/C28H31Cl2FN6O3/c1-17(23-20(29)5-6-21(31)24(23)30)39-22-13-18(14-34-25(22)33)19-15-35-37(16-19)28(7-10-32)8-11-36(12-9-28)26(38)40-27(2,3)4/h5-6,13-17H,7-9,11-12H2,1-4H3,(H2,33,34)
InChIKey=SDNGVMRQLSQZKK-UHFFFAOYSA-N

> <PUBCHEM_SUBSTANCE_SYNONYM>
SCHEMBL16118215

> <PUBCHEM_XREF_EXT_ID>
SCHEMBL16118215

> <PUBCHEM_EXT_DATASOURCE_URL>
https://www.surechembl.org/

> <PUBCHEM_EXT_SUBSTANCE_URL>
https://www.surechembl.org/chemical/SCHEMBL16118215

> <PUBCHEM_CID_ASSOCIATIONS>
117607357  1

> <PUBCHEM_COORDINATE_TYPE>
1
3

$$$$
