310935635
  -OEChem-07211613022D

 43 48  0     1  0  0  0  0  0999 V2000
   -1.4290   -4.5375    0.0000 S   0  0  0  0  0  0  0  0  0  0  0  0
   -1.8415   -3.8230    0.0000 O   0  0  0  0  0  0  0  0  0  0  0  0
   -1.0165   -5.2520    0.0000 O   0  0  0  0  0  0  0  0  0  0  0  0
   -4.2868    0.4125    0.0000 O   0  0  0  0  0  0  0  0  0  0  0  0
    0.7144   -1.6500    0.0000 N   0  0  3  0  0  0  0  0  0  0  0  0
    1.4290   -0.4125    0.0000 N   0  0  0  0  0  0  0  0  0  0  0  0
    0.7144    0.8250    0.0000 N   0  0  0  0  0  0  0  0  0  0  0  0
   -2.1434   -4.9500    0.0000 N   0  0  3  0  0  0  0  0  0  0  0  0
   -3.5724   -1.6500    0.0000 N   0  0  0  0  0  0  0  0  0  0  0  0
   -5.0013   -0.8250    0.0000 N   0  0  0  0  0  0  0  0  0  0  0  0
   -5.0013   -5.7750    0.0000 N   0  0  0  0  0  0  0  0  0  0  0  0
    0.0000   -0.4125    0.0000 C   0  0  0  0  0  0  0  0  0  0  0  0
    0.7144   -0.8250    0.0000 C   0  0  0  0  0  0  0  0  0  0  0  0
    0.0000    0.4125    0.0000 C   0  0  0  0  0  0  0  0  0  0  0  0
    0.0000   -2.8875    0.0000 C   0  0  0  0  0  0  0  0  0  0  0  0
   -0.7144   -4.1250    0.0000 C   0  0  0  0  0  0  0  0  0  0  0  0
   -1.4290   -0.4125    0.0000 C   0  0  0  0  0  0  0  0  0  0  0  0
    0.7144   -3.3000    0.0000 C   0  0  0  0  0  0  0  0  0  0  0  0
   -0.7144   -0.8250    0.0000 C   0  0  0  0  0  0  0  0  0  0  0  0
   -0.7144    0.8250    0.0000 C   0  0  0  0  0  0  0  0  0  0  0  0
    0.0000   -2.0625    0.0000 C   0  0  0  0  0  0  0  0  0  0  0  0
   -0.7144   -3.3000    0.0000 C   0  0  0  0  0  0  0  0  0  0  0  0
   -1.4290    0.4125    0.0000 C   0  0  0  0  0  0  0  0  0  0  0  0
    1.4290   -2.0625    0.0000 C   0  0  0  0  0  0  0  0  0  0  0  0
   -2.1434   -0.8250    0.0000 C   0  0  0  0  0  0  0  0  0  0  0  0
    1.4290   -2.8875    0.0000 C   0  0  0  0  0  0  0  0  0  0  0  0
    0.0000   -4.5375    0.0000 C   0  0  0  0  0  0  0  0  0  0  0  0
    0.7144   -4.1250    0.0000 C   0  0  0  0  0  0  0  0  0  0  0  0
    1.4290    0.4125    0.0000 C   0  0  0  0  0  0  0  0  0  0  0  0
   -2.8579   -0.4125    0.0000 C   0  0  0  0  0  0  0  0  0  0  0  0
   -2.1434   -1.6500    0.0000 C   0  0  0  0  0  0  0  0  0  0  0  0
   -0.7144    1.6500    0.0000 C   0  0  0  0  0  0  0  0  0  0  0  0
   -3.5724   -0.8250    0.0000 C   0  0  0  0  0  0  0  0  0  0  0  0
   -2.8579   -4.5375    0.0000 C   0  0  0  0  0  0  0  0  0  0  0  0
   -2.8579   -2.0625    0.0000 C   0  0  0  0  0  0  0  0  0  0  0  0
   -3.5724   -4.9500    0.0000 C   0  0  0  0  0  0  0  0  0  0  0  0
   -2.1434   -5.7750    0.0000 C   0  0  0  0  0  0  0  0  0  0  0  0
   -4.2868   -0.4125    0.0000 C   0  0  0  0  0  0  0  0  0  0  0  0
   -4.2868   -4.5375    0.0000 C   0  0  0  0  0  0  0  0  0  0  0  0
   -3.5724   -5.7750    0.0000 C   0  0  0  0  0  0  0  0  0  0  0  0
   -5.0013   -4.9500    0.0000 C   0  0  0  0  0  0  0  0  0  0  0  0
   -4.2868   -6.1875    0.0000 C   0  0  0  0  0  0  0  0  0  0  0  0
   -5.7158   -0.4125    0.0000 C   0  0  0  0  0  0  0  0  0  0  0  0
  1  2  2  0  0  0  0
  1  3  2  0  0  0  0
  1  8  1  0  0  0  0
  1 16  1  0  0  0  0
  4 38  2  0  0  0  0
  5 13  1  0  0  0  0
  5 21  1  0  0  0  0
  5 24  1  0  0  0  0
  6 13  1  0  0  0  0
  6 29  2  0  0  0  0
  7 14  2  0  0  0  0
  7 29  1  0  0  0  0
  8 34  1  0  0  0  0
  8 37  1  0  0  0  0
  9 33  2  0  0  0  0
  9 35  1  0  0  0  0
 10 38  1  0  0  0  0
 10 43  1  0  0  0  0
 11 41  1  0  0  0  0
 11 42  1  0  0  0  0
 12 13  2  0  0  0  0
 12 14  1  0  0  0  0
 12 19  1  0  0  0  0
 14 20  1  0  0  0  0
 15 18  2  0  0  0  0
 15 21  1  0  0  0  0
 15 22  1  0  0  0  0
 16 22  2  0  0  0  0
 16 27  1  0  0  0  0
 17 19  2  0  0  0  0
 17 23  1  0  0  0  0
 17 25  1  0  0  0  0
 18 26  1  0  0  0  0
 18 28  1  0  0  0  0
 20 23  2  0  0  0  0
 20 32  1  0  0  0  0
 24 26  1  0  0  0  0
 25 30  2  0  0  0  0
 25 31  1  0  0  0  0
 27 28  2  0  0  0  0
 30 33  1  0  0  0  0
 31 35  2  0  0  0  0
 33 38  1  0  0  0  0
 34 36  1  0  0  0  0
 36 39  1  0  0  0  0
 36 40  1  0  0  0  0
 39 41  1  0  0  0  0
 40 42  1  0  0  0  0
M  END
> <PUBCHEM_COMPOUND_ID_TYPE>
0

> <PUBCHEM_TOTAL_CHARGE>
0

> <PUBCHEM_SUBSTANCE_ID>
310935635

> <PUBCHEM_SUBSTANCE_VERSION>
1

> <PUBCHEM_EXT_DATASOURCE_NAME>
4488

> <PUBCHEM_EXT_DATASOURCE_REGID>
SCHEMBL16113213

> <PUBCHEM_SUBSTANCE_COMMENT>
InChI=1S/C32H37N7O3S/c1-21-14-25(24-8-12-35-29(17-24)32(40)33-2)16-28-30(21)36-20-37-31(28)39-13-9-23-4-5-27(15-26(23)19-39)43(41,42)38(3)18-22-6-10-34-11-7-22/h4-5,8,12,14-17,20,22,34H,6-7,9-11,13,18-19H2,1-3H3,(H,33,40)
InChIKey=DQNRKPHPBQFGTL-UHFFFAOYSA-N

> <PUBCHEM_SUBSTANCE_SYNONYM>
SCHEMBL16113213

> <PUBCHEM_XREF_EXT_ID>
SCHEMBL16113213

> <PUBCHEM_EXT_DATASOURCE_URL>
https://www.surechembl.org/

> <PUBCHEM_EXT_SUBSTANCE_URL>
https://www.surechembl.org/chemical/SCHEMBL16113213

> <PUBCHEM_CID_ASSOCIATIONS>
86301688  1

> <PUBCHEM_COORDINATE_TYPE>
1
3

$$$$
