310942244
  -OEChem-07211613022D

 11 10  0     1  0  0  0  0  0999 V2000
    0.4200    1.0971    0.0000 O   0  0  0  0  0  0  0  0  0  0  0  0
   -0.8839    0.3323    0.0000 N   0  0  0  0  0  0  0  0  0  0  0  0
    1.2350    0.0063    0.0000 N   0  0  0  0  0  0  0  0  0  0  0  0
   -0.7335   -1.0971    0.0000 N   0  0  0  0  0  0  0  0  0  0  0  0
   -0.0564    0.4200    0.0000 C   0  0  3  0  0  0  0  0  0  0  0  0
    0.4325   -0.2445    0.0000 C   0  0  0  0  0  0  0  0  0  0  0  0
   -1.2350   -0.4325    0.0000 C   0  0  0  0  0  0  0  0  0  0  0  0
    1.1974    0.8463    0.0000 C   0  0  0  0  0  0  0  0  0  0  0  0
    0.0940   -1.0093    0.0000 C   0  0  0  0  0  0  0  0  0  0  0  0
    1.1723    0.6457    0.0000 C   0  0  0  0  0  0  0  0  0  0  0  0
    0.2696   -0.6081    0.0000 C   0  0  0  0  0  0  0  0  0  0  0  0
  1  5  1  0  0  0  0
  1  8  1  0  0  0  0
  2  5  1  0  0  0  0
  2  7  1  0  0  0  0
  3  6  1  0  0  0  0
  3 10  2  0  0  0  0
  4  7  1  0  0  0  0
  4  9  1  0  0  0  0
  5  6  1  0  0  0  0
  9 11  1  0  0  0  0
M  END
> <PUBCHEM_COMPOUND_ID_TYPE>
0

> <PUBCHEM_TOTAL_CHARGE>
0

> <PUBCHEM_SUBSTANCE_ID>
310942244

> <PUBCHEM_SUBSTANCE_VERSION>
1

> <PUBCHEM_EXT_DATASOURCE_NAME>
4488

> <PUBCHEM_EXT_DATASOURCE_REGID>
SCHEMBL16120279

> <PUBCHEM_SUBSTANCE_COMMENT>
InChI=1S/C7H17N3O/c1-4-9-6-10-7(11-3)5-8-2/h7,9-10H,2,4-6H2,1,3H3
InChIKey=BLHLVEYMJLFEAD-UHFFFAOYSA-N

> <PUBCHEM_SUBSTANCE_SYNONYM>
SCHEMBL16120279

> <PUBCHEM_XREF_EXT_ID>
SCHEMBL16120279

> <PUBCHEM_EXT_DATASOURCE_URL>
https://www.surechembl.org/

> <PUBCHEM_EXT_SUBSTANCE_URL>
https://www.surechembl.org/chemical/SCHEMBL16120279

> <PUBCHEM_CID_ASSOCIATIONS>
117608895  1

> <PUBCHEM_COORDINATE_TYPE>
1
3

$$$$
