310929981
  -OEChem-07211613022D

 47 50  0     1  0  0  0  0  0999 V2000
   -0.2930    5.9420    0.0000 O   0  0  0  0  0  0  0  0  0  0  0  0
    0.7965    3.3000    0.0000 O   0  0  0  0  0  0  0  0  0  0  0  0
   -2.0363    3.6774    0.0000 O   0  0  0  0  0  0  0  0  0  0  0  0
   -1.4915    2.3564    0.0000 O   0  0  0  0  0  0  0  0  0  0  0  0
    0.5786    7.0743    0.0000 N   0  0  0  0  0  0  0  0  0  0  0  0
    1.9951    6.8856    0.0000 N   0  0  0  0  0  0  0  0  0  0  0  0
    1.4503    8.2066    0.0000 N   0  0  0  0  0  0  0  0  0  0  0  0
    1.2324    6.5711    0.0000 C   0  0  0  0  0  0  0  0  0  0  0  0
    0.6876    7.8921    0.0000 C   0  0  0  0  0  0  0  0  0  0  0  0
    2.1040    7.7034    0.0000 C   0  0  0  0  0  0  0  0  0  0  0  0
    1.1234    5.7533    0.0000 C   0  0  0  0  0  0  0  0  0  0  0  0
    0.0339    8.3954    0.0000 C   0  0  0  0  0  0  0  0  0  0  0  0
    2.8667    8.0179    0.0000 C   0  0  0  0  0  0  0  0  0  0  0  0
    0.3607    5.4388    0.0000 C   0  0  0  0  0  0  0  0  0  0  0  0
   -0.7288    8.0808    0.0000 C   0  0  0  0  0  0  0  0  0  0  0  0
    2.9757    8.8357    0.0000 C   0  0  0  0  0  0  0  0  0  0  0  0
    1.7771    5.2501    0.0000 C   0  0  0  0  0  0  0  0  0  0  0  0
    0.1428    9.2131    0.0000 C   0  0  0  0  0  0  0  0  0  0  0  0
    3.5204    7.5147    0.0000 C   0  0  0  0  0  0  0  0  0  0  0  0
    0.2518    4.6210    0.0000 C   0  0  0  0  0  0  0  0  0  0  0  0
    0.9055    4.1178    0.0000 C   0  0  0  0  0  0  0  0  0  0  0  0
    1.6682    4.4323    0.0000 C   0  0  0  0  0  0  0  0  0  0  0  0
   -1.3826    8.5841    0.0000 C   0  0  0  0  0  0  0  0  0  0  0  0
    3.7384    9.1502    0.0000 C   0  0  0  0  0  0  0  0  0  0  0  0
   -1.2736    9.4018    0.0000 C   0  0  0  0  0  0  0  0  0  0  0  0
    4.3921    8.6470    0.0000 C   0  0  0  0  0  0  0  0  0  0  0  0
   -0.5109    9.7164    0.0000 C   0  0  0  0  0  0  0  0  0  0  0  0
    4.2831    7.8292    0.0000 C   0  0  0  0  0  0  0  0  0  0  0  0
   -0.8378    7.2631    0.0000 C   0  0  0  0  0  0  0  0  0  0  0  0
    2.3219    9.3389    0.0000 C   0  0  0  0  0  0  0  0  0  0  0  0
   -1.9273    9.9051    0.0000 C   0  0  0  0  0  0  0  0  0  0  0  0
    5.1548    8.9615    0.0000 C   0  0  0  0  0  0  0  0  0  0  0  0
    0.0339    2.9855    0.0000 C   0  0  0  0  0  0  0  0  0  0  0  0
   -0.6199    3.4887    0.0000 C   0  0  0  0  0  0  0  0  0  0  0  0
   -1.3826    3.1742    0.0000 C   0  0  3  0  0  0  0  0  0  0  0  0
   -2.7990    3.3629    0.0000 C   0  0  0  0  0  0  0  0  0  0  0  0
   -3.4527    3.8662    0.0000 C   0  0  0  0  0  0  0  0  0  0  0  0
   -4.2154    3.5516    0.0000 C   0  0  0  0  0  0  0  0  0  0  0  0
   -4.8692    4.0549    0.0000 C   0  0  0  0  0  0  0  0  0  0  0  0
   -5.6318    3.7403    0.0000 C   0  0  0  0  0  0  0  0  0  0  0  0
   -5.7408    2.9226    0.0000 C   0  0  0  0  0  0  0  0  0  0  0  0
   -6.5035    2.6080    0.0000 C   0  0  0  0  0  0  0  0  0  0  0  0
   -7.1572    3.1113    0.0000 C   0  0  0  0  0  0  0  0  0  0  0  0
   -7.9199    2.7968    0.0000 C   0  0  0  0  0  0  0  0  0  0  0  0
   -8.5737    3.3000    0.0000 C   0  0  0  0  0  0  0  0  0  0  0  0
   -9.3363    2.9855    0.0000 C   0  0  0  0  0  0  0  0  0  0  0  0
   -9.9901    3.4887    0.0000 C   0  0  0  0  0  0  0  0  0  0  0  0
  1 14  1  0  0  0  0
  2 21  1  0  0  0  0
  2 33  1  0  0  0  0
  3 35  1  0  0  0  0
  3 36  1  0  0  0  0
  4 35  1  0  0  0  0
  5  8  2  0  0  0  0
  5  9  1  0  0  0  0
  6  8  1  0  0  0  0
  6 10  2  0  0  0  0
  7  9  2  0  0  0  0
  7 10  1  0  0  0  0
  8 11  1  0  0  0  0
  9 12  1  0  0  0  0
 10 13  1  0  0  0  0
 11 14  2  0  0  0  0
 11 17  1  0  0  0  0
 12 15  2  0  0  0  0
 12 18  1  0  0  0  0
 13 16  2  0  0  0  0
 13 19  1  0  0  0  0
 14 20  1  0  0  0  0
 15 23  1  0  0  0  0
 15 29  1  0  0  0  0
 16 24  1  0  0  0  0
 16 30  1  0  0  0  0
 17 22  2  0  0  0  0
 18 27  2  0  0  0  0
 19 28  2  0  0  0  0
 20 21  2  0  0  0  0
 21 22  1  0  0  0  0
 23 25  2  0  0  0  0
 24 26  2  0  0  0  0
 25 27  1  0  0  0  0
 25 31  1  0  0  0  0
 26 28  1  0  0  0  0
 26 32  1  0  0  0  0
 33 34  1  0  0  0  0
 34 35  1  0  0  0  0
 36 37  1  0  0  0  0
 37 38  1  0  0  0  0
 38 39  1  0  0  0  0
 39 40  1  0  0  0  0
 40 41  1  0  0  0  0
 41 42  1  0  0  0  0
 42 43  1  0  0  0  0
 43 44  1  0  0  0  0
 44 45  1  0  0  0  0
 45 46  1  0  0  0  0
 46 47  1  0  0  0  0
M  END
> <PUBCHEM_COMPOUND_ID_TYPE>
0

> <PUBCHEM_TOTAL_CHARGE>
0

> <PUBCHEM_SUBSTANCE_ID>
310929981

> <PUBCHEM_SUBSTANCE_VERSION>
1

> <PUBCHEM_EXT_DATASOURCE_NAME>
4488

> <PUBCHEM_EXT_DATASOURCE_REGID>
SCHEMBL16107214

> <PUBCHEM_SUBSTANCE_COMMENT>
InChI=1S/C40H53N3O4/c1-6-7-8-9-10-11-12-13-14-15-23-47-37(45)22-24-46-32-18-21-35(36(44)27-32)40-42-38(33-19-16-28(2)25-30(33)4)41-39(43-40)34-20-17-29(3)26-31(34)5/h16-21,25-27,37,44-45H,6-15,22-24H2,1-5H3
InChIKey=CMIUXFAWAAEIJH-UHFFFAOYSA-N

> <PUBCHEM_SUBSTANCE_SYNONYM>
SCHEMBL16107214

> <PUBCHEM_XREF_EXT_ID>
SCHEMBL16107214

> <PUBCHEM_EXT_DATASOURCE_URL>
https://www.surechembl.org/

> <PUBCHEM_EXT_SUBSTANCE_URL>
https://www.surechembl.org/chemical/SCHEMBL16107214

> <PUBCHEM_CID_ASSOCIATIONS>
117599239  1

> <PUBCHEM_COORDINATE_TYPE>
1
3

$$$$
