310941158
  -OEChem-07211613022D

 42 45  0     1  0  0  0  0  0999 V2000
    5.2079   -1.4327    0.0000 O   0  0  0  0  0  0  0  0  0  0  0  0
    4.0708    0.5383    0.0000 O   0  0  0  0  0  0  0  0  0  0  0  0
    1.6905   -1.4176    0.0000 O   0  0  0  0  0  0  0  0  0  0  0  0
   -0.4776    0.6746    0.0000 O   0  0  0  0  0  0  0  0  0  0  0  0
    3.8434    2.3424    0.0000 O   0  0  0  0  0  0  0  0  0  0  0  0
    2.4030    3.1763    0.0000 O   0  0  0  0  0  0  0  0  0  0  0  0
   -2.6456   -1.4176    0.0000 O   0  0  0  0  0  0  0  0  0  0  0  0
   -5.5263    1.0840    0.0000 O   0  0  0  0  0  0  0  0  0  0  0  0
    2.4030   -0.1592    0.0000 N   0  0  0  0  0  0  0  0  0  0  0  0
    0.2502   -0.5837    0.0000 N   0  0  0  0  0  0  0  0  0  0  0  0
   -1.9179   -0.1592    0.0000 N   0  0  0  0  0  0  0  0  0  0  0  0
    4.7985   -0.6898    0.0000 C   0  0  3  0  0  0  0  0  0  0  0  0
    4.0557   -0.2805    0.0000 C   0  0  0  0  0  0  0  0  0  0  0  0
    4.3892   -1.3873    0.0000 C   0  0  0  0  0  0  0  0  0  0  0  0
    3.3582   -0.6746    0.0000 C   0  0  3  0  0  0  0  0  0  0  0  0
    5.5263   -0.2653    0.0000 C   0  0  0  0  0  0  0  0  0  0  0  0
    3.3582   -1.7663    0.0000 C   0  0  0  0  0  0  0  0  0  0  0  0
    1.6905   -0.5383    0.0000 C   0  0  0  0  0  0  0  0  0  0  0  0
    0.9778   -0.1440    0.0000 C   0  0  3  0  0  0  0  0  0  0  0  0
    2.6305   -2.1756    0.0000 C   0  0  0  0  0  0  0  0  0  0  0  0
    0.9931    0.7050    0.0000 C   0  0  0  0  0  0  0  0  0  0  0  0
    1.6754    1.1143    0.0000 C   0  0  0  0  0  0  0  0  0  0  0  0
   -0.4776   -0.1592    0.0000 C   0  0  0  0  0  0  0  0  0  0  0  0
    2.5244   -3.0095    0.0000 C   0  0  0  0  0  0  0  0  0  0  0  0
    1.8724   -1.8573    0.0000 C   0  0  0  0  0  0  0  0  0  0  0  0
    1.7057    1.9482    0.0000 C   0  0  0  0  0  0  0  0  0  0  0  0
    2.4182    2.3576    0.0000 C   0  0  0  0  0  0  0  0  0  0  0  0
   -1.1901   -0.5534    0.0000 C   0  0  3  0  0  0  0  0  0  0  0  0
    3.1309    1.9482    0.0000 C   0  0  0  0  0  0  0  0  0  0  0  0
    2.4182    0.7050    0.0000 C   0  0  0  0  0  0  0  0  0  0  0  0
    3.1309    1.1143    0.0000 C   0  0  0  0  0  0  0  0  0  0  0  0
   -2.6305   -0.5383    0.0000 C   0  0  0  0  0  0  0  0  0  0  0  0
    1.7360   -3.1763    0.0000 C   0  0  0  0  0  0  0  0  0  0  0  0
    1.3266   -2.4637    0.0000 C   0  0  0  0  0  0  0  0  0  0  0  0
   -3.3582   -0.1289    0.0000 C   0  0  0  0  0  0  0  0  0  0  0  0
   -4.0708   -0.5534    0.0000 C   0  0  0  0  0  0  0  0  0  0  0  0
   -3.3582    0.6898    0.0000 C   0  0  0  0  0  0  0  0  0  0  0  0
   -1.1901   -1.4024    0.0000 C   0  0  0  0  0  0  0  0  0  0  0  0
   -4.7834    0.6898    0.0000 C   0  0  0  0  0  0  0  0  0  0  0  0
   -4.7834   -0.1440    0.0000 C   0  0  0  0  0  0  0  0  0  0  0  0
   -4.0860    1.0992    0.0000 C   0  0  0  0  0  0  0  0  0  0  0  0
    4.6014    1.9179    0.0000 C   0  0  0  0  0  0  0  0  0  0  0  0
  1 12  1  0  0  0  0
  1 14  1  0  0  0  0
  2 13  2  0  0  0  0
  3 18  2  0  0  0  0
  4 23  2  0  0  0  0
  5 29  1  0  0  0  0
  5 42  1  0  0  0  0
  6 27  1  0  0  0  0
  7 32  2  0  0  0  0
  8 39  1  0  0  0  0
  9 15  1  0  0  0  0
  9 18  1  0  0  0  0
 10 19  1  0  0  0  0
 10 23  1  0  0  0  0
 11 28  1  0  0  0  0
 11 32  1  0  0  0  0
 12 13  1  0  0  0  0
 12 14  1  0  0  0  0
 12 16  1  0  0  0  0
 13 15  1  0  0  0  0
 15 17  1  0  0  0  0
 17 20  1  0  0  0  0
 18 19  1  0  0  0  0
 19 21  1  0  0  0  0
 20 24  2  0  0  0  0
 20 25  1  0  0  0  0
 21 22  1  0  0  0  0
 22 26  1  0  0  0  0
 22 30  2  0  0  0  0
 23 28  1  0  0  0  0
 24 33  1  0  0  0  0
 25 34  1  0  0  0  0
 26 27  2  0  0  0  0
 27 29  1  0  0  0  0
 28 38  1  0  0  0  0
 29 31  2  0  0  0  0
 30 31  1  0  0  0  0
 32 35  1  0  0  0  0
 33 34  1  0  0  0  0
 35 36  1  0  0  0  0
 35 37  1  0  0  0  0
 36 40  1  0  0  0  0
 37 41  1  0  0  0  0
 39 40  1  0  0  0  0
 39 41  1  0  0  0  0
M  END
> <PUBCHEM_COMPOUND_ID_TYPE>
0

> <PUBCHEM_TOTAL_CHARGE>
0

> <PUBCHEM_SUBSTANCE_ID>
310941158

> <PUBCHEM_SUBSTANCE_VERSION>
1

> <PUBCHEM_EXT_DATASOURCE_NAME>
4488

> <PUBCHEM_EXT_DATASOURCE_REGID>
SCHEMBL16119118

> <PUBCHEM_SUBSTANCE_COMMENT>
InChI=1S/C31H43N3O8/c1-18(32-29(39)21-9-11-22(35)12-10-21)28(38)34-24(15-20-8-13-26(41-3)25(36)16-20)30(40)33-23(14-19-6-4-5-7-19)27(37)31(2)17-42-31/h6,8,13,16,18,21-24,35-36H,4-5,7,9-12,14-15,17H2,1-3H3,(H,32,39)(H,33,40)(H,34,38)
InChIKey=RVHYWZNAZFBRDL-UHFFFAOYSA-N

> <PUBCHEM_SUBSTANCE_SYNONYM>
SCHEMBL16119118

> <PUBCHEM_XREF_EXT_ID>
SCHEMBL16119118

> <PUBCHEM_EXT_DATASOURCE_URL>
https://www.surechembl.org/

> <PUBCHEM_EXT_SUBSTANCE_URL>
https://www.surechembl.org/chemical/SCHEMBL16119118

> <PUBCHEM_CID_ASSOCIATIONS>
86295281  1

> <PUBCHEM_COORDINATE_TYPE>
1
3

$$$$
