310934549
  -OEChem-07211613022D

 26 29  0     1  0  0  0  0  0999 V2000
    0.0000   -2.8987    0.0000 Br  0  0  0  0  0  0  0  0  0  0  0  0
    2.5739   -3.8983    0.0000 S   0  0  0  0  0  0  0  0  0  0  0  0
    6.8970   -0.6497    0.0000 F   0  0  0  0  0  0  0  0  0  0  0  0
    5.7225   -2.8987    0.0000 O   0  0  0  0  0  0  0  0  0  0  0  0
    5.7225   -1.4994    0.0000 O   0  0  0  0  0  0  0  0  0  0  0  0
    1.7992   -2.8238    0.0000 N   0  0  0  0  0  0  0  0  0  0  0  0
    4.4981   -2.1990    0.0000 C   0  0  3  0  0  0  0  0  0  0  0  0
    4.8979   -1.4743    0.0000 C   0  0  0  0  0  0  0  0  0  0  0  0
    3.2486   -2.5989    0.0000 C   0  0  0  0  0  0  0  0  0  0  0  0
    4.0233   -2.8737    0.0000 C   0  0  0  0  0  0  0  0  0  0  0  0
    2.5739   -3.0737    0.0000 C   0  0  0  0  0  0  0  0  0  0  0  0
    4.0233   -1.5244    0.0000 C   0  0  0  0  0  0  0  0  0  0  0  0
    5.3226   -2.1990    0.0000 C   0  0  0  0  0  0  0  0  0  0  0  0
    1.2994   -3.4735    0.0000 C   0  0  0  0  0  0  0  0  0  0  0  0
    3.2486   -1.7992    0.0000 C   0  0  0  0  0  0  0  0  0  0  0  0
    1.7992   -4.1732    0.0000 C   0  0  0  0  0  0  0  0  0  0  0  0
    5.8724   -1.5743    0.0000 C   0  0  0  0  0  0  0  0  0  0  0  0
    4.4480   -0.7746    0.0000 C   0  0  0  0  0  0  0  0  0  0  0  0
    0.4748   -3.5734    0.0000 C   0  0  0  0  0  0  0  0  0  0  0  0
    6.0724   -0.6997    0.0000 C   0  0  0  0  0  0  0  0  0  0  0  0
    1.4493   -4.9229    0.0000 C   0  0  0  0  0  0  0  0  0  0  0  0
    4.8229   -0.0250    0.0000 C   0  0  0  0  0  0  0  0  0  0  0  0
    0.1499   -4.2981    0.0000 C   0  0  0  0  0  0  0  0  0  0  0  0
    5.6475    0.0000    0.0000 C   0  0  0  0  0  0  0  0  0  0  0  0
    0.6497   -4.9978    0.0000 C   0  0  0  0  0  0  0  0  0  0  0  0
    6.1473   -2.0991    0.0000 C   0  0  0  0  0  0  0  0  0  0  0  0
  1 19  1  0  0  0  0
  2 11  1  0  0  0  0
  2 16  1  0  0  0  0
  3 20  1  0  0  0  0
  4 13  2  0  0  0  0
  5 13  1  0  0  0  0
  6 11  2  0  0  0  0
  6 14  1  0  0  0  0
  7  8  1  0  0  0  0
  7 10  1  0  0  0  0
  7 12  1  0  0  0  0
  7 13  1  0  0  0  0
  8 17  1  0  0  0  0
  8 18  2  0  0  0  0
  9 10  2  0  0  0  0
  9 11  1  0  0  0  0
  9 15  1  0  0  0  0
 12 15  1  0  0  0  0
 14 16  2  0  0  0  0
 14 19  1  0  0  0  0
 16 21  1  0  0  0  0
 17 20  2  0  0  0  0
 17 26  1  0  0  0  0
 18 22  1  0  0  0  0
 19 23  2  0  0  0  0
 20 24  1  0  0  0  0
 21 25  2  0  0  0  0
 22 24  2  0  0  0  0
 23 25  1  0  0  0  0
M  END
> <PUBCHEM_COMPOUND_ID_TYPE>
0

> <PUBCHEM_TOTAL_CHARGE>
0

> <PUBCHEM_SUBSTANCE_ID>
310934549

> <PUBCHEM_SUBSTANCE_VERSION>
1

> <PUBCHEM_EXT_DATASOURCE_NAME>
4488

> <PUBCHEM_EXT_DATASOURCE_REGID>
SCHEMBL16112040

> <PUBCHEM_SUBSTANCE_COMMENT>
InChI=1S/C20H15BrFNO2S/c1-11-13(4-2-6-15(11)22)20(19(24)25)9-8-12(10-20)18-23-17-14(21)5-3-7-16(17)26-18/h2-7,10H,8-9H2,1H3,(H,24,25)
InChIKey=UTGYAFWGKAJOTD-UHFFFAOYSA-N

> <PUBCHEM_SUBSTANCE_SYNONYM>
SCHEMBL16112040

> <PUBCHEM_XREF_EXT_ID>
SCHEMBL16112040

> <PUBCHEM_EXT_DATASOURCE_URL>
https://www.surechembl.org/

> <PUBCHEM_EXT_SUBSTANCE_URL>
https://www.surechembl.org/chemical/SCHEMBL16112040

> <PUBCHEM_CID_ASSOCIATIONS>
117602741  1

> <PUBCHEM_COORDINATE_TYPE>
1
3

$$$$
