310937828
  -OEChem-07211613022D

 25 27  0     1  0  0  0  0  0999 V2000
    5.6661   -2.2440    0.0000 O   0  0  0  0  0  0  0  0  0  0  0  0
    1.5147   -2.9733    0.0000 O   0  0  0  0  0  0  0  0  0  0  0  0
    0.3085   -4.7966    0.0000 O   0  0  0  0  0  0  0  0  0  0  0  0
    4.3758   -1.8232    0.0000 N   0  0  0  0  0  0  0  0  0  0  0  0
    3.7868   -3.9270    0.0000 N   0  0  0  0  0  0  0  0  0  0  0  0
    5.1612   -2.9172    0.0000 N   0  0  0  0  0  0  0  0  0  0  0  0
    2.3843   -4.0953    0.0000 C   0  0  0  0  0  0  0  0  0  0  0  0
    3.7026   -3.1416    0.0000 C   0  0  0  0  0  0  0  0  0  0  0  0
    4.3758   -2.6648    0.0000 C   0  0  0  0  0  0  0  0  0  0  0  0
    2.3001   -3.2819    0.0000 C   0  0  0  0  0  0  0  0  0  0  0  0
    1.7111   -4.5722    0.0000 C   0  0  0  0  0  0  0  0  0  0  0  0
    5.1612   -1.5708    0.0000 C   0  0  0  0  0  0  0  0  0  0  0  0
    2.9452   -2.7769    0.0000 C   0  0  0  0  0  0  0  0  0  0  0  0
    3.1416   -4.4600    0.0000 C   0  0  0  0  0  0  0  0  0  0  0  0
    5.4417   -0.7854    0.0000 C   0  0  0  0  0  0  0  0  0  0  0  0
    1.3744   -5.3295    0.0000 C   0  0  0  0  0  0  0  0  0  0  0  0
    0.8696   -4.6563    0.0000 C   0  0  0  0  0  0  0  0  0  0  0  0
    0.8696   -3.4502    0.0000 C   0  0  3  0  0  0  0  0  0  0  0  0
    6.2271   -1.0379    0.0000 C   0  0  0  0  0  0  0  0  0  0  0  0
    5.6942    0.0000    0.0000 C   0  0  0  0  0  0  0  0  0  0  0  0
    4.6563   -0.5329    0.0000 C   0  0  0  0  0  0  0  0  0  0  0  0
    0.9537   -4.2916    0.0000 C   0  0  0  0  0  0  0  0  0  0  0  0
    0.1122   -3.1416    0.0000 C   0  0  0  0  0  0  0  0  0  0  0  0
    0.0000   -2.3281    0.0000 C   0  0  0  0  0  0  0  0  0  0  0  0
    0.4208   -5.6100    0.0000 C   0  0  0  0  0  0  0  0  0  0  0  0
  1  6  1  0  0  0  0
  1 12  1  0  0  0  0
  2 10  1  0  0  0  0
  2 18  1  0  0  0  0
  3 22  1  0  0  0  0
  3 25  1  0  0  0  0
  4  9  1  0  0  0  0
  4 12  2  0  0  0  0
  5  8  1  0  0  0  0
  5 14  2  0  0  0  0
  6  9  2  0  0  0  0
  7 10  2  0  0  0  0
  7 11  1  0  0  0  0
  7 14  1  0  0  0  0
  8  9  1  0  0  0  0
  8 13  2  0  0  0  0
 10 13  1  0  0  0  0
 11 16  1  0  0  0  0
 11 17  1  0  0  0  0
 12 15  1  0  0  0  0
 15 19  1  0  0  0  0
 15 20  1  0  0  0  0
 15 21  1  0  0  0  0
 16 17  1  0  0  0  0
 18 22  1  0  0  0  0
 18 23  1  0  0  0  0
 23 24  1  0  0  0  0
M  END
> <PUBCHEM_COMPOUND_ID_TYPE>
0

> <PUBCHEM_TOTAL_CHARGE>
0

> <PUBCHEM_SUBSTANCE_ID>
310937828

> <PUBCHEM_SUBSTANCE_VERSION>
1

> <PUBCHEM_EXT_DATASOURCE_NAME>
4488

> <PUBCHEM_EXT_DATASOURCE_REGID>
SCHEMBL16115647

> <PUBCHEM_SUBSTANCE_COMMENT>
InChI=1S/C19H27N3O3/c1-6-13(11-23-5)24-16-9-15(20-10-14(16)12-7-8-12)17-21-18(25-22-17)19(2,3)4/h9-10,12-13H,6-8,11H2,1-5H3
InChIKey=BCQYNJOHJDJRHR-UHFFFAOYSA-N

> <PUBCHEM_SUBSTANCE_SYNONYM>
SCHEMBL16115647

> <PUBCHEM_XREF_EXT_ID>
SCHEMBL16115647

> <PUBCHEM_EXT_DATASOURCE_URL>
https://www.surechembl.org/

> <PUBCHEM_EXT_SUBSTANCE_URL>
https://www.surechembl.org/chemical/SCHEMBL16115647

> <PUBCHEM_CID_ASSOCIATIONS>
86276058  1

> <PUBCHEM_COORDINATE_TYPE>
1
3

$$$$
