310941837
  -OEChem-07211613022D

 26 27  0     1  0  0  0  0  0999 V2000
   -1.2789   -0.6188    0.0000 O   0  0  0  0  0  0  0  0  0  0  0  0
    0.4125   -2.0627    0.0000 O   0  0  0  0  0  0  0  0  0  0  0  0
    1.6914   -1.6089    0.0000 O   0  0  0  0  0  0  0  0  0  0  0  0
    1.5264   -2.8464    0.0000 O   0  0  0  0  0  0  0  0  0  0  0  0
   -0.0825   -2.7227    0.0000 N   0  0  3  0  0  0  0  0  0  0  0  0
   -1.2789    0.7838    0.0000 N   0  0  0  0  0  0  0  0  0  0  0  0
    1.1964   -2.1452    0.0000 N   0  0  0  0  0  0  0  0  0  0  0  0
    1.1551   -0.5776    0.0000 C   0  0  0  0  0  0  0  0  0  0  0  0
   -0.0413   -1.2789    0.0000 C   0  0  0  0  0  0  0  0  0  0  0  0
   -0.4538   -0.6188    0.0000 C   0  0  0  0  0  0  0  0  0  0  0  0
   -0.0413    0.1238    0.0000 C   0  0  0  0  0  0  0  0  0  0  0  0
    1.9802   -0.5776    0.0000 C   0  0  0  0  0  0  0  0  0  0  0  0
    0.7838   -1.2789    0.0000 C   0  0  0  0  0  0  0  0  0  0  0  0
    0.7838    0.0413    0.0000 C   0  0  0  0  0  0  0  0  0  0  0  0
   -0.4125   -2.0627    0.0000 C   0  0  0  0  0  0  0  0  0  0  0  0
   -0.4125    0.7838    0.0000 C   0  0  0  0  0  0  0  0  0  0  0  0
    2.3927    0.0825    0.0000 C   0  0  0  0  0  0  0  0  0  0  0  0
    2.8464   -0.6188    0.0000 C   0  0  0  0  0  0  0  0  0  0  0  0
    2.3927   -1.3201    0.0000 C   0  0  0  0  0  0  0  0  0  0  0  0
   -1.6502    1.5264    0.0000 C   0  0  0  0  0  0  0  0  0  0  0  0
   -0.8251   -2.7639    0.0000 C   0  0  0  0  0  0  0  0  0  0  0  0
   -2.4752    1.5264    0.0000 C   0  0  0  0  0  0  0  0  0  0  0  0
   -1.1964    2.0627    0.0000 C   0  0  0  0  0  0  0  0  0  0  0  0
   -2.8464    2.1864    0.0000 C   0  0  0  0  0  0  0  0  0  0  0  0
   -1.6502    2.8464    0.0000 C   0  0  0  0  0  0  0  0  0  0  0  0
   -2.4752    2.8464    0.0000 C   0  0  0  0  0  0  0  0  0  0  0  0
  1 10  1  0  0  0  0
  2  5  1  0  0  0  0
  2  7  1  0  0  0  0
  3  7  1  0  0  0  0
  4  7  1  0  0  0  0
  5 15  1  0  0  0  0
  5 21  1  0  0  0  0
  6 16  2  0  0  0  0
  6 20  1  0  0  0  0
  8 12  1  0  0  0  0
  8 13  1  0  0  0  0
  8 14  2  0  0  0  0
  9 10  1  0  0  0  0
  9 13  2  0  0  0  0
  9 15  1  0  0  0  0
 10 11  2  0  0  0  0
 11 14  1  0  0  0  0
 11 16  1  0  0  0  0
 12 17  1  0  0  0  0
 12 18  1  0  0  0  0
 12 19  1  0  0  0  0
 20 22  1  0  0  0  0
 20 23  1  0  0  0  0
 22 24  1  0  0  0  0
 23 25  1  0  0  0  0
 24 26  1  0  0  0  0
 25 26  1  0  0  0  0
M  END
> <PUBCHEM_COMPOUND_ID_TYPE>
0

> <PUBCHEM_TOTAL_CHARGE>
0

> <PUBCHEM_SUBSTANCE_ID>
310941837

> <PUBCHEM_SUBSTANCE_VERSION>
1

> <PUBCHEM_EXT_DATASOURCE_NAME>
4488

> <PUBCHEM_EXT_DATASOURCE_REGID>
SCHEMBL16119869

> <PUBCHEM_SUBSTANCE_COMMENT>
InChI=1S/C19H31N3O4/c1-19(2,3)16-10-14(12-20-17-8-6-5-7-9-17)18(23)15(11-16)13-21(4)26-22(24)25/h10-12,17,23-25H,5-9,13H2,1-4H3/b20-12+
InChIKey=SCALVFJAYSYQHY-UDWIEESQSA-N

> <PUBCHEM_SUBSTANCE_SYNONYM>
SCHEMBL16119869

> <PUBCHEM_XREF_EXT_ID>
SCHEMBL16119869

> <PUBCHEM_EXT_DATASOURCE_URL>
https://www.surechembl.org/

> <PUBCHEM_EXT_SUBSTANCE_URL>
https://www.surechembl.org/chemical/SCHEMBL16119869

> <PUBCHEM_CID_ASSOCIATIONS>
117608579  1

> <PUBCHEM_COORDINATE_TYPE>
1
3

$$$$
