310933430
  -OEChem-07211613022D

 37 42  0     1  0  0  0  0  0999 V2000
    2.2789   -0.7796    0.0000 O   0  0  0  0  0  0  0  0  0  0  0  0
    5.5473   -3.1484    0.0000 O   0  0  0  0  0  0  0  0  0  0  0  0
    5.2774   -4.7677    0.0000 O   0  0  0  0  0  0  0  0  0  0  0  0
    0.0000   -4.2579    0.0000 O   0  0  0  0  0  0  0  0  0  0  0  0
    4.2279   -3.8081    0.0000 N   0  0  0  0  0  0  0  0  0  0  0  0
    4.2279   -2.4888    0.0000 N   0  0  0  0  0  0  0  0  0  0  0  0
    3.9281   -0.7796    0.0000 N   0  0  0  0  0  0  0  0  0  0  0  0
    1.4993   -2.2189    0.0000 N   0  0  0  0  0  0  0  0  0  0  0  0
    0.4198   -4.9775    0.0000 N   0  0  0  0  0  0  0  0  0  0  0  0
    5.1575    0.0000    0.0000 N   0  0  0  0  0  0  0  0  0  0  0  0
    2.6987   -1.4993    0.0000 C   0  0  3  0  0  0  0  0  0  0  0  0
    2.6987   -2.3089    0.0000 C   0  0  0  0  0  0  0  0  0  0  0  0
    3.4483   -2.6987    0.0000 C   0  0  0  0  0  0  0  0  0  0  0  0
    3.4483   -3.5683    0.0000 C   0  0  0  0  0  0  0  0  0  0  0  0
    2.0090   -3.5683    0.0000 C   0  0  0  0  0  0  0  0  0  0  0  0
    2.0090   -2.6987    0.0000 C   0  0  0  0  0  0  0  0  0  0  0  0
    4.7077   -3.1484    0.0000 C   0  0  0  0  0  0  0  0  0  0  0  0
    3.5383   -1.4693    0.0000 C   0  0  0  0  0  0  0  0  0  0  0  0
    1.8891   -1.4993    0.0000 C   0  0  0  0  0  0  0  0  0  0  0  0
    2.6987   -3.9581    0.0000 C   0  0  0  0  0  0  0  0  0  0  0  0
    4.4678   -4.5877    0.0000 C   0  0  0  0  0  0  0  0  0  0  0  0
    1.3194   -3.9881    0.0000 C   0  0  0  0  0  0  0  0  0  0  0  0
    3.9281   -5.1875    0.0000 C   0  0  0  0  0  0  0  0  0  0  0  0
    0.5397   -3.6582    0.0000 C   0  0  0  0  0  0  0  0  0  0  0  0
    1.2294   -4.7977    0.0000 C   0  0  0  0  0  0  0  0  0  0  0  0
    3.9581   -2.1889    0.0000 C   0  0  0  0  0  0  0  0  0  0  0  0
    1.4693   -0.7796    0.0000 C   0  0  0  0  0  0  0  0  0  0  0  0
    3.7482   -5.9971    0.0000 C   0  0  0  0  0  0  0  0  0  0  0  0
    3.1484   -5.4573    0.0000 C   0  0  0  0  0  0  0  0  0  0  0  0
    4.7677   -0.7197    0.0000 C   0  0  0  0  0  0  0  0  0  0  0  0
    4.7677   -2.1590    0.0000 C   0  0  0  0  0  0  0  0  0  0  0  0
    0.6597   -2.2489    0.0000 C   0  0  0  0  0  0  0  0  0  0  0  0
    0.6297   -0.8096    0.0000 C   0  0  0  0  0  0  0  0  0  0  0  0
    5.1575   -1.4393    0.0000 C   0  0  0  0  0  0  0  0  0  0  0  0
    0.2399   -1.5292    0.0000 C   0  0  0  0  0  0  0  0  0  0  0  0
    0.3598   -2.8486    0.0000 C   0  0  0  0  0  0  0  0  0  0  0  0
    1.8291   -5.3673    0.0000 C   0  0  0  0  0  0  0  0  0  0  0  0
  1 11  1  0  0  0  0
  2 17  2  0  0  0  0
  3 21  2  0  0  0  0
  4  9  1  0  0  0  0
  4 24  1  0  0  0  0
  5 14  1  0  0  0  0
  5 17  1  0  0  0  0
  5 21  1  0  0  0  0
  6 13  1  0  0  0  0
  6 17  1  0  0  0  0
  7 18  1  0  0  0  0
  7 30  2  0  0  0  0
  8 19  1  0  0  0  0
  8 32  2  0  0  0  0
  9 25  2  0  0  0  0
 10 30  1  0  0  0  0
 11 12  1  0  0  0  0
 11 18  1  0  0  0  0
 11 19  1  0  0  0  0
 12 13  1  0  0  0  0
 12 16  2  0  0  0  0
 13 14  2  0  0  0  0
 14 20  1  0  0  0  0
 15 16  1  0  0  0  0
 15 20  2  0  0  0  0
 15 22  1  0  0  0  0
 18 26  2  0  0  0  0
 19 27  2  0  0  0  0
 21 23  1  0  0  0  0
 22 24  2  0  0  0  0
 22 25  1  0  0  0  0
 23 28  1  0  0  0  0
 23 29  1  0  0  0  0
 24 36  1  0  0  0  0
 25 37  1  0  0  0  0
 26 31  1  0  0  0  0
 27 33  1  0  0  0  0
 28 29  1  0  0  0  0
 30 34  1  0  0  0  0
 31 34  2  0  0  0  0
 32 35  1  0  0  0  0
 33 35  2  0  0  0  0
M  END
> <PUBCHEM_COMPOUND_ID_TYPE>
0

> <PUBCHEM_TOTAL_CHARGE>
0

> <PUBCHEM_SUBSTANCE_ID>
310933430

> <PUBCHEM_SUBSTANCE_VERSION>
1

> <PUBCHEM_EXT_DATASOURCE_NAME>
4488

> <PUBCHEM_EXT_DATASOURCE_REGID>
SCHEMBL16110847

> <PUBCHEM_SUBSTANCE_COMMENT>
InChI=1S/C27H24N6O4/c1-14-23(15(2)37-32-14)17-12-18(24-19(13-17)33(26(35)31-24)25(34)16-9-10-16)27(36,20-6-3-4-11-29-20)21-7-5-8-22(28)30-21/h3-8,11-13,16,36H,9-10H2,1-2H3,(H2,28,30)(H,31,35)
InChIKey=TUIZTCRNWCMYNB-UHFFFAOYSA-N

> <PUBCHEM_SUBSTANCE_SYNONYM>
SCHEMBL16110847

> <PUBCHEM_XREF_EXT_ID>
SCHEMBL16110847

> <PUBCHEM_EXT_DATASOURCE_URL>
https://www.surechembl.org/

> <PUBCHEM_EXT_SUBSTANCE_URL>
https://www.surechembl.org/chemical/SCHEMBL16110847

> <PUBCHEM_CID_ASSOCIATIONS>
117601832  1

> <PUBCHEM_COORDINATE_TYPE>
1
3

$$$$
