310933505
  -OEChem-07211613022D

 49 55  0     1  0  0  0  0  0999 V2000
    1.4846   -1.5440    0.0000 Cl  0  0  0  0  0  0  0  0  0  0  0  0
    2.4347   -2.9098    0.0000 F   0  0  0  0  0  0  0  0  0  0  0  0
    1.4846   -6.8885    0.0000 O   0  0  0  0  0  0  0  0  0  0  0  0
    4.3350   -5.2851    0.0000 O   0  0  0  0  0  0  0  0  0  0  0  0
    3.3255   -0.6532    0.0000 O   0  0  0  0  0  0  0  0  0  0  0  0
    2.9098   -6.8885    0.0000 N   0  0  0  0  0  0  0  0  0  0  0  0
    5.0476   -8.9669    0.0000 N   0  0  0  0  0  0  0  0  0  0  0  0
    1.7815   -4.3944    0.0000 N   0  0  0  0  0  0  0  0  0  0  0  0
    3.0285   -5.3445    0.0000 N   0  0  0  0  0  0  0  0  0  0  0  0
    2.9098   -5.2851    0.0000 N   0  0  0  0  0  0  0  0  0  0  0  0
    2.6129   -4.3944    0.0000 N   0  0  0  0  0  0  0  0  0  0  0  0
    4.9882  -11.4610    0.0000 N   0  0  0  0  0  0  0  0  0  0  0  0
    2.2565   -1.4846    0.0000 N   0  0  0  0  0  0  0  0  0  0  0  0
    3.5630   -1.4846    0.0000 N   0  0  0  0  0  0  0  0  0  0  0  0
    3.6224   -6.4728    0.0000 C   0  0  3  0  0  0  0  0  0  0  0  0
    4.3350   -6.8885    0.0000 C   0  0  0  0  0  0  0  0  0  0  0  0
    4.3350   -7.7199    0.0000 C   0  0  0  0  0  0  0  0  0  0  0  0
    5.0476   -8.1355    0.0000 C   0  0  0  0  0  0  0  0  0  0  0  0
    2.1972   -6.4728    0.0000 C   0  0  0  0  0  0  0  0  0  0  0  0
    3.6224   -5.7008    0.0000 C   0  0  0  0  0  0  0  0  0  0  0  0
    2.9098   -7.7199    0.0000 C   0  0  0  0  0  0  0  0  0  0  0  0
    3.6224   -8.1355    0.0000 C   0  0  0  0  0  0  0  0  0  0  0  0
    2.1972   -5.7008    0.0000 C   0  0  0  0  0  0  0  0  0  0  0  0
    5.0476   -6.4728    0.0000 C   0  0  0  0  0  0  0  0  0  0  0  0
    5.7602   -7.7199    0.0000 C   0  0  0  0  0  0  0  0  0  0  0  0
    1.4846   -5.1664    0.0000 C   0  0  0  0  0  0  0  0  0  0  0  0
    5.7602   -6.8885    0.0000 C   0  0  0  0  0  0  0  0  0  0  0  0
    1.3065   -3.7412    0.0000 C   0  0  0  0  0  0  0  0  0  0  0  0
    2.9098   -4.4537    0.0000 C   0  0  0  0  0  0  0  0  0  0  0  0
    5.7602   -9.3826    0.0000 C   0  0  0  0  0  0  0  0  0  0  0  0
    4.3350   -9.3826    0.0000 C   0  0  0  0  0  0  0  0  0  0  0  0
    1.6033   -2.9692    0.0000 C   0  0  0  0  0  0  0  0  0  0  0  0
    0.4750   -3.8005    0.0000 C   0  0  0  0  0  0  0  0  0  0  0  0
    1.1283   -2.3160    0.0000 C   0  0  0  0  0  0  0  0  0  0  0  0
    5.0476  -10.6296    0.0000 C   0  0  0  0  0  0  0  0  0  0  0  0
    5.7602  -10.2139    0.0000 C   0  0  0  0  0  0  0  0  0  0  0  0
    4.3350  -10.2139    0.0000 C   0  0  0  0  0  0  0  0  0  0  0  0
    2.1972   -4.0381    0.0000 C   0  0  0  0  0  0  0  0  0  0  0  0
    3.6224   -4.0381    0.0000 C   0  0  0  0  0  0  0  0  0  0  0  0
    2.9098   -2.7910    0.0000 C   0  0  0  0  0  0  0  0  0  0  0  0
    0.0000   -3.1473    0.0000 C   0  0  0  0  0  0  0  0  0  0  0  0
    0.3563   -2.3753    0.0000 C   0  0  0  0  0  0  0  0  0  0  0  0
    2.9098   -1.9597    0.0000 C   0  0  0  0  0  0  0  0  0  0  0  0
    2.1972   -3.2067    0.0000 C   0  0  0  0  0  0  0  0  0  0  0  0
    3.6224   -3.2067    0.0000 C   0  0  0  0  0  0  0  0  0  0  0  0
    2.4941   -0.6532    0.0000 C   0  0  0  0  0  0  0  0  0  0  0  0
    4.2756  -11.8767    0.0000 C   0  0  0  0  0  0  0  0  0  0  0  0
    5.7602  -11.8767    0.0000 C   0  0  0  0  0  0  0  0  0  0  0  0
    2.0190    0.0000    0.0000 C   0  0  0  0  0  0  0  0  0  0  0  0
  1 34  1  0  0  0  0
  2 32  1  0  0  0  0
  3 19  2  0  0  0  0
  4 20  2  0  0  0  0
  5 14  1  0  0  0  0
  5 46  1  0  0  0  0
  6 15  1  0  0  0  0
  6 19  1  0  0  0  0
  6 21  1  0  0  0  0
  7 18  1  0  0  0  0
  7 30  1  0  0  0  0
  7 31  1  0  0  0  0
  8 11  1  0  0  0  0
  8 26  1  0  0  0  0
  8 28  1  0  0  0  0
  9 11  2  0  0  0  0
  9 23  1  0  0  0  0
 10 20  1  0  0  0  0
 10 29  1  0  0  0  0
 12 35  1  0  0  0  0
 12 47  1  0  0  0  0
 12 48  1  0  0  0  0
 13 43  1  0  0  0  0
 13 46  2  0  0  0  0
 14 43  2  0  0  0  0
 15 16  1  0  0  0  0
 15 20  1  0  0  0  0
 16 17  2  0  0  0  0
 16 24  1  0  0  0  0
 17 18  1  0  0  0  0
 17 22  1  0  0  0  0
 18 25  2  0  0  0  0
 19 23  1  0  0  0  0
 21 22  1  0  0  0  0
 23 26  2  0  0  0  0
 24 27  2  0  0  0  0
 25 27  1  0  0  0  0
 28 32  1  0  0  0  0
 28 33  2  0  0  0  0
 29 38  2  0  0  0  0
 29 39  1  0  0  0  0
 30 36  1  0  0  0  0
 31 37  1  0  0  0  0
 32 34  2  0  0  0  0
 33 41  1  0  0  0  0
 34 42  1  0  0  0  0
 35 36  1  0  0  0  0
 35 37  1  0  0  0  0
 38 44  1  0  0  0  0
 39 45  2  0  0  0  0
 40 43  1  0  0  0  0
 40 44  2  0  0  0  0
 40 45  1  0  0  0  0
 41 42  2  0  0  0  0
 46 49  1  0  0  0  0
M  END
> <PUBCHEM_COMPOUND_ID_TYPE>
0

> <PUBCHEM_TOTAL_CHARGE>
0

> <PUBCHEM_SUBSTANCE_ID>
310933505

> <PUBCHEM_SUBSTANCE_VERSION>
1

> <PUBCHEM_EXT_DATASOURCE_NAME>
4488

> <PUBCHEM_EXT_DATASOURCE_REGID>
SCHEMBL16110927

> <PUBCHEM_SUBSTANCE_COMMENT>
InChI=1S/C35H35ClFN9O3/c1-21-38-33(41-49-21)22-10-12-23(13-11-22)39-34(47)32-26-6-4-8-29(44-17-14-24(15-18-44)43(2)3)25(26)16-19-45(32)35(48)28-20-46(42-40-28)30-9-5-7-27(36)31(30)37/h4-13,20,24,32H,14-19H2,1-3H3,(H,39,47)
InChIKey=PGRXFTCYMWPHKW-UHFFFAOYSA-N

> <PUBCHEM_SUBSTANCE_SYNONYM>
SCHEMBL16110927

> <PUBCHEM_XREF_EXT_ID>
SCHEMBL16110927

> <PUBCHEM_EXT_DATASOURCE_URL>
https://www.surechembl.org/

> <PUBCHEM_EXT_SUBSTANCE_URL>
https://www.surechembl.org/chemical/SCHEMBL16110927

> <PUBCHEM_CID_ASSOCIATIONS>
117601898  1

> <PUBCHEM_COORDINATE_TYPE>
1
3

$$$$
