310945598
  -OEChem-07211613022D

  9  8  0     1  0  0  0  0  0999 V2000
   -1.0893   -0.8860    0.0000 I   0  0  0  0  0  0  0  0  0  0  0  0
    0.4212   -1.6413    0.0000 O   0  0  0  0  0  0  0  0  0  0  0  0
    1.0748   -0.3776    0.0000 N   0  0  0  0  0  0  0  0  0  0  0  0
   -0.3486   -0.4357    0.0000 C   0  0  3  0  0  0  0  0  0  0  0  0
    0.3922   -0.7988    0.0000 C   0  0  0  0  0  0  0  0  0  0  0  0
   -0.3486    0.3922    0.0000 C   0  0  0  0  0  0  0  0  0  0  0  0
    0.3195    0.8279    0.0000 C   0  0  0  0  0  0  0  0  0  0  0  0
    0.2905    1.6413    0.0000 C   0  0  0  0  0  0  0  0  0  0  0  0
    1.0893    0.5229    0.0000 C   0  0  0  0  0  0  0  0  0  0  0  0
  1  4  1  0  0  0  0
  2  5  2  0  0  0  0
  3  5  1  0  0  0  0
  4  5  1  0  0  0  0
  4  6  1  0  0  0  0
  6  7  1  0  0  0  0
  7  8  1  0  0  0  0
  7  9  1  0  0  0  0
M  END
> <PUBCHEM_COMPOUND_ID_TYPE>
0

> <PUBCHEM_TOTAL_CHARGE>
0

> <PUBCHEM_SUBSTANCE_ID>
310945598

> <PUBCHEM_SUBSTANCE_VERSION>
1

> <PUBCHEM_EXT_DATASOURCE_NAME>
4488

> <PUBCHEM_EXT_DATASOURCE_REGID>
SCHEMBL16123697

> <PUBCHEM_SUBSTANCE_COMMENT>
InChI=1S/C6H12INO/c1-4(2)3-5(7)6(8)9/h4-5H,3H2,1-2H3,(H2,8,9)
InChIKey=FYTOVYNWFIRNEL-UHFFFAOYSA-N

> <PUBCHEM_SUBSTANCE_SYNONYM>
SCHEMBL16123697

> <PUBCHEM_XREF_EXT_ID>
SCHEMBL16123697

> <PUBCHEM_EXT_DATASOURCE_URL>
https://www.surechembl.org/

> <PUBCHEM_EXT_SUBSTANCE_URL>
https://www.surechembl.org/chemical/SCHEMBL16123697

> <PUBCHEM_CID_ASSOCIATIONS>
117611621  1

> <PUBCHEM_COORDINATE_TYPE>
1
3

$$$$
