310932148
  -OEChem-07211613022D

 13 13  0     1  0  0  0  0  0999 V2000
    1.1291    0.0000    0.0000 O   0  0  0  0  0  0  0  0  0  0  0  0
    2.2427   -1.9488    0.0000 O   0  0  0  0  0  0  0  0  0  0  0  0
    2.9697   -0.7115    0.0000 O   0  0  0  0  0  0  0  0  0  0  0  0
    1.5312   -0.7115    0.0000 C   0  0  3  0  0  0  0  0  0  0  0  0
    0.7115   -0.7115    0.0000 C   0  0  0  0  0  0  0  0  0  0  0  0
    2.2427   -1.1291    0.0000 C   0  0  0  0  0  0  0  0  0  0  0  0
    1.3302   -1.5158    0.0000 C   0  0  0  0  0  0  0  0  0  0  0  0
    0.0000   -1.1291    0.0000 C   0  0  0  0  0  0  0  0  0  0  0  0
    0.1237   -0.1237    0.0000 C   0  0  0  0  0  0  0  0  0  0  0  0
    2.9697   -2.3665    0.0000 C   0  0  0  0  0  0  0  0  0  0  0  0
    2.5366   -3.0934    0.0000 C   0  0  0  0  0  0  0  0  0  0  0  0
    3.6812   -2.7686    0.0000 C   0  0  0  0  0  0  0  0  0  0  0  0
    3.3718   -1.6550    0.0000 C   0  0  0  0  0  0  0  0  0  0  0  0
  1  4  1  0  0  0  0
  1  5  1  0  0  0  0
  2  6  1  0  0  0  0
  2 10  1  0  0  0  0
  3  6  2  0  0  0  0
  4  5  1  0  0  0  0
  4  6  1  0  0  0  0
  4  7  1  0  0  0  0
  5  8  1  0  0  0  0
  5  9  1  0  0  0  0
 10 11  1  0  0  0  0
 10 12  1  0  0  0  0
 10 13  1  0  0  0  0
M  END
> <PUBCHEM_COMPOUND_ID_TYPE>
0

> <PUBCHEM_TOTAL_CHARGE>
0

> <PUBCHEM_SUBSTANCE_ID>
310932148

> <PUBCHEM_SUBSTANCE_VERSION>
1

> <PUBCHEM_EXT_DATASOURCE_NAME>
4488

> <PUBCHEM_EXT_DATASOURCE_REGID>
SCHEMBL16109501

> <PUBCHEM_SUBSTANCE_COMMENT>
InChI=1S/C10H18O3/c1-8(2,3)12-7(11)10(6)9(4,5)13-10/h1-6H3
InChIKey=BWNSBOVPPYKYGM-UHFFFAOYSA-N

> <PUBCHEM_SUBSTANCE_SYNONYM>
SCHEMBL16109501

> <PUBCHEM_XREF_EXT_ID>
SCHEMBL16109501

> <PUBCHEM_EXT_DATASOURCE_URL>
https://www.surechembl.org/

> <PUBCHEM_EXT_SUBSTANCE_URL>
https://www.surechembl.org/chemical/SCHEMBL16109501

> <PUBCHEM_CID_ASSOCIATIONS>
117600755  1

> <PUBCHEM_COORDINATE_TYPE>
1
3

$$$$
