310943043
  -OEChem-07211613022D

 33 36  0     1  0  0  0  0  0999 V2000
    2.0882   -1.0006    0.0000 O   0  0  0  0  0  0  0  0  0  0  0  0
   -2.1752    1.5599    0.0000 O   0  0  0  0  0  0  0  0  0  0  0  0
    5.0092    1.5599    0.0000 O   0  0  0  0  0  0  0  0  0  0  0  0
   -3.6046    0.7395    0.0000 O   0  0  0  0  0  0  0  0  0  0  0  0
    0.7209    0.7395    0.0000 N   0  0  0  0  0  0  0  0  0  0  0  0
    1.4419    1.9826    0.0000 N   0  0  0  0  0  0  0  0  0  0  0  0
    2.8712    1.9826    0.0000 N   0  0  0  0  0  0  0  0  0  0  0  0
   -5.0216    1.5723    0.0000 N   0  0  0  0  0  0  0  0  0  0  0  0
    1.4294   -0.5034    0.0000 C   0  0  0  0  0  0  0  0  0  0  0  0
    1.4294    0.3294    0.0000 C   0  0  0  0  0  0  0  0  0  0  0  0
    0.7209    1.5723    0.0000 C   0  0  0  0  0  0  0  0  0  0  0  0
    1.8396   -1.7837    0.0000 C   0  0  0  0  0  0  0  0  0  0  0  0
    1.0193   -1.7837    0.0000 C   0  0  0  0  0  0  0  0  0  0  0  0
    0.7706   -0.9882    0.0000 C   0  0  0  0  0  0  0  0  0  0  0  0
   -0.0124    1.9949    0.0000 C   0  0  0  0  0  0  0  0  0  0  0  0
    2.1503    0.7271    0.0000 C   0  0  0  0  0  0  0  0  0  0  0  0
    2.1503    1.5723    0.0000 C   0  0  0  0  0  0  0  0  0  0  0  0
    2.2622   -2.5046    0.0000 C   0  0  0  0  0  0  0  0  0  0  0  0
    0.6091   -2.4921    0.0000 C   0  0  0  0  0  0  0  0  0  0  0  0
   -0.7085    1.5723    0.0000 C   0  0  0  0  0  0  0  0  0  0  0  0
    0.0000    2.8029    0.0000 C   0  0  0  0  0  0  0  0  0  0  0  0
   -1.4419    1.9826    0.0000 C   0  0  0  0  0  0  0  0  0  0  0  0
    1.8396   -3.2131    0.0000 C   0  0  0  0  0  0  0  0  0  0  0  0
    1.0193   -3.2131    0.0000 C   0  0  0  0  0  0  0  0  0  0  0  0
   -0.7209    3.2131    0.0000 C   0  0  0  0  0  0  0  0  0  0  0  0
   -1.4294    2.8029    0.0000 C   0  0  0  0  0  0  0  0  0  0  0  0
    3.5922    1.5723    0.0000 C   0  0  0  0  0  0  0  0  0  0  0  0
   -2.8712    1.9826    0.0000 C   0  0  0  0  0  0  0  0  0  0  0  0
    4.3131    1.9826    0.0000 C   0  0  0  0  0  0  0  0  0  0  0  0
   -3.5922    1.5723    0.0000 C   0  0  3  0  0  0  0  0  0  0  0  0
   -4.3007    1.9826    0.0000 C   0  0  0  0  0  0  0  0  0  0  0  0
    5.7301    1.9826    0.0000 C   0  0  0  0  0  0  0  0  0  0  0  0
   -5.7301    1.9577    0.0000 C   0  0  0  0  0  0  0  0  0  0  0  0
  1  9  1  0  0  0  0
  1 12  1  0  0  0  0
  2 22  1  0  0  0  0
  2 28  1  0  0  0  0
  3 29  1  0  0  0  0
  3 32  1  0  0  0  0
  4 30  1  0  0  0  0
  5 10  2  0  0  0  0
  5 11  1  0  0  0  0
  6 11  2  0  0  0  0
  6 17  1  0  0  0  0
  7 17  1  0  0  0  0
  7 27  1  0  0  0  0
  8 31  1  0  0  0  0
  8 33  1  0  0  0  0
  9 10  1  0  0  0  0
  9 14  2  0  0  0  0
 10 16  1  0  0  0  0
 11 15  1  0  0  0  0
 12 13  2  0  0  0  0
 12 18  1  0  0  0  0
 13 14  1  0  0  0  0
 13 19  1  0  0  0  0
 15 20  2  0  0  0  0
 15 21  1  0  0  0  0
 16 17  2  0  0  0  0
 18 23  2  0  0  0  0
 19 24  2  0  0  0  0
 20 22  1  0  0  0  0
 21 25  2  0  0  0  0
 22 26  2  0  0  0  0
 23 24  1  0  0  0  0
 25 26  1  0  0  0  0
 27 29  1  0  0  0  0
 28 30  1  0  0  0  0
 30 31  1  0  0  0  0
M  END
> <PUBCHEM_COMPOUND_ID_TYPE>
0

> <PUBCHEM_TOTAL_CHARGE>
0

> <PUBCHEM_SUBSTANCE_ID>
310943043

> <PUBCHEM_SUBSTANCE_VERSION>
1

> <PUBCHEM_EXT_DATASOURCE_NAME>
4488

> <PUBCHEM_EXT_DATASOURCE_REGID>
SCHEMBL16121102

> <PUBCHEM_SUBSTANCE_COMMENT>
InChI=1S/C25H28N4O4/c1-26-15-19(30)16-32-20-8-5-7-18(12-20)25-28-21(14-24(29-25)27-10-11-31-2)23-13-17-6-3-4-9-22(17)33-23/h3-9,12-14,19,26,30H,10-11,15-16H2,1-2H3,(H,27,28,29)
InChIKey=BKXZEUHOVNEEAC-UHFFFAOYSA-N

> <PUBCHEM_SUBSTANCE_SYNONYM>
SCHEMBL16121102

> <PUBCHEM_XREF_EXT_ID>
SCHEMBL16121102

> <PUBCHEM_EXT_DATASOURCE_URL>
https://www.surechembl.org/

> <PUBCHEM_EXT_SUBSTANCE_URL>
https://www.surechembl.org/chemical/SCHEMBL16121102

> <PUBCHEM_CID_ASSOCIATIONS>
85472024  1

> <PUBCHEM_COORDINATE_TYPE>
1
3

$$$$
