310930017
  -OEChem-07211613022D

 24 25  0     1  0  0  0  0  0999 V2000
    0.8250   -4.7223    0.0000 S   0  0  0  0  0  0  0  0  0  0  0  0
    7.9654   -1.3370    0.0000 S   0  0  0  0  0  0  0  0  0  0  0  0
    0.8250   -3.9258    0.0000 O   0  0  0  0  0  0  0  0  0  0  0  0
    1.6499   -4.7223    0.0000 O   0  0  0  0  0  0  0  0  0  0  0  0
    0.0000   -4.7223    0.0000 O   0  0  0  0  0  0  0  0  0  0  0  0
    0.8250   -5.5473    0.0000 O   0  0  0  0  0  0  0  0  0  0  0  0
    3.6698   -3.9258    0.0000 N   0  0  3  0  0  0  0  0  0  0  0  0
    6.5145   -2.2474    0.0000 N   0  0  0  0  0  0  0  0  0  0  0  0
    6.5145   -1.4224    0.0000 N   0  0  0  0  0  0  0  0  0  0  0  0
    7.3110   -0.1991    0.0000 N   0  0  0  0  0  0  0  0  0  0  0  0
    8.0791    0.0000    0.0000 N   0  0  0  0  0  0  0  0  0  0  0  0
    5.8033   -2.6456    0.0000 C   0  0  0  0  0  0  0  0  0  0  0  0
    4.3809   -3.4991    0.0000 C   0  0  0  0  0  0  0  0  0  0  0  0
    5.8033   -3.4706    0.0000 C   0  0  0  0  0  0  0  0  0  0  0  0
    5.0921   -3.8973    0.0000 C   0  0  0  0  0  0  0  0  0  0  0  0
    5.0637   -2.2474    0.0000 C   0  0  0  0  0  0  0  0  0  0  0  0
    4.3809   -2.6741    0.0000 C   0  0  0  0  0  0  0  0  0  0  0  0
    7.2257   -0.9957    0.0000 C   0  0  0  0  0  0  0  0  0  0  0  0
    2.9585   -3.4991    0.0000 C   0  0  0  0  0  0  0  0  0  0  0  0
    6.5145   -3.8689    0.0000 C   0  0  0  0  0  0  0  0  0  0  0  0
    8.5343   -0.7112    0.0000 C   0  0  0  0  0  0  0  0  0  0  0  0
    2.2474   -3.9258    0.0000 C   0  0  0  0  0  0  0  0  0  0  0  0
    3.6698   -4.7223    0.0000 C   0  0  0  0  0  0  0  0  0  0  0  0
    1.5362   -3.4991    0.0000 C   0  0  0  0  0  0  0  0  0  0  0  0
  1  3  1  0  0  0  0
  1  4  2  0  0  0  0
  1  5  2  0  0  0  0
  1  6  1  0  0  0  0
  2 18  1  0  0  0  0
  2 21  1  0  0  0  0
  3 24  1  0  0  0  0
  7 13  1  0  0  0  0
  7 19  1  0  0  0  0
  7 23  1  0  0  0  0
  8  9  2  0  0  0  0
  8 12  1  0  0  0  0
  9 18  1  0  0  0  0
 10 11  1  0  0  0  0
 10 18  2  0  0  0  0
 11 21  2  0  0  0  0
 12 14  1  0  0  0  0
 12 16  2  0  0  0  0
 13 15  1  0  0  0  0
 13 17  2  0  0  0  0
 14 15  2  0  0  0  0
 14 20  1  0  0  0  0
 16 17  1  0  0  0  0
 19 22  1  0  0  0  0
 22 24  1  0  0  0  0
M  END
> <PUBCHEM_COMPOUND_ID_TYPE>
0

> <PUBCHEM_TOTAL_CHARGE>
0

> <PUBCHEM_SUBSTANCE_ID>
310930017

> <PUBCHEM_SUBSTANCE_VERSION>
1

> <PUBCHEM_EXT_DATASOURCE_NAME>
4488

> <PUBCHEM_EXT_DATASOURCE_REGID>
SCHEMBL16107256

> <PUBCHEM_SUBSTANCE_COMMENT>
InChI=1S/C13H17N5O4S2/c1-10-8-11(18(2)6-3-7-22-24(19,20)21)4-5-12(10)15-17-13-16-14-9-23-13/h4-5,8-9H,3,6-7H2,1-2H3,(H,19,20,21)/b17-15+
InChIKey=WNULMOXQWPBHEC-BMRADRMJSA-N

> <PUBCHEM_SUBSTANCE_SYNONYM>
SCHEMBL16107256

> <PUBCHEM_XREF_EXT_ID>
SCHEMBL16107256

> <PUBCHEM_EXT_DATASOURCE_URL>
https://www.surechembl.org/

> <PUBCHEM_EXT_SUBSTANCE_URL>
https://www.surechembl.org/chemical/SCHEMBL16107256

> <PUBCHEM_CID_ASSOCIATIONS>
89559117  1

> <PUBCHEM_COORDINATE_TYPE>
1
3

$$$$
