310943058
  -OEChem-07211613022D

 28 29  0     1  0  0  0  0  0999 V2000
    2.9739   -0.1810    0.0000 Cl  0  0  0  0  0  0  0  0  0  0  0  0
    1.4740    0.5948    0.0000 S   0  0  0  0  0  0  0  0  0  0  0  0
   -1.4740   -1.3534    0.0000 F   0  0  0  0  0  0  0  0  0  0  0  0
   -2.2670   -2.1636    0.0000 F   0  0  0  0  0  0  0  0  0  0  0  0
   -3.0601   -1.3534    0.0000 F   0  0  0  0  0  0  0  0  0  0  0  0
   -3.3532   -0.9223    0.0000 F   0  0  0  0  0  0  0  0  0  0  0  0
   -3.7152    0.1293    0.0000 F   0  0  0  0  0  0  0  0  0  0  0  0
   -2.6463    0.4913    0.0000 F   0  0  0  0  0  0  0  0  0  0  0  0
   -3.0083   -0.9741    0.0000 O   0  0  0  0  0  0  0  0  0  0  0  0
    0.7155    0.1983    0.0000 O   0  0  0  0  0  0  0  0  0  0  0  0
    2.2326    0.1983    0.0000 O   0  0  0  0  0  0  0  0  0  0  0  0
    0.7327    1.0085    0.0000 N   0  0  3  0  0  0  0  0  0  0  0  0
   -2.2843   -0.5775    0.0000 C   0  0  0  0  0  0  0  0  0  0  0  0
   -3.0083   -0.1983    0.0000 C   0  0  0  0  0  0  0  0  0  0  0  0
   -2.2843   -1.3534    0.0000 C   0  0  0  0  0  0  0  0  0  0  0  0
   -1.5085   -0.1637    0.0000 C   0  0  0  0  0  0  0  0  0  0  0  0
   -0.0086    0.6120    0.0000 C   0  0  0  0  0  0  0  0  0  0  0  0
   -1.5085    0.5775    0.0000 C   0  0  0  0  0  0  0  0  0  0  0  0
   -0.7499   -0.5775    0.0000 C   0  0  0  0  0  0  0  0  0  0  0  0
    2.2153    0.9913    0.0000 C   0  0  0  0  0  0  0  0  0  0  0  0
   -0.7499    0.9741    0.0000 C   0  0  0  0  0  0  0  0  0  0  0  0
   -0.0259   -0.1810    0.0000 C   0  0  0  0  0  0  0  0  0  0  0  0
    2.9911    0.6120    0.0000 C   0  0  0  0  0  0  0  0  0  0  0  0
    2.2326    1.7498    0.0000 C   0  0  0  0  0  0  0  0  0  0  0  0
    0.7327    1.7843    0.0000 C   0  0  0  0  0  0  0  0  0  0  0  0
    3.7152    1.0085    0.0000 C   0  0  0  0  0  0  0  0  0  0  0  0
    3.0083    2.1636    0.0000 C   0  0  0  0  0  0  0  0  0  0  0  0
    3.7152    1.7843    0.0000 C   0  0  0  0  0  0  0  0  0  0  0  0
  1 23  1  0  0  0  0
  2 10  2  0  0  0  0
  2 11  2  0  0  0  0
  2 12  1  0  0  0  0
  2 20  1  0  0  0  0
  3 15  1  0  0  0  0
  4 15  1  0  0  0  0
  5 15  1  0  0  0  0
  6 14  1  0  0  0  0
  7 14  1  0  0  0  0
  8 14  1  0  0  0  0
  9 13  1  0  0  0  0
 12 17  1  0  0  0  0
 12 25  1  0  0  0  0
 13 14  1  0  0  0  0
 13 15  1  0  0  0  0
 13 16  1  0  0  0  0
 16 18  2  0  0  0  0
 16 19  1  0  0  0  0
 17 21  2  0  0  0  0
 17 22  1  0  0  0  0
 18 21  1  0  0  0  0
 19 22  2  0  0  0  0
 20 23  2  0  0  0  0
 20 24  1  0  0  0  0
 23 26  1  0  0  0  0
 24 27  2  0  0  0  0
 26 28  2  0  0  0  0
 27 28  1  0  0  0  0
M  END
> <PUBCHEM_COMPOUND_ID_TYPE>
0

> <PUBCHEM_TOTAL_CHARGE>
0

> <PUBCHEM_SUBSTANCE_ID>
310943058

> <PUBCHEM_SUBSTANCE_VERSION>
1

> <PUBCHEM_EXT_DATASOURCE_NAME>
4488

> <PUBCHEM_EXT_DATASOURCE_REGID>
SCHEMBL16121117

> <PUBCHEM_SUBSTANCE_COMMENT>
InChI=1S/C16H12ClF6NO3S/c1-24(28(26,27)13-5-3-2-4-12(13)17)11-8-6-10(7-9-11)14(25,15(18,19)20)16(21,22)23/h2-9,25H,1H3
InChIKey=YNEWBOMTTHGYNC-UHFFFAOYSA-N

> <PUBCHEM_SUBSTANCE_SYNONYM>
SCHEMBL16121117

> <PUBCHEM_XREF_EXT_ID>
SCHEMBL16121117

> <PUBCHEM_EXT_DATASOURCE_URL>
https://www.surechembl.org/

> <PUBCHEM_EXT_SUBSTANCE_URL>
https://www.surechembl.org/chemical/SCHEMBL16121117

> <PUBCHEM_CID_ASSOCIATIONS>
20704055  1

> <PUBCHEM_COORDINATE_TYPE>
1
3

$$$$
