310942425
  -OEChem-07211613022D

 20 21  0     1  0  0  0  0  0999 V2000
   -2.1612    0.2530    0.0000 S   0  0  3  0  0  0  0  0  0  0  0  0
   -2.1612   -0.5719    0.0000 O   0  0  0  0  0  0  0  0  0  0  0  0
   -0.7094    0.2530    0.0000 N   0  0  0  0  0  0  0  0  0  0  0  0
    0.7314    0.2530    0.0000 N   0  0  0  0  0  0  0  0  0  0  0  0
   -1.4353    1.4848    0.0000 N   0  0  0  0  0  0  0  0  0  0  0  0
    2.8871    2.2657    0.0000 N   0  0  0  0  0  0  0  0  0  0  0  0
   -0.0055    0.6599    0.0000 C   0  0  0  0  0  0  0  0  0  0  0  0
    0.0055    1.4848    0.0000 C   0  0  0  0  0  0  0  0  0  0  0  0
   -1.4463    0.6599    0.0000 C   0  0  0  0  0  0  0  0  0  0  0  0
   -0.7314    1.8917    0.0000 C   0  0  0  0  0  0  0  0  0  0  0  0
    0.7094   -0.6270    0.0000 C   0  0  0  0  0  0  0  0  0  0  0  0
    0.7094    1.8917    0.0000 C   0  0  0  0  0  0  0  0  0  0  0  0
   -0.0055   -1.0449    0.0000 C   0  0  0  0  0  0  0  0  0  0  0  0
    1.4243   -1.0339    0.0000 C   0  0  0  0  0  0  0  0  0  0  0  0
    1.4463    1.4848    0.0000 C   0  0  0  0  0  0  0  0  0  0  0  0
   -2.8871    0.6490    0.0000 C   0  0  0  0  0  0  0  0  0  0  0  0
   -0.0055   -1.8588    0.0000 C   0  0  0  0  0  0  0  0  0  0  0  0
    1.4243   -1.8588    0.0000 C   0  0  0  0  0  0  0  0  0  0  0  0
    0.7204   -2.2657    0.0000 C   0  0  0  0  0  0  0  0  0  0  0  0
    2.1722    1.8917    0.0000 C   0  0  0  0  0  0  0  0  0  0  0  0
  1  2  2  0  0  0  0
  1  9  1  0  0  0  0
  1 16  1  0  0  0  0
  3  7  2  0  0  0  0
  3  9  1  0  0  0  0
  4  7  1  0  0  0  0
  4 11  1  0  0  0  0
  5  9  2  0  0  0  0
  5 10  1  0  0  0  0
  6 20  3  0  0  0  0
  7  8  1  0  0  0  0
  8 10  2  0  0  0  0
  8 12  1  0  0  0  0
 11 13  1  0  0  0  0
 11 14  1  0  0  0  0
 12 15  2  0  0  0  0
 13 17  1  0  0  0  0
 14 18  1  0  0  0  0
 15 20  1  0  0  0  0
 17 19  1  0  0  0  0
 18 19  1  0  0  0  0
M  END
> <PUBCHEM_COMPOUND_ID_TYPE>
0

> <PUBCHEM_TOTAL_CHARGE>
0

> <PUBCHEM_SUBSTANCE_ID>
310942425

> <PUBCHEM_SUBSTANCE_VERSION>
1

> <PUBCHEM_EXT_DATASOURCE_NAME>
4488

> <PUBCHEM_EXT_DATASOURCE_REGID>
SCHEMBL16120461

> <PUBCHEM_SUBSTANCE_COMMENT>
InChI=1S/C14H18N4OS/c1-20(19)14-16-10-11(6-5-9-15)13(18-14)17-12-7-3-2-4-8-12/h5-6,10,12H,2-4,7-8H2,1H3,(H,16,17,18)/b6-5+
InChIKey=HCBMVEVNSDZXDV-AATRIKPKSA-N

> <PUBCHEM_SUBSTANCE_SYNONYM>
SCHEMBL16120461

> <PUBCHEM_XREF_EXT_ID>
SCHEMBL16120461

> <PUBCHEM_EXT_DATASOURCE_URL>
https://www.surechembl.org/

> <PUBCHEM_EXT_SUBSTANCE_URL>
https://www.surechembl.org/chemical/SCHEMBL16120461

> <PUBCHEM_CID_ASSOCIATIONS>
90466785  1

> <PUBCHEM_COORDINATE_TYPE>
1
3

$$$$
