310944673
  -OEChem-07211613022D

 31 34  0     1  0  0  0  0  0999 V2000
   -3.7143   -0.9317    0.0000 Cl  0  0  0  0  0  0  0  0  0  0  0  0
   -4.2610    2.7951    0.0000 Cl  0  0  0  0  0  0  0  0  0  0  0  0
    0.7454    1.5528    0.0000 O   0  0  0  0  0  0  0  0  0  0  0  0
   -0.6833   -0.9317    0.0000 O   0  0  0  0  0  0  0  0  0  0  0  0
    4.9691   -1.1801    0.0000 O   0  0  0  0  0  0  0  0  0  0  0  0
    1.4907    0.3105    0.0000 N   0  0  0  0  0  0  0  0  0  0  0  0
    3.5529   -1.1801    0.0000 N   0  0  0  0  0  0  0  0  0  0  0  0
   -0.6709    0.7330    0.0000 N   0  0  0  0  0  0  0  0  0  0  0  0
    2.2733   -0.7578    0.0000 C   0  0  3  0  0  0  0  0  0  0  0  0
    2.7578   -0.0870    0.0000 C   0  0  3  0  0  0  0  0  0  0  0  0
    1.4907   -0.5093    0.0000 C   0  0  0  0  0  0  0  0  0  0  0  0
    2.2733    0.5715    0.0000 C   0  0  0  0  0  0  0  0  0  0  0  0
    3.5529   -0.3602    0.0000 C   0  0  0  0  0  0  0  0  0  0  0  0
    2.7827   -1.4410    0.0000 C   0  0  0  0  0  0  0  0  0  0  0  0
    0.7578    0.7205    0.0000 C   0  0  0  0  0  0  0  0  0  0  0  0
   -2.8200    0.3230    0.0000 C   0  0  0  0  0  0  0  0  0  0  0  0
   -1.3913    0.3230    0.0000 C   0  0  0  0  0  0  0  0  0  0  0  0
   -2.8200   -0.5093    0.0000 C   0  0  0  0  0  0  0  0  0  0  0  0
   -3.5529    0.7330    0.0000 C   0  0  0  0  0  0  0  0  0  0  0  0
    4.2485   -1.6025    0.0000 C   0  0  0  0  0  0  0  0  0  0  0  0
   -2.0994    0.7205    0.0000 C   0  0  0  0  0  0  0  0  0  0  0  0
   -1.4037   -0.5093    0.0000 C   0  0  0  0  0  0  0  0  0  0  0  0
    0.0497    0.3105    0.0000 C   0  0  0  0  0  0  0  0  0  0  0  0
   -2.0994   -0.9193    0.0000 C   0  0  0  0  0  0  0  0  0  0  0  0
   -3.5404    1.5528    0.0000 C   0  0  0  0  0  0  0  0  0  0  0  0
   -4.2485    0.3230    0.0000 C   0  0  0  0  0  0  0  0  0  0  0  0
   -4.2610    1.9628    0.0000 C   0  0  0  0  0  0  0  0  0  0  0  0
    4.2610   -2.4348    0.0000 C   0  0  0  0  0  0  0  0  0  0  0  0
   -4.9691    0.7330    0.0000 C   0  0  0  0  0  0  0  0  0  0  0  0
   -4.9691    1.5528    0.0000 C   0  0  0  0  0  0  0  0  0  0  0  0
    3.5280   -2.7951    0.0000 C   0  0  0  0  0  0  0  0  0  0  0  0
  1 18  1  0  0  0  0
  2 27  1  0  0  0  0
  3 15  2  0  0  0  0
  4 22  1  0  0  0  0
  5 20  2  0  0  0  0
  6 11  1  0  0  0  0
  6 12  1  0  0  0  0
  6 15  1  0  0  0  0
  7 13  1  0  0  0  0
  7 14  1  0  0  0  0
  7 20  1  0  0  0  0
  8 17  1  0  0  0  0
  8 23  1  0  0  0  0
  9 10  1  0  0  0  0
  9 11  1  0  0  0  0
  9 14  1  0  0  0  0
 10 12  1  0  0  0  0
 10 13  1  0  0  0  0
 15 23  1  0  0  0  0
 16 18  2  0  0  0  0
 16 19  1  0  0  0  0
 16 21  1  0  0  0  0
 17 21  2  0  0  0  0
 17 22  1  0  0  0  0
 18 24  1  0  0  0  0
 19 25  1  0  0  0  0
 19 26  2  0  0  0  0
 20 28  1  0  0  0  0
 22 24  2  0  0  0  0
 25 27  2  0  0  0  0
 26 29  1  0  0  0  0
 27 30  1  0  0  0  0
 28 31  2  0  0  0  0
 29 30  2  0  0  0  0
M  END
> <PUBCHEM_COMPOUND_ID_TYPE>
0

> <PUBCHEM_TOTAL_CHARGE>
0

> <PUBCHEM_SUBSTANCE_ID>
310944673

> <PUBCHEM_SUBSTANCE_VERSION>
1

> <PUBCHEM_EXT_DATASOURCE_NAME>
4488

> <PUBCHEM_EXT_DATASOURCE_REGID>
SCHEMBL16122752

> <PUBCHEM_SUBSTANCE_COMMENT>
InChI=1S/C23H23Cl2N3O3/c1-2-22(30)27-10-15-12-28(13-16(15)11-27)23(31)9-26-20-7-18(19(25)8-21(20)29)14-4-3-5-17(24)6-14/h2-8,15-16,26,29H,1,9-13H2
InChIKey=FJBFUKSDMBTAGY-UHFFFAOYSA-N

> <PUBCHEM_SUBSTANCE_SYNONYM>
SCHEMBL16122752

> <PUBCHEM_XREF_EXT_ID>
SCHEMBL16122752

> <PUBCHEM_EXT_DATASOURCE_URL>
https://www.surechembl.org/

> <PUBCHEM_EXT_SUBSTANCE_URL>
https://www.surechembl.org/chemical/SCHEMBL16122752

> <PUBCHEM_CID_ASSOCIATIONS>
117610899  1

> <PUBCHEM_COORDINATE_TYPE>
1
3

$$$$
