310933187
  -OEChem-07211613022D

 19 20  0     1  0  0  0  0  0999 V2000
    3.2772    0.0000    0.0000 O   0  0  0  0  0  0  0  0  0  0  0  0
    4.3825   -1.9585    0.0000 O   0  0  0  0  0  0  0  0  0  0  0  0
    5.1000   -0.7175    0.0000 O   0  0  0  0  0  0  0  0  0  0  0  0
    3.6844   -0.7175    0.0000 C   0  0  3  0  0  0  0  0  0  0  0  0
    2.8699   -0.7175    0.0000 C   0  0  3  0  0  0  0  0  0  0  0  0
    4.3825   -1.1247    0.0000 C   0  0  0  0  0  0  0  0  0  0  0  0
    2.1525   -1.1247    0.0000 C   0  0  0  0  0  0  0  0  0  0  0  0
    3.4711   -1.5125    0.0000 C   0  0  0  0  0  0  0  0  0  0  0  0
    2.1330   -1.9585    0.0000 C   0  0  0  0  0  0  0  0  0  0  0  0
    1.4350   -0.7369    0.0000 C   0  0  0  0  0  0  0  0  0  0  0  0
    5.1000   -2.3658    0.0000 C   0  0  0  0  0  0  0  0  0  0  0  0
    4.0528   -2.0943    0.0000 C   0  0  0  0  0  0  0  0  0  0  0  0
    1.4350   -2.3658    0.0000 C   0  0  0  0  0  0  0  0  0  0  0  0
    0.7175   -1.1247    0.0000 C   0  0  0  0  0  0  0  0  0  0  0  0
    0.7175   -1.9585    0.0000 C   0  0  0  0  0  0  0  0  0  0  0  0
    4.6927   -3.0833    0.0000 C   0  0  0  0  0  0  0  0  0  0  0  0
    5.8175   -2.7730    0.0000 C   0  0  0  0  0  0  0  0  0  0  0  0
    5.5072   -1.6676    0.0000 C   0  0  0  0  0  0  0  0  0  0  0  0
    0.0000   -2.3658    0.0000 C   0  0  0  0  0  0  0  0  0  0  0  0
  1  4  1  0  0  0  0
  1  5  1  0  0  0  0
  2  6  1  0  0  0  0
  2 11  1  0  0  0  0
  3  6  2  0  0  0  0
  4  5  1  0  0  0  0
  4  6  1  0  0  0  0
  4  8  1  0  0  0  0
  5  7  1  0  0  0  0
  7  9  2  0  0  0  0
  7 10  1  0  0  0  0
  8 12  1  0  0  0  0
  9 13  1  0  0  0  0
 10 14  2  0  0  0  0
 11 16  1  0  0  0  0
 11 17  1  0  0  0  0
 11 18  1  0  0  0  0
 13 15  2  0  0  0  0
 14 15  1  0  0  0  0
 15 19  1  0  0  0  0
M  END
> <PUBCHEM_COMPOUND_ID_TYPE>
0

> <PUBCHEM_TOTAL_CHARGE>
0

> <PUBCHEM_SUBSTANCE_ID>
310933187

> <PUBCHEM_SUBSTANCE_VERSION>
1

> <PUBCHEM_EXT_DATASOURCE_NAME>
4488

> <PUBCHEM_EXT_DATASOURCE_REGID>
SCHEMBL16110596

> <PUBCHEM_SUBSTANCE_COMMENT>
InChI=1S/C16H22O3/c1-6-16(14(17)19-15(3,4)5)13(18-16)12-9-7-11(2)8-10-12/h7-10,13H,6H2,1-5H3
InChIKey=SKTLOWYGMIBTEW-UHFFFAOYSA-N

> <PUBCHEM_SUBSTANCE_SYNONYM>
SCHEMBL16110596

> <PUBCHEM_XREF_EXT_ID>
SCHEMBL16110596

> <PUBCHEM_EXT_DATASOURCE_URL>
https://www.surechembl.org/

> <PUBCHEM_EXT_SUBSTANCE_URL>
https://www.surechembl.org/chemical/SCHEMBL16110596

> <PUBCHEM_CID_ASSOCIATIONS>
117601631  1

> <PUBCHEM_COORDINATE_TYPE>
1
3

$$$$
