310933084
  -OEChem-07211613022D

 10 10  0     1  0  0  0  0  0999 V2000
    0.0000    0.0000    0.0000 F   0  0  0  0  0  0  0  0  0  0  0  0
    1.0281   -1.3116    0.0000 F   0  0  0  0  0  0  0  0  0  0  0  0
    1.9497   -1.0281    0.0000 N   0  0  3  0  0  0  0  0  0  0  0  0
    0.5199   -2.1979    0.0000 N   0  0  0  0  0  0  0  0  0  0  0  0
    0.5199   -0.6617    0.0000 C   0  0  0  0  0  0  0  0  0  0  0  0
    1.3116   -0.4963    0.0000 C   0  0  0  0  0  0  0  0  0  0  0  0
    0.1418   -1.4298    0.0000 C   0  0  0  0  0  0  0  0  0  0  0  0
    1.9497   -1.8670    0.0000 C   0  0  0  0  0  0  0  0  0  0  0  0
    1.3116   -2.3633    0.0000 C   0  0  0  0  0  0  0  0  0  0  0  0
    2.7059   -0.6736    0.0000 C   0  0  0  0  0  0  0  0  0  0  0  0
  1  5  1  0  0  0  0
  2  5  1  0  0  0  0
  3  6  1  0  0  0  0
  3  8  1  0  0  0  0
  3 10  1  0  0  0  0
  4  7  1  0  0  0  0
  4  9  1  0  0  0  0
  5  6  1  0  0  0  0
  5  7  1  0  0  0  0
  8  9  1  0  0  0  0
M  END
> <PUBCHEM_COMPOUND_ID_TYPE>
0

> <PUBCHEM_TOTAL_CHARGE>
0

> <PUBCHEM_SUBSTANCE_ID>
310933084

> <PUBCHEM_SUBSTANCE_VERSION>
1

> <PUBCHEM_EXT_DATASOURCE_NAME>
4488

> <PUBCHEM_EXT_DATASOURCE_REGID>
SCHEMBL16110486

> <PUBCHEM_SUBSTANCE_COMMENT>
InChI=1S/C6H12F2N2/c1-10-3-2-9-4-6(7,8)5-10/h9H,2-5H2,1H3
InChIKey=JPIDVJNDDGJNEY-UHFFFAOYSA-N

> <PUBCHEM_SUBSTANCE_SYNONYM>
SCHEMBL16110486

> <PUBCHEM_XREF_EXT_ID>
SCHEMBL16110486

> <PUBCHEM_EXT_DATASOURCE_URL>
https://www.surechembl.org/

> <PUBCHEM_EXT_SUBSTANCE_URL>
https://www.surechembl.org/chemical/SCHEMBL16110486

> <PUBCHEM_CID_ASSOCIATIONS>
84716413  1

> <PUBCHEM_COORDINATE_TYPE>
1
3

$$$$
