310934875
  -OEChem-07211613022D

 36 39  0     1  0  0  0  0  0999 V2000
    4.4116   -3.6578    0.0000 O   0  0  0  0  0  0  0  0  0  0  0  0
    4.4954   -3.0993    0.0000 O   0  0  0  0  0  0  0  0  0  0  0  0
    5.2214   -4.3558    0.0000 O   0  0  0  0  0  0  0  0  0  0  0  0
    3.1831   -1.6753    0.0000 O   0  0  0  0  0  0  0  0  0  0  0  0
    0.8097   -0.0559    0.0000 O   0  0  0  0  0  0  0  0  0  0  0  0
    4.0766   -2.2337    0.0000 N   0  0  0  0  0  0  0  0  0  0  0  0
    3.0714   -3.0993    0.0000 C   0  0  3  0  0  0  0  0  0  0  0  0
    2.7643   -2.3454    0.0000 C   0  0  0  0  0  0  0  0  0  0  0  0
    3.8811   -3.0435    0.0000 C   0  0  0  0  0  0  0  0  0  0  0  0
    3.3785   -1.8149    0.0000 C   0  0  0  0  0  0  0  0  0  0  0  0
    3.0714   -3.9370    0.0000 C   0  0  0  0  0  0  0  0  0  0  0  0
    2.2337   -3.0435    0.0000 C   0  0  0  0  0  0  0  0  0  0  0  0
    3.7695   -4.3558    0.0000 C   0  0  0  0  0  0  0  0  0  0  0  0
    1.9825   -2.0662    0.0000 C   0  0  0  0  0  0  0  0  0  0  0  0
    3.2389   -0.9773    0.0000 C   0  0  0  0  0  0  0  0  0  0  0  0
    1.8987   -2.2896    0.0000 C   0  0  0  0  0  0  0  0  0  0  0  0
    2.3454   -4.3558    0.0000 C   0  0  0  0  0  0  0  0  0  0  0  0
    4.8305   -1.9266    0.0000 C   0  0  0  0  0  0  0  0  0  0  0  0
    1.8149   -1.2565    0.0000 C   0  0  0  0  0  0  0  0  0  0  0  0
    2.4571   -0.7260    0.0000 C   0  0  0  0  0  0  0  0  0  0  0  0
    4.4954   -3.9370    0.0000 C   0  0  0  0  0  0  0  0  0  0  0  0
    3.7695   -5.1655    0.0000 C   0  0  0  0  0  0  0  0  0  0  0  0
    2.3454   -1.6195    0.0000 C   0  0  0  0  0  0  0  0  0  0  0  0
    2.3454   -5.1655    0.0000 C   0  0  0  0  0  0  0  0  0  0  0  0
    1.0610   -2.2337    0.0000 C   0  0  0  0  0  0  0  0  0  0  0  0
    3.0714   -5.5844    0.0000 C   0  0  0  0  0  0  0  0  0  0  0  0
    5.5006   -2.4292    0.0000 C   0  0  0  0  0  0  0  0  0  0  0  0
    2.0104   -0.8656    0.0000 C   0  0  0  0  0  0  0  0  0  0  0  0
    1.0610   -0.9773    0.0000 C   0  0  0  0  0  0  0  0  0  0  0  0
    0.6980   -1.4799    0.0000 C   0  0  0  0  0  0  0  0  0  0  0  0
    1.1727   -0.8097    0.0000 C   0  0  0  0  0  0  0  0  0  0  0  0
    6.2545   -2.0941    0.0000 C   0  0  0  0  0  0  0  0  0  0  0  0
    6.9246   -2.6246    0.0000 C   0  0  0  0  0  0  0  0  0  0  0  0
    0.0000    0.0000    0.0000 C   0  0  0  0  0  0  0  0  0  0  0  0
    7.6785   -2.2896    0.0000 C   0  0  0  0  0  0  0  0  0  0  0  0
    6.8129   -3.4344    0.0000 C   0  0  0  0  0  0  0  0  0  0  0  0
  1  9  2  0  0  0  0
  2 21  2  0  0  0  0
  3 21  1  0  0  0  0
  4 23  1  0  0  0  0
  5 31  1  0  0  0  0
  5 34  1  0  0  0  0
  6  9  1  0  0  0  0
  6 10  1  0  0  0  0
  6 18  1  0  0  0  0
  7  8  1  0  0  0  0
  7  9  1  0  0  0  0
  7 11  1  0  0  0  0
  7 12  1  0  0  0  0
  8 10  2  0  0  0  0
  8 14  1  0  0  0  0
 10 15  1  0  0  0  0
 11 13  2  0  0  0  0
 11 17  1  0  0  0  0
 12 16  1  0  0  0  0
 13 21  1  0  0  0  0
 13 22  1  0  0  0  0
 14 19  2  0  0  0  0
 15 20  2  0  0  0  0
 16 23  2  0  0  0  0
 16 25  1  0  0  0  0
 17 24  2  0  0  0  0
 18 27  1  0  0  0  0
 19 20  1  0  0  0  0
 19 29  1  0  0  0  0
 22 26  2  0  0  0  0
 23 28  1  0  0  0  0
 24 26  1  0  0  0  0
 25 30  2  0  0  0  0
 27 32  1  0  0  0  0
 28 31  2  0  0  0  0
 30 31  1  0  0  0  0
 32 33  1  0  0  0  0
 33 35  1  0  0  0  0
 33 36  1  0  0  0  0
M  END
> <PUBCHEM_COMPOUND_ID_TYPE>
0

> <PUBCHEM_TOTAL_CHARGE>
0

> <PUBCHEM_SUBSTANCE_ID>
310934875

> <PUBCHEM_SUBSTANCE_VERSION>
1

> <PUBCHEM_EXT_DATASOURCE_NAME>
4488

> <PUBCHEM_EXT_DATASOURCE_REGID>
SCHEMBL16112384

> <PUBCHEM_SUBSTANCE_COMMENT>
InChI=1S/C30H33NO5/c1-19(2)8-7-15-31-26-14-11-20(3)16-25(26)30(29(31)35,24-10-6-5-9-23(24)28(33)34)18-21-12-13-22(36-4)17-27(21)32/h5-6,9-14,16-17,19,32H,7-8,15,18H2,1-4H3,(H,33,34)
InChIKey=VEOFPPGWSULBKP-UHFFFAOYSA-N

> <PUBCHEM_SUBSTANCE_SYNONYM>
SCHEMBL16112384

> <PUBCHEM_XREF_EXT_ID>
SCHEMBL16112384

> <PUBCHEM_EXT_DATASOURCE_URL>
https://www.surechembl.org/

> <PUBCHEM_EXT_SUBSTANCE_URL>
https://www.surechembl.org/chemical/SCHEMBL16112384

> <PUBCHEM_CID_ASSOCIATIONS>
117603007  1

> <PUBCHEM_COORDINATE_TYPE>
1
3

$$$$
