310943548
  -OEChem-07211613022D

 25 27  0     1  0  0  0  0  0999 V2000
    3.5609    1.8764    0.0000 F   0  0  0  0  0  0  0  0  0  0  0  0
    4.6647    1.5510    0.0000 F   0  0  0  0  0  0  0  0  0  0  0  0
    4.3161    0.4473    0.0000 F   0  0  0  0  0  0  0  0  0  0  0  0
   -2.0390   -1.4116    0.0000 N   0  0  3  0  0  0  0  0  0  0  0  0
   -3.8282   -0.8656    0.0000 N   0  0  3  0  0  0  0  0  0  0  0  0
    1.7717   -0.0523    0.0000 C   0  0  0  0  0  0  0  0  0  0  0  0
    3.2124    0.7842    0.0000 C   0  0  0  0  0  0  0  0  0  0  0  0
    0.8307   -0.5751    0.0000 C   0  0  0  0  0  0  0  0  0  0  0  0
    3.9444    1.1676    0.0000 C   0  0  0  0  0  0  0  0  0  0  0  0
    2.4921    1.1793    0.0000 C   0  0  0  0  0  0  0  0  0  0  0  0
    3.2008   -0.0523    0.0000 C   0  0  0  0  0  0  0  0  0  0  0  0
    1.7834    0.7726    0.0000 C   0  0  0  0  0  0  0  0  0  0  0  0
    2.4921   -0.4705    0.0000 C   0  0  0  0  0  0  0  0  0  0  0  0
   -0.5983   -1.4000    0.0000 C   0  0  0  0  0  0  0  0  0  0  0  0
    0.1220   -0.1568    0.0000 C   0  0  0  0  0  0  0  0  0  0  0  0
    0.8307   -1.4000    0.0000 C   0  0  0  0  0  0  0  0  0  0  0  0
   -0.5868   -0.5635    0.0000 C   0  0  0  0  0  0  0  0  0  0  0  0
    0.1220   -1.8183    0.0000 C   0  0  0  0  0  0  0  0  0  0  0  0
   -1.2954   -1.8183    0.0000 C   0  0  0  0  0  0  0  0  0  0  0  0
   -2.7128   -1.8764    0.0000 C   0  0  0  0  0  0  0  0  0  0  0  0
   -1.9693   -0.5751    0.0000 C   0  0  0  0  0  0  0  0  0  0  0  0
   -3.5145   -1.6324    0.0000 C   0  0  0  0  0  0  0  0  0  0  0  0
   -2.5850   -0.0058    0.0000 C   0  0  0  0  0  0  0  0  0  0  0  0
   -3.3983   -0.1220    0.0000 C   0  0  0  0  0  0  0  0  0  0  0  0
   -4.6647   -0.8656    0.0000 C   0  0  0  0  0  0  0  0  0  0  0  0
  1  9  1  0  0  0  0
  2  9  1  0  0  0  0
  3  9  1  0  0  0  0
  4 19  1  0  0  0  0
  4 20  1  0  0  0  0
  4 21  1  0  0  0  0
  5 22  1  0  0  0  0
  5 24  1  0  0  0  0
  5 25  1  0  0  0  0
  6  8  1  0  0  0  0
  6 12  2  0  0  0  0
  6 13  1  0  0  0  0
  7  9  1  0  0  0  0
  7 10  2  0  0  0  0
  7 11  1  0  0  0  0
  8 15  2  0  0  0  0
  8 16  1  0  0  0  0
 10 12  1  0  0  0  0
 11 13  2  0  0  0  0
 14 17  2  0  0  0  0
 14 18  1  0  0  0  0
 14 19  1  0  0  0  0
 15 17  1  0  0  0  0
 16 18  2  0  0  0  0
 20 22  1  0  0  0  0
 21 23  1  0  0  0  0
 23 24  1  0  0  0  0
M  END
> <PUBCHEM_COMPOUND_ID_TYPE>
0

> <PUBCHEM_TOTAL_CHARGE>
0

> <PUBCHEM_SUBSTANCE_ID>
310943548

> <PUBCHEM_SUBSTANCE_VERSION>
1

> <PUBCHEM_EXT_DATASOURCE_NAME>
4488

> <PUBCHEM_EXT_DATASOURCE_REGID>
SCHEMBL16121615

> <PUBCHEM_SUBSTANCE_COMMENT>
InChI=1S/C20H23F3N2/c1-24-11-2-12-25(14-13-24)15-16-3-5-17(6-4-16)18-7-9-19(10-8-18)20(21,22)23/h3-10H,2,11-15H2,1H3
InChIKey=UOORKYNXIMCPRQ-UHFFFAOYSA-N

> <PUBCHEM_SUBSTANCE_SYNONYM>
SCHEMBL16121615

> <PUBCHEM_XREF_EXT_ID>
SCHEMBL16121615

> <PUBCHEM_EXT_DATASOURCE_URL>
https://www.surechembl.org/

> <PUBCHEM_EXT_SUBSTANCE_URL>
https://www.surechembl.org/chemical/SCHEMBL16121615

> <PUBCHEM_CID_ASSOCIATIONS>
117609959  1

> <PUBCHEM_COORDINATE_TYPE>
1
3

$$$$
