310942937
  -OEChem-07211613022D

 12 13  0     1  0  0  0  0  0999 V2000
   -0.7182    0.8198    0.0000 O   0  0  0  0  0  0  0  0  0  0  0  0
    0.7182   -0.8198    0.0000 O   0  0  0  0  0  0  0  0  0  0  0  0
   -2.1391    0.8198    0.0000 O   0  0  0  0  0  0  0  0  0  0  0  0
    2.1391   -0.8198    0.0000 O   0  0  0  0  0  0  0  0  0  0  0  0
    0.0000   -0.3982    0.0000 C   0  0  3  0  0  0  0  0  0  0  0  0
    0.0156    0.4294    0.0000 C   0  0  3  0  0  0  0  0  0  0  0  0
   -0.7026   -0.8041    0.0000 C   0  0  0  0  0  0  0  0  0  0  0  0
    0.7026    0.8198    0.0000 C   0  0  0  0  0  0  0  0  0  0  0  0
   -1.4053    0.4294    0.0000 C   0  0  0  0  0  0  0  0  0  0  0  0
    1.4053   -0.3982    0.0000 C   0  0  0  0  0  0  0  0  0  0  0  0
   -1.4208   -0.3982    0.0000 C   0  0  0  0  0  0  0  0  0  0  0  0
    1.4365    0.4138    0.0000 C   0  0  0  0  0  0  0  0  0  0  0  0
  1  6  1  0  0  0  0
  1  9  1  0  0  0  0
  2  5  1  0  0  0  0
  2 10  1  0  0  0  0
  3  9  2  0  0  0  0
  4 10  2  0  0  0  0
  5  6  1  0  0  0  0
  5  7  1  0  0  0  0
  6  8  1  0  0  0  0
  7 11  1  0  0  0  0
  8 12  1  0  0  0  0
  9 11  1  0  0  0  0
 10 12  1  0  0  0  0
M  END
> <PUBCHEM_COMPOUND_ID_TYPE>
0

> <PUBCHEM_TOTAL_CHARGE>
0

> <PUBCHEM_SUBSTANCE_ID>
310942937

> <PUBCHEM_SUBSTANCE_VERSION>
1

> <PUBCHEM_EXT_DATASOURCE_NAME>
4488

> <PUBCHEM_EXT_DATASOURCE_REGID>
SCHEMBL16120995

> <PUBCHEM_SUBSTANCE_COMMENT>
InChI=1S/C8H10O4/c9-7-3-1-5-6(12-7)2-4-8(10)11-5/h5-6H,1-4H2
InChIKey=VJSPQSJPVKYTFG-UHFFFAOYSA-N

> <PUBCHEM_SUBSTANCE_SYNONYM>
SCHEMBL16120995

> <PUBCHEM_XREF_EXT_ID>
SCHEMBL16120995

> <PUBCHEM_EXT_DATASOURCE_URL>
https://www.surechembl.org/

> <PUBCHEM_EXT_SUBSTANCE_URL>
https://www.surechembl.org/chemical/SCHEMBL16120995

> <PUBCHEM_CID_ASSOCIATIONS>
74406828  1

> <PUBCHEM_COORDINATE_TYPE>
1
3

$$$$
