310944507
  -OEChem-07211613022D

 31 34  0     1  0  0  0  0  0999 V2000
   -4.9595   -0.6423    0.0000 Cl  0  0  0  0  0  0  0  0  0  0  0  0
   -5.6018    2.4691    0.0000 F   0  0  0  0  0  0  0  0  0  0  0  0
   -4.7598    2.4691    0.0000 F   0  0  0  0  0  0  0  0  0  0  0  0
   -1.8911   -0.6423    0.0000 O   0  0  0  0  0  0  0  0  0  0  0  0
   -0.4496    1.8554    0.0000 O   0  0  0  0  0  0  0  0  0  0  0  0
    4.1746   -2.4691    0.0000 O   0  0  0  0  0  0  0  0  0  0  0  0
   -1.8768    1.0276    0.0000 N   0  0  0  0  0  0  0  0  0  0  0  0
    1.7341   -0.2141    0.0000 N   0  0  0  0  0  0  0  0  0  0  0  0
    0.2926    0.6137    0.0000 N   0  0  0  0  0  0  0  0  0  0  0  0
   -4.7883    1.0419    0.0000 C   0  0  3  0  0  0  0  0  0  0  0  0
   -5.1879    1.7555    0.0000 C   0  0  0  0  0  0  0  0  0  0  0  0
   -5.5733    1.0419    0.0000 C   0  0  0  0  0  0  0  0  0  0  0  0
   -4.0319    0.6137    0.0000 C   0  0  0  0  0  0  0  0  0  0  0  0
   -4.0461   -0.2141    0.0000 C   0  0  0  0  0  0  0  0  0  0  0  0
   -3.3183    1.0276    0.0000 C   0  0  0  0  0  0  0  0  0  0  0  0
   -2.6047    0.6280    0.0000 C   0  0  0  0  0  0  0  0  0  0  0  0
   -2.6047   -0.2141    0.0000 C   0  0  0  0  0  0  0  0  0  0  0  0
   -3.3183   -0.6280    0.0000 C   0  0  0  0  0  0  0  0  0  0  0  0
    2.4619   -0.6423    0.0000 C   0  0  0  0  0  0  0  0  0  0  0  0
    3.4468   -1.2132    0.0000 C   0  0  0  0  0  0  0  0  0  0  0  0
    2.6760   -1.4272    0.0000 C   0  0  0  0  0  0  0  0  0  0  0  0
    3.2469   -0.4282    0.0000 C   0  0  0  0  0  0  0  0  0  0  0  0
   -0.4496    1.0133    0.0000 C   0  0  0  0  0  0  0  0  0  0  0  0
   -1.1489    0.6137    0.0000 C   0  0  0  0  0  0  0  0  0  0  0  0
    1.7198    0.6280    0.0000 C   0  0  0  0  0  0  0  0  0  0  0  0
    1.0205   -0.6280    0.0000 C   0  0  0  0  0  0  0  0  0  0  0  0
    4.1889   -1.6128    0.0000 C   0  0  0  0  0  0  0  0  0  0  0  0
    0.9919    1.0276    0.0000 C   0  0  0  0  0  0  0  0  0  0  0  0
    0.2926   -0.2141    0.0000 C   0  0  0  0  0  0  0  0  0  0  0  0
    4.9024   -1.2274    0.0000 C   0  0  0  0  0  0  0  0  0  0  0  0
    5.6018   -1.6699    0.0000 C   0  0  0  0  0  0  0  0  0  0  0  0
  1 14  1  0  0  0  0
  2 11  1  0  0  0  0
  3 11  1  0  0  0  0
  4 17  1  0  0  0  0
  5 23  2  0  0  0  0
  6 27  2  0  0  0  0
  7 16  1  0  0  0  0
  7 24  1  0  0  0  0
  8 19  1  0  0  0  0
  8 25  1  0  0  0  0
  8 26  1  0  0  0  0
  9 23  1  0  0  0  0
  9 28  1  0  0  0  0
  9 29  1  0  0  0  0
 10 11  1  0  0  0  0
 10 12  1  0  0  0  0
 10 13  1  0  0  0  0
 11 12  1  0  0  0  0
 13 14  2  0  0  0  0
 13 15  1  0  0  0  0
 14 18  1  0  0  0  0
 15 16  2  0  0  0  0
 16 17  1  0  0  0  0
 17 18  2  0  0  0  0
 19 21  1  0  0  0  0
 19 22  1  0  0  0  0
 20 21  1  0  0  0  0
 20 22  1  0  0  0  0
 20 27  1  0  0  0  0
 23 24  1  0  0  0  0
 25 28  1  0  0  0  0
 26 29  1  0  0  0  0
 27 30  1  0  0  0  0
 30 31  2  0  0  0  0
M  END
> <PUBCHEM_COMPOUND_ID_TYPE>
0

> <PUBCHEM_TOTAL_CHARGE>
0

> <PUBCHEM_SUBSTANCE_ID>
310944507

> <PUBCHEM_SUBSTANCE_VERSION>
1

> <PUBCHEM_EXT_DATASOURCE_NAME>
4488

> <PUBCHEM_EXT_DATASOURCE_REGID>
SCHEMBL16122582

> <PUBCHEM_SUBSTANCE_COMMENT>
InChI=1S/C22H26ClF2N3O3/c1-2-19(29)13-7-14(8-13)27-3-5-28(6-4-27)21(31)12-26-18-9-15(16-11-22(16,24)25)17(23)10-20(18)30/h2,9-10,13-14,16,26,30H,1,3-8,11-12H2
InChIKey=ZCNONSLGBLMLDQ-UHFFFAOYSA-N

> <PUBCHEM_SUBSTANCE_SYNONYM>
SCHEMBL16122582

> <PUBCHEM_XREF_EXT_ID>
SCHEMBL16122582

> <PUBCHEM_EXT_DATASOURCE_URL>
https://www.surechembl.org/

> <PUBCHEM_EXT_SUBSTANCE_URL>
https://www.surechembl.org/chemical/SCHEMBL16122582

> <PUBCHEM_CID_ASSOCIATIONS>
117610744  1

> <PUBCHEM_COORDINATE_TYPE>
1
3

$$$$
