310930816
  -OEChem-07211613022D

 19 21  0     1  0  0  0  0  0999 V2000
    0.0000   -0.8582    0.0000 Br  0  0  0  0  0  0  0  0  0  0  0  0
    3.1826   -3.1468    0.0000 O   0  0  0  0  0  0  0  0  0  0  0  0
    3.4150   -1.6986    0.0000 N   0  0  0  0  0  0  0  0  0  0  0  0
    2.9144   -1.0370    0.0000 C   0  0  3  0  0  0  0  0  0  0  0  0
    2.1277   -1.2694    0.0000 C   0  0  0  0  0  0  0  0  0  0  0  0
    2.1277   -2.1277    0.0000 C   0  0  0  0  0  0  0  0  0  0  0  0
    2.9144   -2.3601    0.0000 C   0  0  0  0  0  0  0  0  0  0  0  0
    3.7368   -0.9119    0.0000 C   0  0  0  0  0  0  0  0  0  0  0  0
    1.4125   -0.8761    0.0000 C   0  0  0  0  0  0  0  0  0  0  0  0
    1.4125   -2.5389    0.0000 C   0  0  0  0  0  0  0  0  0  0  0  0
    3.1826   -0.2682    0.0000 C   0  0  0  0  0  0  0  0  0  0  0  0
    0.7152   -1.2694    0.0000 C   0  0  0  0  0  0  0  0  0  0  0  0
    4.0408   -0.1430    0.0000 C   0  0  0  0  0  0  0  0  0  0  0  0
    4.2553   -1.5555    0.0000 C   0  0  0  0  0  0  0  0  0  0  0  0
    4.2375   -1.6986    0.0000 C   0  0  0  0  0  0  0  0  0  0  0  0
    0.7152   -2.1277    0.0000 C   0  0  0  0  0  0  0  0  0  0  0  0
    4.8453    0.0000    0.0000 C   0  0  0  0  0  0  0  0  0  0  0  0
    5.0778   -1.4125    0.0000 C   0  0  0  0  0  0  0  0  0  0  0  0
    5.3639   -0.6437    0.0000 C   0  0  0  0  0  0  0  0  0  0  0  0
  1 12  1  0  0  0  0
  2  7  2  0  0  0  0
  3  4  1  0  0  0  0
  3  7  1  0  0  0  0
  3 15  1  0  0  0  0
  4  5  1  0  0  0  0
  4  8  1  0  0  0  0
  4 11  1  0  0  0  0
  5  6  2  0  0  0  0
  5  9  1  0  0  0  0
  6  7  1  0  0  0  0
  6 10  1  0  0  0  0
  8 13  2  0  0  0  0
  8 14  1  0  0  0  0
  9 12  2  0  0  0  0
 10 16  2  0  0  0  0
 12 16  1  0  0  0  0
 13 17  1  0  0  0  0
 14 18  2  0  0  0  0
 17 19  2  0  0  0  0
 18 19  1  0  0  0  0
M  END
> <PUBCHEM_COMPOUND_ID_TYPE>
0

> <PUBCHEM_TOTAL_CHARGE>
0

> <PUBCHEM_SUBSTANCE_ID>
310930816

> <PUBCHEM_SUBSTANCE_VERSION>
1

> <PUBCHEM_EXT_DATASOURCE_NAME>
4488

> <PUBCHEM_EXT_DATASOURCE_REGID>
SCHEMBL16108113

> <PUBCHEM_SUBSTANCE_COMMENT>
InChI=1S/C16H14BrNO/c1-16(11-6-4-3-5-7-11)14-10-12(17)8-9-13(14)15(19)18(16)2/h3-10H,1-2H3
InChIKey=ARKMGQFPGAAADB-UHFFFAOYSA-N

> <PUBCHEM_SUBSTANCE_SYNONYM>
SCHEMBL16108113

> <PUBCHEM_XREF_EXT_ID>
SCHEMBL16108113

> <PUBCHEM_EXT_DATASOURCE_URL>
https://www.surechembl.org/

> <PUBCHEM_EXT_SUBSTANCE_URL>
https://www.surechembl.org/chemical/SCHEMBL16108113

> <PUBCHEM_CID_ASSOCIATIONS>
117599820  1

> <PUBCHEM_COORDINATE_TYPE>
1
3

$$$$
