310934936
  -OEChem-07211613022D

 24 26  0     1  0  0  0  0  0999 V2000
    1.7751   -2.5015    0.0000 F   0  0  0  0  0  0  0  0  0  0  0  0
   -3.9643   -5.6674    0.0000 F   0  0  0  0  0  0  0  0  0  0  0  0
    0.5943   -6.3837    0.0000 O   0  0  0  0  0  0  0  0  0  0  0  0
    1.6889   -5.4652    0.0000 O   0  0  0  0  0  0  0  0  0  0  0  0
   -3.1859   -3.6282    0.0000 N   0  0  0  0  0  0  0  0  0  0  0  0
    0.3461   -4.9765    0.0000 C   0  0  3  0  0  0  0  0  0  0  0  0
    1.0606   -4.5640    0.0000 C   0  0  0  0  0  0  0  0  0  0  0  0
    0.8764   -5.6085    0.0000 C   0  0  0  0  0  0  0  0  0  0  0  0
   -0.1842   -5.6085    0.0000 C   0  0  0  0  0  0  0  0  0  0  0  0
    0.0640   -4.2012    0.0000 C   0  0  0  0  0  0  0  0  0  0  0  0
    1.0606   -3.7390    0.0000 C   0  0  0  0  0  0  0  0  0  0  0  0
   -1.2788   -4.6900    0.0000 C   0  0  0  0  0  0  0  0  0  0  0  0
   -0.9966   -5.4652    0.0000 C   0  0  0  0  0  0  0  0  0  0  0  0
   -0.7485   -4.0580    0.0000 C   0  0  0  0  0  0  0  0  0  0  0  0
    1.7751   -4.9765    0.0000 C   0  0  0  0  0  0  0  0  0  0  0  0
    1.7751   -3.3265    0.0000 C   0  0  0  0  0  0  0  0  0  0  0  0
   -2.0913   -4.5467    0.0000 C   0  0  0  0  0  0  0  0  0  0  0  0
    2.4895   -4.5640    0.0000 C   0  0  0  0  0  0  0  0  0  0  0  0
    2.4895   -3.7390    0.0000 C   0  0  0  0  0  0  0  0  0  0  0  0
   -2.6216   -5.1787    0.0000 C   0  0  0  0  0  0  0  0  0  0  0  0
    0.3461   -3.3265    0.0000 C   0  0  0  0  0  0  0  0  0  0  0  0
   -2.3734   -3.7714    0.0000 C   0  0  0  0  0  0  0  0  0  0  0  0
   -3.4340   -5.0354    0.0000 C   0  0  0  0  0  0  0  0  0  0  0  0
   -3.7162   -4.2602    0.0000 C   0  0  0  0  0  0  0  0  0  0  0  0
  1 16  1  0  0  0  0
  2 23  1  0  0  0  0
  3  8  2  0  0  0  0
  4  8  1  0  0  0  0
  5 22  2  0  0  0  0
  5 24  1  0  0  0  0
  6  7  1  0  0  0  0
  6  8  1  0  0  0  0
  6  9  1  0  0  0  0
  6 10  1  0  0  0  0
  7 11  2  0  0  0  0
  7 15  1  0  0  0  0
  9 13  1  0  0  0  0
 10 14  1  0  0  0  0
 11 16  1  0  0  0  0
 11 21  1  0  0  0  0
 12 13  2  0  0  0  0
 12 14  1  0  0  0  0
 12 17  1  0  0  0  0
 15 18  2  0  0  0  0
 16 19  2  0  0  0  0
 17 20  2  0  0  0  0
 17 22  1  0  0  0  0
 18 19  1  0  0  0  0
 20 23  1  0  0  0  0
 23 24  2  0  0  0  0
M  END
> <PUBCHEM_COMPOUND_ID_TYPE>
0

> <PUBCHEM_TOTAL_CHARGE>
0

> <PUBCHEM_SUBSTANCE_ID>
310934936

> <PUBCHEM_SUBSTANCE_VERSION>
1

> <PUBCHEM_EXT_DATASOURCE_NAME>
4488

> <PUBCHEM_EXT_DATASOURCE_REGID>
SCHEMBL16112450

> <PUBCHEM_SUBSTANCE_COMMENT>
InChI=1S/C19H17F2NO2/c1-12-16(3-2-4-17(12)21)19(18(23)24)7-5-13(6-8-19)14-9-15(20)11-22-10-14/h2-5,9-11H,6-8H2,1H3,(H,23,24)
InChIKey=TVIQYCSKUUCSSL-UHFFFAOYSA-N

> <PUBCHEM_SUBSTANCE_SYNONYM>
SCHEMBL16112450

> <PUBCHEM_XREF_EXT_ID>
SCHEMBL16112450

> <PUBCHEM_EXT_DATASOURCE_URL>
https://www.surechembl.org/

> <PUBCHEM_EXT_SUBSTANCE_URL>
https://www.surechembl.org/chemical/SCHEMBL16112450

> <PUBCHEM_CID_ASSOCIATIONS>
117603058  1

> <PUBCHEM_COORDINATE_TYPE>
1
3

$$$$
