310931566
  -OEChem-07211613022D

 27 28  0     1  0  0  0  0  0999 V2000
    3.4738   -1.2359    0.0000 S   0  0  0  0  0  0  0  0  0  0  0  0
    1.2359   -5.7786    0.0000 S   0  0  0  0  0  0  0  0  0  0  0  0
    4.1753    0.0000    0.0000 F   0  0  0  0  0  0  0  0  0  0  0  0
    2.7390    0.0000    0.0000 F   0  0  0  0  0  0  0  0  0  0  0  0
    4.1753   -0.8350    0.0000 F   0  0  0  0  0  0  0  0  0  0  0  0
    3.4738   -2.0375    0.0000 O   0  0  0  0  0  0  0  0  0  0  0  0
    4.2755   -1.2359    0.0000 O   0  0  0  0  0  0  0  0  0  0  0  0
    2.6388   -1.2359    0.0000 O   0  0  0  0  0  0  0  0  0  0  0  0
    4.1753   -4.9435    0.0000 O   0  0  0  0  0  0  0  0  0  0  0  0
    3.4738   -3.7077    0.0000 O   0  0  0  0  0  0  0  0  0  0  0  0
    0.5678   -4.6095    0.0000 N   0  0  0  0  0  0  0  0  0  0  0  0
    1.3361   -2.4718    0.0000 N   0  0  0  0  0  0  0  0  0  0  0  0
    3.4738   -0.4008    0.0000 C   0  0  0  0  0  0  0  0  0  0  0  0
    2.7390   -2.4718    0.0000 C   0  0  0  0  0  0  0  0  0  0  0  0
    2.0375   -3.7077    0.0000 C   0  0  0  0  0  0  0  0  0  0  0  0
    2.0375   -4.5427    0.0000 C   0  0  3  0  0  0  0  0  0  0  0  0
    1.3027   -4.9435    0.0000 C   0  0  0  0  0  0  0  0  0  0  0  0
    2.7390   -3.2734    0.0000 C   0  0  0  0  0  0  0  0  0  0  0  0
    2.0375   -2.0041    0.0000 C   0  0  0  0  0  0  0  0  0  0  0  0
    1.3361   -3.2734    0.0000 C   0  0  0  0  0  0  0  0  0  0  0  0
    2.7390   -4.9435    0.0000 C   0  0  0  0  0  0  0  0  0  0  0  0
    0.4342   -5.9456    0.0000 C   0  0  0  0  0  0  0  0  0  0  0  0
    0.0000   -5.2108    0.0000 C   0  0  0  0  0  0  0  0  0  0  0  0
    3.4738   -4.5427    0.0000 C   0  0  0  0  0  0  0  0  0  0  0  0
    0.0668   -6.6804    0.0000 C   0  0  0  0  0  0  0  0  0  0  0  0
    4.1753   -5.7786    0.0000 C   0  0  0  0  0  0  0  0  0  0  0  0
    4.8767   -6.1794    0.0000 C   0  0  0  0  0  0  0  0  0  0  0  0
  1  6  1  0  0  0  0
  1  7  2  0  0  0  0
  1  8  2  0  0  0  0
  1 13  1  0  0  0  0
  2 17  1  0  0  0  0
  2 22  1  0  0  0  0
  3 13  1  0  0  0  0
  4 13  1  0  0  0  0
  5 13  1  0  0  0  0
  6 14  1  0  0  0  0
  9 24  1  0  0  0  0
  9 26  1  0  0  0  0
 10 24  2  0  0  0  0
 11 17  2  0  0  0  0
 11 23  1  0  0  0  0
 12 19  2  0  0  0  0
 12 20  1  0  0  0  0
 14 18  2  0  0  0  0
 14 19  1  0  0  0  0
 15 16  1  0  0  0  0
 15 18  1  0  0  0  0
 15 20  2  0  0  0  0
 16 17  1  0  0  0  0
 16 21  1  0  0  0  0
 21 24  1  0  0  0  0
 22 23  2  0  0  0  0
 22 25  1  0  0  0  0
 26 27  1  0  0  0  0
M  END
> <PUBCHEM_COMPOUND_ID_TYPE>
0

> <PUBCHEM_TOTAL_CHARGE>
0

> <PUBCHEM_SUBSTANCE_ID>
310931566

> <PUBCHEM_SUBSTANCE_VERSION>
1

> <PUBCHEM_EXT_DATASOURCE_NAME>
4488

> <PUBCHEM_EXT_DATASOURCE_REGID>
SCHEMBL16108892

> <PUBCHEM_SUBSTANCE_COMMENT>
InChI=1S/C15H15F3N2O5S2/c1-3-24-13(21)5-12(14-20-6-9(2)26-14)10-4-11(8-19-7-10)25-27(22,23)15(16,17)18/h4,6-8,12H,3,5H2,1-2H3
InChIKey=SIWJVHDAKJIFET-UHFFFAOYSA-N

> <PUBCHEM_SUBSTANCE_SYNONYM>
SCHEMBL16108892

> <PUBCHEM_XREF_EXT_ID>
SCHEMBL16108892

> <PUBCHEM_EXT_DATASOURCE_URL>
https://www.surechembl.org/

> <PUBCHEM_EXT_SUBSTANCE_URL>
https://www.surechembl.org/chemical/SCHEMBL16108892

> <PUBCHEM_CID_ASSOCIATIONS>
117600310  1

> <PUBCHEM_COORDINATE_TYPE>
1
3

$$$$
