310935553
  -OEChem-07211613022D

 30 31  0     1  0  0  0  0  0999 V2000
   -0.6040    1.7053    0.0000 S   0  0  0  0  0  0  0  0  0  0  0  0
   -7.8592    1.2375    0.0000 O   0  0  0  0  0  0  0  0  0  0  0  0
   -0.1915    0.9908    0.0000 O   0  0  0  0  0  0  0  0  0  0  0  0
   -1.0165    2.4197    0.0000 O   0  0  0  0  0  0  0  0  0  0  0  0
    0.1106    2.1178    0.0000 O   0  0  0  0  0  0  0  0  0  0  0  0
   -5.7158    2.4750    0.0000 O   0  0  0  0  0  0  0  0  0  0  0  0
   -8.5736    2.4750    0.0000 O   0  0  0  0  0  0  0  0  0  0  0  0
   -6.4302    0.4125    0.0000 N   0  0  0  0  0  0  0  0  0  0  0  0
   -1.3184    1.2928    0.0000 C   0  0  0  0  0  0  0  0  0  0  0  0
   -5.7158    1.6500    0.0000 C   0  0  3  0  0  0  0  0  0  0  0  0
   -5.0013    1.2375    0.0000 C   0  0  0  0  0  0  0  0  0  0  0  0
   -6.4302    1.2375    0.0000 C   0  0  3  0  0  0  0  0  0  0  0  0
   -9.2881    1.2375    0.0000 C   0  0  0  0  0  0  0  0  0  0  0  0
   -8.5736    1.6500    0.0000 C   0  0  0  0  0  0  0  0  0  0  0  0
   -2.0329    1.7053    0.0000 C   0  0  0  0  0  0  0  0  0  0  0  0
   -1.3184    0.4678    0.0000 C   0  0  0  0  0  0  0  0  0  0  0  0
   -7.1447    1.6500    0.0000 C   0  0  0  0  0  0  0  0  0  0  0  0
   -5.0013    0.4125    0.0000 C   0  0  0  0  0  0  0  0  0  0  0  0
   -4.2868    1.6500    0.0000 C   0  0  0  0  0  0  0  0  0  0  0  0
   -2.7474    1.2928    0.0000 C   0  0  0  0  0  0  0  0  0  0  0  0
   -2.0329    0.0553    0.0000 C   0  0  0  0  0  0  0  0  0  0  0  0
  -10.0026    1.6500    0.0000 C   0  0  0  0  0  0  0  0  0  0  0  0
   -9.2881    0.4125    0.0000 C   0  0  0  0  0  0  0  0  0  0  0  0
   -2.7474    0.4678    0.0000 C   0  0  0  0  0  0  0  0  0  0  0  0
   -4.2868    0.0000    0.0000 C   0  0  0  0  0  0  0  0  0  0  0  0
   -3.5724    1.2375    0.0000 C   0  0  0  0  0  0  0  0  0  0  0  0
   -3.5724    0.4125    0.0000 C   0  0  0  0  0  0  0  0  0  0  0  0
  -10.7170    1.2375    0.0000 C   0  0  0  0  0  0  0  0  0  0  0  0
  -10.0026    0.0000    0.0000 C   0  0  0  0  0  0  0  0  0  0  0  0
  -10.7170    0.4125    0.0000 C   0  0  0  0  0  0  0  0  0  0  0  0
  1  3  2  0  0  0  0
  1  4  2  0  0  0  0
  1  5  1  0  0  0  0
  1  9  1  0  0  0  0
  2 14  1  0  0  0  0
  2 17  1  0  0  0  0
  6 10  1  0  0  0  0
  7 14  2  0  0  0  0
  8 12  1  0  0  0  0
  9 15  2  0  0  0  0
  9 16  1  0  0  0  0
 10 11  1  0  0  0  0
 10 12  1  0  0  0  0
 11 18  2  0  0  0  0
 11 19  1  0  0  0  0
 12 17  1  0  0  0  0
 13 14  1  0  0  0  0
 13 22  2  0  0  0  0
 13 23  1  0  0  0  0
 15 20  1  0  0  0  0
 16 21  2  0  0  0  0
 18 25  1  0  0  0  0
 19 26  2  0  0  0  0
 20 24  2  0  0  0  0
 21 24  1  0  0  0  0
 22 28  1  0  0  0  0
 23 29  2  0  0  0  0
 25 27  2  0  0  0  0
 26 27  1  0  0  0  0
 28 30  2  0  0  0  0
 29 30  1  0  0  0  0
M  END
> <PUBCHEM_COMPOUND_ID_TYPE>
0

> <PUBCHEM_TOTAL_CHARGE>
0

> <PUBCHEM_SUBSTANCE_ID>
310935553

> <PUBCHEM_SUBSTANCE_VERSION>
1

> <PUBCHEM_EXT_DATASOURCE_NAME>
4488

> <PUBCHEM_EXT_DATASOURCE_REGID>
SCHEMBL16113124

> <PUBCHEM_SUBSTANCE_COMMENT>
InChI=1S/C16H17NO3.C6H6O3S/c17-14(15(18)12-7-3-1-4-8-12)11-20-16(19)13-9-5-2-6-10-13;7-10(8,9)6-4-2-1-3-5-6/h1-10,14-15,18H,11,17H2;1-5H,(H,7,8,9)
InChIKey=NKHIVLPPLCFMHW-UHFFFAOYSA-N

> <PUBCHEM_SUBSTANCE_SYNONYM>
SCHEMBL16113124

> <PUBCHEM_XREF_EXT_ID>
SCHEMBL16113124

> <PUBCHEM_EXT_DATASOURCE_URL>
https://www.surechembl.org/

> <PUBCHEM_EXT_SUBSTANCE_URL>
https://www.surechembl.org/chemical/SCHEMBL16113124

> <PUBCHEM_CID_ASSOCIATIONS>
117603577  1
7371  2
117603578  2

> <PUBCHEM_COORDINATE_TYPE>
1
3

$$$$
