310929414
  -OEChem-07211613022D

 59 63  0     1  0  0  0  0  0999 V2000
   -1.4289   -0.0000    0.0000 O   0  0  0  0  0  0  0  0  0  0  0  0
   -0.0000   -2.4750    0.0000 O   0  0  0  0  0  0  0  0  0  0  0  0
   -1.9908    3.5157    0.0000 O   0  0  0  0  0  0  0  0  0  0  0  0
    0.2890    2.6757    0.0000 O   0  0  0  0  0  0  0  0  0  0  0  0
   -6.5408   -1.6500    0.0000 O   0  0  0  0  0  0  0  0  0  0  0  0
   -3.1468    2.6757    0.0000 O   0  0  0  0  0  0  0  0  0  0  0  0
   -0.8671    3.5157    0.0000 O   0  0  0  0  0  0  0  0  0  0  0  0
  -10.1131   -1.2375    0.0000 O   0  0  0  0  0  0  0  0  0  0  0  0
   -7.2552   -0.4125    0.0000 O   0  0  0  0  0  0  0  0  0  0  0  0
   -9.3987   -2.4750    0.0000 O   0  0  0  0  0  0  0  0  0  0  0  0
    0.0000    0.0000    0.0000 N   0  0  0  0  0  0  0  0  0  0  0  0
   -1.8414    2.0945    0.0000 N   0  0  0  0  0  0  0  0  0  0  0  0
    2.1434   -1.2375    0.0000 N   0  0  0  0  0  0  0  0  0  0  0  0
   -7.9697   -1.6500    0.0000 N   0  0  0  0  0  0  0  0  0  0  0  0
    2.1434   -3.7125    0.0000 N   0  0  0  0  0  0  0  0  0  0  0  0
    0.0000   -1.6500    0.0000 C   0  0  0  0  0  0  0  0  0  0  0  0
   -0.7145   -1.2375    0.0000 C   0  0  0  0  0  0  0  0  0  0  0  0
   -0.7145   -0.4125    0.0000 C   0  0  0  0  0  0  0  0  0  0  0  0
    0.7145   -1.2375    0.0000 C   0  0  0  0  0  0  0  0  0  0  0  0
    0.7145   -0.4125    0.0000 C   0  0  0  0  0  0  0  0  0  0  0  0
   -1.4289    0.8250    0.0000 C   0  0  3  0  0  0  0  0  0  0  0  0
   -1.0164    2.0945    0.0000 C   0  0  3  0  0  0  0  0  0  0  0  0
   -2.0964    1.3099    0.0000 C   0  0  0  0  0  0  0  0  0  0  0  0
   -0.7615    1.3099    0.0000 C   0  0  0  0  0  0  0  0  0  0  0  0
    1.4289   -1.6500    0.0000 C   0  0  0  0  0  0  0  0  0  0  0  0
   -1.4289   -1.6500    0.0000 C   0  0  0  0  0  0  0  0  0  0  0  0
    1.4289    0.0000    0.0000 C   0  0  0  0  0  0  0  0  0  0  0  0
   -2.3264    2.7620    0.0000 C   0  0  0  0  0  0  0  0  0  0  0  0
   -0.5315    2.7620    0.0000 C   0  0  0  0  0  0  0  0  0  0  0  0
    0.7145   -2.8875    0.0000 C   0  0  0  0  0  0  0  0  0  0  0  0
    2.1434   -0.4125    0.0000 C   0  0  0  0  0  0  0  0  0  0  0  0
   -5.8263   -1.2375    0.0000 C   0  0  3  0  0  0  0  0  0  0  0  0
   -5.0013   -1.2375    0.0000 C   0  0  3  0  0  0  0  0  0  0  0  0
   -2.1434   -1.2375    0.0000 C   0  0  0  0  0  0  0  0  0  0  0  0
   -5.4138   -0.5230    0.0000 C   0  0  0  0  0  0  0  0  0  0  0  0
   -2.4757    4.1831    0.0000 C   0  0  0  0  0  0  0  0  0  0  0  0
    0.7145   -3.7125    0.0000 C   0  0  0  0  0  0  0  0  0  0  0  0
    1.4289   -2.4750    0.0000 C   0  0  0  0  0  0  0  0  0  0  0  0
   -8.6842   -1.2375    0.0000 C   0  0  3  0  0  0  0  0  0  0  0  0
   -4.2868   -1.6500    0.0000 C   0  0  0  0  0  0  0  0  0  0  0  0
   -7.2552   -1.2375    0.0000 C   0  0  0  0  0  0  0  0  0  0  0  0
   -2.8579   -1.6500    0.0000 C   0  0  0  0  0  0  0  0  0  0  0  0
   -8.6842   -0.4125    0.0000 C   0  0  0  0  0  0  0  0  0  0  0  0
   -3.5724   -1.2375    0.0000 C   0  0  0  0  0  0  0  0  0  0  0  0
   -9.3987   -1.6500    0.0000 C   0  0  0  0  0  0  0  0  0  0  0  0
    1.4289   -4.1250    0.0000 C   0  0  0  0  0  0  0  0  0  0  0  0
    2.1434   -2.8875    0.0000 C   0  0  0  0  0  0  0  0  0  0  0  0
   -2.9607    4.8505    0.0000 C   0  0  0  0  0  0  0  0  0  0  0  0
   -3.1432    3.6982    0.0000 C   0  0  0  0  0  0  0  0  0  0  0  0
   -1.8083    4.6680    0.0000 C   0  0  0  0  0  0  0  0  0  0  0  0
    0.6245    1.9221    0.0000 C   0  0  0  0  0  0  0  0  0  0  0  0
  -10.8276   -1.6500    0.0000 C   0  0  0  0  0  0  0  0  0  0  0  0
   -9.5092   -0.4125    0.0000 C   0  0  0  0  0  0  0  0  0  0  0  0
   -7.8592   -0.4125    0.0000 C   0  0  0  0  0  0  0  0  0  0  0  0
   -8.6842    0.4125    0.0000 C   0  0  0  0  0  0  0  0  0  0  0  0
    2.8579   -4.1250    0.0000 C   0  0  0  0  0  0  0  0  0  0  0  0
  -11.5421   -2.0625    0.0000 C   0  0  0  0  0  0  0  0  0  0  0  0
  -11.2401   -0.9355    0.0000 C   0  0  0  0  0  0  0  0  0  0  0  0
  -10.4151   -2.3645    0.0000 C   0  0  0  0  0  0  0  0  0  0  0  0
  1 18  1  0  0  0  0
 21  1  1  1  0  0  0
  2 16  1  0  0  0  0
  2 30  1  0  0  0  0
  3 28  1  0  0  0  0
  3 36  1  0  0  0  0
  4 29  1  0  0  0  0
  4 51  1  0  0  0  0
 32  5  1  6  0  0  0
  5 41  1  0  0  0  0
  6 28  2  0  0  0  0
  7 29  2  0  0  0  0
  8 45  1  0  0  0  0
  8 52  1  0  0  0  0
  9 41  2  0  0  0  0
 10 45  2  0  0  0  0
 11 18  2  0  0  0  0
 11 20  1  0  0  0  0
 12 22  1  0  0  0  0
 12 23  1  0  0  0  0
 12 28  1  0  0  0  0
 13 25  2  0  0  0  0
 13 31  1  0  0  0  0
 14 39  1  0  0  0  0
 14 41  1  0  0  0  0
 15 46  1  0  0  0  0
 15 47  1  0  0  0  0
 15 56  1  0  0  0  0
 16 17  2  0  0  0  0
 16 19  1  0  0  0  0
 17 18  1  0  0  0  0
 17 26  1  0  0  0  0
 19 20  2  0  0  0  0
 19 25  1  0  0  0  0
 20 27  1  0  0  0  0
 21 23  1  0  0  0  0
 21 24  1  0  0  0  0
 22 24  1  0  0  0  0
 22 29  1  6  0  0  0
 26 34  1  0  0  0  0
 27 31  2  0  0  0  0
 30 37  1  0  0  0  0
 30 38  1  0  0  0  0
 32 33  1  0  0  0  0
 32 35  1  0  0  0  0
 33 35  1  0  0  0  0
 33 40  1  1  0  0  0
 34 42  1  0  0  0  0
 36 48  1  0  0  0  0
 36 49  1  0  0  0  0
 36 50  1  0  0  0  0
 37 46  1  0  0  0  0
 38 47  1  0  0  0  0
 39 43  1  0  0  0  0
 45 39  1  1  0  0  0
 40 44  1  0  0  0  0
 42 44  1  0  0  0  0
 43 53  1  0  0  0  0
 43 54  1  0  0  0  0
 43 55  1  0  0  0  0
 52 57  1  0  0  0  0
 52 58  1  0  0  0  0
 52 59  1  0  0  0  0
M  END
> <PUBCHEM_COMPOUND_ID_TYPE>
0

> <PUBCHEM_TOTAL_CHARGE>
0

> <PUBCHEM_SUBSTANCE_ID>
310929414

> <PUBCHEM_SUBSTANCE_VERSION>
1

> <PUBCHEM_EXT_DATASOURCE_NAME>
4488

> <PUBCHEM_EXT_DATASOURCE_REGID>
SCHEMBL16106588

> <PUBCHEM_SUBSTANCE_COMMENT>
InChI=1S/C44H67N5O10/c1-42(2,3)36(39(51)58-43(4,5)6)47-40(52)57-34-23-27(34)15-13-12-14-16-30-35(55-28-18-21-48(10)22-19-28)31-25-45-20-17-32(31)46-37(30)56-29-24-33(38(50)54-11)49(26-29)41(53)59-44(7,8)9/h17,20,25,27-29,33-34,36H,12-16,18-19,21-24,26H2,1-11H3,(H,47,52)/t27-,29-,33+,34-,36?/m1/s1
InChIKey=KSNMOJDZEWNGJY-ICRCJJMLSA-N

> <PUBCHEM_SUBSTANCE_SYNONYM>
SCHEMBL16106588

> <PUBCHEM_XREF_EXT_ID>
SCHEMBL16106588

> <PUBCHEM_EXT_DATASOURCE_URL>
https://www.surechembl.org/

> <PUBCHEM_EXT_SUBSTANCE_URL>
https://www.surechembl.org/chemical/SCHEMBL16106588

> <PUBCHEM_CID_ASSOCIATIONS>
117598775  1

> <PUBCHEM_COORDINATE_TYPE>
1
3

> <PUBCHEM_BONDANNOTATIONS>
21  1  5
22  29  6
33  40  5
45  39  5
32  5  6

$$$$
