310938449
  -OEChem-07211613022D

 17 18  0     1  0  0  0  0  0999 V2000
    2.8559   -0.3869    0.0000 O   0  0  0  0  0  0  0  0  0  0  0  0
    0.7186    0.0000    0.0000 O   0  0  0  0  0  0  0  0  0  0  0  0
    2.8559   -1.2160    0.0000 C   0  0  3  0  0  0  0  0  0  0  0  0
    1.4372   -1.2344    0.0000 C   0  0  0  0  0  0  0  0  0  0  0  0
    2.1373   -0.8107    0.0000 C   0  0  0  0  0  0  0  0  0  0  0  0
    0.7186   -0.8291    0.0000 C   0  0  0  0  0  0  0  0  0  0  0  0
    2.1557   -1.6214    0.0000 C   0  0  0  0  0  0  0  0  0  0  0  0
    3.5744   -1.6214    0.0000 C   0  0  0  0  0  0  0  0  0  0  0  0
    1.4372   -2.0452    0.0000 C   0  0  0  0  0  0  0  0  0  0  0  0
    0.7370   -2.4505    0.0000 C   0  0  0  0  0  0  0  0  0  0  0  0
    2.8559   -2.8559    0.0000 C   0  0  0  0  0  0  0  0  0  0  0  0
    2.1557   -2.4505    0.0000 C   0  0  0  0  0  0  0  0  0  0  0  0
    3.5744   -2.4505    0.0000 C   0  0  0  0  0  0  0  0  0  0  0  0
    0.0000   -1.2344    0.0000 C   0  0  0  0  0  0  0  0  0  0  0  0
    0.0184   -2.0636    0.0000 C   0  0  0  0  0  0  0  0  0  0  0  0
    0.7370   -3.2796    0.0000 C   0  0  0  0  0  0  0  0  0  0  0  0
    2.8559   -3.6850    0.0000 C   0  0  0  0  0  0  0  0  0  0  0  0
  1  3  1  0  0  0  0
  2  6  1  0  0  0  0
  3  5  1  0  0  0  0
  3  7  1  0  0  0  0
  3  8  1  0  0  0  0
  4  5  1  0  0  0  0
  4  6  2  0  0  0  0
  4  9  1  0  0  0  0
  6 14  1  0  0  0  0
  7 12  2  0  0  0  0
  8 13  1  0  0  0  0
  9 10  2  0  0  0  0
 10 15  1  0  0  0  0
 10 16  1  0  0  0  0
 11 12  1  0  0  0  0
 11 13  2  0  0  0  0
 11 17  1  0  0  0  0
 14 15  2  0  0  0  0
M  END
> <PUBCHEM_COMPOUND_ID_TYPE>
0

> <PUBCHEM_TOTAL_CHARGE>
0

> <PUBCHEM_SUBSTANCE_ID>
310938449

> <PUBCHEM_SUBSTANCE_VERSION>
1

> <PUBCHEM_EXT_DATASOURCE_NAME>
4488

> <PUBCHEM_EXT_DATASOURCE_REGID>
SCHEMBL16116348

> <PUBCHEM_SUBSTANCE_COMMENT>
InChI=1S/C15H18O2/c1-11-5-7-15(17,8-6-11)10-13-9-12(2)3-4-14(13)16/h3-7,9,16-17H,8,10H2,1-2H3
InChIKey=COBVJUSKAZAIFJ-UHFFFAOYSA-N

> <PUBCHEM_SUBSTANCE_SYNONYM>
SCHEMBL16116348

> <PUBCHEM_XREF_EXT_ID>
SCHEMBL16116348

> <PUBCHEM_EXT_DATASOURCE_URL>
https://www.surechembl.org/

> <PUBCHEM_EXT_SUBSTANCE_URL>
https://www.surechembl.org/chemical/SCHEMBL16116348

> <PUBCHEM_CID_ASSOCIATIONS>
117605911  1

> <PUBCHEM_COORDINATE_TYPE>
1
3

$$$$
