310945918
  -OEChem-07211613022D

 36 39  0     1  0  0  0  0  0999 V2000
    3.6879    1.3246    0.0000 O   0  0  0  0  0  0  0  0  0  0  0  0
   -2.2238    2.5794    0.0000 O   0  0  0  0  0  0  0  0  0  0  0  0
    1.4012    1.3246    0.0000 O   0  0  0  0  0  0  0  0  0  0  0  0
   -0.0488    1.3246    0.0000 O   0  0  0  0  0  0  0  0  0  0  0  0
    0.6762    0.9062    0.0000 O   0  0  0  0  0  0  0  0  0  0  0  0
   -2.9628   -2.8583    0.0000 O   0  0  0  0  0  0  0  0  0  0  0  0
    1.4012   -0.3346    0.0000 N   0  0  0  0  0  0  0  0  0  0  0  0
   -0.7738    0.0836    0.0000 N   0  0  0  0  0  0  0  0  0  0  0  0
   -2.2238    0.9202    0.0000 N   0  0  0  0  0  0  0  0  0  0  0  0
    2.8513    1.3385    0.0000 C   0  0  3  0  0  0  0  0  0  0  0  0
   -1.4849    2.1890    0.0000 C   0  0  0  0  0  0  0  0  0  0  0  0
    2.1542    0.9062    0.0000 C   0  0  0  0  0  0  0  0  0  0  0  0
    3.2696    0.6414    0.0000 C   0  0  0  0  0  0  0  0  0  0  0  0
   -1.5128    1.3385    0.0000 C   0  0  3  0  0  0  0  0  0  0  0  0
    2.1263    0.0976    0.0000 C   0  0  3  0  0  0  0  0  0  0  0  0
   -1.0805    2.8583    0.0000 C   0  0  0  0  0  0  0  0  0  0  0  0
   -0.6762    2.1890    0.0000 C   0  0  0  0  0  0  0  0  0  0  0  0
   -0.7878    0.9202    0.0000 C   0  0  0  0  0  0  0  0  0  0  0  0
   -0.0488   -0.3207    0.0000 C   0  0  3  0  0  0  0  0  0  0  0  0
    2.8653    2.1890    0.0000 C   0  0  0  0  0  0  0  0  0  0  0  0
    0.6762    0.0558    0.0000 C   0  0  0  0  0  0  0  0  0  0  0  0
    2.8653   -0.3346    0.0000 C   0  0  0  0  0  0  0  0  0  0  0  0
   -0.0488   -1.1712    0.0000 C   0  0  0  0  0  0  0  0  0  0  0  0
    2.8513   -1.1712    0.0000 C   0  0  0  0  0  0  0  0  0  0  0  0
   -0.7738   -1.5755    0.0000 C   0  0  0  0  0  0  0  0  0  0  0  0
    3.5763   -1.5895    0.0000 C   0  0  0  0  0  0  0  0  0  0  0  0
    2.1402   -1.5895    0.0000 C   0  0  0  0  0  0  0  0  0  0  0  0
   -1.5128   -1.1851    0.0000 C   0  0  0  0  0  0  0  0  0  0  0  0
   -0.7738   -2.4121    0.0000 C   0  0  0  0  0  0  0  0  0  0  0  0
   -2.2238   -2.4121    0.0000 C   0  0  0  0  0  0  0  0  0  0  0  0
   -2.2099   -1.5895    0.0000 C   0  0  0  0  0  0  0  0  0  0  0  0
   -1.4849   -2.8304    0.0000 C   0  0  0  0  0  0  0  0  0  0  0  0
    3.5763   -2.4121    0.0000 C   0  0  0  0  0  0  0  0  0  0  0  0
    2.1402   -2.3981    0.0000 C   0  0  0  0  0  0  0  0  0  0  0  0
    2.8653   -2.8304    0.0000 C   0  0  0  0  0  0  0  0  0  0  0  0
   -3.6879   -2.4400    0.0000 C   0  0  0  0  0  0  0  0  0  0  0  0
  1 10  1  0  0  0  0
  1 13  1  0  0  0  0
  2 11  1  0  0  0  0
  3 12  2  0  0  0  0
  4 18  2  0  0  0  0
  5 21  2  0  0  0  0
  6 30  1  0  0  0  0
  6 36  1  0  0  0  0
  7 15  1  0  0  0  0
  7 21  1  0  0  0  0
  8 18  1  0  0  0  0
  8 19  1  0  0  0  0
  9 14  1  0  0  0  0
 10 12  1  0  0  0  0
 10 13  1  0  0  0  0
 10 20  1  0  0  0  0
 11 14  1  0  0  0  0
 11 16  1  0  0  0  0
 11 17  1  0  0  0  0
 12 15  1  0  0  0  0
 14 18  1  0  0  0  0
 15 22  1  0  0  0  0
 16 17  1  0  0  0  0
 19 21  1  0  0  0  0
 19 23  1  0  0  0  0
 22 24  1  0  0  0  0
 23 25  1  0  0  0  0
 24 26  2  0  0  0  0
 24 27  1  0  0  0  0
 25 28  2  0  0  0  0
 25 29  1  0  0  0  0
 26 33  1  0  0  0  0
 27 34  2  0  0  0  0
 28 31  1  0  0  0  0
 29 32  2  0  0  0  0
 30 31  2  0  0  0  0
 30 32  1  0  0  0  0
 33 35  2  0  0  0  0
 34 35  1  0  0  0  0
M  END
> <PUBCHEM_COMPOUND_ID_TYPE>
0

> <PUBCHEM_TOTAL_CHARGE>
0

> <PUBCHEM_SUBSTANCE_ID>
310945918

> <PUBCHEM_SUBSTANCE_VERSION>
1

> <PUBCHEM_EXT_DATASOURCE_NAME>
4488

> <PUBCHEM_EXT_DATASOURCE_REGID>
SCHEMBL16124023

> <PUBCHEM_SUBSTANCE_COMMENT>
InChI=1S/C27H33N3O6/c1-26(16-36-26)23(31)20(14-17-6-4-3-5-7-17)29-24(32)21(15-18-8-10-19(35-2)11-9-18)30-25(33)22(28)27(34)12-13-27/h3-11,20-22,34H,12-16,28H2,1-2H3,(H,29,32)(H,30,33)
InChIKey=JYKNHCCVYPGPNL-UHFFFAOYSA-N

> <PUBCHEM_SUBSTANCE_SYNONYM>
SCHEMBL16124023

> <PUBCHEM_XREF_EXT_ID>
SCHEMBL16124023

> <PUBCHEM_EXT_DATASOURCE_URL>
https://www.surechembl.org/

> <PUBCHEM_EXT_SUBSTANCE_URL>
https://www.surechembl.org/chemical/SCHEMBL16124023

> <PUBCHEM_CID_ASSOCIATIONS>
117611901  1

> <PUBCHEM_COORDINATE_TYPE>
1
3

$$$$
