310945379
  -OEChem-07211613022D

 23 25  0     1  0  0  0  0  0999 V2000
   -2.6935   -1.6079    0.0000 Cl  0  0  0  0  0  0  0  0  0  0  0  0
   -1.6079    1.2643    0.0000 O   0  0  0  0  0  0  0  0  0  0  0  0
    0.5085   -0.0275    0.0000 N   0  0  0  0  0  0  0  0  0  0  0  0
   -0.1924    1.2780    0.0000 N   0  0  0  0  0  0  0  0  0  0  0  0
   -0.9482   -2.4599    0.0000 N   0  0  0  0  0  0  0  0  0  0  0  0
   -0.2199   -0.3710    0.0000 C   0  0  0  0  0  0  0  0  0  0  0  0
   -0.9345    0.0412    0.0000 C   0  0  0  0  0  0  0  0  0  0  0  0
   -0.2474   -1.1956    0.0000 C   0  0  0  0  0  0  0  0  0  0  0  0
    1.2506    1.2506    0.0000 C   0  0  0  0  0  0  0  0  0  0  0  0
    1.9377    0.8383    0.0000 C   0  0  3  0  0  0  0  0  0  0  0  0
    1.2780    2.0476    0.0000 C   0  0  3  0  0  0  0  0  0  0  0  0
   -0.9482   -1.6216    0.0000 C   0  0  0  0  0  0  0  0  0  0  0  0
   -1.6766   -1.1818    0.0000 C   0  0  0  0  0  0  0  0  0  0  0  0
   -0.8795    0.8658    0.0000 C   0  0  0  0  0  0  0  0  0  0  0  0
   -1.6491   -0.3710    0.0000 C   0  0  0  0  0  0  0  0  0  0  0  0
    0.5222    0.8245    0.0000 C   0  0  0  0  0  0  0  0  0  0  0  0
    0.4810   -1.6491    0.0000 C   0  0  0  0  0  0  0  0  0  0  0  0
    1.9652    2.4599    0.0000 C   0  0  0  0  0  0  0  0  0  0  0  0
    2.6523    1.2093    0.0000 C   0  0  0  0  0  0  0  0  0  0  0  0
    1.2231   -0.4123    0.0000 C   0  0  0  0  0  0  0  0  0  0  0  0
    1.1956   -1.2506    0.0000 C   0  0  0  0  0  0  0  0  0  0  0  0
    2.3774    2.2537    0.0000 C   0  0  0  0  0  0  0  0  0  0  0  0
    2.6935    1.7178    0.0000 C   0  0  0  0  0  0  0  0  0  0  0  0
  1 13  1  0  0  0  0
  2 14  2  0  0  0  0
  3  6  1  0  0  0  0
  3 20  2  0  0  0  0
  4 14  1  0  0  0  0
  4 16  1  0  0  0  0
  5 12  1  0  0  0  0
  6  7  2  0  0  0  0
  6  8  1  0  0  0  0
  7 14  1  0  0  0  0
  7 15  1  0  0  0  0
  8 12  2  0  0  0  0
  8 17  1  0  0  0  0
  9 10  1  0  0  0  0
  9 11  1  0  0  0  0
  9 16  1  0  0  0  0
 10 11  1  0  0  0  0
 10 19  1  0  0  0  0
 11 18  1  0  0  0  0
 12 13  1  0  0  0  0
 13 15  2  0  0  0  0
 17 21  2  0  0  0  0
 18 22  1  0  0  0  0
 19 23  1  0  0  0  0
 20 21  1  0  0  0  0
M  END
> <PUBCHEM_COMPOUND_ID_TYPE>
0

> <PUBCHEM_TOTAL_CHARGE>
0

> <PUBCHEM_SUBSTANCE_ID>
310945379

> <PUBCHEM_SUBSTANCE_VERSION>
1

> <PUBCHEM_EXT_DATASOURCE_NAME>
4488

> <PUBCHEM_EXT_DATASOURCE_REGID>
SCHEMBL16123477

> <PUBCHEM_SUBSTANCE_COMMENT>
InChI=1S/C18H22ClN3O/c1-3-10-11(4-2)14(10)9-22-18(23)13-8-15(19)16(20)12-6-5-7-21-17(12)13/h5-8,10-11,14H,3-4,9,20H2,1-2H3,(H,22,23)
InChIKey=LZJALIKOHYCTFD-UHFFFAOYSA-N

> <PUBCHEM_SUBSTANCE_SYNONYM>
SCHEMBL16123477

> <PUBCHEM_XREF_EXT_ID>
SCHEMBL16123477

> <PUBCHEM_EXT_DATASOURCE_URL>
https://www.surechembl.org/

> <PUBCHEM_EXT_SUBSTANCE_URL>
https://www.surechembl.org/chemical/SCHEMBL16123477

> <PUBCHEM_CID_ASSOCIATIONS>
117611432  1

> <PUBCHEM_COORDINATE_TYPE>
1
3

$$$$
