310933153
  -OEChem-07211613022D

 18 19  0     1  0  0  0  0  0999 V2000
    3.3211    0.0000    0.0000 O   0  0  0  0  0  0  0  0  0  0  0  0
    4.4356   -1.9615    0.0000 O   0  0  0  0  0  0  0  0  0  0  0  0
    5.1711   -0.7355    0.0000 O   0  0  0  0  0  0  0  0  0  0  0  0
    3.7223   -0.7355    0.0000 C   0  0  3  0  0  0  0  0  0  0  0  0
    2.8976   -0.7355    0.0000 C   0  0  3  0  0  0  0  0  0  0  0  0
    4.4356   -1.1368    0.0000 C   0  0  0  0  0  0  0  0  0  0  0  0
    2.1843   -1.1368    0.0000 C   0  0  0  0  0  0  0  0  0  0  0  0
    3.5217   -1.5380    0.0000 C   0  0  0  0  0  0  0  0  0  0  0  0
    2.1620   -1.9838    0.0000 C   0  0  0  0  0  0  0  0  0  0  0  0
    1.4488   -0.7355    0.0000 C   0  0  0  0  0  0  0  0  0  0  0  0
    1.4488   -2.3849    0.0000 C   0  0  0  0  0  0  0  0  0  0  0  0
    0.7355   -1.1368    0.0000 C   0  0  0  0  0  0  0  0  0  0  0  0
    0.7355   -1.9615    0.0000 C   0  0  0  0  0  0  0  0  0  0  0  0
    5.1711   -2.3849    0.0000 C   0  0  0  0  0  0  0  0  0  0  0  0
    0.0000   -2.3849    0.0000 C   0  0  0  0  0  0  0  0  0  0  0  0
    5.1711   -3.2096    0.0000 C   0  0  0  0  0  0  0  0  0  0  0  0
    5.8844   -3.6332    0.0000 C   0  0  0  0  0  0  0  0  0  0  0  0
    5.9066   -4.4579    0.0000 C   0  0  0  0  0  0  0  0  0  0  0  0
  1  4  1  0  0  0  0
  1  5  1  0  0  0  0
  2  6  1  0  0  0  0
  2 14  1  0  0  0  0
  3  6  2  0  0  0  0
  4  5  1  0  0  0  0
  4  6  1  0  0  0  0
  4  8  1  0  0  0  0
  5  7  1  0  0  0  0
  7  9  2  0  0  0  0
  7 10  1  0  0  0  0
  9 11  1  0  0  0  0
 10 12  2  0  0  0  0
 11 13  2  0  0  0  0
 12 13  1  0  0  0  0
 13 15  1  0  0  0  0
 14 16  1  0  0  0  0
 16 17  1  0  0  0  0
 17 18  1  0  0  0  0
M  END
> <PUBCHEM_COMPOUND_ID_TYPE>
0

> <PUBCHEM_TOTAL_CHARGE>
0

> <PUBCHEM_SUBSTANCE_ID>
310933153

> <PUBCHEM_SUBSTANCE_VERSION>
1

> <PUBCHEM_EXT_DATASOURCE_NAME>
4488

> <PUBCHEM_EXT_DATASOURCE_REGID>
SCHEMBL16110561

> <PUBCHEM_SUBSTANCE_COMMENT>
InChI=1S/C15H20O3/c1-4-5-10-17-14(16)15(3)13(18-15)12-8-6-11(2)7-9-12/h6-9,13H,4-5,10H2,1-3H3
InChIKey=RHDUYFICBALHQM-UHFFFAOYSA-N

> <PUBCHEM_SUBSTANCE_SYNONYM>
SCHEMBL16110561

> <PUBCHEM_XREF_EXT_ID>
SCHEMBL16110561

> <PUBCHEM_EXT_DATASOURCE_URL>
https://www.surechembl.org/

> <PUBCHEM_EXT_SUBSTANCE_URL>
https://www.surechembl.org/chemical/SCHEMBL16110561

> <PUBCHEM_CID_ASSOCIATIONS>
117601605  1

> <PUBCHEM_COORDINATE_TYPE>
1
3

$$$$
