310946647
  -OEChem-07211613022D

 25 24  0     1  0  0  0  0  0999 V2000
    7.0180    8.9995    0.0000 O   0  0  0  0  0  0  0  0  0  0  0  0
    2.7056    9.5718    0.0000 O   0  0  0  0  0  0  0  0  0  0  0  0
    6.3116   10.2369    0.0000 O   0  0  0  0  0  0  0  0  0  0  0  0
    3.7158   10.5822    0.0000 O   0  0  0  0  0  0  0  0  0  0  0  0
    1.2657    7.4457    0.0000 O   0  0  0  0  0  0  0  0  0  0  0  0
    0.7632    5.5707    0.0000 O   0  0  0  0  0  0  0  0  0  0  0  0
    9.1614    9.4120    0.0000 O   0  0  0  0  0  0  0  0  0  0  0  0
    2.3872    5.1355    0.0000 O   0  5  0  0  0  0  0  0  0  0  0  0
    1.9519    6.7593    0.0000 O   0  0  0  0  0  0  0  0  0  0  0  0
    5.5941    8.1762    0.0000 N   0  0  0  0  0  0  0  0  0  0  0  0
    1.7008    5.8219    0.0000 N   0  3  0  0  0  0  0  0  0  0  0  0
    5.5961    9.0013    0.0000 C   0  0  3  0  0  0  0  0  0  0  0  0
    6.3116    9.4120    0.0000 C   0  0  0  0  0  0  0  0  0  0  0  0
    4.8827    9.4155    0.0000 C   0  0  0  0  0  0  0  0  0  0  0  0
    3.5025    9.7853    0.0000 C   0  0  0  0  0  0  0  0  0  0  0  0
    4.0858    9.2020    0.0000 C   0  0  0  0  0  0  0  0  0  0  0  0
    7.7325    9.4120    0.0000 C   0  0  0  0  0  0  0  0  0  0  0  0
    2.4544    8.6343    0.0000 C   0  0  0  0  0  0  0  0  0  0  0  0
    1.5169    8.3830    0.0000 C   0  0  0  0  0  0  0  0  0  0  0  0
    8.4469    8.9995    0.0000 C   0  0  0  0  0  0  0  0  0  0  0  0
    0.3282    7.1944    0.0000 C   0  0  0  0  0  0  0  0  0  0  0  0
    0.0769    6.2569    0.0000 C   0  0  0  0  0  0  0  0  0  0  0  0
    9.8758    8.9995    0.0000 C   0  0  0  0  0  0  0  0  0  0  0  0
   10.7164    9.4848    0.0000 C   0  0  0  0  0  0  0  0  0  0  0  0
   11.5568    8.9995    0.0000 C   0  0  0  0  0  0  0  0  0  0  0  0
  1 13  1  0  0  0  0
  1 17  1  0  0  0  0
  2 15  1  0  0  0  0
  2 18  1  0  0  0  0
  3 13  2  0  0  0  0
  4 15  2  0  0  0  0
  5 19  1  0  0  0  0
  5 21  1  0  0  0  0
  6 11  1  0  0  0  0
  6 22  1  0  0  0  0
  7 20  1  0  0  0  0
  7 23  1  0  0  0  0
  8 11  1  0  0  0  0
  9 11  2  0  0  0  0
 10 12  1  0  0  0  0
 12 13  1  0  0  0  0
 12 14  1  0  0  0  0
 14 16  1  0  0  0  0
 15 16  1  0  0  0  0
 17 20  1  0  0  0  0
 18 19  1  0  0  0  0
 21 22  1  0  0  0  0
 23 24  1  0  0  0  0
 24 25  1  0  0  0  0
M  CHG  2   8  -1  11   1
M  END
> <PUBCHEM_COMPOUND_ID_TYPE>
0

> <PUBCHEM_TOTAL_CHARGE>
0

> <PUBCHEM_SUBSTANCE_ID>
310946647

> <PUBCHEM_SUBSTANCE_VERSION>
1

> <PUBCHEM_EXT_DATASOURCE_NAME>
4488

> <PUBCHEM_EXT_DATASOURCE_REGID>
SCHEMBL16124768

> <PUBCHEM_SUBSTANCE_COMMENT>
InChI=1S/C14H26N2O9/c1-2-5-21-7-10-24-14(18)12(15)3-4-13(17)23-9-6-22-8-11-25-16(19)20/h12H,2-11,15H2,1H3
InChIKey=VDIINKSTXGOJJQ-UHFFFAOYSA-N

> <PUBCHEM_SUBSTANCE_SYNONYM>
SCHEMBL16124768

> <PUBCHEM_XREF_EXT_ID>
SCHEMBL16124768

> <PUBCHEM_EXT_DATASOURCE_URL>
https://www.surechembl.org/

> <PUBCHEM_EXT_SUBSTANCE_URL>
https://www.surechembl.org/chemical/SCHEMBL16124768

> <PUBCHEM_CID_ASSOCIATIONS>
117612547  1

> <PUBCHEM_COORDINATE_TYPE>
1
3

$$$$
