310945971
  -OEChem-07211613022D

 42 45  0     1  0  0  0  0  0999 V2000
   -2.5356    0.7967    0.0000 F   0  0  0  0  0  0  0  0  0  0  0  0
    4.2538    0.6720    0.0000 O   0  0  0  0  0  0  0  0  0  0  0  0
    3.9490   -1.2817    0.0000 O   0  0  0  0  0  0  0  0  0  0  0  0
    1.7874    0.7829    0.0000 O   0  0  0  0  0  0  0  0  0  0  0  0
   -0.3741   -1.2817    0.0000 O   0  0  0  0  0  0  0  0  0  0  0  0
    3.9490   -2.9444    0.0000 O   0  0  0  0  0  0  0  0  0  0  0  0
   -5.4177    0.7829    0.0000 O   0  0  0  0  0  0  0  0  0  0  0  0
    2.5080   -0.4503    0.0000 N   0  0  0  0  0  0  0  0  0  0  0  0
    0.3464   -0.0347    0.0000 N   0  0  0  0  0  0  0  0  0  0  0  0
   -3.9628   -0.0347    0.0000 N   0  0  0  0  0  0  0  0  0  0  0  0
    4.6695   -0.0070    0.0000 C   0  0  3  0  0  0  0  0  0  0  0  0
    3.9490   -0.4088    0.0000 C   0  0  0  0  0  0  0  0  0  0  0  0
    5.0851    0.6720    0.0000 C   0  0  0  0  0  0  0  0  0  0  0  0
    3.2284   -0.0208    0.0000 C   0  0  3  0  0  0  0  0  0  0  0  0
    5.4177   -0.4365    0.0000 C   0  0  0  0  0  0  0  0  0  0  0  0
    3.2423    1.2956    0.0000 C   0  0  0  0  0  0  0  0  0  0  0  0
    1.7874   -0.0485    0.0000 C   0  0  0  0  0  0  0  0  0  0  0  0
    1.0808   -0.4365    0.0000 C   0  0  3  0  0  0  0  0  0  0  0  0
    2.5080    1.7250    0.0000 C   0  0  0  0  0  0  0  0  0  0  0  0
    1.0808   -1.2678    0.0000 C   0  0  0  0  0  0  0  0  0  0  0  0
    1.8013   -1.6835    0.0000 C   0  0  0  0  0  0  0  0  0  0  0  0
   -0.3741   -0.4226    0.0000 C   0  0  0  0  0  0  0  0  0  0  0  0
    1.8152    1.3094    0.0000 C   0  0  0  0  0  0  0  0  0  0  0  0
    2.5080    2.5426    0.0000 C   0  0  0  0  0  0  0  0  0  0  0  0
   -1.0946   -0.0208    0.0000 C   0  0  3  0  0  0  0  0  0  0  0  0
    2.5080   -1.2956    0.0000 C   0  0  0  0  0  0  0  0  0  0  0  0
    1.8013   -2.5148    0.0000 C   0  0  0  0  0  0  0  0  0  0  0  0
    1.0808    1.7250    0.0000 C   0  0  0  0  0  0  0  0  0  0  0  0
    1.7735    2.9444    0.0000 C   0  0  0  0  0  0  0  0  0  0  0  0
   -1.7874   -0.4365    0.0000 C   0  0  0  0  0  0  0  0  0  0  0  0
    3.2146   -2.5148    0.0000 C   0  0  0  0  0  0  0  0  0  0  0  0
    3.2284   -1.6974    0.0000 C   0  0  0  0  0  0  0  0  0  0  0  0
    2.5218   -2.9306    0.0000 C   0  0  0  0  0  0  0  0  0  0  0  0
    1.0808    2.5426    0.0000 C   0  0  0  0  0  0  0  0  0  0  0  0
   -2.5356   -0.0208    0.0000 C   0  0  0  0  0  0  0  0  0  0  0  0
   -3.2284   -0.4365    0.0000 C   0  0  0  0  0  0  0  0  0  0  0  0
   -1.0946    0.8106    0.0000 C   0  0  0  0  0  0  0  0  0  0  0  0
   -4.6695   -0.4365    0.0000 C   0  0  0  0  0  0  0  0  0  0  0  0
   -3.9767    0.7967    0.0000 C   0  0  0  0  0  0  0  0  0  0  0  0
   -5.4038   -0.0347    0.0000 C   0  0  0  0  0  0  0  0  0  0  0  0
   -4.6971    1.2124    0.0000 C   0  0  0  0  0  0  0  0  0  0  0  0
    4.6971   -2.5287    0.0000 C   0  0  0  0  0  0  0  0  0  0  0  0
  1 35  1  0  0  0  0
  2 11  1  0  0  0  0
  2 13  1  0  0  0  0
  3 12  2  0  0  0  0
  4 17  2  0  0  0  0
  5 22  2  0  0  0  0
  6 31  1  0  0  0  0
  6 42  1  0  0  0  0
  7 40  1  0  0  0  0
  7 41  1  0  0  0  0
  8 14  1  0  0  0  0
  8 17  1  0  0  0  0
  9 18  1  0  0  0  0
  9 22  1  0  0  0  0
 10 36  1  0  0  0  0
 10 38  1  0  0  0  0
 10 39  1  0  0  0  0
 11 12  1  0  0  0  0
 11 13  1  0  0  0  0
 11 15  1  0  0  0  0
 12 14  1  0  0  0  0
 14 16  1  0  0  0  0
 16 19  1  0  0  0  0
 17 18  1  0  0  0  0
 18 20  1  0  0  0  0
 19 23  2  0  0  0  0
 19 24  1  0  0  0  0
 20 21  1  0  0  0  0
 21 26  2  0  0  0  0
 21 27  1  0  0  0  0
 22 25  1  0  0  0  0
 23 28  1  0  0  0  0
 24 29  2  0  0  0  0
 25 30  1  0  0  0  0
 25 37  1  0  0  0  0
 26 32  1  0  0  0  0
 27 33  2  0  0  0  0
 28 34  2  0  0  0  0
 29 34  1  0  0  0  0
 30 35  2  0  0  0  0
 31 32  2  0  0  0  0
 31 33  1  0  0  0  0
 35 36  1  0  0  0  0
 38 40  1  0  0  0  0
 39 41  1  0  0  0  0
M  END
> <PUBCHEM_COMPOUND_ID_TYPE>
0

> <PUBCHEM_TOTAL_CHARGE>
0

> <PUBCHEM_SUBSTANCE_ID>
310945971

> <PUBCHEM_SUBSTANCE_VERSION>
1

> <PUBCHEM_EXT_DATASOURCE_NAME>
4488

> <PUBCHEM_EXT_DATASOURCE_REGID>
SCHEMBL16124076

> <PUBCHEM_SUBSTANCE_COMMENT>
InChI=1S/C32H40FN3O6/c1-22(17-25(33)20-36-13-15-41-16-14-36)30(38)35-28(19-24-9-11-26(40-3)12-10-24)31(39)34-27(29(37)32(2)21-42-32)18-23-7-5-4-6-8-23/h4-12,17,22,27-28H,13-16,18-21H2,1-3H3,(H,34,39)(H,35,38)/b25-17-
InChIKey=UFXOHJFJQVETLE-UQQQWYQISA-N

> <PUBCHEM_SUBSTANCE_SYNONYM>
SCHEMBL16124076

> <PUBCHEM_XREF_EXT_ID>
SCHEMBL16124076

> <PUBCHEM_EXT_DATASOURCE_URL>
https://www.surechembl.org/

> <PUBCHEM_EXT_SUBSTANCE_URL>
https://www.surechembl.org/chemical/SCHEMBL16124076

> <PUBCHEM_CID_ASSOCIATIONS>
117611947  1

> <PUBCHEM_COORDINATE_TYPE>
1
3

$$$$
