310934986
  -OEChem-07211613022D

 25 26  0     1  0  0  0  0  0999 V2000
    0.8067    0.5952    0.0000 S   0  0  0  0  0  0  0  0  0  0  0  0
    0.1356   -0.9122    0.0000 F   0  0  0  0  0  0  0  0  0  0  0  0
    1.2249   -0.4941    0.0000 F   0  0  0  0  0  0  0  0  0  0  0  0
   -0.2825    0.1770    0.0000 F   0  0  0  0  0  0  0  0  0  0  0  0
    2.9629    4.1690    0.0000 F   0  0  0  0  0  0  0  0  0  0  0  0
    1.1423    1.3488    0.0000 O   0  0  0  0  0  0  0  0  0  0  0  0
    1.5604    0.2596    0.0000 O   0  0  0  0  0  0  0  0  0  0  0  0
    0.0531    0.9307    0.0000 O   0  0  0  0  0  0  0  0  0  0  0  0
   -0.0522    4.6835    0.0000 O   0  0  0  0  0  0  0  0  0  0  0  0
   -1.1141    3.7274    0.0000 O   0  0  0  0  0  0  0  0  0  0  0  0
    0.2449    3.2858    0.0000 C   0  0  3  0  0  0  0  0  0  0  0  0
    0.7969    3.8989    0.0000 C   0  0  0  0  0  0  0  0  0  0  0  0
    0.6574    2.0163    0.0000 C   0  0  0  0  0  0  0  0  0  0  0  0
    0.9123    2.8009    0.0000 C   0  0  0  0  0  0  0  0  0  0  0  0
   -0.4226    2.8009    0.0000 C   0  0  0  0  0  0  0  0  0  0  0  0
   -0.3071    3.8989    0.0000 C   0  0  0  0  0  0  0  0  0  0  0  0
    1.6039    3.7274    0.0000 C   0  0  0  0  0  0  0  0  0  0  0  0
    0.4712   -0.1585    0.0000 C   0  0  0  0  0  0  0  0  0  0  0  0
   -0.1676    2.0163    0.0000 C   0  0  0  0  0  0  0  0  0  0  0  0
    0.5420    4.6835    0.0000 C   0  0  0  0  0  0  0  0  0  0  0  0
    2.1559    4.3405    0.0000 C   0  0  0  0  0  0  0  0  0  0  0  0
    1.9010    5.1251    0.0000 C   0  0  0  0  0  0  0  0  0  0  0  0
    1.0940    5.2966    0.0000 C   0  0  0  0  0  0  0  0  0  0  0  0
    1.8588    2.9428    0.0000 C   0  0  0  0  0  0  0  0  0  0  0  0
    2.4530    5.7382    0.0000 C   0  0  0  0  0  0  0  0  0  0  0  0
  1  6  1  0  0  0  0
  1  7  2  0  0  0  0
  1  8  2  0  0  0  0
  1 18  1  0  0  0  0
  2 18  1  0  0  0  0
  3 18  1  0  0  0  0
  4 18  1  0  0  0  0
  5 21  1  0  0  0  0
  6 13  1  0  0  0  0
  9 16  2  0  0  0  0
 10 16  1  0  0  0  0
 11 12  1  0  0  0  0
 11 14  1  0  0  0  0
 11 15  1  0  0  0  0
 11 16  1  0  0  0  0
 12 17  2  0  0  0  0
 12 20  1  0  0  0  0
 13 14  2  0  0  0  0
 13 19  1  0  0  0  0
 15 19  1  0  0  0  0
 17 21  1  0  0  0  0
 17 24  1  0  0  0  0
 20 23  2  0  0  0  0
 21 22  2  0  0  0  0
 22 23  1  0  0  0  0
 22 25  1  0  0  0  0
M  END
> <PUBCHEM_COMPOUND_ID_TYPE>
0

> <PUBCHEM_TOTAL_CHARGE>
0

> <PUBCHEM_SUBSTANCE_ID>
310934986

> <PUBCHEM_SUBSTANCE_VERSION>
1

> <PUBCHEM_EXT_DATASOURCE_NAME>
4488

> <PUBCHEM_EXT_DATASOURCE_REGID>
SCHEMBL16112503

> <PUBCHEM_SUBSTANCE_COMMENT>
InChI=1S/C15H14F4O5S/c1-8-3-4-11(9(2)12(8)16)14(13(20)21)6-5-10(7-14)24-25(22,23)15(17,18)19/h3-4,7H,5-6H2,1-2H3,(H,20,21)
InChIKey=PRWNRERUMQATMT-UHFFFAOYSA-N

> <PUBCHEM_SUBSTANCE_SYNONYM>
SCHEMBL16112503

> <PUBCHEM_XREF_EXT_ID>
SCHEMBL16112503

> <PUBCHEM_EXT_DATASOURCE_URL>
https://www.surechembl.org/

> <PUBCHEM_EXT_SUBSTANCE_URL>
https://www.surechembl.org/chemical/SCHEMBL16112503

> <PUBCHEM_CID_ASSOCIATIONS>
117603103  1

> <PUBCHEM_COORDINATE_TYPE>
1
3

$$$$
