310931165
  -OEChem-07211613022D

 19 20  0     1  0  0  0  0  0999 V2000
    0.0000   -2.7600    0.0000 Br  0  0  0  0  0  0  0  0  0  0  0  0
    1.4195   -5.2572    0.0000 Cl  0  0  0  0  0  0  0  0  0  0  0  0
    2.1817   -1.4457    0.0000 S   0  0  0  0  0  0  0  0  0  0  0  0
    4.3109   -1.9452    0.0000 O   0  0  0  0  0  0  0  0  0  0  0  0
    5.0206   -3.1806    0.0000 O   0  0  0  0  0  0  0  0  0  0  0  0
    3.5486   -1.4457    0.0000 N   0  0  0  0  0  0  0  0  0  0  0  0
    2.8652   -2.7600    0.0000 C   0  0  3  0  0  0  0  0  0  0  0  0
    2.1554   -3.1806    0.0000 C   0  0  0  0  0  0  0  0  0  0  0  0
    2.8652   -1.9452    0.0000 C   0  0  0  0  0  0  0  0  0  0  0  0
    1.4195   -2.7600    0.0000 C   0  0  0  0  0  0  0  0  0  0  0  0
    2.1554   -4.0217    0.0000 C   0  0  0  0  0  0  0  0  0  0  0  0
    3.5749   -3.1806    0.0000 C   0  0  0  0  0  0  0  0  0  0  0  0
    2.4709   -0.6572    0.0000 C   0  0  0  0  0  0  0  0  0  0  0  0
    0.7097   -3.1806    0.0000 C   0  0  0  0  0  0  0  0  0  0  0  0
    1.4195   -4.4160    0.0000 C   0  0  0  0  0  0  0  0  0  0  0  0
    3.2858   -0.6572    0.0000 C   0  0  0  0  0  0  0  0  0  0  0  0
    0.7097   -3.9954    0.0000 C   0  0  0  0  0  0  0  0  0  0  0  0
    4.3109   -2.7600    0.0000 C   0  0  0  0  0  0  0  0  0  0  0  0
    1.9715    0.0000    0.0000 C   0  0  0  0  0  0  0  0  0  0  0  0
  1 14  1  0  0  0  0
  2 15  1  0  0  0  0
  3  9  1  0  0  0  0
  3 13  1  0  0  0  0
  4 18  2  0  0  0  0
  5 18  1  0  0  0  0
  6  9  2  0  0  0  0
  6 16  1  0  0  0  0
  7  8  1  0  0  0  0
  7  9  1  0  0  0  0
  7 12  1  0  0  0  0
  8 10  1  0  0  0  0
  8 11  2  0  0  0  0
 10 14  2  0  0  0  0
 11 15  1  0  0  0  0
 12 18  1  0  0  0  0
 13 16  2  0  0  0  0
 13 19  1  0  0  0  0
 14 17  1  0  0  0  0
 15 17  2  0  0  0  0
M  END
> <PUBCHEM_COMPOUND_ID_TYPE>
0

> <PUBCHEM_TOTAL_CHARGE>
0

> <PUBCHEM_SUBSTANCE_ID>
310931165

> <PUBCHEM_SUBSTANCE_VERSION>
1

> <PUBCHEM_EXT_DATASOURCE_NAME>
4488

> <PUBCHEM_EXT_DATASOURCE_REGID>
SCHEMBL16108473

> <PUBCHEM_SUBSTANCE_COMMENT>
InChI=1S/C13H11BrClNO2S/c1-7-6-16-13(19-7)11(5-12(17)18)8-2-9(14)4-10(15)3-8/h2-4,6,11H,5H2,1H3,(H,17,18)
InChIKey=UNEGQUMRHCCDGM-UHFFFAOYSA-N

> <PUBCHEM_SUBSTANCE_SYNONYM>
SCHEMBL16108473

> <PUBCHEM_XREF_EXT_ID>
SCHEMBL16108473

> <PUBCHEM_EXT_DATASOURCE_URL>
https://www.surechembl.org/

> <PUBCHEM_EXT_SUBSTANCE_URL>
https://www.surechembl.org/chemical/SCHEMBL16108473

> <PUBCHEM_CID_ASSOCIATIONS>
117600029  1

> <PUBCHEM_COORDINATE_TYPE>
1
3

$$$$
