310935180
  -OEChem-07211613022D

 29 32  0     1  0  0  0  0  0999 V2000
   -2.5990   -3.3948    0.0000 F   0  0  0  0  0  0  0  0  0  0  0  0
    0.4161   -2.8802    0.0000 O   0  0  0  0  0  0  0  0  0  0  0  0
    1.4780   -3.8364    0.0000 O   0  0  0  0  0  0  0  0  0  0  0  0
   -0.4764  -11.1970    0.0000 O   0  0  0  0  0  0  0  0  0  0  0  0
   -1.1909   -7.4845    0.0000 N   0  0  0  0  0  0  0  0  0  0  0  0
   -1.8583   -6.9996    0.0000 N   0  0  0  0  0  0  0  0  0  0  0  0
   -0.4764   -9.5470    0.0000 N   0  0  0  0  0  0  0  0  0  0  0  0
    0.1190   -4.2780    0.0000 C   0  0  3  0  0  0  0  0  0  0  0  0
   -0.4330   -3.6649    0.0000 C   0  0  0  0  0  0  0  0  0  0  0  0
   -0.5484   -4.7629    0.0000 C   0  0  0  0  0  0  0  0  0  0  0  0
   -0.2935   -5.5475    0.0000 C   0  0  3  0  0  0  0  0  0  0  0  0
    0.7865   -4.7629    0.0000 C   0  0  0  0  0  0  0  0  0  0  0  0
    0.6711   -3.6649    0.0000 C   0  0  0  0  0  0  0  0  0  0  0  0
   -1.2400   -3.8364    0.0000 C   0  0  0  0  0  0  0  0  0  0  0  0
    0.5315   -5.5475    0.0000 C   0  0  0  0  0  0  0  0  0  0  0  0
   -0.7784   -6.2149    0.0000 C   0  0  0  0  0  0  0  0  0  0  0  0
   -0.1781   -2.8802    0.0000 C   0  0  0  0  0  0  0  0  0  0  0  0
   -1.7920   -3.2233    0.0000 C   0  0  0  0  0  0  0  0  0  0  0  0
   -0.5235   -6.9996    0.0000 C   0  0  0  0  0  0  0  0  0  0  0  0
   -1.6034   -6.2149    0.0000 C   0  0  0  0  0  0  0  0  0  0  0  0
   -0.7301   -2.2671    0.0000 C   0  0  0  0  0  0  0  0  0  0  0  0
   -1.5371   -2.4387    0.0000 C   0  0  0  0  0  0  0  0  0  0  0  0
   -1.4949   -4.6210    0.0000 C   0  0  0  0  0  0  0  0  0  0  0  0
   -1.1909   -8.3095    0.0000 C   0  0  0  0  0  0  0  0  0  0  0  0
   -0.4764   -8.7220    0.0000 C   0  0  0  0  0  0  0  0  0  0  0  0
    0.2380   -9.9595    0.0000 C   0  0  0  0  0  0  0  0  0  0  0  0
   -1.1909   -9.9595    0.0000 C   0  0  0  0  0  0  0  0  0  0  0  0
    0.2380  -10.7845    0.0000 C   0  0  0  0  0  0  0  0  0  0  0  0
   -1.1909  -10.7845    0.0000 C   0  0  0  0  0  0  0  0  0  0  0  0
  1 18  1  0  0  0  0
  2 13  2  0  0  0  0
  3 13  1  0  0  0  0
  4 28  1  0  0  0  0
  4 29  1  0  0  0  0
  5  6  1  0  0  0  0
  5 19  1  0  0  0  0
  5 24  1  0  0  0  0
  6 20  2  0  0  0  0
  7 25  1  0  0  0  0
  7 26  1  0  0  0  0
  7 27  1  0  0  0  0
  8  9  1  0  0  0  0
  8 10  1  0  0  0  0
  8 12  1  0  0  0  0
  8 13  1  0  0  0  0
  9 14  2  0  0  0  0
  9 17  1  0  0  0  0
 10 11  1  0  0  0  0
 11 15  1  0  0  0  0
 11 16  1  0  0  0  0
 12 15  1  0  0  0  0
 14 18  1  0  0  0  0
 14 23  1  0  0  0  0
 16 19  2  0  0  0  0
 16 20  1  0  0  0  0
 17 21  2  0  0  0  0
 18 22  2  0  0  0  0
 21 22  1  0  0  0  0
 24 25  1  0  0  0  0
 26 28  1  0  0  0  0
 27 29  1  0  0  0  0
M  END
> <PUBCHEM_COMPOUND_ID_TYPE>
0

> <PUBCHEM_TOTAL_CHARGE>
0

> <PUBCHEM_SUBSTANCE_ID>
310935180

> <PUBCHEM_SUBSTANCE_VERSION>
1

> <PUBCHEM_EXT_DATASOURCE_NAME>
4488

> <PUBCHEM_EXT_DATASOURCE_REGID>
SCHEMBL16112708

> <PUBCHEM_SUBSTANCE_COMMENT>
InChI=1S/C22H28FN3O3/c1-16-19(3-2-4-20(16)23)22(21(27)28)6-5-17(13-22)18-14-24-26(15-18)8-7-25-9-11-29-12-10-25/h2-4,14-15,17H,5-13H2,1H3,(H,27,28)
InChIKey=WADFLTPVGYUPHI-UHFFFAOYSA-N

> <PUBCHEM_SUBSTANCE_SYNONYM>
SCHEMBL16112708

> <PUBCHEM_XREF_EXT_ID>
SCHEMBL16112708

> <PUBCHEM_EXT_DATASOURCE_URL>
https://www.surechembl.org/

> <PUBCHEM_EXT_SUBSTANCE_URL>
https://www.surechembl.org/chemical/SCHEMBL16112708

> <PUBCHEM_CID_ASSOCIATIONS>
117603263  1

> <PUBCHEM_COORDINATE_TYPE>
1
3

$$$$
