310945407
  -OEChem-07211613022D

 22 24  0     1  0  0  0  0  0999 V2000
   -2.1495    1.0784    0.0000 O   0  0  0  0  0  0  0  0  0  0  0  0
    0.6776    0.3206    0.0000 N   0  0  0  0  0  0  0  0  0  0  0  0
    2.7033    1.2388    0.0000 N   0  0  0  0  0  0  0  0  0  0  0  0
   -0.0218   -1.7779    0.0000 N   0  0  0  0  0  0  0  0  0  0  0  0
    1.3481    0.8161    0.0000 C   0  0  0  0  0  0  0  0  0  0  0  0
    0.0073    0.8307    0.0000 C   0  0  0  0  0  0  0  0  0  0  0  0
    1.0857    1.5739    0.0000 C   0  0  0  0  0  0  0  0  0  0  0  0
    0.2551    1.6176    0.0000 C   0  0  0  0  0  0  0  0  0  0  0  0
    2.1495    0.6412    0.0000 C   0  0  0  0  0  0  0  0  0  0  0  0
    0.6776   -0.4955    0.0000 C   0  0  3  0  0  0  0  0  0  0  0  0
   -0.7942    0.6558    0.0000 C   0  0  0  0  0  0  0  0  0  0  0  0
   -0.2842    2.2005    0.0000 C   0  0  0  0  0  0  0  0  0  0  0  0
    1.6395    2.2005    0.0000 C   0  0  0  0  0  0  0  0  0  0  0  0
   -1.3626    1.2679    0.0000 C   0  0  0  0  0  0  0  0  0  0  0  0
   -1.0857    2.0402    0.0000 C   0  0  0  0  0  0  0  0  0  0  0  0
    2.4556    2.0257    0.0000 C   0  0  0  0  0  0  0  0  0  0  0  0
    0.0073   -0.9472    0.0000 C   0  0  0  0  0  0  0  0  0  0  0  0
    2.4701   -0.2478    0.0000 C   0  0  0  0  0  0  0  0  0  0  0  0
    1.4354   -0.8744    0.0000 C   0  0  0  0  0  0  0  0  0  0  0  0
   -2.7033    1.7196    0.0000 C   0  0  0  0  0  0  0  0  0  0  0  0
   -0.7214   -2.2005    0.0000 C   0  0  0  0  0  0  0  0  0  0  0  0
    0.7214   -2.2005    0.0000 C   0  0  0  0  0  0  0  0  0  0  0  0
  1 14  1  0  0  0  0
  1 20  1  0  0  0  0
  2  5  1  0  0  0  0
  2  6  1  0  0  0  0
  2 10  1  0  0  0  0
  3  9  2  0  0  0  0
  3 16  1  0  0  0  0
  4 17  1  0  0  0  0
  4 21  1  0  0  0  0
  4 22  1  0  0  0  0
  5  7  2  0  0  0  0
  5  9  1  0  0  0  0
  6  8  2  0  0  0  0
  6 11  1  0  0  0  0
  7  8  1  0  0  0  0
  7 13  1  0  0  0  0
  8 12  1  0  0  0  0
  9 18  1  0  0  0  0
 10 17  1  0  0  0  0
 10 19  1  0  0  0  0
 11 14  2  0  0  0  0
 12 15  2  0  0  0  0
 13 16  2  0  0  0  0
 14 15  1  0  0  0  0
M  END
> <PUBCHEM_COMPOUND_ID_TYPE>
0

> <PUBCHEM_TOTAL_CHARGE>
0

> <PUBCHEM_SUBSTANCE_ID>
310945407

> <PUBCHEM_SUBSTANCE_VERSION>
1

> <PUBCHEM_EXT_DATASOURCE_NAME>
4488

> <PUBCHEM_EXT_DATASOURCE_REGID>
SCHEMBL16123505

> <PUBCHEM_SUBSTANCE_COMMENT>
InChI=1S/C18H23N3O/c1-12(11-20(3)4)21-17-10-14(22-5)6-7-15(17)16-8-9-19-13(2)18(16)21/h6-10,12H,11H2,1-5H3
InChIKey=UIXJGDMFGANPOO-UHFFFAOYSA-N

> <PUBCHEM_SUBSTANCE_SYNONYM>
SCHEMBL16123505

> <PUBCHEM_XREF_EXT_ID>
SCHEMBL16123505

> <PUBCHEM_EXT_DATASOURCE_URL>
https://www.surechembl.org/

> <PUBCHEM_EXT_SUBSTANCE_URL>
https://www.surechembl.org/chemical/SCHEMBL16123505

> <PUBCHEM_CID_ASSOCIATIONS>
117611453  1

> <PUBCHEM_COORDINATE_TYPE>
1
3

$$$$
