310943596
  -OEChem-07211613022D

 24 26  0     1  0  0  0  0  0999 V2000
    2.1105   -1.4848    0.0000 O   0  0  0  0  0  0  0  0  0  0  0  0
   -1.2884   -0.9940    0.0000 N   0  0  3  0  0  0  0  0  0  0  0  0
    3.8898   -1.4725    0.0000 N   0  0  0  0  0  0  0  0  0  0  0  0
   -3.0554   -0.4540    0.0000 N   0  0  3  0  0  0  0  0  0  0  0  0
    2.2823    0.2577    0.0000 C   0  0  0  0  0  0  0  0  0  0  0  0
    1.5829   -0.1595    0.0000 C   0  0  0  0  0  0  0  0  0  0  0  0
    2.9940   -0.1595    0.0000 C   0  0  0  0  0  0  0  0  0  0  0  0
    0.1472   -0.9940    0.0000 C   0  0  0  0  0  0  0  0  0  0  0  0
    0.8344    0.2332    0.0000 C   0  0  0  0  0  0  0  0  0  0  0  0
    1.5707   -0.9940    0.0000 C   0  0  0  0  0  0  0  0  0  0  0  0
    2.3069    1.0921    0.0000 C   0  0  0  0  0  0  0  0  0  0  0  0
    3.0063   -0.9448    0.0000 C   0  0  0  0  0  0  0  0  0  0  0  0
    3.7057    0.2577    0.0000 C   0  0  0  0  0  0  0  0  0  0  0  0
    0.1595   -0.1595    0.0000 C   0  0  0  0  0  0  0  0  0  0  0  0
    0.8589   -1.3988    0.0000 C   0  0  0  0  0  0  0  0  0  0  0  0
   -0.5767   -1.3988    0.0000 C   0  0  0  0  0  0  0  0  0  0  0  0
    3.0186    1.4848    0.0000 C   0  0  0  0  0  0  0  0  0  0  0  0
    3.7057    1.0921    0.0000 C   0  0  0  0  0  0  0  0  0  0  0  0
   -1.9511   -1.4479    0.0000 C   0  0  0  0  0  0  0  0  0  0  0  0
   -1.2270   -0.1718    0.0000 C   0  0  0  0  0  0  0  0  0  0  0  0
   -2.7609   -1.2148    0.0000 C   0  0  0  0  0  0  0  0  0  0  0  0
   -1.8406    0.3927    0.0000 C   0  0  0  0  0  0  0  0  0  0  0  0
   -2.6382    0.2699    0.0000 C   0  0  0  0  0  0  0  0  0  0  0  0
   -3.8898   -0.4540    0.0000 C   0  0  0  0  0  0  0  0  0  0  0  0
  1 12  2  0  0  0  0
  2 16  1  0  0  0  0
  2 19  1  0  0  0  0
  2 20  1  0  0  0  0
  3 12  1  0  0  0  0
  4 21  1  0  0  0  0
  4 23  1  0  0  0  0
  4 24  1  0  0  0  0
  5  6  1  0  0  0  0
  5  7  1  0  0  0  0
  5 11  2  0  0  0  0
  6  9  2  0  0  0  0
  6 10  1  0  0  0  0
  7 12  1  0  0  0  0
  7 13  2  0  0  0  0
  8 14  2  0  0  0  0
  8 15  1  0  0  0  0
  8 16  1  0  0  0  0
  9 14  1  0  0  0  0
 10 15  2  0  0  0  0
 11 17  1  0  0  0  0
 13 18  1  0  0  0  0
 17 18  2  0  0  0  0
 19 21  1  0  0  0  0
 20 22  1  0  0  0  0
 22 23  1  0  0  0  0
M  END
> <PUBCHEM_COMPOUND_ID_TYPE>
0

> <PUBCHEM_TOTAL_CHARGE>
0

> <PUBCHEM_SUBSTANCE_ID>
310943596

> <PUBCHEM_SUBSTANCE_VERSION>
1

> <PUBCHEM_EXT_DATASOURCE_NAME>
4488

> <PUBCHEM_EXT_DATASOURCE_REGID>
SCHEMBL16121663

> <PUBCHEM_SUBSTANCE_COMMENT>
InChI=1S/C20H25N3O/c1-22-11-4-12-23(14-13-22)15-16-7-9-17(10-8-16)18-5-2-3-6-19(18)20(21)24/h2-3,5-10H,4,11-15H2,1H3,(H2,21,24)
InChIKey=XMVFYDAOBFGBET-UHFFFAOYSA-N

> <PUBCHEM_SUBSTANCE_SYNONYM>
SCHEMBL16121663

> <PUBCHEM_XREF_EXT_ID>
SCHEMBL16121663

> <PUBCHEM_EXT_DATASOURCE_URL>
https://www.surechembl.org/

> <PUBCHEM_EXT_SUBSTANCE_URL>
https://www.surechembl.org/chemical/SCHEMBL16121663

> <PUBCHEM_CID_ASSOCIATIONS>
86300182  1

> <PUBCHEM_COORDINATE_TYPE>
1
3

$$$$
