310947300
  -OEChem-07211613022D

 30 33  0     1  0  0  0  0  0999 V2000
    1.5783   -1.7348    0.0000 O   0  0  0  0  0  0  0  0  0  0  0  0
   -0.9799    1.9629    0.0000 O   0  0  0  0  0  0  0  0  0  0  0  0
    4.5523   -1.7920    0.0000 O   0  0  0  0  0  0  0  0  0  0  0  0
    1.9481   -0.3546    0.0000 N   0  0  0  0  0  0  0  0  0  0  0  0
    2.4330    0.3129    0.0000 N   0  0  0  0  0  0  0  0  0  0  0  0
   -1.6944    0.7254    0.0000 N   0  0  0  0  0  0  0  0  0  0  0  0
    1.1635   -0.0996    0.0000 C   0  0  0  0  0  0  0  0  0  0  0  0
    1.1635    0.7254    0.0000 C   0  0  0  0  0  0  0  0  0  0  0  0
    1.9481    0.9803    0.0000 C   0  0  0  0  0  0  0  0  0  0  0  0
    2.1616   -1.1514    0.0000 C   0  0  0  0  0  0  0  0  0  0  0  0
    0.4490    1.1379    0.0000 C   0  0  0  0  0  0  0  0  0  0  0  0
   -0.2655    0.7254    0.0000 C   0  0  0  0  0  0  0  0  0  0  0  0
    0.4490   -0.5121    0.0000 C   0  0  0  0  0  0  0  0  0  0  0  0
   -0.2655   -0.0996    0.0000 C   0  0  0  0  0  0  0  0  0  0  0  0
    2.9585   -1.3650    0.0000 C   0  0  0  0  0  0  0  0  0  0  0  0
   -0.9799    1.1379    0.0000 C   0  0  0  0  0  0  0  0  0  0  0  0
    2.3606    1.6948    0.0000 C   0  0  0  0  0  0  0  0  0  0  0  0
    3.1720   -2.1619    0.0000 C   0  0  0  0  0  0  0  0  0  0  0  0
    3.5419   -0.7816    0.0000 C   0  0  0  0  0  0  0  0  0  0  0  0
   -2.4089    1.1379    0.0000 C   0  0  3  0  0  0  0  0  0  0  0  0
   -3.1233    0.7254    0.0000 C   0  0  0  0  0  0  0  0  0  0  0  0
    3.9689   -2.3754    0.0000 C   0  0  0  0  0  0  0  0  0  0  0  0
    4.3388   -0.9951    0.0000 C   0  0  0  0  0  0  0  0  0  0  0  0
   -2.4089    1.9629    0.0000 C   0  0  0  0  0  0  0  0  0  0  0  0
   -3.8378    1.1379    0.0000 C   0  0  0  0  0  0  0  0  0  0  0  0
   -3.1233   -0.0996    0.0000 C   0  0  0  0  0  0  0  0  0  0  0  0
   -4.5523    0.7254    0.0000 C   0  0  0  0  0  0  0  0  0  0  0  0
   -3.8378   -0.5121    0.0000 C   0  0  0  0  0  0  0  0  0  0  0  0
   -4.5523   -0.0996    0.0000 C   0  0  0  0  0  0  0  0  0  0  0  0
   -3.1233    2.3754    0.0000 C   0  0  0  0  0  0  0  0  0  0  0  0
  1 10  2  0  0  0  0
  2 16  2  0  0  0  0
  3 22  1  0  0  0  0
  3 23  1  0  0  0  0
  4  5  1  0  0  0  0
  4  7  1  0  0  0  0
  4 10  1  0  0  0  0
  5  9  2  0  0  0  0
  6 16  1  0  0  0  0
  6 20  1  0  0  0  0
  7  8  1  0  0  0  0
  7 13  2  0  0  0  0
  8  9  1  0  0  0  0
  8 11  2  0  0  0  0
  9 17  1  0  0  0  0
 10 15  1  0  0  0  0
 11 12  1  0  0  0  0
 12 14  2  0  0  0  0
 12 16  1  0  0  0  0
 13 14  1  0  0  0  0
 15 18  1  0  0  0  0
 15 19  1  0  0  0  0
 18 22  1  0  0  0  0
 19 23  1  0  0  0  0
 20 21  1  0  0  0  0
 20 24  1  0  0  0  0
 21 25  2  0  0  0  0
 21 26  1  0  0  0  0
 24 30  1  0  0  0  0
 25 27  1  0  0  0  0
 26 28  2  0  0  0  0
 27 29  2  0  0  0  0
 28 29  1  0  0  0  0
M  END
> <PUBCHEM_COMPOUND_ID_TYPE>
0

> <PUBCHEM_TOTAL_CHARGE>
0

> <PUBCHEM_SUBSTANCE_ID>
310947300

> <PUBCHEM_SUBSTANCE_VERSION>
1

> <PUBCHEM_EXT_DATASOURCE_NAME>
4488

> <PUBCHEM_EXT_DATASOURCE_REGID>
SCHEMBL16125455

> <PUBCHEM_SUBSTANCE_COMMENT>
InChI=1S/C24H27N3O3/c1-3-21(17-7-5-4-6-8-17)25-23(28)19-9-10-22-20(15-19)16(2)26-27(22)24(29)18-11-13-30-14-12-18/h4-10,15,18,21H,3,11-14H2,1-2H3,(H,25,28)
InChIKey=WNTYPZCTHQPTEE-UHFFFAOYSA-N

> <PUBCHEM_SUBSTANCE_SYNONYM>
SCHEMBL16125455

> <PUBCHEM_XREF_EXT_ID>
SCHEMBL16125455

> <PUBCHEM_EXT_DATASOURCE_URL>
https://www.surechembl.org/

> <PUBCHEM_EXT_SUBSTANCE_URL>
https://www.surechembl.org/chemical/SCHEMBL16125455

> <PUBCHEM_CID_ASSOCIATIONS>
71577486  1

> <PUBCHEM_COORDINATE_TYPE>
1
3

$$$$
