310935494
  -OEChem-07211613022D

 33 37  0     1  0  0  0  0  0999 V2000
   -3.0366   -1.8170    0.0000 O   0  0  0  0  0  0  0  0  0  0  0  0
   -2.8579   -5.3625    0.0000 O   0  0  0  0  0  0  0  0  0  0  0  0
    0.7145   -1.6500    0.0000 N   0  0  3  0  0  0  0  0  0  0  0  0
    1.4290   -0.4125    0.0000 N   0  0  0  0  0  0  0  0  0  0  0  0
    0.7145    0.8250    0.0000 N   0  0  0  0  0  0  0  0  0  0  0  0
   -1.4290   -4.5375    0.0000 N   0  0  0  0  0  0  0  0  0  0  0  0
   -3.4491   -1.1026    0.0000 N   0  0  0  0  0  0  0  0  0  0  0  0
   -3.5724   -4.1250    0.0000 N   0  0  0  0  0  0  0  0  0  0  0  0
    0.0000   -0.4125    0.0000 C   0  0  0  0  0  0  0  0  0  0  0  0
    0.7145   -0.8250    0.0000 C   0  0  0  0  0  0  0  0  0  0  0  0
    0.0000    0.4125    0.0000 C   0  0  0  0  0  0  0  0  0  0  0  0
   -1.4290   -0.4125    0.0000 C   0  0  0  0  0  0  0  0  0  0  0  0
   -0.7145    0.8250    0.0000 C   0  0  0  0  0  0  0  0  0  0  0  0
   -0.7145   -0.8250    0.0000 C   0  0  0  0  0  0  0  0  0  0  0  0
    0.0000   -2.8875    0.0000 C   0  0  0  0  0  0  0  0  0  0  0  0
    0.0000   -2.0625    0.0000 C   0  0  0  0  0  0  0  0  0  0  0  0
    0.7145   -3.3000    0.0000 C   0  0  0  0  0  0  0  0  0  0  0  0
   -1.4290    0.4125    0.0000 C   0  0  0  0  0  0  0  0  0  0  0  0
    1.4290   -2.0625    0.0000 C   0  0  0  0  0  0  0  0  0  0  0  0
   -2.1434   -0.8250    0.0000 C   0  0  0  0  0  0  0  0  0  0  0  0
    1.4290   -2.8875    0.0000 C   0  0  0  0  0  0  0  0  0  0  0  0
    1.4290    0.4125    0.0000 C   0  0  0  0  0  0  0  0  0  0  0  0
   -0.7145   -3.3000    0.0000 C   0  0  0  0  0  0  0  0  0  0  0  0
   -0.7145   -4.1250    0.0000 C   0  0  0  0  0  0  0  0  0  0  0  0
    0.7145   -4.1250    0.0000 C   0  0  0  0  0  0  0  0  0  0  0  0
    0.0000   -4.5375    0.0000 C   0  0  0  0  0  0  0  0  0  0  0  0
   -2.1434   -4.1250    0.0000 C   0  0  0  0  0  0  0  0  0  0  0  0
   -2.2296   -1.6455    0.0000 C   0  0  0  0  0  0  0  0  0  0  0  0
   -2.8971   -0.4895    0.0000 C   0  0  0  0  0  0  0  0  0  0  0  0
   -0.7145    1.6500    0.0000 C   0  0  0  0  0  0  0  0  0  0  0  0
   -2.8579   -4.5375    0.0000 C   0  0  0  0  0  0  0  0  0  0  0  0
   -2.5559   -3.4106    0.0000 C   0  0  0  0  0  0  0  0  0  0  0  0
   -1.7309   -3.4106    0.0000 C   0  0  0  0  0  0  0  0  0  0  0  0
  1  7  1  0  0  0  0
  1 28  1  0  0  0  0
  2 31  2  0  0  0  0
  3 10  1  0  0  0  0
  3 16  1  0  0  0  0
  3 19  1  0  0  0  0
  4 10  1  0  0  0  0
  4 22  2  0  0  0  0
  5 11  2  0  0  0  0
  5 22  1  0  0  0  0
  6 24  1  0  0  0  0
  6 27  1  0  0  0  0
  7 29  2  0  0  0  0
  8 31  1  0  0  0  0
  9 10  2  0  0  0  0
  9 11  1  0  0  0  0
  9 14  1  0  0  0  0
 11 13  1  0  0  0  0
 12 14  2  0  0  0  0
 12 18  1  0  0  0  0
 12 20  1  0  0  0  0
 13 18  2  0  0  0  0
 13 30  1  0  0  0  0
 15 16  1  0  0  0  0
 15 17  2  0  0  0  0
 15 23  1  0  0  0  0
 17 21  1  0  0  0  0
 17 25  1  0  0  0  0
 19 21  1  0  0  0  0
 20 28  2  0  0  0  0
 20 29  1  0  0  0  0
 23 24  2  0  0  0  0
 24 26  1  0  0  0  0
 25 26  2  0  0  0  0
 27 31  1  0  0  0  0
 27 32  1  0  0  0  0
 27 33  1  0  0  0  0
M  END
> <PUBCHEM_COMPOUND_ID_TYPE>
0

> <PUBCHEM_TOTAL_CHARGE>
0

> <PUBCHEM_SUBSTANCE_ID>
310935494

> <PUBCHEM_SUBSTANCE_VERSION>
1

> <PUBCHEM_EXT_DATASOURCE_NAME>
4488

> <PUBCHEM_EXT_DATASOURCE_REGID>
SCHEMBL16113060

> <PUBCHEM_SUBSTANCE_COMMENT>
InChI=1S/C25H26N6O2/c1-15-8-17(19-11-29-33-13-19)10-21-22(15)27-14-28-23(21)31-7-6-16-4-5-20(9-18(16)12-31)30-25(2,3)24(26)32/h4-5,8-11,13-14,30H,6-7,12H2,1-3H3,(H2,26,32)
InChIKey=YINWVUYTYJWSEZ-UHFFFAOYSA-N

> <PUBCHEM_SUBSTANCE_SYNONYM>
SCHEMBL16113060

> <PUBCHEM_XREF_EXT_ID>
SCHEMBL16113060

> <PUBCHEM_EXT_DATASOURCE_URL>
https://www.surechembl.org/

> <PUBCHEM_EXT_SUBSTANCE_URL>
https://www.surechembl.org/chemical/SCHEMBL16113060

> <PUBCHEM_CID_ASSOCIATIONS>
117603527  1

> <PUBCHEM_COORDINATE_TYPE>
1
3

$$$$
