310934641
  -OEChem-07211613022D

 33 36  0     1  0  0  0  0  0999 V2000
    0.8967   -7.1739    0.0000 Cl  0  0  0  0  0  0  0  0  0  0  0  0
    5.4163   -0.7174    0.0000 S   0  0  0  0  0  0  0  0  0  0  0  0
    0.8609   -4.3043    0.0000 F   0  0  0  0  0  0  0  0  0  0  0  0
    2.4750    0.0000    0.0000 O   0  0  0  0  0  0  0  0  0  0  0  0
    1.6500   -1.4347    0.0000 O   0  0  0  0  0  0  0  0  0  0  0  0
    2.1163   -2.1522    0.0000 O   0  0  0  0  0  0  0  0  0  0  0  0
    1.6859   -2.8696    0.0000 O   0  0  0  0  0  0  0  0  0  0  0  0
    3.3358   -2.8696    0.0000 N   0  0  0  0  0  0  0  0  0  0  0  0
    2.4750   -1.4347    0.0000 N   0  0  0  0  0  0  0  0  0  0  0  0
    3.7304   -0.7174    0.0000 C   0  0  0  0  0  0  0  0  0  0  0  0
    2.9054   -0.7174    0.0000 C   0  0  0  0  0  0  0  0  0  0  0  0
    3.3358   -1.4347    0.0000 C   0  0  0  0  0  0  0  0  0  0  0  0
    2.5109   -4.3043    0.0000 C   0  0  0  0  0  0  0  0  0  0  0  0
    2.1163   -5.0217    0.0000 C   0  0  0  0  0  0  0  0  0  0  0  0
    4.1608   -1.4347    0.0000 C   0  0  0  0  0  0  0  0  0  0  0  0
    4.1608    0.0000    0.0000 C   0  0  0  0  0  0  0  0  0  0  0  0
    2.5467   -2.8696    0.0000 C   0  0  0  0  0  0  0  0  0  0  0  0
    3.7304   -2.1522    0.0000 C   0  0  0  0  0  0  0  0  0  0  0  0
    2.0804   -3.5870    0.0000 C   0  0  0  0  0  0  0  0  0  0  0  0
    1.2913   -5.0217    0.0000 C   0  0  0  0  0  0  0  0  0  0  0  0
    3.3358   -4.3043    0.0000 C   0  0  0  0  0  0  0  0  0  0  0  0
    3.7663   -3.5870    0.0000 C   0  0  0  0  0  0  0  0  0  0  0  0
    2.5467   -5.7391    0.0000 C   0  0  0  0  0  0  0  0  0  0  0  0
    4.9858   -1.4347    0.0000 C   0  0  0  0  0  0  0  0  0  0  0  0
    4.9858    0.0000    0.0000 C   0  0  0  0  0  0  0  0  0  0  0  0
    0.8967   -5.7391    0.0000 C   0  0  0  0  0  0  0  0  0  0  0  0
    1.3272   -6.4565    0.0000 C   0  0  0  0  0  0  0  0  0  0  0  0
    2.1522   -6.4565    0.0000 C   0  0  0  0  0  0  0  0  0  0  0  0
    1.2554   -2.1522    0.0000 C   0  0  3  0  0  0  0  0  0  0  0  0
    0.4304   -2.1522    0.0000 C   0  0  0  0  0  0  0  0  0  0  0  0
    1.2554   -3.5870    0.0000 C   0  0  0  0  0  0  0  0  0  0  0  0
    0.0000   -2.8696    0.0000 C   0  0  0  0  0  0  0  0  0  0  0  0
    0.4304   -3.5511    0.0000 C   0  0  0  0  0  0  0  0  0  0  0  0
  1 27  1  0  0  0  0
  2 24  1  0  0  0  0
  2 25  1  0  0  0  0
  3 20  1  0  0  0  0
  4 11  2  0  0  0  0
  5  9  1  0  0  0  0
  5 29  1  0  0  0  0
  6 17  2  0  0  0  0
  7 29  1  0  0  0  0
  7 31  1  0  0  0  0
  8 17  1  0  0  0  0
  8 18  1  0  0  0  0
  8 22  1  0  0  0  0
  9 11  1  0  0  0  0
 10 11  1  0  0  0  0
 10 12  1  0  0  0  0
 10 15  1  0  0  0  0
 10 16  1  0  0  0  0
 12 18  1  0  0  0  0
 13 14  1  0  0  0  0
 13 19  2  0  0  0  0
 13 21  1  0  0  0  0
 14 20  1  0  0  0  0
 14 23  2  0  0  0  0
 15 24  1  0  0  0  0
 16 25  1  0  0  0  0
 17 19  1  0  0  0  0
 20 26  2  0  0  0  0
 21 22  2  0  0  0  0
 23 28  1  0  0  0  0
 26 27  1  0  0  0  0
 27 28  2  0  0  0  0
 29 30  1  0  0  0  0
 30 32  1  0  0  0  0
 31 33  1  0  0  0  0
 32 33  1  0  0  0  0
M  END
> <PUBCHEM_COMPOUND_ID_TYPE>
0

> <PUBCHEM_TOTAL_CHARGE>
0

> <PUBCHEM_SUBSTANCE_ID>
310934641

> <PUBCHEM_SUBSTANCE_VERSION>
1

> <PUBCHEM_EXT_DATASOURCE_NAME>
4488

> <PUBCHEM_EXT_DATASOURCE_REGID>
SCHEMBL16112139

> <PUBCHEM_SUBSTANCE_COMMENT>
InChI=1S/C24H28ClFN2O4S/c25-18-4-5-19(20(26)16-18)17-6-10-28(21(29)15-17)11-7-24(8-13-33-14-9-24)23(30)27-32-22-3-1-2-12-31-22/h4-6,10,15-16,22H,1-3,7-9,11-14H2,(H,27,30)
InChIKey=TWCTVQOGXCEPOZ-UHFFFAOYSA-N

> <PUBCHEM_SUBSTANCE_SYNONYM>
SCHEMBL16112139

> <PUBCHEM_XREF_EXT_ID>
SCHEMBL16112139

> <PUBCHEM_EXT_DATASOURCE_URL>
https://www.surechembl.org/

> <PUBCHEM_EXT_SUBSTANCE_URL>
https://www.surechembl.org/chemical/SCHEMBL16112139

> <PUBCHEM_CID_ASSOCIATIONS>
117602810  1

> <PUBCHEM_COORDINATE_TYPE>
1
3

$$$$
