310931035
  -OEChem-07211613022D

 33 36  0     1  0  0  0  0  0999 V2000
    1.7337   -1.3207    0.0000 Cl  0  0  0  0  0  0  0  0  0  0  0  0
    6.9921   -0.0496    0.0000 S   0  0  0  0  0  0  0  0  0  0  0  0
    7.9619   -1.3845    0.0000 F   0  0  0  0  0  0  0  0  0  0  0  0
    4.6800   -1.7294    0.0000 F   0  0  0  0  0  0  0  0  0  0  0  0
    5.6499   -3.0643    0.0000 O   0  0  0  0  0  0  0  0  0  0  0  0
    6.2384    0.2860    0.0000 O   0  0  0  0  0  0  0  0  0  0  0  0
    7.7458   -0.3851    0.0000 O   0  0  0  0  0  0  0  0  0  0  0  0
    5.7628    2.1562    0.0000 O   0  0  0  0  0  0  0  0  0  0  0  0
    7.3277    0.7041    0.0000 N   0  0  0  0  0  0  0  0  0  0  0  0
    6.0177    1.3715    0.0000 N   0  0  0  0  0  0  0  0  0  0  0  0
    4.6432   -5.3253    0.0000 N   0  0  0  0  0  0  0  0  0  0  0  0
    6.6565   -0.8033    0.0000 C   0  0  0  0  0  0  0  0  0  0  0  0
    7.1415   -1.4707    0.0000 C   0  0  0  0  0  0  0  0  0  0  0  0
    5.9854   -2.3106    0.0000 C   0  0  0  0  0  0  0  0  0  0  0  0
    5.8361   -0.8895    0.0000 C   0  0  0  0  0  0  0  0  0  0  0  0
    5.5005   -1.6432    0.0000 C   0  0  0  0  0  0  0  0  0  0  0  0
    6.8059   -2.2244    0.0000 C   0  0  0  0  0  0  0  0  0  0  0  0
    6.8427    1.3715    0.0000 C   0  0  0  0  0  0  0  0  0  0  0  0
    4.4938   -3.9042    0.0000 C   0  0  3  0  0  0  0  0  0  0  0  0
    3.6734   -3.9904    0.0000 C   0  0  3  0  0  0  0  0  0  0  0  0
    7.0977    2.1562    0.0000 C   0  0  0  0  0  0  0  0  0  0  0  0
    4.8294   -3.1505    0.0000 C   0  0  0  0  0  0  0  0  0  0  0  0
    3.1884   -3.3230    0.0000 C   0  0  0  0  0  0  0  0  0  0  0  0
    6.4302    2.6411    0.0000 C   0  0  0  0  0  0  0  0  0  0  0  0
    4.9788   -4.5716    0.0000 C   0  0  0  0  0  0  0  0  0  0  0  0
    3.3378   -4.7441    0.0000 C   0  0  0  0  0  0  0  0  0  0  0  0
    2.3680   -3.4092    0.0000 C   0  0  0  0  0  0  0  0  0  0  0  0
    3.5240   -2.5693    0.0000 C   0  0  0  0  0  0  0  0  0  0  0  0
    3.8227   -5.4115    0.0000 C   0  0  0  0  0  0  0  0  0  0  0  0
    2.2186   -1.9881    0.0000 C   0  0  0  0  0  0  0  0  0  0  0  0
    1.8830   -2.7418    0.0000 C   0  0  0  0  0  0  0  0  0  0  0  0
    3.0391   -1.9019    0.0000 C   0  0  0  0  0  0  0  0  0  0  0  0
    6.4302    3.4661    0.0000 C   0  0  0  0  0  0  0  0  0  0  0  0
  1 30  1  0  0  0  0
  2  6  2  0  0  0  0
  2  7  2  0  0  0  0
  2  9  1  0  0  0  0
  2 12  1  0  0  0  0
  3 13  1  0  0  0  0
  4 16  1  0  0  0  0
  5 14  1  0  0  0  0
  5 22  1  0  0  0  0
  8 10  1  0  0  0  0
  8 24  1  0  0  0  0
  9 18  1  0  0  0  0
 10 18  2  0  0  0  0
 11 25  1  0  0  0  0
 11 29  1  0  0  0  0
 12 13  2  0  0  0  0
 12 15  1  0  0  0  0
 13 17  1  0  0  0  0
 14 16  1  0  0  0  0
 14 17  2  0  0  0  0
 15 16  2  0  0  0  0
 18 21  1  0  0  0  0
 19 20  1  0  0  0  0
 19 22  1  0  0  0  0
 19 25  1  0  0  0  0
 20 23  1  0  0  0  0
 20 26  1  0  0  0  0
 21 24  2  0  0  0  0
 23 27  2  0  0  0  0
 23 28  1  0  0  0  0
 24 33  1  0  0  0  0
 26 29  1  0  0  0  0
 27 31  1  0  0  0  0
 28 32  2  0  0  0  0
 30 31  2  0  0  0  0
 30 32  1  0  0  0  0
M  END
> <PUBCHEM_COMPOUND_ID_TYPE>
0

> <PUBCHEM_TOTAL_CHARGE>
0

> <PUBCHEM_SUBSTANCE_ID>
310931035

> <PUBCHEM_SUBSTANCE_VERSION>
1

> <PUBCHEM_EXT_DATASOURCE_NAME>
4488

> <PUBCHEM_EXT_DATASOURCE_REGID>
SCHEMBL16108337

> <PUBCHEM_SUBSTANCE_COMMENT>
InChI=1S/C22H22ClF2N3O4S/c1-13-8-22(27-32-13)28-33(29,30)21-10-18(24)20(9-19(21)25)31-12-15-11-26-7-6-17(15)14-2-4-16(23)5-3-14/h2-5,8-10,15,17,26H,6-7,11-12H2,1H3,(H,27,28)
InChIKey=HMUCIANDUAOOLC-UHFFFAOYSA-N

> <PUBCHEM_SUBSTANCE_SYNONYM>
SCHEMBL16108337

> <PUBCHEM_XREF_EXT_ID>
SCHEMBL16108337

> <PUBCHEM_EXT_DATASOURCE_URL>
https://www.surechembl.org/

> <PUBCHEM_EXT_SUBSTANCE_URL>
https://www.surechembl.org/chemical/SCHEMBL16108337

> <PUBCHEM_CID_ASSOCIATIONS>
78111188  1

> <PUBCHEM_COORDINATE_TYPE>
1
3

$$$$
