310932693
  -OEChem-07211613022D

 28 31  0     1  0  0  0  0  0999 V2000
    4.0418   -2.1378    0.0000 O   0  0  0  0  0  0  0  0  0  0  0  0
    8.4845   -2.2380    0.0000 O   0  0  0  0  0  0  0  0  0  0  0  0
    4.9104   -1.0021    0.0000 N   0  0  0  0  0  0  0  0  0  0  0  0
    7.7830   -3.4740    0.0000 N   0  0  0  0  0  0  0  0  0  0  0  0
    4.8435   -0.1670    0.0000 N   0  0  0  0  0  0  0  0  0  0  0  0
    6.3467   -1.0021    0.0000 N   0  0  0  0  0  0  0  0  0  0  0  0
    0.0000   -1.8372    0.0000 N   0  0  0  0  0  0  0  0  0  0  0  0
    9.3196   -3.8748    0.0000 C   0  0  0  0  0  0  0  0  0  0  0  0
    8.5179   -3.8748    0.0000 C   0  0  3  0  0  0  0  0  0  0  0  0
    8.9522   -4.6097    0.0000 C   0  0  0  0  0  0  0  0  0  0  0  0
    4.1755   -1.3361    0.0000 C   0  0  0  0  0  0  0  0  0  0  0  0
    3.6076   -0.7349    0.0000 C   0  0  0  0  0  0  0  0  0  0  0  0
    5.6452   -1.4030    0.0000 C   0  0  0  0  0  0  0  0  0  0  0  0
    2.8059   -0.8017    0.0000 C   0  0  0  0  0  0  0  0  0  0  0  0
    7.7830   -2.6389    0.0000 C   0  0  0  0  0  0  0  0  0  0  0  0
    7.0816   -2.2380    0.0000 C   0  0  0  0  0  0  0  0  0  0  0  0
    4.0418    0.0000    0.0000 C   0  0  0  0  0  0  0  0  0  0  0  0
    5.6452   -2.2380    0.0000 C   0  0  0  0  0  0  0  0  0  0  0  0
   10.0211   -3.4406    0.0000 C   0  0  0  0  0  0  0  0  0  0  0  0
    9.1192   -3.0731    0.0000 C   0  0  0  0  0  0  0  0  0  0  0  0
    7.0816   -1.4030    0.0000 C   0  0  0  0  0  0  0  0  0  0  0  0
    6.3467   -2.6389    0.0000 C   0  0  0  0  0  0  0  0  0  0  0  0
    2.4718   -1.5700    0.0000 C   0  0  0  0  0  0  0  0  0  0  0  0
    2.3048   -0.1670    0.0000 C   0  0  0  0  0  0  0  0  0  0  0  0
    1.1691   -1.0021    0.0000 C   0  0  0  0  0  0  0  0  0  0  0  0
    1.6368   -1.6702    0.0000 C   0  0  0  0  0  0  0  0  0  0  0  0
    1.5031   -0.2673    0.0000 C   0  0  0  0  0  0  0  0  0  0  0  0
    0.3340   -1.1023    0.0000 C   0  0  0  0  0  0  0  0  0  0  0  0
  1 11  1  0  0  0  0
  2 15  2  0  0  0  0
  3  5  1  0  0  0  0
  3 11  1  0  0  0  0
  3 13  1  0  0  0  0
  4  9  1  0  0  0  0
  4 15  1  0  0  0  0
  5 17  2  0  0  0  0
  6 13  2  0  0  0  0
  6 21  1  0  0  0  0
  7 28  3  0  0  0  0
  8  9  1  0  0  0  0
  8 10  1  0  0  0  0
  8 19  1  0  0  0  0
  8 20  1  0  0  0  0
  9 10  1  0  0  0  0
 11 12  2  0  0  0  0
 12 14  1  0  0  0  0
 12 17  1  0  0  0  0
 13 18  1  0  0  0  0
 14 23  2  0  0  0  0
 14 24  1  0  0  0  0
 15 16  1  0  0  0  0
 16 21  2  0  0  0  0
 16 22  1  0  0  0  0
 18 22  2  0  0  0  0
 23 26  1  0  0  0  0
 24 27  2  0  0  0  0
 25 26  2  0  0  0  0
 25 27  1  0  0  0  0
 25 28  1  0  0  0  0
M  END
> <PUBCHEM_COMPOUND_ID_TYPE>
0

> <PUBCHEM_TOTAL_CHARGE>
0

> <PUBCHEM_SUBSTANCE_ID>
310932693

> <PUBCHEM_SUBSTANCE_VERSION>
1

> <PUBCHEM_EXT_DATASOURCE_NAME>
4488

> <PUBCHEM_EXT_DATASOURCE_REGID>
SCHEMBL16110075

> <PUBCHEM_SUBSTANCE_COMMENT>
InChI=1S/C21H19N5O2/c1-21(2)9-17(21)25-19(27)15-7-8-18(23-11-15)26-20(28)16(12-24-26)14-5-3-13(10-22)4-6-14/h3-8,11-12,17,28H,9H2,1-2H3,(H,25,27)
InChIKey=QBWAGVZPTGVCAE-UHFFFAOYSA-N

> <PUBCHEM_SUBSTANCE_SYNONYM>
SCHEMBL16110075

> <PUBCHEM_XREF_EXT_ID>
SCHEMBL16110075

> <PUBCHEM_EXT_DATASOURCE_URL>
https://www.surechembl.org/

> <PUBCHEM_EXT_SUBSTANCE_URL>
https://www.surechembl.org/chemical/SCHEMBL16110075

> <PUBCHEM_CID_ASSOCIATIONS>
117601203  1

> <PUBCHEM_COORDINATE_TYPE>
1
3

$$$$
