310933454
  -OEChem-07211613022D

 41 45  0     1  0  0  0  0  0999 V2000
    5.1693    0.0000    0.0000 Cl  0  0  0  0  0  0  0  0  0  0  0  0
    2.3010   -0.7880    0.0000 O   0  0  0  0  0  0  0  0  0  0  0  0
    5.5476   -3.1205    0.0000 O   0  0  0  0  0  0  0  0  0  0  0  0
    5.2954   -4.7596    0.0000 O   0  0  0  0  0  0  0  0  0  0  0  0
    0.0000   -4.2553    0.0000 O   0  0  0  0  0  0  0  0  0  0  0  0
    3.9085   -5.2009    0.0000 O   0  0  0  0  0  0  0  0  0  0  0  0
    4.2237   -3.7825    0.0000 N   0  0  0  0  0  0  0  0  0  0  0  0
    4.2237   -2.4901    0.0000 N   0  0  0  0  0  0  0  0  0  0  0  0
    3.9085   -0.7565    0.0000 N   0  0  0  0  0  0  0  0  0  0  0  0
    1.4815   -2.2064    0.0000 N   0  0  0  0  0  0  0  0  0  0  0  0
    0.4097   -4.9802    0.0000 N   0  0  0  0  0  0  0  0  0  0  0  0
    2.7107   -1.4815    0.0000 C   0  0  3  0  0  0  0  0  0  0  0  0
    2.7107   -2.3010    0.0000 C   0  0  0  0  0  0  0  0  0  0  0  0
    3.4357   -2.7107    0.0000 C   0  0  0  0  0  0  0  0  0  0  0  0
    3.4357   -3.5618    0.0000 C   0  0  0  0  0  0  0  0  0  0  0  0
    2.0173   -3.5618    0.0000 C   0  0  0  0  0  0  0  0  0  0  0  0
    4.7281   -3.1205    0.0000 C   0  0  0  0  0  0  0  0  0  0  0  0
    2.0173   -2.7107    0.0000 C   0  0  0  0  0  0  0  0  0  0  0  0
    3.5303   -1.4815    0.0000 C   0  0  0  0  0  0  0  0  0  0  0  0
    1.8912   -1.4815    0.0000 C   0  0  0  0  0  0  0  0  0  0  0  0
    2.7107   -3.9715    0.0000 C   0  0  0  0  0  0  0  0  0  0  0  0
    1.3238   -3.9715    0.0000 C   0  0  0  0  0  0  0  0  0  0  0  0
    4.4759   -4.5704    0.0000 C   0  0  0  0  0  0  0  0  0  0  0  0
    0.5673   -3.6564    0.0000 C   0  0  0  0  0  0  0  0  0  0  0  0
    1.2293   -4.7911    0.0000 C   0  0  0  0  0  0  0  0  0  0  0  0
    3.9401   -2.2064    0.0000 C   0  0  0  0  0  0  0  0  0  0  0  0
    1.4815   -0.7880    0.0000 C   0  0  0  0  0  0  0  0  0  0  0  0
    4.7596   -0.7250    0.0000 C   0  0  0  0  0  0  0  0  0  0  0  0
    4.7911   -2.1749    0.0000 C   0  0  0  0  0  0  0  0  0  0  0  0
    5.5476   -5.5160    0.0000 C   0  0  0  0  0  0  0  0  0  0  0  0
    0.6619   -2.2380    0.0000 C   0  0  0  0  0  0  0  0  0  0  0  0
    0.6304   -0.8195    0.0000 C   0  0  0  0  0  0  0  0  0  0  0  0
    5.1693   -1.4499    0.0000 C   0  0  0  0  0  0  0  0  0  0  0  0
    5.9574   -2.4271    0.0000 C   0  0  0  0  0  0  0  0  0  0  0  0
    0.2522   -1.5130    0.0000 C   0  0  0  0  0  0  0  0  0  0  0  0
    0.3783   -2.8369    0.0000 C   0  0  0  0  0  0  0  0  0  0  0  0
    1.8282   -5.3585    0.0000 C   0  0  0  0  0  0  0  0  0  0  0  0
    4.7281   -5.7998    0.0000 C   0  0  0  0  0  0  0  0  0  0  0  0
    5.7998   -6.3041    0.0000 C   0  0  0  0  0  0  0  0  0  0  0  0
    6.3041   -5.2639    0.0000 C   0  0  0  0  0  0  0  0  0  0  0  0
    5.5476   -1.7021    0.0000 C   0  0  0  0  0  0  0  0  0  0  0  0
  1 28  1  0  0  0  0
  2 12  1  0  0  0  0
  3 17  1  0  0  0  0
  3 34  1  0  0  0  0
  4 23  1  0  0  0  0
  4 30  1  0  0  0  0
  5 11  1  0  0  0  0
  5 24  1  0  0  0  0
  6 23  2  0  0  0  0
  7 15  1  0  0  0  0
  7 17  1  0  0  0  0
  7 23  1  0  0  0  0
  8 14  1  0  0  0  0
  8 17  2  0  0  0  0
  9 19  1  0  0  0  0
  9 28  2  0  0  0  0
 10 20  1  0  0  0  0
 10 31  2  0  0  0  0
 11 25  2  0  0  0  0
 12 13  1  0  0  0  0
 12 19  1  0  0  0  0
 12 20  1  0  0  0  0
 13 14  1  0  0  0  0
 13 18  2  0  0  0  0
 14 15  2  0  0  0  0
 15 21  1  0  0  0  0
 16 18  1  0  0  0  0
 16 21  2  0  0  0  0
 16 22  1  0  0  0  0
 19 26  2  0  0  0  0
 20 27  2  0  0  0  0
 22 24  2  0  0  0  0
 22 25  1  0  0  0  0
 24 36  1  0  0  0  0
 25 37  1  0  0  0  0
 26 29  1  0  0  0  0
 27 32  1  0  0  0  0
 28 33  1  0  0  0  0
 29 33  2  0  0  0  0
 30 38  1  0  0  0  0
 30 39  1  0  0  0  0
 30 40  1  0  0  0  0
 31 35  1  0  0  0  0
 32 35  2  0  0  0  0
 34 41  1  0  0  0  0
M  END
> <PUBCHEM_COMPOUND_ID_TYPE>
0

> <PUBCHEM_TOTAL_CHARGE>
0

> <PUBCHEM_SUBSTANCE_ID>
310933454

> <PUBCHEM_SUBSTANCE_VERSION>
1

> <PUBCHEM_EXT_DATASOURCE_NAME>
4488

> <PUBCHEM_EXT_DATASOURCE_REGID>
SCHEMBL16110872

> <PUBCHEM_SUBSTANCE_COMMENT>
InChI=1S/C30H30ClN5O5/c1-7-39-27-34-26-20(30(38,22-11-8-9-14-32-22)23-12-10-13-24(31)33-23)15-19(25-17(2)35-41-18(25)3)16-21(26)36(27)28(37)40-29(4,5)6/h8-16,38H,7H2,1-6H3
InChIKey=BKKINQQQDUDAKB-UHFFFAOYSA-N

> <PUBCHEM_SUBSTANCE_SYNONYM>
SCHEMBL16110872

> <PUBCHEM_XREF_EXT_ID>
SCHEMBL16110872

> <PUBCHEM_EXT_DATASOURCE_URL>
https://www.surechembl.org/

> <PUBCHEM_EXT_SUBSTANCE_URL>
https://www.surechembl.org/chemical/SCHEMBL16110872

> <PUBCHEM_CID_ASSOCIATIONS>
117601854  1

> <PUBCHEM_COORDINATE_TYPE>
1
3

$$$$
