310933499
  -OEChem-07211613022D

 32 36  0     1  0  0  0  0  0999 V2000
    5.9607   -0.7135    0.0000 F   0  0  0  0  0  0  0  0  0  0  0  0
    2.2784   -0.0460    0.0000 O   0  0  0  0  0  0  0  0  0  0  0  0
    0.0000   -3.5212    0.0000 O   0  0  0  0  0  0  0  0  0  0  0  0
    5.5235   -2.3935    0.0000 O   0  0  0  0  0  0  0  0  0  0  0  0
    4.2116   -1.7491    0.0000 N   0  0  0  0  0  0  0  0  0  0  0  0
    4.2116   -3.0609    0.0000 N   0  0  0  0  0  0  0  0  0  0  0  0
    3.9124   -0.0460    0.0000 N   0  0  0  0  0  0  0  0  0  0  0  0
    1.4269   -0.0690    0.0000 N   0  0  0  0  0  0  0  0  0  0  0  0
    0.4143   -4.2347    0.0000 N   0  0  0  0  0  0  0  0  0  0  0  0
    0.6444   -1.4959    0.0000 N   0  0  0  0  0  0  0  0  0  0  0  0
    2.6927   -0.7595    0.0000 C   0  0  3  0  0  0  0  0  0  0  0  0
    2.7157   -1.5880    0.0000 C   0  0  0  0  0  0  0  0  0  0  0  0
    3.4292   -1.9793    0.0000 C   0  0  0  0  0  0  0  0  0  0  0  0
    3.4292   -2.8308    0.0000 C   0  0  0  0  0  0  0  0  0  0  0  0
    3.5212   -0.7364    0.0000 C   0  0  0  0  0  0  0  0  0  0  0  0
    1.8872   -0.7595    0.0000 C   0  0  0  0  0  0  0  0  0  0  0  0
    2.0252   -2.8308    0.0000 C   0  0  0  0  0  0  0  0  0  0  0  0
    2.0252   -1.9793    0.0000 C   0  0  0  0  0  0  0  0  0  0  0  0
    2.7157   -3.2220    0.0000 C   0  0  0  0  0  0  0  0  0  0  0  0
    1.3118   -3.2450    0.0000 C   0  0  0  0  0  0  0  0  0  0  0  0
    4.6950   -2.3935    0.0000 C   0  0  0  0  0  0  0  0  0  0  0  0
    3.9355   -1.4729    0.0000 C   0  0  0  0  0  0  0  0  0  0  0  0
    0.5524   -2.9228    0.0000 C   0  0  0  0  0  0  0  0  0  0  0  0
    1.2198   -4.0505    0.0000 C   0  0  0  0  0  0  0  0  0  0  0  0
    1.4499   -1.4729    0.0000 C   0  0  0  0  0  0  0  0  0  0  0  0
    4.7409    0.0000    0.0000 C   0  0  0  0  0  0  0  0  0  0  0  0
    4.7640   -1.4269    0.0000 C   0  0  0  0  0  0  0  0  0  0  0  0
    5.1322   -0.7135    0.0000 C   0  0  0  0  0  0  0  0  0  0  0  0
    0.6214   -0.0690    0.0000 C   0  0  0  0  0  0  0  0  0  0  0  0
    0.1841   -0.7825    0.0000 C   0  0  0  0  0  0  0  0  0  0  0  0
    0.3682   -2.1173    0.0000 C   0  0  0  0  0  0  0  0  0  0  0  0
    1.8412   -4.6029    0.0000 C   0  0  0  0  0  0  0  0  0  0  0  0
  1 28  1  0  0  0  0
  2 11  1  0  0  0  0
  3  9  1  0  0  0  0
  3 23  1  0  0  0  0
  4 21  2  0  0  0  0
  5 13  1  0  0  0  0
  5 21  1  0  0  0  0
  6 14  1  0  0  0  0
  6 21  1  0  0  0  0
  7 15  1  0  0  0  0
  7 26  2  0  0  0  0
  8 16  2  0  0  0  0
  8 29  1  0  0  0  0
  9 24  2  0  0  0  0
 10 25  2  0  0  0  0
 10 30  1  0  0  0  0
 11 12  1  0  0  0  0
 11 15  1  0  0  0  0
 11 16  1  0  0  0  0
 12 13  1  0  0  0  0
 12 18  2  0  0  0  0
 13 14  2  0  0  0  0
 14 19  1  0  0  0  0
 15 22  2  0  0  0  0
 16 25  1  0  0  0  0
 17 18  1  0  0  0  0
 17 19  2  0  0  0  0
 17 20  1  0  0  0  0
 20 23  2  0  0  0  0
 20 24  1  0  0  0  0
 22 27  1  0  0  0  0
 23 31  1  0  0  0  0
 24 32  1  0  0  0  0
 26 28  1  0  0  0  0
 27 28  2  0  0  0  0
 29 30  2  0  0  0  0
M  END
> <PUBCHEM_COMPOUND_ID_TYPE>
0

> <PUBCHEM_TOTAL_CHARGE>
0

> <PUBCHEM_SUBSTANCE_ID>
310933499

> <PUBCHEM_SUBSTANCE_VERSION>
1

> <PUBCHEM_EXT_DATASOURCE_NAME>
4488

> <PUBCHEM_EXT_DATASOURCE_REGID>
SCHEMBL16110919

> <PUBCHEM_SUBSTANCE_COMMENT>
InChI=1S/C22H17FN6O3/c1-11-19(12(2)32-29-11)13-7-15(20-16(8-13)27-21(30)28-20)22(31,18-10-24-5-6-25-18)17-4-3-14(23)9-26-17/h3-10,31H,1-2H3,(H2,27,28,30)
InChIKey=XXSOIJWCLGRKKN-UHFFFAOYSA-N

> <PUBCHEM_SUBSTANCE_SYNONYM>
SCHEMBL16110919

> <PUBCHEM_XREF_EXT_ID>
SCHEMBL16110919

> <PUBCHEM_EXT_DATASOURCE_URL>
https://www.surechembl.org/

> <PUBCHEM_EXT_SUBSTANCE_URL>
https://www.surechembl.org/chemical/SCHEMBL16110919

> <PUBCHEM_CID_ASSOCIATIONS>
117601892  1

> <PUBCHEM_COORDINATE_TYPE>
1
3

$$$$
