310938032
  -OEChem-07211613022D

 14 14  0     1  0  0  0  0  0999 V2000
    2.1358   -1.6530    0.0000 N   0  0  3  0  0  0  0  0  0  0  0  0
    2.1358    0.0000    0.0000 N   0  0  0  0  0  0  0  0  0  0  0  0
    1.4115   -1.2444    0.0000 C   0  0  3  0  0  0  0  0  0  0  0  0
    2.8416   -1.2444    0.0000 C   0  0  0  0  0  0  0  0  0  0  0  0
    1.4115   -0.4086    0.0000 C   0  0  0  0  0  0  0  0  0  0  0  0
    2.1358   -2.4702    0.0000 C   0  0  0  0  0  0  0  0  0  0  0  0
    0.7058   -1.6530    0.0000 C   0  0  0  0  0  0  0  0  0  0  0  0
    2.8416   -0.4086    0.0000 C   0  0  0  0  0  0  0  0  0  0  0  0
    2.8416   -2.8974    0.0000 C   0  0  0  0  0  0  0  0  0  0  0  0
    0.7243   -2.4888    0.0000 C   0  0  0  0  0  0  0  0  0  0  0  0
    3.5474   -2.4702    0.0000 C   0  0  0  0  0  0  0  0  0  0  0  0
    2.8416   -3.7145    0.0000 C   0  0  0  0  0  0  0  0  0  0  0  0
    1.4301   -2.8974    0.0000 C   0  0  0  0  0  0  0  0  0  0  0  0
    0.0000   -2.8974    0.0000 C   0  0  0  0  0  0  0  0  0  0  0  0
  1  3  1  0  0  0  0
  1  4  1  0  0  0  0
  1  6  1  0  0  0  0
  2  5  1  0  0  0  0
  2  8  1  0  0  0  0
  3  5  1  0  0  0  0
  3  7  1  0  0  0  0
  4  8  1  0  0  0  0
  6  9  2  0  0  0  0
  7 10  2  0  0  0  0
  9 11  1  0  0  0  0
  9 12  1  0  0  0  0
 10 13  1  0  0  0  0
 10 14  1  0  0  0  0
M  END
> <PUBCHEM_COMPOUND_ID_TYPE>
0

> <PUBCHEM_TOTAL_CHARGE>
0

> <PUBCHEM_SUBSTANCE_ID>
310938032

> <PUBCHEM_SUBSTANCE_VERSION>
1

> <PUBCHEM_EXT_DATASOURCE_NAME>
4488

> <PUBCHEM_EXT_DATASOURCE_REGID>
SCHEMBL16115872

> <PUBCHEM_SUBSTANCE_COMMENT>
InChI=1S/C12H22N2/c1-10(2)7-12-8-13-5-6-14(12)9-11(3)4/h7,9,12-13H,5-6,8H2,1-4H3
InChIKey=ADXVJMTYKHEVGI-UHFFFAOYSA-N

> <PUBCHEM_SUBSTANCE_SYNONYM>
SCHEMBL16115872

> <PUBCHEM_XREF_EXT_ID>
SCHEMBL16115872

> <PUBCHEM_EXT_DATASOURCE_URL>
https://www.surechembl.org/

> <PUBCHEM_EXT_SUBSTANCE_URL>
https://www.surechembl.org/chemical/SCHEMBL16115872

> <PUBCHEM_CID_ASSOCIATIONS>
117605617  1

> <PUBCHEM_COORDINATE_TYPE>
1
3

$$$$
