310936807
  -OEChem-07211613022D

 31 32  0     1  0  0  0  0  0999 V2000
   17.8099  -12.7452    0.0000 F   0  0  0  0  0  0  0  0  0  0  0  0
   15.8487  -11.2355    0.0000 O   0  0  0  0  0  0  0  0  0  0  0  0
   14.4322  -11.0468    0.0000 O   0  0  0  0  0  0  0  0  0  0  0  0
   16.9382  -13.8775    0.0000 C   0  0  0  0  0  0  0  0  0  0  0  0
   15.6307  -12.8710    0.0000 C   0  0  0  0  0  0  0  0  0  0  0  0
   17.0472  -13.0597    0.0000 C   0  0  0  0  0  0  0  0  0  0  0  0
   17.5919  -14.3808    0.0000 C   0  0  0  0  0  0  0  0  0  0  0  0
   14.9770  -12.3678    0.0000 C   0  0  3  0  0  0  0  0  0  0  0  0
   16.3934  -12.5565    0.0000 C   0  0  0  0  0  0  0  0  0  0  0  0
   16.1755  -14.1920    0.0000 C   0  0  0  0  0  0  0  0  0  0  0  0
   15.5218  -13.6888    0.0000 C   0  0  0  0  0  0  0  0  0  0  0  0
   15.0860  -11.5500    0.0000 C   0  0  0  0  0  0  0  0  0  0  0  0
   18.3546  -14.0662    0.0000 C   0  0  0  0  0  0  0  0  0  0  0  0
   17.4830  -15.1985    0.0000 C   0  0  0  0  0  0  0  0  0  0  0  0
   14.2143  -12.6823    0.0000 C   0  0  0  0  0  0  0  0  0  0  0  0
   19.0084  -14.5695    0.0000 C   0  0  0  0  0  0  0  0  0  0  0  0
   18.1367  -15.7018    0.0000 C   0  0  0  0  0  0  0  0  0  0  0  0
   18.8994  -15.3872    0.0000 C   0  0  0  0  0  0  0  0  0  0  0  0
   13.5606  -12.1791    0.0000 C   0  0  0  0  0  0  0  0  0  0  0  0
   12.7979  -12.4936    0.0000 C   0  0  0  0  0  0  0  0  0  0  0  0
   12.1442  -11.9903    0.0000 C   0  0  0  0  0  0  0  0  0  0  0  0
   11.3815  -12.3049    0.0000 C   0  0  0  0  0  0  0  0  0  0  0  0
   10.7277  -11.8016    0.0000 C   0  0  0  0  0  0  0  0  0  0  0  0
    9.9650  -12.1162    0.0000 C   0  0  0  0  0  0  0  0  0  0  0  0
    9.3113  -11.6129    0.0000 C   0  0  0  0  0  0  0  0  0  0  0  0
    8.5486  -11.9274    0.0000 C   0  0  0  0  0  0  0  0  0  0  0  0
    7.8949  -11.4242    0.0000 C   0  0  0  0  0  0  0  0  0  0  0  0
    7.1322  -11.7387    0.0000 C   0  0  0  0  0  0  0  0  0  0  0  0
    6.4785  -11.2355    0.0000 C   0  0  0  0  0  0  0  0  0  0  0  0
    5.7158  -11.5500    0.0000 C   0  0  0  0  0  0  0  0  0  0  0  0
    5.0620  -11.0468    0.0000 C   0  0  0  0  0  0  0  0  0  0  0  0
  1  6  1  0  0  0  0
  2 12  2  0  0  0  0
  3 12  1  0  0  0  0
  4  6  2  0  0  0  0
  4  7  1  0  0  0  0
  4 10  1  0  0  0  0
  5  8  1  0  0  0  0
  5  9  2  0  0  0  0
  5 11  1  0  0  0  0
  6  9  1  0  0  0  0
  7 13  2  0  0  0  0
  7 14  1  0  0  0  0
  8 12  1  0  0  0  0
  8 15  1  0  0  0  0
 10 11  2  0  0  0  0
 13 16  1  0  0  0  0
 14 17  2  0  0  0  0
 15 19  1  0  0  0  0
 16 18  2  0  0  0  0
 17 18  1  0  0  0  0
 19 20  1  0  0  0  0
 20 21  1  0  0  0  0
 21 22  1  0  0  0  0
 22 23  1  0  0  0  0
 23 24  1  0  0  0  0
 24 25  1  0  0  0  0
 25 26  1  0  0  0  0
 26 27  1  0  0  0  0
 27 28  1  0  0  0  0
 28 29  1  0  0  0  0
 29 30  1  0  0  0  0
 30 31  1  0  0  0  0
M  END
> <PUBCHEM_COMPOUND_ID_TYPE>
0

> <PUBCHEM_TOTAL_CHARGE>
0

> <PUBCHEM_SUBSTANCE_ID>
310936807

> <PUBCHEM_SUBSTANCE_VERSION>
1

> <PUBCHEM_EXT_DATASOURCE_NAME>
4488

> <PUBCHEM_EXT_DATASOURCE_REGID>
SCHEMBL16114493

> <PUBCHEM_SUBSTANCE_COMMENT>
InChI=1S/C28H39FO2/c1-2-3-4-5-6-7-8-9-10-11-12-16-19-26(28(30)31)24-20-21-25(27(29)22-24)23-17-14-13-15-18-23/h13-15,17-18,20-22,26H,2-12,16,19H2,1H3,(H,30,31)
InChIKey=PYRSUTVEIOWZFW-UHFFFAOYSA-N

> <PUBCHEM_SUBSTANCE_SYNONYM>
SCHEMBL16114493

> <PUBCHEM_XREF_EXT_ID>
SCHEMBL16114493

> <PUBCHEM_EXT_DATASOURCE_URL>
https://www.surechembl.org/

> <PUBCHEM_EXT_SUBSTANCE_URL>
https://www.surechembl.org/chemical/SCHEMBL16114493

> <PUBCHEM_CID_ASSOCIATIONS>
117604700  1

> <PUBCHEM_COORDINATE_TYPE>
1
3

$$$$
