310939013
  -OEChem-07211613022D

 15 17  0     1  0  0  0  0  0999 V2000
    0.0797   -1.6499    0.0000 N   0  0  0  0  0  0  0  0  0  0  0  0
    0.0797    0.0000    0.0000 C   0  0  3  0  0  0  0  0  0  0  0  0
    0.0797   -0.8249    0.0000 C   0  0  3  0  0  0  0  0  0  0  0  0
   -0.6348    0.4125    0.0000 C   0  0  3  0  0  0  0  0  0  0  0  0
   -0.6348   -1.2374    0.0000 C   0  0  3  0  0  0  0  0  0  0  0  0
   -0.4121   -0.4067    0.0000 C   0  0  0  0  0  0  0  0  0  0  0  0
    0.8642    0.2549    0.0000 C   0  0  0  0  0  0  0  0  0  0  0  0
    0.8642   -1.0800    0.0000 C   0  0  0  0  0  0  0  0  0  0  0  0
    0.0797    0.8249    0.0000 C   0  0  0  0  0  0  0  0  0  0  0  0
   -1.3492    0.0000    0.0000 C   0  0  0  0  0  0  0  0  0  0  0  0
   -1.3492   -0.8249    0.0000 C   0  0  0  0  0  0  0  0  0  0  0  0
    1.3492   -0.4125    0.0000 C   0  0  0  0  0  0  0  0  0  0  0  0
   -0.6348    1.2374    0.0000 C   0  0  0  0  0  0  0  0  0  0  0  0
   -0.6348   -2.0625    0.0000 C   0  0  0  0  0  0  0  0  0  0  0  0
   -0.6348    2.0625    0.0000 C   0  0  0  0  0  0  0  0  0  0  0  0
  1  3  1  0  0  0  0
  1 14  1  0  0  0  0
  2  3  1  0  0  0  0
  2  4  1  0  0  0  0
  2  7  1  0  0  0  0
  2  9  1  0  0  0  0
  3  5  1  0  0  0  0
  3  8  1  0  0  0  0
  4  6  1  0  0  0  0
  4 10  1  0  0  0  0
  5  6  1  0  0  0  0
  5 11  1  0  0  0  0
  7 12  1  0  0  0  0
  8 12  1  0  0  0  0
  9 13  1  0  0  0  0
 10 11  1  0  0  0  0
 13 15  1  0  0  0  0
M  END
> <PUBCHEM_COMPOUND_ID_TYPE>
0

> <PUBCHEM_TOTAL_CHARGE>
0

> <PUBCHEM_SUBSTANCE_ID>
310939013

> <PUBCHEM_SUBSTANCE_VERSION>
1

> <PUBCHEM_EXT_DATASOURCE_NAME>
4488

> <PUBCHEM_EXT_DATASOURCE_REGID>
SCHEMBL16116932

> <PUBCHEM_SUBSTANCE_COMMENT>
InChI=1S/C14H25N/c1-3-7-13-8-4-9-14(13,15-2)12-6-5-11(13)10-12/h11-12,15H,3-10H2,1-2H3
InChIKey=LXANAMISHNUHJI-UHFFFAOYSA-N

> <PUBCHEM_SUBSTANCE_SYNONYM>
SCHEMBL16116932

> <PUBCHEM_XREF_EXT_ID>
SCHEMBL16116932

> <PUBCHEM_EXT_DATASOURCE_URL>
https://www.surechembl.org/

> <PUBCHEM_EXT_SUBSTANCE_URL>
https://www.surechembl.org/chemical/SCHEMBL16116932

> <PUBCHEM_CID_ASSOCIATIONS>
71566381  1

> <PUBCHEM_COORDINATE_TYPE>
1
3

$$$$
