310931182
  -OEChem-07211613022D

 33 35  0     1  0  0  0  0  0999 V2000
    0.3382   -2.0293    0.0000 F   0  0  0  0  0  0  0  0  0  0  0  0
    0.3382   -3.4572    0.0000 F   0  0  0  0  0  0  0  0  0  0  0  0
    1.1273   -2.0293    0.0000 F   0  0  0  0  0  0  0  0  0  0  0  0
    4.2088   -1.4280    0.0000 O   0  0  0  0  0  0  0  0  0  0  0  0
    0.7140   -5.1858    0.0000 O   0  0  0  0  0  0  0  0  0  0  0  0
    4.9604   -1.9165    0.0000 O   0  0  0  0  0  0  0  0  0  0  0  0
    5.6743   -3.1566    0.0000 O   0  0  0  0  0  0  0  0  0  0  0  0
    2.8935   -1.4280    0.0000 N   0  0  0  0  0  0  0  0  0  0  0  0
    3.1566   -0.6764    0.0000 N   0  0  0  0  0  0  0  0  0  0  0  0
    2.1419   -4.3591    0.0000 C   0  0  0  0  0  0  0  0  0  0  0  0
    2.8560   -3.1566    0.0000 C   0  0  0  0  0  0  0  0  0  0  0  0
    2.1419   -5.1858    0.0000 C   0  0  0  0  0  0  0  0  0  0  0  0
    1.4280   -3.1566    0.0000 C   0  0  0  0  0  0  0  0  0  0  0  0
    3.5699   -2.7432    0.0000 C   0  0  3  0  0  0  0  0  0  0  0  0
    2.8560   -3.9457    0.0000 C   0  0  0  0  0  0  0  0  0  0  0  0
    1.4280   -3.9457    0.0000 C   0  0  0  0  0  0  0  0  0  0  0  0
    2.1419   -2.7432    0.0000 C   0  0  0  0  0  0  0  0  0  0  0  0
    0.7140   -2.7432    0.0000 C   0  0  0  0  0  0  0  0  0  0  0  0
    3.5699   -1.9165    0.0000 C   0  0  0  0  0  0  0  0  0  0  0  0
    1.4280   -5.5992    0.0000 C   0  0  0  0  0  0  0  0  0  0  0  0
    2.8560   -5.5992    0.0000 C   0  0  0  0  0  0  0  0  0  0  0  0
    2.8560   -6.3883    0.0000 C   0  0  0  0  0  0  0  0  0  0  0  0
    3.5699   -6.8017    0.0000 C   0  0  0  0  0  0  0  0  0  0  0  0
    4.2463   -3.1566    0.0000 C   0  0  0  0  0  0  0  0  0  0  0  0
    1.4280   -6.3883    0.0000 C   0  0  0  0  0  0  0  0  0  0  0  0
    2.1419   -6.8017    0.0000 C   0  0  0  0  0  0  0  0  0  0  0  0
    3.9833   -0.6764    0.0000 C   0  0  0  0  0  0  0  0  0  0  0  0
    4.9604   -2.7432    0.0000 C   0  0  0  0  0  0  0  0  0  0  0  0
    3.1566   -7.5157    0.0000 C   0  0  0  0  0  0  0  0  0  0  0  0
    4.2463   -7.1774    0.0000 C   0  0  0  0  0  0  0  0  0  0  0  0
    3.9457   -6.0877    0.0000 C   0  0  0  0  0  0  0  0  0  0  0  0
    4.4342    0.0000    0.0000 C   0  0  0  0  0  0  0  0  0  0  0  0
    0.0000   -5.5992    0.0000 C   0  0  0  0  0  0  0  0  0  0  0  0
  1 18  1  0  0  0  0
  2 18  1  0  0  0  0
  3 18  1  0  0  0  0
  4 19  1  0  0  0  0
  4 27  1  0  0  0  0
  5 20  1  0  0  0  0
  5 33  1  0  0  0  0
  6 28  2  0  0  0  0
  7 28  1  0  0  0  0
  8  9  1  0  0  0  0
  8 19  2  0  0  0  0
  9 27  2  0  0  0  0
 10 12  1  0  0  0  0
 10 15  2  0  0  0  0
 10 16  1  0  0  0  0
 11 14  1  0  0  0  0
 11 15  1  0  0  0  0
 11 17  2  0  0  0  0
 12 20  2  0  0  0  0
 12 21  1  0  0  0  0
 13 16  2  0  0  0  0
 13 17  1  0  0  0  0
 13 18  1  0  0  0  0
 14 19  1  0  0  0  0
 14 24  1  0  0  0  0
 20 25  1  0  0  0  0
 21 22  2  0  0  0  0
 22 23  1  0  0  0  0
 22 26  1  0  0  0  0
 23 29  1  0  0  0  0
 23 30  1  0  0  0  0
 23 31  1  0  0  0  0
 24 28  1  0  0  0  0
 25 26  2  0  0  0  0
 27 32  1  0  0  0  0
M  END
> <PUBCHEM_COMPOUND_ID_TYPE>
0

> <PUBCHEM_TOTAL_CHARGE>
0

> <PUBCHEM_SUBSTANCE_ID>
310931182

> <PUBCHEM_SUBSTANCE_VERSION>
1

> <PUBCHEM_EXT_DATASOURCE_NAME>
4488

> <PUBCHEM_EXT_DATASOURCE_REGID>
SCHEMBL16108491

> <PUBCHEM_SUBSTANCE_COMMENT>
InChI=1S/C24H25F3N2O4/c1-13-28-29-22(33-13)19(12-21(30)31)15-8-14(9-17(10-15)24(25,26)27)18-11-16(23(2,3)4)6-7-20(18)32-5/h6-11,19H,12H2,1-5H3,(H,30,31)
InChIKey=BWOLWMZNSLBIOP-UHFFFAOYSA-N

> <PUBCHEM_SUBSTANCE_SYNONYM>
SCHEMBL16108491

> <PUBCHEM_XREF_EXT_ID>
SCHEMBL16108491

> <PUBCHEM_EXT_DATASOURCE_URL>
https://www.surechembl.org/

> <PUBCHEM_EXT_SUBSTANCE_URL>
https://www.surechembl.org/chemical/SCHEMBL16108491

> <PUBCHEM_CID_ASSOCIATIONS>
86281945  1

> <PUBCHEM_COORDINATE_TYPE>
1
3

$$$$
