310939719
  -OEChem-07211613022D

 20 20  0     1  0  0  0  0  0999 V2000
    0.1403    1.7065    0.0000 F   0  0  0  0  0  0  0  0  0  0  0  0
    1.7903    1.7065    0.0000 F   0  0  0  0  0  0  0  0  0  0  0  0
   -1.0972    0.9920    0.0000 F   0  0  0  0  0  0  0  0  0  0  0  0
   -0.2722    0.1670    0.0000 F   0  0  0  0  0  0  0  0  0  0  0  0
   -1.9222    0.9920    0.0000 F   0  0  0  0  0  0  0  0  0  0  0  0
   -1.0972    0.1670    0.0000 F   0  0  0  0  0  0  0  0  0  0  0  0
    0.6633   -1.4045    0.0000 F   0  0  0  0  0  0  0  0  0  0  0  0
    1.7903   -1.7065    0.0000 F   0  0  0  0  0  0  0  0  0  0  0  0
    2.0923   -0.5795    0.0000 F   0  0  0  0  0  0  0  0  0  0  0  0
    0.2979    0.2074    0.0000 O   0  0  0  0  0  0  0  0  0  0  0  0
    1.6328    0.2074    0.0000 O   0  0  0  0  0  0  0  0  0  0  0  0
    0.5528    0.9920    0.0000 C   0  0  3  0  0  0  0  0  0  0  0  0
    1.3778    0.9920    0.0000 C   0  0  3  0  0  0  0  0  0  0  0  0
   -0.2722    0.9920    0.0000 C   0  0  0  0  0  0  0  0  0  0  0  0
    0.9653   -0.2775    0.0000 C   0  0  3  0  0  0  0  0  0  0  0  0
   -1.0972    0.9920    0.0000 C   0  0  0  0  0  0  0  0  0  0  0  0
    1.3778   -0.9920    0.0000 C   0  0  0  0  0  0  0  0  0  0  0  0
    2.3575    0.9920    0.0000 C   0  0  0  0  0  0  0  0  0  0  0  0
    0.5528   -0.9920    0.0000 C   0  0  0  0  0  0  0  0  0  0  0  0
   -1.9222    0.9920    0.0000 C   0  0  0  0  0  0  0  0  0  0  0  0
  1 12  1  0  0  0  0
  2 13  1  0  0  0  0
  3 14  1  0  0  0  0
  4 14  1  0  0  0  0
  5 16  1  0  0  0  0
  6 16  1  0  0  0  0
  7 17  1  0  0  0  0
  8 17  1  0  0  0  0
  9 17  1  0  0  0  0
 10 12  1  0  0  0  0
 10 15  1  0  0  0  0
 11 13  1  0  0  0  0
 11 15  1  0  0  0  0
 12 13  1  0  0  0  0
 12 14  1  0  0  0  0
 13 18  1  0  0  0  0
 14 16  1  0  0  0  0
 15 17  1  0  0  0  0
 15 19  1  0  0  0  0
 16 20  1  0  0  0  0
M  END
> <PUBCHEM_COMPOUND_ID_TYPE>
0

> <PUBCHEM_TOTAL_CHARGE>
0

> <PUBCHEM_SUBSTANCE_ID>
310939719

> <PUBCHEM_SUBSTANCE_VERSION>
1

> <PUBCHEM_EXT_DATASOURCE_NAME>
4488

> <PUBCHEM_EXT_DATASOURCE_REGID>
SCHEMBL16117649

> <PUBCHEM_SUBSTANCE_COMMENT>
InChI=1S/C9H9F9O2/c1-4(10,11)7(13,14)8(15)5(2,12)19-6(3,20-8)9(16,17)18/h1-3H3
InChIKey=ZHEMPWPZCSWOTM-UHFFFAOYSA-N

> <PUBCHEM_SUBSTANCE_SYNONYM>
SCHEMBL16117649

> <PUBCHEM_XREF_EXT_ID>
SCHEMBL16117649

> <PUBCHEM_EXT_DATASOURCE_URL>
https://www.surechembl.org/

> <PUBCHEM_EXT_SUBSTANCE_URL>
https://www.surechembl.org/chemical/SCHEMBL16117649

> <PUBCHEM_CID_ASSOCIATIONS>
76623523  1

> <PUBCHEM_COORDINATE_TYPE>
1
3

$$$$
