310928978
  -OEChem-07211613022D

 19 19  0     1  0  0  0  0  0999 V2000
    3.5107   -0.0000    0.0000 Na  0  3  0  0  0  0  0  0  0  0  0  0
   -1.6782    0.5475    0.0000 O   0  0  0  0  0  0  0  0  0  0  0  0
    2.7963    0.4125    0.0000 O   0  5  0  0  0  0  0  0  0  0  0  0
    2.0818   -0.8250    0.0000 O   0  0  0  0  0  0  0  0  0  0  0  0
    0.6529   -0.0000    0.0000 C   0  0  0  0  0  0  0  0  0  0  0  0
   -0.7761   -0.8250    0.0000 C   0  0  0  0  0  0  0  0  0  0  0  0
   -2.2050   -0.8250    0.0000 C   0  0  3  0  0  0  0  0  0  0  0  0
    1.3673    0.4125    0.0000 C   0  0  3  0  0  0  0  0  0  0  0  0
   -1.4906   -1.2375    0.0000 C   0  0  0  0  0  0  0  0  0  0  0  0
   -2.2913   -0.0045    0.0000 C   0  0  0  0  0  0  0  0  0  0  0  0
    0.6529   -0.8250    0.0000 C   0  0  0  0  0  0  0  0  0  0  0  0
   -0.0616    0.4125    0.0000 C   0  0  0  0  0  0  0  0  0  0  0  0
   -0.0616   -1.2375    0.0000 C   0  0  0  0  0  0  0  0  0  0  0  0
   -0.7761   -0.0000    0.0000 C   0  0  0  0  0  0  0  0  0  0  0  0
    2.0818   -0.0000    0.0000 C   0  0  0  0  0  0  0  0  0  0  0  0
   -2.9587   -1.1606    0.0000 C   0  0  0  0  0  0  0  0  0  0  0  0
   -3.0982    0.1670    0.0000 C   0  0  0  0  0  0  0  0  0  0  0  0
   -3.5107   -0.5475    0.0000 C   0  0  0  0  0  0  0  0  0  0  0  0
    1.3673    1.2375    0.0000 C   0  0  0  0  0  0  0  0  0  0  0  0
  2 10  2  0  0  0  0
  3 15  1  0  0  0  0
  4 15  2  0  0  0  0
  5  8  1  0  0  0  0
  5 11  2  0  0  0  0
  5 12  1  0  0  0  0
  6  9  1  0  0  0  0
  6 13  2  0  0  0  0
  6 14  1  0  0  0  0
  7  9  1  0  0  0  0
  7 10  1  0  0  0  0
  7 16  1  0  0  0  0
  8 15  1  0  0  0  0
  8 19  1  0  0  0  0
 10 17  1  0  0  0  0
 11 13  1  0  0  0  0
 12 14  2  0  0  0  0
 16 18  1  0  0  0  0
 17 18  1  0  0  0  0
M  CHG  2   1   1   3  -1
M  END
> <PUBCHEM_COMPOUND_ID_TYPE>
0

> <PUBCHEM_TOTAL_CHARGE>
0

> <PUBCHEM_SUBSTANCE_ID>
310928978

> <PUBCHEM_SUBSTANCE_VERSION>
1

> <PUBCHEM_EXT_DATASOURCE_NAME>
11752

> <PUBCHEM_EXT_DATASOURCE_REGID>
BD22681

> <PUBCHEM_SUBSTANCE_SYNONYM>
80382-23-6
Sodium 2-(4-((2-oxocyclopentyl)methyl)phenyl)propanoate

> <PUBCHEM_GENERIC_REGISTRY_NAME>
80382-23-6

> <PUBCHEM_XREF_EXT_ID>
BD22681

> <PUBCHEM_EXT_DATASOURCE_URL>
http://www.bidepharmatech.com/en/index.html

> <PUBCHEM_EXT_SUBSTANCE_URL>
http://www.bidepharmatech.com/en/goodsview_goodscode_BD22681.html

> <PUBCHEM_CID_ASSOCIATIONS>
23663407  1
3965  2
5360545  2

> <PUBCHEM_COORDINATE_TYPE>
1
3

$$$$
