310934621
  -OEChem-07211613022D

 24 26  0     1  0  0  0  0  0999 V2000
    5.4777   -0.6528    0.0000 F   0  0  0  0  0  0  0  0  0  0  0  0
    0.0000   -5.6763    0.0000 F   0  0  0  0  0  0  0  0  0  0  0  0
    1.1637   -3.0652    0.0000 O   0  0  0  0  0  0  0  0  0  0  0  0
    4.3140   -2.8949    0.0000 O   0  0  0  0  0  0  0  0  0  0  0  0
    4.3140   -1.4758    0.0000 O   0  0  0  0  0  0  0  0  0  0  0  0
    2.0718   -5.0519    0.0000 N   0  0  0  0  0  0  0  0  0  0  0  0
    3.0652   -2.1854    0.0000 C   0  0  3  0  0  0  0  0  0  0  0  0
    3.4625   -1.4475    0.0000 C   0  0  0  0  0  0  0  0  0  0  0  0
    2.6111   -2.8665    0.0000 C   0  0  0  0  0  0  0  0  0  0  0  0
    3.8883   -2.1854    0.0000 C   0  0  0  0  0  0  0  0  0  0  0  0
    2.6111   -1.5326    0.0000 C   0  0  0  0  0  0  0  0  0  0  0  0
    1.8164   -2.6111    0.0000 C   0  0  3  0  0  0  0  0  0  0  0  0
    4.4275   -1.5894    0.0000 C   0  0  0  0  0  0  0  0  0  0  0  0
    1.8164   -1.7880    0.0000 C   0  0  0  0  0  0  0  0  0  0  0  0
    3.0084   -0.7663    0.0000 C   0  0  0  0  0  0  0  0  0  0  0  0
    4.6546   -0.6812    0.0000 C   0  0  0  0  0  0  0  0  0  0  0  0
    1.2488   -3.8883    0.0000 C   0  0  0  0  0  0  0  0  0  0  0  0
    3.3774   -0.0284    0.0000 C   0  0  0  0  0  0  0  0  0  0  0  0
    4.2005    0.0000    0.0000 C   0  0  0  0  0  0  0  0  0  0  0  0
    4.7113   -2.1002    0.0000 C   0  0  0  0  0  0  0  0  0  0  0  0
    0.5960   -4.3991    0.0000 C   0  0  0  0  0  0  0  0  0  0  0  0
    1.9867   -4.2572    0.0000 C   0  0  0  0  0  0  0  0  0  0  0  0
    0.6812   -5.1938    0.0000 C   0  0  0  0  0  0  0  0  0  0  0  0
    1.4191   -5.5628    0.0000 C   0  0  0  0  0  0  0  0  0  0  0  0
  1 16  1  0  0  0  0
  2 23  1  0  0  0  0
  3 12  1  0  0  0  0
  3 17  1  0  0  0  0
  4 10  2  0  0  0  0
  5 10  1  0  0  0  0
  6 22  1  0  0  0  0
  6 24  2  0  0  0  0
  7  8  1  0  0  0  0
  7  9  1  0  0  0  0
  7 10  1  0  0  0  0
  7 11  1  0  0  0  0
  8 13  1  0  0  0  0
  8 15  2  0  0  0  0
  9 12  1  0  0  0  0
 11 14  1  0  0  0  0
 12 14  1  0  0  0  0
 13 16  2  0  0  0  0
 13 20  1  0  0  0  0
 15 18  1  0  0  0  0
 16 19  1  0  0  0  0
 17 21  1  0  0  0  0
 17 22  2  0  0  0  0
 18 19  2  0  0  0  0
 21 23  2  0  0  0  0
 23 24  1  0  0  0  0
M  END
> <PUBCHEM_COMPOUND_ID_TYPE>
0

> <PUBCHEM_TOTAL_CHARGE>
0

> <PUBCHEM_SUBSTANCE_ID>
310934621

> <PUBCHEM_SUBSTANCE_VERSION>
1

> <PUBCHEM_EXT_DATASOURCE_NAME>
4488

> <PUBCHEM_EXT_DATASOURCE_REGID>
SCHEMBL16112117

> <PUBCHEM_SUBSTANCE_COMMENT>
InChI=1S/C18H17F2NO3/c1-11-15(3-2-4-16(11)20)18(17(22)23)6-5-13(8-18)24-14-7-12(19)9-21-10-14/h2-4,7,9-10,13H,5-6,8H2,1H3,(H,22,23)
InChIKey=WUOHOGMFXJOVRI-UHFFFAOYSA-N

> <PUBCHEM_SUBSTANCE_SYNONYM>
SCHEMBL16112117

> <PUBCHEM_XREF_EXT_ID>
SCHEMBL16112117

> <PUBCHEM_EXT_DATASOURCE_URL>
https://www.surechembl.org/

> <PUBCHEM_EXT_SUBSTANCE_URL>
https://www.surechembl.org/chemical/SCHEMBL16112117

> <PUBCHEM_CID_ASSOCIATIONS>
117602795  1

> <PUBCHEM_COORDINATE_TYPE>
1
3

$$$$
