310931342
  -OEChem-07211613022D

 17 18  0     1  0  0  0  0  0999 V2000
    0.0000   -3.5491    0.0000 Br  0  0  0  0  0  0  0  0  0  0  0  0
    3.2926   -2.1166    0.0000 N   0  0  0  0  0  0  0  0  0  0  0  0
    3.3140   -3.5491    0.0000 N   0  0  0  0  0  0  0  0  0  0  0  0
    2.0525   -2.8436    0.0000 C   0  0  0  0  0  0  0  0  0  0  0  0
    2.4587   -2.1380    0.0000 C   0  0  3  0  0  0  0  0  0  0  0  0
    2.4802   -3.5491    0.0000 C   0  0  0  0  0  0  0  0  0  0  0  0
    2.0525   -1.4111    0.0000 C   0  0  0  0  0  0  0  0  0  0  0  0
    1.2400   -2.8436    0.0000 C   0  0  0  0  0  0  0  0  0  0  0  0
    0.8339   -3.5491    0.0000 C   0  0  0  0  0  0  0  0  0  0  0  0
    2.0525   -4.2761    0.0000 C   0  0  0  0  0  0  0  0  0  0  0  0
    1.2400   -4.2761    0.0000 C   0  0  0  0  0  0  0  0  0  0  0  0
    1.1973   -1.4111    0.0000 C   0  0  0  0  0  0  0  0  0  0  0  0
    2.4374   -0.7055    0.0000 C   0  0  0  0  0  0  0  0  0  0  0  0
    0.7911   -0.7270    0.0000 C   0  0  0  0  0  0  0  0  0  0  0  0
    2.0097    0.0000    0.0000 C   0  0  0  0  0  0  0  0  0  0  0  0
    1.1973    0.0000    0.0000 C   0  0  0  0  0  0  0  0  0  0  0  0
    3.6988   -1.4111    0.0000 C   0  0  0  0  0  0  0  0  0  0  0  0
  1  9  1  0  0  0  0
  2  5  1  0  0  0  0
  2 17  1  0  0  0  0
  3  6  1  0  0  0  0
  4  5  1  0  0  0  0
  4  6  1  0  0  0  0
  4  8  2  0  0  0  0
  5  7  1  0  0  0  0
  6 10  2  0  0  0  0
  7 12  2  0  0  0  0
  7 13  1  0  0  0  0
  8  9  1  0  0  0  0
  9 11  2  0  0  0  0
 10 11  1  0  0  0  0
 12 14  1  0  0  0  0
 13 15  2  0  0  0  0
 14 16  2  0  0  0  0
 15 16  1  0  0  0  0
M  END
> <PUBCHEM_COMPOUND_ID_TYPE>
0

> <PUBCHEM_TOTAL_CHARGE>
0

> <PUBCHEM_SUBSTANCE_ID>
310931342

> <PUBCHEM_SUBSTANCE_VERSION>
1

> <PUBCHEM_EXT_DATASOURCE_NAME>
4488

> <PUBCHEM_EXT_DATASOURCE_REGID>
SCHEMBL16108662

> <PUBCHEM_SUBSTANCE_COMMENT>
InChI=1S/C14H15BrN2/c1-17-14(10-5-3-2-4-6-10)12-9-11(15)7-8-13(12)16/h2-9,14,17H,16H2,1H3
InChIKey=WDXBQFLBMYKXSF-UHFFFAOYSA-N

> <PUBCHEM_SUBSTANCE_SYNONYM>
SCHEMBL16108662

> <PUBCHEM_XREF_EXT_ID>
SCHEMBL16108662

> <PUBCHEM_EXT_DATASOURCE_URL>
https://www.surechembl.org/

> <PUBCHEM_EXT_SUBSTANCE_URL>
https://www.surechembl.org/chemical/SCHEMBL16108662

> <PUBCHEM_CID_ASSOCIATIONS>
117600148  1

> <PUBCHEM_COORDINATE_TYPE>
1
3

$$$$
