310931444
  -OEChem-07211613022D

 21 22  0     1  0  0  0  0  0999 V2000
    0.8490   -1.6625    0.0000 O   0  0  0  0  0  0  0  0  0  0  0  0
    2.2638   -1.6625    0.0000 O   0  0  0  0  0  0  0  0  0  0  0  0
    3.7141   -4.1385    0.0000 O   0  0  0  0  0  0  0  0  0  0  0  0
    1.5563   -2.9005    0.0000 N   0  0  0  0  0  0  0  0  0  0  0  0
    1.5563   -4.5630    0.0000 C   0  0  3  0  0  0  0  0  0  0  0  0
    2.2991   -4.1385    0.0000 C   0  0  3  0  0  0  0  0  0  0  0  0
    1.5563   -5.4119    0.0000 C   0  0  0  0  0  0  0  0  0  0  0  0
    2.2991   -3.3249    0.0000 C   0  0  0  0  0  0  0  0  0  0  0  0
    1.5563   -2.0869    0.0000 C   0  0  0  0  0  0  0  0  0  0  0  0
    0.8490   -4.1385    0.0000 C   0  0  0  0  0  0  0  0  0  0  0  0
    0.8490   -3.3249    0.0000 C   0  0  0  0  0  0  0  0  0  0  0  0
    0.8490   -0.8490    0.0000 C   0  0  0  0  0  0  0  0  0  0  0  0
    3.0066   -4.5630    0.0000 C   0  0  0  0  0  0  0  0  0  0  0  0
    2.2638   -5.8363    0.0000 C   0  0  0  0  0  0  0  0  0  0  0  0
    0.8490   -5.8363    0.0000 C   0  0  0  0  0  0  0  0  0  0  0  0
    2.2638   -6.6499    0.0000 C   0  0  0  0  0  0  0  0  0  0  0  0
    0.8490   -6.6499    0.0000 C   0  0  0  0  0  0  0  0  0  0  0  0
    1.5563   -7.0743    0.0000 C   0  0  0  0  0  0  0  0  0  0  0  0
    1.6978   -0.8490    0.0000 C   0  0  0  0  0  0  0  0  0  0  0  0
    0.8490    0.0000    0.0000 C   0  0  0  0  0  0  0  0  0  0  0  0
    0.0000   -0.8490    0.0000 C   0  0  0  0  0  0  0  0  0  0  0  0
  1  9  1  0  0  0  0
  1 12  1  0  0  0  0
  2  9  2  0  0  0  0
  3 13  1  0  0  0  0
  4  8  1  0  0  0  0
  4  9  1  0  0  0  0
  4 11  1  0  0  0  0
  5  6  1  0  0  0  0
  5  7  1  0  0  0  0
  5 10  1  0  0  0  0
  6  8  1  0  0  0  0
  6 13  1  0  0  0  0
  7 14  2  0  0  0  0
  7 15  1  0  0  0  0
 10 11  1  0  0  0  0
 12 19  1  0  0  0  0
 12 20  1  0  0  0  0
 12 21  1  0  0  0  0
 14 16  1  0  0  0  0
 15 17  2  0  0  0  0
 16 18  2  0  0  0  0
 17 18  1  0  0  0  0
M  END
> <PUBCHEM_COMPOUND_ID_TYPE>
0

> <PUBCHEM_TOTAL_CHARGE>
0

> <PUBCHEM_SUBSTANCE_ID>
310931444

> <PUBCHEM_SUBSTANCE_VERSION>
1

> <PUBCHEM_EXT_DATASOURCE_NAME>
4488

> <PUBCHEM_EXT_DATASOURCE_REGID>
SCHEMBL16108769

> <PUBCHEM_SUBSTANCE_COMMENT>
InChI=1S/C17H25NO3/c1-17(2,3)21-16(20)18-10-9-15(14(11-18)12-19)13-7-5-4-6-8-13/h4-8,14-15,19H,9-12H2,1-3H3
InChIKey=AOXRDUIKJOVTTB-UHFFFAOYSA-N

> <PUBCHEM_SUBSTANCE_SYNONYM>
SCHEMBL16108769

> <PUBCHEM_XREF_EXT_ID>
SCHEMBL16108769

> <PUBCHEM_EXT_DATASOURCE_URL>
https://www.surechembl.org/

> <PUBCHEM_EXT_SUBSTANCE_URL>
https://www.surechembl.org/chemical/SCHEMBL16108769

> <PUBCHEM_CID_ASSOCIATIONS>
77608426  1

> <PUBCHEM_COORDINATE_TYPE>
1
3

$$$$
