310942011
  -OEChem-07211613022D

 23 25  0     1  0  0  0  0  0999 V2000
   -1.9314    1.0184    0.0000 O   0  0  0  0  0  0  0  0  0  0  0  0
   -0.1194   -1.7348    0.0000 N   0  0  0  0  0  0  0  0  0  0  0  0
    0.6391   -1.3977    0.0000 N   0  0  0  0  0  0  0  0  0  0  0  0
    1.9736   -0.2880    0.0000 N   0  0  3  0  0  0  0  0  0  0  0  0
    3.5749   -0.7094    0.0000 N   0  0  0  0  0  0  0  0  0  0  0  0
   -0.2739   -0.4144    0.0000 C   0  0  0  0  0  0  0  0  0  0  0  0
   -0.6672   -1.1308    0.0000 C   0  0  0  0  0  0  0  0  0  0  0  0
    0.5549   -0.5829    0.0000 C   0  0  0  0  0  0  0  0  0  0  0  0
   -0.6672    0.2880    0.0000 C   0  0  0  0  0  0  0  0  0  0  0  0
   -1.5100    0.3020    0.0000 C   0  0  0  0  0  0  0  0  0  0  0  0
   -1.5100   -1.1168    0.0000 C   0  0  0  0  0  0  0  0  0  0  0  0
   -1.9034   -0.4144    0.0000 C   0  0  0  0  0  0  0  0  0  0  0  0
    1.1729   -0.0351    0.0000 C   0  0  0  0  0  0  0  0  0  0  0  0
   -2.7743    1.0184    0.0000 C   0  0  0  0  0  0  0  0  0  0  0  0
   -3.1817    1.7348    0.0000 C   0  0  0  0  0  0  0  0  0  0  0  0
   -3.1817    0.3160    0.0000 C   0  0  0  0  0  0  0  0  0  0  0  0
    2.5636    0.3020    0.0000 C   0  0  0  0  0  0  0  0  0  0  0  0
    2.1562   -1.1168    0.0000 C   0  0  0  0  0  0  0  0  0  0  0  0
   -4.0104    1.7348    0.0000 C   0  0  0  0  0  0  0  0  0  0  0  0
   -4.0104    0.3160    0.0000 C   0  0  0  0  0  0  0  0  0  0  0  0
   -4.4037    1.0184    0.0000 C   0  0  0  0  0  0  0  0  0  0  0  0
    3.3642    0.0772    0.0000 C   0  0  0  0  0  0  0  0  0  0  0  0
    4.4037   -0.9341    0.0000 C   0  0  0  0  0  0  0  0  0  0  0  0
  1 10  1  0  0  0  0
  1 14  1  0  0  0  0
  2  3  1  0  0  0  0
  2  7  1  0  0  0  0
  3  8  2  0  0  0  0
  4 13  1  0  0  0  0
  4 17  1  0  0  0  0
  4 18  1  0  0  0  0
  5 22  1  0  0  0  0
  5 23  1  0  0  0  0
  6  7  1  0  0  0  0
  6  8  1  0  0  0  0
  6  9  2  0  0  0  0
  7 11  2  0  0  0  0
  8 13  1  0  0  0  0
  9 10  1  0  0  0  0
 10 12  2  0  0  0  0
 11 12  1  0  0  0  0
 14 15  2  0  0  0  0
 14 16  1  0  0  0  0
 15 19  1  0  0  0  0
 16 20  2  0  0  0  0
 17 22  1  0  0  0  0
 19 21  2  0  0  0  0
 20 21  1  0  0  0  0
M  END
> <PUBCHEM_COMPOUND_ID_TYPE>
0

> <PUBCHEM_TOTAL_CHARGE>
0

> <PUBCHEM_SUBSTANCE_ID>
310942011

> <PUBCHEM_SUBSTANCE_VERSION>
1

> <PUBCHEM_EXT_DATASOURCE_NAME>
4488

> <PUBCHEM_EXT_DATASOURCE_REGID>
SCHEMBL16120045

> <PUBCHEM_SUBSTANCE_COMMENT>
InChI=1S/C18H22N4O/c1-19-10-11-22(2)13-18-16-12-15(8-9-17(16)20-21-18)23-14-6-4-3-5-7-14/h3-9,12,19H,10-11,13H2,1-2H3,(H,20,21)
InChIKey=KJRSLVAGTZWWPC-UHFFFAOYSA-N

> <PUBCHEM_SUBSTANCE_SYNONYM>
SCHEMBL16120045

> <PUBCHEM_XREF_EXT_ID>
SCHEMBL16120045

> <PUBCHEM_EXT_DATASOURCE_URL>
https://www.surechembl.org/

> <PUBCHEM_EXT_SUBSTANCE_URL>
https://www.surechembl.org/chemical/SCHEMBL16120045

> <PUBCHEM_CID_ASSOCIATIONS>
86301916  1

> <PUBCHEM_COORDINATE_TYPE>
1
3

$$$$
