310934081
  -OEChem-07211613022D

  9  7  0     1  0  0  0  0  0999 V2000
    0.0000   -1.2438    0.0000 Cl  0  0  0  0  0  0  0  0  0  0  0  0
    1.6499   -2.4876    0.0000 F   0  0  0  0  0  0  0  0  0  0  0  0
    3.0968   -2.5003    0.0000 F   0  0  0  0  0  0  0  0  0  0  0  0
    3.0968   -1.6626    0.0000 F   0  0  0  0  0  0  0  0  0  0  0  0
    2.3734   -1.2438    0.0000 O   0  0  0  0  0  0  0  0  0  0  0  0
    3.0968    0.0000    0.0000 N   0  0  0  0  0  0  0  0  0  0  0  0
    2.3734   -2.0688    0.0000 C   0  0  0  0  0  0  0  0  0  0  0  0
    3.0968   -0.8249    0.0000 C   0  0  3  0  0  0  0  0  0  0  0  0
    3.8076   -1.2438    0.0000 C   0  0  0  0  0  0  0  0  0  0  0  0
  2  7  1  0  0  0  0
  3  7  1  0  0  0  0
  4  7  1  0  0  0  0
  5  7  1  0  0  0  0
  5  8  1  0  0  0  0
  6  8  1  0  0  0  0
  8  9  1  0  0  0  0
M  END
> <PUBCHEM_COMPOUND_ID_TYPE>
0

> <PUBCHEM_TOTAL_CHARGE>
0

> <PUBCHEM_SUBSTANCE_ID>
310934081

> <PUBCHEM_SUBSTANCE_VERSION>
1

> <PUBCHEM_EXT_DATASOURCE_NAME>
4488

> <PUBCHEM_EXT_DATASOURCE_REGID>
SCHEMBL16111527

> <PUBCHEM_SUBSTANCE_COMMENT>
InChI=1S/C3H6F3NO.ClH/c1-2(7)8-3(4,5)6;/h2H,7H2,1H3;1H
InChIKey=BKLFUGZLVLEPNI-UHFFFAOYSA-N

> <PUBCHEM_SUBSTANCE_SYNONYM>
SCHEMBL16111527

> <PUBCHEM_XREF_EXT_ID>
SCHEMBL16111527

> <PUBCHEM_EXT_DATASOURCE_URL>
https://www.surechembl.org/

> <PUBCHEM_EXT_SUBSTANCE_URL>
https://www.surechembl.org/chemical/SCHEMBL16111527

> <PUBCHEM_CID_ASSOCIATIONS>
117602367  1
313  2
117601877  2

> <PUBCHEM_COORDINATE_TYPE>
1
3

$$$$
