310949362
  -OEChem-07211613022D

 29 31  0     1  0  0  0  0  0999 V2000
   -1.2798    1.4352    0.0000 F   0  0  0  0  0  0  0  0  0  0  0  0
   -1.0561    2.2428    0.0000 F   0  0  0  0  0  0  0  0  0  0  0  0
   -0.2609    2.4541    0.0000 F   0  0  0  0  0  0  0  0  0  0  0  0
    2.2863    0.9133    0.0000 O   0  0  0  0  0  0  0  0  0  0  0  0
    0.7579   -1.7830    0.0000 N   0  0  0  0  0  0  0  0  0  0  0  0
    0.3976   -2.4541    0.0000 N   0  0  0  0  0  0  0  0  0  0  0  0
   -1.9508   -1.3730    0.0000 N   0  0  3  0  0  0  0  0  0  0  0  0
   -4.1004   -0.9630    0.0000 N   0  0  0  0  0  0  0  0  0  0  0  0
    0.4846   -0.3169    0.0000 C   0  0  0  0  0  0  0  0  0  0  0  0
    0.2609   -1.1245    0.0000 C   0  0  0  0  0  0  0  0  0  0  0  0
    1.2798   -0.0932    0.0000 C   0  0  0  0  0  0  0  0  0  0  0  0
    0.1242    1.0748    0.0000 C   0  0  0  0  0  0  0  0  0  0  0  0
    1.5035    0.7021    0.0000 C   0  0  0  0  0  0  0  0  0  0  0  0
   -0.0870    0.2672    0.0000 C   0  0  0  0  0  0  0  0  0  0  0  0
   -0.5219   -1.3730    0.0000 C   0  0  0  0  0  0  0  0  0  0  0  0
   -0.4846    1.6712    0.0000 C   0  0  0  0  0  0  0  0  0  0  0  0
    0.9071    1.2736    0.0000 C   0  0  0  0  0  0  0  0  0  0  0  0
   -0.5219   -2.1931    0.0000 C   0  0  0  0  0  0  0  0  0  0  0  0
   -1.2426   -0.9630    0.0000 C   0  0  0  0  0  0  0  0  0  0  0  0
    1.8762   -0.6896    0.0000 C   0  0  0  0  0  0  0  0  0  0  0  0
    2.8952    0.3293    0.0000 C   0  0  0  0  0  0  0  0  0  0  0  0
    3.6779    0.5405    0.0000 C   0  0  0  0  0  0  0  0  0  0  0  0
    4.1004    1.2488    0.0000 C   0  0  0  0  0  0  0  0  0  0  0  0
    4.3987    0.1305    0.0000 C   0  0  0  0  0  0  0  0  0  0  0  0
   -2.6839   -0.9630    0.0000 C   0  0  0  0  0  0  0  0  0  0  0  0
    4.8087    0.8387    0.0000 C   0  0  0  0  0  0  0  0  0  0  0  0
   -1.9384   -2.2056    0.0000 C   0  0  0  0  0  0  0  0  0  0  0  0
   -3.3797   -1.3730    0.0000 C   0  0  0  0  0  0  0  0  0  0  0  0
   -4.8087   -1.3855    0.0000 C   0  0  0  0  0  0  0  0  0  0  0  0
  1 16  1  0  0  0  0
  2 16  1  0  0  0  0
  3 16  1  0  0  0  0
  4 13  1  0  0  0  0
  4 21  1  0  0  0  0
  5  6  1  0  0  0  0
  5 10  2  0  0  0  0
  6 18  1  0  0  0  0
  7 19  1  0  0  0  0
  7 25  1  0  0  0  0
  7 27  1  0  0  0  0
  8 28  1  0  0  0  0
  8 29  1  0  0  0  0
  9 10  1  0  0  0  0
  9 11  2  0  0  0  0
  9 14  1  0  0  0  0
 10 15  1  0  0  0  0
 11 13  1  0  0  0  0
 11 20  1  0  0  0  0
 12 14  2  0  0  0  0
 12 16  1  0  0  0  0
 12 17  1  0  0  0  0
 13 17  2  0  0  0  0
 15 18  2  0  0  0  0
 15 19  1  0  0  0  0
 21 22  1  0  0  0  0
 22 23  1  0  0  0  0
 22 24  1  0  0  0  0
 23 26  1  0  0  0  0
 24 26  1  0  0  0  0
 25 28  1  0  0  0  0
M  END
> <PUBCHEM_COMPOUND_ID_TYPE>
0

> <PUBCHEM_TOTAL_CHARGE>
0

> <PUBCHEM_SUBSTANCE_ID>
310949362

> <PUBCHEM_SUBSTANCE_VERSION>
1

> <PUBCHEM_EXT_DATASOURCE_NAME>
4488

> <PUBCHEM_EXT_DATASOURCE_REGID>
SCHEMBL16127554

> <PUBCHEM_SUBSTANCE_COMMENT>
InChI=1S/C21H29F3N4O/c1-14-18(20-16(11-26-27-20)12-28(3)8-7-25-2)9-17(21(22,23)24)10-19(14)29-13-15-5-4-6-15/h9-11,15,25H,4-8,12-13H2,1-3H3,(H,26,27)
InChIKey=ZZCRFFDNQCUIDW-UHFFFAOYSA-N

> <PUBCHEM_SUBSTANCE_SYNONYM>
SCHEMBL16127554

> <PUBCHEM_XREF_EXT_ID>
SCHEMBL16127554

> <PUBCHEM_EXT_DATASOURCE_URL>
https://www.surechembl.org/

> <PUBCHEM_EXT_SUBSTANCE_URL>
https://www.surechembl.org/chemical/SCHEMBL16127554

> <PUBCHEM_CID_ASSOCIATIONS>
85473403  1

> <PUBCHEM_COORDINATE_TYPE>
1
3

$$$$
