310937346
  -OEChem-07211613022D

 32 36  0     1  0  0  0  0  0999 V2000
    0.7566   -0.8511    0.0000 F   0  0  0  0  0  0  0  0  0  0  0  0
    1.4816   -2.0805    0.0000 F   0  0  0  0  0  0  0  0  0  0  0  0
    1.4816   -0.4413    0.0000 F   0  0  0  0  0  0  0  0  0  0  0  0
    3.5620    0.0000    0.0000 O   0  0  0  0  0  0  0  0  0  0  0  0
    2.9000   -1.2294    0.0000 N   0  0  0  0  0  0  0  0  0  0  0  0
    5.1066   -2.3326    0.0000 N   0  0  0  0  0  0  0  0  0  0  0  0
    2.9000   -3.6881    0.0000 N   0  0  0  0  0  0  0  0  0  0  0  0
    5.5794   -1.6707    0.0000 N   0  0  0  0  0  0  0  0  0  0  0  0
    2.1435   -4.9490    0.0000 N   0  0  3  0  0  0  0  0  0  0  0  0
    0.7250   -4.9174    0.0000 N   0  0  0  0  0  0  0  0  0  0  0  0
    3.8772   -5.4533    0.0000 N   0  0  0  0  0  0  0  0  0  0  0  0
    2.9000   -2.0805    0.0000 C   0  0  0  0  0  0  0  0  0  0  0  0
    3.5935   -2.4903    0.0000 C   0  0  0  0  0  0  0  0  0  0  0  0
    4.3185   -2.0805    0.0000 C   0  0  0  0  0  0  0  0  0  0  0  0
    4.3185   -1.2294    0.0000 C   0  0  0  0  0  0  0  0  0  0  0  0
    3.5935   -0.8195    0.0000 C   0  0  0  0  0  0  0  0  0  0  0  0
    2.1750   -3.2783    0.0000 C   0  0  0  0  0  0  0  0  0  0  0  0
    2.1750   -2.4903    0.0000 C   0  0  0  0  0  0  0  0  0  0  0  0
    3.5935   -3.2783    0.0000 C   0  0  0  0  0  0  0  0  0  0  0  0
    1.4500   -3.6881    0.0000 C   0  0  0  0  0  0  0  0  0  0  0  0
    5.1066   -0.9772    0.0000 C   0  0  0  0  0  0  0  0  0  0  0  0
    2.1750   -0.8511    0.0000 C   0  0  0  0  0  0  0  0  0  0  0  0
    1.4185   -4.5077    0.0000 C   0  0  0  0  0  0  0  0  0  0  0  0
    1.4816   -1.2609    0.0000 C   0  0  0  0  0  0  0  0  0  0  0  0
    0.7250   -3.2783    0.0000 C   0  0  0  0  0  0  0  0  0  0  0  0
    0.0315   -3.6881    0.0000 C   0  0  0  0  0  0  0  0  0  0  0  0
    0.0000   -4.5077    0.0000 C   0  0  0  0  0  0  0  0  0  0  0  0
    2.8055   -4.4761    0.0000 C   0  0  0  0  0  0  0  0  0  0  0  0
    2.0490   -5.7370    0.0000 C   0  0  0  0  0  0  0  0  0  0  0  0
    3.5935   -4.6968    0.0000 C   0  0  0  0  0  0  0  0  0  0  0  0
    2.6479   -6.3044    0.0000 C   0  0  0  0  0  0  0  0  0  0  0  0
    3.4674   -6.1783    0.0000 C   0  0  0  0  0  0  0  0  0  0  0  0
  1 24  1  0  0  0  0
  2 24  1  0  0  0  0
  3 24  1  0  0  0  0
  4 16  2  0  0  0  0
  5 12  1  0  0  0  0
  5 16  1  0  0  0  0
  5 22  1  0  0  0  0
  6  8  1  0  0  0  0
  6 14  1  0  0  0  0
  7 17  2  0  0  0  0
  7 19  1  0  0  0  0
  8 21  2  0  0  0  0
  9 23  1  0  0  0  0
  9 28  1  0  0  0  0
  9 29  1  0  0  0  0
 10 23  1  0  0  0  0
 10 27  2  0  0  0  0
 11 30  1  0  0  0  0
 11 32  1  0  0  0  0
 12 13  1  0  0  0  0
 12 18  2  0  0  0  0
 13 14  1  0  0  0  0
 13 19  2  0  0  0  0
 14 15  2  0  0  0  0
 15 16  1  0  0  0  0
 15 21  1  0  0  0  0
 17 18  1  0  0  0  0
 17 20  1  0  0  0  0
 20 23  2  0  0  0  0
 20 25  1  0  0  0  0
 22 24  1  0  0  0  0
 25 26  2  0  0  0  0
 26 27  1  0  0  0  0
 28 30  1  0  0  0  0
 29 31  1  0  0  0  0
 31 32  1  0  0  0  0
M  END
> <PUBCHEM_COMPOUND_ID_TYPE>
0

> <PUBCHEM_TOTAL_CHARGE>
0

> <PUBCHEM_SUBSTANCE_ID>
310937346

> <PUBCHEM_SUBSTANCE_VERSION>
1

> <PUBCHEM_EXT_DATASOURCE_NAME>
4488

> <PUBCHEM_EXT_DATASOURCE_REGID>
SCHEMBL16115102

> <PUBCHEM_SUBSTANCE_COMMENT>
InChI=1S/C21H20F3N7O/c22-21(23,24)12-31-17-9-16(27-10-14(17)18-15(20(31)32)11-28-29-18)13-3-1-5-26-19(13)30-7-2-4-25-6-8-30/h1,3,5,9-11,25H,2,4,6-8,12H2,(H,28,29)
InChIKey=ALEQLJTUROQCCO-UHFFFAOYSA-N

> <PUBCHEM_SUBSTANCE_SYNONYM>
SCHEMBL16115102

> <PUBCHEM_XREF_EXT_ID>
SCHEMBL16115102

> <PUBCHEM_EXT_DATASOURCE_URL>
https://www.surechembl.org/

> <PUBCHEM_EXT_SUBSTANCE_URL>
https://www.surechembl.org/chemical/SCHEMBL16115102

> <PUBCHEM_CID_ASSOCIATIONS>
86298955  1

> <PUBCHEM_COORDINATE_TYPE>
1
3

$$$$
