310941081
  -OEChem-07211613022D

 41 45  0     1  0  0  0  0  0999 V2000
    5.0755    0.9722    0.0000 O   0  0  0  0  0  0  0  0  0  0  0  0
   -5.4043   -1.4440    0.0000 O   0  0  0  0  0  0  0  0  0  0  0  0
    3.9460   -0.9722    0.0000 O   0  0  0  0  0  0  0  0  0  0  0  0
   -2.6878    0.9579    0.0000 O   0  0  0  0  0  0  0  0  0  0  0  0
    1.6012    0.9579    0.0000 O   0  0  0  0  0  0  0  0  0  0  0  0
   -0.5433   -1.1009    0.0000 O   0  0  0  0  0  0  0  0  0  0  0  0
    3.7316   -2.7594    0.0000 O   0  0  0  0  0  0  0  0  0  0  0  0
    2.3162   -0.2859    0.0000 N   0  0  0  0  0  0  0  0  0  0  0  0
   -1.9587   -0.2859    0.0000 N   0  0  0  0  0  0  0  0  0  0  0  0
    0.1716    0.1286    0.0000 N   0  0  0  0  0  0  0  0  0  0  0  0
   -4.4035   -0.8292    0.0000 C   0  0  0  0  0  0  0  0  0  0  0  0
    4.6609    0.3003    0.0000 C   0  0  3  0  0  0  0  0  0  0  0  0
   -3.4028   -0.2574    0.0000 C   0  0  0  0  0  0  0  0  0  0  0  0
   -4.1748   -0.0572    0.0000 C   0  0  0  0  0  0  0  0  0  0  0  0
   -3.6029   -1.0437    0.0000 C   0  0  0  0  0  0  0  0  0  0  0  0
    3.9603   -0.1001    0.0000 C   0  0  0  0  0  0  0  0  0  0  0  0
   -4.6180   -1.6299    0.0000 C   0  0  0  0  0  0  0  0  0  0  0  0
   -5.1899   -0.6291    0.0000 C   0  0  0  0  0  0  0  0  0  0  0  0
    4.2749    0.9865    0.0000 C   0  0  0  0  0  0  0  0  0  0  0  0
   -2.6736    0.1430    0.0000 C   0  0  0  0  0  0  0  0  0  0  0  0
    3.2311    0.2859    0.0000 C   0  0  3  0  0  0  0  0  0  0  0  0
    5.4043   -0.1286    0.0000 C   0  0  0  0  0  0  0  0  0  0  0  0
    3.2311    1.3582    0.0000 C   0  0  0  0  0  0  0  0  0  0  0  0
    1.6012    0.1430    0.0000 C   0  0  0  0  0  0  0  0  0  0  0  0
    0.9008   -0.2430    0.0000 C   0  0  3  0  0  0  0  0  0  0  0  0
   -1.2581    0.1573    0.0000 C   0  0  3  0  0  0  0  0  0  0  0  0
    2.5163    1.7872    0.0000 C   0  0  0  0  0  0  0  0  0  0  0  0
   -0.5290   -0.2287    0.0000 C   0  0  0  0  0  0  0  0  0  0  0  0
    0.8864   -1.0723    0.0000 C   0  0  0  0  0  0  0  0  0  0  0  0
    1.6012   -1.4869    0.0000 C   0  0  0  0  0  0  0  0  0  0  0  0
    2.4305    2.5878    0.0000 C   0  0  0  0  0  0  0  0  0  0  0  0
    1.7729    1.4440    0.0000 C   0  0  0  0  0  0  0  0  0  0  0  0
   -1.2439    1.0008    0.0000 C   0  0  0  0  0  0  0  0  0  0  0  0
    1.6299    2.7594    0.0000 C   0  0  0  0  0  0  0  0  0  0  0  0
    1.2439    2.0302    0.0000 C   0  0  0  0  0  0  0  0  0  0  0  0
    1.6156   -2.3162    0.0000 C   0  0  0  0  0  0  0  0  0  0  0  0
    2.3018   -1.0866    0.0000 C   0  0  0  0  0  0  0  0  0  0  0  0
    3.0310   -2.3018    0.0000 C   0  0  0  0  0  0  0  0  0  0  0  0
    2.3162   -2.7165    0.0000 C   0  0  0  0  0  0  0  0  0  0  0  0
    3.0310   -1.5012    0.0000 C   0  0  0  0  0  0  0  0  0  0  0  0
    4.4607   -2.3162    0.0000 C   0  0  0  0  0  0  0  0  0  0  0  0
  1 12  1  0  0  0  0
  1 19  1  0  0  0  0
  2 17  1  0  0  0  0
  2 18  1  0  0  0  0
  3 16  2  0  0  0  0
  4 20  2  0  0  0  0
  5 24  2  0  0  0  0
  6 28  2  0  0  0  0
  7 38  1  0  0  0  0
  7 41  1  0  0  0  0
  8 21  1  0  0  0  0
  8 24  1  0  0  0  0
  9 20  1  0  0  0  0
  9 26  1  0  0  0  0
 10 25  1  0  0  0  0
 10 28  1  0  0  0  0
 11 14  1  0  0  0  0
 11 15  1  0  0  0  0
 11 17  1  0  0  0  0
 11 18  1  0  0  0  0
 12 16  1  0  0  0  0
 12 19  1  0  0  0  0
 12 22  1  0  0  0  0
 13 14  1  0  0  0  0
 13 15  1  0  0  0  0
 13 20  1  0  0  0  0
 16 21  1  0  0  0  0
 21 23  1  0  0  0  0
 23 27  1  0  0  0  0
 24 25  1  0  0  0  0
 25 29  1  0  0  0  0
 26 28  1  0  0  0  0
 26 33  1  0  0  0  0
 27 31  2  0  0  0  0
 27 32  1  0  0  0  0
 29 30  1  0  0  0  0
 30 36  2  0  0  0  0
 30 37  1  0  0  0  0
 31 34  1  0  0  0  0
 32 35  1  0  0  0  0
 34 35  1  0  0  0  0
 36 39  1  0  0  0  0
 37 40  2  0  0  0  0
 38 39  2  0  0  0  0
 38 40  1  0  0  0  0
M  END
> <PUBCHEM_COMPOUND_ID_TYPE>
0

> <PUBCHEM_TOTAL_CHARGE>
0

> <PUBCHEM_SUBSTANCE_ID>
310941081

> <PUBCHEM_SUBSTANCE_VERSION>
1

> <PUBCHEM_EXT_DATASOURCE_NAME>
4488

> <PUBCHEM_EXT_DATASOURCE_REGID>
SCHEMBL16119041

> <PUBCHEM_SUBSTANCE_COMMENT>
InChI=1S/C31H41N3O7/c1-19(32-28(37)22-14-31(15-22)17-40-18-31)27(36)34-25(13-21-8-10-23(39-3)11-9-21)29(38)33-24(12-20-6-4-5-7-20)26(35)30(2)16-41-30/h6,8-11,19,22,24-25H,4-5,7,12-18H2,1-3H3,(H,32,37)(H,33,38)(H,34,36)
InChIKey=MNFCMXFKOGMPHY-UHFFFAOYSA-N

> <PUBCHEM_SUBSTANCE_SYNONYM>
SCHEMBL16119041

> <PUBCHEM_XREF_EXT_ID>
SCHEMBL16119041

> <PUBCHEM_EXT_DATASOURCE_URL>
https://www.surechembl.org/

> <PUBCHEM_EXT_SUBSTANCE_URL>
https://www.surechembl.org/chemical/SCHEMBL16119041

> <PUBCHEM_CID_ASSOCIATIONS>
86298330  1

> <PUBCHEM_COORDINATE_TYPE>
1
3

$$$$
