310935215
  -OEChem-07211613022D

 32 34  0     1  0  0  0  0  0999 V2000
    2.4081   -1.2264    0.0000 S   0  0  0  0  0  0  0  0  0  0  0  0
    1.6946    0.0000    0.0000 F   0  0  0  0  0  0  0  0  0  0  0  0
    0.9811   -1.2486    0.0000 F   0  0  0  0  0  0  0  0  0  0  0  0
    2.4081   -0.4014    0.0000 F   0  0  0  0  0  0  0  0  0  0  0  0
    3.1216   -1.6277    0.0000 O   0  0  0  0  0  0  0  0  0  0  0  0
    4.5486   -1.6277    0.0000 O   0  0  0  0  0  0  0  0  0  0  0  0
    2.8094   -0.5128    0.0000 O   0  0  0  0  0  0  0  0  0  0  0  0
    2.0068   -1.9398    0.0000 O   0  0  0  0  0  0  0  0  0  0  0  0
    5.9756   -2.4527    0.0000 O   0  0  0  0  0  0  0  0  0  0  0  0
    5.2621   -3.7013    0.0000 O   0  0  0  0  0  0  0  0  0  0  0  0
    2.3858   -3.7236    0.0000 N   0  0  0  0  0  0  0  0  0  0  0  0
    1.6500   -3.9689    0.0000 N   0  0  0  0  0  0  0  0  0  0  0  0
    2.3858   -2.8986    0.0000 C   0  0  0  0  0  0  0  0  0  0  0  0
    3.1216   -2.4527    0.0000 C   0  0  0  0  0  0  0  0  0  0  0  0
    3.8351   -2.8763    0.0000 C   0  0  0  0  0  0  0  0  0  0  0  0
    1.6277   -2.6533    0.0000 C   0  0  0  0  0  0  0  0  0  0  0  0
    1.1148   -3.3223    0.0000 C   0  0  0  0  0  0  0  0  0  0  0  0
    3.8351   -3.7013    0.0000 C   0  0  0  0  0  0  0  0  0  0  0  0
    4.5486   -2.4527    0.0000 C   0  0  3  0  0  0  0  0  0  0  0  0
    3.1439   -4.1473    0.0000 C   0  0  0  0  0  0  0  0  0  0  0  0
    1.7169   -0.8250    0.0000 C   0  0  0  0  0  0  0  0  0  0  0  0
    1.2486   -1.9176    0.0000 C   0  0  0  0  0  0  0  0  0  0  0  0
    5.2621   -2.8763    0.0000 C   0  0  0  0  0  0  0  0  0  0  0  0
    0.3344   -3.2331    0.0000 C   0  0  0  0  0  0  0  0  0  0  0  0
    4.5486   -4.1027    0.0000 C   0  0  0  0  0  0  0  0  0  0  0  0
    0.4460   -1.8283    0.0000 C   0  0  0  0  0  0  0  0  0  0  0  0
    3.8351   -1.2264    0.0000 C   0  0  0  0  0  0  0  0  0  0  0  0
    0.0000   -2.4750    0.0000 C   0  0  0  0  0  0  0  0  0  0  0  0
    3.1216   -0.7804    0.0000 C   0  0  0  0  0  0  0  0  0  0  0  0
    4.2587   -0.5128    0.0000 C   0  0  0  0  0  0  0  0  0  0  0  0
    3.4115   -1.9176    0.0000 C   0  0  0  0  0  0  0  0  0  0  0  0
    6.6891   -2.8763    0.0000 C   0  0  0  0  0  0  0  0  0  0  0  0
  1  5  1  0  0  0  0
  1  7  2  0  0  0  0
  1  8  2  0  0  0  0
  1 21  1  0  0  0  0
  2 21  1  0  0  0  0
  3 21  1  0  0  0  0
  4 21  1  0  0  0  0
  5 14  1  0  0  0  0
  6 19  1  0  0  0  0
  6 27  1  0  0  0  0
  9 23  1  0  0  0  0
  9 32  1  0  0  0  0
 10 23  2  0  0  0  0
 11 12  1  0  0  0  0
 11 13  1  0  0  0  0
 11 20  1  0  0  0  0
 12 17  2  0  0  0  0
 13 14  1  0  0  0  0
 13 16  2  0  0  0  0
 14 15  2  0  0  0  0
 15 18  1  0  0  0  0
 15 19  1  0  0  0  0
 16 17  1  0  0  0  0
 16 22  1  0  0  0  0
 17 24  1  0  0  0  0
 18 20  2  0  0  0  0
 18 25  1  0  0  0  0
 19 23  1  0  0  0  0
 22 26  2  0  0  0  0
 24 28  2  0  0  0  0
 26 28  1  0  0  0  0
 27 29  1  0  0  0  0
 27 30  1  0  0  0  0
 27 31  1  0  0  0  0
M  END
> <PUBCHEM_COMPOUND_ID_TYPE>
0

> <PUBCHEM_TOTAL_CHARGE>
0

> <PUBCHEM_SUBSTANCE_ID>
310935215

> <PUBCHEM_SUBSTANCE_VERSION>
1

> <PUBCHEM_EXT_DATASOURCE_NAME>
4488

> <PUBCHEM_EXT_DATASOURCE_REGID>
SCHEMBL16112743

> <PUBCHEM_SUBSTANCE_COMMENT>
InChI=1S/C20H21F3N2O6S/c1-11-10-25-15(12-8-6-7-9-13(12)24-25)16(31-32(27,28)20(21,22)23)14(11)17(18(26)29-5)30-19(2,3)4/h6-10,17H,1-5H3
InChIKey=YARQRSMUOUMLGV-UHFFFAOYSA-N

> <PUBCHEM_SUBSTANCE_SYNONYM>
SCHEMBL16112743

> <PUBCHEM_XREF_EXT_ID>
SCHEMBL16112743

> <PUBCHEM_EXT_DATASOURCE_URL>
https://www.surechembl.org/

> <PUBCHEM_EXT_SUBSTANCE_URL>
https://www.surechembl.org/chemical/SCHEMBL16112743

> <PUBCHEM_CID_ASSOCIATIONS>
117603295  1

> <PUBCHEM_COORDINATE_TYPE>
1
3

$$$$
