310932524
  -OEChem-07211613022D

 25 28  0     1  0  0  0  0  0999 V2000
    3.2934    0.0000    0.0000 O   0  0  0  0  0  0  0  0  0  0  0  0
    4.4343   -1.9588    0.0000 O   0  0  0  0  0  0  0  0  0  0  0  0
    5.1446   -0.7103    0.0000 O   0  0  0  0  0  0  0  0  0  0  0  0
    0.0000   -2.3678    0.0000 O   0  0  0  0  0  0  0  0  0  0  0  0
    3.7239   -0.7103    0.0000 C   0  0  3  0  0  0  0  0  0  0  0  0
    2.8844   -0.7103    0.0000 C   0  0  3  0  0  0  0  0  0  0  0  0
    3.5087   -1.5283    0.0000 C   0  0  0  0  0  0  0  0  0  0  0  0
    4.4343   -1.1409    0.0000 C   0  0  0  0  0  0  0  0  0  0  0  0
    2.1741   -1.1409    0.0000 C   0  0  0  0  0  0  0  0  0  0  0  0
    4.0898   -2.1095    0.0000 C   0  0  0  0  0  0  0  0  0  0  0  0
    2.7122   -1.7436    0.0000 C   0  0  0  0  0  0  0  0  0  0  0  0
    2.1525   -1.9588    0.0000 C   0  0  0  0  0  0  0  0  0  0  0  0
    1.4422   -0.7319    0.0000 C   0  0  0  0  0  0  0  0  0  0  0  0
    5.1446   -2.3678    0.0000 C   0  0  0  0  0  0  0  0  0  0  0  0
    3.8746   -2.9059    0.0000 C   0  0  0  0  0  0  0  0  0  0  0  0
    2.4970   -2.5400    0.0000 C   0  0  0  0  0  0  0  0  0  0  0  0
    1.4422   -2.3893    0.0000 C   0  0  0  0  0  0  0  0  0  0  0  0
    0.7319   -1.1409    0.0000 C   0  0  0  0  0  0  0  0  0  0  0  0
    0.7319   -1.9588    0.0000 C   0  0  0  0  0  0  0  0  0  0  0  0
    3.0782   -3.1212    0.0000 C   0  0  0  0  0  0  0  0  0  0  0  0
    5.8980   -2.0234    0.0000 C   0  0  0  0  0  0  0  0  0  0  0  0
    5.2307   -3.1858    0.0000 C   0  0  0  0  0  0  0  0  0  0  0  0
    6.4577   -2.6477    0.0000 C   0  0  0  0  0  0  0  0  0  0  0  0
    6.0487   -3.3580    0.0000 C   0  0  0  0  0  0  0  0  0  0  0  0
    0.0000   -3.2073    0.0000 C   0  0  0  0  0  0  0  0  0  0  0  0
  1  5  1  0  0  0  0
  1  6  1  0  0  0  0
  2  8  1  0  0  0  0
  2 14  1  0  0  0  0
  3  8  2  0  0  0  0
  4 19  1  0  0  0  0
  4 25  1  0  0  0  0
  5  6  1  0  0  0  0
  5  7  1  0  0  0  0
  5  8  1  0  0  0  0
  6  9  1  0  0  0  0
  7 10  2  0  0  0  0
  7 11  1  0  0  0  0
  9 12  2  0  0  0  0
  9 13  1  0  0  0  0
 10 15  1  0  0  0  0
 11 16  2  0  0  0  0
 12 17  1  0  0  0  0
 13 18  2  0  0  0  0
 14 21  1  0  0  0  0
 14 22  1  0  0  0  0
 15 20  2  0  0  0  0
 16 20  1  0  0  0  0
 17 19  2  0  0  0  0
 18 19  1  0  0  0  0
 21 23  1  0  0  0  0
 22 24  1  0  0  0  0
 23 24  1  0  0  0  0
M  END
> <PUBCHEM_COMPOUND_ID_TYPE>
0

> <PUBCHEM_TOTAL_CHARGE>
0

> <PUBCHEM_SUBSTANCE_ID>
310932524

> <PUBCHEM_SUBSTANCE_VERSION>
1

> <PUBCHEM_EXT_DATASOURCE_NAME>
4488

> <PUBCHEM_EXT_DATASOURCE_REGID>
SCHEMBL16109899

> <PUBCHEM_SUBSTANCE_COMMENT>
InChI=1S/C21H22O4/c1-23-17-13-11-15(12-14-17)19-21(25-19,16-7-3-2-4-8-16)20(22)24-18-9-5-6-10-18/h2-4,7-8,11-14,18-19H,5-6,9-10H2,1H3
InChIKey=VTFXDTSFGHRDRG-UHFFFAOYSA-N

> <PUBCHEM_SUBSTANCE_SYNONYM>
SCHEMBL16109899

> <PUBCHEM_XREF_EXT_ID>
SCHEMBL16109899

> <PUBCHEM_EXT_DATASOURCE_URL>
https://www.surechembl.org/

> <PUBCHEM_EXT_SUBSTANCE_URL>
https://www.surechembl.org/chemical/SCHEMBL16109899

> <PUBCHEM_CID_ASSOCIATIONS>
117601056  1

> <PUBCHEM_COORDINATE_TYPE>
1
3

$$$$
