310932153
  -OEChem-07211613022D

 25 27  0     1  0  0  0  0  0999 V2000
    3.5513   -1.6142    0.0000 O   0  0  0  0  0  0  0  0  0  0  0  0
    4.6490   -3.5836    0.0000 O   0  0  0  0  0  0  0  0  0  0  0  0
    5.3915   -2.3245    0.0000 O   0  0  0  0  0  0  0  0  0  0  0  0
    0.8071    0.0000    0.0000 O   0  0  0  0  0  0  0  0  0  0  0  0
    3.1316   -2.3245    0.0000 C   0  0  3  0  0  0  0  0  0  0  0  0
    3.9388   -2.3245    0.0000 C   0  0  3  0  0  0  0  0  0  0  0  0
    2.5505   -1.7434    0.0000 C   0  0  0  0  0  0  0  0  0  0  0  0
    2.4213   -2.7442    0.0000 C   0  0  0  0  0  0  0  0  0  0  0  0
    4.6490   -2.7442    0.0000 C   0  0  0  0  0  0  0  0  0  0  0  0
    1.7434   -1.9694    0.0000 C   0  0  0  0  0  0  0  0  0  0  0  0
    2.7442   -0.9686    0.0000 C   0  0  0  0  0  0  0  0  0  0  0  0
    2.4213   -3.5836    0.0000 C   0  0  0  0  0  0  0  0  0  0  0  0
    1.7111   -2.3568    0.0000 C   0  0  0  0  0  0  0  0  0  0  0  0
    1.1623   -1.3882    0.0000 C   0  0  0  0  0  0  0  0  0  0  0  0
    2.1631   -0.3874    0.0000 C   0  0  0  0  0  0  0  0  0  0  0  0
    1.3882   -0.5811    0.0000 C   0  0  0  0  0  0  0  0  0  0  0  0
    1.7111   -4.0033    0.0000 C   0  0  0  0  0  0  0  0  0  0  0  0
    1.0008   -2.7442    0.0000 C   0  0  0  0  0  0  0  0  0  0  0  0
    0.9686   -3.5836    0.0000 C   0  0  0  0  0  0  0  0  0  0  0  0
    5.3915   -3.9710    0.0000 C   0  0  0  0  0  0  0  0  0  0  0  0
    5.3915   -4.8104    0.0000 C   0  0  0  0  0  0  0  0  0  0  0  0
    0.0000   -0.2260    0.0000 C   0  0  0  0  0  0  0  0  0  0  0  0
    6.1019   -5.1978    0.0000 C   0  0  0  0  0  0  0  0  0  0  0  0
    6.1019   -6.0372    0.0000 C   0  0  0  0  0  0  0  0  0  0  0  0
    6.8121   -6.4570    0.0000 C   0  0  0  0  0  0  0  0  0  0  0  0
  1  5  1  0  0  0  0
  1  6  1  0  0  0  0
  2  9  1  0  0  0  0
  2 20  1  0  0  0  0
  3  9  2  0  0  0  0
  4 16  1  0  0  0  0
  4 22  1  0  0  0  0
  5  6  1  0  0  0  0
  5  7  1  0  0  0  0
  5  8  1  0  0  0  0
  6  9  1  0  0  0  0
  7 10  2  0  0  0  0
  7 11  1  0  0  0  0
  8 12  2  0  0  0  0
  8 13  1  0  0  0  0
 10 14  1  0  0  0  0
 11 15  2  0  0  0  0
 12 17  1  0  0  0  0
 13 18  2  0  0  0  0
 14 16  2  0  0  0  0
 15 16  1  0  0  0  0
 17 19  2  0  0  0  0
 18 19  1  0  0  0  0
 20 21  1  0  0  0  0
 21 23  1  0  0  0  0
 23 24  1  0  0  0  0
 24 25  1  0  0  0  0
M  END
> <PUBCHEM_COMPOUND_ID_TYPE>
0

> <PUBCHEM_TOTAL_CHARGE>
0

> <PUBCHEM_SUBSTANCE_ID>
310932153

> <PUBCHEM_SUBSTANCE_VERSION>
1

> <PUBCHEM_EXT_DATASOURCE_NAME>
4488

> <PUBCHEM_EXT_DATASOURCE_REGID>
SCHEMBL16109506

> <PUBCHEM_SUBSTANCE_COMMENT>
InChI=1S/C21H24O4/c1-3-4-8-15-24-20(22)19-21(25-19,16-9-6-5-7-10-16)17-11-13-18(23-2)14-12-17/h5-7,9-14,19H,3-4,8,15H2,1-2H3
InChIKey=WFYVHEQSLFQPHF-UHFFFAOYSA-N

> <PUBCHEM_SUBSTANCE_SYNONYM>
SCHEMBL16109506

> <PUBCHEM_XREF_EXT_ID>
SCHEMBL16109506

> <PUBCHEM_EXT_DATASOURCE_URL>
https://www.surechembl.org/

> <PUBCHEM_EXT_SUBSTANCE_URL>
https://www.surechembl.org/chemical/SCHEMBL16109506

> <PUBCHEM_CID_ASSOCIATIONS>
117600758  1

> <PUBCHEM_COORDINATE_TYPE>
1
3

$$$$
