310942158
  -OEChem-07211613022D

 27 29  0     1  0  0  0  0  0999 V2000
   -1.5313   -0.3562    0.0000 F   0  0  0  0  0  0  0  0  0  0  0  0
   -1.5313    2.5312    0.0000 F   0  0  0  0  0  0  0  0  0  0  0  0
   -2.3688    1.0813    0.0000 O   0  0  0  0  0  0  0  0  0  0  0  0
    0.9688   -0.3562    0.0000 N   0  0  0  0  0  0  0  0  0  0  0  0
    4.0188   -2.5187    0.0000 N   0  0  0  0  0  0  0  0  0  0  0  0
   -1.5188    1.0938    0.0000 C   0  0  0  0  0  0  0  0  0  0  0  0
   -1.1063    0.3812    0.0000 C   0  0  0  0  0  0  0  0  0  0  0  0
   -0.2812    0.3687    0.0000 C   0  0  0  0  0  0  0  0  0  0  0  0
   -1.1187    1.8188    0.0000 C   0  0  0  0  0  0  0  0  0  0  0  0
    0.1312   -0.3437    0.0000 C   0  0  3  0  0  0  0  0  0  0  0  0
    0.1312    1.0813    0.0000 C   0  0  0  0  0  0  0  0  0  0  0  0
   -0.2812    1.8063    0.0000 C   0  0  0  0  0  0  0  0  0  0  0  0
   -2.7813    1.8188    0.0000 C   0  0  0  0  0  0  0  0  0  0  0  0
   -0.2812   -1.0813    0.0000 C   0  0  0  0  0  0  0  0  0  0  0  0
   -2.3688    2.5312    0.0000 C   0  0  0  0  0  0  0  0  0  0  0  0
   -3.6063    1.8188    0.0000 C   0  0  0  0  0  0  0  0  0  0  0  0
    1.3813   -1.0688    0.0000 C   0  0  0  0  0  0  0  0  0  0  0  0
   -2.7813    3.2438    0.0000 C   0  0  0  0  0  0  0  0  0  0  0  0
   -4.0188    2.5312    0.0000 C   0  0  0  0  0  0  0  0  0  0  0  0
    2.2313   -1.0813    0.0000 C   0  0  0  0  0  0  0  0  0  0  0  0
    2.6313   -1.7812    0.0000 C   0  0  3  0  0  0  0  0  0  0  0  0
    0.1438   -1.7938    0.0000 C   0  0  0  0  0  0  0  0  0  0  0  0
   -3.6063    3.2438    0.0000 C   0  0  0  0  0  0  0  0  0  0  0  0
    3.4813   -1.8063    0.0000 C   0  0  0  0  0  0  0  0  0  0  0  0
    2.2313   -2.5312    0.0000 C   0  0  0  0  0  0  0  0  0  0  0  0
    2.6438   -3.2438    0.0000 C   0  0  0  0  0  0  0  0  0  0  0  0
    3.4688   -3.2438    0.0000 C   0  0  0  0  0  0  0  0  0  0  0  0
  1  7  1  0  0  0  0
  2  9  1  0  0  0  0
  3  6  1  0  0  0  0
  3 13  1  0  0  0  0
  4 10  1  0  0  0  0
  4 17  1  0  0  0  0
  5 24  1  0  0  0  0
  5 27  1  0  0  0  0
  6  7  1  0  0  0  0
  6  9  2  0  0  0  0
  7  8  2  0  0  0  0
  8 10  1  0  0  0  0
  8 11  1  0  0  0  0
  9 12  1  0  0  0  0
 10 14  1  0  0  0  0
 11 12  2  0  0  0  0
 13 15  2  0  0  0  0
 13 16  1  0  0  0  0
 14 22  1  0  0  0  0
 15 18  1  0  0  0  0
 16 19  2  0  0  0  0
 17 20  1  0  0  0  0
 18 23  2  0  0  0  0
 19 23  1  0  0  0  0
 20 21  1  0  0  0  0
 21 24  1  0  0  0  0
 21 25  1  0  0  0  0
 25 26  1  0  0  0  0
 26 27  1  0  0  0  0
M  END
> <PUBCHEM_COMPOUND_ID_TYPE>
0

> <PUBCHEM_TOTAL_CHARGE>
0

> <PUBCHEM_SUBSTANCE_ID>
310942158

> <PUBCHEM_SUBSTANCE_VERSION>
1

> <PUBCHEM_EXT_DATASOURCE_NAME>
4488

> <PUBCHEM_EXT_DATASOURCE_REGID>
SCHEMBL16120193

> <PUBCHEM_SUBSTANCE_COMMENT>
InChI=1S/C22H28F2N2O/c1-2-20(26-14-12-16-7-6-13-25-15-16)18-10-11-19(23)22(21(18)24)27-17-8-4-3-5-9-17/h3-5,8-11,16,20,25-26H,2,6-7,12-15H2,1H3
InChIKey=VXSIDQDGVVEECK-UHFFFAOYSA-N

> <PUBCHEM_SUBSTANCE_SYNONYM>
SCHEMBL16120193

> <PUBCHEM_XREF_EXT_ID>
SCHEMBL16120193

> <PUBCHEM_EXT_DATASOURCE_URL>
https://www.surechembl.org/

> <PUBCHEM_EXT_SUBSTANCE_URL>
https://www.surechembl.org/chemical/SCHEMBL16120193

> <PUBCHEM_CID_ASSOCIATIONS>
117608814  1

> <PUBCHEM_COORDINATE_TYPE>
1
3

$$$$
