310941345
  -OEChem-07211613022D

 37 40  0     1  0  0  0  0  0999 V2000
    2.4888   -2.3100    0.0000 S   0  0  0  0  0  0  0  0  0  0  0  0
    5.0462    0.4675    0.0000 O   0  0  0  0  0  0  0  0  0  0  0  0
    3.9187   -1.4850    0.0000 O   0  0  0  0  0  0  0  0  0  0  0  0
    1.7738    0.5775    0.0000 O   0  0  0  0  0  0  0  0  0  0  0  0
   -0.3575   -1.4850    0.0000 O   0  0  0  0  0  0  0  0  0  0  0  0
   -2.5024    0.5775    0.0000 O   0  0  0  0  0  0  0  0  0  0  0  0
   -5.3625    0.5775    0.0000 O   0  0  0  0  0  0  0  0  0  0  0  0
    2.4888   -0.6462    0.0000 N   0  0  0  0  0  0  0  0  0  0  0  0
    0.3575   -0.2337    0.0000 N   0  0  0  0  0  0  0  0  0  0  0  0
   -1.7875   -0.6462    0.0000 N   0  0  0  0  0  0  0  0  0  0  0  0
   -3.9324   -0.2337    0.0000 N   0  0  0  0  0  0  0  0  0  0  0  0
    1.8012   -1.8975    0.0000 C   0  0  3  0  0  0  0  0  0  0  0  0
    4.6337   -0.2200    0.0000 C   0  0  3  0  0  0  0  0  0  0  0  0
    3.1900   -0.2337    0.0000 C   0  0  3  0  0  0  0  0  0  0  0  0
    3.9187   -0.6188    0.0000 C   0  0  0  0  0  0  0  0  0  0  0  0
    1.7600   -0.2613    0.0000 C   0  0  0  0  0  0  0  0  0  0  0  0
    1.0725   -0.6462    0.0000 C   0  0  3  0  0  0  0  0  0  0  0  0
    1.0725   -1.4712    0.0000 C   0  0  0  0  0  0  0  0  0  0  0  0
    4.2487    0.4675    0.0000 C   0  0  0  0  0  0  0  0  0  0  0  0
    3.2174    1.0725    0.0000 C   0  0  0  0  0  0  0  0  0  0  0  0
    1.7875   -2.7225    0.0000 C   0  0  0  0  0  0  0  0  0  0  0  0
    5.3625   -0.6462    0.0000 C   0  0  0  0  0  0  0  0  0  0  0  0
    2.4750    1.4987    0.0000 C   0  0  0  0  0  0  0  0  0  0  0  0
   -0.3575   -0.6325    0.0000 C   0  0  0  0  0  0  0  0  0  0  0  0
   -1.0863   -0.2337    0.0000 C   0  0  3  0  0  0  0  0  0  0  0  0
    1.7875    1.1000    0.0000 C   0  0  0  0  0  0  0  0  0  0  0  0
    2.4888    2.3237    0.0000 C   0  0  0  0  0  0  0  0  0  0  0  0
    1.0725    1.4987    0.0000 C   0  0  0  0  0  0  0  0  0  0  0  0
    1.7875    2.7225    0.0000 C   0  0  0  0  0  0  0  0  0  0  0  0
    1.0725    2.3237    0.0000 C   0  0  0  0  0  0  0  0  0  0  0  0
   -2.5162   -0.2613    0.0000 C   0  0  0  0  0  0  0  0  0  0  0  0
   -1.0725    0.6050    0.0000 C   0  0  0  0  0  0  0  0  0  0  0  0
   -3.2037   -0.6462    0.0000 C   0  0  0  0  0  0  0  0  0  0  0  0
   -3.9187    0.5913    0.0000 C   0  0  0  0  0  0  0  0  0  0  0  0
   -4.6199   -0.6462    0.0000 C   0  0  0  0  0  0  0  0  0  0  0  0
   -4.6475    1.0037    0.0000 C   0  0  0  0  0  0  0  0  0  0  0  0
   -5.3487   -0.2337    0.0000 C   0  0  0  0  0  0  0  0  0  0  0  0
  1 12  1  0  0  0  0
  2 13  1  0  0  0  0
  2 19  1  0  0  0  0
  3 15  2  0  0  0  0
  4 16  2  0  0  0  0
  5 24  2  0  0  0  0
  6 31  2  0  0  0  0
  7 36  1  0  0  0  0
  7 37  1  0  0  0  0
  8 12  1  0  0  0  0
  8 14  1  0  0  0  0
  8 16  1  0  0  0  0
  9 17  1  0  0  0  0
  9 24  1  0  0  0  0
 10 25  1  0  0  0  0
 10 31  1  0  0  0  0
 11 33  1  0  0  0  0
 11 34  1  0  0  0  0
 11 35  1  0  0  0  0
 12 18  1  0  0  0  0
 12 21  1  0  0  0  0
 13 15  1  0  0  0  0
 13 19  1  0  0  0  0
 13 22  1  0  0  0  0
 14 15  1  0  0  0  0
 14 20  1  0  0  0  0
 16 17  1  0  0  0  0
 17 18  1  0  0  0  0
 20 23  1  0  0  0  0
 23 26  2  0  0  0  0
 23 27  1  0  0  0  0
 24 25  1  0  0  0  0
 25 32  1  0  0  0  0
 26 28  1  0  0  0  0
 27 29  2  0  0  0  0
 28 30  2  0  0  0  0
 29 30  1  0  0  0  0
 31 33  1  0  0  0  0
 34 36  1  0  0  0  0
 35 37  1  0  0  0  0
M  END
> <PUBCHEM_COMPOUND_ID_TYPE>
0

> <PUBCHEM_TOTAL_CHARGE>
0

> <PUBCHEM_SUBSTANCE_ID>
310941345

> <PUBCHEM_SUBSTANCE_VERSION>
1

> <PUBCHEM_EXT_DATASOURCE_NAME>
4488

> <PUBCHEM_EXT_DATASOURCE_REGID>
SCHEMBL16119305

> <PUBCHEM_SUBSTANCE_COMMENT>
InChI=1S/C26H36N4O6S/c1-17(27-21(31)15-29-9-11-35-12-10-29)23(33)28-19-14-26(3,37)30(24(19)34)20(22(32)25(2)16-36-25)13-18-7-5-4-6-8-18/h4-8,17,19-20,37H,9-16H2,1-3H3,(H,27,31)(H,28,33)
InChIKey=GUVRZYXFOLOYRU-UHFFFAOYSA-N

> <PUBCHEM_SUBSTANCE_SYNONYM>
SCHEMBL16119305

> <PUBCHEM_XREF_EXT_ID>
SCHEMBL16119305

> <PUBCHEM_EXT_DATASOURCE_URL>
https://www.surechembl.org/

> <PUBCHEM_EXT_SUBSTANCE_URL>
https://www.surechembl.org/chemical/SCHEMBL16119305

> <PUBCHEM_CID_ASSOCIATIONS>
117608188  1

> <PUBCHEM_COORDINATE_TYPE>
1
3

$$$$
