310934644
  -OEChem-07211613022D

 10 10  0     1  0  0  0  0  0999 V2000
    3.3414   -1.7004    0.0000 S   0  0  0  0  0  0  0  0  0  0  0  0
    0.6659   -1.1534    0.0000 O   0  0  0  0  0  0  0  0  0  0  0  0
    1.4983    0.0000    0.0000 O   0  0  0  0  0  0  0  0  0  0  0  0
    1.3437   -1.6766    0.0000 N   0  0  0  0  0  0  0  0  0  0  0  0
    2.0809   -1.2961    0.0000 C   0  0  3  0  0  0  0  0  0  0  0  0
    1.4150   -0.8205    0.0000 C   0  0  0  0  0  0  0  0  0  0  0  0
    2.8657   -1.0345    0.0000 C   0  0  0  0  0  0  0  0  0  0  0  0
    2.0809   -2.1166    0.0000 C   0  0  0  0  0  0  0  0  0  0  0  0
    2.8657   -2.3782    0.0000 C   0  0  0  0  0  0  0  0  0  0  0  0
    0.0000   -0.6659    0.0000 C   0  0  0  0  0  0  0  0  0  0  0  0
  1  7  1  0  0  0  0
  1  9  1  0  0  0  0
  2  6  1  0  0  0  0
  2 10  1  0  0  0  0
  3  6  2  0  0  0  0
  4  5  1  0  0  0  0
  5  6  1  0  0  0  0
  5  7  1  0  0  0  0
  5  8  1  0  0  0  0
  8  9  1  0  0  0  0
M  END
> <PUBCHEM_COMPOUND_ID_TYPE>
0

> <PUBCHEM_TOTAL_CHARGE>
0

> <PUBCHEM_SUBSTANCE_ID>
310934644

> <PUBCHEM_SUBSTANCE_VERSION>
1

> <PUBCHEM_EXT_DATASOURCE_NAME>
4488

> <PUBCHEM_EXT_DATASOURCE_REGID>
SCHEMBL16112142

> <PUBCHEM_SUBSTANCE_COMMENT>
InChI=1S/C6H11NO2S/c1-9-5(8)6(7)2-3-10-4-6/h2-4,7H2,1H3
InChIKey=OHHUWVUKFNDQPE-UHFFFAOYSA-N

> <PUBCHEM_SUBSTANCE_SYNONYM>
SCHEMBL16112142

> <PUBCHEM_XREF_EXT_ID>
SCHEMBL16112142

> <PUBCHEM_EXT_DATASOURCE_URL>
https://www.surechembl.org/

> <PUBCHEM_EXT_SUBSTANCE_URL>
https://www.surechembl.org/chemical/SCHEMBL16112142

> <PUBCHEM_CID_ASSOCIATIONS>
15524433  1

> <PUBCHEM_COORDINATE_TYPE>
1
3

$$$$
