310932199
  -OEChem-07211613022D

 20 22  0     1  0  0  0  0  0999 V2000
    2.7865   -1.6298    0.0000 O   0  0  0  0  0  0  0  0  0  0  0  0
    3.9168   -3.6014    0.0000 O   0  0  0  0  0  0  0  0  0  0  0  0
    4.6529   -2.3659    0.0000 O   0  0  0  0  0  0  0  0  0  0  0  0
    2.3659   -2.3659    0.0000 C   0  0  3  0  0  0  0  0  0  0  0  0
    3.2071   -2.3659    0.0000 C   0  0  3  0  0  0  0  0  0  0  0  0
    1.7875   -1.7613    0.0000 C   0  0  0  0  0  0  0  0  0  0  0  0
    3.9168   -2.7602    0.0000 C   0  0  0  0  0  0  0  0  0  0  0  0
    1.6561   -2.7602    0.0000 C   0  0  0  0  0  0  0  0  0  0  0  0
    0.9726   -1.9715    0.0000 C   0  0  0  0  0  0  0  0  0  0  0  0
    1.9979   -0.9464    0.0000 C   0  0  0  0  0  0  0  0  0  0  0  0
    4.6529   -4.0220    0.0000 C   0  0  0  0  0  0  0  0  0  0  0  0
    0.3943   -1.3932    0.0000 C   0  0  0  0  0  0  0  0  0  0  0  0
    1.3932   -0.3943    0.0000 C   0  0  0  0  0  0  0  0  0  0  0  0
    0.6046   -0.6046    0.0000 C   0  0  0  0  0  0  0  0  0  0  0  0
    5.3626   -3.6014    0.0000 C   0  0  0  0  0  0  0  0  0  0  0  0
    4.6529   -4.8369    0.0000 C   0  0  0  0  0  0  0  0  0  0  0  0
    0.0000    0.0000    0.0000 C   0  0  0  0  0  0  0  0  0  0  0  0
    6.0725   -4.0220    0.0000 C   0  0  0  0  0  0  0  0  0  0  0  0
    5.3626   -5.2575    0.0000 C   0  0  0  0  0  0  0  0  0  0  0  0
    6.0725   -4.8369    0.0000 C   0  0  0  0  0  0  0  0  0  0  0  0
  1  4  1  0  0  0  0
  1  5  1  0  0  0  0
  2  7  1  0  0  0  0
  2 11  1  0  0  0  0
  3  7  2  0  0  0  0
  4  5  1  0  0  0  0
  4  6  1  0  0  0  0
  4  8  1  0  0  0  0
  5  7  1  0  0  0  0
  6  9  2  0  0  0  0
  6 10  1  0  0  0  0
  9 12  1  0  0  0  0
 10 13  2  0  0  0  0
 11 15  2  0  0  0  0
 11 16  1  0  0  0  0
 12 14  2  0  0  0  0
 13 14  1  0  0  0  0
 14 17  1  0  0  0  0
 15 18  1  0  0  0  0
 16 19  2  0  0  0  0
 18 20  2  0  0  0  0
 19 20  1  0  0  0  0
M  END
> <PUBCHEM_COMPOUND_ID_TYPE>
0

> <PUBCHEM_TOTAL_CHARGE>
0

> <PUBCHEM_SUBSTANCE_ID>
310932199

> <PUBCHEM_SUBSTANCE_VERSION>
1

> <PUBCHEM_EXT_DATASOURCE_NAME>
4488

> <PUBCHEM_EXT_DATASOURCE_REGID>
SCHEMBL16109556

> <PUBCHEM_SUBSTANCE_COMMENT>
InChI=1S/C17H16O3/c1-12-8-10-13(11-9-12)17(2)15(20-17)16(18)19-14-6-4-3-5-7-14/h3-11,15H,1-2H3
InChIKey=SLGHSPQRNSPYDD-UHFFFAOYSA-N

> <PUBCHEM_SUBSTANCE_SYNONYM>
SCHEMBL16109556

> <PUBCHEM_XREF_EXT_ID>
SCHEMBL16109556

> <PUBCHEM_EXT_DATASOURCE_URL>
https://www.surechembl.org/

> <PUBCHEM_EXT_SUBSTANCE_URL>
https://www.surechembl.org/chemical/SCHEMBL16109556

> <PUBCHEM_CID_ASSOCIATIONS>
117600791  1

> <PUBCHEM_COORDINATE_TYPE>
1
3

$$$$
