310935695
  -OEChem-07211613022D

 20 20  0     1  0  0  0  0  0999 V2000
    1.4503   -3.7246    0.0000 O   0  0  0  0  0  0  0  0  0  0  0  0
    2.8676   -3.7246    0.0000 O   0  0  0  0  0  0  0  0  0  0  0  0
    0.0000   -3.7246    0.0000 O   0  0  0  0  0  0  0  0  0  0  0  0
    2.1424   -2.4720    0.0000 C   0  0  3  0  0  0  0  0  0  0  0  0
    1.4503   -2.9005    0.0000 C   0  0  3  0  0  0  0  0  0  0  0  0
    2.8676   -2.9005    0.0000 C   0  0  3  0  0  0  0  0  0  0  0  0
    0.7252   -4.1201    0.0000 C   0  0  0  0  0  0  0  0  0  0  0  0
    2.1424   -1.6480    0.0000 C   0  0  0  0  0  0  0  0  0  0  0  0
    0.7252   -4.9441    0.0000 C   0  0  0  0  0  0  0  0  0  0  0  0
    1.4173   -2.0765    0.0000 C   0  0  0  0  0  0  0  0  0  0  0  0
    0.7252   -2.4720    0.0000 C   0  0  0  0  0  0  0  0  0  0  0  0
    0.0000   -5.3396    0.0000 C   0  0  0  0  0  0  0  0  0  0  0  0
    1.4173   -5.3726    0.0000 C   0  0  0  0  0  0  0  0  0  0  0  0
    2.8676   -1.2525    0.0000 C   0  0  0  0  0  0  0  0  0  0  0  0
    3.5927   -2.4720    0.0000 C   0  0  0  0  0  0  0  0  0  0  0  0
    0.0000   -6.1966    0.0000 C   0  0  0  0  0  0  0  0  0  0  0  0
    1.4173   -6.1966    0.0000 C   0  0  0  0  0  0  0  0  0  0  0  0
    0.7252   -6.5922    0.0000 C   0  0  0  0  0  0  0  0  0  0  0  0
    2.8676   -0.4285    0.0000 C   0  0  0  0  0  0  0  0  0  0  0  0
    3.5598    0.0000    0.0000 C   0  0  0  0  0  0  0  0  0  0  0  0
  1  5  1  0  0  0  0
  1  7  1  0  0  0  0
  2  6  1  0  0  0  0
  3  7  2  0  0  0  0
  4  5  1  0  0  0  0
  4  6  1  0  0  0  0
  4  8  1  0  0  0  0
  4 10  1  0  0  0  0
  5 11  1  0  0  0  0
  6 15  1  0  0  0  0
  7  9  1  0  0  0  0
  8 14  1  0  0  0  0
  9 12  2  0  0  0  0
  9 13  1  0  0  0  0
 12 16  1  0  0  0  0
 13 17  2  0  0  0  0
 14 19  1  0  0  0  0
 16 18  2  0  0  0  0
 17 18  1  0  0  0  0
 19 20  1  0  0  0  0
M  END
> <PUBCHEM_COMPOUND_ID_TYPE>
0

> <PUBCHEM_TOTAL_CHARGE>
0

> <PUBCHEM_SUBSTANCE_ID>
310935695

> <PUBCHEM_SUBSTANCE_VERSION>
1

> <PUBCHEM_EXT_DATASOURCE_NAME>
4488

> <PUBCHEM_EXT_DATASOURCE_REGID>
SCHEMBL16113279

> <PUBCHEM_SUBSTANCE_COMMENT>
InChI=1S/C17H26O3/c1-5-6-12-17(4,13(2)18)14(3)20-16(19)15-10-8-7-9-11-15/h7-11,13-14,18H,5-6,12H2,1-4H3
InChIKey=MDOXBHCJSHUFAN-UHFFFAOYSA-N

> <PUBCHEM_SUBSTANCE_SYNONYM>
SCHEMBL16113279

> <PUBCHEM_XREF_EXT_ID>
SCHEMBL16113279

> <PUBCHEM_EXT_DATASOURCE_URL>
https://www.surechembl.org/

> <PUBCHEM_EXT_SUBSTANCE_URL>
https://www.surechembl.org/chemical/SCHEMBL16113279

> <PUBCHEM_CID_ASSOCIATIONS>
117603703  1

> <PUBCHEM_COORDINATE_TYPE>
1
3

$$$$
