310936508
  -OEChem-07211613022D

 44 47  0     1  0  0  0  0  0999 V2000
    3.5200   -8.8550    0.0000 O   0  0  0  0  0  0  0  0  0  0  0  0
    0.7150   -8.9099    0.0000 O   0  0  0  0  0  0  0  0  0  0  0  0
    4.9499   -9.6800    0.0000 O   0  0  0  0  0  0  0  0  0  0  0  0
    5.6649   -8.4699    0.0000 O   0  0  0  0  0  0  0  0  0  0  0  0
    3.2450   -3.6300    0.0000 O   0  0  0  0  0  0  0  0  0  0  0  0
    2.8600   -2.8600    0.0000 O   0  0  0  0  0  0  0  0  0  0  0  0
    3.2450   -2.1450    0.0000 O   0  0  0  0  0  0  0  0  0  0  0  0
    3.5200   -6.3800    0.0000 N   0  0  0  0  0  0  0  0  0  0  0  0
    2.8600   -7.6450    0.0000 N   0  0  0  0  0  0  0  0  0  0  0  0
    2.9149   -5.8300    0.0000 N   0  0  0  0  0  0  0  0  0  0  0  0
    5.0050   -6.3800    0.0000 N   0  0  0  0  0  0  0  0  0  0  0  0
    2.0350   -4.3450    0.0000 N   0  0  0  0  0  0  0  0  0  0  0  0
    3.5750   -7.2050    0.0000 C   0  0  0  0  0  0  0  0  0  0  0  0
    4.2350   -7.6450    0.0000 C   0  0  0  0  0  0  0  0  0  0  0  0
    4.2899   -5.9399    0.0000 C   0  0  0  0  0  0  0  0  0  0  0  0
    5.0050   -7.2050    0.0000 C   0  0  0  0  0  0  0  0  0  0  0  0
    4.2350   -8.4699    0.0000 C   0  0  3  0  0  0  0  0  0  0  0  0
    3.2450   -5.0600    0.0000 C   0  0  0  0  0  0  0  0  0  0  0  0
    4.0700   -5.1700    0.0000 C   0  0  0  0  0  0  0  0  0  0  0  0
    2.8600   -8.4699    0.0000 C   0  0  0  0  0  0  0  0  0  0  0  0
    2.1450   -7.2050    0.0000 C   0  0  0  0  0  0  0  0  0  0  0  0
    4.9499   -8.8550    0.0000 C   0  0  0  0  0  0  0  0  0  0  0  0
    2.8600   -4.3450    0.0000 C   0  0  0  0  0  0  0  0  0  0  0  0
    1.4300   -8.4699    0.0000 C   0  0  0  0  0  0  0  0  0  0  0  0
    2.1450   -8.9099    0.0000 C   0  0  0  0  0  0  0  0  0  0  0  0
    1.4300   -7.6450    0.0000 C   0  0  0  0  0  0  0  0  0  0  0  0
    5.7200   -7.5899    0.0000 C   0  0  0  0  0  0  0  0  0  0  0  0
    3.5200   -9.6800    0.0000 C   0  0  0  0  0  0  0  0  0  0  0  0
    0.6600   -8.0849    0.0000 C   0  0  0  0  0  0  0  0  0  0  0  0
    3.5200  -10.5599    0.0000 C   0  0  0  0  0  0  0  0  0  0  0  0
    2.6950   -9.6800    0.0000 C   0  0  0  0  0  0  0  0  0  0  0  0
    4.3450   -9.7349    0.0000 C   0  0  0  0  0  0  0  0  0  0  0  0
    1.5950   -3.6300    0.0000 C   0  0  0  0  0  0  0  0  0  0  0  0
    0.7150   -9.7349    0.0000 C   0  0  0  0  0  0  0  0  0  0  0  0
    1.9800   -2.8600    0.0000 C   0  0  3  0  0  0  0  0  0  0  0  0
    1.5950   -2.2000    0.0000 C   0  0  0  0  0  0  0  0  0  0  0  0
    0.0000  -10.1749    0.0000 C   0  0  0  0  0  0  0  0  0  0  0  0
    1.9800   -1.4300    0.0000 C   0  0  0  0  0  0  0  0  0  0  0  0
    2.8050   -1.4300    0.0000 C   0  0  0  0  0  0  0  0  0  0  0  0
    1.5950   -0.7150    0.0000 C   0  0  0  0  0  0  0  0  0  0  0  0
    3.2450   -0.7150    0.0000 C   0  0  0  0  0  0  0  0  0  0  0  0
    0.0000  -10.9999    0.0000 C   0  0  0  0  0  0  0  0  0  0  0  0
    1.9800    0.0000    0.0000 C   0  0  0  0  0  0  0  0  0  0  0  0
    2.8050    0.0000    0.0000 C   0  0  0  0  0  0  0  0  0  0  0  0
  1 17  1  0  0  0  0
  1 28  1  0  0  0  0
  2 24  1  0  0  0  0
  2 34  1  0  0  0  0
  3 22  2  0  0  0  0
  4 22  1  0  0  0  0
  5 23  2  0  0  0  0
  6 35  1  0  0  0  0
  7 39  1  0  0  0  0
  8 10  1  0  0  0  0
  8 13  1  0  0  0  0
  8 15  1  0  0  0  0
  9 13  1  0  0  0  0
  9 20  1  0  0  0  0
  9 21  1  0  0  0  0
 10 18  2  0  0  0  0
 11 15  1  0  0  0  0
 11 16  2  0  0  0  0
 12 23  1  0  0  0  0
 12 33  1  0  0  0  0
 13 14  2  0  0  0  0
 14 16  1  0  0  0  0
 14 17  1  0  0  0  0
 15 19  2  0  0  0  0
 16 27  1  0  0  0  0
 17 22  1  0  0  0  0
 18 19  1  0  0  0  0
 18 23  1  0  0  0  0
 20 25  1  0  0  0  0
 21 26  1  0  0  0  0
 24 25  1  0  0  0  0
 24 26  1  0  0  0  0
 24 29  1  0  0  0  0
 28 30  1  0  0  0  0
 28 31  1  0  0  0  0
 28 32  1  0  0  0  0
 33 35  1  0  0  0  0
 34 37  1  0  0  0  0
 35 36  1  0  0  0  0
 36 38  1  0  0  0  0
 37 42  2  0  0  0  0
 38 39  1  0  0  0  0
 38 40  2  0  0  0  0
 39 41  2  0  0  0  0
 40 43  1  0  0  0  0
 41 44  1  0  0  0  0
 43 44  2  0  0  0  0
M  END
> <PUBCHEM_COMPOUND_ID_TYPE>
0

> <PUBCHEM_TOTAL_CHARGE>
0

> <PUBCHEM_SUBSTANCE_ID>
310936508

> <PUBCHEM_SUBSTANCE_VERSION>
1

> <PUBCHEM_EXT_DATASOURCE_NAME>
4488

> <PUBCHEM_EXT_DATASOURCE_REGID>
SCHEMBL16114159

> <PUBCHEM_SUBSTANCE_COMMENT>
InChI=1S/C32H43N5O7/c1-7-16-43-32(6)12-14-36(15-13-32)29-26(27(30(41)42)44-31(3,4)5)20(2)34-25-18-23(35-37(25)29)28(40)33-19-22(38)17-21-10-8-9-11-24(21)39/h7-11,18,22,27,38-39H,1,12-17,19H2,2-6H3,(H,33,40)(H,41,42)
InChIKey=XAPJXDUJGCGPFB-UHFFFAOYSA-N

> <PUBCHEM_SUBSTANCE_SYNONYM>
SCHEMBL16114159

> <PUBCHEM_XREF_EXT_ID>
SCHEMBL16114159

> <PUBCHEM_EXT_DATASOURCE_URL>
https://www.surechembl.org/

> <PUBCHEM_EXT_SUBSTANCE_URL>
https://www.surechembl.org/chemical/SCHEMBL16114159

> <PUBCHEM_CID_ASSOCIATIONS>
117604435  1

> <PUBCHEM_COORDINATE_TYPE>
1
3

$$$$
