310930014
  -OEChem-07211613022D

 50 53  0     1  0  0  0  0  0999 V2000
    5.0461   -5.0932    0.0000 S   0  0  0  0  0  0  0  0  0  0  0  0
    5.8478   -5.0932    0.0000 O   0  0  0  0  0  0  0  0  0  0  0  0
    5.0461   -4.2444    0.0000 O   0  0  0  0  0  0  0  0  0  0  0  0
    2.5466   -3.6312    0.0000 O   0  0  0  0  0  0  0  0  0  0  0  0
    1.6978   -3.6312    0.0000 O   0  0  0  0  0  0  0  0  0  0  0  0
    7.9227   -5.0932    0.0000 O   0  0  0  0  0  0  0  0  0  0  0  0
    8.6773   -6.3665    0.0000 O   0  0  0  0  0  0  0  0  0  0  0  0
    4.1972   -5.0932    0.0000 N   0  0  0  0  0  0  0  0  0  0  0  0
    2.4995   -5.0461    0.0000 N   0  0  0  0  0  0  0  0  0  0  0  0
    0.4244   -4.3387    0.0000 N   0  0  0  0  0  0  0  0  0  0  0  0
    2.7352   -0.8961    0.0000 N   0  0  0  0  0  0  0  0  0  0  0  0
    1.3205    0.0000    0.0000 N   0  0  0  0  0  0  0  0  0  0  0  0
    1.6506   -9.4319    0.0000 N   0  0  0  0  0  0  0  0  0  0  0  0
    3.7727   -4.3858    0.0000 C   0  0  3  0  0  0  0  0  0  0  0  0
    2.9710   -4.3387    0.0000 C   0  0  0  0  0  0  0  0  0  0  0  0
    1.6978   -5.0461    0.0000 C   0  0  3  0  0  0  0  0  0  0  0  0
    5.0461   -5.9421    0.0000 C   0  0  0  0  0  0  0  0  0  0  0  0
    5.7534   -6.3665    0.0000 C   0  0  0  0  0  0  0  0  0  0  0  0
    1.2733   -4.3387    0.0000 C   0  0  0  0  0  0  0  0  0  0  0  0
    6.5080   -5.9421    0.0000 C   0  0  0  0  0  0  0  0  0  0  0  0
    7.2154   -6.3665    0.0000 C   0  0  0  0  0  0  0  0  0  0  0  0
    1.2733   -5.8006    0.0000 C   0  0  0  0  0  0  0  0  0  0  0  0
    1.6978   -6.5080    0.0000 C   0  0  0  0  0  0  0  0  0  0  0  0
    4.1972   -3.6312    0.0000 C   0  0  0  0  0  0  0  0  0  0  0  0
    5.7534   -7.1682    0.0000 C   0  0  0  0  0  0  0  0  0  0  0  0
    7.2154   -7.1682    0.0000 C   0  0  0  0  0  0  0  0  0  0  0  0
    6.5080   -7.5927    0.0000 C   0  0  0  0  0  0  0  0  0  0  0  0
    7.9227   -5.9421    0.0000 C   0  0  0  0  0  0  0  0  0  0  0  0
    1.2733   -7.2625    0.0000 C   0  0  0  0  0  0  0  0  0  0  0  0
    1.6506   -7.9700    0.0000 C   0  0  0  0  0  0  0  0  0  0  0  0
    0.4716   -2.8767    0.0000 C   0  0  0  0  0  0  0  0  0  0  0  0
    2.4995   -6.5551    0.0000 C   0  0  0  0  0  0  0  0  0  0  0  0
    3.8199   -2.9239    0.0000 C   0  0  0  0  0  0  0  0  0  0  0  0
    0.0000   -3.5841    0.0000 C   0  0  0  0  0  0  0  0  0  0  0  0
    1.2733   -1.4148    0.0000 C   0  0  0  0  0  0  0  0  0  0  0  0
    2.4995   -7.9700    0.0000 C   0  0  0  0  0  0  0  0  0  0  0  0
    2.9239   -7.2625    0.0000 C   0  0  0  0  0  0  0  0  0  0  0  0
    1.2733   -2.8767    0.0000 C   0  0  0  0  0  0  0  0  0  0  0  0
    0.0471   -2.1222    0.0000 C   0  0  0  0  0  0  0  0  0  0  0  0
    1.6978   -2.1693    0.0000 C   0  0  0  0  0  0  0  0  0  0  0  0
    0.4716   -1.4148    0.0000 C   0  0  0  0  0  0  0  0  0  0  0  0
    4.1972   -2.1693    0.0000 C   0  0  0  0  0  0  0  0  0  0  0  0
    1.7449   -0.7074    0.0000 C   0  0  0  0  0  0  0  0  0  0  0  0
    3.8199   -1.4619    0.0000 C   0  0  0  0  0  0  0  0  0  0  0  0
    1.2261   -8.6773    0.0000 C   0  0  0  0  0  0  0  0  0  0  0  0
    2.9710   -1.4619    0.0000 C   0  0  0  0  0  0  0  0  0  0  0  0
    4.2444   -0.7546    0.0000 C   0  0  0  0  0  0  0  0  0  0  0  0
    2.5466   -0.7074    0.0000 C   0  0  0  0  0  0  0  0  0  0  0  0
    3.8199    0.0000    0.0000 C   0  0  0  0  0  0  0  0  0  0  0  0
    2.9710    0.0000    0.0000 C   0  0  0  0  0  0  0  0  0  0  0  0
  1  2  2  0  0  0  0
  1  3  2  0  0  0  0
  1  8  1  0  0  0  0
  1 17  1  0  0  0  0
  4 15  2  0  0  0  0
  5 19  2  0  0  0  0
  6 28  2  0  0  0  0
  7 28  1  0  0  0  0
  8 14  1  0  0  0  0
  9 15  1  0  0  0  0
  9 16  1  0  0  0  0
 10 19  1  0  0  0  0
 10 34  1  0  0  0  0
 11 43  2  3  0  0  0
 12 43  1  0  0  0  0
 13 45  1  0  0  0  0
 14 15  1  0  0  0  0
 14 24  1  0  0  0  0
 16 19  1  0  0  0  0
 16 22  1  0  0  0  0
 17 18  1  0  0  0  0
 18 20  1  0  0  0  0
 18 25  2  0  0  0  0
 20 21  2  0  0  0  0
 21 26  1  0  0  0  0
 21 28  1  0  0  0  0
 22 23  1  0  0  0  0
 23 29  1  0  0  0  0
 23 32  2  0  0  0  0
 24 33  1  0  0  0  0
 25 27  1  0  0  0  0
 26 27  2  0  0  0  0
 29 30  2  0  0  0  0
 30 36  1  0  0  0  0
 30 45  1  0  0  0  0
 31 34  1  0  0  0  0
 31 38  2  0  0  0  0
 31 39  1  0  0  0  0
 32 37  1  0  0  0  0
 33 42  1  0  0  0  0
 35 40  2  0  0  0  0
 35 41  1  0  0  0  0
 35 43  1  0  0  0  0
 36 37  2  0  0  0  0
 38 40  1  0  0  0  0
 39 41  2  0  0  0  0
 42 44  1  0  0  0  0
 44 46  2  0  0  0  0
 44 47  1  0  0  0  0
 46 48  1  0  0  0  0
 47 49  2  0  0  0  0
 48 50  2  0  0  0  0
 49 50  1  0  0  0  0
M  END
> <PUBCHEM_COMPOUND_ID_TYPE>
0

> <PUBCHEM_TOTAL_CHARGE>
0

> <PUBCHEM_SUBSTANCE_ID>
310930014

> <PUBCHEM_SUBSTANCE_VERSION>
1

> <PUBCHEM_EXT_DATASOURCE_NAME>
4488

> <PUBCHEM_EXT_DATASOURCE_REGID>
SCHEMBL16107253

> <PUBCHEM_SUBSTANCE_COMMENT>
InChI=1S/C37H42N6O6S/c38-22-28-11-4-10-27(19-28)21-33(35(44)41-23-26-15-17-30(18-16-26)34(39)40)42-36(45)32(14-6-9-25-7-2-1-3-8-25)43-50(48,49)24-29-12-5-13-31(20-29)37(46)47/h1-5,7-8,10-13,15-20,32-33,43H,6,9,14,21-24,38H2,(H3,39,40)(H,41,44)(H,42,45)(H,46,47)
InChIKey=BHQDUYVBGREBCB-UHFFFAOYSA-N

> <PUBCHEM_SUBSTANCE_SYNONYM>
SCHEMBL16107253

> <PUBCHEM_XREF_EXT_ID>
SCHEMBL16107253

> <PUBCHEM_EXT_DATASOURCE_URL>
https://www.surechembl.org/

> <PUBCHEM_EXT_SUBSTANCE_URL>
https://www.surechembl.org/chemical/SCHEMBL16107253

> <PUBCHEM_CID_ASSOCIATIONS>
24956885  1

> <PUBCHEM_COORDINATE_TYPE>
1
3

$$$$
