310930471
  -OEChem-07211613022D

 17 18  0     1  0  0  0  0  0999 V2000
    2.5209   -0.8338    0.0000 S   0  0  0  0  0  0  0  0  0  0  0  0
    1.6871   -0.8338    0.0000 O   0  0  0  0  0  0  0  0  0  0  0  0
    2.5209   -1.6676    0.0000 O   0  0  0  0  0  0  0  0  0  0  0  0
    2.5209    0.0000    0.0000 O   0  0  0  0  0  0  0  0  0  0  0  0
    1.6289   -2.2688    0.0000 N   0  0  0  0  0  0  0  0  0  0  0  0
    3.3547   -0.8338    0.0000 C   0  0  0  0  0  0  0  0  0  0  0  0
    1.2604   -1.5319    0.0000 C   0  0  3  0  0  0  0  0  0  0  0  0
    3.7619   -0.1163    0.0000 C   0  0  0  0  0  0  0  0  0  0  0  0
    3.7619   -1.5513    0.0000 C   0  0  0  0  0  0  0  0  0  0  0  0
    5.0030   -0.8338    0.0000 C   0  0  0  0  0  0  0  0  0  0  0  0
    4.5764   -0.1163    0.0000 C   0  0  0  0  0  0  0  0  0  0  0  0
    4.5764   -1.5513    0.0000 C   0  0  0  0  0  0  0  0  0  0  0  0
    0.4266   -1.5513    0.0000 C   0  0  0  0  0  0  0  0  0  0  0  0
    1.2217   -2.9669    0.0000 C   0  0  0  0  0  0  0  0  0  0  0  0
    0.0000   -2.2300    0.0000 C   0  0  0  0  0  0  0  0  0  0  0  0
    0.3878   -2.9862    0.0000 C   0  0  0  0  0  0  0  0  0  0  0  0
    5.8174   -0.8338    0.0000 C   0  0  0  0  0  0  0  0  0  0  0  0
  1  2  1  0  0  0  0
  1  3  2  0  0  0  0
  1  4  2  0  0  0  0
  1  6  1  0  0  0  0
  2  7  1  0  0  0  0
  5  7  1  0  0  0  0
  5 14  1  0  0  0  0
  6  8  2  0  0  0  0
  6  9  1  0  0  0  0
  7 13  1  0  0  0  0
  8 11  1  0  0  0  0
  9 12  2  0  0  0  0
 10 11  2  0  0  0  0
 10 12  1  0  0  0  0
 10 17  1  0  0  0  0
 13 15  1  0  0  0  0
 14 16  1  0  0  0  0
 15 16  1  0  0  0  0
M  END
> <PUBCHEM_COMPOUND_ID_TYPE>
0

> <PUBCHEM_TOTAL_CHARGE>
0

> <PUBCHEM_SUBSTANCE_ID>
310930471

> <PUBCHEM_SUBSTANCE_VERSION>
1

> <PUBCHEM_EXT_DATASOURCE_NAME>
4488

> <PUBCHEM_EXT_DATASOURCE_REGID>
SCHEMBL16107761

> <PUBCHEM_SUBSTANCE_COMMENT>
InChI=1S/C12H17NO3S/c1-10-5-7-11(8-6-10)17(14,15)16-12-4-2-3-9-13-12/h5-8,12-13H,2-4,9H2,1H3
InChIKey=OFLGPDXHUIPBCU-UHFFFAOYSA-N

> <PUBCHEM_SUBSTANCE_SYNONYM>
SCHEMBL16107761

> <PUBCHEM_XREF_EXT_ID>
SCHEMBL16107761

> <PUBCHEM_EXT_DATASOURCE_URL>
https://www.surechembl.org/

> <PUBCHEM_EXT_SUBSTANCE_URL>
https://www.surechembl.org/chemical/SCHEMBL16107761

> <PUBCHEM_CID_ASSOCIATIONS>
117599591  1

> <PUBCHEM_COORDINATE_TYPE>
1
3

$$$$
