310943516
  -OEChem-07211613022D

 38 42  0     1  0  0  0  0  0999 V2000
    2.4309    2.6367    0.0000 O   0  0  0  0  0  0  0  0  0  0  0  0
    3.2316    1.1840    0.0000 N   0  0  0  0  0  0  0  0  0  0  0  0
    2.1335   -2.2135    0.0000 N   0  0  0  0  0  0  0  0  0  0  0  0
    1.2068   -2.6367    0.0000 N   0  0  0  0  0  0  0  0  0  0  0  0
   -3.2659   -0.8751    0.0000 N   0  0  3  0  0  0  0  0  0  0  0  0
   -1.1382    2.2364    0.0000 N   0  0  0  0  0  0  0  0  0  0  0  0
    4.9932    0.6349    0.0000 N   0  0  3  0  0  0  0  0  0  0  0  0
   -5.0276   -0.3261    0.0000 N   0  0  3  0  0  0  0  0  0  0  0  0
    0.3031    0.3718    0.0000 C   0  0  0  0  0  0  0  0  0  0  0  0
    1.0353   -0.0286    0.0000 C   0  0  0  0  0  0  0  0  0  0  0  0
   -0.4061   -0.0401    0.0000 C   0  0  0  0  0  0  0  0  0  0  0  0
    1.7445    1.1954    0.0000 C   0  0  0  0  0  0  0  0  0  0  0  0
    1.0124   -0.9666    0.0000 C   0  0  0  0  0  0  0  0  0  0  0  0
    1.7331    0.3833    0.0000 C   0  0  0  0  0  0  0  0  0  0  0  0
   -1.1382    0.3603    0.0000 C   0  0  0  0  0  0  0  0  0  0  0  0
    0.3146    1.1954    0.0000 C   0  0  0  0  0  0  0  0  0  0  0  0
    2.4309    1.6072    0.0000 C   0  0  0  0  0  0  0  0  0  0  0  0
    1.0238    1.5958    0.0000 C   0  0  0  0  0  0  0  0  0  0  0  0
   -0.4175   -0.8751    0.0000 C   0  0  0  0  0  0  0  0  0  0  0  0
   -1.8246   -0.0401    0.0000 C   0  0  0  0  0  0  0  0  0  0  0  0
   -1.8475   -0.8751    0.0000 C   0  0  0  0  0  0  0  0  0  0  0  0
    2.0304   -1.1840    0.0000 C   0  0  0  0  0  0  0  0  0  0  0  0
    0.5205   -1.8703    0.0000 C   0  0  0  0  0  0  0  0  0  0  0  0
   -1.1153   -1.2755    0.0000 C   0  0  0  0  0  0  0  0  0  0  0  0
   -1.1382    1.3899    0.0000 C   0  0  0  0  0  0  0  0  0  0  0  0
   -2.5338   -1.2755    0.0000 C   0  0  0  0  0  0  0  0  0  0  0  0
    3.5290    0.4175    0.0000 C   0  0  0  0  0  0  0  0  0  0  0  0
    3.6320    1.8932    0.0000 C   0  0  0  0  0  0  0  0  0  0  0  0
    4.3298    0.1887    0.0000 C   0  0  0  0  0  0  0  0  0  0  0  0
    4.4671    2.0076    0.0000 C   0  0  0  0  0  0  0  0  0  0  0  0
   -3.9409   -1.3327    0.0000 C   0  0  0  0  0  0  0  0  0  0  0  0
   -3.1973   -0.0629    0.0000 C   0  0  0  0  0  0  0  0  0  0  0  0
    5.0390    1.4585    0.0000 C   0  0  0  0  0  0  0  0  0  0  0  0
   -4.7302   -1.0925    0.0000 C   0  0  0  0  0  0  0  0  0  0  0  0
   -3.8036    0.5090    0.0000 C   0  0  0  0  0  0  0  0  0  0  0  0
   -4.6043    0.3833    0.0000 C   0  0  0  0  0  0  0  0  0  0  0  0
    5.8741    0.1315    0.0000 C   0  0  0  0  0  0  0  0  0  0  0  0
   -5.8741   -0.3374    0.0000 C   0  0  0  0  0  0  0  0  0  0  0  0
  1 17  2  0  0  0  0
  2 17  1  0  0  0  0
  2 27  1  0  0  0  0
  2 28  1  0  0  0  0
  3  4  1  0  0  0  0
  3 22  2  0  0  0  0
  4 23  1  0  0  0  0
  5 26  1  0  0  0  0
  5 31  1  0  0  0  0
  5 32  1  0  0  0  0
  6 25  3  0  0  0  0
  7 29  1  0  0  0  0
  7 33  1  0  0  0  0
  7 37  1  0  0  0  0
  8 34  1  0  0  0  0
  8 36  1  0  0  0  0
  8 38  1  0  0  0  0
  9 10  2  0  0  0  0
  9 11  1  0  0  0  0
  9 16  1  0  0  0  0
 10 13  1  0  0  0  0
 10 14  1  0  0  0  0
 11 15  2  0  0  0  0
 11 19  1  0  0  0  0
 12 14  2  0  0  0  0
 12 17  1  0  0  0  0
 12 18  1  0  0  0  0
 13 22  1  0  0  0  0
 13 23  2  0  0  0  0
 15 20  1  0  0  0  0
 15 25  1  0  0  0  0
 16 18  2  0  0  0  0
 19 24  2  0  0  0  0
 20 21  2  0  0  0  0
 21 24  1  0  0  0  0
 21 26  1  0  0  0  0
 27 29  1  0  0  0  0
 28 30  1  0  0  0  0
 30 33  1  0  0  0  0
 31 34  1  0  0  0  0
 32 35  1  0  0  0  0
 35 36  1  0  0  0  0
M  END
> <PUBCHEM_COMPOUND_ID_TYPE>
0

> <PUBCHEM_TOTAL_CHARGE>
0

> <PUBCHEM_SUBSTANCE_ID>
310943516

> <PUBCHEM_SUBSTANCE_VERSION>
1

> <PUBCHEM_EXT_DATASOURCE_NAME>
4488

> <PUBCHEM_EXT_DATASOURCE_REGID>
SCHEMBL16121582

> <PUBCHEM_SUBSTANCE_COMMENT>
InChI=1S/C30H37N7O/c1-34-9-3-11-36(15-13-34)22-23-5-7-27(25(17-23)19-31)28-8-6-24(18-29(28)26-20-32-33-21-26)30(38)37-12-4-10-35(2)14-16-37/h5-8,17-18,20-21H,3-4,9-16,22H2,1-2H3,(H,32,33)
InChIKey=SJMGUOJNPXGWLF-UHFFFAOYSA-N

> <PUBCHEM_SUBSTANCE_SYNONYM>
SCHEMBL16121582

> <PUBCHEM_XREF_EXT_ID>
SCHEMBL16121582

> <PUBCHEM_EXT_DATASOURCE_URL>
https://www.surechembl.org/

> <PUBCHEM_EXT_SUBSTANCE_URL>
https://www.surechembl.org/chemical/SCHEMBL16121582

> <PUBCHEM_CID_ASSOCIATIONS>
86301684  1

> <PUBCHEM_COORDINATE_TYPE>
1
3

$$$$
