310935703
  -OEChem-07211613022D

 40 45  0     1  0  0  0  0  0999 V2000
    5.7159   -3.6860    0.0000 S   0  0  0  0  0  0  0  0  0  0  0  0
    6.1433   -4.4873    0.0000 O   0  0  0  0  0  0  0  0  0  0  0  0
    5.3153   -2.9915    0.0000 O   0  0  0  0  0  0  0  0  0  0  0  0
    2.1368   -4.1134    0.0000 N   0  0  3  0  0  0  0  0  0  0  0  0
    0.7212   -4.1134    0.0000 N   0  0  0  0  0  0  0  0  0  0  0  0
    0.0000   -2.8580    0.0000 N   0  0  0  0  0  0  0  0  0  0  0  0
    6.3837   -3.2853    0.0000 N   0  0  3  0  0  0  0  0  0  0  0  0
    4.4606   -1.3889    0.0000 N   0  0  0  0  0  0  0  0  0  0  0  0
    3.5791    0.0000    0.0000 N   0  0  0  0  0  0  0  0  0  0  0  0
    4.2736   -1.2287    0.0000 N   0  0  0  0  0  0  0  0  0  0  0  0
    1.4424   -2.8580    0.0000 C   0  0  0  0  0  0  0  0  0  0  0  0
    1.4156   -3.6860    0.0000 C   0  0  0  0  0  0  0  0  0  0  0  0
    0.7212   -2.4573    0.0000 C   0  0  0  0  0  0  0  0  0  0  0  0
    3.5791   -4.1134    0.0000 C   0  0  0  0  0  0  0  0  0  0  0  0
    4.9948   -4.1134    0.0000 C   0  0  0  0  0  0  0  0  0  0  0  0
    3.5791   -4.9414    0.0000 C   0  0  0  0  0  0  0  0  0  0  0  0
    2.8580   -3.6860    0.0000 C   0  0  0  0  0  0  0  0  0  0  0  0
    0.7212   -1.6560    0.0000 C   0  0  0  0  0  0  0  0  0  0  0  0
    2.1368   -2.4841    0.0000 C   0  0  0  0  0  0  0  0  0  0  0  0
    2.1368   -1.6560    0.0000 C   0  0  0  0  0  0  0  0  0  0  0  0
    4.2736   -3.6860    0.0000 C   0  0  0  0  0  0  0  0  0  0  0  0
    2.1368   -4.9414    0.0000 C   0  0  0  0  0  0  0  0  0  0  0  0
    1.4156   -1.2287    0.0000 C   0  0  0  0  0  0  0  0  0  0  0  0
    2.8580   -5.3420    0.0000 C   0  0  0  0  0  0  0  0  0  0  0  0
    4.9948   -4.9414    0.0000 C   0  0  0  0  0  0  0  0  0  0  0  0
    4.2736   -5.3420    0.0000 C   0  0  0  0  0  0  0  0  0  0  0  0
    2.8580   -1.2287    0.0000 C   0  0  0  0  0  0  0  0  0  0  0  0
    0.0000   -3.7127    0.0000 C   0  0  0  0  0  0  0  0  0  0  0  0
    6.3837   -2.4841    0.0000 C   0  0  0  0  0  0  0  0  0  0  0  0
    0.0000   -1.2287    0.0000 C   0  0  0  0  0  0  0  0  0  0  0  0
    3.5791   -1.6293    0.0000 C   0  0  0  0  0  0  0  0  0  0  0  0
    2.8847   -0.4007    0.0000 C   0  0  0  0  0  0  0  0  0  0  0  0
    5.6892   -2.0567    0.0000 C   0  0  0  0  0  0  0  0  0  0  0  0
    7.1049   -3.7127    0.0000 C   0  0  0  0  0  0  0  0  0  0  0  0
    5.6892   -1.2287    0.0000 C   0  0  0  0  0  0  0  0  0  0  0  0
    4.9681   -2.4573    0.0000 C   0  0  0  0  0  0  0  0  0  0  0  0
    4.3270   -0.4007    0.0000 C   0  0  0  0  0  0  0  0  0  0  0  0
    4.9681   -0.8013    0.0000 C   0  0  0  0  0  0  0  0  0  0  0  0
    4.2736   -2.0567    0.0000 C   0  0  0  0  0  0  0  0  0  0  0  0
    3.5525   -0.8280    0.0000 C   0  0  0  0  0  0  0  0  0  0  0  0
  1  2  2  0  0  0  0
  1  3  2  0  0  0  0
  1  7  1  0  0  0  0
  1 15  1  0  0  0  0
  4 12  1  0  0  0  0
  4 17  1  0  0  0  0
  4 22  1  0  0  0  0
  5 12  1  0  0  0  0
  5 28  2  0  0  0  0
  6 13  2  0  0  0  0
  6 28  1  0  0  0  0
  7 29  1  0  0  0  0
  7 34  1  0  0  0  0
  8 31  2  0  0  0  0
  8 37  1  0  0  0  0
  9 32  1  0  0  0  0
  9 37  2  0  0  0  0
 10 38  1  0  0  0  0
 10 39  1  0  0  0  0
 10 40  1  0  0  0  0
 11 12  2  0  0  0  0
 11 13  1  0  0  0  0
 11 19  1  0  0  0  0
 13 18  1  0  0  0  0
 14 16  2  0  0  0  0
 14 17  1  0  0  0  0
 14 21  1  0  0  0  0
 15 21  2  0  0  0  0
 15 25  1  0  0  0  0
 16 24  1  0  0  0  0
 16 26  1  0  0  0  0
 18 23  2  0  0  0  0
 18 30  1  0  0  0  0
 19 20  2  0  0  0  0
 20 23  1  0  0  0  0
 20 27  1  0  0  0  0
 22 24  1  0  0  0  0
 25 26  2  0  0  0  0
 27 31  1  0  0  0  0
 27 32  2  0  0  0  0
 29 33  1  0  0  0  0
 33 35  1  0  0  0  0
 33 36  1  0  0  0  0
 35 38  1  0  0  0  0
 36 39  1  0  0  0  0
M  END
> <PUBCHEM_COMPOUND_ID_TYPE>
0

> <PUBCHEM_TOTAL_CHARGE>
0

> <PUBCHEM_SUBSTANCE_ID>
310935703

> <PUBCHEM_SUBSTANCE_VERSION>
1

> <PUBCHEM_EXT_DATASOURCE_NAME>
4488

> <PUBCHEM_EXT_DATASOURCE_REGID>
SCHEMBL16113287

> <PUBCHEM_SUBSTANCE_COMMENT>
InChI=1S/C30H35N7O2S/c1-21-12-24(26-15-31-19-32-16-26)14-28-29(21)33-20-34-30(28)37-11-8-23-4-5-27(13-25(23)18-37)40(38,39)36(3)17-22-6-9-35(2)10-7-22/h4-5,12-16,19-20,22H,6-11,17-18H2,1-3H3
InChIKey=NLGPJCNXEIYULW-UHFFFAOYSA-N

> <PUBCHEM_SUBSTANCE_SYNONYM>
SCHEMBL16113287

> <PUBCHEM_XREF_EXT_ID>
SCHEMBL16113287

> <PUBCHEM_EXT_DATASOURCE_URL>
https://www.surechembl.org/

> <PUBCHEM_EXT_SUBSTANCE_URL>
https://www.surechembl.org/chemical/SCHEMBL16113287

> <PUBCHEM_CID_ASSOCIATIONS>
86300771  1

> <PUBCHEM_COORDINATE_TYPE>
1
3

$$$$
