310934928
  -OEChem-07211613022D

 23 25  0     1  0  0  0  0  0999 V2000
    6.3080   -0.6533    0.0000 F   0  0  0  0  0  0  0  0  0  0  0  0
    0.0000   -4.5057    0.0000 F   0  0  0  0  0  0  0  0  0  0  0  0
    5.1365   -2.9062    0.0000 O   0  0  0  0  0  0  0  0  0  0  0  0
    5.1365   -1.4869    0.0000 O   0  0  0  0  0  0  0  0  0  0  0  0
    2.0726   -3.8749    0.0000 N   0  0  0  0  0  0  0  0  0  0  0  0
    3.8975   -2.1853    0.0000 C   0  0  3  0  0  0  0  0  0  0  0  0
    4.2804   -1.4644    0.0000 C   0  0  0  0  0  0  0  0  0  0  0  0
    3.4244   -2.8612    0.0000 C   0  0  0  0  0  0  0  0  0  0  0  0
    2.6584   -2.6133    0.0000 C   0  0  0  0  0  0  0  0  0  0  0  0
    3.4244   -1.5320    0.0000 C   0  0  0  0  0  0  0  0  0  0  0  0
    4.7310   -2.1853    0.0000 C   0  0  0  0  0  0  0  0  0  0  0  0
    5.2717   -1.5770    0.0000 C   0  0  0  0  0  0  0  0  0  0  0  0
    2.6584   -1.8023    0.0000 C   0  0  0  0  0  0  0  0  0  0  0  0
    1.9825   -3.0864    0.0000 C   0  0  0  0  0  0  0  0  0  0  0  0
    3.8299   -0.7659    0.0000 C   0  0  0  0  0  0  0  0  0  0  0  0
    5.4745   -0.6984    0.0000 C   0  0  0  0  0  0  0  0  0  0  0  0
    4.2128   -0.0451    0.0000 C   0  0  0  0  0  0  0  0  0  0  0  0
    5.0464    0.0000    0.0000 C   0  0  0  0  0  0  0  0  0  0  0  0
    1.2391   -2.7259    0.0000 C   0  0  0  0  0  0  0  0  0  0  0  0
    5.5421   -2.0952    0.0000 C   0  0  0  0  0  0  0  0  0  0  0  0
    1.4193   -4.3931    0.0000 C   0  0  0  0  0  0  0  0  0  0  0  0
    0.5857   -3.2441    0.0000 C   0  0  0  0  0  0  0  0  0  0  0  0
    0.6758   -4.0326    0.0000 C   0  0  0  0  0  0  0  0  0  0  0  0
  1 16  1  0  0  0  0
  2 23  1  0  0  0  0
  3 11  2  0  0  0  0
  4 11  1  0  0  0  0
  5 14  1  0  0  0  0
  5 21  2  0  0  0  0
  6  7  1  0  0  0  0
  6  8  1  0  0  0  0
  6 10  1  0  0  0  0
  6 11  1  0  0  0  0
  7 12  1  0  0  0  0
  7 15  2  0  0  0  0
  8  9  2  0  0  0  0
  9 13  1  0  0  0  0
  9 14  1  0  0  0  0
 10 13  1  0  0  0  0
 12 16  2  0  0  0  0
 12 20  1  0  0  0  0
 14 19  2  0  0  0  0
 15 17  1  0  0  0  0
 16 18  1  0  0  0  0
 17 18  2  0  0  0  0
 19 22  1  0  0  0  0
 21 23  1  0  0  0  0
 22 23  2  0  0  0  0
M  END
> <PUBCHEM_COMPOUND_ID_TYPE>
0

> <PUBCHEM_TOTAL_CHARGE>
0

> <PUBCHEM_SUBSTANCE_ID>
310934928

> <PUBCHEM_SUBSTANCE_VERSION>
1

> <PUBCHEM_EXT_DATASOURCE_NAME>
4488

> <PUBCHEM_EXT_DATASOURCE_REGID>
SCHEMBL16112442

> <PUBCHEM_SUBSTANCE_COMMENT>
InChI=1S/C18H15F2NO2/c1-11-14(3-2-4-15(11)20)18(17(22)23)8-7-12(9-18)16-6-5-13(19)10-21-16/h2-6,9-10H,7-8H2,1H3,(H,22,23)
InChIKey=NPFWILCVLROFSB-UHFFFAOYSA-N

> <PUBCHEM_SUBSTANCE_SYNONYM>
SCHEMBL16112442

> <PUBCHEM_XREF_EXT_ID>
SCHEMBL16112442

> <PUBCHEM_EXT_DATASOURCE_URL>
https://www.surechembl.org/

> <PUBCHEM_EXT_SUBSTANCE_URL>
https://www.surechembl.org/chemical/SCHEMBL16112442

> <PUBCHEM_CID_ASSOCIATIONS>
117603051  1

> <PUBCHEM_COORDINATE_TYPE>
1
3

$$$$
