310931545
  -OEChem-07211613022D

 30 34  0     1  0  0  0  0  0999 V2000
    0.4074   -2.7705    0.0000 O   0  0  0  0  0  0  0  0  0  0  0  0
    2.9742   -6.8041    0.0000 O   0  0  0  0  0  0  0  0  0  0  0  0
    1.8742    0.0000    0.0000 O   0  0  0  0  0  0  0  0  0  0  0  0
    1.8742   -2.5261    0.0000 N   0  0  0  0  0  0  0  0  0  0  0  0
    2.2816   -3.8298    0.0000 N   0  0  0  0  0  0  0  0  0  0  0  0
    3.3409   -2.7705    0.0000 N   0  0  0  0  0  0  0  0  0  0  0  0
    1.1815   -8.1486    0.0000 N   0  0  0  0  0  0  0  0  0  0  0  0
    1.4667   -3.8298    0.0000 C   0  0  3  0  0  0  0  0  0  0  0  0
    1.1815   -3.0150    0.0000 C   0  0  0  0  0  0  0  0  0  0  0  0
    0.9371   -4.4817    0.0000 C   0  0  0  0  0  0  0  0  0  0  0  0
    1.8334   -4.5632    0.0000 C   0  0  0  0  0  0  0  0  0  0  0  0
    2.5261   -3.0150    0.0000 C   0  0  0  0  0  0  0  0  0  0  0  0
    0.8556   -5.3373    0.0000 C   0  0  0  0  0  0  0  0  0  0  0  0
    0.1630   -4.8484    0.0000 C   0  0  0  0  0  0  0  0  0  0  0  0
    1.8742   -1.7112    0.0000 C   0  0  0  0  0  0  0  0  0  0  0  0
    1.3853   -5.2559    0.0000 C   0  0  0  0  0  0  0  0  0  0  0  0
    2.6483   -4.6040    0.0000 C   0  0  0  0  0  0  0  0  0  0  0  0
    1.7520   -5.9892    0.0000 C   0  0  0  0  0  0  0  0  0  0  0  0
    2.5668   -6.0707    0.0000 C   0  0  0  0  0  0  0  0  0  0  0  0
    3.0557   -5.3781    0.0000 C   0  0  0  0  0  0  0  0  0  0  0  0
    1.3038   -6.7226    0.0000 C   0  0  0  0  0  0  0  0  0  0  0  0
    2.5668   -1.2630    0.0000 C   0  0  0  0  0  0  0  0  0  0  0  0
    1.1408   -1.2630    0.0000 C   0  0  0  0  0  0  0  0  0  0  0  0
    2.5668   -0.4482    0.0000 C   0  0  0  0  0  0  0  0  0  0  0  0
    1.1408   -0.4482    0.0000 C   0  0  0  0  0  0  0  0  0  0  0  0
    1.6297   -7.4560    0.0000 C   0  0  0  0  0  0  0  0  0  0  0  0
    0.4482   -6.6819    0.0000 C   0  0  0  0  0  0  0  0  0  0  0  0
    0.0000   -7.3745    0.0000 C   0  0  0  0  0  0  0  0  0  0  0  0
    3.7891   -6.8448    0.0000 C   0  0  0  0  0  0  0  0  0  0  0  0
    0.3667   -8.1079    0.0000 C   0  0  0  0  0  0  0  0  0  0  0  0
  1  9  2  0  0  0  0
  2 19  1  0  0  0  0
  2 29  1  0  0  0  0
  3 24  1  0  0  0  0
  3 25  1  0  0  0  0
  4  9  1  0  0  0  0
  4 12  1  0  0  0  0
  4 15  1  0  0  0  0
  5  8  1  0  0  0  0
  5 12  1  0  0  0  0
  6 12  2  3  0  0  0
  7 26  1  0  0  0  0
  7 30  2  0  0  0  0
  8  9  1  0  0  0  0
  8 10  1  0  0  0  0
  8 11  1  0  0  0  0
 10 13  1  0  0  0  0
 10 14  1  0  0  0  0
 11 16  1  0  0  0  0
 11 17  2  0  0  0  0
 13 14  1  0  0  0  0
 15 22  1  0  0  0  0
 15 23  1  0  0  0  0
 16 18  2  0  0  0  0
 17 20  1  0  0  0  0
 18 19  1  0  0  0  0
 18 21  1  0  0  0  0
 19 20  2  0  0  0  0
 21 26  2  0  0  0  0
 21 27  1  0  0  0  0
 22 24  1  0  0  0  0
 23 25  1  0  0  0  0
 27 28  2  0  0  0  0
 28 30  1  0  0  0  0
M  END
> <PUBCHEM_COMPOUND_ID_TYPE>
0

> <PUBCHEM_TOTAL_CHARGE>
0

> <PUBCHEM_SUBSTANCE_ID>
310931545

> <PUBCHEM_SUBSTANCE_VERSION>
1

> <PUBCHEM_EXT_DATASOURCE_NAME>
4488

> <PUBCHEM_EXT_DATASOURCE_REGID>
SCHEMBL16108871

> <PUBCHEM_SUBSTANCE_COMMENT>
InChI=1S/C23H26N4O3/c1-29-20-7-6-17(13-19(20)15-3-2-10-25-14-15)23(16-4-5-16)21(28)27(22(24)26-23)18-8-11-30-12-9-18/h2-3,6-7,10,13-14,16,18H,4-5,8-9,11-12H2,1H3,(H2,24,26)
InChIKey=NTENPBASKNXRNU-UHFFFAOYSA-N

> <PUBCHEM_SUBSTANCE_SYNONYM>
SCHEMBL16108871

> <PUBCHEM_XREF_EXT_ID>
SCHEMBL16108871

> <PUBCHEM_EXT_DATASOURCE_URL>
https://www.surechembl.org/

> <PUBCHEM_EXT_SUBSTANCE_URL>
https://www.surechembl.org/chemical/SCHEMBL16108871

> <PUBCHEM_CID_ASSOCIATIONS>
117600294  1

> <PUBCHEM_COORDINATE_TYPE>
1
3

$$$$
