310931887
  -OEChem-07211613022D

 30 32  0     1  0  0  0  0  0999 V2000
    0.3070   -2.0126    0.0000 F   0  0  0  0  0  0  0  0  0  0  0  0
    0.3070   -3.4452    0.0000 F   0  0  0  0  0  0  0  0  0  0  0  0
    1.1257   -2.0126    0.0000 F   0  0  0  0  0  0  0  0  0  0  0  0
    3.5475   -6.7881    0.0000 F   0  0  0  0  0  0  0  0  0  0  0  0
    4.1957   -1.4327    0.0000 O   0  0  0  0  0  0  0  0  0  0  0  0
    0.7163   -5.1849    0.0000 O   0  0  0  0  0  0  0  0  0  0  0  0
    4.9461   -1.9102    0.0000 O   0  0  0  0  0  0  0  0  0  0  0  0
    5.6624   -3.1382    0.0000 O   0  0  0  0  0  0  0  0  0  0  0  0
    2.8995   -1.4327    0.0000 N   0  0  0  0  0  0  0  0  0  0  0  0
    3.1382   -0.6822    0.0000 N   0  0  0  0  0  0  0  0  0  0  0  0
    2.8312   -3.1382    0.0000 C   0  0  0  0  0  0  0  0  0  0  0  0
    2.1149   -4.3662    0.0000 C   0  0  0  0  0  0  0  0  0  0  0  0
    1.3985   -3.1382    0.0000 C   0  0  0  0  0  0  0  0  0  0  0  0
    3.5475   -2.7289    0.0000 C   0  0  3  0  0  0  0  0  0  0  0  0
    2.1149   -5.1849    0.0000 C   0  0  0  0  0  0  0  0  0  0  0  0
    2.8312   -3.9569    0.0000 C   0  0  0  0  0  0  0  0  0  0  0  0
    2.1149   -2.7289    0.0000 C   0  0  0  0  0  0  0  0  0  0  0  0
    1.3985   -3.9569    0.0000 C   0  0  0  0  0  0  0  0  0  0  0  0
    0.7163   -2.7289    0.0000 C   0  0  0  0  0  0  0  0  0  0  0  0
    3.5475   -1.9102    0.0000 C   0  0  0  0  0  0  0  0  0  0  0  0
    1.3985   -5.5942    0.0000 C   0  0  0  0  0  0  0  0  0  0  0  0
    2.8312   -5.5942    0.0000 C   0  0  0  0  0  0  0  0  0  0  0  0
    4.2297   -3.1382    0.0000 C   0  0  0  0  0  0  0  0  0  0  0  0
    2.8312   -6.4129    0.0000 C   0  0  0  0  0  0  0  0  0  0  0  0
    3.9569   -0.6481    0.0000 C   0  0  0  0  0  0  0  0  0  0  0  0
    1.3985   -6.4129    0.0000 C   0  0  0  0  0  0  0  0  0  0  0  0
    2.1149   -6.8222    0.0000 C   0  0  0  0  0  0  0  0  0  0  0  0
    4.9461   -2.7289    0.0000 C   0  0  0  0  0  0  0  0  0  0  0  0
    4.4344    0.0000    0.0000 C   0  0  0  0  0  0  0  0  0  0  0  0
    0.0000   -5.5942    0.0000 C   0  0  0  0  0  0  0  0  0  0  0  0
  1 19  1  0  0  0  0
  2 19  1  0  0  0  0
  3 19  1  0  0  0  0
  4 24  1  0  0  0  0
  5 20  1  0  0  0  0
  5 25  1  0  0  0  0
  6 21  1  0  0  0  0
  6 30  1  0  0  0  0
  7 28  2  0  0  0  0
  8 28  1  0  0  0  0
  9 10  1  0  0  0  0
  9 20  2  0  0  0  0
 10 25  2  0  0  0  0
 11 14  1  0  0  0  0
 11 16  1  0  0  0  0
 11 17  2  0  0  0  0
 12 15  1  0  0  0  0
 12 16  2  0  0  0  0
 12 18  1  0  0  0  0
 13 17  1  0  0  0  0
 13 18  2  0  0  0  0
 13 19  1  0  0  0  0
 14 20  1  0  0  0  0
 14 23  1  0  0  0  0
 15 21  2  0  0  0  0
 15 22  1  0  0  0  0
 21 26  1  0  0  0  0
 22 24  2  0  0  0  0
 23 28  1  0  0  0  0
 24 27  1  0  0  0  0
 25 29  1  0  0  0  0
 26 27  2  0  0  0  0
M  END
> <PUBCHEM_COMPOUND_ID_TYPE>
0

> <PUBCHEM_TOTAL_CHARGE>
0

> <PUBCHEM_SUBSTANCE_ID>
310931887

> <PUBCHEM_SUBSTANCE_VERSION>
1

> <PUBCHEM_EXT_DATASOURCE_NAME>
4488

> <PUBCHEM_EXT_DATASOURCE_REGID>
SCHEMBL16109222

> <PUBCHEM_SUBSTANCE_COMMENT>
InChI=1S/C20H16F4N2O4/c1-10-25-26-19(30-10)16(9-18(27)28)12-5-11(6-13(7-12)20(22,23)24)15-8-14(21)3-4-17(15)29-2/h3-8,16H,9H2,1-2H3,(H,27,28)
InChIKey=WOKIAMLNFBVNQG-UHFFFAOYSA-N

> <PUBCHEM_SUBSTANCE_SYNONYM>
SCHEMBL16109222

> <PUBCHEM_XREF_EXT_ID>
SCHEMBL16109222

> <PUBCHEM_EXT_DATASOURCE_URL>
https://www.surechembl.org/

> <PUBCHEM_EXT_SUBSTANCE_URL>
https://www.surechembl.org/chemical/SCHEMBL16109222

> <PUBCHEM_CID_ASSOCIATIONS>
86282078  1

> <PUBCHEM_COORDINATE_TYPE>
1
3

$$$$
