310933470
  -OEChem-07211613022D

 42 46  0     1  0  0  0  0  0999 V2000
   -1.3222    3.2384    0.0000 Cl  0  0  0  0  0  0  0  0  0  0  0  0
    2.2501    1.1759    0.0000 O   0  0  0  0  0  0  0  0  0  0  0  0
    6.5369    2.0009    0.0000 O   0  0  0  0  0  0  0  0  0  0  0  0
    7.2514    0.7634    0.0000 O   0  0  0  0  0  0  0  0  0  0  0  0
    1.5356   -0.0616    0.0000 N   0  0  0  0  0  0  0  0  0  0  0  0
   -1.3222   -0.0616    0.0000 N   0  0  0  0  0  0  0  0  0  0  0  0
   -1.9897   -0.5465    0.0000 N   0  0  0  0  0  0  0  0  0  0  0  0
   -1.7347   -1.3312    0.0000 N   0  0  0  0  0  0  0  0  0  0  0  0
   -0.9097   -1.3312    0.0000 N   0  0  0  0  0  0  0  0  0  0  0  0
    3.6791   -0.4741    0.0000 N   0  0  0  0  0  0  0  0  0  0  0  0
   -0.6078    1.1759    0.0000 C   0  0  0  0  0  0  0  0  0  0  0  0
    0.1067    0.7634    0.0000 C   0  0  0  0  0  0  0  0  0  0  0  0
   -1.3222    0.7634    0.0000 C   0  0  0  0  0  0  0  0  0  0  0  0
    1.5356    0.7634    0.0000 C   0  0  0  0  0  0  0  0  0  0  0  0
    0.8212    1.1759    0.0000 C   0  0  0  0  0  0  0  0  0  0  0  0
   -0.6078    2.0009    0.0000 C   0  0  0  0  0  0  0  0  0  0  0  0
    0.1067   -0.0616    0.0000 C   0  0  0  0  0  0  0  0  0  0  0  0
    2.2501   -0.4741    0.0000 C   0  0  3  0  0  0  0  0  0  0  0  0
   -2.0367    1.1759    0.0000 C   0  0  0  0  0  0  0  0  0  0  0  0
    0.8212   -0.4741    0.0000 C   0  0  0  0  0  0  0  0  0  0  0  0
   -1.3222    2.4134    0.0000 C   0  0  0  0  0  0  0  0  0  0  0  0
   -2.0367    2.0009    0.0000 C   0  0  0  0  0  0  0  0  0  0  0  0
   -0.6548   -0.5465    0.0000 C   0  0  0  0  0  0  0  0  0  0  0  0
    2.2501   -1.2991    0.0000 C   0  0  0  0  0  0  0  0  0  0  0  0
    2.9646   -0.0616    0.0000 C   0  0  0  0  0  0  0  0  0  0  0  0
    1.5356   -1.7116    0.0000 C   0  0  0  0  0  0  0  0  0  0  0  0
    4.3935   -0.0616    0.0000 C   0  0  0  0  0  0  0  0  0  0  0  0
    5.8225    0.7634    0.0000 C   0  0  0  0  0  0  0  0  0  0  0  0
    6.5369    1.1759    0.0000 C   0  0  0  0  0  0  0  0  0  0  0  0
    5.1080   -0.4741    0.0000 C   0  0  0  0  0  0  0  0  0  0  0  0
    4.3935    0.7634    0.0000 C   0  0  0  0  0  0  0  0  0  0  0  0
    5.8225   -0.0616    0.0000 C   0  0  0  0  0  0  0  0  0  0  0  0
    5.1080    1.1759    0.0000 C   0  0  0  0  0  0  0  0  0  0  0  0
    1.5356   -2.5366    0.0000 C   0  0  0  0  0  0  0  0  0  0  0  0
    0.8212   -1.2991    0.0000 C   0  0  0  0  0  0  0  0  0  0  0  0
    7.2514    2.4134    0.0000 C   0  0  0  0  0  0  0  0  0  0  0  0
    0.8212   -2.9491    0.0000 C   0  0  0  0  0  0  0  0  0  0  0  0
    0.1067   -1.7116    0.0000 C   0  0  0  0  0  0  0  0  0  0  0  0
    0.1067   -2.5366    0.0000 C   0  0  0  0  0  0  0  0  0  0  0  0
    7.9659    2.8259    0.0000 C   0  0  0  0  0  0  0  0  0  0  0  0
    6.8389    3.1279    0.0000 C   0  0  0  0  0  0  0  0  0  0  0  0
    7.6639    1.6989    0.0000 C   0  0  0  0  0  0  0  0  0  0  0  0
  1 21  1  0  0  0  0
  2 14  2  0  0  0  0
  3 29  1  0  0  0  0
  3 36  1  0  0  0  0
  4 29  2  0  0  0  0
  5 14  1  0  0  0  0
  5 18  1  0  0  0  0
  5 20  1  0  0  0  0
  6  7  1  0  0  0  0
  6 13  1  0  0  0  0
  6 23  1  0  0  0  0
  7  8  2  0  0  0  0
  8  9  1  0  0  0  0
  9 23  2  0  0  0  0
 10 25  1  0  0  0  0
 10 27  1  0  0  0  0
 11 12  1  0  0  0  0
 11 13  2  0  0  0  0
 11 16  1  0  0  0  0
 12 15  2  0  0  0  0
 12 17  1  0  0  0  0
 13 19  1  0  0  0  0
 14 15  1  0  0  0  0
 16 21  2  0  0  0  0
 17 20  2  0  0  0  0
 18 24  1  0  0  0  0
 18 25  1  0  0  0  0
 19 22  2  0  0  0  0
 21 22  1  0  0  0  0
 24 26  1  0  0  0  0
 26 34  2  0  0  0  0
 26 35  1  0  0  0  0
 27 30  2  0  0  0  0
 27 31  1  0  0  0  0
 28 29  1  0  0  0  0
 28 32  2  0  0  0  0
 28 33  1  0  0  0  0
 30 32  1  0  0  0  0
 31 33  2  0  0  0  0
 34 37  1  0  0  0  0
 35 38  2  0  0  0  0
 36 40  1  0  0  0  0
 36 41  1  0  0  0  0
 36 42  1  0  0  0  0
 37 39  2  0  0  0  0
 38 39  1  0  0  0  0
M  END
> <PUBCHEM_COMPOUND_ID_TYPE>
0

> <PUBCHEM_TOTAL_CHARGE>
0

> <PUBCHEM_SUBSTANCE_ID>
310933470

> <PUBCHEM_SUBSTANCE_VERSION>
1

> <PUBCHEM_EXT_DATASOURCE_NAME>
4488

> <PUBCHEM_EXT_DATASOURCE_REGID>
SCHEMBL16110888

> <PUBCHEM_SUBSTANCE_COMMENT>
InChI=1S/C32H31ClN6O3/c1-32(2,3)42-31(41)23-9-12-26(13-10-23)34-20-27(17-22-7-5-4-6-8-22)38-16-15-24(18-30(38)40)28-19-25(33)11-14-29(28)39-21-35-36-37-39/h4-16,18-19,21,27,34H,17,20H2,1-3H3
InChIKey=OKTAYANGJBOBMG-UHFFFAOYSA-N

> <PUBCHEM_SUBSTANCE_SYNONYM>
SCHEMBL16110888

> <PUBCHEM_XREF_EXT_ID>
SCHEMBL16110888

> <PUBCHEM_EXT_DATASOURCE_URL>
https://www.surechembl.org/

> <PUBCHEM_EXT_SUBSTANCE_URL>
https://www.surechembl.org/chemical/SCHEMBL16110888

> <PUBCHEM_CID_ASSOCIATIONS>
117601867  1

> <PUBCHEM_COORDINATE_TYPE>
1
3

$$$$
