310931285
  -OEChem-07211613022D

 17 16  0     1  0  0  0  0  0999 V2000
    9.5406   -2.4805    0.0000 Cl  0  0  0  0  0  0  0  0  0  0  0  0
    6.6784   -0.8268    0.0000 O   0  0  0  0  0  0  0  0  0  0  0  0
    5.2473    0.0000    0.0000 O   0  0  0  0  0  0  0  0  0  0  0  0
    3.8162   -0.7950    0.0000 O   0  0  0  0  0  0  0  0  0  0  0  0
    0.0000   -1.4629    0.0000 O   0  0  0  0  0  0  0  0  0  0  0  0
    2.1625   -1.0176    0.0000 O   0  0  0  0  0  0  0  0  0  0  0  0
    7.3780   -1.2085    0.0000 C   0  0  0  0  0  0  0  0  0  0  0  0
    8.1095   -0.8268    0.0000 C   0  0  0  0  0  0  0  0  0  0  0  0
    7.3780   -2.0671    0.0000 C   0  0  0  0  0  0  0  0  0  0  0  0
    8.8091   -2.0671    0.0000 C   0  0  0  0  0  0  0  0  0  0  0  0
    8.8091   -1.2403    0.0000 C   0  0  0  0  0  0  0  0  0  0  0  0
    8.1095   -2.4805    0.0000 C   0  0  0  0  0  0  0  0  0  0  0  0
    5.9470   -1.2403    0.0000 C   0  0  0  0  0  0  0  0  0  0  0  0
    5.2473   -0.8268    0.0000 C   0  0  3  0  0  0  0  0  0  0  0  0
    4.5159   -1.2085    0.0000 C   0  0  0  0  0  0  0  0  0  0  0  0
    1.4311   -1.4629    0.0000 C   0  0  0  0  0  0  0  0  0  0  0  0
    0.7314   -1.0176    0.0000 C   0  0  0  0  0  0  0  0  0  0  0  0
  1 10  1  0  0  0  0
  2  7  1  0  0  0  0
  2 13  1  0  0  0  0
  3 14  1  0  0  0  0
  4 15  1  0  0  0  0
  5 17  1  0  0  0  0
  6 16  1  0  0  0  0
  7  8  2  0  0  0  0
  7  9  1  0  0  0  0
  8 11  1  0  0  0  0
  9 12  2  0  0  0  0
 10 11  2  0  0  0  0
 10 12  1  0  0  0  0
 13 14  1  0  0  0  0
 14 15  1  0  0  0  0
 16 17  1  0  0  0  0
M  END
> <PUBCHEM_COMPOUND_ID_TYPE>
0

> <PUBCHEM_TOTAL_CHARGE>
0

> <PUBCHEM_SUBSTANCE_ID>
310931285

> <PUBCHEM_SUBSTANCE_VERSION>
1

> <PUBCHEM_EXT_DATASOURCE_NAME>
4488

> <PUBCHEM_EXT_DATASOURCE_REGID>
SCHEMBL16108602

> <PUBCHEM_SUBSTANCE_COMMENT>
InChI=1S/C9H11ClO3.C2H6O2/c10-7-1-3-9(4-2-7)13-6-8(12)5-11;3-1-2-4/h1-4,8,11-12H,5-6H2;3-4H,1-2H2
InChIKey=WICGSMSSWRWOCC-UHFFFAOYSA-N

> <PUBCHEM_SUBSTANCE_SYNONYM>
SCHEMBL16108602

> <PUBCHEM_XREF_EXT_ID>
SCHEMBL16108602

> <PUBCHEM_EXT_DATASOURCE_URL>
https://www.surechembl.org/

> <PUBCHEM_EXT_SUBSTANCE_URL>
https://www.surechembl.org/chemical/SCHEMBL16108602

> <PUBCHEM_CID_ASSOCIATIONS>
117600108  1
174  2
7697  2

> <PUBCHEM_COORDINATE_TYPE>
1
3

$$$$
