310949423
  -OEChem-07211613022D

 22 22  0     1  0  0  0  0  0999 V2000
   -1.2365   -1.4401    0.0000 O   0  0  0  0  0  0  0  0  0  0  0  0
    0.2563   -1.1988    0.0000 O   0  0  0  0  0  0  0  0  0  0  0  0
   -2.7143   -1.1988    0.0000 O   0  0  0  0  0  0  0  0  0  0  0  0
    2.5634    1.4401    0.0000 O   0  0  0  0  0  0  0  0  0  0  0  0
    3.2873    0.1885    0.0000 O   0  0  0  0  0  0  0  0  0  0  0  0
   -0.8293   -0.1131    0.0000 C   0  0  3  0  0  0  0  0  0  0  0  0
   -0.4072    0.6258    0.0000 C   0  0  3  0  0  0  0  0  0  0  0  0
   -0.5882   -0.8972    0.0000 C   0  0  0  0  0  0  0  0  0  0  0  0
   -1.6587   -0.1131    0.0000 C   0  0  0  0  0  0  0  0  0  0  0  0
   -1.9151   -0.8972    0.0000 C   0  0  0  0  0  0  0  0  0  0  0  0
    0.3469    0.2036    0.0000 C   0  0  0  0  0  0  0  0  0  0  0  0
    0.7238    0.4147    0.0000 C   0  0  3  0  0  0  0  0  0  0  0  0
   -0.8142    1.3496    0.0000 C   0  0  0  0  0  0  0  0  0  0  0  0
    1.3421    0.4600    0.0000 C   0  0  3  0  0  0  0  0  0  0  0  0
   -1.6738    1.3496    0.0000 C   0  0  0  0  0  0  0  0  0  0  0  0
    1.8246    0.2036    0.0000 C   0  0  0  0  0  0  0  0  0  0  0  0
    0.8896   -0.2036    0.0000 C   0  0  0  0  0  0  0  0  0  0  0  0
    2.5333    0.6108    0.0000 C   0  0  0  0  0  0  0  0  0  0  0  0
    1.2214   -0.1885    0.0000 C   0  0  0  0  0  0  0  0  0  0  0  0
   -2.0960    0.6258    0.0000 C   0  0  0  0  0  0  0  0  0  0  0  0
   -2.8500    1.0329    0.0000 C   0  0  0  0  0  0  0  0  0  0  0  0
   -3.2873    0.7766    0.0000 C   0  0  0  0  0  0  0  0  0  0  0  0
  1  8  1  0  0  0  0
  1 10  1  0  0  0  0
  2  8  2  0  0  0  0
  3 10  2  0  0  0  0
  4 18  2  0  0  0  0
  5 18  1  0  0  0  0
  6  7  1  0  0  0  0
  6  8  1  0  0  0  0
  6  9  1  0  0  0  0
  7 11  1  0  0  0  0
  7 13  1  0  0  0  0
  9 10  1  0  0  0  0
 11 12  1  0  0  0  0
 12 14  1  0  0  0  0
 12 17  1  0  0  0  0
 13 15  2  0  0  0  0
 14 16  1  0  0  0  0
 14 19  1  0  0  0  0
 15 20  1  0  0  0  0
 16 18  1  0  0  0  0
 20 21  1  0  0  0  0
 21 22  1  0  0  0  0
M  END
> <PUBCHEM_COMPOUND_ID_TYPE>
0

> <PUBCHEM_TOTAL_CHARGE>
0

> <PUBCHEM_SUBSTANCE_ID>
310949423

> <PUBCHEM_SUBSTANCE_VERSION>
1

> <PUBCHEM_EXT_DATASOURCE_NAME>
4488

> <PUBCHEM_EXT_DATASOURCE_REGID>
SCHEMBL16127617

> <PUBCHEM_SUBSTANCE_COMMENT>
InChI=1S/C17H26O5/c1-4-5-6-7-13(14-10-16(20)22-17(14)21)8-11(2)12(3)9-15(18)19/h6-7,11-14H,4-5,8-10H2,1-3H3,(H,18,19)/b7-6-
InChIKey=BXOMWNCJIKZBLH-SREVYHEPSA-N

> <PUBCHEM_SUBSTANCE_SYNONYM>
SCHEMBL16127617

> <PUBCHEM_XREF_EXT_ID>
SCHEMBL16127617

> <PUBCHEM_EXT_DATASOURCE_URL>
https://www.surechembl.org/

> <PUBCHEM_EXT_SUBSTANCE_URL>
https://www.surechembl.org/chemical/SCHEMBL16127617

> <PUBCHEM_CID_ASSOCIATIONS>
117614874  1

> <PUBCHEM_COORDINATE_TYPE>
1
3

> <PUBCHEM_BONDANNOTATIONS>
12  14  3

$$$$
