310935699
  -OEChem-07211613022D

 31 35  0     1  0  0  0  0  0999 V2000
    6.3875   -4.0987    0.0000 O   0  0  0  0  0  0  0  0  0  0  0  0
    2.1291   -4.0987    0.0000 N   0  0  3  0  0  0  0  0  0  0  0  0
    0.7186   -4.0987    0.0000 N   0  0  0  0  0  0  0  0  0  0  0  0
    0.0000   -2.8478    0.0000 N   0  0  0  0  0  0  0  0  0  0  0  0
    3.5664    0.0000    0.0000 N   0  0  0  0  0  0  0  0  0  0  0  0
    5.6955   -2.8744    0.0000 N   0  0  0  0  0  0  0  0  0  0  0  0
    1.4372   -2.8478    0.0000 C   0  0  0  0  0  0  0  0  0  0  0  0
    1.4106   -3.6728    0.0000 C   0  0  0  0  0  0  0  0  0  0  0  0
    0.7186   -2.4485    0.0000 C   0  0  0  0  0  0  0  0  0  0  0  0
    0.7186   -1.6501    0.0000 C   0  0  0  0  0  0  0  0  0  0  0  0
    2.1291   -1.6501    0.0000 C   0  0  0  0  0  0  0  0  0  0  0  0
    2.1291   -2.4752    0.0000 C   0  0  0  0  0  0  0  0  0  0  0  0
    3.5664   -4.0987    0.0000 C   0  0  0  0  0  0  0  0  0  0  0  0
    2.8478   -3.6728    0.0000 C   0  0  0  0  0  0  0  0  0  0  0  0
    3.5664   -4.9237    0.0000 C   0  0  0  0  0  0  0  0  0  0  0  0
    1.4106   -1.2243    0.0000 C   0  0  0  0  0  0  0  0  0  0  0  0
    2.1291   -4.9237    0.0000 C   0  0  0  0  0  0  0  0  0  0  0  0
    2.8478   -1.2243    0.0000 C   0  0  0  0  0  0  0  0  0  0  0  0
    0.0000   -3.6995    0.0000 C   0  0  0  0  0  0  0  0  0  0  0  0
    2.8478   -5.3229    0.0000 C   0  0  0  0  0  0  0  0  0  0  0  0
    4.2583   -3.6728    0.0000 C   0  0  0  0  0  0  0  0  0  0  0  0
    4.9770   -4.0987    0.0000 C   0  0  0  0  0  0  0  0  0  0  0  0
    4.2583   -5.3229    0.0000 C   0  0  0  0  0  0  0  0  0  0  0  0
    4.9770   -4.9237    0.0000 C   0  0  0  0  0  0  0  0  0  0  0  0
    0.0000   -1.2243    0.0000 C   0  0  0  0  0  0  0  0  0  0  0  0
    5.6955   -3.6728    0.0000 C   0  0  0  0  0  0  0  0  0  0  0  0
    2.8744   -0.3992    0.0000 C   0  0  0  0  0  0  0  0  0  0  0  0
    3.5664   -1.6235    0.0000 C   0  0  0  0  0  0  0  0  0  0  0  0
    4.2849   -1.2243    0.0000 C   0  0  0  0  0  0  0  0  0  0  0  0
    4.3116   -0.3992    0.0000 C   0  0  0  0  0  0  0  0  0  0  0  0
    6.3875   -2.4485    0.0000 C   0  0  0  0  0  0  0  0  0  0  0  0
  1 26  2  0  0  0  0
  2  8  1  0  0  0  0
  2 14  1  0  0  0  0
  2 17  1  0  0  0  0
  3  8  1  0  0  0  0
  3 19  2  0  0  0  0
  4  9  2  0  0  0  0
  4 19  1  0  0  0  0
  5 27  1  0  0  0  0
  5 30  2  0  0  0  0
  6 26  1  0  0  0  0
  6 31  1  0  0  0  0
  7  8  2  0  0  0  0
  7  9  1  0  0  0  0
  7 12  1  0  0  0  0
  9 10  1  0  0  0  0
 10 16  2  0  0  0  0
 10 25  1  0  0  0  0
 11 12  2  0  0  0  0
 11 16  1  0  0  0  0
 11 18  1  0  0  0  0
 13 14  1  0  0  0  0
 13 15  2  0  0  0  0
 13 21  1  0  0  0  0
 15 20  1  0  0  0  0
 15 23  1  0  0  0  0
 17 20  1  0  0  0  0
 18 27  2  0  0  0  0
 18 28  1  0  0  0  0
 21 22  2  0  0  0  0
 22 24  1  0  0  0  0
 22 26  1  0  0  0  0
 23 24  2  0  0  0  0
 28 29  2  0  0  0  0
 29 30  1  0  0  0  0
M  END
> <PUBCHEM_COMPOUND_ID_TYPE>
0

> <PUBCHEM_TOTAL_CHARGE>
0

> <PUBCHEM_SUBSTANCE_ID>
310935699

> <PUBCHEM_SUBSTANCE_VERSION>
1

> <PUBCHEM_EXT_DATASOURCE_NAME>
4488

> <PUBCHEM_EXT_DATASOURCE_REGID>
SCHEMBL16113283

> <PUBCHEM_SUBSTANCE_COMMENT>
InChI=1S/C25H23N5O/c1-16-10-20(19-4-3-8-27-13-19)12-22-23(16)28-15-29-24(22)30-9-7-17-5-6-18(25(31)26-2)11-21(17)14-30/h3-6,8,10-13,15H,7,9,14H2,1-2H3,(H,26,31)
InChIKey=YNPLOTLUAZUXHP-UHFFFAOYSA-N

> <PUBCHEM_SUBSTANCE_SYNONYM>
SCHEMBL16113283

> <PUBCHEM_XREF_EXT_ID>
SCHEMBL16113283

> <PUBCHEM_EXT_DATASOURCE_URL>
https://www.surechembl.org/

> <PUBCHEM_EXT_SUBSTANCE_URL>
https://www.surechembl.org/chemical/SCHEMBL16113283

> <PUBCHEM_CID_ASSOCIATIONS>
117603707  1

> <PUBCHEM_COORDINATE_TYPE>
1
3

$$$$
