310937460
  -OEChem-07211613022D

 37 40  0     1  0  0  0  0  0999 V2000
   -5.7550   -0.0770    0.0000 S   0  0  0  0  0  0  0  0  0  0  0  0
    0.7145    1.2375    0.0000 F   0  0  0  0  0  0  0  0  0  0  0  0
    2.8452    0.4125    0.0000 F   0  0  0  0  0  0  0  0  0  0  0  0
    3.5596    0.0000    0.0000 F   0  0  0  0  0  0  0  0  0  0  0  0
    2.8452    1.2375    0.0000 F   0  0  0  0  0  0  0  0  0  0  0  0
   -3.5724    2.0625    0.0000 O   0  0  0  0  0  0  0  0  0  0  0  0
    4.2742    2.0625    0.0000 O   0  0  0  0  0  0  0  0  0  0  0  0
    4.9886    0.8250    0.0000 O   0  0  0  0  0  0  0  0  0  0  0  0
    0.7145   -0.4125    0.0000 N   0  0  0  0  0  0  0  0  0  0  0  0
   -0.7145   -0.4125    0.0000 N   0  0  0  0  0  0  0  0  0  0  0  0
   -2.1434   -0.4125    0.0000 N   0  0  0  0  0  0  0  0  0  0  0  0
   -1.4290    0.8250    0.0000 N   0  0  0  0  0  0  0  0  0  0  0  0
    2.0202   -0.6901    0.0000 N   0  0  0  0  0  0  0  0  0  0  0  0
   -1.5522    2.7526    0.0000 N   0  0  0  0  0  0  0  0  0  0  0  0
    0.0000    0.0000    0.0000 C   0  0  0  0  0  0  0  0  0  0  0  0
   -2.8579    0.0000    0.0000 C   0  0  0  0  0  0  0  0  0  0  0  0
   -1.4290    0.0000    0.0000 C   0  0  0  0  0  0  0  0  0  0  0  0
   -4.2868    0.0000    0.0000 C   0  0  0  0  0  0  0  0  0  0  0  0
    0.0000    0.8250    0.0000 C   0  0  0  0  0  0  0  0  0  0  0  0
   -3.5724    1.2375    0.0000 C   0  0  0  0  0  0  0  0  0  0  0  0
   -3.5724   -0.4125    0.0000 C   0  0  0  0  0  0  0  0  0  0  0  0
   -5.0013   -0.4125    0.0000 C   0  0  0  0  0  0  0  0  0  0  0  0
   -2.8579    0.8250    0.0000 C   0  0  0  0  0  0  0  0  0  0  0  0
   -4.2868    0.8250    0.0000 C   0  0  0  0  0  0  0  0  0  0  0  0
   -0.7145    1.2375    0.0000 C   0  0  0  0  0  0  0  0  0  0  0  0
    1.4681   -0.0770    0.0000 C   0  0  0  0  0  0  0  0  0  0  0  0
    0.8007   -1.2330    0.0000 C   0  0  0  0  0  0  0  0  0  0  0  0
   -5.0875   -1.2330    0.0000 C   0  0  0  0  0  0  0  0  0  0  0  0
   -2.8579    2.4750    0.0000 C   0  0  3  0  0  0  0  0  0  0  0  0
    1.6077   -1.4045    0.0000 C   0  0  0  0  0  0  0  0  0  0  0  0
   -6.3070   -0.6901    0.0000 C   0  0  0  0  0  0  0  0  0  0  0  0
   -5.8945   -1.4045    0.0000 C   0  0  0  0  0  0  0  0  0  0  0  0
   -2.1042    2.1395    0.0000 C   0  0  0  0  0  0  0  0  0  0  0  0
   -2.7716    3.2955    0.0000 C   0  0  0  0  0  0  0  0  0  0  0  0
   -1.9647    3.4670    0.0000 C   0  0  0  0  0  0  0  0  0  0  0  0
    3.5596    0.8250    0.0000 C   0  0  0  0  0  0  0  0  0  0  0  0
    4.2742    1.2375    0.0000 C   0  0  0  0  0  0  0  0  0  0  0  0
  1 22  1  0  0  0  0
  1 31  1  0  0  0  0
  2 19  1  0  0  0  0
  3 36  1  0  0  0  0
  4 36  1  0  0  0  0
  5 36  1  0  0  0  0
  6 20  1  0  0  0  0
  6 29  1  0  0  0  0
  7 37  2  0  0  0  0
  8 37  1  0  0  0  0
  9 15  1  0  0  0  0
  9 26  1  0  0  0  0
  9 27  1  0  0  0  0
 10 15  2  0  0  0  0
 10 17  1  0  0  0  0
 11 16  1  0  0  0  0
 11 17  1  0  0  0  0
 12 17  2  0  0  0  0
 12 25  1  0  0  0  0
 13 26  2  0  0  0  0
 13 30  1  0  0  0  0
 14 33  1  0  0  0  0
 14 35  1  0  0  0  0
 15 19  1  0  0  0  0
 16 21  2  0  0  0  0
 16 23  1  0  0  0  0
 18 21  1  0  0  0  0
 18 22  1  0  0  0  0
 18 24  2  0  0  0  0
 19 25  2  0  0  0  0
 20 23  2  0  0  0  0
 20 24  1  0  0  0  0
 22 28  2  0  0  0  0
 27 30  2  0  0  0  0
 28 32  1  0  0  0  0
 29 33  1  0  0  0  0
 29 34  1  0  0  0  0
 31 32  2  0  0  0  0
 34 35  1  0  0  0  0
 36 37  1  0  0  0  0
M  END
> <PUBCHEM_COMPOUND_ID_TYPE>
0

> <PUBCHEM_TOTAL_CHARGE>
0

> <PUBCHEM_SUBSTANCE_ID>
310937460

> <PUBCHEM_SUBSTANCE_VERSION>
1

> <PUBCHEM_EXT_DATASOURCE_NAME>
4488

> <PUBCHEM_EXT_DATASOURCE_REGID>
SCHEMBL16115229

> <PUBCHEM_SUBSTANCE_COMMENT>
InChI=1S/C21H19FN6OS.C2HF3O2/c22-18-12-25-21(27-20(18)28-6-5-24-13-28)26-15-8-14(19-2-1-7-30-19)9-17(10-15)29-16-3-4-23-11-16;3-2(4,5)1(6)7/h1-2,5-10,12-13,16,23H,3-4,11H2,(H,25,26,27);(H,6,7)
InChIKey=IZRUOJNLLLJXIK-UHFFFAOYSA-N

> <PUBCHEM_SUBSTANCE_SYNONYM>
SCHEMBL16115229

> <PUBCHEM_XREF_EXT_ID>
SCHEMBL16115229

> <PUBCHEM_EXT_DATASOURCE_URL>
https://www.surechembl.org/

> <PUBCHEM_EXT_SUBSTANCE_URL>
https://www.surechembl.org/chemical/SCHEMBL16115229

> <PUBCHEM_CID_ASSOCIATIONS>
86301591  1
6422  2
86301592  2

> <PUBCHEM_COORDINATE_TYPE>
1
3

$$$$
