310948940
  -OEChem-07211613022D

 16 15  0     1  0  0  0  0  0999 V2000
    2.9752   -0.1467    0.0000 P   0  0  3  0  0  0  0  0  0  0  0  0
    2.3230   -0.4891    0.0000 O   0  0  0  0  0  0  0  0  0  0  0  0
    1.5405   -0.0163    0.0000 O   0  0  0  0  0  0  0  0  0  0  0  0
   -1.6384    0.8966    0.0000 O   0  0  0  0  0  0  0  0  0  0  0  0
    3.6435    0.2282    0.0000 O   0  0  0  0  0  0  0  0  0  0  0  0
    2.5350    0.6684    0.0000 O   0  0  0  0  0  0  0  0  0  0  0  0
   -0.8559   -0.4891    0.0000 N   0  0  0  0  0  0  0  0  0  0  0  0
   -1.6547   -0.0163    0.0000 C   0  0  0  0  0  0  0  0  0  0  0  0
   -2.4209   -0.4565    0.0000 C   0  0  0  0  0  0  0  0  0  0  0  0
   -2.8285   -0.2282    0.0000 C   0  0  3  0  0  0  0  0  0  0  0  0
   -0.0570    0.0000    0.0000 C   0  0  0  0  0  0  0  0  0  0  0  0
    0.7418   -0.4565    0.0000 C   0  0  0  0  0  0  0  0  0  0  0  0
   -3.5947   -0.8966    0.0000 C   0  0  0  0  0  0  0  0  0  0  0  0
   -3.0240    0.4075    0.0000 C   0  0  0  0  0  0  0  0  0  0  0  0
   -3.6435   -0.2445    0.0000 C   0  0  0  0  0  0  0  0  0  0  0  0
   -3.4479    0.4238    0.0000 C   0  0  0  0  0  0  0  0  0  0  0  0
  1  2  1  0  0  0  0
  1  5  2  0  0  0  0
  1  6  1  0  0  0  0
  2  3  1  0  0  0  0
  3 12  1  0  0  0  0
  4  8  2  0  0  0  0
  7  8  1  0  0  0  0
  7 11  1  0  0  0  0
  8  9  1  0  0  0  0
  9 10  1  0  0  0  0
 10 13  1  0  0  0  0
 10 14  1  0  0  0  0
 11 12  1  0  0  0  0
 13 15  1  0  0  0  0
 15 16  1  0  0  0  0
M  END
> <PUBCHEM_COMPOUND_ID_TYPE>
0

> <PUBCHEM_TOTAL_CHARGE>
0

> <PUBCHEM_SUBSTANCE_ID>
310948940

> <PUBCHEM_SUBSTANCE_VERSION>
1

> <PUBCHEM_EXT_DATASOURCE_NAME>
4488

> <PUBCHEM_EXT_DATASOURCE_REGID>
SCHEMBL16127127

> <PUBCHEM_SUBSTANCE_COMMENT>
InChI=1S/C9H20NO5P/c1-3-4-8(2)7-9(11)10-5-6-14-15-16(12)13/h8,16H,3-7H2,1-2H3,(H,10,11)(H,12,13)
InChIKey=NRMRJSZJDCJXBM-UHFFFAOYSA-N

> <PUBCHEM_SUBSTANCE_SYNONYM>
SCHEMBL16127127

> <PUBCHEM_XREF_EXT_ID>
SCHEMBL16127127

> <PUBCHEM_EXT_DATASOURCE_URL>
https://www.surechembl.org/

> <PUBCHEM_EXT_SUBSTANCE_URL>
https://www.surechembl.org/chemical/SCHEMBL16127127

> <PUBCHEM_CID_ASSOCIATIONS>
117614451  1

> <PUBCHEM_COORDINATE_TYPE>
1
3

> <PUBCHEM_BONDANNOTATIONS>
13  10  3

$$$$
