310938896
  -OEChem-07211613022D

 11 12  0     1  0  0  0  0  0999 V2000
    1.0749   -1.1874    0.0000 O   0  0  0  0  0  0  0  0  0  0  0  0
   -0.3500   -0.3500    0.0000 N   0  0  3  0  0  0  0  0  0  0  0  0
   -0.3625    1.3249    0.0000 C   0  0  0  0  0  0  0  0  0  0  0  0
    0.3625    0.8874    0.0000 C   0  0  0  0  0  0  0  0  0  0  0  0
   -0.7624    2.0248    0.0000 C   0  0  0  0  0  0  0  0  0  0  0  0
    0.0500    2.0248    0.0000 C   0  0  0  0  0  0  0  0  0  0  0  0
    0.3500    0.0625    0.0000 C   0  0  3  0  0  0  0  0  0  0  0  0
   -1.0749    0.8874    0.0000 C   0  0  0  0  0  0  0  0  0  0  0  0
   -1.0874    0.0625    0.0000 C   0  0  0  0  0  0  0  0  0  0  0  0
    1.0874   -0.3625    0.0000 C   0  0  0  0  0  0  0  0  0  0  0  0
   -0.3500   -2.0248    0.0000 C   0  0  0  0  0  0  0  0  0  0  0  0
  1 10  1  0  0  0  0
  2  7  1  0  0  0  0
  2  9  1  0  0  0  0
  2 11  1  0  0  0  0
  3  4  1  0  0  0  0
  3  5  1  0  0  0  0
  3  6  1  0  0  0  0
  3  8  1  0  0  0  0
  4  7  1  0  0  0  0
  5  6  1  0  0  0  0
  7 10  1  0  0  0  0
  8  9  1  0  0  0  0
M  END
> <PUBCHEM_COMPOUND_ID_TYPE>
0

> <PUBCHEM_TOTAL_CHARGE>
0

> <PUBCHEM_SUBSTANCE_ID>
310938896

> <PUBCHEM_SUBSTANCE_VERSION>
1

> <PUBCHEM_EXT_DATASOURCE_NAME>
4488

> <PUBCHEM_EXT_DATASOURCE_REGID>
SCHEMBL16116815

> <PUBCHEM_SUBSTANCE_COMMENT>
InChI=1S/C9H17NO/c1-10-5-4-9(2-3-9)6-8(10)7-11/h8,11H,2-7H2,1H3
InChIKey=PFZSWIFEPUXCJV-UHFFFAOYSA-N

> <PUBCHEM_SUBSTANCE_SYNONYM>
SCHEMBL16116815

> <PUBCHEM_XREF_EXT_ID>
SCHEMBL16116815

> <PUBCHEM_EXT_DATASOURCE_URL>
https://www.surechembl.org/

> <PUBCHEM_EXT_SUBSTANCE_URL>
https://www.surechembl.org/chemical/SCHEMBL16116815

> <PUBCHEM_CID_ASSOCIATIONS>
117606293  1

> <PUBCHEM_COORDINATE_TYPE>
1
3

$$$$
