310939291
  -OEChem-07211613022D

 24 26  0     1  0  0  0  0  0999 V2000
    0.5052    1.0313    0.0000 F   0  0  0  0  0  0  0  0  0  0  0  0
    1.9341   -1.4437    0.0000 F   0  0  0  0  0  0  0  0  0  0  0  0
    1.9341    0.2062    0.0000 O   0  0  0  0  0  0  0  0  0  0  0  0
   -1.6382   -0.2062    0.0000 N   0  0  0  0  0  0  0  0  0  0  0  0
   -4.0776   -0.7896    0.0000 N   0  0  0  0  0  0  0  0  0  0  0  0
   -0.2093   -0.2062    0.0000 C   0  0  0  0  0  0  0  0  0  0  0  0
    0.5052    0.2062    0.0000 C   0  0  0  0  0  0  0  0  0  0  0  0
    1.2197   -0.2062    0.0000 C   0  0  0  0  0  0  0  0  0  0  0  0
    1.2197   -1.0313    0.0000 C   0  0  0  0  0  0  0  0  0  0  0  0
   -0.9237    0.2062    0.0000 C   0  0  3  0  0  0  0  0  0  0  0  0
   -0.2093   -1.0313    0.0000 C   0  0  0  0  0  0  0  0  0  0  0  0
    0.5052   -1.4437    0.0000 C   0  0  0  0  0  0  0  0  0  0  0  0
    2.6486   -0.2062    0.0000 C   0  0  0  0  0  0  0  0  0  0  0  0
   -0.9237    1.0313    0.0000 C   0  0  0  0  0  0  0  0  0  0  0  0
   -3.0671   -0.2062    0.0000 C   0  0  0  0  0  0  0  0  0  0  0  0
   -2.3527    0.2062    0.0000 C   0  0  0  0  0  0  0  0  0  0  0  0
    2.6486   -1.0313    0.0000 C   0  0  0  0  0  0  0  0  0  0  0  0
    3.3631    0.2062    0.0000 C   0  0  0  0  0  0  0  0  0  0  0  0
   -3.8640    0.0073    0.0000 C   0  0  0  0  0  0  0  0  0  0  0  0
   -3.2807   -1.0031    0.0000 C   0  0  0  0  0  0  0  0  0  0  0  0
    3.3631   -1.4437    0.0000 C   0  0  0  0  0  0  0  0  0  0  0  0
    4.0776   -0.2062    0.0000 C   0  0  0  0  0  0  0  0  0  0  0  0
   -1.6382    1.4437    0.0000 C   0  0  0  0  0  0  0  0  0  0  0  0
    4.0776   -1.0313    0.0000 C   0  0  0  0  0  0  0  0  0  0  0  0
  1  7  1  0  0  0  0
  2  9  1  0  0  0  0
  3  8  1  0  0  0  0
  3 13  1  0  0  0  0
  4 10  1  0  0  0  0
  4 16  1  0  0  0  0
  5 19  1  0  0  0  0
  5 20  1  0  0  0  0
  6  7  1  0  0  0  0
  6 10  1  0  0  0  0
  6 11  2  0  0  0  0
  7  8  2  0  0  0  0
  8  9  1  0  0  0  0
  9 12  2  0  0  0  0
 10 14  1  0  0  0  0
 11 12  1  0  0  0  0
 13 17  2  0  0  0  0
 13 18  1  0  0  0  0
 14 23  1  0  0  0  0
 15 16  1  0  0  0  0
 15 19  1  0  0  0  0
 15 20  1  0  0  0  0
 17 21  1  0  0  0  0
 18 22  2  0  0  0  0
 21 24  2  0  0  0  0
 22 24  1  0  0  0  0
M  END
> <PUBCHEM_COMPOUND_ID_TYPE>
0

> <PUBCHEM_TOTAL_CHARGE>
0

> <PUBCHEM_SUBSTANCE_ID>
310939291

> <PUBCHEM_SUBSTANCE_VERSION>
1

> <PUBCHEM_EXT_DATASOURCE_NAME>
4488

> <PUBCHEM_EXT_DATASOURCE_REGID>
SCHEMBL16117212

> <PUBCHEM_SUBSTANCE_COMMENT>
InChI=1S/C19H22F2N2O/c1-2-17(23-12-13-10-22-11-13)15-8-9-16(20)19(18(15)21)24-14-6-4-3-5-7-14/h3-9,13,17,22-23H,2,10-12H2,1H3
InChIKey=TWWFFYXDBLBEHW-UHFFFAOYSA-N

> <PUBCHEM_SUBSTANCE_SYNONYM>
SCHEMBL16117212

> <PUBCHEM_XREF_EXT_ID>
SCHEMBL16117212

> <PUBCHEM_EXT_DATASOURCE_URL>
https://www.surechembl.org/

> <PUBCHEM_EXT_SUBSTANCE_URL>
https://www.surechembl.org/chemical/SCHEMBL16117212

> <PUBCHEM_CID_ASSOCIATIONS>
117606632  1

> <PUBCHEM_COORDINATE_TYPE>
1
3

$$$$
