310946623
  -OEChem-07211613022D

 26 25  0     1  0  0  0  0  0999 V2000
    3.7456   -3.2262    0.0000 O   0  0  0  0  0  0  0  0  0  0  0  0
    0.8877   -4.0477    0.0000 O   0  0  0  0  0  0  0  0  0  0  0  0
    5.7272   -8.1431    0.0000 O   0  0  0  0  0  0  0  0  0  0  0  0
    6.9647   -8.8576    0.0000 O   0  5  0  0  0  0  0  0  0  0  0  0
    6.9647   -7.4286    0.0000 O   0  0  0  0  0  0  0  0  0  0  0  0
    4.4521   -4.4637    0.0000 N   0  0  0  0  0  0  0  0  0  0  0  0
    1.6022   -5.2852    0.0000 N   0  0  0  0  0  0  0  0  0  0  0  0
    3.0281   -5.2869    0.0000 N   0  0  0  0  0  0  0  0  0  0  0  0
    6.5522   -8.1431    0.0000 N   0  3  0  0  0  0  0  0  0  0  0  0
    3.0301   -4.4619    0.0000 C   0  0  3  0  0  0  0  0  0  0  0  0
    3.7456   -4.0512    0.0000 C   0  0  0  0  0  0  0  0  0  0  0  0
    2.3167   -4.0477    0.0000 C   0  0  0  0  0  0  0  0  0  0  0  0
    1.6022   -4.4602    0.0000 C   0  0  0  0  0  0  0  0  0  0  0  0
    5.1666   -4.0512    0.0000 C   0  0  0  0  0  0  0  0  0  0  0  0
    2.0147   -5.9997    0.0000 C   0  0  0  0  0  0  0  0  0  0  0  0
    2.8397   -5.9997    0.0000 C   0  0  0  0  0  0  0  0  0  0  0  0
    5.8810   -4.4637    0.0000 C   0  0  0  0  0  0  0  0  0  0  0  0
    3.2522   -6.7141    0.0000 C   0  0  0  0  0  0  0  0  0  0  0  0
    4.0772   -6.7141    0.0000 C   0  0  0  0  0  0  0  0  0  0  0  0
    6.5955   -4.0512    0.0000 C   0  0  0  0  0  0  0  0  0  0  0  0
    4.4897   -7.4286    0.0000 C   0  0  0  0  0  0  0  0  0  0  0  0
    5.3147   -7.4286    0.0000 C   0  0  0  0  0  0  0  0  0  0  0  0
    7.3100   -4.4637    0.0000 C   0  0  0  0  0  0  0  0  0  0  0  0
    8.0245   -4.0512    0.0000 C   0  0  0  0  0  0  0  0  0  0  0  0
    8.7389   -4.4637    0.0000 C   0  0  0  0  0  0  0  0  0  0  0  0
    9.4534   -4.0512    0.0000 C   0  0  0  0  0  0  0  0  0  0  0  0
  1 11  2  0  0  0  0
  2 13  2  0  0  0  0
  3  9  1  0  0  0  0
  3 22  1  0  0  0  0
  4  9  1  0  0  0  0
  5  9  2  0  0  0  0
  6 11  1  0  0  0  0
  6 14  1  0  0  0  0
  7 13  1  0  0  0  0
  7 15  1  0  0  0  0
  8 10  1  0  0  0  0
 10 11  1  0  0  0  0
 10 12  1  0  0  0  0
 12 13  1  0  0  0  0
 14 17  1  0  0  0  0
 15 16  1  0  0  0  0
 16 18  1  0  0  0  0
 17 20  1  0  0  0  0
 18 19  1  0  0  0  0
 19 21  1  0  0  0  0
 20 23  1  0  0  0  0
 21 22  1  0  0  0  0
 23 24  1  0  0  0  0
 24 25  1  0  0  0  0
 25 26  1  0  0  0  0
M  CHG  2   4  -1   9   1
M  END
> <PUBCHEM_COMPOUND_ID_TYPE>
0

> <PUBCHEM_TOTAL_CHARGE>
0

> <PUBCHEM_SUBSTANCE_ID>
310946623

> <PUBCHEM_SUBSTANCE_VERSION>
1

> <PUBCHEM_EXT_DATASOURCE_NAME>
4488

> <PUBCHEM_EXT_DATASOURCE_REGID>
SCHEMBL16124744

> <PUBCHEM_SUBSTANCE_COMMENT>
InChI=1S/C17H34N4O5/c1-2-3-4-5-9-12-20-17(23)15(18)14-16(22)19-11-8-6-7-10-13-26-21(24)25/h15H,2-14,18H2,1H3,(H,19,22)(H,20,23)
InChIKey=NRGBLYFYXHVPCK-UHFFFAOYSA-N

> <PUBCHEM_SUBSTANCE_SYNONYM>
SCHEMBL16124744

> <PUBCHEM_XREF_EXT_ID>
SCHEMBL16124744

> <PUBCHEM_EXT_DATASOURCE_URL>
https://www.surechembl.org/

> <PUBCHEM_EXT_SUBSTANCE_URL>
https://www.surechembl.org/chemical/SCHEMBL16124744

> <PUBCHEM_CID_ASSOCIATIONS>
117612523  1

> <PUBCHEM_COORDINATE_TYPE>
1
3

$$$$
