310943073
  -OEChem-07211613022D

 18 19  0     1  0  0  0  0  0999 V2000
   -2.3031   -2.0556    0.0000 Br  0  0  0  0  0  0  0  0  0  0  0  0
    1.9731   -0.1169    0.0000 F   0  0  0  0  0  0  0  0  0  0  0  0
    2.3031   -1.2168    0.0000 F   0  0  0  0  0  0  0  0  0  0  0  0
    1.1893   -1.5331    0.0000 F   0  0  0  0  0  0  0  0  0  0  0  0
    0.8594    0.4056    0.0000 N   0  0  0  0  0  0  0  0  0  0  0  0
    0.8594    2.0556    0.0000 N   0  0  0  0  0  0  0  0  0  0  0  0
    0.8456   -0.4056    0.0000 C   0  0  3  0  0  0  0  0  0  0  0  0
    1.5743   -0.8318    0.0000 C   0  0  0  0  0  0  0  0  0  0  0  0
    0.1444   -0.8181    0.0000 C   0  0  0  0  0  0  0  0  0  0  0  0
   -0.5569   -0.4193    0.0000 C   0  0  0  0  0  0  0  0  0  0  0  0
    0.1444   -1.6431    0.0000 C   0  0  0  0  0  0  0  0  0  0  0  0
    0.1444    0.8318    0.0000 C   0  0  0  0  0  0  0  0  0  0  0  0
    1.5743    0.8181    0.0000 C   0  0  0  0  0  0  0  0  0  0  0  0
   -1.2718   -0.8181    0.0000 C   0  0  0  0  0  0  0  0  0  0  0  0
   -0.5706   -2.0556    0.0000 C   0  0  0  0  0  0  0  0  0  0  0  0
   -1.2994   -1.6431    0.0000 C   0  0  0  0  0  0  0  0  0  0  0  0
    0.1444    1.6568    0.0000 C   0  0  0  0  0  0  0  0  0  0  0  0
    1.5743    1.6293    0.0000 C   0  0  0  0  0  0  0  0  0  0  0  0
  1 16  1  0  0  0  0
  2  8  1  0  0  0  0
  3  8  1  0  0  0  0
  4  8  1  0  0  0  0
  5  7  1  0  0  0  0
  5 12  1  0  0  0  0
  5 13  1  0  0  0  0
  6 17  1  0  0  0  0
  6 18  1  0  0  0  0
  7  8  1  0  0  0  0
  7  9  1  0  0  0  0
  9 10  2  0  0  0  0
  9 11  1  0  0  0  0
 10 14  1  0  0  0  0
 11 15  2  0  0  0  0
 12 17  1  0  0  0  0
 13 18  1  0  0  0  0
 14 16  2  0  0  0  0
 15 16  1  0  0  0  0
M  END
> <PUBCHEM_COMPOUND_ID_TYPE>
0

> <PUBCHEM_TOTAL_CHARGE>
0

> <PUBCHEM_SUBSTANCE_ID>
310943073

> <PUBCHEM_SUBSTANCE_VERSION>
1

> <PUBCHEM_EXT_DATASOURCE_NAME>
4488

> <PUBCHEM_EXT_DATASOURCE_REGID>
SCHEMBL16121132

> <PUBCHEM_SUBSTANCE_COMMENT>
InChI=1S/C12H14BrF3N2/c13-10-3-1-9(2-4-10)11(12(14,15)16)18-7-5-17-6-8-18/h1-4,11,17H,5-8H2
InChIKey=RTALNTHBTBMZHF-UHFFFAOYSA-N

> <PUBCHEM_SUBSTANCE_SYNONYM>
SCHEMBL16121132

> <PUBCHEM_XREF_EXT_ID>
SCHEMBL16121132

> <PUBCHEM_EXT_DATASOURCE_URL>
https://www.surechembl.org/

> <PUBCHEM_EXT_SUBSTANCE_URL>
https://www.surechembl.org/chemical/SCHEMBL16121132

> <PUBCHEM_CID_ASSOCIATIONS>
117609509  1

> <PUBCHEM_COORDINATE_TYPE>
1
3

$$$$
