310939595
  -OEChem-07211613022D

 26 28  0     1  0  0  0  0  0999 V2000
   -1.0717   -9.3844    0.0000 O   0  0  0  0  0  0  0  0  0  0  0  0
   -2.5006  -10.2094    0.0000 O   0  0  0  0  0  0  0  0  0  0  0  0
    1.7862  -10.2094    0.0000 N   0  0  0  0  0  0  0  0  0  0  0  0
    2.5006   -8.9719    0.0000 N   0  0  0  0  0  0  0  0  0  0  0  0
    2.5006  -11.4469    0.0000 N   0  0  0  0  0  0  0  0  0  0  0  0
   -3.9296   -9.3844    0.0000 N   0  0  0  0  0  0  0  0  0  0  0  0
    1.7862   -9.3844    0.0000 C   0  0  0  0  0  0  0  0  0  0  0  0
    1.0717   -8.9719    0.0000 C   0  0  0  0  0  0  0  0  0  0  0  0
    2.5006  -10.6219    0.0000 C   0  0  0  0  0  0  0  0  0  0  0  0
    0.3572   -9.3844    0.0000 C   0  0  0  0  0  0  0  0  0  0  0  0
   -0.3572   -8.9719    0.0000 C   0  0  0  0  0  0  0  0  0  0  0  0
    1.0717   -8.1469    0.0000 C   0  0  0  0  0  0  0  0  0  0  0  0
    3.2151  -10.2094    0.0000 C   0  0  0  0  0  0  0  0  0  0  0  0
    3.2151   -9.3844    0.0000 C   0  0  0  0  0  0  0  0  0  0  0  0
   -0.3572   -8.1469    0.0000 C   0  0  0  0  0  0  0  0  0  0  0  0
    0.3572   -7.7344    0.0000 C   0  0  0  0  0  0  0  0  0  0  0  0
    3.2151  -11.8594    0.0000 C   0  0  0  0  0  0  0  0  0  0  0  0
    3.2151  -12.6844    0.0000 C   0  0  0  0  0  0  0  0  0  0  0  0
    3.9296  -11.4469    0.0000 C   0  0  0  0  0  0  0  0  0  0  0  0
   -1.7862   -8.9719    0.0000 C   0  0  0  0  0  0  0  0  0  0  0  0
   -2.5006   -9.3844    0.0000 C   0  0  3  0  0  0  0  0  0  0  0  0
    3.9296  -13.0969    0.0000 C   0  0  0  0  0  0  0  0  0  0  0  0
    4.6441  -11.8594    0.0000 C   0  0  0  0  0  0  0  0  0  0  0  0
    4.6441  -12.6844    0.0000 C   0  0  0  0  0  0  0  0  0  0  0  0
   -3.2151   -8.9719    0.0000 C   0  0  0  0  0  0  0  0  0  0  0  0
   -4.6441   -8.9719    0.0000 C   0  0  0  0  0  0  0  0  0  0  0  0
  1 11  1  0  0  0  0
  1 20  1  0  0  0  0
  2 21  1  0  0  0  0
  3  7  1  0  0  0  0
  3  9  2  0  0  0  0
  4  7  2  0  0  0  0
  4 14  1  0  0  0  0
  5  9  1  0  0  0  0
  5 17  1  0  0  0  0
  6 25  1  0  0  0  0
  6 26  1  0  0  0  0
  7  8  1  0  0  0  0
  8 10  2  0  0  0  0
  8 12  1  0  0  0  0
  9 13  1  0  0  0  0
 10 11  1  0  0  0  0
 11 15  2  0  0  0  0
 12 16  2  0  0  0  0
 13 14  2  0  0  0  0
 15 16  1  0  0  0  0
 17 18  1  0  0  0  0
 17 19  1  0  0  0  0
 18 22  1  0  0  0  0
 19 23  1  0  0  0  0
 20 21  1  0  0  0  0
 21 25  1  0  0  0  0
 22 24  1  0  0  0  0
 23 24  1  0  0  0  0
M  END
> <PUBCHEM_COMPOUND_ID_TYPE>
0

> <PUBCHEM_TOTAL_CHARGE>
0

> <PUBCHEM_SUBSTANCE_ID>
310939595

> <PUBCHEM_SUBSTANCE_VERSION>
1

> <PUBCHEM_EXT_DATASOURCE_NAME>
4488

> <PUBCHEM_EXT_DATASOURCE_REGID>
SCHEMBL16117525

> <PUBCHEM_SUBSTANCE_COMMENT>
InChI=1S/C20H28N4O2/c1-21-13-17(25)14-26-18-9-5-6-15(12-18)20-22-11-10-19(24-20)23-16-7-3-2-4-8-16/h5-6,9-12,16-17,21,25H,2-4,7-8,13-14H2,1H3,(H,22,23,24)
InChIKey=AMHYMVSKGYJUPT-UHFFFAOYSA-N

> <PUBCHEM_SUBSTANCE_SYNONYM>
SCHEMBL16117525

> <PUBCHEM_XREF_EXT_ID>
SCHEMBL16117525

> <PUBCHEM_EXT_DATASOURCE_URL>
https://www.surechembl.org/

> <PUBCHEM_EXT_SUBSTANCE_URL>
https://www.surechembl.org/chemical/SCHEMBL16117525

> <PUBCHEM_CID_ASSOCIATIONS>
117606857  1

> <PUBCHEM_COORDINATE_TYPE>
1
3

$$$$
