310943858
  -OEChem-07211613022D

 29 31  0     1  0  0  0  0  0999 V2000
    4.4916    1.1977    0.0000 P   0  0  0  0  0  0  0  0  0  0  0  0
    4.4916    2.2225    0.0000 O   0  0  0  0  0  0  0  0  0  0  0  0
   -2.7881   -1.4240    0.0000 N   0  0  3  0  0  0  0  0  0  0  0  0
    3.6132    0.6787    0.0000 N   0  0  0  0  0  0  0  0  0  0  0  0
   -4.5714   -0.8917    0.0000 N   0  0  3  0  0  0  0  0  0  0  0  0
    1.5105   -2.2225    0.0000 N   0  0  0  0  0  0  0  0  0  0  0  0
    0.0466   -0.5722    0.0000 C   0  0  0  0  0  0  0  0  0  0  0  0
    0.0599   -1.3973    0.0000 C   0  0  0  0  0  0  0  0  0  0  0  0
    0.7652   -0.1597    0.0000 C   0  0  0  0  0  0  0  0  0  0  0  0
   -1.3907   -1.4107    0.0000 C   0  0  0  0  0  0  0  0  0  0  0  0
   -0.6454   -1.7966    0.0000 C   0  0  0  0  0  0  0  0  0  0  0  0
   -0.6454   -0.1863    0.0000 C   0  0  0  0  0  0  0  0  0  0  0  0
   -1.3641   -0.5856    0.0000 C   0  0  0  0  0  0  0  0  0  0  0  0
    1.4838   -0.5589    0.0000 C   0  0  0  0  0  0  0  0  0  0  0  0
    0.7786    0.6654    0.0000 C   0  0  0  0  0  0  0  0  0  0  0  0
    2.2025    0.6654    0.0000 C   0  0  0  0  0  0  0  0  0  0  0  0
   -2.0960   -1.8232    0.0000 C   0  0  0  0  0  0  0  0  0  0  0  0
    0.7786   -1.8099    0.0000 C   0  0  0  0  0  0  0  0  0  0  0  0
    2.1759   -0.1597    0.0000 C   0  0  0  0  0  0  0  0  0  0  0  0
    1.4705    1.0647    0.0000 C   0  0  0  0  0  0  0  0  0  0  0  0
    2.8812    1.0780    0.0000 C   0  0  0  0  0  0  0  0  0  0  0  0
   -3.4668   -1.8898    0.0000 C   0  0  0  0  0  0  0  0  0  0  0  0
   -2.7348   -0.6122    0.0000 C   0  0  0  0  0  0  0  0  0  0  0  0
   -4.2520   -1.6369    0.0000 C   0  0  0  0  0  0  0  0  0  0  0  0
   -3.3470   -0.0399    0.0000 C   0  0  0  0  0  0  0  0  0  0  0  0
   -4.1455   -0.1597    0.0000 C   0  0  0  0  0  0  0  0  0  0  0  0
    5.3965    0.6787    0.0000 C   0  0  0  0  0  0  0  0  0  0  0  0
    4.5048    0.1730    0.0000 C   0  0  0  0  0  0  0  0  0  0  0  0
   -5.3965   -0.8917    0.0000 C   0  0  0  0  0  0  0  0  0  0  0  0
  1  2  2  0  0  0  0
  1  4  1  0  0  0  0
  1 27  1  0  0  0  0
  1 28  1  0  0  0  0
  3 17  1  0  0  0  0
  3 22  1  0  0  0  0
  3 23  1  0  0  0  0
  4 21  1  0  0  0  0
  5 24  1  0  0  0  0
  5 26  1  0  0  0  0
  5 29  1  0  0  0  0
  6 18  3  0  0  0  0
  7  8  1  0  0  0  0
  7  9  1  0  0  0  0
  7 12  2  0  0  0  0
  8 11  2  0  0  0  0
  8 18  1  0  0  0  0
  9 14  2  0  0  0  0
  9 15  1  0  0  0  0
 10 11  1  0  0  0  0
 10 13  2  0  0  0  0
 10 17  1  0  0  0  0
 12 13  1  0  0  0  0
 14 19  1  0  0  0  0
 15 20  2  0  0  0  0
 16 19  2  0  0  0  0
 16 20  1  0  0  0  0
 16 21  1  0  0  0  0
 22 24  1  0  0  0  0
 23 25  1  0  0  0  0
 25 26  1  0  0  0  0
M  END
> <PUBCHEM_COMPOUND_ID_TYPE>
0

> <PUBCHEM_TOTAL_CHARGE>
0

> <PUBCHEM_SUBSTANCE_ID>
310943858

> <PUBCHEM_SUBSTANCE_VERSION>
1

> <PUBCHEM_EXT_DATASOURCE_NAME>
4488

> <PUBCHEM_EXT_DATASOURCE_REGID>
SCHEMBL16121929

> <PUBCHEM_SUBSTANCE_COMMENT>
InChI=1S/C23H31N4OP/c1-26-11-4-12-27(14-13-26)18-20-7-10-23(22(15-20)16-24)21-8-5-19(6-9-21)17-25-29(2,3)28/h5-10,15H,4,11-14,17-18H2,1-3H3,(H,25,28)
InChIKey=WCFBOWAOKVNUMO-UHFFFAOYSA-N

> <PUBCHEM_SUBSTANCE_SYNONYM>
SCHEMBL16121929

> <PUBCHEM_XREF_EXT_ID>
SCHEMBL16121929

> <PUBCHEM_EXT_DATASOURCE_URL>
https://www.surechembl.org/

> <PUBCHEM_EXT_SUBSTANCE_URL>
https://www.surechembl.org/chemical/SCHEMBL16121929

> <PUBCHEM_CID_ASSOCIATIONS>
117610192  1

> <PUBCHEM_COORDINATE_TYPE>
1
3

$$$$
