310946431
  -OEChem-07211613022D

 19 18  0     1  0  0  0  0  0999 V2000
   -0.3572  -12.1781    0.0000 O   0  0  0  0  0  0  0  0  0  0  0  0
   -0.7401  -15.8610    0.0000 O   0  0  0  0  0  0  0  0  0  0  0  0
   -3.9296  -11.7656    0.0000 O   0  0  0  0  0  0  0  0  0  0  0  0
    1.0717  -12.1781    0.0000 O   0  5  0  0  0  0  0  0  0  0  0  0
    0.3572  -10.9406    0.0000 O   0  0  0  0  0  0  0  0  0  0  0  0
   -0.7401  -17.2899    0.0000 O   0  0  0  0  0  0  0  0  0  0  0  0
   -3.2151  -13.0031    0.0000 N   0  0  0  0  0  0  0  0  0  0  0  0
    0.3572  -11.7656    0.0000 N   0  3  0  0  0  0  0  0  0  0  0  0
    0.4974  -15.1465    0.0000 N   0  0  0  0  0  0  0  0  0  0  0  0
   -3.2151  -12.1781    0.0000 C   0  0  0  0  0  0  0  0  0  0  0  0
   -0.3276  -15.1465    0.0000 C   0  0  3  0  0  0  0  0  0  0  0  0
   -2.5006  -11.7656    0.0000 C   0  0  0  0  0  0  0  0  0  0  0  0
   -1.7862  -12.1781    0.0000 C   0  0  0  0  0  0  0  0  0  0  0  0
   -0.7401  -14.4320    0.0000 C   0  0  0  0  0  0  0  0  0  0  0  0
   -1.0717  -11.7656    0.0000 C   0  0  0  0  0  0  0  0  0  0  0  0
   -2.8026  -13.7175    0.0000 C   0  0  0  0  0  0  0  0  0  0  0  0
   -1.5651  -14.4320    0.0000 C   0  0  0  0  0  0  0  0  0  0  0  0
   -1.9776  -13.7175    0.0000 C   0  0  0  0  0  0  0  0  0  0  0  0
   -0.3276  -16.5754    0.0000 C   0  0  0  0  0  0  0  0  0  0  0  0
  1  8  1  0  0  0  0
  1 15  1  0  0  0  0
  2 11  1  0  0  0  0
  2 19  1  0  0  0  0
  3 10  2  0  0  0  0
  4  8  1  0  0  0  0
  5  8  2  0  0  0  0
  6 19  2  0  0  0  0
  7 10  1  0  0  0  0
  7 16  1  0  0  0  0
  9 11  1  0  0  0  0
 10 12  1  0  0  0  0
 11 14  1  0  0  0  0
 12 13  1  0  0  0  0
 13 15  1  0  0  0  0
 14 17  1  0  0  0  0
 16 18  1  0  0  0  0
 17 18  1  0  0  0  0
M  CHG  2   4  -1   8   1
M  END
> <PUBCHEM_COMPOUND_ID_TYPE>
0

> <PUBCHEM_TOTAL_CHARGE>
0

> <PUBCHEM_SUBSTANCE_ID>
310946431

> <PUBCHEM_SUBSTANCE_VERSION>
1

> <PUBCHEM_EXT_DATASOURCE_NAME>
4488

> <PUBCHEM_EXT_DATASOURCE_REGID>
SCHEMBL16124552

> <PUBCHEM_SUBSTANCE_COMMENT>
InChI=1S/C10H19N3O6/c11-9(18-8-14)4-1-2-6-12-10(15)5-3-7-19-13(16)17/h8-9H,1-7,11H2,(H,12,15)
InChIKey=SCTXEQTWVJFWJL-UHFFFAOYSA-N

> <PUBCHEM_SUBSTANCE_SYNONYM>
SCHEMBL16124552

> <PUBCHEM_XREF_EXT_ID>
SCHEMBL16124552

> <PUBCHEM_EXT_DATASOURCE_URL>
https://www.surechembl.org/

> <PUBCHEM_EXT_SUBSTANCE_URL>
https://www.surechembl.org/chemical/SCHEMBL16124552

> <PUBCHEM_CID_ASSOCIATIONS>
117612343  1

> <PUBCHEM_COORDINATE_TYPE>
1
3

$$$$
