310948656
  -OEChem-07211613022D

 14 16  0     1  0  0  0  0  0999 V2000
   -2.8403    1.1827    0.0000 Br  0  0  0  0  0  0  0  0  0  0  0  0
    0.9033    0.3446    0.0000 N   0  0  3  0  0  0  0  0  0  0  0  0
   -0.3818    0.7729    0.0000 C   0  0  0  0  0  0  0  0  0  0  0  0
   -0.4004   -0.0652    0.0000 C   0  0  0  0  0  0  0  0  0  0  0  0
    0.4191    1.0151    0.0000 C   0  0  0  0  0  0  0  0  0  0  0  0
    0.4004   -0.3260    0.0000 C   0  0  0  0  0  0  0  0  0  0  0  0
   -1.1082    1.1641    0.0000 C   0  0  0  0  0  0  0  0  0  0  0  0
   -1.0895   -0.4750    0.0000 C   0  0  0  0  0  0  0  0  0  0  0  0
    1.7414    0.3260    0.0000 C   0  0  0  0  0  0  0  0  0  0  0  0
   -1.8159    0.7729    0.0000 C   0  0  0  0  0  0  0  0  0  0  0  0
    2.1512   -0.3818    0.0000 C   0  0  0  0  0  0  0  0  0  0  0  0
   -1.8159   -0.0838    0.0000 C   0  0  0  0  0  0  0  0  0  0  0  0
    2.8403   -0.7916    0.0000 C   0  0  0  0  0  0  0  0  0  0  0  0
    2.1699   -1.1827    0.0000 C   0  0  0  0  0  0  0  0  0  0  0  0
  1 10  1  0  0  0  0
  2  5  1  0  0  0  0
  2  6  1  0  0  0  0
  2  9  1  0  0  0  0
  3  4  2  0  0  0  0
  3  5  1  0  0  0  0
  3  7  1  0  0  0  0
  4  6  1  0  0  0  0
  4  8  1  0  0  0  0
  7 10  2  0  0  0  0
  8 12  2  0  0  0  0
  9 11  1  0  0  0  0
 10 12  1  0  0  0  0
 11 13  1  0  0  0  0
 11 14  1  0  0  0  0
 13 14  1  0  0  0  0
M  END
> <PUBCHEM_COMPOUND_ID_TYPE>
0

> <PUBCHEM_TOTAL_CHARGE>
0

> <PUBCHEM_SUBSTANCE_ID>
310948656

> <PUBCHEM_SUBSTANCE_VERSION>
1

> <PUBCHEM_EXT_DATASOURCE_NAME>
4488

> <PUBCHEM_EXT_DATASOURCE_REGID>
SCHEMBL16126840

> <PUBCHEM_SUBSTANCE_COMMENT>
InChI=1S/C12H14BrN/c13-12-4-3-10-7-14(6-9-1-2-9)8-11(10)5-12/h3-5,9H,1-2,6-8H2
InChIKey=VEMBKTRNGXUIBQ-UHFFFAOYSA-N

> <PUBCHEM_SUBSTANCE_SYNONYM>
SCHEMBL16126840

> <PUBCHEM_XREF_EXT_ID>
SCHEMBL16126840

> <PUBCHEM_EXT_DATASOURCE_URL>
https://www.surechembl.org/

> <PUBCHEM_EXT_SUBSTANCE_URL>
https://www.surechembl.org/chemical/SCHEMBL16126840

> <PUBCHEM_CID_ASSOCIATIONS>
84737771  1

> <PUBCHEM_COORDINATE_TYPE>
1
3

$$$$
