310937131
  -OEChem-07211613022D

 18 19  0     1  0  0  0  0  0999 V2000
    0.0000   -2.0854    0.0000 Br  0  0  0  0  0  0  0  0  0  0  0  0
    1.4437   -4.5832    0.0000 Cl  0  0  0  0  0  0  0  0  0  0  0  0
    2.2000   -0.7792    0.0000 O   0  0  0  0  0  0  0  0  0  0  0  0
    4.3083   -1.2604    0.0000 O   0  0  0  0  0  0  0  0  0  0  0  0
    5.0187   -2.4979    0.0000 O   0  0  0  0  0  0  0  0  0  0  0  0
    3.5520   -0.7792    0.0000 N   0  0  0  0  0  0  0  0  0  0  0  0
    2.8645   -2.0854    0.0000 C   0  0  3  0  0  0  0  0  0  0  0  0
    2.1541   -2.4979    0.0000 C   0  0  0  0  0  0  0  0  0  0  0  0
    2.8645   -1.2604    0.0000 C   0  0  0  0  0  0  0  0  0  0  0  0
    1.4437   -2.1083    0.0000 C   0  0  0  0  0  0  0  0  0  0  0  0
    2.1541   -3.3458    0.0000 C   0  0  0  0  0  0  0  0  0  0  0  0
    3.5979   -2.4979    0.0000 C   0  0  0  0  0  0  0  0  0  0  0  0
    0.7333   -2.4979    0.0000 C   0  0  0  0  0  0  0  0  0  0  0  0
    1.4437   -3.7583    0.0000 C   0  0  0  0  0  0  0  0  0  0  0  0
    0.7104   -3.3228    0.0000 C   0  0  0  0  0  0  0  0  0  0  0  0
    4.3083   -2.0854    0.0000 C   0  0  0  0  0  0  0  0  0  0  0  0
    2.4520    0.0000    0.0000 C   0  0  0  0  0  0  0  0  0  0  0  0
    3.2770    0.0000    0.0000 C   0  0  0  0  0  0  0  0  0  0  0  0
  1 13  1  0  0  0  0
  2 14  1  0  0  0  0
  3  9  1  0  0  0  0
  3 17  1  0  0  0  0
  4 16  2  0  0  0  0
  5 16  1  0  0  0  0
  6  9  2  0  0  0  0
  6 18  1  0  0  0  0
  7  8  1  0  0  0  0
  7  9  1  0  0  0  0
  7 12  1  0  0  0  0
  8 10  1  0  0  0  0
  8 11  2  0  0  0  0
 10 13  2  0  0  0  0
 11 14  1  0  0  0  0
 12 16  1  0  0  0  0
 13 15  1  0  0  0  0
 14 15  2  0  0  0  0
 17 18  2  0  0  0  0
M  END
> <PUBCHEM_COMPOUND_ID_TYPE>
0

> <PUBCHEM_TOTAL_CHARGE>
0

> <PUBCHEM_SUBSTANCE_ID>
310937131

> <PUBCHEM_SUBSTANCE_VERSION>
1

> <PUBCHEM_EXT_DATASOURCE_NAME>
4488

> <PUBCHEM_EXT_DATASOURCE_REGID>
SCHEMBL16114850

> <PUBCHEM_SUBSTANCE_COMMENT>
InChI=1S/C12H9BrClNO3/c13-8-3-7(4-9(14)5-8)10(6-11(16)17)12-15-1-2-18-12/h1-5,10H,6H2,(H,16,17)
InChIKey=JAGYGAIILDFIMN-UHFFFAOYSA-N

> <PUBCHEM_SUBSTANCE_SYNONYM>
SCHEMBL16114850

> <PUBCHEM_XREF_EXT_ID>
SCHEMBL16114850

> <PUBCHEM_EXT_DATASOURCE_URL>
https://www.surechembl.org/

> <PUBCHEM_EXT_SUBSTANCE_URL>
https://www.surechembl.org/chemical/SCHEMBL16114850

> <PUBCHEM_CID_ASSOCIATIONS>
117604960  1

> <PUBCHEM_COORDINATE_TYPE>
1
3

$$$$
