310945651
  -OEChem-07211613022D

 37 40  0     1  0  0  0  0  0999 V2000
   -6.1653   -0.6779    0.0000 P   0  0  0  0  0  0  0  0  0  0  0  0
    5.3979    0.8314    0.0000 O   0  0  0  0  0  0  0  0  0  0  0  0
   -3.3001   -0.6779    0.0000 O   0  0  0  0  0  0  0  0  0  0  0  0
    6.9328   -0.9082    0.0000 O   0  0  0  0  0  0  0  0  0  0  0  0
    6.7793   -2.2384    0.0000 O   0  0  0  0  0  0  0  0  0  0  0  0
   -6.1397   -1.4966    0.0000 O   0  0  0  0  0  0  0  0  0  0  0  0
    2.4559    0.9849    0.0000 N   0  0  0  0  0  0  0  0  0  0  0  0
    4.6048   -0.2175    0.0000 C   0  0  0  0  0  0  0  0  0  0  0  0
    4.6048    0.6012    0.0000 C   0  0  0  0  0  0  0  0  0  0  0  0
   -1.1512    0.6012    0.0000 C   0  0  0  0  0  0  0  0  0  0  0  0
    5.3979   -0.5245    0.0000 C   0  0  3  0  0  0  0  0  0  0  0  0
   -0.4349    1.0105    0.0000 C   0  0  0  0  0  0  0  0  0  0  0  0
   -1.8675    1.0105    0.0000 C   0  0  0  0  0  0  0  0  0  0  0  0
   -1.1512   -0.2175    0.0000 C   0  0  0  0  0  0  0  0  0  0  0  0
    3.1978    0.6012    0.0000 C   0  0  0  0  0  0  0  0  0  0  0  0
    3.8885    0.9849    0.0000 C   0  0  0  0  0  0  0  0  0  0  0  0
    3.8885   -0.6268    0.0000 C   0  0  0  0  0  0  0  0  0  0  0  0
    5.8839    0.2175    0.0000 C   0  0  0  0  0  0  0  0  0  0  0  0
    3.1978   -0.2431    0.0000 C   0  0  0  0  0  0  0  0  0  0  0  0
   -2.5838   -0.2175    0.0000 C   0  0  0  0  0  0  0  0  0  0  0  0
    0.3325    0.6012    0.0000 C   0  0  0  0  0  0  0  0  0  0  0  0
    0.9977    1.0105    0.0000 C   0  0  0  0  0  0  0  0  0  0  0  0
   -2.5582    0.6012    0.0000 C   0  0  0  0  0  0  0  0  0  0  0  0
   -1.8675   -0.6268    0.0000 C   0  0  0  0  0  0  0  0  0  0  0  0
    5.6793   -1.2919    0.0000 C   0  0  0  0  0  0  0  0  0  0  0  0
   -0.4093    1.8291    0.0000 C   0  0  0  0  0  0  0  0  0  0  0  0
    1.7908    0.6012    0.0000 C   0  0  0  0  0  0  0  0  0  0  0  0
    1.0233    1.8291    0.0000 C   0  0  0  0  0  0  0  0  0  0  0  0
    0.3070    2.2384    0.0000 C   0  0  0  0  0  0  0  0  0  0  0  0
    6.4723   -1.4710    0.0000 C   0  0  0  0  0  0  0  0  0  0  0  0
   -1.8419    1.8547    0.0000 C   0  0  0  0  0  0  0  0  0  0  0  0
   -0.3838   -0.6779    0.0000 C   0  0  0  0  0  0  0  0  0  0  0  0
   -3.9908   -0.2431    0.0000 C   0  0  0  0  0  0  0  0  0  0  0  0
   -4.7071   -0.6524    0.0000 C   0  0  0  0  0  0  0  0  0  0  0  0
   -5.4490   -0.2431    0.0000 C   0  0  0  0  0  0  0  0  0  0  0  0
   -6.2165    0.1663    0.0000 C   0  0  0  0  0  0  0  0  0  0  0  0
   -6.9328   -0.3710    0.0000 C   0  0  0  0  0  0  0  0  0  0  0  0
  1  6  2  0  0  0  0
  1 35  1  0  0  0  0
  1 36  1  0  0  0  0
  1 37  1  0  0  0  0
  2  9  1  0  0  0  0
  2 18  1  0  0  0  0
  3 20  1  0  0  0  0
  3 33  1  0  0  0  0
  4 30  2  0  0  0  0
  5 30  1  0  0  0  0
  7 15  1  0  0  0  0
  7 27  1  0  0  0  0
  8  9  1  0  0  0  0
  8 11  1  0  0  0  0
  8 17  2  0  0  0  0
  9 16  2  0  0  0  0
 10 12  1  0  0  0  0
 10 13  2  0  0  0  0
 10 14  1  0  0  0  0
 11 18  1  0  0  0  0
 11 25  1  0  0  0  0
 12 21  2  0  0  0  0
 12 26  1  0  0  0  0
 13 23  1  0  0  0  0
 13 31  1  0  0  0  0
 14 24  2  0  0  0  0
 14 32  1  0  0  0  0
 15 16  1  0  0  0  0
 15 19  2  0  0  0  0
 17 19  1  0  0  0  0
 20 23  2  0  0  0  0
 20 24  1  0  0  0  0
 21 22  1  0  0  0  0
 22 27  1  0  0  0  0
 22 28  2  0  0  0  0
 25 30  1  0  0  0  0
 26 29  2  0  0  0  0
 28 29  1  0  0  0  0
 33 34  1  0  0  0  0
 34 35  1  0  0  0  0
M  END
> <PUBCHEM_COMPOUND_ID_TYPE>
0

> <PUBCHEM_TOTAL_CHARGE>
0

> <PUBCHEM_SUBSTANCE_ID>
310945651

> <PUBCHEM_SUBSTANCE_VERSION>
1

> <PUBCHEM_EXT_DATASOURCE_NAME>
4488

> <PUBCHEM_EXT_DATASOURCE_REGID>
SCHEMBL16123750

> <PUBCHEM_SUBSTANCE_COMMENT>
InChI=1S/C30H36NO5P/c1-20-13-26(35-11-6-12-37(3,4)34)14-21(2)30(20)23-8-5-7-22(15-23)18-31-25-9-10-27-24(16-29(32)33)19-36-28(27)17-25/h5,7-10,13-15,17,24,31H,6,11-12,16,18-19H2,1-4H3,(H,32,33)
InChIKey=GRJWYEQOJYAXQT-UHFFFAOYSA-N

> <PUBCHEM_SUBSTANCE_SYNONYM>
SCHEMBL16123750

> <PUBCHEM_XREF_EXT_ID>
SCHEMBL16123750

> <PUBCHEM_EXT_DATASOURCE_URL>
https://www.surechembl.org/

> <PUBCHEM_EXT_SUBSTANCE_URL>
https://www.surechembl.org/chemical/SCHEMBL16123750

> <PUBCHEM_CID_ASSOCIATIONS>
86269246  1

> <PUBCHEM_COORDINATE_TYPE>
1
3

$$$$
