310932544
  -OEChem-07211613022D

 34 38  0     1  0  0  0  0  0999 V2000
    3.5751   -1.6298    0.0000 O   0  0  0  0  0  0  0  0  0  0  0  0
    4.7055   -3.6014    0.0000 O   0  0  0  0  0  0  0  0  0  0  0  0
    5.4415   -2.3659    0.0000 O   0  0  0  0  0  0  0  0  0  0  0  0
    0.2629   -4.0220    0.0000 O   0  0  0  0  0  0  0  0  0  0  0  0
    0.8149    0.0000    0.0000 O   0  0  0  0  0  0  0  0  0  0  0  0
    3.1545   -2.3659    0.0000 C   0  0  0  0  0  0  0  0  0  0  0  0
    3.9957   -2.3659    0.0000 C   0  0  3  0  0  0  0  0  0  0  0  0
    2.4447   -2.7602    0.0000 C   0  0  0  0  0  0  0  0  0  0  0  0
    2.5761   -1.7613    0.0000 C   0  0  0  0  0  0  0  0  0  0  0  0
    3.7854   -3.1545    0.0000 C   0  0  0  0  0  0  0  0  0  0  0  0
    4.7055   -2.7602    0.0000 C   0  0  0  0  0  0  0  0  0  0  0  0
    2.4185   -3.6014    0.0000 C   0  0  0  0  0  0  0  0  0  0  0  0
    1.7613   -1.9716    0.0000 C   0  0  0  0  0  0  0  0  0  0  0  0
    1.7087   -2.3659    0.0000 C   0  0  0  0  0  0  0  0  0  0  0  0
    2.7865   -0.9463    0.0000 C   0  0  0  0  0  0  0  0  0  0  0  0
    4.3637   -3.7591    0.0000 C   0  0  0  0  0  0  0  0  0  0  0  0
    2.9705   -3.3911    0.0000 C   0  0  0  0  0  0  0  0  0  0  0  0
    1.7087   -4.0220    0.0000 C   0  0  0  0  0  0  0  0  0  0  0  0
    1.1829   -1.3933    0.0000 C   0  0  0  0  0  0  0  0  0  0  0  0
    0.9989   -2.7602    0.0000 C   0  0  0  0  0  0  0  0  0  0  0  0
    2.2081   -0.3680    0.0000 C   0  0  0  0  0  0  0  0  0  0  0  0
    5.4415   -4.0220    0.0000 C   0  0  0  0  0  0  0  0  0  0  0  0
    4.1534   -4.5477    0.0000 C   0  0  0  0  0  0  0  0  0  0  0  0
    2.7602   -4.1797    0.0000 C   0  0  0  0  0  0  0  0  0  0  0  0
    0.9989   -3.6014    0.0000 C   0  0  0  0  0  0  0  0  0  0  0  0
    1.3933   -0.6046    0.0000 C   0  0  0  0  0  0  0  0  0  0  0  0
    3.3385   -4.7843    0.0000 C   0  0  0  0  0  0  0  0  0  0  0  0
    6.1512   -3.6014    0.0000 C   0  0  0  0  0  0  0  0  0  0  0  0
    5.4415   -4.8369    0.0000 C   0  0  0  0  0  0  0  0  0  0  0  0
    6.8610   -3.9957    0.0000 C   0  0  0  0  0  0  0  0  0  0  0  0
    6.1512   -5.2575    0.0000 C   0  0  0  0  0  0  0  0  0  0  0  0
    6.8610   -4.8369    0.0000 C   0  0  0  0  0  0  0  0  0  0  0  0
    0.2629   -4.8369    0.0000 C   0  0  0  0  0  0  0  0  0  0  0  0
    0.0000   -0.2103    0.0000 C   0  0  0  0  0  0  0  0  0  0  0  0
  1  6  1  0  0  0  0
  1  7  1  0  0  0  0
  2 11  1  0  0  0  0
  2 22  1  0  0  0  0
  3 11  2  0  0  0  0
  4 25  1  0  0  0  0
  4 33  1  0  0  0  0
  5 26  1  0  0  0  0
  5 34  1  0  0  0  0
  6  7  1  0  0  0  0
  6  8  1  0  0  0  0
  6  9  1  0  0  0  0
  7 10  1  0  0  0  0
  7 11  1  0  0  0  0
  8 12  2  0  0  0  0
  8 14  1  0  0  0  0
  9 13  2  0  0  0  0
  9 15  1  0  0  0  0
 10 16  2  0  0  0  0
 10 17  1  0  0  0  0
 12 18  1  0  0  0  0
 13 19  1  0  0  0  0
 14 20  2  0  0  0  0
 15 21  2  0  0  0  0
 16 23  1  0  0  0  0
 17 24  2  0  0  0  0
 18 25  2  0  0  0  0
 19 26  2  0  0  0  0
 20 25  1  0  0  0  0
 21 26  1  0  0  0  0
 22 28  2  0  0  0  0
 22 29  1  0  0  0  0
 23 27  2  0  0  0  0
 24 27  1  0  0  0  0
 28 30  1  0  0  0  0
 29 31  2  0  0  0  0
 30 32  2  0  0  0  0
 31 32  1  0  0  0  0
M  END
> <PUBCHEM_COMPOUND_ID_TYPE>
0

> <PUBCHEM_TOTAL_CHARGE>
0

> <PUBCHEM_SUBSTANCE_ID>
310932544

> <PUBCHEM_SUBSTANCE_VERSION>
1

> <PUBCHEM_EXT_DATASOURCE_NAME>
4488

> <PUBCHEM_EXT_DATASOURCE_REGID>
SCHEMBL16109920

> <PUBCHEM_SUBSTANCE_COMMENT>
InChI=1S/C29H24O5/c1-31-24-17-13-22(14-18-24)28(23-15-19-25(32-2)20-16-23)29(34-28,21-9-5-3-6-10-21)27(30)33-26-11-7-4-8-12-26/h3-20H,1-2H3
InChIKey=GHKBTCGKSZCGIK-UHFFFAOYSA-N

> <PUBCHEM_SUBSTANCE_SYNONYM>
SCHEMBL16109920

> <PUBCHEM_XREF_EXT_ID>
SCHEMBL16109920

> <PUBCHEM_EXT_DATASOURCE_URL>
https://www.surechembl.org/

> <PUBCHEM_EXT_SUBSTANCE_URL>
https://www.surechembl.org/chemical/SCHEMBL16109920

> <PUBCHEM_CID_ASSOCIATIONS>
117601074  1

> <PUBCHEM_COORDINATE_TYPE>
1
3

$$$$
