310936314
  -OEChem-07211613022D

 21 23  0     1  0  0  0  0  0999 V2000
    2.1594   -0.8062    0.0000 O   0  0  0  0  0  0  0  0  0  0  0  0
    1.4396   -2.0443    0.0000 N   0  0  0  0  0  0  0  0  0  0  0  0
    2.1594   -1.6411    0.0000 C   0  0  3  0  0  0  0  0  0  0  0  0
    2.8792   -2.0443    0.0000 C   0  0  3  0  0  0  0  0  0  0  0  0
    2.8792   -2.8792    0.0000 C   0  0  0  0  0  0  0  0  0  0  0  0
    1.4396   -1.2381    0.0000 C   0  0  0  0  0  0  0  0  0  0  0  0
    2.1594   -4.0885    0.0000 C   0  0  0  0  0  0  0  0  0  0  0  0
    2.1594   -3.3111    0.0000 C   0  0  0  0  0  0  0  0  0  0  0  0
    2.8792   -4.5204    0.0000 C   0  0  0  0  0  0  0  0  0  0  0  0
    3.5990   -3.2823    0.0000 C   0  0  0  0  0  0  0  0  0  0  0  0
    3.5990   -4.1173    0.0000 C   0  0  0  0  0  0  0  0  0  0  0  0
    0.7198   -1.6411    0.0000 C   0  0  0  0  0  0  0  0  0  0  0  0
    1.4396   -0.4031    0.0000 C   0  0  0  0  0  0  0  0  0  0  0  0
    3.5702   -1.6411    0.0000 C   0  0  0  0  0  0  0  0  0  0  0  0
    1.4684   -4.5204    0.0000 C   0  0  0  0  0  0  0  0  0  0  0  0
    2.8792   -5.3266    0.0000 C   0  0  0  0  0  0  0  0  0  0  0  0
    0.0000   -1.2381    0.0000 C   0  0  0  0  0  0  0  0  0  0  0  0
    0.7198    0.0000    0.0000 C   0  0  0  0  0  0  0  0  0  0  0  0
    1.4684   -5.3554    0.0000 C   0  0  0  0  0  0  0  0  0  0  0  0
    2.1594   -5.7585    0.0000 C   0  0  0  0  0  0  0  0  0  0  0  0
    0.0000   -0.4031    0.0000 C   0  0  0  0  0  0  0  0  0  0  0  0
  1  3  1  0  0  0  0
  2  3  1  0  0  0  0
  3  4  1  0  0  0  0
  3  6  1  0  0  0  0
  4  5  1  0  0  0  0
  4 14  1  0  0  0  0
  5  8  2  0  0  0  0
  5 10  1  0  0  0  0
  6 12  2  0  0  0  0
  6 13  1  0  0  0  0
  7  8  1  0  0  0  0
  7  9  2  0  0  0  0
  7 15  1  0  0  0  0
  9 11  1  0  0  0  0
  9 16  1  0  0  0  0
 10 11  2  0  0  0  0
 12 17  1  0  0  0  0
 13 18  2  0  0  0  0
 15 19  2  0  0  0  0
 16 20  2  0  0  0  0
 17 21  2  0  0  0  0
 18 21  1  0  0  0  0
 19 20  1  0  0  0  0
M  END
> <PUBCHEM_COMPOUND_ID_TYPE>
0

> <PUBCHEM_TOTAL_CHARGE>
0

> <PUBCHEM_SUBSTANCE_ID>
310936314

> <PUBCHEM_SUBSTANCE_VERSION>
1

> <PUBCHEM_EXT_DATASOURCE_NAME>
4488

> <PUBCHEM_EXT_DATASOURCE_REGID>
SCHEMBL16113940

> <PUBCHEM_SUBSTANCE_COMMENT>
InChI=1S/C19H19NO/c1-14(19(20,21)18-9-3-2-4-10-18)16-12-11-15-7-5-6-8-17(15)13-16/h2-14,21H,20H2,1H3
InChIKey=BYGAHMKHVDIHHW-UHFFFAOYSA-N

> <PUBCHEM_SUBSTANCE_SYNONYM>
SCHEMBL16113940

> <PUBCHEM_XREF_EXT_ID>
SCHEMBL16113940

> <PUBCHEM_EXT_DATASOURCE_URL>
https://www.surechembl.org/

> <PUBCHEM_EXT_SUBSTANCE_URL>
https://www.surechembl.org/chemical/SCHEMBL16113940

> <PUBCHEM_CID_ASSOCIATIONS>
117604258  1

> <PUBCHEM_COORDINATE_TYPE>
1
3

$$$$
