310932262
  -OEChem-07211613022D

 24 26  0     1  0  0  0  0  0999 V2000
   -2.7346   -1.2375    0.0000 S   0  0  0  0  0  0  0  0  0  0  0  0
    1.5914   -1.1605    0.0000 O   0  0  0  0  0  0  0  0  0  0  0  0
   -1.3057   -2.0625    0.0000 O   0  0  0  0  0  0  0  0  0  0  0  0
   -0.5912   -0.8250    0.0000 N   0  0  0  0  0  0  0  0  0  0  0  0
   -3.4491   -0.8250    0.0000 C   0  0  0  0  0  0  0  0  0  0  0  0
   -4.1636   -1.2375    0.0000 C   0  0  0  0  0  0  0  0  0  0  0  0
   -3.4491    0.0000    0.0000 C   0  0  0  0  0  0  0  0  0  0  0  0
   -4.8780   -0.8250    0.0000 C   0  0  0  0  0  0  0  0  0  0  0  0
   -2.7346    0.4125    0.0000 C   0  0  0  0  0  0  0  0  0  0  0  0
   -4.1636   -2.0625    0.0000 C   0  0  0  0  0  0  0  0  0  0  0  0
   -4.1636    0.4125    0.0000 C   0  0  0  0  0  0  0  0  0  0  0  0
   -2.0202   -0.8250    0.0000 C   0  0  0  0  0  0  0  0  0  0  0  0
   -1.3057   -1.2375    0.0000 C   0  0  0  0  0  0  0  0  0  0  0  0
    0.8377   -0.8250    0.0000 C   0  0  3  0  0  0  0  0  0  0  0  0
   -5.5926   -1.2375    0.0000 C   0  0  0  0  0  0  0  0  0  0  0  0
   -2.7346    1.2375    0.0000 C   0  0  0  0  0  0  0  0  0  0  0  0
   -4.8780   -2.4750    0.0000 C   0  0  0  0  0  0  0  0  0  0  0  0
   -4.1636    1.2375    0.0000 C   0  0  0  0  0  0  0  0  0  0  0  0
    0.1232   -1.2375    0.0000 C   0  0  0  0  0  0  0  0  0  0  0  0
   -5.5926   -2.0625    0.0000 C   0  0  0  0  0  0  0  0  0  0  0  0
   -3.4491    1.6500    0.0000 C   0  0  0  0  0  0  0  0  0  0  0  0
    0.9239   -0.0045    0.0000 C   0  0  0  0  0  0  0  0  0  0  0  0
    2.1434   -0.5474    0.0000 C   0  0  0  0  0  0  0  0  0  0  0  0
    1.7309    0.1670    0.0000 C   0  0  0  0  0  0  0  0  0  0  0  0
  1  5  1  0  0  0  0
  1 12  1  0  0  0  0
  2 14  1  0  0  0  0
  2 23  1  0  0  0  0
  3 13  2  0  0  0  0
  4 13  1  0  0  0  0
  4 19  1  0  0  0  0
  5  6  1  0  0  0  0
  5  7  1  0  0  0  0
  6  8  2  0  0  0  0
  6 10  1  0  0  0  0
  7  9  2  0  0  0  0
  7 11  1  0  0  0  0
  8 15  1  0  0  0  0
  9 16  1  0  0  0  0
 10 17  2  0  0  0  0
 11 18  2  0  0  0  0
 12 13  1  0  0  0  0
 14 19  1  0  0  0  0
 14 22  1  0  0  0  0
 15 20  2  0  0  0  0
 16 21  2  0  0  0  0
 17 20  1  0  0  0  0
 18 21  1  0  0  0  0
 22 24  1  0  0  0  0
 23 24  1  0  0  0  0
M  END
> <PUBCHEM_COMPOUND_ID_TYPE>
0

> <PUBCHEM_TOTAL_CHARGE>
0

> <PUBCHEM_SUBSTANCE_ID>
310932262

> <PUBCHEM_SUBSTANCE_VERSION>
1

> <PUBCHEM_EXT_DATASOURCE_NAME>
4488

> <PUBCHEM_EXT_DATASOURCE_REGID>
SCHEMBL16109620

> <PUBCHEM_SUBSTANCE_COMMENT>
InChI=1S/C20H23NO2S/c22-19(21-14-18-12-7-13-23-18)15-24-20(16-8-3-1-4-9-16)17-10-5-2-6-11-17/h1-6,8-11,18,20H,7,12-15H2,(H,21,22)
InChIKey=NLFRAANHHHTUBJ-UHFFFAOYSA-N

> <PUBCHEM_SUBSTANCE_SYNONYM>
SCHEMBL16109620

> <PUBCHEM_XREF_EXT_ID>
SCHEMBL16109620

> <PUBCHEM_EXT_DATASOURCE_URL>
https://www.surechembl.org/

> <PUBCHEM_EXT_SUBSTANCE_URL>
https://www.surechembl.org/chemical/SCHEMBL16109620

> <PUBCHEM_CID_ASSOCIATIONS>
18168400  1

> <PUBCHEM_COORDINATE_TYPE>
1
3

$$$$
