310937613
  -OEChem-07211613022D

 17 19  0     1  0  0  0  0  0999 V2000
   -4.3500    0.4121    0.0000 Br  0  0  0  0  0  0  0  0  0  0  0  0
   -1.0500    0.4121    0.0000 N   0  0  0  0  0  0  0  0  0  0  0  0
   -2.2875    1.1266    0.0000 N   0  0  0  0  0  0  0  0  0  0  0  0
    0.7144    1.2375    0.0000 N   0  0  0  0  0  0  0  0  0  0  0  0
   -3.1125   -0.3024    0.0000 N   0  0  0  0  0  0  0  0  0  0  0  0
   -0.7144    1.2375    0.0000 C   0  0  3  0  0  0  0  0  0  0  0  0
   -0.7144   -0.4125    0.0000 C   0  0  3  0  0  0  0  0  0  0  0  0
    0.0000    0.8250    0.0000 C   0  0  3  0  0  0  0  0  0  0  0  0
    0.0000    0.0000    0.0000 C   0  0  0  0  0  0  0  0  0  0  0  0
   -1.8750    0.4121    0.0000 C   0  0  0  0  0  0  0  0  0  0  0  0
   -1.4290    0.8250    0.0000 C   0  0  0  0  0  0  0  0  0  0  0  0
   -1.4290    0.0000    0.0000 C   0  0  0  0  0  0  0  0  0  0  0  0
   -2.2875   -0.3024    0.0000 C   0  0  0  0  0  0  0  0  0  0  0  0
   -3.1125    1.1266    0.0000 C   0  0  0  0  0  0  0  0  0  0  0  0
   -3.5250    0.4121    0.0000 C   0  0  0  0  0  0  0  0  0  0  0  0
   -0.7144    2.0625    0.0000 H   0  0  0  0  0  0  0  0  0  0  0  0
   -0.7144   -1.2375    0.0000 H   0  0  0  0  0  0  0  0  0  0  0  0
  1 15  1  0  0  0  0
  2  6  1  0  0  0  0
  2  7  1  0  0  0  0
  2 10  1  0  0  0  0
  3 10  2  0  0  0  0
  3 14  1  0  0  0  0
  8  4  1  6  0  0  0
  5 13  2  0  0  0  0
  5 15  1  0  0  0  0
  6  8  1  0  0  0  0
  6 11  1  0  0  0  0
  6 16  1  6  0  0  0
  7  9  1  0  0  0  0
  7 12  1  0  0  0  0
  7 17  1  6  0  0  0
  8  9  1  0  0  0  0
 10 13  1  0  0  0  0
 11 12  1  0  0  0  0
 14 15  2  0  0  0  0
M  END
> <PUBCHEM_COMPOUND_ID_TYPE>
0

> <PUBCHEM_TOTAL_CHARGE>
0

> <PUBCHEM_SUBSTANCE_ID>
310937613

> <PUBCHEM_SUBSTANCE_VERSION>
1

> <PUBCHEM_EXT_DATASOURCE_NAME>
4488

> <PUBCHEM_EXT_DATASOURCE_REGID>
SCHEMBL16115395

> <PUBCHEM_SUBSTANCE_COMMENT>
InChI=1S/C10H13BrN4/c11-9-4-14-10(5-13-9)15-6-1-2-8(15)7(12)3-6/h4-8H,1-3,12H2/t6-,7-,8+/m1/s1
InChIKey=FNJRBVXRLVTVBH-PRJMDXOYSA-N

> <PUBCHEM_SUBSTANCE_SYNONYM>
SCHEMBL16115395

> <PUBCHEM_XREF_EXT_ID>
SCHEMBL16115395

> <PUBCHEM_EXT_DATASOURCE_URL>
https://www.surechembl.org/

> <PUBCHEM_EXT_SUBSTANCE_URL>
https://www.surechembl.org/chemical/SCHEMBL16115395

> <PUBCHEM_CID_ASSOCIATIONS>
117605314  1

> <PUBCHEM_COORDINATE_TYPE>
1
3

> <PUBCHEM_BONDANNOTATIONS>
8  4  6
6  16  6
7  17  6

$$$$
