310934239
  -OEChem-07211613022D

 33 36  0     1  0  0  0  0  0999 V2000
    5.3916   -0.7103    0.0000 S   0  0  0  0  0  0  0  0  0  0  0  0
    3.7773   -4.9719    0.0000 F   0  0  0  0  0  0  0  0  0  0  0  0
    2.4860    0.0000    0.0000 O   0  0  0  0  0  0  0  0  0  0  0  0
    6.2310   -0.7103    0.0000 O   0  0  0  0  0  0  0  0  0  0  0  0
    5.8113    0.0000    0.0000 O   0  0  0  0  0  0  0  0  0  0  0  0
    1.6465   -1.4205    0.0000 O   0  0  0  0  0  0  0  0  0  0  0  0
    1.6788   -2.8411    0.0000 O   0  0  0  0  0  0  0  0  0  0  0  0
    3.3254   -1.4205    0.0000 N   0  0  0  0  0  0  0  0  0  0  0  0
    2.4860   -1.4205    0.0000 N   0  0  0  0  0  0  0  0  0  0  0  0
    3.7128   -0.7103    0.0000 C   0  0  0  0  0  0  0  0  0  0  0  0
    2.9057   -0.7103    0.0000 C   0  0  0  0  0  0  0  0  0  0  0  0
    4.1648   -1.4205    0.0000 C   0  0  0  0  0  0  0  0  0  0  0  0
    4.1648    0.0000    0.0000 C   0  0  0  0  0  0  0  0  0  0  0  0
    4.9719   -1.4205    0.0000 C   0  0  0  0  0  0  0  0  0  0  0  0
    4.9719    0.0000    0.0000 C   0  0  0  0  0  0  0  0  0  0  0  0
    3.7451   -2.1308    0.0000 C   0  0  0  0  0  0  0  0  0  0  0  0
    3.3254   -2.8734    0.0000 C   0  0  0  0  0  0  0  0  0  0  0  0
    2.5182   -4.2939    0.0000 C   0  0  0  0  0  0  0  0  0  0  0  0
    3.3576   -4.2939    0.0000 C   0  0  0  0  0  0  0  0  0  0  0  0
    3.7451   -3.5513    0.0000 C   0  0  0  0  0  0  0  0  0  0  0  0
    2.1308   -5.0042    0.0000 C   0  0  0  0  0  0  0  0  0  0  0  0
    2.4860   -2.8734    0.0000 C   0  0  0  0  0  0  0  0  0  0  0  0
    2.0985   -3.5836    0.0000 C   0  0  0  0  0  0  0  0  0  0  0  0
    1.2591   -2.1308    0.0000 C   0  0  3  0  0  0  0  0  0  0  0  0
    2.5505   -5.7467    0.0000 C   0  0  0  0  0  0  0  0  0  0  0  0
    1.2914   -5.0365    0.0000 C   0  0  0  0  0  0  0  0  0  0  0  0
    0.4520   -2.1308    0.0000 C   0  0  0  0  0  0  0  0  0  0  0  0
    2.1631   -6.4570    0.0000 C   0  0  0  0  0  0  0  0  0  0  0  0
    0.9040   -5.7467    0.0000 C   0  0  0  0  0  0  0  0  0  0  0  0
    1.3237   -6.4570    0.0000 C   0  0  0  0  0  0  0  0  0  0  0  0
    1.2268   -3.5513    0.0000 C   0  0  0  0  0  0  0  0  0  0  0  0
    0.0000   -2.8411    0.0000 C   0  0  0  0  0  0  0  0  0  0  0  0
    0.4197   -3.5513    0.0000 C   0  0  0  0  0  0  0  0  0  0  0  0
  1  4  2  0  0  0  0
  1  5  2  0  0  0  0
  1 14  1  0  0  0  0
  1 15  1  0  0  0  0
  2 19  1  0  0  0  0
  3 11  2  0  0  0  0
  6  9  1  0  0  0  0
  6 24  1  0  0  0  0
  7 24  1  0  0  0  0
  7 31  1  0  0  0  0
  8 10  1  0  0  0  0
  8 16  1  0  0  0  0
  9 11  1  0  0  0  0
 10 11  1  0  0  0  0
 10 12  1  0  0  0  0
 10 13  1  0  0  0  0
 12 14  1  0  0  0  0
 13 15  1  0  0  0  0
 16 17  1  0  0  0  0
 17 20  1  0  0  0  0
 17 22  2  0  0  0  0
 18 19  1  0  0  0  0
 18 21  1  0  0  0  0
 18 23  2  0  0  0  0
 19 20  2  0  0  0  0
 21 25  2  0  0  0  0
 21 26  1  0  0  0  0
 22 23  1  0  0  0  0
 24 27  1  0  0  0  0
 25 28  1  0  0  0  0
 26 29  2  0  0  0  0
 27 32  1  0  0  0  0
 28 30  2  0  0  0  0
 29 30  1  0  0  0  0
 31 33  1  0  0  0  0
 32 33  1  0  0  0  0
M  END
> <PUBCHEM_COMPOUND_ID_TYPE>
0

> <PUBCHEM_TOTAL_CHARGE>
0

> <PUBCHEM_SUBSTANCE_ID>
310934239

> <PUBCHEM_SUBSTANCE_VERSION>
1

> <PUBCHEM_EXT_DATASOURCE_NAME>
4488

> <PUBCHEM_EXT_DATASOURCE_REGID>
SCHEMBL16111696

> <PUBCHEM_SUBSTANCE_COMMENT>
InChI=1S/C24H29FN2O5S/c25-21-16-18(9-10-20(21)19-6-2-1-3-7-19)17-26-24(11-14-33(29,30)15-12-24)23(28)27-32-22-8-4-5-13-31-22/h1-3,6-7,9-10,16,22,26H,4-5,8,11-15,17H2,(H,27,28)
InChIKey=TWIYVUUHYHAAQA-UHFFFAOYSA-N

> <PUBCHEM_SUBSTANCE_SYNONYM>
SCHEMBL16111696

> <PUBCHEM_XREF_EXT_ID>
SCHEMBL16111696

> <PUBCHEM_EXT_DATASOURCE_URL>
https://www.surechembl.org/

> <PUBCHEM_EXT_SUBSTANCE_URL>
https://www.surechembl.org/chemical/SCHEMBL16111696

> <PUBCHEM_CID_ASSOCIATIONS>
117602500  1

> <PUBCHEM_COORDINATE_TYPE>
1
3

$$$$
