310945888
  -OEChem-07211613022D

 36 39  0     1  0  0  0  0  0999 V2000
    3.6650    1.1985    0.0000 O   0  0  0  0  0  0  0  0  0  0  0  0
    1.3926    1.1985    0.0000 O   0  0  0  0  0  0  0  0  0  0  0  0
    0.6721    0.7829    0.0000 O   0  0  0  0  0  0  0  0  0  0  0  0
   -0.0485    1.1985    0.0000 O   0  0  0  0  0  0  0  0  0  0  0  0
   -2.7366    2.9445    0.0000 O   0  0  0  0  0  0  0  0  0  0  0  0
   -2.9445   -2.9445    0.0000 O   0  0  0  0  0  0  0  0  0  0  0  0
    1.3926   -0.4503    0.0000 N   0  0  0  0  0  0  0  0  0  0  0  0
   -0.7690   -0.0346    0.0000 N   0  0  0  0  0  0  0  0  0  0  0  0
   -2.8059    1.4896    0.0000 N   0  0  0  0  0  0  0  0  0  0  0  0
    2.8475    1.1985    0.0000 C   0  0  3  0  0  0  0  0  0  0  0  0
    2.1408    0.7829    0.0000 C   0  0  0  0  0  0  0  0  0  0  0  0
    3.2632    0.5058    0.0000 C   0  0  0  0  0  0  0  0  0  0  0  0
    2.1130   -0.0208    0.0000 C   0  0  3  0  0  0  0  0  0  0  0  0
    2.8336    2.0438    0.0000 C   0  0  0  0  0  0  0  0  0  0  0  0
    0.6582   -0.0485    0.0000 C   0  0  0  0  0  0  0  0  0  0  0  0
    2.8475   -0.4503    0.0000 C   0  0  0  0  0  0  0  0  0  0  0  0
   -0.0346   -0.4503    0.0000 C   0  0  3  0  0  0  0  0  0  0  0  0
    2.8336   -1.2678    0.0000 C   0  0  0  0  0  0  0  0  0  0  0  0
   -0.7967    0.7829    0.0000 C   0  0  0  0  0  0  0  0  0  0  0  0
   -1.4896    1.2124    0.0000 C   0  0  3  0  0  0  0  0  0  0  0  0
   -0.0485   -1.2817    0.0000 C   0  0  0  0  0  0  0  0  0  0  0  0
   -0.7690   -1.6835    0.0000 C   0  0  0  0  0  0  0  0  0  0  0  0
   -1.5727    2.0300    0.0000 C   0  0  0  0  0  0  0  0  0  0  0  0
   -2.2516    0.8799    0.0000 C   0  0  0  0  0  0  0  0  0  0  0  0
    3.5541   -1.6974    0.0000 C   0  0  0  0  0  0  0  0  0  0  0  0
    2.1269   -1.6835    0.0000 C   0  0  0  0  0  0  0  0  0  0  0  0
   -2.3902    2.1823    0.0000 C   0  0  0  0  0  0  0  0  0  0  0  0
   -1.4896   -1.2955    0.0000 C   0  0  0  0  0  0  0  0  0  0  0  0
   -0.7690   -2.5149    0.0000 C   0  0  0  0  0  0  0  0  0  0  0  0
   -2.2239   -2.5149    0.0000 C   0  0  0  0  0  0  0  0  0  0  0  0
   -2.1962   -1.6835    0.0000 C   0  0  0  0  0  0  0  0  0  0  0  0
   -1.4896   -2.9168    0.0000 C   0  0  0  0  0  0  0  0  0  0  0  0
    3.5541   -2.5149    0.0000 C   0  0  0  0  0  0  0  0  0  0  0  0
    2.1269   -2.5149    0.0000 C   0  0  0  0  0  0  0  0  0  0  0  0
    2.8475   -2.9168    0.0000 C   0  0  0  0  0  0  0  0  0  0  0  0
   -3.6650   -2.5149    0.0000 C   0  0  0  0  0  0  0  0  0  0  0  0
  1 10  1  0  0  0  0
  1 12  1  0  0  0  0
  2 11  2  0  0  0  0
  3 15  2  0  0  0  0
  4 19  2  0  0  0  0
  5 27  2  0  0  0  0
  6 30  1  0  0  0  0
  6 36  1  0  0  0  0
  7 13  1  0  0  0  0
  7 15  1  0  0  0  0
  8 17  1  0  0  0  0
  8 19  1  0  0  0  0
  9 24  1  0  0  0  0
  9 27  1  0  0  0  0
 10 11  1  0  0  0  0
 10 12  1  0  0  0  0
 10 14  1  0  0  0  0
 11 13  1  0  0  0  0
 13 16  1  0  0  0  0
 15 17  1  0  0  0  0
 16 18  1  0  0  0  0
 17 21  1  0  0  0  0
 18 25  2  0  0  0  0
 18 26  1  0  0  0  0
 19 20  1  0  0  0  0
 20 23  1  0  0  0  0
 20 24  1  0  0  0  0
 21 22  1  0  0  0  0
 22 28  2  0  0  0  0
 22 29  1  0  0  0  0
 23 27  1  0  0  0  0
 25 33  1  0  0  0  0
 26 34  2  0  0  0  0
 28 31  1  0  0  0  0
 29 32  2  0  0  0  0
 30 31  2  0  0  0  0
 30 32  1  0  0  0  0
 33 35  2  0  0  0  0
 34 35  1  0  0  0  0
M  END
> <PUBCHEM_COMPOUND_ID_TYPE>
0

> <PUBCHEM_TOTAL_CHARGE>
0

> <PUBCHEM_SUBSTANCE_ID>
310945888

> <PUBCHEM_SUBSTANCE_VERSION>
1

> <PUBCHEM_EXT_DATASOURCE_NAME>
4488

> <PUBCHEM_EXT_DATASOURCE_REGID>
SCHEMBL16123993

> <PUBCHEM_SUBSTANCE_COMMENT>
InChI=1S/C27H31N3O6/c1-27(16-36-27)24(32)21(12-17-6-4-3-5-7-17)29-26(34)22(13-18-8-10-20(35-2)11-9-18)30-25(33)19-14-23(31)28-15-19/h3-11,19,21-22H,12-16H2,1-2H3,(H,28,31)(H,29,34)(H,30,33)
InChIKey=RKJRRYVAFBATBQ-UHFFFAOYSA-N

> <PUBCHEM_SUBSTANCE_SYNONYM>
SCHEMBL16123993

> <PUBCHEM_XREF_EXT_ID>
SCHEMBL16123993

> <PUBCHEM_EXT_DATASOURCE_URL>
https://www.surechembl.org/

> <PUBCHEM_EXT_SUBSTANCE_URL>
https://www.surechembl.org/chemical/SCHEMBL16123993

> <PUBCHEM_CID_ASSOCIATIONS>
117611872  1

> <PUBCHEM_COORDINATE_TYPE>
1
3

$$$$
