310941143
  -OEChem-07211613022D

 38 40  0     1  0  0  0  0  0999 V2000
    5.1776   -1.0108    0.0000 O   0  0  0  0  0  0  0  0  0  0  0  0
    4.0432    0.9381    0.0000 O   0  0  0  0  0  0  0  0  0  0  0  0
    1.6725   -0.9963    0.0000 O   0  0  0  0  0  0  0  0  0  0  0  0
   -0.4799    1.0690    0.0000 O   0  0  0  0  0  0  0  0  0  0  0  0
   -2.6324   -0.9963    0.0000 O   0  0  0  0  0  0  0  0  0  0  0  0
   -5.4975   -0.9963    0.0000 O   0  0  0  0  0  0  0  0  0  0  0  0
    2.3852    0.2400    0.0000 N   0  0  0  0  0  0  0  0  0  0  0  0
    0.2327   -0.1818    0.0000 N   0  0  0  0  0  0  0  0  0  0  0  0
   -1.9198    0.2400    0.0000 N   0  0  0  0  0  0  0  0  0  0  0  0
   -4.0722   -0.1818    0.0000 N   0  0  0  0  0  0  0  0  0  0  0  0
    4.7703   -0.2836    0.0000 C   0  0  3  0  0  0  0  0  0  0  0  0
    4.0286    0.1236    0.0000 C   0  0  0  0  0  0  0  0  0  0  0  0
    4.3631   -0.9671    0.0000 C   0  0  0  0  0  0  0  0  0  0  0  0
    3.3450   -0.2691    0.0000 C   0  0  3  0  0  0  0  0  0  0  0  0
    5.4975    0.1381    0.0000 C   0  0  0  0  0  0  0  0  0  0  0  0
    3.3305   -1.3453    0.0000 C   0  0  0  0  0  0  0  0  0  0  0  0
    1.6870   -0.1236    0.0000 C   0  0  0  0  0  0  0  0  0  0  0  0
    0.9454    0.2691    0.0000 C   0  0  3  0  0  0  0  0  0  0  0  0
    2.6179   -1.7525    0.0000 C   0  0  0  0  0  0  0  0  0  0  0  0
    0.9744    1.0980    0.0000 C   0  0  0  0  0  0  0  0  0  0  0  0
   -0.4799    0.2400    0.0000 C   0  0  0  0  0  0  0  0  0  0  0  0
    1.8616   -1.4326    0.0000 C   0  0  0  0  0  0  0  0  0  0  0  0
    2.5160   -2.5815    0.0000 C   0  0  0  0  0  0  0  0  0  0  0  0
   -1.1781   -0.1381    0.0000 C   0  0  3  0  0  0  0  0  0  0  0  0
    1.6725    1.5053    0.0000 C   0  0  0  0  0  0  0  0  0  0  0  0
    1.3235   -2.0579    0.0000 C   0  0  0  0  0  0  0  0  0  0  0  0
    1.7162   -2.7415    0.0000 C   0  0  0  0  0  0  0  0  0  0  0  0
   -2.6179   -0.1236    0.0000 C   0  0  0  0  0  0  0  0  0  0  0  0
   -3.3741    0.2545    0.0000 C   0  0  0  0  0  0  0  0  0  0  0  0
    1.7016    2.3488    0.0000 C   0  0  0  0  0  0  0  0  0  0  0  0
    2.3997    1.0980    0.0000 C   0  0  0  0  0  0  0  0  0  0  0  0
   -1.1926   -0.9817    0.0000 C   0  0  0  0  0  0  0  0  0  0  0  0
   -4.0577   -0.9671    0.0000 C   0  0  0  0  0  0  0  0  0  0  0  0
   -4.7849    0.2545    0.0000 C   0  0  0  0  0  0  0  0  0  0  0  0
   -4.7558   -1.3744    0.0000 C   0  0  0  0  0  0  0  0  0  0  0  0
   -5.4830   -0.1381    0.0000 C   0  0  0  0  0  0  0  0  0  0  0  0
    2.3852    2.7415    0.0000 C   0  0  0  0  0  0  0  0  0  0  0  0
    3.1123    1.5053    0.0000 C   0  0  0  0  0  0  0  0  0  0  0  0
  1 11  1  0  0  0  0
  1 13  1  0  0  0  0
  2 12  2  0  0  0  0
  3 17  2  0  0  0  0
  4 21  2  0  0  0  0
  5 28  2  0  0  0  0
  6 35  1  0  0  0  0
  6 36  1  0  0  0  0
  7 14  1  0  0  0  0
  7 17  1  0  0  0  0
  8 18  1  0  0  0  0
  8 21  1  0  0  0  0
  9 24  1  0  0  0  0
  9 28  1  0  0  0  0
 10 29  1  0  0  0  0
 10 33  1  0  0  0  0
 10 34  1  0  0  0  0
 11 12  1  0  0  0  0
 11 13  1  0  0  0  0
 11 15  1  0  0  0  0
 12 14  1  0  0  0  0
 14 16  1  0  0  0  0
 16 19  1  0  0  0  0
 17 18  1  0  0  0  0
 18 20  1  0  0  0  0
 19 22  1  0  0  0  0
 19 23  1  0  0  0  0
 20 25  1  0  0  0  0
 21 24  1  0  0  0  0
 22 26  1  0  0  0  0
 23 27  1  0  0  0  0
 24 32  1  0  0  0  0
 25 30  2  0  0  0  0
 25 31  1  0  0  0  0
 26 27  1  0  0  0  0
 28 29  1  0  0  0  0
 30 37  1  0  0  0  0
 31 38  2  0  0  0  0
 33 35  1  0  0  0  0
 34 36  1  0  0  0  0
M  END
> <PUBCHEM_COMPOUND_ID_TYPE>
0

> <PUBCHEM_TOTAL_CHARGE>
0

> <PUBCHEM_SUBSTANCE_ID>
310941143

> <PUBCHEM_SUBSTANCE_VERSION>
1

> <PUBCHEM_EXT_DATASOURCE_NAME>
4488

> <PUBCHEM_EXT_DATASOURCE_REGID>
SCHEMBL16119103

> <PUBCHEM_SUBSTANCE_COMMENT>
InChI=1S/C28H44N4O6/c1-5-20(6-2)15-23(31-26(35)19(3)29-24(33)17-32-11-13-37-14-12-32)27(36)30-22(16-21-9-7-8-10-21)25(34)28(4)18-38-28/h5-6,19,21-23H,1,7-18H2,2-4H3,(H,29,33)(H,30,36)(H,31,35)/b20-6+
InChIKey=AAZFXTVZCVTAEY-CGOBSMCZSA-N

> <PUBCHEM_SUBSTANCE_SYNONYM>
SCHEMBL16119103

> <PUBCHEM_XREF_EXT_ID>
SCHEMBL16119103

> <PUBCHEM_EXT_DATASOURCE_URL>
https://www.surechembl.org/

> <PUBCHEM_EXT_SUBSTANCE_URL>
https://www.surechembl.org/chemical/SCHEMBL16119103

> <PUBCHEM_CID_ASSOCIATIONS>
117608025  1

> <PUBCHEM_COORDINATE_TYPE>
1
3

$$$$
