310945831
  -OEChem-07211613022D

 40 42  0     1  0  0  0  0  0999 V2000
    4.7179    0.6720    0.0000 O   0  0  0  0  0  0  0  0  0  0  0  0
    3.5955   -1.2817    0.0000 O   0  0  0  0  0  0  0  0  0  0  0  0
    1.4341    0.7828    0.0000 O   0  0  0  0  0  0  0  0  0  0  0  0
   -0.7274   -1.2817    0.0000 O   0  0  0  0  0  0  0  0  0  0  0  0
    3.5955   -2.9444    0.0000 O   0  0  0  0  0  0  0  0  0  0  0  0
   -2.8751    0.7828    0.0000 O   0  0  0  0  0  0  0  0  0  0  0  0
   -5.0366    0.3672    0.0000 O   0  0  0  0  0  0  0  0  0  0  0  0
    2.1546   -0.4503    0.0000 N   0  0  0  0  0  0  0  0  0  0  0  0
   -0.0069   -0.0347    0.0000 N   0  0  0  0  0  0  0  0  0  0  0  0
   -2.1546   -0.4503    0.0000 N   0  0  0  0  0  0  0  0  0  0  0  0
    4.3160    0.0069    0.0000 C   0  0  3  0  0  0  0  0  0  0  0  0
    3.5955   -0.4087    0.0000 C   0  0  0  0  0  0  0  0  0  0  0  0
    3.9281    0.6858    0.0000 C   0  0  0  0  0  0  0  0  0  0  0  0
    2.8612   -0.0069    0.0000 C   0  0  3  0  0  0  0  0  0  0  0  0
    5.0504   -0.4226    0.0000 C   0  0  0  0  0  0  0  0  0  0  0  0
    2.8751    1.3094    0.0000 C   0  0  0  0  0  0  0  0  0  0  0  0
    1.4341   -0.0347    0.0000 C   0  0  0  0  0  0  0  0  0  0  0  0
    0.7274   -0.4226    0.0000 C   0  0  3  0  0  0  0  0  0  0  0  0
    2.1546    1.7389    0.0000 C   0  0  0  0  0  0  0  0  0  0  0  0
    0.7136   -1.2540    0.0000 C   0  0  0  0  0  0  0  0  0  0  0  0
    1.4480   -1.6696    0.0000 C   0  0  0  0  0  0  0  0  0  0  0  0
   -0.7136   -0.4087    0.0000 C   0  0  0  0  0  0  0  0  0  0  0  0
    1.4341    1.3232    0.0000 C   0  0  0  0  0  0  0  0  0  0  0  0
    2.1546    2.5425    0.0000 C   0  0  0  0  0  0  0  0  0  0  0  0
   -1.4341   -0.0069    0.0000 C   0  0  3  0  0  0  0  0  0  0  0  0
    2.1546   -1.2817    0.0000 C   0  0  0  0  0  0  0  0  0  0  0  0
    1.4480   -2.5010    0.0000 C   0  0  0  0  0  0  0  0  0  0  0  0
    0.7274    1.7251    0.0000 C   0  0  0  0  0  0  0  0  0  0  0  0
    1.4341    2.9444    0.0000 C   0  0  0  0  0  0  0  0  0  0  0  0
    2.8751   -2.4871    0.0000 C   0  0  0  0  0  0  0  0  0  0  0  0
    2.8751   -1.6835    0.0000 C   0  0  0  0  0  0  0  0  0  0  0  0
    2.1546   -2.9028    0.0000 C   0  0  0  0  0  0  0  0  0  0  0  0
   -2.8889   -0.0208    0.0000 C   0  0  0  0  0  0  0  0  0  0  0  0
    0.7274    2.5425    0.0000 C   0  0  0  0  0  0  0  0  0  0  0  0
   -3.5817   -0.4226    0.0000 C   0  0  0  0  0  0  0  0  0  0  0  0
   -4.3438   -0.0069    0.0000 C   0  0  0  0  0  0  0  0  0  0  0  0
   -1.4202    0.8244    0.0000 C   0  0  0  0  0  0  0  0  0  0  0  0
   -5.0504   -0.4226    0.0000 C   0  0  0  0  0  0  0  0  0  0  0  0
   -4.3022    0.8244    0.0000 C   0  0  0  0  0  0  0  0  0  0  0  0
    4.3299   -2.5148    0.0000 C   0  0  0  0  0  0  0  0  0  0  0  0
  1 11  1  0  0  0  0
  1 13  1  0  0  0  0
  2 12  2  0  0  0  0
  3 17  2  0  0  0  0
  4 22  2  0  0  0  0
  5 30  1  0  0  0  0
  5 40  1  0  0  0  0
  6 33  2  0  0  0  0
  7 36  1  0  0  0  0
  8 14  1  0  0  0  0
  8 17  1  0  0  0  0
  9 18  1  0  0  0  0
  9 22  1  0  0  0  0
 10 25  1  0  0  0  0
 10 33  1  0  0  0  0
 11 12  1  0  0  0  0
 11 13  1  0  0  0  0
 11 15  1  0  0  0  0
 12 14  1  0  0  0  0
 14 16  1  0  0  0  0
 16 19  1  0  0  0  0
 17 18  1  0  0  0  0
 18 20  1  0  0  0  0
 19 23  2  0  0  0  0
 19 24  1  0  0  0  0
 20 21  1  0  0  0  0
 21 26  2  0  0  0  0
 21 27  1  0  0  0  0
 22 25  1  0  0  0  0
 23 28  1  0  0  0  0
 24 29  2  0  0  0  0
 25 37  1  0  0  0  0
 26 31  1  0  0  0  0
 27 32  2  0  0  0  0
 28 34  2  0  0  0  0
 29 34  1  0  0  0  0
 30 31  2  0  0  0  0
 30 32  1  0  0  0  0
 33 35  1  0  0  0  0
 35 36  1  0  0  0  0
 36 38  1  0  0  0  0
 36 39  1  0  0  0  0
M  END
> <PUBCHEM_COMPOUND_ID_TYPE>
0

> <PUBCHEM_TOTAL_CHARGE>
0

> <PUBCHEM_SUBSTANCE_ID>
310945831

> <PUBCHEM_SUBSTANCE_VERSION>
1

> <PUBCHEM_EXT_DATASOURCE_NAME>
4488

> <PUBCHEM_EXT_DATASOURCE_REGID>
SCHEMBL16123936

> <PUBCHEM_SUBSTANCE_COMMENT>
InChI=1S/C30H39N3O7/c1-19(31-25(34)17-29(2,3)38)27(36)33-24(16-21-11-13-22(39-5)14-12-21)28(37)32-23(26(35)30(4)18-40-30)15-20-9-7-6-8-10-20/h6-14,19,23-24,38H,15-18H2,1-5H3,(H,31,34)(H,32,37)(H,33,36)
InChIKey=BXPUATCUOXVIAI-UHFFFAOYSA-N

> <PUBCHEM_SUBSTANCE_SYNONYM>
SCHEMBL16123936

> <PUBCHEM_XREF_EXT_ID>
SCHEMBL16123936

> <PUBCHEM_EXT_DATASOURCE_URL>
https://www.surechembl.org/

> <PUBCHEM_EXT_SUBSTANCE_URL>
https://www.surechembl.org/chemical/SCHEMBL16123936

> <PUBCHEM_CID_ASSOCIATIONS>
117611817  1

> <PUBCHEM_COORDINATE_TYPE>
1
3

$$$$
