310942945
  -OEChem-07211613022D

 29 33  0     1  0  0  0  0  0999 V2000
   -3.1648   -1.0756    0.0000 O   0  0  0  0  0  0  0  0  0  0  0  0
   -3.1648    1.8050    0.0000 O   0  0  0  0  0  0  0  0  0  0  0  0
   -3.1648   -3.3502    0.0000 O   0  0  0  0  0  0  0  0  0  0  0  0
   -4.4258    3.3502    0.0000 O   0  0  0  0  0  0  0  0  0  0  0  0
    4.7226    2.5220    0.0000 O   0  0  0  0  0  0  0  0  0  0  0  0
    3.0660    1.0756    0.0000 O   0  0  0  0  0  0  0  0  0  0  0  0
   -2.7568   -0.3585    0.0000 C   0  0  0  0  0  0  0  0  0  0  0  0
   -2.7568    1.0756    0.0000 C   0  0  0  0  0  0  0  0  0  0  0  0
   -1.5206    0.3585    0.0000 C   0  0  0  0  0  0  0  0  0  0  0  0
   -3.1648    0.3585    0.0000 C   0  0  0  0  0  0  0  0  0  0  0  0
   -1.9286   -0.3585    0.0000 C   0  0  0  0  0  0  0  0  0  0  0  0
   -1.9162    1.0632    0.0000 C   0  0  0  0  0  0  0  0  0  0  0  0
   -3.1772   -2.5343    0.0000 C   0  0  3  0  0  0  0  0  0  0  0  0
   -4.4134    2.5220    0.0000 C   0  0  3  0  0  0  0  0  0  0  0  0
   -2.7568   -1.8050    0.0000 C   0  0  0  0  0  0  0  0  0  0  0  0
   -4.0055    1.8050    0.0000 C   0  0  0  0  0  0  0  0  0  0  0  0
    4.3145    1.8173    0.0000 C   0  0  3  0  0  0  0  0  0  0  0  0
   -0.6799    0.3461    0.0000 C   0  0  0  0  0  0  0  0  0  0  0  0
   -3.8819   -2.9423    0.0000 C   0  0  0  0  0  0  0  0  0  0  0  0
   -5.1305    2.9299    0.0000 C   0  0  0  0  0  0  0  0  0  0  0  0
    0.5687    1.0879    0.0000 C   0  0  0  0  0  0  0  0  0  0  0  0
    2.2253    1.0756    0.0000 C   0  0  0  0  0  0  0  0  0  0  0  0
   -0.2596    1.0756    0.0000 C   0  0  0  0  0  0  0  0  0  0  0  0
    5.1305    1.8050    0.0000 C   0  0  0  0  0  0  0  0  0  0  0  0
    3.4862    1.8050    0.0000 C   0  0  0  0  0  0  0  0  0  0  0  0
    0.9890    0.3585    0.0000 C   0  0  0  0  0  0  0  0  0  0  0  0
    0.9890    1.7926    0.0000 C   0  0  0  0  0  0  0  0  0  0  0  0
    1.8173    0.3585    0.0000 C   0  0  0  0  0  0  0  0  0  0  0  0
    1.8173    1.7926    0.0000 C   0  0  0  0  0  0  0  0  0  0  0  0
  1  7  1  0  0  0  0
  1 15  1  0  0  0  0
  2  8  1  0  0  0  0
  2 16  1  0  0  0  0
  3 13  1  0  0  0  0
  3 19  1  0  0  0  0
  4 14  1  0  0  0  0
  4 20  1  0  0  0  0
  5 17  1  0  0  0  0
  5 24  1  0  0  0  0
  6 22  1  0  0  0  0
  6 25  1  0  0  0  0
  7 10  2  0  0  0  0
  7 11  1  0  0  0  0
  8 10  1  0  0  0  0
  8 12  2  0  0  0  0
  9 11  2  0  0  0  0
  9 12  1  0  0  0  0
  9 18  1  0  0  0  0
 13 15  1  0  0  0  0
 13 19  1  0  0  0  0
 14 16  1  0  0  0  0
 14 20  1  0  0  0  0
 17 24  1  0  0  0  0
 17 25  1  0  0  0  0
 18 23  2  0  0  0  0
 21 23  1  0  0  0  0
 21 26  2  0  0  0  0
 21 27  1  0  0  0  0
 22 28  2  0  0  0  0
 22 29  1  0  0  0  0
 26 28  1  0  0  0  0
 27 29  2  0  0  0  0
M  END
> <PUBCHEM_COMPOUND_ID_TYPE>
0

> <PUBCHEM_TOTAL_CHARGE>
0

> <PUBCHEM_SUBSTANCE_ID>
310942945

> <PUBCHEM_SUBSTANCE_VERSION>
1

> <PUBCHEM_EXT_DATASOURCE_NAME>
4488

> <PUBCHEM_EXT_DATASOURCE_REGID>
SCHEMBL16121003

> <PUBCHEM_SUBSTANCE_COMMENT>
InChI=1S/C23H24O6/c1(16-3-5-18(6-4-16)24-10-21-13-27-21)2-17-7-19(25-11-22-14-28-22)9-20(8-17)26-12-23-15-29-23/h1-9,21-23H,10-15H2/b2-1+
InChIKey=OQVHPQHRAQZAHV-OWOJBTEDSA-N

> <PUBCHEM_SUBSTANCE_SYNONYM>
SCHEMBL16121003

> <PUBCHEM_XREF_EXT_ID>
SCHEMBL16121003

> <PUBCHEM_EXT_DATASOURCE_URL>
https://www.surechembl.org/

> <PUBCHEM_EXT_SUBSTANCE_URL>
https://www.surechembl.org/chemical/SCHEMBL16121003

> <PUBCHEM_CID_ASSOCIATIONS>
117609408  1

> <PUBCHEM_COORDINATE_TYPE>
1
3

$$$$
