310943595
  -OEChem-07211613022D

 23 25  0     1  0  0  0  0  0999 V2000
    4.1921    1.0922    0.0000 O   0  0  0  0  0  0  0  0  0  0  0  0
   -1.5438   -1.4339    0.0000 N   0  0  3  0  0  0  0  0  0  0  0  0
   -3.3378   -0.8847    0.0000 N   0  0  3  0  0  0  0  0  0  0  0  0
    1.3364   -0.5675    0.0000 C   0  0  0  0  0  0  0  0  0  0  0  0
    2.0442   -0.1526    0.0000 C   0  0  0  0  0  0  0  0  0  0  0  0
   -0.1281   -1.4339    0.0000 C   0  0  0  0  0  0  0  0  0  0  0  0
    0.6041   -0.1892    0.0000 C   0  0  0  0  0  0  0  0  0  0  0  0
    1.3241   -1.4218    0.0000 C   0  0  0  0  0  0  0  0  0  0  0  0
   -0.1037   -0.5919    0.0000 C   0  0  0  0  0  0  0  0  0  0  0  0
    0.6163   -1.8367    0.0000 C   0  0  0  0  0  0  0  0  0  0  0  0
   -0.8115   -1.8367    0.0000 C   0  0  0  0  0  0  0  0  0  0  0  0
    2.0563    0.6773    0.0000 C   0  0  0  0  0  0  0  0  0  0  0  0
    2.7520   -0.5675    0.0000 C   0  0  0  0  0  0  0  0  0  0  0  0
    3.4842    0.6773    0.0000 C   0  0  0  0  0  0  0  0  0  0  0  0
    2.7642    1.0801    0.0000 C   0  0  0  0  0  0  0  0  0  0  0  0
    3.4720   -0.1648    0.0000 C   0  0  0  0  0  0  0  0  0  0  0  0
   -2.2394   -1.8977    0.0000 C   0  0  0  0  0  0  0  0  0  0  0  0
   -1.4950   -0.6163    0.0000 C   0  0  0  0  0  0  0  0  0  0  0  0
   -3.0449   -1.6536    0.0000 C   0  0  0  0  0  0  0  0  0  0  0  0
   -2.0930   -0.0427    0.0000 C   0  0  0  0  0  0  0  0  0  0  0  0
   -2.9228   -0.1648    0.0000 C   0  0  0  0  0  0  0  0  0  0  0  0
   -4.1921   -0.8847    0.0000 C   0  0  0  0  0  0  0  0  0  0  0  0
    4.1921    1.8977    0.0000 C   0  0  0  0  0  0  0  0  0  0  0  0
  1 14  1  0  0  0  0
  1 23  1  0  0  0  0
  2 11  1  0  0  0  0
  2 17  1  0  0  0  0
  2 18  1  0  0  0  0
  3 19  1  0  0  0  0
  3 21  1  0  0  0  0
  3 22  1  0  0  0  0
  4  5  1  0  0  0  0
  4  7  2  0  0  0  0
  4  8  1  0  0  0  0
  5 12  2  0  0  0  0
  5 13  1  0  0  0  0
  6  9  2  0  0  0  0
  6 10  1  0  0  0  0
  6 11  1  0  0  0  0
  7  9  1  0  0  0  0
  8 10  2  0  0  0  0
 12 15  1  0  0  0  0
 13 16  2  0  0  0  0
 14 15  2  0  0  0  0
 14 16  1  0  0  0  0
 17 19  1  0  0  0  0
 18 20  1  0  0  0  0
 20 21  1  0  0  0  0
M  END
> <PUBCHEM_COMPOUND_ID_TYPE>
0

> <PUBCHEM_TOTAL_CHARGE>
0

> <PUBCHEM_SUBSTANCE_ID>
310943595

> <PUBCHEM_SUBSTANCE_VERSION>
1

> <PUBCHEM_EXT_DATASOURCE_NAME>
4488

> <PUBCHEM_EXT_DATASOURCE_REGID>
SCHEMBL16121662

> <PUBCHEM_SUBSTANCE_COMMENT>
InChI=1S/C20H26N2O/c1-21-12-3-13-22(15-14-21)16-17-4-6-18(7-5-17)19-8-10-20(23-2)11-9-19/h4-11H,3,12-16H2,1-2H3
InChIKey=QAFOZBNBHRNTBF-UHFFFAOYSA-N

> <PUBCHEM_SUBSTANCE_SYNONYM>
SCHEMBL16121662

> <PUBCHEM_XREF_EXT_ID>
SCHEMBL16121662

> <PUBCHEM_EXT_DATASOURCE_URL>
https://www.surechembl.org/

> <PUBCHEM_EXT_SUBSTANCE_URL>
https://www.surechembl.org/chemical/SCHEMBL16121662

> <PUBCHEM_CID_ASSOCIATIONS>
86300475  1

> <PUBCHEM_COORDINATE_TYPE>
1
3

$$$$
