310932396
  -OEChem-07211613022D

 24 26  0     1  0  0  0  0  0999 V2000
    3.5610   -1.6372    0.0000 O   0  0  0  0  0  0  0  0  0  0  0  0
    4.7071   -3.6019    0.0000 O   0  0  0  0  0  0  0  0  0  0  0  0
    5.4234   -2.3740    0.0000 O   0  0  0  0  0  0  0  0  0  0  0  0
    0.7982    0.0000    0.0000 O   0  0  0  0  0  0  0  0  0  0  0  0
    3.1517   -2.3740    0.0000 C   0  0  3  0  0  0  0  0  0  0  0  0
    3.9908   -2.3740    0.0000 C   0  0  3  0  0  0  0  0  0  0  0  0
    2.5582   -1.7805    0.0000 C   0  0  0  0  0  0  0  0  0  0  0  0
    2.4354   -2.7833    0.0000 C   0  0  0  0  0  0  0  0  0  0  0  0
    4.7071   -2.7833    0.0000 C   0  0  0  0  0  0  0  0  0  0  0  0
    1.7600   -1.9851    0.0000 C   0  0  0  0  0  0  0  0  0  0  0  0
    2.7628   -0.9823    0.0000 C   0  0  0  0  0  0  0  0  0  0  0  0
    2.4149   -3.6224    0.0000 C   0  0  0  0  0  0  0  0  0  0  0  0
    1.7191   -2.3740    0.0000 C   0  0  0  0  0  0  0  0  0  0  0  0
    1.1665   -1.4121    0.0000 C   0  0  0  0  0  0  0  0  0  0  0  0
    2.1898   -0.3888    0.0000 C   0  0  0  0  0  0  0  0  0  0  0  0
    1.7191   -4.0317    0.0000 C   0  0  0  0  0  0  0  0  0  0  0  0
    1.0028   -2.7833    0.0000 C   0  0  0  0  0  0  0  0  0  0  0  0
    1.3917   -0.6140    0.0000 C   0  0  0  0  0  0  0  0  0  0  0  0
    0.9823   -3.6019    0.0000 C   0  0  0  0  0  0  0  0  0  0  0  0
    5.4234   -4.0317    0.0000 C   0  0  0  0  0  0  0  0  0  0  0  0
    0.2660   -4.0317    0.0000 C   0  0  0  0  0  0  0  0  0  0  0  0
    6.1396   -3.6019    0.0000 C   0  0  0  0  0  0  0  0  0  0  0  0
    0.0000   -0.2251    0.0000 C   0  0  0  0  0  0  0  0  0  0  0  0
    6.1396   -2.7833    0.0000 C   0  0  0  0  0  0  0  0  0  0  0  0
  1  5  1  0  0  0  0
  1  6  1  0  0  0  0
  2  9  1  0  0  0  0
  2 20  1  0  0  0  0
  3  9  2  0  0  0  0
  4 18  1  0  0  0  0
  4 23  1  0  0  0  0
  5  6  1  0  0  0  0
  5  7  1  0  0  0  0
  5  8  1  0  0  0  0
  6  9  1  0  0  0  0
  7 10  2  0  0  0  0
  7 11  1  0  0  0  0
  8 12  2  0  0  0  0
  8 13  1  0  0  0  0
 10 14  1  0  0  0  0
 11 15  2  0  0  0  0
 12 16  1  0  0  0  0
 13 17  2  0  0  0  0
 14 18  2  0  0  0  0
 15 18  1  0  0  0  0
 16 19  2  0  0  0  0
 17 19  1  0  0  0  0
 19 21  1  0  0  0  0
 20 22  1  0  0  0  0
 22 24  1  0  0  0  0
M  END
> <PUBCHEM_COMPOUND_ID_TYPE>
0

> <PUBCHEM_TOTAL_CHARGE>
0

> <PUBCHEM_SUBSTANCE_ID>
310932396

> <PUBCHEM_SUBSTANCE_VERSION>
1

> <PUBCHEM_EXT_DATASOURCE_NAME>
4488

> <PUBCHEM_EXT_DATASOURCE_REGID>
SCHEMBL16109764

> <PUBCHEM_SUBSTANCE_COMMENT>
InChI=1S/C20H22O4/c1-4-13-23-19(21)18-20(24-18,15-7-5-14(2)6-8-15)16-9-11-17(22-3)12-10-16/h5-12,18H,4,13H2,1-3H3
InChIKey=NVYHDDMCFJERSI-UHFFFAOYSA-N

> <PUBCHEM_SUBSTANCE_SYNONYM>
SCHEMBL16109764

> <PUBCHEM_XREF_EXT_ID>
SCHEMBL16109764

> <PUBCHEM_EXT_DATASOURCE_URL>
https://www.surechembl.org/

> <PUBCHEM_EXT_SUBSTANCE_URL>
https://www.surechembl.org/chemical/SCHEMBL16109764

> <PUBCHEM_CID_ASSOCIATIONS>
117600950  1

> <PUBCHEM_COORDINATE_TYPE>
1
3

$$$$
