310942411
  -OEChem-07211613022D

 67 69  0     1  0  0  0  0  0999 V2000
   15.3621   -2.0854    0.0000 Cl  0  0  0  0  0  0  0  0  0  0  0  0
  -11.8726   -2.8996    0.0000 O   0  0  0  0  0  0  0  0  0  0  0  0
  -11.1580   -3.3150    0.0000 O   0  0  0  0  0  0  0  0  0  0  0  0
   -9.7124   -3.3150    0.0000 O   0  0  0  0  0  0  0  0  0  0  0  0
   -8.2833   -0.8225    0.0000 O   0  0  0  0  0  0  0  0  0  0  0  0
   -1.8029   -2.0687    0.0000 O   0  0  0  0  0  0  0  0  0  0  0  0
    4.6776   -2.4842    0.0000 O   0  0  0  0  0  0  0  0  0  0  0  0
   -2.5174   -3.3150    0.0000 O   0  0  0  0  0  0  0  0  0  0  0  0
    0.3573   -2.4842    0.0000 O   0  0  0  0  0  0  0  0  0  0  0  0
    2.5174   -2.0687    0.0000 O   0  0  0  0  0  0  0  0  0  0  0  0
    5.3921   -1.2380    0.0000 O   0  0  0  0  0  0  0  0  0  0  0  0
    8.2501   -2.0522    0.0000 O   0  0  0  0  0  0  0  0  0  0  0  0
   10.3771   -2.5174    0.0000 O   0  0  0  0  0  0  0  0  0  0  0  0
  -13.9829    1.6534    0.0000 N   0  0  0  0  0  0  0  0  0  0  0  0
  -11.8227    2.0687    0.0000 N   0  0  0  0  0  0  0  0  0  0  0  0
  -12.5372    0.8225    0.0000 N   0  0  0  0  0  0  0  0  0  0  0  0
  -12.5372    3.3150    0.0000 N   0  0  0  0  0  0  0  0  0  0  0  0
  -14.6974   -0.4237    0.0000 N   0  0  3  0  0  0  0  0  0  0  0  0
  -13.9829    3.2984    0.0000 N   0  0  0  0  0  0  0  0  0  0  0  0
  -10.9420    3.2984    0.0000 N   0  0  0  0  0  0  0  0  0  0  0  0
  -11.1414   -1.6534    0.0000 N   0  0  0  0  0  0  0  0  0  0  0  0
   -7.5357   -2.0687    0.0000 N   0  0  0  0  0  0  0  0  0  0  0  0
   -3.1156   -2.0189    0.0000 N   0  0  0  0  0  0  0  0  0  0  0  0
    6.1399   -2.4842    0.0000 N   0  0  0  0  0  0  0  0  0  0  0  0
  -13.2850    2.0687    0.0000 C   0  0  0  0  0  0  0  0  0  0  0  0
  -12.5538    1.6534    0.0000 C   0  0  0  0  0  0  0  0  0  0  0  0
  -13.2683    2.8996    0.0000 C   0  0  0  0  0  0  0  0  0  0  0  0
  -13.9995    0.8225    0.0000 C   0  0  0  0  0  0  0  0  0  0  0  0
  -11.8393    2.8996    0.0000 C   0  0  0  0  0  0  0  0  0  0  0  0
  -13.2850    0.4071    0.0000 C   0  0  0  0  0  0  0  0  0  0  0  0
  -14.6974    0.4071    0.0000 C   0  0  0  0  0  0  0  0  0  0  0  0
  -13.9995   -0.8225    0.0000 C   0  0  0  0  0  0  0  0  0  0  0  0
  -12.5871   -1.6534    0.0000 C   0  0  0  0  0  0  0  0  0  0  0  0
  -13.9829   -1.6700    0.0000 C   0  0  0  0  0  0  0  0  0  0  0  0
  -13.2683   -0.4237    0.0000 C   0  0  0  0  0  0  0  0  0  0  0  0
  -13.2683   -2.0687    0.0000 C   0  0  0  0  0  0  0  0  0  0  0  0
  -12.5705   -0.8391    0.0000 C   0  0  0  0  0  0  0  0  0  0  0  0
  -11.8393   -2.0356    0.0000 C   0  0  0  0  0  0  0  0  0  0  0  0
  -15.3621   -0.8225    0.0000 C   0  0  0  0  0  0  0  0  0  0  0  0
  -10.4103   -2.0522    0.0000 C   0  0  3  0  0  0  0  0  0  0  0  0
  -10.4269   -2.8830    0.0000 C   0  0  0  0  0  0  0  0  0  0  0  0
   -9.7124   -1.6534    0.0000 C   0  0  0  0  0  0  0  0  0  0  0  0
   -8.9646   -2.0522    0.0000 C   0  0  0  0  0  0  0  0  0  0  0  0
   -8.2668   -1.6534    0.0000 C   0  0  0  0  0  0  0  0  0  0  0  0
   -6.8377   -1.6534    0.0000 C   0  0  0  0  0  0  0  0  0  0  0  0
   -6.0900   -2.0687    0.0000 C   0  0  0  0  0  0  0  0  0  0  0  0
   -5.3921   -1.6534    0.0000 C   0  0  0  0  0  0  0  0  0  0  0  0
   -4.6610   -2.0687    0.0000 C   0  0  0  0  0  0  0  0  0  0  0  0
   -3.9630   -1.6534    0.0000 C   0  0  0  0  0  0  0  0  0  0  0  0
   -2.4842   -2.4509    0.0000 C   0  0  0  0  0  0  0  0  0  0  0  0
    5.4087   -2.0687    0.0000 C   0  0  0  0  0  0  0  0  0  0  0  0
   -1.0551   -2.4842    0.0000 C   0  0  0  0  0  0  0  0  0  0  0  0
    3.9630   -2.0687    0.0000 C   0  0  0  0  0  0  0  0  0  0  0  0
   -0.3573   -2.0687    0.0000 C   0  0  0  0  0  0  0  0  0  0  0  0
    6.8377   -2.0687    0.0000 C   0  0  0  0  0  0  0  0  0  0  0  0
    3.2652   -2.4842    0.0000 C   0  0  0  0  0  0  0  0  0  0  0  0
    7.5688   -2.4676    0.0000 C   0  0  0  0  0  0  0  0  0  0  0  0
    1.0884   -2.0687    0.0000 C   0  0  0  0  0  0  0  0  0  0  0  0
    1.8195   -2.4842    0.0000 C   0  0  0  0  0  0  0  0  0  0  0  0
    9.0145   -2.4676    0.0000 C   0  0  0  0  0  0  0  0  0  0  0  0
    9.6459   -2.0854    0.0000 C   0  0  0  0  0  0  0  0  0  0  0  0
   11.1082   -2.1020    0.0000 C   0  0  0  0  0  0  0  0  0  0  0  0
   11.8227   -2.4842    0.0000 C   0  0  0  0  0  0  0  0  0  0  0  0
   12.5206   -2.1020    0.0000 C   0  0  0  0  0  0  0  0  0  0  0  0
   13.2351   -2.4842    0.0000 C   0  0  0  0  0  0  0  0  0  0  0  0
   13.9330   -2.1020    0.0000 C   0  0  0  0  0  0  0  0  0  0  0  0
   14.6641   -2.4842    0.0000 C   0  0  0  0  0  0  0  0  0  0  0  0
  1 67  1  0  0  0  0
  2 38  2  0  0  0  0
  3 41  2  0  0  0  0
  4 41  1  0  0  0  0
  5 44  2  0  0  0  0
  6 50  1  0  0  0  0
  6 52  1  0  0  0  0
  7 51  1  0  0  0  0
  7 53  1  0  0  0  0
  8 50  2  0  0  0  0
  9 54  1  0  0  0  0
  9 58  1  0  0  0  0
 10 56  1  0  0  0  0
 10 59  1  0  0  0  0
 11 51  2  0  0  0  0
 12 57  1  0  0  0  0
 12 60  1  0  0  0  0
 13 61  1  0  0  0  0
 13 62  1  0  0  0  0
 14 25  1  0  0  0  0
 14 28  2  0  0  0  0
 15 26  2  0  0  0  0
 15 29  1  0  0  0  0
 16 26  1  0  0  0  0
 16 30  2  0  0  0  0
 17 27  1  0  0  0  0
 17 29  2  0  0  0  0
 18 31  1  0  0  0  0
 18 32  1  0  0  0  0
 18 39  1  0  0  0  0
 19 27  1  0  0  0  0
 20 29  1  0  0  0  0
 21 38  1  0  0  0  0
 21 40  1  0  0  0  0
 22 44  1  0  0  0  0
 22 45  1  0  0  0  0
 23 49  1  0  0  0  0
 23 50  1  0  0  0  0
 24 51  1  0  0  0  0
 24 55  1  0  0  0  0
 25 26  1  0  0  0  0
 25 27  2  0  0  0  0
 28 30  1  0  0  0  0
 28 31  1  0  0  0  0
 32 34  2  0  0  0  0
 32 35  1  0  0  0  0
 33 36  2  0  0  0  0
 33 37  1  0  0  0  0
 33 38  1  0  0  0  0
 34 36  1  0  0  0  0
 35 37  2  0  0  0  0
 40 41  1  0  0  0  0
 40 42  1  0  0  0  0
 42 43  1  0  0  0  0
 43 44  1  0  0  0  0
 45 46  1  0  0  0  0
 46 47  1  0  0  0  0
 47 48  1  0  0  0  0
 48 49  1  0  0  0  0
 52 54  1  0  0  0  0
 53 56  1  0  0  0  0
 55 57  1  0  0  0  0
 58 59  1  0  0  0  0
 60 61  1  0  0  0  0
 62 63  1  0  0  0  0
 63 64  1  0  0  0  0
 64 65  1  0  0  0  0
 65 66  1  0  0  0  0
 66 67  1  0  0  0  0
M  END
> <PUBCHEM_COMPOUND_ID_TYPE>
0

> <PUBCHEM_TOTAL_CHARGE>
0

> <PUBCHEM_SUBSTANCE_ID>
310942411

> <PUBCHEM_SUBSTANCE_VERSION>
1

> <PUBCHEM_EXT_DATASOURCE_NAME>
4488

> <PUBCHEM_EXT_DATASOURCE_REGID>
SCHEMBL16120447

> <PUBCHEM_SUBSTANCE_COMMENT>
InChI=1S/C43H66ClN11O12/c1-55(30-32-29-50-38-36(51-32)37(45)53-41(46)54-38)33-11-9-31(10-12-33)39(57)52-34(40(58)59)13-14-35(56)47-16-6-4-7-17-48-42(60)66-27-25-64-23-24-65-26-28-67-43(61)49-18-20-63-22-21-62-19-8-3-2-5-15-44/h9-12,29,34H,2-8,13-28,30H2,1H3,(H,47,56)(H,48,60)(H,49,61)(H,52,57)(H,58,59)(H4,45,46,50,53,54)
InChIKey=HSDTYOCKQYMCCT-UHFFFAOYSA-N

> <PUBCHEM_SUBSTANCE_SYNONYM>
SCHEMBL16120447

> <PUBCHEM_XREF_EXT_ID>
SCHEMBL16120447

> <PUBCHEM_EXT_DATASOURCE_URL>
https://www.surechembl.org/

> <PUBCHEM_EXT_SUBSTANCE_URL>
https://www.surechembl.org/chemical/SCHEMBL16120447

> <PUBCHEM_CID_ASSOCIATIONS>
86273777  1

> <PUBCHEM_COORDINATE_TYPE>
1
3

$$$$
