310947389
  -OEChem-07211613022D

 19 23  0     1  0  0  0  0  0999 V2000
    2.0637  -15.0911    0.0000 O   0  0  0  0  0  0  0  0  0  0  0  0
    2.7782  -16.3286    0.0000 O   0  0  0  0  0  0  0  0  0  0  0  0
    0.7942  -15.5036    0.0000 C   0  0  3  0  0  0  0  0  0  0  0  0
    0.0797  -15.0911    0.0000 C   0  0  3  0  0  0  0  0  0  0  0  0
   -0.6348  -15.5036    0.0000 C   0  0  3  0  0  0  0  0  0  0  0  0
   -0.6348  -16.3286    0.0000 C   0  0  3  0  0  0  0  0  0  0  0  0
    0.0797  -16.7411    0.0000 C   0  0  3  0  0  0  0  0  0  0  0  0
   -1.3492  -15.0911    0.0000 C   0  0  3  0  0  0  0  0  0  0  0  0
    0.7942  -16.3286    0.0000 C   0  0  0  0  0  0  0  0  0  0  0  0
    0.2932  -15.8880    0.0000 C   0  0  0  0  0  0  0  0  0  0  0  0
   -1.3492  -16.7411    0.0000 C   0  0  3  0  0  0  0  0  0  0  0  0
    1.2791  -14.8362    0.0000 C   0  0  3  0  0  0  0  0  0  0  0  0
    1.2791  -16.1711    0.0000 C   0  0  0  0  0  0  0  0  0  0  0  0
   -1.1357  -15.8880    0.0000 C   0  0  0  0  0  0  0  0  0  0  0  0
   -2.0637  -15.5036    0.0000 C   0  0  3  0  0  0  0  0  0  0  0  0
   -2.0637  -16.3286    0.0000 C   0  0  0  0  0  0  0  0  0  0  0  0
    2.0637  -15.9161    0.0000 C   0  0  0  0  0  0  0  0  0  0  0  0
    1.2419  -14.8913    0.0000 C   0  0  0  0  0  0  0  0  0  0  0  0
   -2.7782  -15.0911    0.0000 C   0  0  0  0  0  0  0  0  0  0  0  0
  1 12  1  0  0  0  0
  1 17  1  0  0  0  0
  2 17  2  0  0  0  0
  3  4  1  0  0  0  0
  3  9  1  0  0  0  0
  3 12  1  0  0  0  0
  3 13  1  0  0  0  0
  4  5  1  0  0  0  0
  4 10  1  0  0  0  0
  5  6  1  0  0  0  0
  5  8  1  0  0  0  0
  6  7  1  0  0  0  0
  6 11  1  0  0  0  0
  7  9  1  0  0  0  0
  7 10  1  0  0  0  0
  8 14  1  0  0  0  0
  8 15  1  0  0  0  0
 11 14  1  0  0  0  0
 11 16  1  0  0  0  0
 12 18  1  0  0  0  0
 13 17  1  0  0  0  0
 15 16  1  0  0  0  0
 15 19  1  0  0  0  0
M  END
> <PUBCHEM_COMPOUND_ID_TYPE>
0

> <PUBCHEM_TOTAL_CHARGE>
0

> <PUBCHEM_SUBSTANCE_ID>
310947389

> <PUBCHEM_SUBSTANCE_VERSION>
1

> <PUBCHEM_EXT_DATASOURCE_NAME>
4488

> <PUBCHEM_EXT_DATASOURCE_REGID>
SCHEMBL16125545

> <PUBCHEM_SUBSTANCE_COMMENT>
InChI=1S/C17H24O2/c1-8-3-10-4-12(8)16-13-5-11(15(10)16)6-17(13)7-14(18)19-9(17)2/h8-13,15-16H,3-7H2,1-2H3
InChIKey=CMTIDGOAYULICY-UHFFFAOYSA-N

> <PUBCHEM_SUBSTANCE_SYNONYM>
SCHEMBL16125545

> <PUBCHEM_XREF_EXT_ID>
SCHEMBL16125545

> <PUBCHEM_EXT_DATASOURCE_URL>
https://www.surechembl.org/

> <PUBCHEM_EXT_SUBSTANCE_URL>
https://www.surechembl.org/chemical/SCHEMBL16125545

> <PUBCHEM_CID_ASSOCIATIONS>
117613132  1

> <PUBCHEM_COORDINATE_TYPE>
1
3

$$$$
