310946264
  -OEChem-07211613022D

 26 28  0     1  0  0  0  0  0999 V2000
    3.4040  -16.9522    0.0000 S   0  0  0  0  0  0  0  0  0  0  0  0
    2.5790  -16.9522    0.0000 O   0  0  0  0  0  0  0  0  0  0  0  0
   -0.2789  -16.9522    0.0000 O   0  0  0  0  0  0  0  0  0  0  0  0
   -0.2789  -13.6522    0.0000 O   0  0  0  0  0  0  0  0  0  0  0  0
    3.8165  -17.6667    0.0000 O   0  0  0  0  0  0  0  0  0  0  0  0
    3.8165  -16.2378    0.0000 O   0  0  0  0  0  0  0  0  0  0  0  0
    4.2290  -16.9522    0.0000 O   0  0  0  0  0  0  0  0  0  0  0  0
   -1.7078  -14.4772    0.0000 O   0  0  0  0  0  0  0  0  0  0  0  0
    0.4356  -15.7147    0.0000 N   0  0  0  0  0  0  0  0  0  0  0  0
    1.8645  -16.5397    0.0000 N   0  0  0  0  0  0  0  0  0  0  0  0
   -0.9934  -14.8897    0.0000 N   0  0  0  0  0  0  0  0  0  0  0  0
   -3.7201  -15.0606    0.0000 N   0  0  0  0  0  0  0  0  0  0  0  0
    0.4356  -16.5397    0.0000 C   0  0  0  0  0  0  0  0  0  0  0  0
    1.8645  -15.7147    0.0000 C   0  0  3  0  0  0  0  0  0  0  0  0
    0.4356  -14.8897    0.0000 C   0  0  3  0  0  0  0  0  0  0  0  0
    1.1500  -16.1272    0.0000 C   0  0  0  0  0  0  0  0  0  0  0  0
    1.8645  -14.8897    0.0000 C   0  0  0  0  0  0  0  0  0  0  0  0
    1.1500  -14.4772    0.0000 C   0  0  0  0  0  0  0  0  0  0  0  0
   -0.2789  -14.4772    0.0000 C   0  0  0  0  0  0  0  0  0  0  0  0
   -3.1368  -14.4772    0.0000 C   0  0  3  0  0  0  0  0  0  0  0  0
   -2.4223  -14.8897    0.0000 C   0  0  0  0  0  0  0  0  0  0  0  0
   -3.3503  -13.6803    0.0000 C   0  0  0  0  0  0  0  0  0  0  0  0
   -4.1349  -13.4254    0.0000 C   0  0  0  0  0  0  0  0  0  0  0  0
   -2.8654  -13.0129    0.0000 C   0  0  0  0  0  0  0  0  0  0  0  0
   -4.1349  -12.6004    0.0000 C   0  0  0  0  0  0  0  0  0  0  0  0
   -3.3503  -12.3455    0.0000 C   0  0  0  0  0  0  0  0  0  0  0  0
  1  2  1  0  0  0  0
  1  5  2  0  0  0  0
  1  6  2  0  0  0  0
  1  7  1  0  0  0  0
  2 10  1  0  0  0  0
  3 13  2  0  0  0  0
  4 19  2  0  0  0  0
  8 11  1  0  0  0  0
  8 21  1  0  0  0  0
  9 13  1  0  0  0  0
  9 15  1  0  0  0  0
  9 16  1  0  0  0  0
 10 13  1  0  0  0  0
 10 14  1  0  0  0  0
 11 19  1  0  0  0  0
 12 20  1  0  0  0  0
 14 16  1  6  0  0  0
 14 17  1  0  0  0  0
 15 18  1  0  0  0  0
 15 19  1  6  0  0  0
 17 18  1  0  0  0  0
 20 21  1  0  0  0  0
 20 22  1  0  0  0  0
 22 23  1  0  0  0  0
 22 24  1  0  0  0  0
 23 25  1  0  0  0  0
 24 26  1  0  0  0  0
 25 26  1  0  0  0  0
M  END
> <PUBCHEM_COMPOUND_ID_TYPE>
0

> <PUBCHEM_TOTAL_CHARGE>
0

> <PUBCHEM_SUBSTANCE_ID>
310946264

> <PUBCHEM_SUBSTANCE_VERSION>
1

> <PUBCHEM_EXT_DATASOURCE_NAME>
4488

> <PUBCHEM_EXT_DATASOURCE_REGID>
SCHEMBL16124382

> <PUBCHEM_SUBSTANCE_COMMENT>
InChI=1S/C14H24N4O7S/c15-11(9-3-1-2-4-9)8-24-16-13(19)12-6-5-10-7-17(12)14(20)18(10)25-26(21,22)23/h9-12H,1-8,15H2,(H,16,19)(H,21,22,23)/t10-,11?,12+/m1/s1
InChIKey=INIZQJCZSFJORH-LWALXPGCSA-N

> <PUBCHEM_SUBSTANCE_SYNONYM>
SCHEMBL16124382

> <PUBCHEM_XREF_EXT_ID>
SCHEMBL16124382

> <PUBCHEM_EXT_DATASOURCE_URL>
https://www.surechembl.org/

> <PUBCHEM_EXT_SUBSTANCE_URL>
https://www.surechembl.org/chemical/SCHEMBL16124382

> <PUBCHEM_CID_ASSOCIATIONS>
117612212  1

> <PUBCHEM_COORDINATE_TYPE>
1
3

> <PUBCHEM_BONDANNOTATIONS>
14  16  6
15  19  6

$$$$
