310938631
  -OEChem-07211613022D

 34 38  0     1  0  0  0  0  0999 V2000
   -4.2280   13.9886    0.0000 Cl  0  0  0  0  0  0  0  0  0  0  0  0
   -0.6557   13.5761    0.0000 O   0  0  0  0  0  0  0  0  0  0  0  0
    0.0588   12.3386    0.0000 O   0  0  0  0  0  0  0  0  0  0  0  0
   -4.2280   11.5136    0.0000 O   0  0  0  0  0  0  0  0  0  0  0  0
    0.7720   16.0511    0.0000 N   0  0  0  0  0  0  0  0  0  0  0  0
    0.0588   14.8136    0.0000 N   0  0  0  0  0  0  0  0  0  0  0  0
    1.4877   14.8136    0.0000 N   0  0  0  0  0  0  0  0  0  0  0  0
    1.4877   12.3386    0.0000 N   0  0  0  0  0  0  0  0  0  0  0  0
    3.6311   12.7511    0.0000 N   0  0  0  0  0  0  0  0  0  0  0  0
    1.1840   17.3198    0.0000 C   0  0  3  0  0  0  0  0  0  0  0  0
    0.3590   17.3185    0.0000 C   0  0  3  0  0  0  0  0  0  0  0  0
    0.7709   18.0357    0.0000 C   0  0  0  0  0  0  0  0  0  0  0  0
    1.4385   16.5355    0.0000 C   0  0  0  0  0  0  0  0  0  0  0  0
    0.1028   16.5343    0.0000 C   0  0  0  0  0  0  0  0  0  0  0  0
    0.7733   15.2261    0.0000 C   0  0  0  0  0  0  0  0  0  0  0  0
    0.0588   13.9886    0.0000 C   0  0  0  0  0  0  0  0  0  0  0  0
    0.7733   13.5761    0.0000 C   0  0  0  0  0  0  0  0  0  0  0  0
    1.4877   13.9886    0.0000 C   0  0  0  0  0  0  0  0  0  0  0  0
    0.7733   12.7511    0.0000 C   0  0  0  0  0  0  0  0  0  0  0  0
   -1.3701   13.9886    0.0000 C   0  0  0  0  0  0  0  0  0  0  0  0
   -2.0846   13.5761    0.0000 C   0  0  0  0  0  0  0  0  0  0  0  0
   -2.7991   13.9886    0.0000 C   0  0  0  0  0  0  0  0  0  0  0  0
   -3.5136   13.5761    0.0000 C   0  0  0  0  0  0  0  0  0  0  0  0
   -3.5136   12.7511    0.0000 C   0  0  0  0  0  0  0  0  0  0  0  0
   -2.0846   12.7511    0.0000 C   0  0  0  0  0  0  0  0  0  0  0  0
   -2.7991   12.3386    0.0000 C   0  0  0  0  0  0  0  0  0  0  0  0
    2.2022   12.7511    0.0000 C   0  0  0  0  0  0  0  0  0  0  0  0
   -4.2280   12.3386    0.0000 C   0  0  0  0  0  0  0  0  0  0  0  0
    2.9167   12.3386    0.0000 C   0  0  0  0  0  0  0  0  0  0  0  0
    4.3456   12.3386    0.0000 C   0  0  0  0  0  0  0  0  0  0  0  0
    3.6311   13.5761    0.0000 C   0  0  0  0  0  0  0  0  0  0  0  0
    5.0601   12.7511    0.0000 C   0  0  0  0  0  0  0  0  0  0  0  0
    4.3456   13.9886    0.0000 C   0  0  0  0  0  0  0  0  0  0  0  0
    5.0601   13.5761    0.0000 C   0  0  0  0  0  0  0  0  0  0  0  0
  1 23  1  0  0  0  0
  2 16  1  0  0  0  0
  2 20  1  0  0  0  0
  3 19  2  0  0  0  0
  4 28  1  0  0  0  0
  5 13  1  0  0  0  0
  5 14  1  0  0  0  0
  5 15  1  0  0  0  0
  6 15  1  0  0  0  0
  6 16  2  0  0  0  0
  7 15  2  0  0  0  0
  7 18  1  0  0  0  0
  8 19  1  0  0  0  0
  8 27  1  0  0  0  0
  9 29  1  0  0  0  0
  9 30  1  0  0  0  0
  9 31  1  0  0  0  0
 10 11  1  0  0  0  0
 10 12  1  0  0  0  0
 10 13  1  0  0  0  0
 11 12  1  0  0  0  0
 11 14  1  0  0  0  0
 16 17  1  0  0  0  0
 17 18  2  0  0  0  0
 17 19  1  0  0  0  0
 20 21  1  0  0  0  0
 21 22  2  0  0  0  0
 21 25  1  0  0  0  0
 22 23  1  0  0  0  0
 23 24  2  0  0  0  0
 24 26  1  0  0  0  0
 24 28  1  0  0  0  0
 25 26  2  0  0  0  0
 27 29  1  0  0  0  0
 30 32  1  0  0  0  0
 31 33  1  0  0  0  0
 32 34  1  0  0  0  0
 33 34  1  0  0  0  0
M  END
> <PUBCHEM_COMPOUND_ID_TYPE>
0

> <PUBCHEM_TOTAL_CHARGE>
0

> <PUBCHEM_SUBSTANCE_ID>
310938631

> <PUBCHEM_SUBSTANCE_VERSION>
1

> <PUBCHEM_EXT_DATASOURCE_NAME>
4488

> <PUBCHEM_EXT_DATASOURCE_REGID>
SCHEMBL16116545

> <PUBCHEM_SUBSTANCE_COMMENT>
InChI=1S/C25H32ClN5O3/c26-22-10-17(4-5-18(22)15-32)16-34-24-21(23(33)27-6-9-30-7-2-1-3-8-30)12-28-25(29-24)31-13-19-11-20(19)14-31/h4-5,10,12,19-20,32H,1-3,6-9,11,13-16H2,(H,27,33)
InChIKey=VLRLDKYPNIUBIK-UHFFFAOYSA-N

> <PUBCHEM_SUBSTANCE_SYNONYM>
SCHEMBL16116545

> <PUBCHEM_XREF_EXT_ID>
SCHEMBL16116545

> <PUBCHEM_EXT_DATASOURCE_URL>
https://www.surechembl.org/

> <PUBCHEM_EXT_SUBSTANCE_URL>
https://www.surechembl.org/chemical/SCHEMBL16116545

> <PUBCHEM_CID_ASSOCIATIONS>
117606064  1

> <PUBCHEM_COORDINATE_TYPE>
1
3

$$$$
