310934848
  -OEChem-07211613022D

 36 41  0     1  0  0  0  0  0999 V2000
    2.9005   -7.0743    0.0000 O   0  0  0  0  0  0  0  0  0  0  0  0
    0.7428   -3.3249    0.0000 N   0  0  3  0  0  0  0  0  0  0  0  0
    0.0000   -2.0869    0.0000 N   0  0  0  0  0  0  0  0  0  0  0  0
    0.7428   -0.8489    0.0000 N   0  0  0  0  0  0  0  0  0  0  0  0
    3.6079   -5.8009    0.0000 N   0  0  0  0  0  0  0  0  0  0  0  0
    5.0581   -2.5114    0.0000 N   0  0  0  0  0  0  0  0  0  0  0  0
    5.0581   -4.9874    0.0000 N   0  0  0  0  0  0  0  0  0  0  0  0
    1.4502   -2.0869    0.0000 C   0  0  0  0  0  0  0  0  0  0  0  0
    0.7428   -2.5114    0.0000 C   0  0  0  0  0  0  0  0  0  0  0  0
    1.4502   -1.2380    0.0000 C   0  0  0  0  0  0  0  0  0  0  0  0
    1.4502   -4.5983    0.0000 C   0  0  0  0  0  0  0  0  0  0  0  0
    2.1577   -0.8489    0.0000 C   0  0  0  0  0  0  0  0  0  0  0  0
    2.1577   -2.5114    0.0000 C   0  0  0  0  0  0  0  0  0  0  0  0
    2.8651   -2.0869    0.0000 C   0  0  0  0  0  0  0  0  0  0  0  0
    0.7428   -5.0228    0.0000 C   0  0  0  0  0  0  0  0  0  0  0  0
    1.4502   -3.7494    0.0000 C   0  0  0  0  0  0  0  0  0  0  0  0
    2.8651   -1.2380    0.0000 C   0  0  0  0  0  0  0  0  0  0  0  0
    0.0354   -3.7494    0.0000 C   0  0  0  0  0  0  0  0  0  0  0  0
    2.1930   -5.8009    0.0000 C   0  0  0  0  0  0  0  0  0  0  0  0
    2.1577   -4.9874    0.0000 C   0  0  0  0  0  0  0  0  0  0  0  0
    0.0354   -4.5983    0.0000 C   0  0  0  0  0  0  0  0  0  0  0  0
    3.6079   -2.5114    0.0000 C   0  0  0  0  0  0  0  0  0  0  0  0
    0.0000   -1.2380    0.0000 C   0  0  0  0  0  0  0  0  0  0  0  0
    0.7428   -5.8009    0.0000 C   0  0  0  0  0  0  0  0  0  0  0  0
    2.9005   -6.2254    0.0000 C   0  0  0  0  0  0  0  0  0  0  0  0
    1.4502   -6.2254    0.0000 C   0  0  0  0  0  0  0  0  0  0  0  0
    2.1577    0.0000    0.0000 C   0  0  0  0  0  0  0  0  0  0  0  0
    4.3507   -2.0869    0.0000 C   0  0  0  0  0  0  0  0  0  0  0  0
    3.6433   -3.3249    0.0000 C   0  0  0  0  0  0  0  0  0  0  0  0
    4.3507   -6.2608    0.0000 C   0  0  0  0  0  0  0  0  0  0  0  0
    3.6079   -4.9874    0.0000 C   0  0  0  0  0  0  0  0  0  0  0  0
    4.3507   -3.7494    0.0000 C   0  0  0  0  0  0  0  0  0  0  0  0
    4.3507   -4.5629    0.0000 C   0  0  0  0  0  0  0  0  0  0  0  0
    5.0581   -5.8363    0.0000 C   0  0  0  0  0  0  0  0  0  0  0  0
    5.0935   -3.3603    0.0000 C   0  0  0  0  0  0  0  0  0  0  0  0
    5.8009   -4.5629    0.0000 C   0  0  0  0  0  0  0  0  0  0  0  0
  1 25  2  0  0  0  0
  2  9  1  0  0  0  0
  2 16  1  0  0  0  0
  2 18  1  0  0  0  0
  3  9  1  0  0  0  0
  3 23  2  0  0  0  0
  4 10  2  0  0  0  0
  4 23  1  0  0  0  0
  5 25  1  0  0  0  0
  5 30  1  0  0  0  0
  5 31  1  0  0  0  0
  6 28  1  0  0  0  0
  6 35  2  0  0  0  0
  7 33  1  0  0  0  0
  7 34  1  0  0  0  0
  7 36  1  0  0  0  0
  8  9  2  0  0  0  0
  8 10  1  0  0  0  0
  8 13  1  0  0  0  0
 10 12  1  0  0  0  0
 11 15  2  0  0  0  0
 11 16  1  0  0  0  0
 11 20  1  0  0  0  0
 12 17  2  0  0  0  0
 12 27  1  0  0  0  0
 13 14  2  0  0  0  0
 14 17  1  0  0  0  0
 14 22  1  0  0  0  0
 15 21  1  0  0  0  0
 15 24  1  0  0  0  0
 18 21  1  0  0  0  0
 19 20  2  0  0  0  0
 19 25  1  0  0  0  0
 19 26  1  0  0  0  0
 22 28  2  0  0  0  0
 22 29  1  0  0  0  0
 24 26  2  0  0  0  0
 29 32  2  0  0  0  0
 30 34  1  0  0  0  0
 31 33  1  0  0  0  0
 32 35  1  0  0  0  0
M  END
> <PUBCHEM_COMPOUND_ID_TYPE>
0

> <PUBCHEM_TOTAL_CHARGE>
0

> <PUBCHEM_SUBSTANCE_ID>
310934848

> <PUBCHEM_SUBSTANCE_VERSION>
1

> <PUBCHEM_EXT_DATASOURCE_NAME>
4488

> <PUBCHEM_EXT_DATASOURCE_REGID>
SCHEMBL16112357

> <PUBCHEM_SUBSTANCE_COMMENT>
InChI=1S/C29H30N6O/c1-20-14-24(23-4-3-8-30-17-23)16-26-27(20)31-19-32-28(26)35-9-7-21-5-6-22(15-25(21)18-35)29(36)34-12-10-33(2)11-13-34/h3-6,8,14-17,19H,7,9-13,18H2,1-2H3
InChIKey=XSCZOOUXPAJEHR-UHFFFAOYSA-N

> <PUBCHEM_SUBSTANCE_SYNONYM>
SCHEMBL16112357

> <PUBCHEM_XREF_EXT_ID>
SCHEMBL16112357

> <PUBCHEM_EXT_DATASOURCE_URL>
https://www.surechembl.org/

> <PUBCHEM_EXT_SUBSTANCE_URL>
https://www.surechembl.org/chemical/SCHEMBL16112357

> <PUBCHEM_CID_ASSOCIATIONS>
117602985  1

> <PUBCHEM_COORDINATE_TYPE>
1
3

$$$$
