310935587
  -OEChem-07211613022D

 15 16  0     1  0  0  0  0  0999 V2000
    2.5071   -0.7144    0.0000 O   0  0  0  0  0  0  0  0  0  0  0  0
   -2.5071    0.7144    0.0000 O   0  0  0  0  0  0  0  0  0  0  0  0
    1.2696    0.0000    0.0000 N   0  0  0  0  0  0  0  0  0  0  0  0
    2.5071    0.7144    0.0000 N   0  0  0  0  0  0  0  0  0  0  0  0
   -2.5071   -0.7144    0.0000 N   0  0  0  0  0  0  0  0  0  0  0  0
    0.0000    0.4125    0.0000 C   0  0  3  0  0  0  0  0  0  0  0  0
    0.0000   -0.4125    0.0000 C   0  0  3  0  0  0  0  0  0  0  0  0
   -1.2696    0.0000    0.0000 C   0  0  0  0  0  0  0  0  0  0  0  0
    0.7846    0.6674    0.0000 C   0  0  0  0  0  0  0  0  0  0  0  0
    0.7846   -0.6674    0.0000 C   0  0  0  0  0  0  0  0  0  0  0  0
   -0.7846   -0.6674    0.0000 C   0  0  0  0  0  0  0  0  0  0  0  0
   -0.7846    0.6674    0.0000 C   0  0  0  0  0  0  0  0  0  0  0  0
    2.0946    0.0000    0.0000 C   0  0  0  0  0  0  0  0  0  0  0  0
   -2.0946    0.0000    0.0000 C   0  0  0  0  0  0  0  0  0  0  0  0
    3.3321    0.7144    0.0000 C   0  0  0  0  0  0  0  0  0  0  0  0
  1 13  2  0  0  0  0
  2 14  2  0  0  0  0
  3  9  1  0  0  0  0
  3 10  1  0  0  0  0
  3 13  1  0  0  0  0
  4 13  1  0  0  0  0
  4 15  1  0  0  0  0
  5 14  1  0  0  0  0
  6  7  1  0  0  0  0
  6  9  1  0  0  0  0
  6 12  1  0  0  0  0
  7 10  1  0  0  0  0
  7 11  1  0  0  0  0
  8 11  1  0  0  0  0
  8 12  1  0  0  0  0
  8 14  1  0  0  0  0
M  END
> <PUBCHEM_COMPOUND_ID_TYPE>
0

> <PUBCHEM_TOTAL_CHARGE>
0

> <PUBCHEM_SUBSTANCE_ID>
310935587

> <PUBCHEM_SUBSTANCE_VERSION>
1

> <PUBCHEM_EXT_DATASOURCE_NAME>
4488

> <PUBCHEM_EXT_DATASOURCE_REGID>
SCHEMBL16113160

> <PUBCHEM_SUBSTANCE_COMMENT>
InChI=1S/C10H17N3O2/c1-12-10(15)13-4-7-2-6(9(11)14)3-8(7)5-13/h6-8H,2-5H2,1H3,(H2,11,14)(H,12,15)
InChIKey=TYSSWOLBYXMCHH-UHFFFAOYSA-N

> <PUBCHEM_SUBSTANCE_SYNONYM>
SCHEMBL16113160

> <PUBCHEM_XREF_EXT_ID>
SCHEMBL16113160

> <PUBCHEM_EXT_DATASOURCE_URL>
https://www.surechembl.org/

> <PUBCHEM_EXT_SUBSTANCE_URL>
https://www.surechembl.org/chemical/SCHEMBL16113160

> <PUBCHEM_CID_ASSOCIATIONS>
117603609  1

> <PUBCHEM_COORDINATE_TYPE>
1
3

$$$$
