310935051
  -OEChem-07211613022D

 28 31  0     1  0  0  0  0  0999 V2000
    1.5172   -3.7087    0.0000 F   0  0  0  0  0  0  0  0  0  0  0  0
    2.7845    0.6979    0.0000 O   0  0  0  0  0  0  0  0  0  0  0  0
    4.2589   -2.3528    0.0000 O   0  0  0  0  0  0  0  0  0  0  0  0
    4.5560   -0.9550    0.0000 O   0  0  0  0  0  0  0  0  0  0  0  0
   -0.1435    0.8555    0.0000 N   0  0  0  0  0  0  0  0  0  0  0  0
   -0.6284    1.5229    0.0000 N   0  0  0  0  0  0  0  0  0  0  0  0
    3.1970   -1.3966    0.0000 C   0  0  3  0  0  0  0  0  0  0  0  0
    3.1108   -2.2171    0.0000 C   0  0  0  0  0  0  0  0  0  0  0  0
    3.4520   -0.6120    0.0000 C   0  0  0  0  0  0  0  0  0  0  0  0
    4.0040   -1.5681    0.0000 C   0  0  0  0  0  0  0  0  0  0  0  0
    2.3720   -1.3966    0.0000 C   0  0  0  0  0  0  0  0  0  0  0  0
    2.7845   -0.1271    0.0000 C   0  0  3  0  0  0  0  0  0  0  0  0
    2.3571   -2.5526    0.0000 C   0  0  0  0  0  0  0  0  0  0  0  0
    2.1171   -0.6120    0.0000 C   0  0  0  0  0  0  0  0  0  0  0  0
    3.7782   -2.7020    0.0000 C   0  0  0  0  0  0  0  0  0  0  0  0
    2.0701    1.1104    0.0000 C   0  0  0  0  0  0  0  0  0  0  0  0
    0.6411    1.1104    0.0000 C   0  0  0  0  0  0  0  0  0  0  0  0
    2.2709   -3.3731    0.0000 C   0  0  0  0  0  0  0  0  0  0  0  0
    0.6411    1.9354    0.0000 C   0  0  0  0  0  0  0  0  0  0  0  0
    1.3556    0.6979    0.0000 C   0  0  0  0  0  0  0  0  0  0  0  0
    3.6920   -3.5225    0.0000 C   0  0  0  0  0  0  0  0  0  0  0  0
    2.9383   -3.8580    0.0000 C   0  0  0  0  0  0  0  0  0  0  0  0
    2.0701    1.9354    0.0000 C   0  0  0  0  0  0  0  0  0  0  0  0
    1.3556    2.3479    0.0000 C   0  0  0  0  0  0  0  0  0  0  0  0
   -0.1435    2.1904    0.0000 C   0  0  0  0  0  0  0  0  0  0  0  0
    1.6897   -2.0677    0.0000 C   0  0  0  0  0  0  0  0  0  0  0  0
    5.0659   -2.5243    0.0000 C   0  0  0  0  0  0  0  0  0  0  0  0
   -0.3984    0.0709    0.0000 C   0  0  0  0  0  0  0  0  0  0  0  0
  1 18  1  0  0  0  0
  2 12  1  0  0  0  0
  2 16  1  0  0  0  0
  3 10  1  0  0  0  0
  3 27  1  0  0  0  0
  4 10  2  0  0  0  0
  5  6  1  0  0  0  0
  5 17  1  0  0  0  0
  5 28  1  0  0  0  0
  6 25  2  0  0  0  0
  7  8  1  0  0  0  0
  7  9  1  0  0  0  0
  7 10  1  0  0  0  0
  7 11  1  0  0  0  0
  8 13  2  0  0  0  0
  8 15  1  0  0  0  0
  9 12  1  0  0  0  0
 11 14  1  0  0  0  0
 12 14  1  0  0  0  0
 13 18  1  0  0  0  0
 13 26  1  0  0  0  0
 15 21  2  0  0  0  0
 16 20  2  0  0  0  0
 16 23  1  0  0  0  0
 17 19  2  0  0  0  0
 17 20  1  0  0  0  0
 18 22  2  0  0  0  0
 19 24  1  0  0  0  0
 19 25  1  0  0  0  0
 21 22  1  0  0  0  0
 23 24  2  0  0  0  0
M  END
> <PUBCHEM_COMPOUND_ID_TYPE>
0

> <PUBCHEM_TOTAL_CHARGE>
0

> <PUBCHEM_SUBSTANCE_ID>
310935051

> <PUBCHEM_SUBSTANCE_VERSION>
1

> <PUBCHEM_EXT_DATASOURCE_NAME>
4488

> <PUBCHEM_EXT_DATASOURCE_REGID>
SCHEMBL16112571

> <PUBCHEM_SUBSTANCE_COMMENT>
InChI=1S/C22H23FN2O3/c1-14-18(5-4-6-19(14)23)22(21(26)27-3)10-9-17(12-22)28-16-8-7-15-13-24-25(2)20(15)11-16/h4-8,11,13,17H,9-10,12H2,1-3H3
InChIKey=NOVDRUDTDHJDJT-UHFFFAOYSA-N

> <PUBCHEM_SUBSTANCE_SYNONYM>
SCHEMBL16112571

> <PUBCHEM_XREF_EXT_ID>
SCHEMBL16112571

> <PUBCHEM_EXT_DATASOURCE_URL>
https://www.surechembl.org/

> <PUBCHEM_EXT_SUBSTANCE_URL>
https://www.surechembl.org/chemical/SCHEMBL16112571

> <PUBCHEM_CID_ASSOCIATIONS>
117603153  1

> <PUBCHEM_COORDINATE_TYPE>
1
3

$$$$
