310934531
  -OEChem-07211613022D

 33 37  0     1  0  0  0  0  0999 V2000
    7.0657   -4.3403    0.0000 Cl  0  0  0  0  0  0  0  0  0  0  0  0
    0.6814   -2.7254    0.0000 S   0  0  0  0  0  0  0  0  0  0  0  0
    4.1890   -0.7570    0.0000 O   0  0  0  0  0  0  0  0  0  0  0  0
    2.0944   -2.5992    0.0000 N   0  0  0  0  0  0  0  0  0  0  0  0
    2.8767   -2.8515    0.0000 N   0  0  0  0  0  0  0  0  0  0  0  0
    5.4507   -1.4888    0.0000 N   0  0  0  0  0  0  0  0  0  0  0  0
    1.5141   -3.8861    0.0000 N   0  0  0  0  0  0  0  0  0  0  0  0
    4.1890   -2.1954    0.0000 C   0  0  0  0  0  0  0  0  0  0  0  0
    4.6179   -2.9020    0.0000 C   0  0  0  0  0  0  0  0  0  0  0  0
    3.3562   -2.1954    0.0000 C   0  0  0  0  0  0  0  0  0  0  0  0
    5.4507   -2.9020    0.0000 C   0  0  0  0  0  0  0  0  0  0  0  0
    4.5927   -1.4888    0.0000 C   0  0  0  0  0  0  0  0  0  0  0  0
    5.8544   -2.1954    0.0000 C   0  0  0  0  0  0  0  0  0  0  0  0
    2.0944   -1.7917    0.0000 C   0  0  3  0  0  0  0  0  0  0  0  0
    4.1890   -3.6085    0.0000 C   0  0  0  0  0  0  0  0  0  0  0  0
    2.8767   -1.5141    0.0000 C   0  0  0  0  0  0  0  0  0  0  0  0
    5.8292   -3.6085    0.0000 C   0  0  0  0  0  0  0  0  0  0  0  0
    1.4383   -1.3122    0.0000 C   0  0  0  0  0  0  0  0  0  0  0  0
    1.4383   -3.0786    0.0000 C   0  0  0  0  0  0  0  0  0  0  0  0
    6.6619   -2.1954    0.0000 C   0  0  0  0  0  0  0  0  0  0  0  0
    6.6619   -3.6085    0.0000 C   0  0  0  0  0  0  0  0  0  0  0  0
    4.5927   -4.3403    0.0000 C   0  0  0  0  0  0  0  0  0  0  0  0
    3.3815   -3.6338    0.0000 C   0  0  0  0  0  0  0  0  0  0  0  0
    7.0657   -2.9020    0.0000 C   0  0  0  0  0  0  0  0  0  0  0  0
    0.6814   -1.6402    0.0000 C   0  0  0  0  0  0  0  0  0  0  0  0
    1.5141   -0.4795    0.0000 C   0  0  0  0  0  0  0  0  0  0  0  0
    4.1890   -5.0469    0.0000 C   0  0  0  0  0  0  0  0  0  0  0  0
    2.9524   -4.3151    0.0000 C   0  0  0  0  0  0  0  0  0  0  0  0
    3.3562   -5.0469    0.0000 C   0  0  0  0  0  0  0  0  0  0  0  0
    0.0000   -1.1608    0.0000 C   0  0  0  0  0  0  0  0  0  0  0  0
    0.8580    0.0000    0.0000 C   0  0  0  0  0  0  0  0  0  0  0  0
    0.1009   -0.3533    0.0000 C   0  0  0  0  0  0  0  0  0  0  0  0
    0.8327   -4.3656    0.0000 C   0  0  0  0  0  0  0  0  0  0  0  0
  1 21  1  0  0  0  0
  2 19  2  0  0  0  0
  3 12  2  0  0  0  0
  4  5  1  0  0  0  0
  4 14  1  0  0  0  0
  4 19  1  0  0  0  0
  5 10  2  0  0  0  0
  6 12  1  0  0  0  0
  6 13  1  0  0  0  0
  7 19  1  0  0  0  0
  7 33  1  0  0  0  0
  8  9  2  0  0  0  0
  8 10  1  0  0  0  0
  8 12  1  0  0  0  0
  9 11  1  0  0  0  0
  9 15  1  0  0  0  0
 10 16  1  0  0  0  0
 11 13  2  0  0  0  0
 11 17  1  0  0  0  0
 13 20  1  0  0  0  0
 14 16  1  0  0  0  0
 14 18  1  0  0  0  0
 15 22  2  0  0  0  0
 15 23  1  0  0  0  0
 17 21  2  0  0  0  0
 18 25  2  0  0  0  0
 18 26  1  0  0  0  0
 20 24  2  0  0  0  0
 21 24  1  0  0  0  0
 22 27  1  0  0  0  0
 23 28  2  0  0  0  0
 25 30  1  0  0  0  0
 26 31  2  0  0  0  0
 27 29  2  0  0  0  0
 28 29  1  0  0  0  0
 30 32  2  0  0  0  0
 31 32  1  0  0  0  0
M  END
> <PUBCHEM_COMPOUND_ID_TYPE>
0

> <PUBCHEM_TOTAL_CHARGE>
0

> <PUBCHEM_SUBSTANCE_ID>
310934531

> <PUBCHEM_SUBSTANCE_VERSION>
1

> <PUBCHEM_EXT_DATASOURCE_NAME>
4488

> <PUBCHEM_EXT_DATASOURCE_REGID>
SCHEMBL16112020

> <PUBCHEM_SUBSTANCE_COMMENT>
InChI=1S/C26H21ClN4OS/c1-28-26(33)31-22(16-8-4-2-5-9-16)15-21(30-31)24-23(17-10-6-3-7-11-17)19-14-18(27)12-13-20(19)29-25(24)32/h2-14,22H,15H2,1H3,(H,28,33)(H,29,32)
InChIKey=SJESTDSBHNANEG-UHFFFAOYSA-N

> <PUBCHEM_SUBSTANCE_SYNONYM>
SCHEMBL16112020

> <PUBCHEM_XREF_EXT_ID>
SCHEMBL16112020

> <PUBCHEM_EXT_DATASOURCE_URL>
https://www.surechembl.org/

> <PUBCHEM_EXT_SUBSTANCE_URL>
https://www.surechembl.org/chemical/SCHEMBL16112020

> <PUBCHEM_CID_ASSOCIATIONS>
44116617  1

> <PUBCHEM_COORDINATE_TYPE>
1
3

$$$$
