310938083
  -OEChem-07211613022D

 41 44  0     1  0  0  0  0  0999 V2000
    0.7145    1.2375    0.0000 F   0  0  0  0  0  0  0  0  0  0  0  0
    5.4560   -0.7274    0.0000 F   0  0  0  0  0  0  0  0  0  0  0  0
    6.1706   -1.1399    0.0000 F   0  0  0  0  0  0  0  0  0  0  0  0
    5.4560    0.0976    0.0000 F   0  0  0  0  0  0  0  0  0  0  0  0
   -5.0013   -0.4125    0.0000 O   0  0  0  0  0  0  0  0  0  0  0  0
    6.8850    0.9226    0.0000 O   0  0  0  0  0  0  0  0  0  0  0  0
    7.5995   -0.3149    0.0000 O   0  0  0  0  0  0  0  0  0  0  0  0
   -0.7145   -0.4125    0.0000 N   0  0  0  0  0  0  0  0  0  0  0  0
    2.0202   -0.6901    0.0000 N   0  0  0  0  0  0  0  0  0  0  0  0
    0.8007   -1.2330    0.0000 N   0  0  0  0  0  0  0  0  0  0  0  0
   -2.1434   -0.4125    0.0000 N   0  0  0  0  0  0  0  0  0  0  0  0
   -1.4290    0.8250    0.0000 N   0  0  0  0  0  0  0  0  0  0  0  0
   -6.6090    0.9920    0.0000 N   0  0  0  0  0  0  0  0  0  0  0  0
    0.0000    0.0000    0.0000 C   0  0  0  0  0  0  0  0  0  0  0  0
    0.7145   -0.4125    0.0000 C   0  0  0  0  0  0  0  0  0  0  0  0
    0.0000    0.8250    0.0000 C   0  0  0  0  0  0  0  0  0  0  0  0
   -1.4290    0.0000    0.0000 C   0  0  0  0  0  0  0  0  0  0  0  0
    1.4682   -0.0770    0.0000 C   0  0  0  0  0  0  0  0  0  0  0  0
   -2.8579    0.0000    0.0000 C   0  0  0  0  0  0  0  0  0  0  0  0
   -0.7145    1.2375    0.0000 C   0  0  0  0  0  0  0  0  0  0  0  0
    1.6077   -1.4045    0.0000 C   0  0  0  0  0  0  0  0  0  0  0  0
   -4.2869    0.0000    0.0000 C   0  0  0  0  0  0  0  0  0  0  0  0
   -3.5724   -0.4125    0.0000 C   0  0  0  0  0  0  0  0  0  0  0  0
   -2.8579    0.8250    0.0000 C   0  0  0  0  0  0  0  0  0  0  0  0
   -3.5724    1.2375    0.0000 C   0  0  0  0  0  0  0  0  0  0  0  0
    2.8407   -0.6038    0.0000 C   0  0  0  0  0  0  0  0  0  0  0  0
   -4.2869    0.8250    0.0000 C   0  0  0  0  0  0  0  0  0  0  0  0
    3.3256   -1.2713    0.0000 C   0  0  0  0  0  0  0  0  0  0  0  0
   -5.7159    0.0000    0.0000 C   0  0  3  0  0  0  0  0  0  0  0  0
   -3.5724    2.0625    0.0000 C   0  0  0  0  0  0  0  0  0  0  0  0
    2.9901   -2.0249    0.0000 C   0  0  0  0  0  0  0  0  0  0  0  0
    4.1461   -1.1850    0.0000 C   0  0  0  0  0  0  0  0  0  0  0  0
   -5.8021    0.8205    0.0000 C   0  0  0  0  0  0  0  0  0  0  0  0
   -6.4695   -0.3355    0.0000 C   0  0  0  0  0  0  0  0  0  0  0  0
   -7.0216    0.2776    0.0000 C   0  0  0  0  0  0  0  0  0  0  0  0
    3.4750   -2.6924    0.0000 C   0  0  0  0  0  0  0  0  0  0  0  0
    4.6310   -1.8524    0.0000 C   0  0  0  0  0  0  0  0  0  0  0  0
    4.2955   -2.6062    0.0000 C   0  0  0  0  0  0  0  0  0  0  0  0
   -4.2869    2.4750    0.0000 C   0  0  0  0  0  0  0  0  0  0  0  0
    6.1706   -0.3149    0.0000 C   0  0  0  0  0  0  0  0  0  0  0  0
    6.8850    0.0976    0.0000 C   0  0  0  0  0  0  0  0  0  0  0  0
  1 16  1  0  0  0  0
  2 40  1  0  0  0  0
  3 40  1  0  0  0  0
  4 40  1  0  0  0  0
  5 22  1  0  0  0  0
  5 29  1  0  0  0  0
  6 41  2  0  0  0  0
  7 41  1  0  0  0  0
  8 14  2  0  0  0  0
  8 17  1  0  0  0  0
  9 18  1  0  0  0  0
  9 21  1  0  0  0  0
  9 26  1  0  0  0  0
 10 15  1  0  0  0  0
 10 21  2  0  0  0  0
 11 17  1  0  0  0  0
 11 19  1  0  0  0  0
 12 17  2  0  0  0  0
 12 20  1  0  0  0  0
 13 33  1  0  0  0  0
 13 35  1  0  0  0  0
 14 15  1  0  0  0  0
 14 16  1  0  0  0  0
 15 18  2  0  0  0  0
 16 20  2  0  0  0  0
 19 23  2  0  0  0  0
 19 24  1  0  0  0  0
 22 23  1  0  0  0  0
 22 27  2  0  0  0  0
 24 25  2  0  0  0  0
 25 27  1  0  0  0  0
 25 30  1  0  0  0  0
 26 28  1  0  0  0  0
 28 31  2  0  0  0  0
 28 32  1  0  0  0  0
 29 33  1  0  0  0  0
 29 34  1  0  0  0  0
 30 39  1  0  0  0  0
 31 36  1  0  0  0  0
 32 37  2  0  0  0  0
 34 35  1  0  0  0  0
 36 38  2  0  0  0  0
 37 38  1  0  0  0  0
 40 41  1  0  0  0  0
M  END
> <PUBCHEM_COMPOUND_ID_TYPE>
0

> <PUBCHEM_TOTAL_CHARGE>
0

> <PUBCHEM_SUBSTANCE_ID>
310938083

> <PUBCHEM_SUBSTANCE_VERSION>
1

> <PUBCHEM_EXT_DATASOURCE_NAME>
4488

> <PUBCHEM_EXT_DATASOURCE_REGID>
SCHEMBL16115928

> <PUBCHEM_SUBSTANCE_COMMENT>
InChI=1S/C26H27FN6O.C2HF3O2/c1-2-18-10-20(12-22(11-18)34-21-8-9-28-13-21)31-26-29-14-23(27)25(32-26)24-16-33(17-30-24)15-19-6-4-3-5-7-19;3-2(4,5)1(6)7/h3-7,10-12,14,16-17,21,28H,2,8-9,13,15H2,1H3,(H,29,31,32);(H,6,7)
InChIKey=LDUWCRZZEKAUEB-UHFFFAOYSA-N

> <PUBCHEM_SUBSTANCE_SYNONYM>
SCHEMBL16115928

> <PUBCHEM_XREF_EXT_ID>
SCHEMBL16115928

> <PUBCHEM_EXT_DATASOURCE_URL>
https://www.surechembl.org/

> <PUBCHEM_EXT_SUBSTANCE_URL>
https://www.surechembl.org/chemical/SCHEMBL16115928

> <PUBCHEM_CID_ASSOCIATIONS>
86301749  1
6422  2
86301750  2

> <PUBCHEM_COORDINATE_TYPE>
1
3

$$$$
