310938814
  -OEChem-07211613022D

 12 12  0     1  0  0  0  0  0999 V2000
    0.2206    1.3311    0.0000 O   0  0  0  0  0  0  0  0  0  0  0  0
    1.3826    0.5221    0.0000 O   0  0  0  0  0  0  0  0  0  0  0  0
    0.0735   -0.0662    0.0000 C   0  0  3  0  0  0  0  0  0  0  0  0
    0.6471   -0.5662    0.0000 C   0  0  0  0  0  0  0  0  0  0  0  0
    0.5736    0.5957    0.0000 C   0  0  0  0  0  0  0  0  0  0  0  0
   -0.6766   -0.5075    0.0000 C   0  0  0  0  0  0  0  0  0  0  0  0
    0.3384   -1.3311    0.0000 C   0  0  0  0  0  0  0  0  0  0  0  0
   -0.7207    0.3457    0.0000 C   0  0  0  0  0  0  0  0  0  0  0  0
   -0.4855   -1.2870    0.0000 C   0  0  0  0  0  0  0  0  0  0  0  0
    1.2502   -0.0073    0.0000 C   0  0  0  0  0  0  0  0  0  0  0  0
    1.4562   -0.7869    0.0000 C   0  0  0  0  0  0  0  0  0  0  0  0
   -1.4562   -0.0809    0.0000 C   0  0  0  0  0  0  0  0  0  0  0  0
  1  5  2  0  0  0  0
  2  5  1  0  0  0  0
  3  4  1  0  0  0  0
  3  5  1  0  0  0  0
  3  6  1  0  0  0  0
  3  8  1  0  0  0  0
  4  7  1  0  0  0  0
  4 10  1  0  0  0  0
  4 11  1  0  0  0  0
  6  9  1  0  0  0  0
  7  9  1  0  0  0  0
  8 12  1  0  0  0  0
M  END
> <PUBCHEM_COMPOUND_ID_TYPE>
0

> <PUBCHEM_TOTAL_CHARGE>
0

> <PUBCHEM_SUBSTANCE_ID>
310938814

> <PUBCHEM_SUBSTANCE_VERSION>
1

> <PUBCHEM_EXT_DATASOURCE_NAME>
4488

> <PUBCHEM_EXT_DATASOURCE_REGID>
SCHEMBL16116731

> <PUBCHEM_SUBSTANCE_COMMENT>
InChI=1S/C10H18O2/c1-4-10(8(11)12)7-5-6-9(10,2)3/h4-7H2,1-3H3,(H,11,12)
InChIKey=JKLNBADELWFOCB-UHFFFAOYSA-N

> <PUBCHEM_SUBSTANCE_SYNONYM>
SCHEMBL16116731

> <PUBCHEM_XREF_EXT_ID>
SCHEMBL16116731

> <PUBCHEM_EXT_DATASOURCE_URL>
https://www.surechembl.org/

> <PUBCHEM_EXT_SUBSTANCE_URL>
https://www.surechembl.org/chemical/SCHEMBL16116731

> <PUBCHEM_CID_ASSOCIATIONS>
117606220  1

> <PUBCHEM_COORDINATE_TYPE>
1
3

$$$$
