310945719
  -OEChem-07211613022D

 13 14  0     1  0  0  0  0  0999 V2000
    0.6364    0.3597    0.0000 N   0  0  3  0  0  0  0  0  0  0  0  0
   -0.2675   -1.8723    0.0000 N   0  0  0  0  0  0  0  0  0  0  0  0
   -1.0607   -1.6878    0.0000 N   0  0  0  0  0  0  0  0  0  0  0  0
   -0.4335   -0.5442    0.0000 C   0  0  0  0  0  0  0  0  0  0  0  0
    0.1199   -1.1898    0.0000 C   0  0  0  0  0  0  0  0  0  0  0  0
   -1.1714   -0.9131    0.0000 C   0  0  0  0  0  0  0  0  0  0  0  0
   -0.1568    0.1752    0.0000 C   0  0  0  0  0  0  0  0  0  0  0  0
    0.9131   -1.0423    0.0000 C   0  0  0  0  0  0  0  0  0  0  0  0
    1.1529   -0.2306    0.0000 C   0  0  0  0  0  0  0  0  0  0  0  0
    0.8946    1.1345    0.0000 C   0  0  0  0  0  0  0  0  0  0  0  0
   -1.7247   -0.5810    0.0000 C   0  0  0  0  0  0  0  0  0  0  0  0
    1.7247    1.3374    0.0000 C   0  0  0  0  0  0  0  0  0  0  0  0
    0.4888    1.8723    0.0000 C   0  0  0  0  0  0  0  0  0  0  0  0
  1  7  1  0  0  0  0
  1  9  1  0  0  0  0
  1 10  1  0  0  0  0
  2  3  1  0  0  0  0
  2  5  1  0  0  0  0
  3  6  2  0  0  0  0
  4  5  2  0  0  0  0
  4  6  1  0  0  0  0
  4  7  1  0  0  0  0
  5  8  1  0  0  0  0
  6 11  1  0  0  0  0
  8  9  1  0  0  0  0
 10 12  1  0  0  0  0
 10 13  1  0  0  0  0
M  END
> <PUBCHEM_COMPOUND_ID_TYPE>
0

> <PUBCHEM_TOTAL_CHARGE>
0

> <PUBCHEM_SUBSTANCE_ID>
310945719

> <PUBCHEM_SUBSTANCE_VERSION>
1

> <PUBCHEM_EXT_DATASOURCE_NAME>
4488

> <PUBCHEM_EXT_DATASOURCE_REGID>
SCHEMBL16123823

> <PUBCHEM_SUBSTANCE_COMMENT>
InChI=1S/C10H17N3/c1-7(2)13-5-4-10-9(6-13)8(3)11-12-10/h7H,4-6H2,1-3H3,(H,11,12)
InChIKey=ZHNWGGMOXFJXAP-UHFFFAOYSA-N

> <PUBCHEM_SUBSTANCE_SYNONYM>
SCHEMBL16123823

> <PUBCHEM_XREF_EXT_ID>
SCHEMBL16123823

> <PUBCHEM_EXT_DATASOURCE_URL>
https://www.surechembl.org/

> <PUBCHEM_EXT_SUBSTANCE_URL>
https://www.surechembl.org/chemical/SCHEMBL16123823

> <PUBCHEM_CID_ASSOCIATIONS>
117611716  1

> <PUBCHEM_COORDINATE_TYPE>
1
3

$$$$
