310947224
  -OEChem-07211613022D

 26 27  0     1  0  0  0  0  0999 V2000
   -2.9438   -0.3351    0.0000 Cl  0  0  0  0  0  0  0  0  0  0  0  0
   -0.8238    2.7953    0.0000 F   0  0  0  0  0  0  0  0  0  0  0  0
    0.1866    1.7848    0.0000 F   0  0  0  0  0  0  0  0  0  0  0  0
   -0.0269    2.5817    0.0000 F   0  0  0  0  0  0  0  0  0  0  0  0
   -2.2041    2.4254    0.0000 O   0  0  0  0  0  0  0  0  0  0  0  0
   -0.5654   -1.8421    0.0000 N   0  0  0  0  0  0  0  0  0  0  0  0
   -1.3500   -2.0970    0.0000 N   0  0  0  0  0  0  0  0  0  0  0  0
    0.8636   -1.0171    0.0000 N   0  0  3  0  0  0  0  0  0  0  0  0
   -1.5635    0.0348    0.0000 C   0  0  0  0  0  0  0  0  0  0  0  0
   -1.1937    1.4150    0.0000 C   0  0  0  0  0  0  0  0  0  0  0  0
   -1.3500   -0.7621    0.0000 C   0  0  0  0  0  0  0  0  0  0  0  0
   -1.9906    1.6285    0.0000 C   0  0  0  0  0  0  0  0  0  0  0  0
   -2.3604    0.2483    0.0000 C   0  0  0  0  0  0  0  0  0  0  0  0
   -0.9801    0.6181    0.0000 C   0  0  0  0  0  0  0  0  0  0  0  0
   -0.6103    1.9984    0.0000 C   0  0  0  0  0  0  0  0  0  0  0  0
   -0.5654   -1.0171    0.0000 C   0  0  0  0  0  0  0  0  0  0  0  0
   -2.5739    1.0452    0.0000 C   0  0  0  0  0  0  0  0  0  0  0  0
   -1.8349   -1.4296    0.0000 C   0  0  0  0  0  0  0  0  0  0  0  0
    0.1491   -0.6046    0.0000 C   0  0  0  0  0  0  0  0  0  0  0  0
   -3.0010    2.6390    0.0000 C   0  0  0  0  0  0  0  0  0  0  0  0
    1.5781   -0.6046    0.0000 C   0  0  0  0  0  0  0  0  0  0  0  0
   -3.5843    2.0556    0.0000 C   0  0  0  0  0  0  0  0  0  0  0  0
   -3.2145    3.4358    0.0000 C   0  0  0  0  0  0  0  0  0  0  0  0
    0.8636   -1.8421    0.0000 C   0  0  0  0  0  0  0  0  0  0  0  0
    2.2925   -1.0171    0.0000 C   0  0  0  0  0  0  0  0  0  0  0  0
    3.0070   -0.6046    0.0000 C   0  0  0  0  0  0  0  0  0  0  0  0
  1 13  1  0  0  0  0
  2 15  1  0  0  0  0
  3 15  1  0  0  0  0
  4 15  1  0  0  0  0
  5 12  1  0  0  0  0
  5 20  1  0  0  0  0
  6  7  1  0  0  0  0
  6 16  2  0  0  0  0
  7 18  1  0  0  0  0
  8 19  1  0  0  0  0
  8 21  1  0  0  0  0
  8 24  1  0  0  0  0
  9 11  1  0  0  0  0
  9 13  1  0  0  0  0
  9 14  2  0  0  0  0
 10 12  2  0  0  0  0
 10 14  1  0  0  0  0
 10 15  1  0  0  0  0
 11 16  1  0  0  0  0
 11 18  2  0  0  0  0
 12 17  1  0  0  0  0
 13 17  2  0  0  0  0
 16 19  1  0  0  0  0
 20 22  1  0  0  0  0
 20 23  1  0  0  0  0
 21 25  1  0  0  0  0
 25 26  1  0  0  0  0
M  END
> <PUBCHEM_COMPOUND_ID_TYPE>
0

> <PUBCHEM_TOTAL_CHARGE>
0

> <PUBCHEM_SUBSTANCE_ID>
310947224

> <PUBCHEM_SUBSTANCE_VERSION>
1

> <PUBCHEM_EXT_DATASOURCE_NAME>
4488

> <PUBCHEM_EXT_DATASOURCE_REGID>
SCHEMBL16125379

> <PUBCHEM_SUBSTANCE_COMMENT>
InChI=1S/C18H23ClF3N3O/c1-5-6-25(4)10-16-13(9-23-24-16)12-7-14(18(20,21)22)17(8-15(12)19)26-11(2)3/h7-9,11H,5-6,10H2,1-4H3,(H,23,24)
InChIKey=RESLSSDXYZDZEH-UHFFFAOYSA-N

> <PUBCHEM_SUBSTANCE_SYNONYM>
SCHEMBL16125379

> <PUBCHEM_XREF_EXT_ID>
SCHEMBL16125379

> <PUBCHEM_EXT_DATASOURCE_URL>
https://www.surechembl.org/

> <PUBCHEM_EXT_SUBSTANCE_URL>
https://www.surechembl.org/chemical/SCHEMBL16125379

> <PUBCHEM_CID_ASSOCIATIONS>
117613039  1

> <PUBCHEM_COORDINATE_TYPE>
1
3

$$$$
