310931687
  -OEChem-07211613022D

 21 22  0     1  0  0  0  0  0999 V2000
    1.5321   -7.8570    0.0000 F   0  0  0  0  0  0  0  0  0  0  0  0
    0.8250   -1.6499    0.0000 O   0  0  0  0  0  0  0  0  0  0  0  0
    2.9856   -4.5177    0.0000 O   0  0  0  0  0  0  0  0  0  0  0  0
    2.2785   -1.6499    0.0000 O   0  0  0  0  0  0  0  0  0  0  0  0
    1.5321   -2.8678    0.0000 N   0  0  0  0  0  0  0  0  0  0  0  0
    1.5321   -4.5177    0.0000 C   0  0  3  0  0  0  0  0  0  0  0  0
    2.2785   -4.1249    0.0000 C   0  0  3  0  0  0  0  0  0  0  0  0
    1.5321   -5.3427    0.0000 C   0  0  0  0  0  0  0  0  0  0  0  0
    2.2785   -3.2999    0.0000 C   0  0  0  0  0  0  0  0  0  0  0  0
    1.5321   -2.0428    0.0000 C   0  0  0  0  0  0  0  0  0  0  0  0
    0.8250   -4.1249    0.0000 C   0  0  0  0  0  0  0  0  0  0  0  0
    0.8250   -3.2999    0.0000 C   0  0  0  0  0  0  0  0  0  0  0  0
    2.2785   -5.7749    0.0000 C   0  0  0  0  0  0  0  0  0  0  0  0
    0.8250   -5.7749    0.0000 C   0  0  0  0  0  0  0  0  0  0  0  0
    0.8250   -0.8250    0.0000 C   0  0  0  0  0  0  0  0  0  0  0  0
    1.5321   -7.0320    0.0000 C   0  0  0  0  0  0  0  0  0  0  0  0
    2.2785   -6.5998    0.0000 C   0  0  0  0  0  0  0  0  0  0  0  0
    0.8250   -6.5998    0.0000 C   0  0  0  0  0  0  0  0  0  0  0  0
    1.6892   -0.8250    0.0000 C   0  0  0  0  0  0  0  0  0  0  0  0
    0.8250    0.0000    0.0000 C   0  0  0  0  0  0  0  0  0  0  0  0
    0.0000   -0.8250    0.0000 C   0  0  0  0  0  0  0  0  0  0  0  0
  1 16  1  0  0  0  0
  2 10  1  0  0  0  0
  2 15  1  0  0  0  0
  3  7  1  0  0  0  0
  4 10  2  0  0  0  0
  5  9  1  0  0  0  0
  5 10  1  0  0  0  0
  5 12  1  0  0  0  0
  6  7  1  0  0  0  0
  6  8  1  0  0  0  0
  6 11  1  0  0  0  0
  7  9  1  0  0  0  0
  8 13  2  0  0  0  0
  8 14  1  0  0  0  0
 11 12  1  0  0  0  0
 13 17  1  0  0  0  0
 14 18  2  0  0  0  0
 15 19  1  0  0  0  0
 15 20  1  0  0  0  0
 15 21  1  0  0  0  0
 16 17  2  0  0  0  0
 16 18  1  0  0  0  0
M  END
> <PUBCHEM_COMPOUND_ID_TYPE>
0

> <PUBCHEM_TOTAL_CHARGE>
0

> <PUBCHEM_SUBSTANCE_ID>
310931687

> <PUBCHEM_SUBSTANCE_VERSION>
1

> <PUBCHEM_EXT_DATASOURCE_NAME>
4488

> <PUBCHEM_EXT_DATASOURCE_REGID>
SCHEMBL16109014

> <PUBCHEM_SUBSTANCE_COMMENT>
InChI=1S/C16H22FNO3/c1-16(2,3)21-15(20)18-9-8-13(14(19)10-18)11-4-6-12(17)7-5-11/h4-7,13-14,19H,8-10H2,1-3H3
InChIKey=FXCYIHBYSVDOEV-UHFFFAOYSA-N

> <PUBCHEM_SUBSTANCE_SYNONYM>
SCHEMBL16109014

> <PUBCHEM_XREF_EXT_ID>
SCHEMBL16109014

> <PUBCHEM_EXT_DATASOURCE_URL>
https://www.surechembl.org/

> <PUBCHEM_EXT_SUBSTANCE_URL>
https://www.surechembl.org/chemical/SCHEMBL16109014

> <PUBCHEM_CID_ASSOCIATIONS>
45074236  1

> <PUBCHEM_COORDINATE_TYPE>
1
3

$$$$
