310949532
  -OEChem-07211613022D

 26 26  0     1  0  0  0  0  0999 V2000
   -5.0507   -1.2610    0.0000 O   0  0  0  0  0  0  0  0  0  0  0  0
   -5.0507    0.3603    0.0000 O   0  0  0  0  0  0  0  0  0  0  0  0
   -2.1962   -1.2610    0.0000 O   0  0  0  0  0  0  0  0  0  0  0  0
   -2.8890    0.0277    0.0000 C   0  0  3  0  0  0  0  0  0  0  0  0
   -3.5957    0.4295    0.0000 C   0  0  3  0  0  0  0  0  0  0  0  0
   -4.2885    0.0139    0.0000 C   0  0  0  0  0  0  0  0  0  0  0  0
   -4.3162   -0.7898    0.0000 C   0  0  0  0  0  0  0  0  0  0  0  0
   -2.8890   -0.7898    0.0000 C   0  0  3  0  0  0  0  0  0  0  0  0
   -3.5957   -1.1916    0.0000 C   0  0  0  0  0  0  0  0  0  0  0  0
   -2.1824    0.4295    0.0000 C   0  0  0  0  0  0  0  0  0  0  0  0
   -3.5957    1.2610    0.0000 C   0  0  0  0  0  0  0  0  0  0  0  0
   -1.4480    0.0277    0.0000 C   0  0  0  0  0  0  0  0  0  0  0  0
   -0.7275    0.4295    0.0000 C   0  0  0  0  0  0  0  0  0  0  0  0
   -5.7711   -0.8175    0.0000 C   0  0  0  0  0  0  0  0  0  0  0  0
   -0.0069    0.0277    0.0000 C   0  0  0  0  0  0  0  0  0  0  0  0
   -0.7275    1.2610    0.0000 C   0  0  0  0  0  0  0  0  0  0  0  0
    0.6997    0.4295    0.0000 C   0  0  0  0  0  0  0  0  0  0  0  0
    1.4342    0.0277    0.0000 C   0  0  0  0  0  0  0  0  0  0  0  0
    2.1408    0.4295    0.0000 C   0  0  0  0  0  0  0  0  0  0  0  0
    2.8752    0.0277    0.0000 C   0  0  0  0  0  0  0  0  0  0  0  0
    3.5680    0.4295    0.0000 C   0  0  0  0  0  0  0  0  0  0  0  0
    2.1547    1.2610    0.0000 C   0  0  0  0  0  0  0  0  0  0  0  0
    4.3162    0.0277    0.0000 C   0  0  0  0  0  0  0  0  0  0  0  0
    5.0229    0.4295    0.0000 C   0  0  0  0  0  0  0  0  0  0  0  0
    5.0229    1.2610    0.0000 C   0  0  0  0  0  0  0  0  0  0  0  0
    5.7711    0.0277    0.0000 C   0  0  0  0  0  0  0  0  0  0  0  0
  1  7  1  0  0  0  0
  1 14  1  0  0  0  0
  2  6  2  0  0  0  0
  3  8  1  0  0  0  0
  4  5  1  0  0  0  0
  4  8  1  0  0  0  0
  4 10  1  0  0  0  0
  5  6  1  0  0  0  0
  5 11  1  0  0  0  0
  6  7  1  0  0  0  0
  7  9  2  0  0  0  0
  8  9  1  0  0  0  0
 10 12  1  0  0  0  0
 12 13  2  0  0  0  0
 13 15  1  0  0  0  0
 13 16  1  0  0  0  0
 15 17  1  0  0  0  0
 17 18  1  0  0  0  0
 18 19  2  0  0  0  0
 19 20  1  0  0  0  0
 19 22  1  0  0  0  0
 20 21  1  0  0  0  0
 21 23  1  0  0  0  0
 23 24  2  0  0  0  0
 24 25  1  0  0  0  0
 24 26  1  0  0  0  0
M  END
> <PUBCHEM_COMPOUND_ID_TYPE>
0

> <PUBCHEM_TOTAL_CHARGE>
0

> <PUBCHEM_SUBSTANCE_ID>
310949532

> <PUBCHEM_SUBSTANCE_VERSION>
1

> <PUBCHEM_EXT_DATASOURCE_NAME>
4488

> <PUBCHEM_EXT_DATASOURCE_REGID>
SCHEMBL16127727

> <PUBCHEM_SUBSTANCE_COMMENT>
InChI=1S/C23H36O3/c1-16(2)9-7-10-17(3)11-8-12-18(4)13-14-20-19(5)23(25)22(26-6)15-21(20)24/h9,11,13,15,19-21,24H,7-8,10,12,14H2,1-6H3/b17-11+,18-13+
InChIKey=NLYIKAPLHGYMBC-OUBUNXTGSA-N

> <PUBCHEM_SUBSTANCE_SYNONYM>
SCHEMBL16127727

> <PUBCHEM_XREF_EXT_ID>
SCHEMBL16127727

> <PUBCHEM_EXT_DATASOURCE_URL>
https://www.surechembl.org/

> <PUBCHEM_EXT_SUBSTANCE_URL>
https://www.surechembl.org/chemical/SCHEMBL16127727

> <PUBCHEM_CID_ASSOCIATIONS>
78320124  1

> <PUBCHEM_COORDINATE_TYPE>
1
3

$$$$
