310936365
  -OEChem-07211613022D

 20 22  0     1  0  0  0  0  0999 V2000
    1.5152    0.0045    0.0000 S   0  0  0  0  0  0  0  0  0  0  0  0
    4.3756    0.7199    0.0000 F   0  0  0  0  0  0  0  0  0  0  0  0
    3.8907    1.3874    0.0000 F   0  0  0  0  0  0  0  0  0  0  0  0
    4.0400   -0.0338    0.0000 F   0  0  0  0  0  0  0  0  0  0  0  0
   -2.2875    1.1266    0.0000 O   0  0  0  0  0  0  0  0  0  0  0  0
   -2.2875   -0.3024    0.0000 O   0  0  0  0  0  0  0  0  0  0  0  0
   -1.0500    0.4121    0.0000 N   0  0  0  0  0  0  0  0  0  0  0  0
    0.7144    1.2375    0.0000 N   0  0  0  0  0  0  0  0  0  0  0  0
    2.1826    1.1605    0.0000 N   0  0  0  0  0  0  0  0  0  0  0  0
   -0.7144    1.2375    0.0000 C   0  0  3  0  0  0  0  0  0  0  0  0
    0.0000    0.8250    0.0000 C   0  0  3  0  0  0  0  0  0  0  0  0
   -0.7144   -0.4125    0.0000 C   0  0  3  0  0  0  0  0  0  0  0  0
    0.0000    0.0000    0.0000 C   0  0  0  0  0  0  0  0  0  0  0  0
    1.4290    0.8250    0.0000 C   0  0  0  0  0  0  0  0  0  0  0  0
    2.7346    0.5474    0.0000 C   0  0  0  0  0  0  0  0  0  0  0  0
   -1.4290    0.8250    0.0000 C   0  0  0  0  0  0  0  0  0  0  0  0
   -1.4290    0.0000    0.0000 C   0  0  0  0  0  0  0  0  0  0  0  0
    3.5551    0.6337    0.0000 C   0  0  0  0  0  0  0  0  0  0  0  0
   -1.8750    0.4121    0.0000 C   0  0  0  0  0  0  0  0  0  0  0  0
    2.3221   -0.1670    0.0000 C   0  0  0  0  0  0  0  0  0  0  0  0
  1 14  1  0  0  0  0
  1 20  1  0  0  0  0
  2 18  1  0  0  0  0
  3 18  1  0  0  0  0
  4 18  1  0  0  0  0
  5 19  2  0  0  0  0
  6 19  1  0  0  0  0
  7 10  1  0  0  0  0
  7 12  1  0  0  0  0
  7 19  1  0  0  0  0
  8 11  1  0  0  0  0
  8 14  1  0  0  0  0
  9 14  2  0  0  0  0
  9 15  1  0  0  0  0
 10 11  1  0  0  0  0
 10 16  1  0  0  0  0
 11 13  1  0  0  0  0
 12 13  1  0  0  0  0
 12 17  1  0  0  0  0
 15 18  1  0  0  0  0
 15 20  2  0  0  0  0
 16 17  1  0  0  0  0
M  END
> <PUBCHEM_COMPOUND_ID_TYPE>
0

> <PUBCHEM_TOTAL_CHARGE>
0

> <PUBCHEM_SUBSTANCE_ID>
310936365

> <PUBCHEM_SUBSTANCE_VERSION>
1

> <PUBCHEM_EXT_DATASOURCE_NAME>
4488

> <PUBCHEM_EXT_DATASOURCE_REGID>
SCHEMBL16113999

> <PUBCHEM_SUBSTANCE_COMMENT>
InChI=1S/C11H12F3N3O2S/c12-11(13,14)8-4-20-9(16-8)15-6-3-5-1-2-7(6)17(5)10(18)19/h4-7H,1-3H2,(H,15,16)(H,18,19)
InChIKey=XLFYLVXXQVAUPR-UHFFFAOYSA-N

> <PUBCHEM_SUBSTANCE_SYNONYM>
SCHEMBL16113999

> <PUBCHEM_XREF_EXT_ID>
SCHEMBL16113999

> <PUBCHEM_EXT_DATASOURCE_URL>
https://www.surechembl.org/

> <PUBCHEM_EXT_SUBSTANCE_URL>
https://www.surechembl.org/chemical/SCHEMBL16113999

> <PUBCHEM_CID_ASSOCIATIONS>
117604307  1

> <PUBCHEM_COORDINATE_TYPE>
1
3

$$$$
