310931559
  -OEChem-07211613022D

 38 41  0     1  0  0  0  0  0999 V2000
    5.7726   -6.9856    0.0000 S   0  0  0  0  0  0  0  0  0  0  0  0
    5.7726   -5.3124    0.0000 F   0  0  0  0  0  0  0  0  0  0  0  0
    2.9699   -6.9438    0.0000 F   0  0  0  0  0  0  0  0  0  0  0  0
    1.5059   -7.7804    0.0000 F   0  0  0  0  0  0  0  0  0  0  0  0
    5.3542   -7.6549    0.0000 O   0  0  0  0  0  0  0  0  0  0  0  0
    6.1909   -6.2745    0.0000 O   0  0  0  0  0  0  0  0  0  0  0  0
    2.9281   -5.3124    0.0000 O   0  0  0  0  0  0  0  0  0  0  0  0
    0.8366   -1.6313    0.0000 O   0  0  0  0  0  0  0  0  0  0  0  0
    2.2170   -1.6313    0.0000 O   0  0  0  0  0  0  0  0  0  0  0  0
    6.4837   -7.4040    0.0000 N   0  0  0  0  0  0  0  0  0  0  0  0
    6.5673   -8.1987    0.0000 N   0  0  0  0  0  0  0  0  0  0  0  0
    1.5059   -2.8444    0.0000 N   0  0  0  0  0  0  0  0  0  0  0  0
    5.0615   -6.5673    0.0000 C   0  0  0  0  0  0  0  0  0  0  0  0
    5.0615   -5.7307    0.0000 C   0  0  0  0  0  0  0  0  0  0  0  0
    4.3503   -6.9438    0.0000 C   0  0  0  0  0  0  0  0  0  0  0  0
    3.6392   -5.7307    0.0000 C   0  0  0  0  0  0  0  0  0  0  0  0
    3.6392   -6.5255    0.0000 C   0  0  0  0  0  0  0  0  0  0  0  0
    4.3503   -5.3124    0.0000 C   0  0  0  0  0  0  0  0  0  0  0  0
    2.2589   -4.0575    0.0000 C   0  0  3  0  0  0  0  0  0  0  0  0
    1.5059   -4.4758    0.0000 C   0  0  3  0  0  0  0  0  0  0  0  0
    7.2367   -7.0693    0.0000 C   0  0  0  0  0  0  0  0  0  0  0  0
    2.9699   -4.4758    0.0000 C   0  0  0  0  0  0  0  0  0  0  0  0
    1.5059   -5.3124    0.0000 C   0  0  0  0  0  0  0  0  0  0  0  0
    2.2589   -3.2628    0.0000 C   0  0  0  0  0  0  0  0  0  0  0  0
    0.8366   -4.0575    0.0000 C   0  0  0  0  0  0  0  0  0  0  0  0
    7.3621   -8.3661    0.0000 C   0  0  0  0  0  0  0  0  0  0  0  0
    7.7804   -7.6549    0.0000 C   0  0  0  0  0  0  0  0  0  0  0  0
    0.8366   -3.2628    0.0000 C   0  0  0  0  0  0  0  0  0  0  0  0
    1.5059   -2.0079    0.0000 C   0  0  0  0  0  0  0  0  0  0  0  0
    2.2170   -5.7307    0.0000 C   0  0  0  0  0  0  0  0  0  0  0  0
    0.8366   -5.7307    0.0000 C   0  0  0  0  0  0  0  0  0  0  0  0
    0.8366   -0.7948    0.0000 C   0  0  0  0  0  0  0  0  0  0  0  0
    2.2170   -6.5255    0.0000 C   0  0  0  0  0  0  0  0  0  0  0  0
    0.8366   -6.5255    0.0000 C   0  0  0  0  0  0  0  0  0  0  0  0
    1.5059   -6.9438    0.0000 C   0  0  0  0  0  0  0  0  0  0  0  0
    1.6732   -0.7948    0.0000 C   0  0  0  0  0  0  0  0  0  0  0  0
    0.8366    0.0000    0.0000 C   0  0  0  0  0  0  0  0  0  0  0  0
    0.0000   -0.7948    0.0000 C   0  0  0  0  0  0  0  0  0  0  0  0
  1  5  2  0  0  0  0
  1  6  2  0  0  0  0
  1 10  1  0  0  0  0
  1 13  1  0  0  0  0
  2 14  1  0  0  0  0
  3 17  1  0  0  0  0
  4 35  1  0  0  0  0
  7 16  1  0  0  0  0
  7 22  1  0  0  0  0
  8 29  1  0  0  0  0
  8 32  1  0  0  0  0
  9 29  2  0  0  0  0
 10 11  1  0  0  0  0
 10 21  1  0  0  0  0
 11 26  2  0  0  0  0
 12 24  1  0  0  0  0
 12 28  1  0  0  0  0
 12 29  1  0  0  0  0
 13 14  1  0  0  0  0
 13 15  2  0  0  0  0
 14 18  2  0  0  0  0
 15 17  1  0  0  0  0
 16 17  2  0  0  0  0
 16 18  1  0  0  0  0
 19 20  1  0  0  0  0
 19 22  1  0  0  0  0
 19 24  1  0  0  0  0
 20 23  1  0  0  0  0
 20 25  1  0  0  0  0
 21 27  2  0  0  0  0
 23 30  2  0  0  0  0
 23 31  1  0  0  0  0
 25 28  1  0  0  0  0
 26 27  1  0  0  0  0
 30 33  1  0  0  0  0
 31 34  2  0  0  0  0
 32 36  1  0  0  0  0
 32 37  1  0  0  0  0
 32 38  1  0  0  0  0
 33 35  2  0  0  0  0
 34 35  1  0  0  0  0
M  END
> <PUBCHEM_COMPOUND_ID_TYPE>
0

> <PUBCHEM_TOTAL_CHARGE>
0

> <PUBCHEM_SUBSTANCE_ID>
310931559

> <PUBCHEM_SUBSTANCE_VERSION>
1

> <PUBCHEM_EXT_DATASOURCE_NAME>
4488

> <PUBCHEM_EXT_DATASOURCE_REGID>
SCHEMBL16108885

> <PUBCHEM_SUBSTANCE_COMMENT>
InChI=1S/C26H28F3N3O5S/c1-26(2,3)37-25(33)31-12-9-20(17-5-7-19(27)8-6-17)18(15-31)16-36-23-13-22(29)24(14-21(23)28)38(34,35)32-11-4-10-30-32/h4-8,10-11,13-14,18,20H,9,12,15-16H2,1-3H3
InChIKey=MFNYNJXOINARFL-UHFFFAOYSA-N

> <PUBCHEM_SUBSTANCE_SYNONYM>
SCHEMBL16108885

> <PUBCHEM_XREF_EXT_ID>
SCHEMBL16108885

> <PUBCHEM_EXT_DATASOURCE_URL>
https://www.surechembl.org/

> <PUBCHEM_EXT_SUBSTANCE_URL>
https://www.surechembl.org/chemical/SCHEMBL16108885

> <PUBCHEM_CID_ASSOCIATIONS>
117600306  1

> <PUBCHEM_COORDINATE_TYPE>
1
3

$$$$
