310939513
  -OEChem-07211613022D

 14 15  0     1  0  0  0  0  0999 V2000
   -0.1003    1.4981    0.0000 O   0  0  0  0  0  0  0  0  0  0  0  0
   -0.8148    0.2606    0.0000 O   0  0  0  0  0  0  0  0  0  0  0  0
    0.6142    0.2606    0.0000 C   0  0  3  0  0  0  0  0  0  0  0  0
    1.3286   -0.1519    0.0000 C   0  0  0  0  0  0  0  0  0  0  0  0
    0.6142    1.0856    0.0000 C   0  0  0  0  0  0  0  0  0  0  0  0
    2.0431    0.2606    0.0000 C   0  0  3  0  0  0  0  0  0  0  0  0
   -0.1003    0.6731    0.0000 C   0  0  0  0  0  0  0  0  0  0  0  0
    0.4006   -0.5363    0.0000 C   0  0  0  0  0  0  0  0  0  0  0  0
    1.3286    1.4981    0.0000 C   0  0  3  0  0  0  0  0  0  0  0  0
    2.0431    1.0856    0.0000 C   0  0  0  0  0  0  0  0  0  0  0  0
    2.2566   -0.5363    0.0000 C   0  0  0  0  0  0  0  0  0  0  0  0
    1.1975   -0.3228    0.0000 C   0  0  0  0  0  0  0  0  0  0  0  0
    1.5422    0.7012    0.0000 C   0  0  0  0  0  0  0  0  0  0  0  0
    1.5422   -0.1238    0.0000 C   0  0  0  0  0  0  0  0  0  0  0  0
  1  7  2  0  0  0  0
  2  7  1  0  0  0  0
  3  4  1  0  0  0  0
  3  5  1  0  0  0  0
  3  7  1  0  0  0  0
  3  8  1  0  0  0  0
  4  6  1  0  0  0  0
  5  9  1  0  0  0  0
  6 10  1  0  0  0  0
  6 11  1  0  0  0  0
  8 12  1  0  0  0  0
  9 10  1  0  0  0  0
  9 13  1  0  0  0  0
 11 12  1  0  0  0  0
 13 14  1  0  0  0  0
M  END
> <PUBCHEM_COMPOUND_ID_TYPE>
0

> <PUBCHEM_TOTAL_CHARGE>
0

> <PUBCHEM_SUBSTANCE_ID>
310939513

> <PUBCHEM_SUBSTANCE_VERSION>
1

> <PUBCHEM_EXT_DATASOURCE_NAME>
4488

> <PUBCHEM_EXT_DATASOURCE_REGID>
SCHEMBL16117442

> <PUBCHEM_SUBSTANCE_COMMENT>
InChI=1S/C12H20O2/c1-2-9-6-10-4-3-5-12(7-9,8-10)11(13)14/h9-10H,2-8H2,1H3,(H,13,14)
InChIKey=OAYCLUGPGISGLE-UHFFFAOYSA-N

> <PUBCHEM_SUBSTANCE_SYNONYM>
SCHEMBL16117442

> <PUBCHEM_XREF_EXT_ID>
SCHEMBL16117442

> <PUBCHEM_EXT_DATASOURCE_URL>
https://www.surechembl.org/

> <PUBCHEM_EXT_SUBSTANCE_URL>
https://www.surechembl.org/chemical/SCHEMBL16117442

> <PUBCHEM_CID_ASSOCIATIONS>
117606812  1

> <PUBCHEM_COORDINATE_TYPE>
1
3

$$$$
