310931577
  -OEChem-07211613022D

 29 31  0     1  0  0  0  0  0999 V2000
    4.0737   -2.7515    0.0000 O   0  0  0  0  0  0  0  0  0  0  0  0
    8.5762   -2.8230    0.0000 O   0  0  0  0  0  0  0  0  0  0  0  0
   10.0056   -4.4668    0.0000 O   0  0  0  0  0  0  0  0  0  0  0  0
    4.9671   -1.5723    0.0000 N   0  0  0  0  0  0  0  0  0  0  0  0
    4.8956   -0.7504    0.0000 N   0  0  0  0  0  0  0  0  0  0  0  0
    6.3964   -1.5723    0.0000 N   0  0  0  0  0  0  0  0  0  0  0  0
    7.8615   -4.0737    0.0000 N   0  0  0  0  0  0  0  0  0  0  0  0
    0.0000   -2.4299    0.0000 N   0  0  0  0  0  0  0  0  0  0  0  0
    3.6449   -1.3222    0.0000 C   0  0  0  0  0  0  0  0  0  0  0  0
    4.2166   -1.9296    0.0000 C   0  0  0  0  0  0  0  0  0  0  0  0
    2.8230   -1.3936    0.0000 C   0  0  0  0  0  0  0  0  0  0  0  0
    5.6818   -2.0011    0.0000 C   0  0  0  0  0  0  0  0  0  0  0  0
    4.0737   -0.6075    0.0000 C   0  0  0  0  0  0  0  0  0  0  0  0
    2.3227   -0.7504    0.0000 C   0  0  0  0  0  0  0  0  0  0  0  0
    5.6818   -2.8230    0.0000 C   0  0  0  0  0  0  0  0  0  0  0  0
    2.5014   -2.1798    0.0000 C   0  0  0  0  0  0  0  0  0  0  0  0
    7.1111   -2.8230    0.0000 C   0  0  0  0  0  0  0  0  0  0  0  0
    1.5008   -0.8576    0.0000 C   0  0  0  0  0  0  0  0  0  0  0  0
    7.1111   -2.0011    0.0000 C   0  0  0  0  0  0  0  0  0  0  0  0
    6.3964   -3.2161    0.0000 C   0  0  0  0  0  0  0  0  0  0  0  0
    1.1793   -1.6081    0.0000 C   0  0  0  0  0  0  0  0  0  0  0  0
    1.6795   -2.2513    0.0000 C   0  0  0  0  0  0  0  0  0  0  0  0
    7.8615   -3.2161    0.0000 C   0  0  0  0  0  0  0  0  0  0  0  0
    2.6443    0.0000    0.0000 C   0  0  0  0  0  0  0  0  0  0  0  0
    0.3574   -1.6795    0.0000 C   0  0  0  0  0  0  0  0  0  0  0  0
    8.5762   -4.5025    0.0000 C   0  0  3  0  0  0  0  0  0  0  0  0
    9.2909   -4.0737    0.0000 C   0  0  0  0  0  0  0  0  0  0  0  0
    8.5762   -5.2887    0.0000 C   0  0  0  0  0  0  0  0  0  0  0  0
   10.7203   -4.0737    0.0000 C   0  0  0  0  0  0  0  0  0  0  0  0
  1 10  1  0  0  0  0
  2 23  2  0  0  0  0
  3 27  1  0  0  0  0
  3 29  1  0  0  0  0
  4  5  1  0  0  0  0
  4 10  1  0  0  0  0
  4 12  1  0  0  0  0
  5 13  2  0  0  0  0
  6 12  2  0  0  0  0
  6 19  1  0  0  0  0
  7 23  1  0  0  0  0
  7 26  1  0  0  0  0
  8 25  3  0  0  0  0
  9 10  2  0  0  0  0
  9 11  1  0  0  0  0
  9 13  1  0  0  0  0
 11 14  1  0  0  0  0
 11 16  2  0  0  0  0
 12 15  1  0  0  0  0
 14 18  2  0  0  0  0
 14 24  1  0  0  0  0
 15 20  2  0  0  0  0
 16 22  1  0  0  0  0
 17 19  2  0  0  0  0
 17 20  1  0  0  0  0
 17 23  1  0  0  0  0
 18 21  1  0  0  0  0
 21 22  2  0  0  0  0
 21 25  1  0  0  0  0
 26 27  1  0  0  0  0
 26 28  1  0  0  0  0
M  END
> <PUBCHEM_COMPOUND_ID_TYPE>
0

> <PUBCHEM_TOTAL_CHARGE>
0

> <PUBCHEM_SUBSTANCE_ID>
310931577

> <PUBCHEM_SUBSTANCE_VERSION>
1

> <PUBCHEM_EXT_DATASOURCE_NAME>
4488

> <PUBCHEM_EXT_DATASOURCE_REGID>
SCHEMBL16108903

> <PUBCHEM_SUBSTANCE_COMMENT>
InChI=1S/C21H21N5O3/c1-13-8-15(9-22)4-6-17(13)18-11-24-26(21(18)28)19-7-5-16(10-23-19)20(27)25-14(2)12-29-3/h4-8,10-11,14,28H,12H2,1-3H3,(H,25,27)
InChIKey=UGGBXLXTDFSQCQ-UHFFFAOYSA-N

> <PUBCHEM_SUBSTANCE_SYNONYM>
SCHEMBL16108903

> <PUBCHEM_XREF_EXT_ID>
SCHEMBL16108903

> <PUBCHEM_EXT_DATASOURCE_URL>
https://www.surechembl.org/

> <PUBCHEM_EXT_SUBSTANCE_URL>
https://www.surechembl.org/chemical/SCHEMBL16108903

> <PUBCHEM_CID_ASSOCIATIONS>
117600319  1

> <PUBCHEM_COORDINATE_TYPE>
1
3

$$$$
