310934363
  -OEChem-07211613022D

 14 14  0     1  0  0  0  0  0999 V2000
    3.3317    0.0000    0.0000 Br  0  0  0  0  0  0  0  0  0  0  0  0
    2.4750   -2.2529    0.0000 Br  0  0  0  0  0  0  0  0  0  0  0  0
    0.8567   -2.2529    0.0000 Br  0  0  0  0  0  0  0  0  0  0  0  0
    4.7597   -0.8250    0.0000 Br  0  0  0  0  0  0  0  0  0  0  0  0
    2.5067   -0.8250    0.0000 C   0  0  3  0  0  0  0  0  0  0  0  0
    3.3317   -0.8250    0.0000 C   0  0  3  0  0  0  0  0  0  0  0  0
    2.0625   -1.5389    0.0000 C   0  0  3  0  0  0  0  0  0  0  0  0
    1.2692   -1.5389    0.0000 C   0  0  3  0  0  0  0  0  0  0  0  0
    0.8250   -0.8250    0.0000 C   0  0  3  0  0  0  0  0  0  0  0  0
    2.0625   -0.1269    0.0000 C   0  0  0  0  0  0  0  0  0  0  0  0
    1.2692   -0.1269    0.0000 C   0  0  0  0  0  0  0  0  0  0  0  0
    4.0457   -0.4125    0.0000 C   0  0  0  0  0  0  0  0  0  0  0  0
    3.3317   -1.6500    0.0000 C   0  0  0  0  0  0  0  0  0  0  0  0
    0.0000   -0.8250    0.0000 C   0  0  0  0  0  0  0  0  0  0  0  0
  1  6  1  0  0  0  0
  2  7  1  0  0  0  0
  3  8  1  0  0  0  0
  4 12  1  0  0  0  0
  5  6  1  0  0  0  0
  5  7  1  0  0  0  0
  5 10  1  0  0  0  0
  6 12  1  0  0  0  0
  6 13  1  0  0  0  0
  7  8  1  0  0  0  0
  8  9  1  0  0  0  0
  9 11  1  0  0  0  0
  9 14  1  0  0  0  0
 10 11  1  0  0  0  0
M  END
> <PUBCHEM_COMPOUND_ID_TYPE>
0

> <PUBCHEM_TOTAL_CHARGE>
0

> <PUBCHEM_SUBSTANCE_ID>
310934363

> <PUBCHEM_SUBSTANCE_VERSION>
1

> <PUBCHEM_EXT_DATASOURCE_NAME>
4488

> <PUBCHEM_EXT_DATASOURCE_REGID>
SCHEMBL16111831

> <PUBCHEM_SUBSTANCE_COMMENT>
InChI=1S/C10H16Br4/c1-6-3-4-7(9(13)8(6)12)10(2,14)5-11/h6-9H,3-5H2,1-2H3
InChIKey=QGDQNXGBHMPCRG-UHFFFAOYSA-N

> <PUBCHEM_SUBSTANCE_SYNONYM>
SCHEMBL16111831

> <PUBCHEM_XREF_EXT_ID>
SCHEMBL16111831

> <PUBCHEM_EXT_DATASOURCE_URL>
https://www.surechembl.org/

> <PUBCHEM_EXT_SUBSTANCE_URL>
https://www.surechembl.org/chemical/SCHEMBL16111831

> <PUBCHEM_CID_ASSOCIATIONS>
117602592  1

> <PUBCHEM_COORDINATE_TYPE>
1
3

$$$$
