310948974
  -OEChem-07211613022D

 10  9  0     1  0  0  0  0  0999 V2000
    0.3260   -0.2202    0.0000 O   0  0  0  0  0  0  0  0  0  0  0  0
   -1.8768    0.0617    0.0000 C   0  0  3  0  0  0  0  0  0  0  0  0
   -1.4185   -0.2026    0.0000 C   0  0  0  0  0  0  0  0  0  0  0  0
    0.9780    0.0617    0.0000 C   0  0  0  0  0  0  0  0  0  0  0  0
   -0.5551    0.3084    0.0000 C   0  0  0  0  0  0  0  0  0  0  0  0
   -1.8768   -0.4669    0.0000 C   0  0  0  0  0  0  0  0  0  0  0  0
   -1.6476    0.8370    0.0000 C   0  0  0  0  0  0  0  0  0  0  0  0
    0.6961    0.8370    0.0000 C   0  0  0  0  0  0  0  0  0  0  0  0
    0.7137   -1.2247    0.0000 C   0  0  0  0  0  0  0  0  0  0  0  0
   -1.5948   -1.2600    0.0000 C   0  0  0  0  0  0  0  0  0  0  0  0
  1  4  1  0  0  0  0
  1  5  1  0  0  0  0
  2  3  1  0  0  0  0
  2  6  1  0  0  0  0
  2  7  1  0  0  0  0
  3  5  1  0  0  0  0
  4  8  1  0  0  0  0
  4  9  1  0  0  0  0
  6 10  1  0  0  0  0
M  END
> <PUBCHEM_COMPOUND_ID_TYPE>
0

> <PUBCHEM_TOTAL_CHARGE>
0

> <PUBCHEM_SUBSTANCE_ID>
310948974

> <PUBCHEM_SUBSTANCE_VERSION>
1

> <PUBCHEM_EXT_DATASOURCE_NAME>
4488

> <PUBCHEM_EXT_DATASOURCE_REGID>
SCHEMBL16127162

> <PUBCHEM_SUBSTANCE_COMMENT>
InChI=1S/C9H20O/c1-5-9(4)6-7-10-8(2)3/h8-9H,5-7H2,1-4H3
InChIKey=IPMOKGAWSAPPSI-UHFFFAOYSA-N

> <PUBCHEM_SUBSTANCE_SYNONYM>
SCHEMBL16127162

> <PUBCHEM_XREF_EXT_ID>
SCHEMBL16127162

> <PUBCHEM_EXT_DATASOURCE_URL>
https://www.surechembl.org/

> <PUBCHEM_EXT_SUBSTANCE_URL>
https://www.surechembl.org/chemical/SCHEMBL16127162

> <PUBCHEM_CID_ASSOCIATIONS>
117614483  1

> <PUBCHEM_COORDINATE_TYPE>
1
3

$$$$
