310936207
  -OEChem-07211613022D

 34 37  0     1  0  0  0  0  0999 V2000
   -5.7158    0.8250    0.0000 O   0  0  0  0  0  0  0  0  0  0  0  0
   -8.5736    0.8250    0.0000 O   0  0  0  0  0  0  0  0  0  0  0  0
   -6.4302    2.0625    0.0000 O   0  0  0  0  0  0  0  0  0  0  0  0
  -10.0026    1.6500    0.0000 O   0  0  0  0  0  0  0  0  0  0  0  0
   -9.2881   -0.4125    0.0000 O   0  0  0  0  0  0  0  0  0  0  0  0
   -4.2868   -0.8250    0.0000 C   0  0  0  0  0  0  0  0  0  0  0  0
   -4.2868   -1.6500    0.0000 C   0  0  0  0  0  0  0  0  0  0  0  0
   -5.7158   -0.8250    0.0000 C   0  0  0  0  0  0  0  0  0  0  0  0
   -5.0013   -0.4125    0.0000 C   0  0  0  0  0  0  0  0  0  0  0  0
   -6.4302    0.4125    0.0000 C   0  0  3  0  0  0  0  0  0  0  0  0
   -6.4302   -0.4125    0.0000 C   0  0  0  0  0  0  0  0  0  0  0  0
   -5.0013   -2.0625    0.0000 C   0  0  0  0  0  0  0  0  0  0  0  0
   -5.7158   -1.6500    0.0000 C   0  0  0  0  0  0  0  0  0  0  0  0
   -3.5724   -0.4125    0.0000 C   0  0  0  0  0  0  0  0  0  0  0  0
   -3.5724   -2.0625    0.0000 C   0  0  0  0  0  0  0  0  0  0  0  0
   -5.7158    1.6500    0.0000 C   0  0  0  0  0  0  0  0  0  0  0  0
  -10.0026    0.8250    0.0000 C   0  0  0  0  0  0  0  0  0  0  0  0
   -5.0013    2.0625    0.0000 C   0  0  0  0  0  0  0  0  0  0  0  0
  -10.7170    0.4125    0.0000 C   0  0  0  0  0  0  0  0  0  0  0  0
   -9.2881    0.4125    0.0000 C   0  0  0  0  0  0  0  0  0  0  0  0
   -7.1447    0.8250    0.0000 C   0  0  0  0  0  0  0  0  0  0  0  0
   -2.8579   -0.8250    0.0000 C   0  0  0  0  0  0  0  0  0  0  0  0
   -2.8579   -1.6500    0.0000 C   0  0  0  0  0  0  0  0  0  0  0  0
   -7.8592    0.4125    0.0000 C   0  0  0  0  0  0  0  0  0  0  0  0
   -4.2868    1.6500    0.0000 C   0  0  0  0  0  0  0  0  0  0  0  0
   -5.0013    2.8875    0.0000 C   0  0  0  0  0  0  0  0  0  0  0  0
  -11.4316    0.8250    0.0000 C   0  0  0  0  0  0  0  0  0  0  0  0
  -10.7170   -0.4125    0.0000 C   0  0  0  0  0  0  0  0  0  0  0  0
  -12.1460    0.4125    0.0000 C   0  0  0  0  0  0  0  0  0  0  0  0
  -11.4316   -0.8250    0.0000 C   0  0  0  0  0  0  0  0  0  0  0  0
   -3.5724    2.0625    0.0000 C   0  0  0  0  0  0  0  0  0  0  0  0
   -4.2868    3.3000    0.0000 C   0  0  0  0  0  0  0  0  0  0  0  0
  -12.1460   -0.4125    0.0000 C   0  0  0  0  0  0  0  0  0  0  0  0
   -3.5724    2.8875    0.0000 C   0  0  0  0  0  0  0  0  0  0  0  0
  1 10  1  0  0  0  0
  1 16  1  0  0  0  0
  2 20  1  0  0  0  0
  2 24  1  0  0  0  0
  3 16  2  0  0  0  0
  4 17  2  0  0  0  0
  5 20  2  0  0  0  0
  6  7  1  0  0  0  0
  6  9  2  0  0  0  0
  6 14  1  0  0  0  0
  7 12  2  0  0  0  0
  7 15  1  0  0  0  0
  8  9  1  0  0  0  0
  8 11  1  0  0  0  0
  8 13  2  0  0  0  0
 10 11  1  0  0  0  0
 10 21  1  0  0  0  0
 12 13  1  0  0  0  0
 14 22  2  0  0  0  0
 15 23  2  0  0  0  0
 16 18  1  0  0  0  0
 17 19  1  0  0  0  0
 17 20  1  0  0  0  0
 18 25  2  0  0  0  0
 18 26  1  0  0  0  0
 19 27  2  0  0  0  0
 19 28  1  0  0  0  0
 21 24  1  0  0  0  0
 22 23  1  0  0  0  0
 25 31  1  0  0  0  0
 26 32  2  0  0  0  0
 27 29  1  0  0  0  0
 28 30  2  0  0  0  0
 29 33  2  0  0  0  0
 30 33  1  0  0  0  0
 31 34  2  0  0  0  0
 32 34  1  0  0  0  0
M  END
> <PUBCHEM_COMPOUND_ID_TYPE>
0

> <PUBCHEM_TOTAL_CHARGE>
0

> <PUBCHEM_SUBSTANCE_ID>
310936207

> <PUBCHEM_SUBSTANCE_VERSION>
1

> <PUBCHEM_EXT_DATASOURCE_NAME>
4488

> <PUBCHEM_EXT_DATASOURCE_REGID>
SCHEMBL16113819

> <PUBCHEM_SUBSTANCE_COMMENT>
InChI=1S/C29H24O5/c30-27(23-10-3-1-4-11-23)29(32)33-18-17-26(34-28(31)24-12-5-2-6-13-24)20-21-15-16-22-9-7-8-14-25(22)19-21/h1-16,19,26H,17-18,20H2
InChIKey=BBJDRBBLNUPDRK-UHFFFAOYSA-N

> <PUBCHEM_SUBSTANCE_SYNONYM>
SCHEMBL16113819

> <PUBCHEM_XREF_EXT_ID>
SCHEMBL16113819

> <PUBCHEM_EXT_DATASOURCE_URL>
https://www.surechembl.org/

> <PUBCHEM_EXT_SUBSTANCE_URL>
https://www.surechembl.org/chemical/SCHEMBL16113819

> <PUBCHEM_CID_ASSOCIATIONS>
117604160  1

> <PUBCHEM_COORDINATE_TYPE>
1
3

$$$$
