310946156
  -OEChem-07211613022D

 51 61  0     1  0  0  0  0  0999 V2000
    2.0412   15.3218    0.0000 O   0  0  0  0  0  0  0  0  0  0  0  0
    1.0586   13.8228    0.0000 N   0  0  0  0  0  0  0  0  0  0  0  0
   -1.3984   12.2223    0.0000 C   0  0  3  0  0  0  0  0  0  0  0  0
   -0.5914   12.3938    0.0000 C   0  0  0  0  0  0  0  0  0  0  0  0
   -1.4846   11.4018    0.0000 C   0  0  0  0  0  0  0  0  0  0  0  0
   -1.3984   13.0473    0.0000 C   0  0  0  0  0  0  0  0  0  0  0  0
   -2.2234   12.2223    0.0000 C   0  0  0  0  0  0  0  0  0  0  0  0
   -0.1789   11.6793    0.0000 C   0  0  0  0  0  0  0  0  0  0  0  0
   -0.7309   11.0662    0.0000 C   0  0  0  0  0  0  0  0  0  0  0  0
   -2.1128   13.4598    0.0000 C   0  0  0  0  0  0  0  0  0  0  0  0
   -2.6359   12.9368    0.0000 C   0  0  0  0  0  0  0  0  0  0  0  0
   -0.1789   13.1083    0.0000 C   0  0  0  0  0  0  0  0  0  0  0  0
   -2.1520   10.9169    0.0000 C   0  0  0  0  0  0  0  0  0  0  0  0
   -0.6839   13.4598    0.0000 C   0  0  0  0  0  0  0  0  0  0  0  0
   -2.6359   11.5078    0.0000 C   0  0  0  0  0  0  0  0  0  0  0  0
    0.6461   13.1083    0.0000 C   0  0  0  0  0  0  0  0  0  0  0  0
    0.6461   11.6793    0.0000 C   0  0  0  0  0  0  0  0  0  0  0  0
   -0.6447   10.2458    0.0000 C   0  0  0  0  0  0  0  0  0  0  0  0
   -2.1128   14.2848    0.0000 C   0  0  0  0  0  0  0  0  0  0  0  0
   -3.4609   12.9368    0.0000 C   0  0  0  0  0  0  0  0  0  0  0  0
    1.0586   12.3938    0.0000 C   0  0  0  0  0  0  0  0  0  0  0  0
   -2.0658   10.0964    0.0000 C   0  0  0  0  0  0  0  0  0  0  0  0
   -0.6839   14.2848    0.0000 C   0  0  0  0  0  0  0  0  0  0  0  0
   -3.4609   11.5078    0.0000 C   0  0  0  0  0  0  0  0  0  0  0  0
   -1.3121    9.7608    0.0000 C   0  0  0  0  0  0  0  0  0  0  0  0
   -1.3984   14.6973    0.0000 C   0  0  0  0  0  0  0  0  0  0  0  0
   -3.8734   12.2223    0.0000 C   0  0  0  0  0  0  0  0  0  0  0  0
    1.8836   13.8228    0.0000 C   0  0  0  0  0  0  0  0  0  0  0  0
    0.6461   14.5372    0.0000 C   0  0  0  0  0  0  0  0  0  0  0  0
    2.2961   14.5372    0.0000 C   0  0  0  0  0  0  0  0  0  0  0  0
    3.1211   14.5372    0.0000 C   0  0  0  0  0  0  0  0  0  0  0  0
    3.3760   15.3218    0.0000 C   0  0  0  0  0  0  0  0  0  0  0  0
    2.2961   13.1083    0.0000 C   0  0  0  0  0  0  0  0  0  0  0  0
    2.7086   15.8068    0.0000 C   0  0  0  0  0  0  0  0  0  0  0  0
    1.0586   15.2517    0.0000 C   0  0  0  0  0  0  0  0  0  0  0  0
   -0.1789   14.5372    0.0000 C   0  0  0  0  0  0  0  0  0  0  0  0
    3.5336   13.8228    0.0000 C   0  0  0  0  0  0  0  0  0  0  0  0
    3.1211   13.1083    0.0000 C   0  0  0  0  0  0  0  0  0  0  0  0
    4.1297   15.6574    0.0000 C   0  0  0  0  0  0  0  0  0  0  0  0
    2.7948   16.6272    0.0000 C   0  0  0  0  0  0  0  0  0  0  0  0
    0.6461   15.9662    0.0000 C   0  0  0  0  0  0  0  0  0  0  0  0
   -0.5914   15.2517    0.0000 C   0  0  0  0  0  0  0  0  0  0  0  0
   -0.1789   15.9662    0.0000 C   0  0  0  0  0  0  0  0  0  0  0  0
    4.2160   16.4779    0.0000 C   0  0  0  0  0  0  0  0  0  0  0  0
    3.5485   16.9628    0.0000 C   0  0  0  0  0  0  0  0  0  0  0  0
   -0.5914   16.6806    0.0000 C   0  0  0  0  0  0  0  0  0  0  0  0
   -0.1789   17.3951    0.0000 C   0  0  0  0  0  0  0  0  0  0  0  0
   -1.4164   16.6806    0.0000 C   0  0  0  0  0  0  0  0  0  0  0  0
   -0.5914   18.1096    0.0000 C   0  0  0  0  0  0  0  0  0  0  0  0
   -1.8289   17.3951    0.0000 C   0  0  0  0  0  0  0  0  0  0  0  0
   -1.4164   18.1096    0.0000 C   0  0  0  0  0  0  0  0  0  0  0  0
  1 30  1  0  0  0  0
  1 34  1  0  0  0  0
  2 16  1  0  0  0  0
  2 28  1  0  0  0  0
  2 29  1  0  0  0  0
  3  4  1  0  0  0  0
  3  5  1  0  0  0  0
  3  6  1  0  0  0  0
  3  7  1  0  0  0  0
  4  8  2  0  0  0  0
  4 12  1  0  0  0  0
  5  9  2  0  0  0  0
  5 13  1  0  0  0  0
  6 10  1  0  0  0  0
  6 14  2  0  0  0  0
  7 11  2  0  0  0  0
  7 15  1  0  0  0  0
  8  9  1  0  0  0  0
  8 17  1  0  0  0  0
  9 18  1  0  0  0  0
 10 11  1  0  0  0  0
 10 19  2  0  0  0  0
 11 20  1  0  0  0  0
 12 16  2  0  0  0  0
 13 22  2  0  0  0  0
 14 23  1  0  0  0  0
 15 24  2  0  0  0  0
 16 21  1  0  0  0  0
 17 21  2  0  0  0  0
 18 25  2  0  0  0  0
 19 26  1  0  0  0  0
 20 27  2  0  0  0  0
 22 25  1  0  0  0  0
 23 26  2  0  0  0  0
 24 27  1  0  0  0  0
 28 30  1  0  0  0  0
 28 33  2  0  0  0  0
 29 35  2  0  0  0  0
 29 36  1  0  0  0  0
 30 31  2  0  0  0  0
 31 32  1  0  0  0  0
 31 37  1  0  0  0  0
 32 34  2  0  0  0  0
 32 39  1  0  0  0  0
 33 38  1  0  0  0  0
 34 40  1  0  0  0  0
 35 41  1  0  0  0  0
 36 42  2  0  0  0  0
 37 38  2  0  0  0  0
 39 44  2  0  0  0  0
 40 45  2  0  0  0  0
 41 43  2  0  0  0  0
 42 43  1  0  0  0  0
 43 46  1  0  0  0  0
 44 45  1  0  0  0  0
 46 47  2  0  0  0  0
 46 48  1  0  0  0  0
 47 49  1  0  0  0  0
 48 50  2  0  0  0  0
 49 51  2  0  0  0  0
 50 51  1  0  0  0  0
M  END
> <PUBCHEM_COMPOUND_ID_TYPE>
0

> <PUBCHEM_TOTAL_CHARGE>
0

> <PUBCHEM_SUBSTANCE_ID>
310946156

> <PUBCHEM_SUBSTANCE_VERSION>
1

> <PUBCHEM_EXT_DATASOURCE_NAME>
4488

> <PUBCHEM_EXT_DATASOURCE_REGID>
SCHEMBL16124265

> <PUBCHEM_SUBSTANCE_COMMENT>
InChI=1S/C49H31NO/c1-2-13-32(14-3-1)33-25-27-34(28-26-33)50(46-23-12-19-41-40-18-7-11-24-47(40)51-48(41)46)35-29-30-39-38-17-6-10-22-44(38)49(45(39)31-35)42-20-8-4-15-36(42)37-16-5-9-21-43(37)49/h1-31H
InChIKey=FYZVHXNCASPVIK-UHFFFAOYSA-N

> <PUBCHEM_SUBSTANCE_SYNONYM>
SCHEMBL16124265

> <PUBCHEM_XREF_EXT_ID>
SCHEMBL16124265

> <PUBCHEM_EXT_DATASOURCE_URL>
https://www.surechembl.org/

> <PUBCHEM_EXT_SUBSTANCE_URL>
https://www.surechembl.org/chemical/SCHEMBL16124265

> <PUBCHEM_CID_ASSOCIATIONS>
117612113  1

> <PUBCHEM_COORDINATE_TYPE>
1
3

$$$$
