310946071
  -OEChem-07211613022D

 11 10  0     1  0  0  0  0  0999 V2000
   -0.0654    0.2780    0.0000 N   0  0  3  0  0  0  0  0  0  0  0  0
    2.0499    0.6815    0.0000 N   0  0  0  0  0  0  0  0  0  0  0  0
   -2.3662   -0.7032    0.0000 N   0  0  0  0  0  0  0  0  0  0  0  0
   -2.7805   -0.0054    0.0000 N   0  0  0  0  0  0  0  0  0  0  0  0
   -0.7742    0.7032    0.0000 C   0  0  0  0  0  0  0  0  0  0  0  0
    0.6433    0.7032    0.0000 C   0  0  0  0  0  0  0  0  0  0  0  0
   -1.4720    0.2889    0.0000 C   0  0  0  0  0  0  0  0  0  0  0  0
    1.3630    0.2998    0.0000 C   0  0  0  0  0  0  0  0  0  0  0  0
   -1.5811   -0.5288    0.0000 C   0  0  0  0  0  0  0  0  0  0  0  0
   -0.0545   -0.5397    0.0000 C   0  0  0  0  0  0  0  0  0  0  0  0
    2.7805    0.2780    0.0000 C   0  0  0  0  0  0  0  0  0  0  0  0
  1  5  1  0  0  0  0
  1  6  1  0  0  0  0
  1 10  1  0  0  0  0
  2  8  1  0  0  0  0
  2 11  1  0  0  0  0
  3  4  1  0  0  0  0
  3  9  1  0  0  0  0
  5  7  1  0  0  0  0
  6  8  1  0  0  0  0
  7  9  2  0  0  0  0
M  END
> <PUBCHEM_COMPOUND_ID_TYPE>
0

> <PUBCHEM_TOTAL_CHARGE>
0

> <PUBCHEM_SUBSTANCE_ID>
310946071

> <PUBCHEM_SUBSTANCE_VERSION>
1

> <PUBCHEM_EXT_DATASOURCE_NAME>
4488

> <PUBCHEM_EXT_DATASOURCE_REGID>
SCHEMBL16124178

> <PUBCHEM_SUBSTANCE_COMMENT>
InChI=1S/C7H18N4/c1-9-5-7-11(2)6-3-4-10-8/h3-4,9-10H,5-8H2,1-2H3/b4-3+
InChIKey=KTTAWXGLFNMJQL-ONEGZZNKSA-N

> <PUBCHEM_SUBSTANCE_SYNONYM>
SCHEMBL16124178

> <PUBCHEM_XREF_EXT_ID>
SCHEMBL16124178

> <PUBCHEM_EXT_DATASOURCE_URL>
https://www.surechembl.org/

> <PUBCHEM_EXT_SUBSTANCE_URL>
https://www.surechembl.org/chemical/SCHEMBL16124178

> <PUBCHEM_CID_ASSOCIATIONS>
117612042  1

> <PUBCHEM_COORDINATE_TYPE>
1
3

$$$$
