310949157
  -OEChem-07211613022D

 25 28  0     1  0  0  0  0  0999 V2000
    0.0072    1.1397    0.0000 N   0  0  0  0  0  0  0  0  0  0  0  0
    2.1560    0.6752    0.0000 N   0  0  0  0  0  0  0  0  0  0  0  0
   -2.1560    0.6461    0.0000 N   0  0  0  0  0  0  0  0  0  0  0  0
   -0.0363   -3.0272    0.0000 N   0  0  0  0  0  0  0  0  0  0  0  0
   -0.6752    1.6479    0.0000 C   0  0  0  0  0  0  0  0  0  0  0  0
    0.6896    1.6479    0.0000 C   0  0  0  0  0  0  0  0  0  0  0  0
    0.0072    0.3121    0.0000 C   0  0  0  0  0  0  0  0  0  0  0  0
    0.4283    2.4174    0.0000 C   0  0  0  0  0  0  0  0  0  0  0  0
   -0.4138    2.4319    0.0000 C   0  0  0  0  0  0  0  0  0  0  0  0
    0.7477   -0.0944    0.0000 C   0  0  0  0  0  0  0  0  0  0  0  0
   -0.7186   -0.0944    0.0000 C   0  0  3  0  0  0  0  0  0  0  0  0
   -1.4736    1.4736    0.0000 C   0  0  0  0  0  0  0  0  0  0  0  0
    1.5172    1.4882    0.0000 C   0  0  0  0  0  0  0  0  0  0  0  0
    1.0091    3.0272    0.0000 C   0  0  0  0  0  0  0  0  0  0  0  0
   -0.9800    3.0272    0.0000 C   0  0  0  0  0  0  0  0  0  0  0  0
    0.7186   -0.9365    0.0000 C   0  0  0  0  0  0  0  0  0  0  0  0
   -0.7186   -0.9365    0.0000 C   0  0  0  0  0  0  0  0  0  0  0  0
    0.0072   -1.3284    0.0000 C   0  0  0  0  0  0  0  0  0  0  0  0
   -2.0399    2.0980    0.0000 C   0  0  0  0  0  0  0  0  0  0  0  0
    2.0399    2.0690    0.0000 C   0  0  0  0  0  0  0  0  0  0  0  0
    1.7931    2.8530    0.0000 C   0  0  0  0  0  0  0  0  0  0  0  0
   -1.7641    2.8674    0.0000 C   0  0  0  0  0  0  0  0  0  0  0  0
    1.4446    0.2977    0.0000 C   0  0  0  0  0  0  0  0  0  0  0  0
   -1.4446    0.2977    0.0000 C   0  0  0  0  0  0  0  0  0  0  0  0
   -0.0218   -2.2141    0.0000 C   0  0  0  0  0  0  0  0  0  0  0  0
  1  5  1  0  0  0  0
  1  6  1  0  0  0  0
  1  7  1  0  0  0  0
  2 23  3  0  0  0  0
  3 24  3  0  0  0  0
  4 25  3  0  0  0  0
  5  9  2  0  0  0  0
  5 12  1  0  0  0  0
  6  8  2  0  0  0  0
  6 13  1  0  0  0  0
  7 10  2  0  0  0  0
  7 11  1  0  0  0  0
  8  9  1  0  0  0  0
  8 14  1  0  0  0  0
  9 15  1  0  0  0  0
 10 16  1  0  0  0  0
 10 23  1  0  0  0  0
 11 17  1  0  0  0  0
 11 24  1  0  0  0  0
 12 19  2  0  0  0  0
 13 20  2  0  0  0  0
 14 21  2  0  0  0  0
 15 22  2  0  0  0  0
 16 18  2  0  0  0  0
 17 18  1  0  0  0  0
 18 25  1  0  0  0  0
 19 22  1  0  0  0  0
 20 21  1  0  0  0  0
M  END
> <PUBCHEM_COMPOUND_ID_TYPE>
0

> <PUBCHEM_TOTAL_CHARGE>
0

> <PUBCHEM_SUBSTANCE_ID>
310949157

> <PUBCHEM_SUBSTANCE_VERSION>
1

> <PUBCHEM_EXT_DATASOURCE_NAME>
4488

> <PUBCHEM_EXT_DATASOURCE_REGID>
SCHEMBL16127347

> <PUBCHEM_SUBSTANCE_COMMENT>
InChI=1S/C21H12N4/c22-11-14-9-15(12-23)21(16(10-14)13-24)25-19-7-3-1-5-17(19)18-6-2-4-8-20(18)25/h1-9,16H,10H2
InChIKey=TYOHVBVVJXGJEU-UHFFFAOYSA-N

> <PUBCHEM_SUBSTANCE_SYNONYM>
SCHEMBL16127347

> <PUBCHEM_XREF_EXT_ID>
SCHEMBL16127347

> <PUBCHEM_EXT_DATASOURCE_URL>
https://www.surechembl.org/

> <PUBCHEM_EXT_SUBSTANCE_URL>
https://www.surechembl.org/chemical/SCHEMBL16127347

> <PUBCHEM_CID_ASSOCIATIONS>
117614651  1

> <PUBCHEM_COORDINATE_TYPE>
1
3

$$$$
