310947883
  -OEChem-07211613022D

 27 29  0     1  0  0  0  0  0999 V2000
    1.2952   12.3124    0.0000 F   0  0  0  0  0  0  0  0  0  0  0  0
    2.3348   11.7827    0.0000 F   0  0  0  0  0  0  0  0  0  0  0  0
    2.8644   12.8223    0.0000 F   0  0  0  0  0  0  0  0  0  0  0  0
   -2.4829   13.7935    0.0000 O   0  0  0  0  0  0  0  0  0  0  0  0
    0.3505   13.0386    0.0000 N   0  0  0  0  0  0  0  0  0  0  0  0
    2.3769   13.9651    0.0000 N   0  0  0  0  0  0  0  0  0  0  0  0
   -0.3640   10.9761    0.0000 N   0  0  0  0  0  0  0  0  0  0  0  0
    1.0179   13.5235    0.0000 C   0  0  0  0  0  0  0  0  0  0  0  0
    0.7630   14.3081    0.0000 C   0  0  0  0  0  0  0  0  0  0  0  0
   -0.3170   13.5235    0.0000 C   0  0  0  0  0  0  0  0  0  0  0  0
   -0.0620   14.3081    0.0000 C   0  0  0  0  0  0  0  0  0  0  0  0
    1.8249   13.3520    0.0000 C   0  0  0  0  0  0  0  0  0  0  0  0
    0.3505   12.2136    0.0000 C   0  0  3  0  0  0  0  0  0  0  0  0
    2.0798   12.5673    0.0000 C   0  0  0  0  0  0  0  0  0  0  0  0
    1.3150   14.9212    0.0000 C   0  0  0  0  0  0  0  0  0  0  0  0
   -1.1239   13.3520    0.0000 C   0  0  0  0  0  0  0  0  0  0  0  0
   -0.6141   14.9212    0.0000 C   0  0  0  0  0  0  0  0  0  0  0  0
    2.1220   14.7497    0.0000 C   0  0  0  0  0  0  0  0  0  0  0  0
   -1.6760   13.9651    0.0000 C   0  0  0  0  0  0  0  0  0  0  0  0
   -1.4210   14.7497    0.0000 C   0  0  0  0  0  0  0  0  0  0  0  0
   -0.3640   11.8011    0.0000 C   0  0  0  0  0  0  0  0  0  0  0  0
    1.0649   11.8011    0.0000 C   0  0  0  0  0  0  0  0  0  0  0  0
   -1.0695   10.5636    0.0000 C   0  0  0  0  0  0  0  0  0  0  0  0
   -1.0695    9.7386    0.0000 C   0  0  0  0  0  0  0  0  0  0  0  0
   -1.7851   10.9741    0.0000 C   0  0  0  0  0  0  0  0  0  0  0  0
   -2.4985   10.5597    0.0000 C   0  0  0  0  0  0  0  0  0  0  0  0
   -1.7840    9.3261    0.0000 C   0  0  0  0  0  0  0  0  0  0  0  0
  1 14  1  0  0  0  0
  2 14  1  0  0  0  0
  3 14  1  0  0  0  0
  4 19  1  0  0  0  0
  5  8  1  0  0  0  0
  5 10  1  0  0  0  0
  5 13  1  0  0  0  0
  6 12  2  0  0  0  0
  6 18  1  0  0  0  0
  7 21  1  0  0  0  0
  7 23  1  0  0  0  0
  8  9  2  0  0  0  0
  8 12  1  0  0  0  0
  9 11  1  0  0  0  0
  9 15  1  0  0  0  0
 10 11  2  0  0  0  0
 10 16  1  0  0  0  0
 11 17  1  0  0  0  0
 12 14  1  0  0  0  0
 13 21  1  0  0  0  0
 13 22  1  0  0  0  0
 15 18  2  0  0  0  0
 16 19  2  0  0  0  0
 17 20  2  0  0  0  0
 19 20  1  0  0  0  0
 23 24  1  0  0  0  0
 23 25  1  0  0  0  0
 24 27  1  0  0  0  0
 25 26  1  0  0  0  0
M  END
> <PUBCHEM_COMPOUND_ID_TYPE>
0

> <PUBCHEM_TOTAL_CHARGE>
0

> <PUBCHEM_SUBSTANCE_ID>
310947883

> <PUBCHEM_SUBSTANCE_VERSION>
1

> <PUBCHEM_EXT_DATASOURCE_NAME>
4488

> <PUBCHEM_EXT_DATASOURCE_REGID>
SCHEMBL16126057

> <PUBCHEM_SUBSTANCE_COMMENT>
InChI=1S/C20H24F3N3O/c1-4-13(5-2)25-11-12(3)26-17-10-14(27)6-7-15(17)16-8-9-24-19(18(16)26)20(21,22)23/h6-10,12-13,25,27H,4-5,11H2,1-3H3
InChIKey=TWWIXADZGWUJHN-UHFFFAOYSA-N

> <PUBCHEM_SUBSTANCE_SYNONYM>
SCHEMBL16126057

> <PUBCHEM_XREF_EXT_ID>
SCHEMBL16126057

> <PUBCHEM_EXT_DATASOURCE_URL>
https://www.surechembl.org/

> <PUBCHEM_EXT_SUBSTANCE_URL>
https://www.surechembl.org/chemical/SCHEMBL16126057

> <PUBCHEM_CID_ASSOCIATIONS>
117613547  1

> <PUBCHEM_COORDINATE_TYPE>
1
3

$$$$
