310941896
  -OEChem-07211613022D

 16 16  0     1  0  0  0  0  0999 V2000
   -0.0062    0.4187    0.0000 O   0  0  0  0  0  0  0  0  0  0  0  0
   -0.7312    1.6688    0.0000 O   0  0  0  0  0  0  0  0  0  0  0  0
   -0.7312   -1.6688    0.0000 O   0  0  0  0  0  0  0  0  0  0  0  0
    2.8813    0.4187    0.0000 O   0  0  0  0  0  0  0  0  0  0  0  0
   -1.4313   -0.4187    0.0000 N   0  0  0  0  0  0  0  0  0  0  0  0
   -1.4313    0.4187    0.0000 C   0  0  3  0  0  0  0  0  0  0  0  0
   -0.7187    0.8188    0.0000 C   0  0  0  0  0  0  0  0  0  0  0  0
   -2.1688    0.8313    0.0000 C   0  0  0  0  0  0  0  0  0  0  0  0
   -2.8813   -0.4063    0.0000 C   0  0  0  0  0  0  0  0  0  0  0  0
   -0.7187   -0.8063    0.0000 C   0  0  0  0  0  0  0  0  0  0  0  0
   -2.8688    0.4187    0.0000 C   0  0  0  0  0  0  0  0  0  0  0  0
    0.7187    0.8313    0.0000 C   0  0  0  0  0  0  0  0  0  0  0  0
   -0.1312   -0.4937    0.0000 C   0  0  0  0  0  0  0  0  0  0  0  0
    1.4563    0.4187    0.0000 C   0  0  0  0  0  0  0  0  0  0  0  0
    2.1688    0.8313    0.0000 C   0  0  3  0  0  0  0  0  0  0  0  0
    2.1688    1.6563    0.0000 C   0  0  0  0  0  0  0  0  0  0  0  0
  1  7  1  0  0  0  0
  1 12  1  0  0  0  0
  2  7  2  0  0  0  0
  3 10  2  0  0  0  0
  4 15  1  0  0  0  0
  5  6  1  0  0  0  0
  5  9  1  0  0  0  0
  5 10  1  0  0  0  0
  6  7  1  0  0  0  0
  6  8  1  0  0  0  0
  8 11  1  0  0  0  0
  9 11  1  0  0  0  0
 10 13  1  0  0  0  0
 12 14  1  0  0  0  0
 14 15  1  0  0  0  0
 15 16  1  0  0  0  0
M  END
> <PUBCHEM_COMPOUND_ID_TYPE>
0

> <PUBCHEM_TOTAL_CHARGE>
0

> <PUBCHEM_SUBSTANCE_ID>
310941896

> <PUBCHEM_SUBSTANCE_VERSION>
1

> <PUBCHEM_EXT_DATASOURCE_NAME>
4488

> <PUBCHEM_EXT_DATASOURCE_REGID>
SCHEMBL16119928

> <PUBCHEM_SUBSTANCE_COMMENT>
InChI=1S/C11H19NO4/c1-8(13)5-7-16-11(15)10-4-3-6-12(10)9(2)14/h8,10,13H,3-7H2,1-2H3
InChIKey=AUCZUWUQJMYEAV-UHFFFAOYSA-N

> <PUBCHEM_SUBSTANCE_SYNONYM>
SCHEMBL16119928

> <PUBCHEM_XREF_EXT_ID>
SCHEMBL16119928

> <PUBCHEM_EXT_DATASOURCE_URL>
https://www.surechembl.org/

> <PUBCHEM_EXT_SUBSTANCE_URL>
https://www.surechembl.org/chemical/SCHEMBL16119928

> <PUBCHEM_CID_ASSOCIATIONS>
117608628  1

> <PUBCHEM_COORDINATE_TYPE>
1
3

$$$$
