310946214
  -OEChem-07211613022D

 43 51  0     1  0  0  0  0  0999 V2000
   -1.9474    0.6107    0.0000 N   0  0  0  0  0  0  0  0  0  0  0  0
    1.8588    0.6107    0.0000 N   0  0  0  0  0  0  0  0  0  0  0  0
   -1.9474   -0.7169    0.0000 N   0  0  3  0  0  0  0  0  0  0  0  0
    1.8765   -0.7523    0.0000 N   0  0  0  0  0  0  0  0  0  0  0  0
   -3.4342    0.7523    0.0000 N   0  0  0  0  0  0  0  0  0  0  0  0
   -4.1424   -0.4514    0.0000 N   0  0  0  0  0  0  0  0  0  0  0  0
   -0.3895    0.1327    0.0000 C   0  0  3  0  0  0  0  0  0  0  0  0
    0.1593   -0.0266    0.0000 C   0  0  0  0  0  0  0  0  0  0  0  0
   -1.4516   -0.0266    0.0000 C   0  0  3  0  0  0  0  0  0  0  0  0
   -0.9028    1.5667    0.0000 C   0  0  0  0  0  0  0  0  0  0  0  0
    1.3808   -0.0443    0.0000 C   0  0  3  0  0  0  0  0  0  0  0  0
    0.8496    1.6552    0.0000 C   0  0  0  0  0  0  0  0  0  0  0  0
   -1.6818    1.4074    0.0000 C   0  0  0  0  0  0  0  0  0  0  0  0
    1.6641    1.4605    0.0000 C   0  0  0  0  0  0  0  0  0  0  0  0
   -2.7084    0.3806    0.0000 C   0  0  0  0  0  0  0  0  0  0  0  0
    2.6907    0.3629    0.0000 C   0  0  0  0  0  0  0  0  0  0  0  0
   -2.7262   -0.4337    0.0000 C   0  0  0  0  0  0  0  0  0  0  0  0
    0.1593   -3.3370    0.0000 C   0  0  0  0  0  0  0  0  0  0  0  0
    0.1770    3.3723    0.0000 C   0  0  0  0  0  0  0  0  0  0  0  0
    2.6907   -0.4692    0.0000 C   0  0  0  0  0  0  0  0  0  0  0  0
   -0.6550    2.3456    0.0000 C   0  0  0  0  0  0  0  0  0  0  0  0
    0.6196    2.4517    0.0000 C   0  0  0  0  0  0  0  0  0  0  0  0
   -2.2127    1.9738    0.0000 C   0  0  0  0  0  0  0  0  0  0  0  0
    2.2304    2.0092    0.0000 C   0  0  0  0  0  0  0  0  0  0  0  0
    1.6641   -1.5667    0.0000 C   0  0  0  0  0  0  0  0  0  0  0  0
    3.4165    0.7523    0.0000 C   0  0  0  0  0  0  0  0  0  0  0  0
   -3.3988   -0.8408    0.0000 C   0  0  0  0  0  0  0  0  0  0  0  0
   -1.6818   -1.4782    0.0000 C   0  0  0  0  0  0  0  0  0  0  0  0
    3.4519   -0.8762    0.0000 C   0  0  0  0  0  0  0  0  0  0  0  0
   -1.1861    2.9120    0.0000 C   0  0  0  0  0  0  0  0  0  0  0  0
    1.2038    3.0360    0.0000 C   0  0  0  0  0  0  0  0  0  0  0  0
   -1.9827    2.7350    0.0000 C   0  0  0  0  0  0  0  0  0  0  0  0
    2.0181    2.8236    0.0000 C   0  0  0  0  0  0  0  0  0  0  0  0
    0.8674    3.3370    0.0000 C   0  0  0  0  0  0  0  0  0  0  0  0
    0.8674   -3.3723    0.0000 C   0  0  0  0  0  0  0  0  0  0  0  0
   -4.1247    0.3806    0.0000 C   0  0  0  0  0  0  0  0  0  0  0  0
    0.8496   -1.7968    0.0000 C   0  0  0  0  0  0  0  0  0  0  0  0
    2.2304   -2.1508    0.0000 C   0  0  0  0  0  0  0  0  0  0  0  0
    4.1424    0.3629    0.0000 C   0  0  0  0  0  0  0  0  0  0  0  0
    4.1424   -0.4869    0.0000 C   0  0  0  0  0  0  0  0  0  0  0  0
    0.6196   -2.5934    0.0000 C   0  0  0  0  0  0  0  0  0  0  0  0
    2.0357   -2.9475    0.0000 C   0  0  0  0  0  0  0  0  0  0  0  0
    1.2038   -3.1599    0.0000 C   0  0  0  0  0  0  0  0  0  0  0  0
  1  9  1  0  0  0  0
  1 13  1  0  0  0  0
  1 15  1  0  0  0  0
  2 11  1  0  0  0  0
  2 14  1  0  0  0  0
  2 16  1  0  0  0  0
  3  9  1  0  0  0  0
  3 17  1  0  0  0  0
  3 28  1  0  0  0  0
  4 11  1  0  0  0  0
  4 20  1  0  0  0  0
  4 25  1  0  0  0  0
  5 15  2  0  0  0  0
  5 36  1  0  0  0  0
  6 27  1  0  0  0  0
  6 36  2  0  0  0  0
  7  8  1  0  0  0  0
  7  9  1  0  0  0  0
  7 10  1  0  0  0  0
  7 12  1  0  0  0  0
  8 11  1  0  0  0  0
  8 18  1  0  0  0  0
  8 19  1  0  0  0  0
 10 13  2  0  0  0  0
 10 21  1  0  0  0  0
 12 14  1  0  0  0  0
 12 22  2  0  0  0  0
 13 23  1  0  0  0  0
 14 24  2  0  0  0  0
 15 17  1  0  0  0  0
 16 20  2  0  0  0  0
 16 26  1  0  0  0  0
 17 27  2  0  0  0  0
 18 35  1  0  0  0  0
 19 34  1  0  0  0  0
 20 29  1  0  0  0  0
 21 30  2  0  0  0  0
 22 31  1  0  0  0  0
 23 32  2  0  0  0  0
 24 33  1  0  0  0  0
 25 37  2  0  0  0  0
 25 38  1  0  0  0  0
 26 39  2  0  0  0  0
 29 40  2  0  0  0  0
 30 32  1  0  0  0  0
 31 33  2  0  0  0  0
 37 41  1  0  0  0  0
 38 42  2  0  0  0  0
 39 40  1  0  0  0  0
 41 43  2  0  0  0  0
 42 43  1  0  0  0  0
M  END
> <PUBCHEM_COMPOUND_ID_TYPE>
0

> <PUBCHEM_TOTAL_CHARGE>
0

> <PUBCHEM_SUBSTANCE_ID>
310946214

> <PUBCHEM_SUBSTANCE_VERSION>
1

> <PUBCHEM_EXT_DATASOURCE_NAME>
4488

> <PUBCHEM_EXT_DATASOURCE_REGID>
SCHEMBL16124326

> <PUBCHEM_SUBSTANCE_COMMENT>
InChI=1S/C37H34N6/c1-4-36(5-2)34-41(25-15-7-6-8-16-25)30-21-13-14-22-31(30)42(34)28-19-11-9-17-26(28)37(36)27-18-10-12-20-29(27)43-33-32(23-38-24-39-33)40(3)35(37)43/h6-24,34-35H,4-5H2,1-3H3
InChIKey=SRXZJQLCYPBGOB-UHFFFAOYSA-N

> <PUBCHEM_SUBSTANCE_SYNONYM>
SCHEMBL16124326

> <PUBCHEM_XREF_EXT_ID>
SCHEMBL16124326

> <PUBCHEM_EXT_DATASOURCE_URL>
https://www.surechembl.org/

> <PUBCHEM_EXT_SUBSTANCE_URL>
https://www.surechembl.org/chemical/SCHEMBL16124326

> <PUBCHEM_CID_ASSOCIATIONS>
117612163  1

> <PUBCHEM_COORDINATE_TYPE>
1
3

$$$$
