310931941
  -OEChem-07211613022D

 31 34  0     1  0  0  0  0  0999 V2000
    6.2466   -1.3362    0.0000 O   0  0  0  0  0  0  0  0  0  0  0  0
    2.1713   -3.0398    0.0000 O   0  0  0  0  0  0  0  0  0  0  0  0
    0.0000   -0.6347    0.0000 O   0  0  0  0  0  0  0  0  0  0  0  0
    5.8792   -2.7392    0.0000 N   0  0  0  0  0  0  0  0  0  0  0  0
    6.2800   -3.4741    0.0000 N   0  0  0  0  0  0  0  0  0  0  0  0
    4.6098   -3.3071    0.0000 N   0  0  0  0  0  0  0  0  0  0  0  0
    2.3049   -1.6368    0.0000 N   0  0  0  0  0  0  0  0  0  0  0  0
   10.0213    0.0000    0.0000 N   0  0  0  0  0  0  0  0  0  0  0  0
    7.1820   -2.4720    0.0000 C   0  0  0  0  0  0  0  0  0  0  0  0
    6.4136   -2.1379    0.0000 C   0  0  0  0  0  0  0  0  0  0  0  0
    7.8834   -2.0711    0.0000 C   0  0  0  0  0  0  0  0  0  0  0  0
    5.0775   -2.6724    0.0000 C   0  0  0  0  0  0  0  0  0  0  0  0
    7.0818   -3.2736    0.0000 C   0  0  0  0  0  0  0  0  0  0  0  0
    7.8834   -1.2359    0.0000 C   0  0  0  0  0  0  0  0  0  0  0  0
    3.4741   -2.4720    0.0000 C   0  0  0  0  0  0  0  0  0  0  0  0
    4.7434   -1.9041    0.0000 C   0  0  0  0  0  0  0  0  0  0  0  0
    2.6390   -2.3717    0.0000 C   0  0  0  0  0  0  0  0  0  0  0  0
    8.6183   -2.4720    0.0000 C   0  0  0  0  0  0  0  0  0  0  0  0
    3.7747   -3.2402    0.0000 C   0  0  0  0  0  0  0  0  0  0  0  0
    3.9083   -1.8373    0.0000 C   0  0  0  0  0  0  0  0  0  0  0  0
    8.6183   -0.8351    0.0000 C   0  0  0  0  0  0  0  0  0  0  0  0
    9.3199   -1.2359    0.0000 C   0  0  0  0  0  0  0  0  0  0  0  0
    9.3199   -2.0711    0.0000 C   0  0  0  0  0  0  0  0  0  0  0  0
    1.5032   -1.4364    0.0000 C   0  0  0  0  0  0  0  0  0  0  0  0
    1.4364   -0.6347    0.0000 C   0  0  3  0  0  0  0  0  0  0  0  0
    2.7392   -0.9353    0.0000 C   0  0  0  0  0  0  0  0  0  0  0  0
    2.2047   -0.3006    0.0000 C   0  0  0  0  0  0  0  0  0  0  0  0
    7.1820   -0.8351    0.0000 C   0  0  0  0  0  0  0  0  0  0  0  0
   10.0213   -0.8351    0.0000 C   0  0  0  0  0  0  0  0  0  0  0  0
    0.7349   -0.2338    0.0000 C   0  0  0  0  0  0  0  0  0  0  0  0
    0.0000   -1.4364    0.0000 C   0  0  0  0  0  0  0  0  0  0  0  0
  1 10  1  0  0  0  0
  2 17  2  0  0  0  0
  3 30  1  0  0  0  0
  3 31  1  0  0  0  0
  4  5  1  0  0  0  0
  4 10  1  0  0  0  0
  4 12  1  0  0  0  0
  5 13  2  0  0  0  0
  6 12  1  0  0  0  0
  6 19  2  0  0  0  0
  7 17  1  0  0  0  0
  7 24  1  0  0  0  0
  7 26  1  0  0  0  0
  8 29  3  0  0  0  0
  9 10  2  0  0  0  0
  9 11  1  0  0  0  0
  9 13  1  0  0  0  0
 11 14  2  0  0  0  0
 11 18  1  0  0  0  0
 12 16  2  0  0  0  0
 14 21  1  0  0  0  0
 14 28  1  0  0  0  0
 15 17  1  0  0  0  0
 15 19  1  0  0  0  0
 15 20  2  0  0  0  0
 16 20  1  0  0  0  0
 18 23  2  0  0  0  0
 21 22  2  0  0  0  0
 22 23  1  0  0  0  0
 22 29  1  0  0  0  0
 24 25  1  0  0  0  0
 25 27  1  0  0  0  0
 25 30  1  0  0  0  0
 26 27  1  0  0  0  0
M  END
> <PUBCHEM_COMPOUND_ID_TYPE>
0

> <PUBCHEM_TOTAL_CHARGE>
0

> <PUBCHEM_SUBSTANCE_ID>
310931941

> <PUBCHEM_SUBSTANCE_VERSION>
1

> <PUBCHEM_EXT_DATASOURCE_NAME>
4488

> <PUBCHEM_EXT_DATASOURCE_REGID>
SCHEMBL16109277

> <PUBCHEM_SUBSTANCE_COMMENT>
InChI=1S/C23H23N5O3/c1-15-9-16(10-24)3-5-19(15)20-12-26-28(23(20)30)21-6-4-18(11-25-21)22(29)27-8-7-17(13-27)14-31-2/h3-6,9,11-12,17,30H,7-8,13-14H2,1-2H3
InChIKey=JXKPFEQCWBLNPT-UHFFFAOYSA-N

> <PUBCHEM_SUBSTANCE_SYNONYM>
SCHEMBL16109277

> <PUBCHEM_XREF_EXT_ID>
SCHEMBL16109277

> <PUBCHEM_EXT_DATASOURCE_URL>
https://www.surechembl.org/

> <PUBCHEM_EXT_SUBSTANCE_URL>
https://www.surechembl.org/chemical/SCHEMBL16109277

> <PUBCHEM_CID_ASSOCIATIONS>
117600592  1

> <PUBCHEM_COORDINATE_TYPE>
1
3

$$$$
