310930888
  -OEChem-07211613022D

 40 43  0     1  0  0  0  0  0999 V2000
    1.5304   -7.8482    0.0000 Cl  0  0  0  0  0  0  0  0  0  0  0  0
    6.5532   -5.8077    0.0000 S   0  0  0  0  0  0  0  0  0  0  0  0
    5.7292   -4.2773    0.0000 S   0  0  0  0  0  0  0  0  0  0  0  0
    6.5532   -4.1203    0.0000 F   0  0  0  0  0  0  0  0  0  0  0  0
    3.6887   -5.7684    0.0000 F   0  0  0  0  0  0  0  0  0  0  0  0
    6.1216   -6.5140    0.0000 O   0  0  0  0  0  0  0  0  0  0  0  0
    7.2596   -6.2393    0.0000 O   0  0  0  0  0  0  0  0  0  0  0  0
    3.6887   -4.1203    0.0000 O   0  0  0  0  0  0  0  0  0  0  0  0
    0.8240   -1.6481    0.0000 O   0  0  0  0  0  0  0  0  0  0  0  0
    2.2760   -1.6481    0.0000 O   0  0  0  0  0  0  0  0  0  0  0  0
    6.9849   -5.1014    0.0000 N   0  0  0  0  0  0  0  0  0  0  0  0
    6.9064   -3.6102    0.0000 N   0  0  0  0  0  0  0  0  0  0  0  0
    1.5304   -2.8646    0.0000 N   0  0  0  0  0  0  0  0  0  0  0  0
    5.5722   -3.4532    0.0000 N   0  0  0  0  0  0  0  0  0  0  0  0
    5.8469   -5.3760    0.0000 C   0  0  0  0  0  0  0  0  0  0  0  0
    5.8469   -4.5519    0.0000 C   0  0  0  0  0  0  0  0  0  0  0  0
    5.1406   -5.7684    0.0000 C   0  0  0  0  0  0  0  0  0  0  0  0
    4.4342   -4.5519    0.0000 C   0  0  0  0  0  0  0  0  0  0  0  0
    4.3950   -5.3760    0.0000 C   0  0  0  0  0  0  0  0  0  0  0  0
    6.5532   -4.3557    0.0000 C   0  0  0  0  0  0  0  0  0  0  0  0
    5.1406   -4.1203    0.0000 C   0  0  0  0  0  0  0  0  0  0  0  0
    2.2760   -4.1203    0.0000 C   0  0  3  0  0  0  0  0  0  0  0  0
    1.5304   -4.5127    0.0000 C   0  0  3  0  0  0  0  0  0  0  0  0
    2.9823   -4.5127    0.0000 C   0  0  0  0  0  0  0  0  0  0  0  0
    7.8090   -5.1014    0.0000 C   0  0  0  0  0  0  0  0  0  0  0  0
    1.5304   -5.3368    0.0000 C   0  0  0  0  0  0  0  0  0  0  0  0
    2.2760   -3.2963    0.0000 C   0  0  0  0  0  0  0  0  0  0  0  0
    0.8240   -4.1203    0.0000 C   0  0  0  0  0  0  0  0  0  0  0  0
    0.8240   -3.2963    0.0000 C   0  0  0  0  0  0  0  0  0  0  0  0
    1.5304   -2.0405    0.0000 C   0  0  0  0  0  0  0  0  0  0  0  0
    6.3178   -3.0608    0.0000 C   0  0  0  0  0  0  0  0  0  0  0  0
    2.2760   -5.7684    0.0000 C   0  0  0  0  0  0  0  0  0  0  0  0
    0.8240   -5.7684    0.0000 C   0  0  0  0  0  0  0  0  0  0  0  0
    0.8240   -0.8240    0.0000 C   0  0  0  0  0  0  0  0  0  0  0  0
    2.2760   -6.5925    0.0000 C   0  0  0  0  0  0  0  0  0  0  0  0
    0.8240   -6.5925    0.0000 C   0  0  0  0  0  0  0  0  0  0  0  0
    1.5304   -7.0242    0.0000 C   0  0  0  0  0  0  0  0  0  0  0  0
    1.6874   -0.8240    0.0000 C   0  0  0  0  0  0  0  0  0  0  0  0
    0.8240    0.0000    0.0000 C   0  0  0  0  0  0  0  0  0  0  0  0
    0.0000   -0.8240    0.0000 C   0  0  0  0  0  0  0  0  0  0  0  0
  1 37  1  0  0  0  0
  2  6  2  0  0  0  0
  2  7  2  0  0  0  0
  2 11  1  0  0  0  0
  2 15  1  0  0  0  0
  3 14  1  0  0  0  0
  3 20  1  0  0  0  0
  4 16  1  0  0  0  0
  5 19  1  0  0  0  0
  8 18  1  0  0  0  0
  8 24  1  0  0  0  0
  9 30  1  0  0  0  0
  9 34  1  0  0  0  0
 10 30  2  0  0  0  0
 11 20  1  0  0  0  0
 11 25  1  0  0  0  0
 12 20  2  0  0  0  0
 12 31  1  0  0  0  0
 13 27  1  0  0  0  0
 13 29  1  0  0  0  0
 13 30  1  0  0  0  0
 14 31  2  0  0  0  0
 15 16  1  0  0  0  0
 15 17  2  0  0  0  0
 16 21  2  0  0  0  0
 17 19  1  0  0  0  0
 18 19  2  0  0  0  0
 18 21  1  0  0  0  0
 22 23  1  0  0  0  0
 22 24  1  0  0  0  0
 22 27  1  0  0  0  0
 23 26  1  0  0  0  0
 23 28  1  0  0  0  0
 26 32  2  0  0  0  0
 26 33  1  0  0  0  0
 28 29  1  0  0  0  0
 32 35  1  0  0  0  0
 33 36  2  0  0  0  0
 34 38  1  0  0  0  0
 34 39  1  0  0  0  0
 34 40  1  0  0  0  0
 35 37  2  0  0  0  0
 36 37  1  0  0  0  0
M  END
> <PUBCHEM_COMPOUND_ID_TYPE>
0

> <PUBCHEM_TOTAL_CHARGE>
0

> <PUBCHEM_SUBSTANCE_ID>
310930888

> <PUBCHEM_SUBSTANCE_VERSION>
1

> <PUBCHEM_EXT_DATASOURCE_NAME>
4488

> <PUBCHEM_EXT_DATASOURCE_REGID>
SCHEMBL16108186

> <PUBCHEM_SUBSTANCE_COMMENT>
InChI=1S/C26H29ClF2N4O5S2/c1-26(2,3)38-25(34)33-10-9-19(16-5-7-18(27)8-6-16)17(13-33)14-37-22-11-21(29)23(12-20(22)28)40(35,36)32(4)24-30-15-31-39-24/h5-8,11-12,15,17,19H,9-10,13-14H2,1-4H3
InChIKey=NRROSWFLBVZSOM-UHFFFAOYSA-N

> <PUBCHEM_SUBSTANCE_SYNONYM>
SCHEMBL16108186

> <PUBCHEM_XREF_EXT_ID>
SCHEMBL16108186

> <PUBCHEM_EXT_DATASOURCE_URL>
https://www.surechembl.org/

> <PUBCHEM_EXT_SUBSTANCE_URL>
https://www.surechembl.org/chemical/SCHEMBL16108186

> <PUBCHEM_CID_ASSOCIATIONS>
117599861  1

> <PUBCHEM_COORDINATE_TYPE>
1
3

$$$$
