310949223
  -OEChem-07211613022D

 24 28  0     1  0  0  0  0  0999 V2000
   -2.8980    0.1063    0.0000 O   0  0  0  0  0  0  0  0  0  0  0  0
    2.8644   -0.2629    0.0000 O   0  0  0  0  0  0  0  0  0  0  0  0
   -2.3721   -1.1581    0.0000 O   0  0  0  0  0  0  0  0  0  0  0  0
    2.2267   -1.5385    0.0000 O   0  0  0  0  0  0  0  0  0  0  0  0
   -5.0128    0.9007    0.0000 O   0  0  0  0  0  0  0  0  0  0  0  0
    5.0016    0.3189    0.0000 O   0  0  0  0  0  0  0  0  0  0  0  0
    0.1231   -0.0839    0.0000 C   0  0  3  0  0  0  0  0  0  0  0  0
   -0.7161    0.1510    0.0000 C   0  0  3  0  0  0  0  0  0  0  0  0
    0.5259    0.6434    0.0000 C   0  0  3  0  0  0  0  0  0  0  0  0
   -0.3245    0.8895    0.0000 C   0  0  3  0  0  0  0  0  0  0  0  0
   -1.4770   -0.0504    0.0000 C   0  0  0  0  0  0  0  0  0  0  0  0
   -0.6937    1.5385    0.0000 C   0  0  0  0  0  0  0  0  0  0  0  0
   -1.0965    0.6546    0.0000 C   0  0  0  0  0  0  0  0  0  0  0  0
    1.4210   -0.3525    0.0000 C   0  0  0  0  0  0  0  0  0  0  0  0
    0.6601   -0.6881    0.0000 C   0  0  0  0  0  0  0  0  0  0  0  0
    1.3539    0.4644    0.0000 C   0  0  0  0  0  0  0  0  0  0  0  0
   -2.2490   -0.3413    0.0000 C   0  0  0  0  0  0  0  0  0  0  0  0
    2.1819   -0.7105    0.0000 C   0  0  0  0  0  0  0  0  0  0  0  0
   -4.2966    0.2741    0.0000 C   0  0  3  0  0  0  0  0  0  0  0  0
   -3.5917   -0.1958    0.0000 C   0  0  0  0  0  0  0  0  0  0  0  0
    4.2631   -0.1846    0.0000 C   0  0  3  0  0  0  0  0  0  0  0  0
    3.6253   -0.6098    0.0000 C   0  0  0  0  0  0  0  0  0  0  0  0
   -4.9680   -0.0056    0.0000 C   0  0  0  0  0  0  0  0  0  0  0  0
    5.0128   -0.5203    0.0000 C   0  0  0  0  0  0  0  0  0  0  0  0
  1 17  1  0  0  0  0
  1 20  1  0  0  0  0
  2 18  1  0  0  0  0
  2 22  1  0  0  0  0
  3 17  2  0  0  0  0
  4 18  2  0  0  0  0
  5 19  1  0  0  0  0
  5 23  1  0  0  0  0
  6 21  1  0  0  0  0
  6 24  1  0  0  0  0
  7  8  1  0  0  0  0
  7  9  1  0  0  0  0
  7 15  1  0  0  0  0
  8 11  1  0  0  0  0
  8 12  1  0  0  0  0
  9 10  1  0  0  0  0
  9 16  1  0  0  0  0
 10 12  1  0  0  0  0
 10 13  1  0  0  0  0
 11 13  2  0  0  0  0
 11 17  1  0  0  0  0
 14 15  1  0  0  0  0
 14 16  2  0  0  0  0
 14 18  1  0  0  0  0
 19 20  1  0  0  0  0
 19 23  1  0  0  0  0
 21 22  1  0  0  0  0
 21 24  1  0  0  0  0
M  END
> <PUBCHEM_COMPOUND_ID_TYPE>
0

> <PUBCHEM_TOTAL_CHARGE>
0

> <PUBCHEM_SUBSTANCE_ID>
310949223

> <PUBCHEM_SUBSTANCE_VERSION>
1

> <PUBCHEM_EXT_DATASOURCE_NAME>
4488

> <PUBCHEM_EXT_DATASOURCE_REGID>
SCHEMBL16127413

> <PUBCHEM_SUBSTANCE_COMMENT>
InChI=1S/C18H20O6/c19-17(23-7-11-5-21-11)10-3-13-9-1-15(14(13)4-10)16(2-9)18(20)24-8-12-6-22-12/h2-3,9,11-15H,1,4-8H2
InChIKey=KOTJGODDIDWNSQ-UHFFFAOYSA-N

> <PUBCHEM_SUBSTANCE_SYNONYM>
SCHEMBL16127413

> <PUBCHEM_XREF_EXT_ID>
SCHEMBL16127413

> <PUBCHEM_EXT_DATASOURCE_URL>
https://www.surechembl.org/

> <PUBCHEM_EXT_SUBSTANCE_URL>
https://www.surechembl.org/chemical/SCHEMBL16127413

> <PUBCHEM_CID_ASSOCIATIONS>
117614711  1

> <PUBCHEM_COORDINATE_TYPE>
1
3

$$$$
