310935285
  -OEChem-07211613022D

 24 26  0     1  0  0  0  0  0999 V2000
    6.8747   -0.6646    0.0000 F   0  0  0  0  0  0  0  0  0  0  0  0
    0.0229   -2.7728    0.0000 F   0  0  0  0  0  0  0  0  0  0  0  0
    0.0000   -4.2165    0.0000 F   0  0  0  0  0  0  0  0  0  0  0  0
    5.7059   -2.9332    0.0000 O   0  0  0  0  0  0  0  0  0  0  0  0
    5.7059   -1.4895    0.0000 O   0  0  0  0  0  0  0  0  0  0  0  0
    1.2604   -3.5060    0.0000 N   0  0  0  0  0  0  0  0  0  0  0  0
    1.7187   -4.1936    0.0000 N   0  0  0  0  0  0  0  0  0  0  0  0
    4.4685   -2.1999    0.0000 C   0  0  3  0  0  0  0  0  0  0  0  0
    4.8352   -1.4666    0.0000 C   0  0  0  0  0  0  0  0  0  0  0  0
    3.2082   -2.6124    0.0000 C   0  0  0  0  0  0  0  0  0  0  0  0
    3.9873   -2.8873    0.0000 C   0  0  0  0  0  0  0  0  0  0  0  0
    3.9873   -1.5353    0.0000 C   0  0  0  0  0  0  0  0  0  0  0  0
    5.2935   -2.1999    0.0000 C   0  0  0  0  0  0  0  0  0  0  0  0
    2.5207   -3.0936    0.0000 C   0  0  0  0  0  0  0  0  0  0  0  0
    5.8434   -1.6041    0.0000 C   0  0  0  0  0  0  0  0  0  0  0  0
    3.2082   -1.8103    0.0000 C   0  0  0  0  0  0  0  0  0  0  0  0
    4.3998   -0.7791    0.0000 C   0  0  0  0  0  0  0  0  0  0  0  0
    6.0497   -0.6874    0.0000 C   0  0  0  0  0  0  0  0  0  0  0  0
    1.7416   -2.8416    0.0000 C   0  0  0  0  0  0  0  0  0  0  0  0
    2.5207   -3.9186    0.0000 C   0  0  0  0  0  0  0  0  0  0  0  0
    4.7664   -0.0229    0.0000 C   0  0  0  0  0  0  0  0  0  0  0  0
    5.6143    0.0000    0.0000 C   0  0  0  0  0  0  0  0  0  0  0  0
    6.1185   -2.1083    0.0000 C   0  0  0  0  0  0  0  0  0  0  0  0
    0.4354   -3.5060    0.0000 C   0  0  0  0  0  0  0  0  0  0  0  0
  1 18  1  0  0  0  0
  2 24  1  0  0  0  0
  3 24  1  0  0  0  0
  4 13  2  0  0  0  0
  5 13  1  0  0  0  0
  6  7  1  0  0  0  0
  6 19  1  0  0  0  0
  6 24  1  0  0  0  0
  7 20  2  0  0  0  0
  8  9  1  0  0  0  0
  8 11  1  0  0  0  0
  8 12  1  0  0  0  0
  8 13  1  0  0  0  0
  9 15  1  0  0  0  0
  9 17  2  0  0  0  0
 10 11  2  0  0  0  0
 10 14  1  0  0  0  0
 10 16  1  0  0  0  0
 12 16  1  0  0  0  0
 14 19  2  0  0  0  0
 14 20  1  0  0  0  0
 15 18  2  0  0  0  0
 15 23  1  0  0  0  0
 17 21  1  0  0  0  0
 18 22  1  0  0  0  0
 21 22  2  0  0  0  0
M  END
> <PUBCHEM_COMPOUND_ID_TYPE>
0

> <PUBCHEM_TOTAL_CHARGE>
0

> <PUBCHEM_SUBSTANCE_ID>
310935285

> <PUBCHEM_SUBSTANCE_VERSION>
1

> <PUBCHEM_EXT_DATASOURCE_NAME>
4488

> <PUBCHEM_EXT_DATASOURCE_REGID>
SCHEMBL16112817

> <PUBCHEM_SUBSTANCE_COMMENT>
InChI=1S/C17H15F3N2O2/c1-10-13(3-2-4-14(10)18)17(15(23)24)6-5-11(7-17)12-8-21-22(9-12)16(19)20/h2-4,7-9,16H,5-6H2,1H3,(H,23,24)
InChIKey=OCUYLEOIQJIASY-UHFFFAOYSA-N

> <PUBCHEM_SUBSTANCE_SYNONYM>
SCHEMBL16112817

> <PUBCHEM_XREF_EXT_ID>
SCHEMBL16112817

> <PUBCHEM_EXT_DATASOURCE_URL>
https://www.surechembl.org/

> <PUBCHEM_EXT_SUBSTANCE_URL>
https://www.surechembl.org/chemical/SCHEMBL16112817

> <PUBCHEM_CID_ASSOCIATIONS>
117603354  1

> <PUBCHEM_COORDINATE_TYPE>
1
3

$$$$
