310935131
  -OEChem-07211613022D

 28 31  0     1  0  0  0  0  0999 V2000
    2.7845    2.3479    0.0000 F   0  0  0  0  0  0  0  0  0  0  0  0
    5.2526   -2.1904    0.0000 F   0  0  0  0  0  0  0  0  0  0  0  0
    5.4492    0.8620    0.0000 O   0  0  0  0  0  0  0  0  0  0  0  0
    4.3873    1.8181    0.0000 O   0  0  0  0  0  0  0  0  0  0  0  0
   -0.1435    0.8555    0.0000 N   0  0  0  0  0  0  0  0  0  0  0  0
   -0.6284    1.5229    0.0000 N   0  0  0  0  0  0  0  0  0  0  0  0
    4.0902    0.4204    0.0000 C   0  0  3  0  0  0  0  0  0  0  0  0
    4.7577   -0.0645    0.0000 C   0  0  0  0  0  0  0  0  0  0  0  0
    2.7845    0.6979    0.0000 C   0  0  3  0  0  0  0  0  0  0  0  0
    3.5382    1.0335    0.0000 C   0  0  0  0  0  0  0  0  0  0  0  0
    2.0701    1.1104    0.0000 C   0  0  0  0  0  0  0  0  0  0  0  0
    3.6777   -0.2941    0.0000 C   0  0  0  0  0  0  0  0  0  0  0  0
    4.6423    1.0335    0.0000 C   0  0  0  0  0  0  0  0  0  0  0  0
    2.8708   -0.1225    0.0000 C   0  0  0  0  0  0  0  0  0  0  0  0
    4.6714   -0.8850    0.0000 C   0  0  0  0  0  0  0  0  0  0  0  0
    0.6411    1.1104    0.0000 C   0  0  0  0  0  0  0  0  0  0  0  0
    2.0701    1.9354    0.0000 C   0  0  0  0  0  0  0  0  0  0  0  0
    1.3556    0.6979    0.0000 C   0  0  0  0  0  0  0  0  0  0  0  0
    0.6411    1.9354    0.0000 C   0  0  0  0  0  0  0  0  0  0  0  0
    5.5113    0.2710    0.0000 C   0  0  0  0  0  0  0  0  0  0  0  0
    1.3556    2.3479    0.0000 C   0  0  0  0  0  0  0  0  0  0  0  0
    5.3389   -1.3699    0.0000 C   0  0  0  0  0  0  0  0  0  0  0  0
   -0.1435    2.1904    0.0000 C   0  0  0  0  0  0  0  0  0  0  0  0
    6.1788   -0.2139    0.0000 C   0  0  0  0  0  0  0  0  0  0  0  0
    6.0926   -1.0344    0.0000 C   0  0  0  0  0  0  0  0  0  0  0  0
    3.9178   -1.2206    0.0000 C   0  0  0  0  0  0  0  0  0  0  0  0
   -0.3984    0.0709    0.0000 C   0  0  0  0  0  0  0  0  0  0  0  0
    6.0013    1.4751    0.0000 C   0  0  0  0  0  0  0  0  0  0  0  0
  1 17  1  0  0  0  0
  2 22  1  0  0  0  0
  3 13  1  0  0  0  0
  3 28  1  0  0  0  0
  4 13  2  0  0  0  0
  5  6  1  0  0  0  0
  5 16  1  0  0  0  0
  5 27  1  0  0  0  0
  6 23  2  0  0  0  0
  7  8  1  0  0  0  0
  7 10  1  0  0  0  0
  7 12  1  0  0  0  0
  7 13  1  0  0  0  0
  8 15  2  0  0  0  0
  8 20  1  0  0  0  0
  9 10  1  0  0  0  0
  9 11  1  0  0  0  0
  9 14  1  0  0  0  0
 11 17  1  0  0  0  0
 11 18  2  0  0  0  0
 12 14  1  0  0  0  0
 15 22  1  0  0  0  0
 15 26  1  0  0  0  0
 16 18  1  0  0  0  0
 16 19  2  0  0  0  0
 17 21  2  0  0  0  0
 19 21  1  0  0  0  0
 19 23  1  0  0  0  0
 20 24  2  0  0  0  0
 22 25  2  0  0  0  0
 24 25  1  0  0  0  0
M  END
> <PUBCHEM_COMPOUND_ID_TYPE>
0

> <PUBCHEM_TOTAL_CHARGE>
0

> <PUBCHEM_SUBSTANCE_ID>
310935131

> <PUBCHEM_SUBSTANCE_VERSION>
1

> <PUBCHEM_EXT_DATASOURCE_NAME>
4488

> <PUBCHEM_EXT_DATASOURCE_REGID>
SCHEMBL16112658

> <PUBCHEM_SUBSTANCE_COMMENT>
InChI=1S/C22H22F2N2O2/c1-13-17(5-4-6-18(13)23)22(21(27)28-3)8-7-14(11-22)16-10-20-15(9-19(16)24)12-25-26(20)2/h4-6,9-10,12,14H,7-8,11H2,1-3H3
InChIKey=RCYUOQBHPBPEAR-UHFFFAOYSA-N

> <PUBCHEM_SUBSTANCE_SYNONYM>
SCHEMBL16112658

> <PUBCHEM_XREF_EXT_ID>
SCHEMBL16112658

> <PUBCHEM_EXT_DATASOURCE_URL>
https://www.surechembl.org/

> <PUBCHEM_EXT_SUBSTANCE_URL>
https://www.surechembl.org/chemical/SCHEMBL16112658

> <PUBCHEM_CID_ASSOCIATIONS>
117603219  1

> <PUBCHEM_COORDINATE_TYPE>
1
3

$$$$
