310946014
  -OEChem-07211613022D

 36 39  0     1  0  0  0  0  0999 V2000
    3.6364    1.4298    0.0000 O   0  0  0  0  0  0  0  0  0  0  0  0
    1.3680    1.4298    0.0000 O   0  0  0  0  0  0  0  0  0  0  0  0
    0.6531    1.0174    0.0000 O   0  0  0  0  0  0  0  0  0  0  0  0
   -0.0619    1.4298    0.0000 O   0  0  0  0  0  0  0  0  0  0  0  0
   -2.9215   -2.6809    0.0000 O   0  0  0  0  0  0  0  0  0  0  0  0
    1.3817   -0.2062    0.0000 N   0  0  0  0  0  0  0  0  0  0  0  0
   -0.7630    0.2062    0.0000 N   0  0  0  0  0  0  0  0  0  0  0  0
   -2.9215    1.4435    0.0000 N   0  0  0  0  0  0  0  0  0  0  0  0
   -2.2066    2.6809    0.0000 N   0  0  0  0  0  0  0  0  0  0  0  0
    2.8115    1.4435    0.0000 C   0  0  3  0  0  0  0  0  0  0  0  0
    2.1104    1.0311    0.0000 C   0  0  0  0  0  0  0  0  0  0  0  0
    3.2240    0.7561    0.0000 C   0  0  0  0  0  0  0  0  0  0  0  0
    2.0828    0.2062    0.0000 C   0  0  3  0  0  0  0  0  0  0  0  0
    2.7978    2.2822    0.0000 C   0  0  0  0  0  0  0  0  0  0  0  0
    2.8115   -0.2062    0.0000 C   0  0  0  0  0  0  0  0  0  0  0  0
    0.6531    0.1925    0.0000 C   0  0  0  0  0  0  0  0  0  0  0  0
   -0.0481   -0.2062    0.0000 C   0  0  3  0  0  0  0  0  0  0  0  0
    2.7978   -1.0311    0.0000 C   0  0  0  0  0  0  0  0  0  0  0  0
   -0.0619   -1.0311    0.0000 C   0  0  0  0  0  0  0  0  0  0  0  0
   -0.7768    1.0311    0.0000 C   0  0  0  0  0  0  0  0  0  0  0  0
   -0.7630   -1.4298    0.0000 C   0  0  0  0  0  0  0  0  0  0  0  0
   -1.4916    1.4435    0.0000 C   0  0  0  0  0  0  0  0  0  0  0  0
    3.5264   -1.4435    0.0000 C   0  0  0  0  0  0  0  0  0  0  0  0
    2.0966   -1.4435    0.0000 C   0  0  0  0  0  0  0  0  0  0  0  0
   -1.4916   -1.0449    0.0000 C   0  0  0  0  0  0  0  0  0  0  0  0
   -0.7768   -2.2547    0.0000 C   0  0  0  0  0  0  0  0  0  0  0  0
   -2.2066    1.0311    0.0000 C   0  0  0  0  0  0  0  0  0  0  0  0
   -1.4780    2.2684    0.0000 C   0  0  0  0  0  0  0  0  0  0  0  0
   -2.1928   -2.2547    0.0000 C   0  0  0  0  0  0  0  0  0  0  0  0
   -2.1791   -1.4298    0.0000 C   0  0  0  0  0  0  0  0  0  0  0  0
   -1.4642   -2.6671    0.0000 C   0  0  0  0  0  0  0  0  0  0  0  0
    3.5264   -2.2547    0.0000 C   0  0  0  0  0  0  0  0  0  0  0  0
    2.0966   -2.2547    0.0000 C   0  0  0  0  0  0  0  0  0  0  0  0
    2.8253   -2.6671    0.0000 C   0  0  0  0  0  0  0  0  0  0  0  0
   -2.9077    2.2684    0.0000 C   0  0  0  0  0  0  0  0  0  0  0  0
   -3.6364   -2.2822    0.0000 C   0  0  0  0  0  0  0  0  0  0  0  0
  1 10  1  0  0  0  0
  1 12  1  0  0  0  0
  2 11  2  0  0  0  0
  3 16  2  0  0  0  0
  4 20  2  0  0  0  0
  5 29  1  0  0  0  0
  5 36  1  0  0  0  0
  6 13  1  0  0  0  0
  6 16  1  0  0  0  0
  7 17  1  0  0  0  0
  7 20  1  0  0  0  0
  8 27  2  0  0  0  0
  8 35  1  0  0  0  0
  9 28  1  0  0  0  0
  9 35  2  0  0  0  0
 10 11  1  0  0  0  0
 10 12  1  0  0  0  0
 10 14  1  0  0  0  0
 11 13  1  0  0  0  0
 13 15  1  0  0  0  0
 15 18  1  0  0  0  0
 16 17  1  0  0  0  0
 17 19  1  0  0  0  0
 18 23  2  0  0  0  0
 18 24  1  0  0  0  0
 19 21  1  0  0  0  0
 20 22  1  0  0  0  0
 21 25  2  0  0  0  0
 21 26  1  0  0  0  0
 22 27  1  0  0  0  0
 22 28  2  0  0  0  0
 23 32  1  0  0  0  0
 24 33  2  0  0  0  0
 25 30  1  0  0  0  0
 26 31  2  0  0  0  0
 29 30  2  0  0  0  0
 29 31  1  0  0  0  0
 32 34  2  0  0  0  0
 33 34  1  0  0  0  0
M  END
> <PUBCHEM_COMPOUND_ID_TYPE>
0

> <PUBCHEM_TOTAL_CHARGE>
0

> <PUBCHEM_SUBSTANCE_ID>
310946014

> <PUBCHEM_SUBSTANCE_VERSION>
1

> <PUBCHEM_EXT_DATASOURCE_NAME>
4488

> <PUBCHEM_EXT_DATASOURCE_REGID>
SCHEMBL16124120

> <PUBCHEM_SUBSTANCE_COMMENT>
InChI=1S/C27H28N4O5/c1-27(16-36-27)24(32)22(12-18-6-4-3-5-7-18)30-26(34)23(13-19-8-10-21(35-2)11-9-19)31-25(33)20-14-28-17-29-15-20/h3-11,14-15,17,22-23H,12-13,16H2,1-2H3,(H,30,34)(H,31,33)
InChIKey=GYJDRGPPCUZIBO-UHFFFAOYSA-N

> <PUBCHEM_SUBSTANCE_SYNONYM>
SCHEMBL16124120

> <PUBCHEM_XREF_EXT_ID>
SCHEMBL16124120

> <PUBCHEM_EXT_DATASOURCE_URL>
https://www.surechembl.org/

> <PUBCHEM_EXT_SUBSTANCE_URL>
https://www.surechembl.org/chemical/SCHEMBL16124120

> <PUBCHEM_CID_ASSOCIATIONS>
117611985  1

> <PUBCHEM_COORDINATE_TYPE>
1
3

$$$$
