310949404
  -OEChem-07211613022D

 34 38  0     1  0  0  0  0  0999 V2000
   -2.9675   -0.0280    0.0000 O   0  0  0  0  0  0  0  0  0  0  0  0
   -2.4496   -1.2878    0.0000 O   0  0  0  0  0  0  0  0  0  0  0  0
    2.8415   -0.4060    0.0000 O   0  0  0  0  0  0  0  0  0  0  0  0
    2.2117   -1.6938    0.0000 O   0  0  0  0  0  0  0  0  0  0  0  0
    0.0980   -0.2099    0.0000 C   0  0  3  0  0  0  0  0  0  0  0  0
   -0.7559    0.0140    0.0000 C   0  0  3  0  0  0  0  0  0  0  0  0
    0.4760    0.5179    0.0000 C   0  0  3  0  0  0  0  0  0  0  0  0
   -0.3640    0.7419    0.0000 C   0  0  3  0  0  0  0  0  0  0  0  0
   -1.5537   -0.1960    0.0000 C   0  0  3  0  0  0  0  0  0  0  0  0
   -0.7279    1.4138    0.0000 C   0  0  0  0  0  0  0  0  0  0  0  0
   -1.1618    0.4760    0.0000 C   0  0  0  0  0  0  0  0  0  0  0  0
    0.6579   -0.8259    0.0000 C   0  0  0  0  0  0  0  0  0  0  0  0
    1.3858   -0.5039    0.0000 C   0  0  0  0  0  0  0  0  0  0  0  0
    1.3158    0.3500    0.0000 C   0  0  0  0  0  0  0  0  0  0  0  0
   -2.3237   -0.4760    0.0000 C   0  0  0  0  0  0  0  0  0  0  0  0
    2.1696   -0.8539    0.0000 C   0  0  0  0  0  0  0  0  0  0  0  0
   -3.6675   -0.3219    0.0000 C   0  0  0  0  0  0  0  0  0  0  0  0
    3.5694   -0.7699    0.0000 C   0  0  0  0  0  0  0  0  0  0  0  0
   -4.3254    0.1540    0.0000 C   0  0  0  0  0  0  0  0  0  0  0  0
    4.2413   -0.3219    0.0000 C   0  0  0  0  0  0  0  0  0  0  0  0
   -4.2134    0.9938    0.0000 C   0  0  0  0  0  0  0  0  0  0  0  0
   -5.0952   -0.1540    0.0000 C   0  0  0  0  0  0  0  0  0  0  0  0
    4.9692   -0.6859    0.0000 C   0  0  0  0  0  0  0  0  0  0  0  0
    4.1994    0.4899    0.0000 C   0  0  0  0  0  0  0  0  0  0  0  0
   -5.6272    1.2039    0.0000 C   0  0  0  0  0  0  0  0  0  0  0  0
   -4.8713    1.4978    0.0000 C   0  0  0  0  0  0  0  0  0  0  0  0
   -5.7392    0.3359    0.0000 C   0  0  0  0  0  0  0  0  0  0  0  0
    5.6132    0.6019    0.0000 C   0  0  0  0  0  0  0  0  0  0  0  0
    5.6551   -0.2380    0.0000 C   0  0  0  0  0  0  0  0  0  0  0  0
    4.8713    0.9378    0.0000 C   0  0  0  0  0  0  0  0  0  0  0  0
   -6.2991    1.6938    0.0000 C   0  0  0  0  0  0  0  0  0  0  0  0
    6.2851    1.0359    0.0000 C   0  0  0  0  0  0  0  0  0  0  0  0
   -7.0689    1.3018    0.0000 C   0  0  0  0  0  0  0  0  0  0  0  0
    7.0689    0.5739    0.0000 C   0  0  0  0  0  0  0  0  0  0  0  0
  1 15  1  0  0  0  0
  1 17  1  0  0  0  0
  2 15  2  0  0  0  0
  3 16  1  0  0  0  0
  3 18  1  0  0  0  0
  4 16  2  0  0  0  0
  5  6  1  0  0  0  0
  5  7  1  0  0  0  0
  5 12  1  0  0  0  0
  6  9  1  0  0  0  0
  6 10  1  0  0  0  0
  7  8  1  0  0  0  0
  7 14  1  0  0  0  0
  8 10  1  0  0  0  0
  8 11  1  0  0  0  0
  9 11  1  0  0  0  0
  9 15  1  0  0  0  0
 12 13  1  0  0  0  0
 13 14  2  0  0  0  0
 13 16  1  0  0  0  0
 17 19  1  0  0  0  0
 18 20  1  0  0  0  0
 19 21  2  0  0  0  0
 19 22  1  0  0  0  0
 20 23  2  0  0  0  0
 20 24  1  0  0  0  0
 21 26  1  0  0  0  0
 22 27  2  0  0  0  0
 23 29  1  0  0  0  0
 24 30  2  0  0  0  0
 25 26  2  0  0  0  0
 25 27  1  0  0  0  0
 25 31  1  0  0  0  0
 28 29  2  0  0  0  0
 28 30  1  0  0  0  0
 28 32  1  0  0  0  0
 31 33  2  0  0  0  0
 32 34  2  0  0  0  0
M  END
> <PUBCHEM_COMPOUND_ID_TYPE>
0

> <PUBCHEM_TOTAL_CHARGE>
0

> <PUBCHEM_SUBSTANCE_ID>
310949404

> <PUBCHEM_SUBSTANCE_VERSION>
1

> <PUBCHEM_EXT_DATASOURCE_NAME>
4488

> <PUBCHEM_EXT_DATASOURCE_REGID>
SCHEMBL16127597

> <PUBCHEM_SUBSTANCE_COMMENT>
InChI=1S/C30H30O4/c1-3-19-5-9-21(10-6-19)17-33-29(31)24-15-25-23-13-27(26(25)16-24)28(14-23)30(32)34-18-22-11-7-20(4-2)8-12-22/h3-12,15,23,25-28H,1-2,13-14,16-18H2
InChIKey=XLERMSUFJRHLAT-UHFFFAOYSA-N

> <PUBCHEM_SUBSTANCE_SYNONYM>
SCHEMBL16127597

> <PUBCHEM_XREF_EXT_ID>
SCHEMBL16127597

> <PUBCHEM_EXT_DATASOURCE_URL>
https://www.surechembl.org/

> <PUBCHEM_EXT_SUBSTANCE_URL>
https://www.surechembl.org/chemical/SCHEMBL16127597

> <PUBCHEM_CID_ASSOCIATIONS>
117614856  1

> <PUBCHEM_COORDINATE_TYPE>
1
3

$$$$
