310945399
  -OEChem-07211613022D

 27 30  0     1  0  0  0  0  0999 V2000
    2.6808    0.6411    0.0000 F   0  0  0  0  0  0  0  0  0  0  0  0
    2.2000   -0.3788    0.0000 F   0  0  0  0  0  0  0  0  0  0  0  0
    1.1655    0.1166    0.0000 F   0  0  0  0  0  0  0  0  0  0  0  0
   -2.6808    1.6900    0.0000 O   0  0  0  0  0  0  0  0  0  0  0  0
   -0.6265   -2.8265    0.0000 O   0  0  0  0  0  0  0  0  0  0  0  0
    0.1311    0.9325    0.0000 N   0  0  0  0  0  0  0  0  0  0  0  0
    2.1563    1.8649    0.0000 N   0  0  0  0  0  0  0  0  0  0  0  0
   -0.6265   -1.1510    0.0000 N   0  0  0  0  0  0  0  0  0  0  0  0
    0.7867    1.4570    0.0000 C   0  0  0  0  0  0  0  0  0  0  0  0
    0.5391    2.2146    0.0000 C   0  0  0  0  0  0  0  0  0  0  0  0
   -0.5537    1.4278    0.0000 C   0  0  0  0  0  0  0  0  0  0  0  0
   -0.2768    2.2291    0.0000 C   0  0  0  0  0  0  0  0  0  0  0  0
    1.6027    1.2530    0.0000 C   0  0  0  0  0  0  0  0  0  0  0  0
    1.9086    0.3788    0.0000 C   0  0  0  0  0  0  0  0  0  0  0  0
    1.0927    2.8265    0.0000 C   0  0  0  0  0  0  0  0  0  0  0  0
    0.1166    0.0729    0.0000 C   0  0  0  0  0  0  0  0  0  0  0  0
   -1.3404    1.2675    0.0000 C   0  0  0  0  0  0  0  0  0  0  0  0
   -0.8305    2.8119    0.0000 C   0  0  0  0  0  0  0  0  0  0  0  0
    1.9086    2.6516    0.0000 C   0  0  0  0  0  0  0  0  0  0  0  0
   -1.8795    1.8649    0.0000 C   0  0  0  0  0  0  0  0  0  0  0  0
   -0.6265   -0.3205    0.0000 C   0  0  3  0  0  0  0  0  0  0  0  0
   -1.6318    2.6516    0.0000 C   0  0  0  0  0  0  0  0  0  0  0  0
   -1.3404    0.0729    0.0000 C   0  0  0  0  0  0  0  0  0  0  0  0
    0.0874   -1.5735    0.0000 C   0  0  0  0  0  0  0  0  0  0  0  0
   -1.3258   -1.5590    0.0000 C   0  0  0  0  0  0  0  0  0  0  0  0
    0.0729   -2.4040    0.0000 C   0  0  0  0  0  0  0  0  0  0  0  0
   -1.3404   -2.3894    0.0000 C   0  0  0  0  0  0  0  0  0  0  0  0
  1 14  1  0  0  0  0
  2 14  1  0  0  0  0
  3 14  1  0  0  0  0
  4 20  1  0  0  0  0
  5 26  1  0  0  0  0
  5 27  1  0  0  0  0
  6  9  1  0  0  0  0
  6 11  1  0  0  0  0
  6 16  1  0  0  0  0
  7 13  2  0  0  0  0
  7 19  1  0  0  0  0
  8 21  1  0  0  0  0
  8 24  1  0  0  0  0
  8 25  1  0  0  0  0
  9 10  2  0  0  0  0
  9 13  1  0  0  0  0
 10 12  1  0  0  0  0
 10 15  1  0  0  0  0
 11 12  2  0  0  0  0
 11 17  1  0  0  0  0
 12 18  1  0  0  0  0
 13 14  1  0  0  0  0
 15 19  2  0  0  0  0
 16 21  1  0  0  0  0
 17 20  2  0  0  0  0
 18 22  2  0  0  0  0
 20 22  1  0  0  0  0
 21 23  1  0  0  0  0
 24 26  1  0  0  0  0
 25 27  1  0  0  0  0
M  END
> <PUBCHEM_COMPOUND_ID_TYPE>
0

> <PUBCHEM_TOTAL_CHARGE>
0

> <PUBCHEM_SUBSTANCE_ID>
310945399

> <PUBCHEM_SUBSTANCE_VERSION>
1

> <PUBCHEM_EXT_DATASOURCE_NAME>
4488

> <PUBCHEM_EXT_DATASOURCE_REGID>
SCHEMBL16123497

> <PUBCHEM_SUBSTANCE_COMMENT>
InChI=1S/C19H20F3N3O2/c1-12(24-6-8-27-9-7-24)11-25-16-10-13(26)2-3-14(16)15-4-5-23-18(17(15)25)19(20,21)22/h2-5,10,12,26H,6-9,11H2,1H3
InChIKey=SGOGNZZQUYHMIA-UHFFFAOYSA-N

> <PUBCHEM_SUBSTANCE_SYNONYM>
SCHEMBL16123497

> <PUBCHEM_XREF_EXT_ID>
SCHEMBL16123497

> <PUBCHEM_EXT_DATASOURCE_URL>
https://www.surechembl.org/

> <PUBCHEM_EXT_SUBSTANCE_URL>
https://www.surechembl.org/chemical/SCHEMBL16123497

> <PUBCHEM_CID_ASSOCIATIONS>
117611447  1

> <PUBCHEM_COORDINATE_TYPE>
1
3

$$$$
