310934934
  -OEChem-07211613022D

 22 24  0     1  0  0  0  0  0999 V2000
    0.6653   -1.1532    0.0000 O   0  0  0  0  0  0  0  0  0  0  0  0
    1.5080    0.0000    0.0000 O   0  0  0  0  0  0  0  0  0  0  0  0
    2.0846   -2.1068    0.0000 N   0  0  0  0  0  0  0  0  0  0  0  0
    2.8608   -2.3730    0.0000 N   0  0  0  0  0  0  0  0  0  0  0  0
    5.8104   -1.7076    0.0000 N   0  0  3  0  0  0  0  0  0  0  0  0
    2.0846   -1.3084    0.0000 C   0  0  0  0  0  0  0  0  0  0  0  0
    3.3487   -1.7076    0.0000 C   0  0  0  0  0  0  0  0  0  0  0  0
    2.8608   -1.0423    0.0000 C   0  0  0  0  0  0  0  0  0  0  0  0
    1.4193   -2.5947    0.0000 C   0  0  0  0  0  0  0  0  0  0  0  0
    4.1693   -1.7076    0.0000 C   0  0  0  0  0  0  0  0  0  0  0  0
    1.4193   -0.8206    0.0000 C   0  0  0  0  0  0  0  0  0  0  0  0
    4.5684   -2.3951    0.0000 C   0  0  0  0  0  0  0  0  0  0  0  0
    4.5684   -0.9758    0.0000 C   0  0  0  0  0  0  0  0  0  0  0  0
    1.4858   -3.4374    0.0000 C   0  0  0  0  0  0  0  0  0  0  0  0
    0.6653   -2.2621    0.0000 C   0  0  0  0  0  0  0  0  0  0  0  0
    5.4112   -2.4395    0.0000 C   0  0  0  0  0  0  0  0  0  0  0  0
    5.4112   -1.0201    0.0000 C   0  0  0  0  0  0  0  0  0  0  0  0
    0.8206   -3.9031    0.0000 C   0  0  0  0  0  0  0  0  0  0  0  0
    0.0000   -2.7278    0.0000 C   0  0  0  0  0  0  0  0  0  0  0  0
    0.0665   -3.5705    0.0000 C   0  0  0  0  0  0  0  0  0  0  0  0
    0.0000   -0.6653    0.0000 C   0  0  0  0  0  0  0  0  0  0  0  0
    6.6530   -1.7076    0.0000 C   0  0  0  0  0  0  0  0  0  0  0  0
  1 11  1  0  0  0  0
  1 21  1  0  0  0  0
  2 11  2  0  0  0  0
  3  4  1  0  0  0  0
  3  6  1  0  0  0  0
  3  9  1  0  0  0  0
  4  7  2  0  0  0  0
  5 16  1  0  0  0  0
  5 17  1  0  0  0  0
  5 22  1  0  0  0  0
  6  8  2  0  0  0  0
  6 11  1  0  0  0  0
  7  8  1  0  0  0  0
  7 10  1  0  0  0  0
  9 14  2  0  0  0  0
  9 15  1  0  0  0  0
 10 12  2  0  0  0  0
 10 13  1  0  0  0  0
 12 16  1  0  0  0  0
 13 17  1  0  0  0  0
 14 18  1  0  0  0  0
 15 19  2  0  0  0  0
 18 20  2  0  0  0  0
 19 20  1  0  0  0  0
M  END
> <PUBCHEM_COMPOUND_ID_TYPE>
0

> <PUBCHEM_TOTAL_CHARGE>
0

> <PUBCHEM_SUBSTANCE_ID>
310934934

> <PUBCHEM_SUBSTANCE_VERSION>
1

> <PUBCHEM_EXT_DATASOURCE_NAME>
4488

> <PUBCHEM_EXT_DATASOURCE_REGID>
SCHEMBL16112448

> <PUBCHEM_SUBSTANCE_COMMENT>
InChI=1S/C17H19N3O2/c1-19-10-8-13(9-11-19)15-12-16(17(21)22-2)20(18-15)14-6-4-3-5-7-14/h3-8,12H,9-11H2,1-2H3
InChIKey=QXPVDQCQKUJMQW-UHFFFAOYSA-N

> <PUBCHEM_SUBSTANCE_SYNONYM>
SCHEMBL16112448

> <PUBCHEM_XREF_EXT_ID>
SCHEMBL16112448

> <PUBCHEM_EXT_DATASOURCE_URL>
https://www.surechembl.org/

> <PUBCHEM_EXT_SUBSTANCE_URL>
https://www.surechembl.org/chemical/SCHEMBL16112448

> <PUBCHEM_CID_ASSOCIATIONS>
117603056  1

> <PUBCHEM_COORDINATE_TYPE>
1
3

$$$$
