310935235
  -OEChem-07211613022D

 32 34  0     1  0  0  0  0  0999 V2000
    1.6492   -2.8603    0.0000 O   0  0  0  0  0  0  0  0  0  0  0  0
    2.0615   -4.9992    0.0000 O   0  0  0  0  0  0  0  0  0  0  0  0
    6.1330   -1.3400    0.0000 O   0  0  0  0  0  0  0  0  0  0  0  0
    0.8246   -4.2777    0.0000 O   0  0  0  0  0  0  0  0  0  0  0  0
    6.8545   -2.5769    0.0000 O   0  0  0  0  0  0  0  0  0  0  0  0
    4.5354   -3.5561    0.0000 N   0  0  0  0  0  0  0  0  0  0  0  0
    2.8861   -2.1388    0.0000 N   0  0  0  0  0  0  0  0  0  0  0  0
    5.3599   -3.3757    0.0000 N   0  0  0  0  0  0  0  0  0  0  0  0
    3.2984   -2.8603    0.0000 C   0  0  0  0  0  0  0  0  0  0  0  0
    4.1231   -2.8603    0.0000 C   0  0  0  0  0  0  0  0  0  0  0  0
    2.8861   -3.5561    0.0000 C   0  0  0  0  0  0  0  0  0  0  0  0
    3.2984   -4.2777    0.0000 C   0  0  0  0  0  0  0  0  0  0  0  0
    2.0615   -3.5561    0.0000 C   0  0  3  0  0  0  0  0  0  0  0  0
    4.6900   -2.2161    0.0000 C   0  0  0  0  0  0  0  0  0  0  0  0
    4.1231   -4.2777    0.0000 C   0  0  0  0  0  0  0  0  0  0  0  0
    5.4372   -2.5511    0.0000 C   0  0  0  0  0  0  0  0  0  0  0  0
    1.6492   -4.2777    0.0000 C   0  0  0  0  0  0  0  0  0  0  0  0
    2.0615   -2.1388    0.0000 C   0  0  0  0  0  0  0  0  0  0  0  0
    3.2984   -1.4431    0.0000 C   0  0  0  0  0  0  0  0  0  0  0  0
    6.1330   -2.1388    0.0000 C   0  0  0  0  0  0  0  0  0  0  0  0
    2.0873   -0.7215    0.0000 C   0  0  0  0  0  0  0  0  0  0  0  0
    3.0665   -5.1538    0.0000 C   0  0  0  0  0  0  0  0  0  0  0  0
    0.8246   -2.8346    0.0000 C   0  0  0  0  0  0  0  0  0  0  0  0
    1.6492   -1.4431    0.0000 C   0  0  0  0  0  0  0  0  0  0  0  0
    2.8861   -0.7215    0.0000 C   0  0  0  0  0  0  0  0  0  0  0  0
    1.6750    0.0000    0.0000 C   0  0  0  0  0  0  0  0  0  0  0  0
    2.4996    0.0000    0.0000 C   0  0  0  0  0  0  0  0  0  0  0  0
    0.0000   -2.8088    0.0000 C   0  0  0  0  0  0  0  0  0  0  0  0
    0.8504   -2.0100    0.0000 C   0  0  0  0  0  0  0  0  0  0  0  0
    0.8246   -3.6592    0.0000 C   0  0  0  0  0  0  0  0  0  0  0  0
    2.8861   -4.9992    0.0000 C   0  0  0  0  0  0  0  0  0  0  0  0
    6.8545   -0.9019    0.0000 C   0  0  0  0  0  0  0  0  0  0  0  0
  1 13  1  0  0  0  0
  1 23  1  0  0  0  0
  2 17  1  0  0  0  0
  2 31  1  0  0  0  0
  3 20  1  0  0  0  0
  3 32  1  0  0  0  0
  4 17  2  0  0  0  0
  5 20  2  0  0  0  0
  6  8  1  0  0  0  0
  6 10  1  0  0  0  0
  6 15  1  0  0  0  0
  7  9  1  0  0  0  0
  7 18  1  0  0  0  0
  7 19  1  0  0  0  0
  8 16  2  0  0  0  0
  9 10  1  0  0  0  0
  9 11  2  0  0  0  0
 10 14  2  0  0  0  0
 11 12  1  0  0  0  0
 11 13  1  0  0  0  0
 12 15  2  0  0  0  0
 12 22  1  0  0  0  0
 13 17  1  0  0  0  0
 14 16  1  0  0  0  0
 16 20  1  0  0  0  0
 18 24  1  0  0  0  0
 19 25  1  0  0  0  0
 21 24  1  0  0  0  0
 21 25  1  0  0  0  0
 21 26  1  0  0  0  0
 21 27  1  0  0  0  0
 23 28  1  0  0  0  0
 23 29  1  0  0  0  0
 23 30  1  0  0  0  0
M  END
> <PUBCHEM_COMPOUND_ID_TYPE>
0

> <PUBCHEM_TOTAL_CHARGE>
0

> <PUBCHEM_SUBSTANCE_ID>
310935235

> <PUBCHEM_SUBSTANCE_VERSION>
1

> <PUBCHEM_EXT_DATASOURCE_NAME>
4488

> <PUBCHEM_EXT_DATASOURCE_REGID>
SCHEMBL16112763

> <PUBCHEM_SUBSTANCE_COMMENT>
InChI=1S/C24H35N3O5/c1-15-14-27-17(13-16(25-27)21(28)30-7)19(26-11-9-24(5,6)10-12-26)18(15)20(22(29)31-8)32-23(2,3)4/h13-14,20H,9-12H2,1-8H3
InChIKey=XVZXBKQWRJHYPK-UHFFFAOYSA-N

> <PUBCHEM_SUBSTANCE_SYNONYM>
SCHEMBL16112763

> <PUBCHEM_XREF_EXT_ID>
SCHEMBL16112763

> <PUBCHEM_EXT_DATASOURCE_URL>
https://www.surechembl.org/

> <PUBCHEM_EXT_SUBSTANCE_URL>
https://www.surechembl.org/chemical/SCHEMBL16112763

> <PUBCHEM_CID_ASSOCIATIONS>
117603312  1

> <PUBCHEM_COORDINATE_TYPE>
1
3

$$$$
