310943567
  -OEChem-07211613022D

 32 35  0     1  0  0  0  0  0999 V2000
   -1.1394    0.7353    0.0000 F   0  0  0  0  0  0  0  0  0  0  0  0
    2.4511    2.0073    0.0000 O   0  0  0  0  0  0  0  0  0  0  0  0
    3.2461    0.5366    0.0000 N   0  0  0  0  0  0  0  0  0  0  0  0
   -3.2859   -1.5435    0.0000 N   0  0  3  0  0  0  0  0  0  0  0  0
    5.0216   -0.0066    0.0000 N   0  0  3  0  0  0  0  0  0  0  0  0
   -5.0746   -1.0003    0.0000 N   0  0  3  0  0  0  0  0  0  0  0  0
   -0.4107   -0.6956    0.0000 C   0  0  0  0  0  0  0  0  0  0  0  0
    0.3180   -0.2716    0.0000 C   0  0  0  0  0  0  0  0  0  0  0  0
   -1.1394   -0.2716    0.0000 C   0  0  0  0  0  0  0  0  0  0  0  0
    1.7357    0.5631    0.0000 C   0  0  0  0  0  0  0  0  0  0  0  0
    2.4379    0.9606    0.0000 C   0  0  0  0  0  0  0  0  0  0  0  0
   -1.8549   -1.5171    0.0000 C   0  0  0  0  0  0  0  0  0  0  0  0
    1.0202   -0.6824    0.0000 C   0  0  0  0  0  0  0  0  0  0  0  0
    0.3180    0.5366    0.0000 C   0  0  0  0  0  0  0  0  0  0  0  0
   -0.4240   -1.5303    0.0000 C   0  0  0  0  0  0  0  0  0  0  0  0
   -1.8549   -0.7089    0.0000 C   0  0  0  0  0  0  0  0  0  0  0  0
    1.7357   -0.2716    0.0000 C   0  0  0  0  0  0  0  0  0  0  0  0
    1.0202    0.9474    0.0000 C   0  0  0  0  0  0  0  0  0  0  0  0
   -1.1527   -1.9278    0.0000 C   0  0  0  0  0  0  0  0  0  0  0  0
   -2.5572   -1.9410    0.0000 C   0  0  0  0  0  0  0  0  0  0  0  0
    3.5508   -0.2318    0.0000 C   0  0  0  0  0  0  0  0  0  0  0  0
    3.6568    1.2521    0.0000 C   0  0  0  0  0  0  0  0  0  0  0  0
    4.3591   -0.4703    0.0000 C   0  0  0  0  0  0  0  0  0  0  0  0
   -3.9616   -2.0073    0.0000 C   0  0  0  0  0  0  0  0  0  0  0  0
    4.4651    1.3846    0.0000 C   0  0  0  0  0  0  0  0  0  0  0  0
   -3.2329   -0.7089    0.0000 C   0  0  0  0  0  0  0  0  0  0  0  0
    5.0613    0.8281    0.0000 C   0  0  0  0  0  0  0  0  0  0  0  0
   -4.7698   -1.7556    0.0000 C   0  0  0  0  0  0  0  0  0  0  0  0
   -3.8291   -0.1524    0.0000 C   0  0  0  0  0  0  0  0  0  0  0  0
   -4.6506   -0.2716    0.0000 C   0  0  0  0  0  0  0  0  0  0  0  0
    5.9092   -0.5234    0.0000 C   0  0  0  0  0  0  0  0  0  0  0  0
   -5.9092   -1.0003    0.0000 C   0  0  0  0  0  0  0  0  0  0  0  0
  1  9  1  0  0  0  0
  2 11  2  0  0  0  0
  3 11  1  0  0  0  0
  3 21  1  0  0  0  0
  3 22  1  0  0  0  0
  4 20  1  0  0  0  0
  4 24  1  0  0  0  0
  4 26  1  0  0  0  0
  5 23  1  0  0  0  0
  5 27  1  0  0  0  0
  5 31  1  0  0  0  0
  6 28  1  0  0  0  0
  6 30  1  0  0  0  0
  6 32  1  0  0  0  0
  7  8  1  0  0  0  0
  7  9  2  0  0  0  0
  7 15  1  0  0  0  0
  8 13  2  0  0  0  0
  8 14  1  0  0  0  0
  9 16  1  0  0  0  0
 10 11  1  0  0  0  0
 10 17  2  0  0  0  0
 10 18  1  0  0  0  0
 12 16  2  0  0  0  0
 12 19  1  0  0  0  0
 12 20  1  0  0  0  0
 13 17  1  0  0  0  0
 14 18  2  0  0  0  0
 15 19  2  0  0  0  0
 21 23  1  0  0  0  0
 22 25  1  0  0  0  0
 24 28  1  0  0  0  0
 25 27  1  0  0  0  0
 26 29  1  0  0  0  0
 29 30  1  0  0  0  0
M  END
> <PUBCHEM_COMPOUND_ID_TYPE>
0

> <PUBCHEM_TOTAL_CHARGE>
0

> <PUBCHEM_SUBSTANCE_ID>
310943567

> <PUBCHEM_SUBSTANCE_VERSION>
1

> <PUBCHEM_EXT_DATASOURCE_NAME>
4488

> <PUBCHEM_EXT_DATASOURCE_REGID>
SCHEMBL16121634

> <PUBCHEM_SUBSTANCE_COMMENT>
InChI=1S/C26H35FN4O/c1-28-11-3-13-30(17-15-28)20-21-5-10-24(25(27)19-21)22-6-8-23(9-7-22)26(32)31-14-4-12-29(2)16-18-31/h5-10,19H,3-4,11-18,20H2,1-2H3
InChIKey=NBDMLFFAJCCRJP-UHFFFAOYSA-N

> <PUBCHEM_SUBSTANCE_SYNONYM>
SCHEMBL16121634

> <PUBCHEM_XREF_EXT_ID>
SCHEMBL16121634

> <PUBCHEM_EXT_DATASOURCE_URL>
https://www.surechembl.org/

> <PUBCHEM_EXT_SUBSTANCE_URL>
https://www.surechembl.org/chemical/SCHEMBL16121634

> <PUBCHEM_CID_ASSOCIATIONS>
86301513  1

> <PUBCHEM_COORDINATE_TYPE>
1
3

$$$$
