310936659
  -OEChem-07211613022D

 21 21  0     1  0  0  0  0  0999 V2000
   -5.7159    0.0000    0.0000 O   0  0  0  0  0  0  0  0  0  0  0  0
   -5.7159    1.6500    0.0000 O   0  0  0  0  0  0  0  0  0  0  0  0
   -5.0014   -0.4125    0.0000 O   0  0  0  0  0  0  0  0  0  0  0  0
   -5.0014    2.0625    0.0000 O   0  0  0  0  0  0  0  0  0  0  0  0
   -6.4304    1.2375    0.0000 O   0  0  0  0  0  0  0  0  0  0  0  0
   -5.0014    2.8876    0.0000 O   0  0  0  0  0  0  0  0  0  0  0  0
   -1.4290   -0.8250    0.0000 O   0  0  0  0  0  0  0  0  0  0  0  0
   -0.7145    0.4125    0.0000 O   0  0  0  0  0  0  0  0  0  0  0  0
   -5.0014    0.4125    0.0000 C   0  0  3  0  0  0  0  0  0  0  0  0
   -5.0014    1.2375    0.0000 C   0  0  3  0  0  0  0  0  0  0  0  0
   -4.2869    0.0000    0.0000 C   0  0  0  0  0  0  0  0  0  0  0  0
   -4.2869    1.6500    0.0000 C   0  0  0  0  0  0  0  0  0  0  0  0
   -3.5724    0.4125    0.0000 C   0  0  0  0  0  0  0  0  0  0  0  0
   -3.5724    1.2375    0.0000 C   0  0  0  0  0  0  0  0  0  0  0  0
   -6.4304    0.4125    0.0000 C   0  0  0  0  0  0  0  0  0  0  0  0
   -5.7159    2.4751    0.0000 C   0  0  0  0  0  0  0  0  0  0  0  0
   -2.8579    0.0000    0.0000 C   0  0  0  0  0  0  0  0  0  0  0  0
   -2.1435    0.4125    0.0000 C   0  0  0  0  0  0  0  0  0  0  0  0
   -7.1449    0.0000    0.0000 C   0  0  0  0  0  0  0  0  0  0  0  0
   -6.4304    2.8876    0.0000 C   0  0  0  0  0  0  0  0  0  0  0  0
   -1.4290    0.0000    0.0000 C   0  0  0  0  0  0  0  0  0  0  0  0
  1  9  1  0  0  0  0
  1 15  1  0  0  0  0
  2 10  1  0  0  0  0
  2 16  1  0  0  0  0
  3  9  1  0  0  0  0
  4 10  1  0  0  0  0
  5 15  2  0  0  0  0
  6 16  2  0  0  0  0
  7 21  2  0  0  0  0
  8 21  1  0  0  0  0
  9 10  1  0  0  0  0
  9 11  1  0  0  0  0
 10 12  1  0  0  0  0
 11 13  2  0  0  0  0
 12 14  2  0  0  0  0
 13 14  1  0  0  0  0
 13 17  1  0  0  0  0
 15 19  1  0  0  0  0
 16 20  1  0  0  0  0
 17 18  2  3  0  0  0
 18 21  1  0  0  0  0
M  END
> <PUBCHEM_COMPOUND_ID_TYPE>
0

> <PUBCHEM_TOTAL_CHARGE>
0

> <PUBCHEM_SUBSTANCE_ID>
310936659

> <PUBCHEM_SUBSTANCE_VERSION>
1

> <PUBCHEM_EXT_DATASOURCE_NAME>
4488

> <PUBCHEM_EXT_DATASOURCE_REGID>
SCHEMBL16114329

> <PUBCHEM_SUBSTANCE_COMMENT>
InChI=1S/C13H14O8/c1-8(14)20-12(18)6-5-10(3-4-11(16)17)7-13(12,19)21-9(2)15/h3-7,18-19H,1-2H3,(H,16,17)/b4-3+
InChIKey=ZQVDDXAKNZAABJ-ONEGZZNKSA-N

> <PUBCHEM_SUBSTANCE_SYNONYM>
SCHEMBL16114329

> <PUBCHEM_XREF_EXT_ID>
SCHEMBL16114329

> <PUBCHEM_EXT_DATASOURCE_URL>
https://www.surechembl.org/

> <PUBCHEM_EXT_SUBSTANCE_URL>
https://www.surechembl.org/chemical/SCHEMBL16114329

> <PUBCHEM_CID_ASSOCIATIONS>
117604570  1

> <PUBCHEM_COORDINATE_TYPE>
1
3

> <PUBCHEM_BONDANNOTATIONS>
17  18  1

$$$$
