310936461
  -OEChem-07211613022D

 27 29  0     1  0  0  0  0  0999 V2000
    0.8250   -0.7250    0.0000 Cl  0  0  0  0  0  0  0  0  0  0  0  0
    0.0000   -2.1500    0.0000 Cl  0  0  0  0  0  0  0  0  0  0  0  0
    1.4000   -2.9501    0.0000 S   0  0  0  0  0  0  0  0  0  0  0  0
    4.5251   -2.8501    0.0000 O   0  0  0  0  0  0  0  0  0  0  0  0
    4.5251    0.0000    0.0000 O   0  0  0  0  0  0  0  0  0  0  0  0
    5.7751   -0.7250    0.0000 O   0  0  0  0  0  0  0  0  0  0  0  0
    4.5251   -1.4251    0.0000 N   0  0  0  0  0  0  0  0  0  0  0  0
    3.3001   -3.5751    0.0000 C   0  0  0  0  0  0  0  0  0  0  0  0
    3.7001   -2.8501    0.0000 C   0  0  3  0  0  0  0  0  0  0  0  0
    3.3001   -2.1500    0.0000 C   0  0  3  0  0  0  0  0  0  0  0  0
    2.4751   -3.5751    0.0000 C   0  0  0  0  0  0  0  0  0  0  0  0
    2.4751   -2.1500    0.0000 C   0  0  0  0  0  0  0  0  0  0  0  0
    2.2250   -3.0250    0.0000 C   0  0  0  0  0  0  0  0  0  0  0  0
    3.7001   -4.3001    0.0000 C   0  0  0  0  0  0  0  0  0  0  0  0
    2.0501   -1.4251    0.0000 C   0  0  0  0  0  0  0  0  0  0  0  0
    2.0751   -4.2751    0.0000 C   0  0  0  0  0  0  0  0  0  0  0  0
    2.0501   -2.8501    0.0000 C   0  0  0  0  0  0  0  0  0  0  0  0
    3.7001   -1.4251    0.0000 C   0  0  0  0  0  0  0  0  0  0  0  0
    1.2500   -1.4251    0.0000 C   0  0  0  0  0  0  0  0  0  0  0  0
    0.8250   -2.1500    0.0000 C   0  0  0  0  0  0  0  0  0  0  0  0
    2.3750   -2.1001    0.0000 C   0  0  0  0  0  0  0  0  0  0  0  0
    1.2500   -2.8501    0.0000 C   0  0  0  0  0  0  0  0  0  0  0  0
    3.3001   -5.0001    0.0000 C   0  0  0  0  0  0  0  0  0  0  0  0
    2.4751   -5.0001    0.0000 C   0  0  0  0  0  0  0  0  0  0  0  0
    1.0500   -1.9750    0.0000 C   0  0  0  0  0  0  0  0  0  0  0  0
    1.7750   -1.5750    0.0000 C   0  0  0  0  0  0  0  0  0  0  0  0
    4.9501   -0.7250    0.0000 C   0  0  0  0  0  0  0  0  0  0  0  0
  1 19  1  0  0  0  0
  2 20  1  0  0  0  0
  3 13  1  0  0  0  0
  3 25  1  0  0  0  0
  4  9  1  0  0  0  0
  5 27  2  0  0  0  0
  6 27  1  0  0  0  0
  7 18  1  0  0  0  0
  7 27  1  0  0  0  0
  8  9  1  0  0  0  0
  8 11  1  0  0  0  0
  8 14  2  0  0  0  0
  9 10  1  0  0  0  0
 10 12  1  0  0  0  0
 10 18  1  0  0  0  0
 11 13  1  0  0  0  0
 11 16  2  0  0  0  0
 12 15  1  0  0  0  0
 12 17  2  0  0  0  0
 13 21  2  0  0  0  0
 14 23  1  0  0  0  0
 15 19  2  0  0  0  0
 16 24  1  0  0  0  0
 17 22  1  0  0  0  0
 19 20  1  0  0  0  0
 20 22  2  0  0  0  0
 21 26  1  0  0  0  0
 23 24  2  0  0  0  0
 25 26  2  0  0  0  0
M  END
> <PUBCHEM_COMPOUND_ID_TYPE>
0

> <PUBCHEM_TOTAL_CHARGE>
0

> <PUBCHEM_SUBSTANCE_ID>
310936461

> <PUBCHEM_SUBSTANCE_VERSION>
1

> <PUBCHEM_EXT_DATASOURCE_NAME>
4488

> <PUBCHEM_EXT_DATASOURCE_REGID>
SCHEMBL16114104

> <PUBCHEM_SUBSTANCE_COMMENT>
InChI=1S/C20H17Cl2NO3S/c21-16-8-7-12(10-17(16)22)15(11-23-20(25)26)19(24)14-5-2-1-4-13(14)18-6-3-9-27-18/h1-10,15,19,23-24H,11H2,(H,25,26)
InChIKey=GYZMNMODKPYJCL-UHFFFAOYSA-N

> <PUBCHEM_SUBSTANCE_SYNONYM>
SCHEMBL16114104

> <PUBCHEM_XREF_EXT_ID>
SCHEMBL16114104

> <PUBCHEM_EXT_DATASOURCE_URL>
https://www.surechembl.org/

> <PUBCHEM_EXT_SUBSTANCE_URL>
https://www.surechembl.org/chemical/SCHEMBL16114104

> <PUBCHEM_CID_ASSOCIATIONS>
117604392  1

> <PUBCHEM_COORDINATE_TYPE>
1
3

$$$$
