310941204
  -OEChem-07211613022D

 11 11  0     1  0  0  0  0  0999 V2000
    1.7752   -0.1205    0.0000 O   0  0  0  0  0  0  0  0  0  0  0  0
   -0.5864    1.0201    0.0000 O   0  0  0  0  0  0  0  0  0  0  0  0
    1.0683    1.1166    0.0000 O   0  0  0  0  0  0  0  0  0  0  0  0
    0.3454   -0.1205    0.0000 C   0  0  3  0  0  0  0  0  0  0  0  0
   -0.4097    0.2330    0.0000 C   0  0  3  0  0  0  0  0  0  0  0  0
   -0.9559   -0.4097    0.0000 C   0  0  3  0  0  0  0  0  0  0  0  0
    1.0523    0.2651    0.0000 C   0  0  0  0  0  0  0  0  0  0  0  0
    0.2490   -0.9398    0.0000 C   0  0  0  0  0  0  0  0  0  0  0  0
   -0.5221   -1.1166    0.0000 C   0  0  0  0  0  0  0  0  0  0  0  0
   -1.7752   -0.3454    0.0000 C   0  0  0  0  0  0  0  0  0  0  0  0
    1.7752   -0.9719    0.0000 C   0  0  0  0  0  0  0  0  0  0  0  0
  1  7  1  0  0  0  0
  1 11  1  0  0  0  0
  2  5  1  0  0  0  0
  3  7  2  0  0  0  0
  4  5  1  0  0  0  0
  4  7  1  0  0  0  0
  4  8  1  0  0  0  0
  5  6  1  0  0  0  0
  6  9  1  0  0  0  0
  6 10  1  0  0  0  0
  8  9  1  0  0  0  0
M  END
> <PUBCHEM_COMPOUND_ID_TYPE>
0

> <PUBCHEM_TOTAL_CHARGE>
0

> <PUBCHEM_SUBSTANCE_ID>
310941204

> <PUBCHEM_SUBSTANCE_VERSION>
1

> <PUBCHEM_EXT_DATASOURCE_NAME>
4488

> <PUBCHEM_EXT_DATASOURCE_REGID>
SCHEMBL16119164

> <PUBCHEM_SUBSTANCE_COMMENT>
InChI=1S/C8H14O3/c1-5-3-4-6(7(5)9)8(10)11-2/h5-7,9H,3-4H2,1-2H3
InChIKey=FMYPLDHLBRTIBX-UHFFFAOYSA-N

> <PUBCHEM_SUBSTANCE_SYNONYM>
SCHEMBL16119164

> <PUBCHEM_XREF_EXT_ID>
SCHEMBL16119164

> <PUBCHEM_EXT_DATASOURCE_URL>
https://www.surechembl.org/

> <PUBCHEM_EXT_SUBSTANCE_URL>
https://www.surechembl.org/chemical/SCHEMBL16119164

> <PUBCHEM_CID_ASSOCIATIONS>
117608075  1

> <PUBCHEM_COORDINATE_TYPE>
1
3

$$$$
