310947357
  -OEChem-07211613022D

 43 48  0     1  0  0  0  0  0999 V2000
   -2.1753    1.6644    0.0000 O   0  0  0  0  0  0  0  0  0  0  0  0
   -5.0332    0.8395    0.0000 O   0  0  0  0  0  0  0  0  0  0  0  0
    5.1071   -0.3404    0.0000 O   0  0  0  0  0  0  0  0  0  0  0  0
    3.7268   -0.7102    0.0000 O   0  0  0  0  0  0  0  0  0  0  0  0
    0.7528   -0.6530    0.0000 N   0  0  0  0  0  0  0  0  0  0  0  0
    1.2377    0.0144    0.0000 N   0  0  0  0  0  0  0  0  0  0  0  0
   -2.8897    0.4269    0.0000 N   0  0  0  0  0  0  0  0  0  0  0  0
   -0.0319   -0.3981    0.0000 C   0  0  0  0  0  0  0  0  0  0  0  0
   -0.0319    0.4269    0.0000 C   0  0  0  0  0  0  0  0  0  0  0  0
    0.7528    0.6818    0.0000 C   0  0  0  0  0  0  0  0  0  0  0  0
   -0.7464    0.8395    0.0000 C   0  0  0  0  0  0  0  0  0  0  0  0
   -1.4608    0.4269    0.0000 C   0  0  0  0  0  0  0  0  0  0  0  0
   -0.7464   -0.8106    0.0000 C   0  0  0  0  0  0  0  0  0  0  0  0
    0.9663   -1.4499    0.0000 C   0  0  0  0  0  0  0  0  0  0  0  0
   -1.4608   -0.3981    0.0000 C   0  0  0  0  0  0  0  0  0  0  0  0
   -2.1753    0.8395    0.0000 C   0  0  0  0  0  0  0  0  0  0  0  0
    1.7632   -1.6635    0.0000 C   0  0  0  0  0  0  0  0  0  0  0  0
    4.1538   -2.3040    0.0000 C   0  0  0  0  0  0  0  0  0  0  0  0
    3.3569   -2.0905    0.0000 C   0  0  0  0  0  0  0  0  0  0  0  0
    4.7372   -1.7206    0.0000 C   0  0  0  0  0  0  0  0  0  0  0  0
    1.1652    1.3964    0.0000 C   0  0  0  0  0  0  0  0  0  0  0  0
    1.9768   -2.4603    0.0000 C   0  0  0  0  0  0  0  0  0  0  0  0
    2.3466   -1.0801    0.0000 C   0  0  0  0  0  0  0  0  0  0  0  0
   -3.6042    0.8395    0.0000 C   0  0  3  0  0  0  0  0  0  0  0  0
    2.7736   -2.6738    0.0000 C   0  0  0  0  0  0  0  0  0  0  0  0
    3.1435   -1.2936    0.0000 C   0  0  0  0  0  0  0  0  0  0  0  0
    4.5238   -0.9237    0.0000 C   0  0  0  0  0  0  0  0  0  0  0  0
   -4.3187    2.0769    0.0000 C   0  0  0  0  0  0  0  0  0  0  0  0
   -5.0332    1.6644    0.0000 C   0  0  0  0  0  0  0  0  0  0  0  0
    4.3674   -3.1009    0.0000 C   0  0  0  0  0  0  0  0  0  0  0  0
   -3.6042    1.6644    0.0000 C   0  0  0  0  0  0  0  0  0  0  0  0
    5.5341   -1.9342    0.0000 C   0  0  0  0  0  0  0  0  0  0  0  0
   -4.3187    0.4269    0.0000 C   0  0  0  0  0  0  0  0  0  0  0  0
    5.1643   -3.3145    0.0000 C   0  0  0  0  0  0  0  0  0  0  0  0
    5.7477   -2.7311    0.0000 C   0  0  0  0  0  0  0  0  0  0  0  0
   -4.3187    2.9020    0.0000 C   0  0  0  0  0  0  0  0  0  0  0  0
    4.8936    0.4565    0.0000 C   0  0  0  0  0  0  0  0  0  0  0  0
   -5.7477    2.0769    0.0000 C   0  0  0  0  0  0  0  0  0  0  0  0
   -5.0332    3.3145    0.0000 C   0  0  0  0  0  0  0  0  0  0  0  0
   -5.7477    2.9020    0.0000 C   0  0  0  0  0  0  0  0  0  0  0  0
    4.0967    0.6700    0.0000 C   0  0  0  0  0  0  0  0  0  0  0  0
    5.4769    1.0399    0.0000 C   0  0  0  0  0  0  0  0  0  0  0  0
    4.6800    1.2533    0.0000 C   0  0  0  0  0  0  0  0  0  0  0  0
  1 16  2  0  0  0  0
  2 29  1  0  0  0  0
  2 33  1  0  0  0  0
  3 27  1  0  0  0  0
  3 37  1  0  0  0  0
  4 27  2  0  0  0  0
  5  6  1  0  0  0  0
  5  8  1  0  0  0  0
  5 14  1  0  0  0  0
  6 10  2  0  0  0  0
  7 16  1  0  0  0  0
  7 24  1  0  0  0  0
  8  9  1  0  0  0  0
  8 13  2  0  0  0  0
  9 10  1  0  0  0  0
  9 11  2  0  0  0  0
 10 21  1  0  0  0  0
 11 12  1  0  0  0  0
 12 15  2  0  0  0  0
 12 16  1  0  0  0  0
 13 15  1  0  0  0  0
 14 17  1  0  0  0  0
 17 22  2  0  0  0  0
 17 23  1  0  0  0  0
 18 19  1  0  0  0  0
 18 20  1  0  0  0  0
 18 30  2  0  0  0  0
 19 25  2  0  0  0  0
 19 26  1  0  0  0  0
 20 27  1  0  0  0  0
 20 32  2  0  0  0  0
 22 25  1  0  0  0  0
 23 26  2  0  0  0  0
 24 31  1  0  0  0  0
 24 33  1  0  0  0  0
 28 29  2  0  0  0  0
 28 31  1  0  0  0  0
 28 36  1  0  0  0  0
 29 38  1  0  0  0  0
 30 34  1  0  0  0  0
 32 35  1  0  0  0  0
 34 35  2  0  0  0  0
 36 39  2  0  0  0  0
 37 41  1  0  0  0  0
 37 42  1  0  0  0  0
 37 43  1  0  0  0  0
 38 40  2  0  0  0  0
 39 40  1  0  0  0  0
M  END
> <PUBCHEM_COMPOUND_ID_TYPE>
0

> <PUBCHEM_TOTAL_CHARGE>
0

> <PUBCHEM_SUBSTANCE_ID>
310947357

> <PUBCHEM_SUBSTANCE_VERSION>
1

> <PUBCHEM_EXT_DATASOURCE_NAME>
4488

> <PUBCHEM_EXT_DATASOURCE_REGID>
SCHEMBL16125512

> <PUBCHEM_SUBSTANCE_COMMENT>
InChI=1S/C36H35N3O4/c1-23-31-20-27(34(40)37-28-19-26-9-5-8-12-33(26)42-22-28)17-18-32(31)39(38-23)21-24-13-15-25(16-14-24)29-10-6-7-11-30(29)35(41)43-36(2,3)4/h5-18,20,28H,19,21-22H2,1-4H3,(H,37,40)
InChIKey=UKPFHQTUTFUMSH-UHFFFAOYSA-N

> <PUBCHEM_SUBSTANCE_SYNONYM>
SCHEMBL16125512

> <PUBCHEM_XREF_EXT_ID>
SCHEMBL16125512

> <PUBCHEM_EXT_DATASOURCE_URL>
https://www.surechembl.org/

> <PUBCHEM_EXT_SUBSTANCE_URL>
https://www.surechembl.org/chemical/SCHEMBL16125512

> <PUBCHEM_CID_ASSOCIATIONS>
117613102  1

> <PUBCHEM_COORDINATE_TYPE>
1
3

$$$$
