310939607
  -OEChem-07211613022D

 32 35  0     1  0  0  0  0  0999 V2000
   -1.4289   -3.3158    0.0000 O   0  0  0  0  0  0  0  0  0  0  0  0
    0.0000   -6.6158    0.0000 O   0  0  0  0  0  0  0  0  0  0  0  0
   -2.8579   -4.1408    0.0000 O   0  0  0  0  0  0  0  0  0  0  0  0
    2.1434   -2.9033    0.0000 N   0  0  0  0  0  0  0  0  0  0  0  0
    1.4289   -4.1408    0.0000 N   0  0  0  0  0  0  0  0  0  0  0  0
    3.5724   -2.9033    0.0000 N   0  0  0  0  0  0  0  0  0  0  0  0
    2.1434   -5.3783    0.0000 N   0  0  0  0  0  0  0  0  0  0  0  0
   -4.2868   -3.3158    0.0000 N   0  0  0  0  0  0  0  0  0  0  0  0
    1.4289   -3.3158    0.0000 C   0  0  0  0  0  0  0  0  0  0  0  0
    2.8579   -3.3158    0.0000 C   0  0  0  0  0  0  0  0  0  0  0  0
    0.7145   -2.9033    0.0000 C   0  0  0  0  0  0  0  0  0  0  0  0
    2.1434   -4.5533    0.0000 C   0  0  0  0  0  0  0  0  0  0  0  0
    2.8579   -4.1408    0.0000 C   0  0  0  0  0  0  0  0  0  0  0  0
    0.0000   -3.3158    0.0000 C   0  0  0  0  0  0  0  0  0  0  0  0
    0.7145   -2.0783    0.0000 C   0  0  0  0  0  0  0  0  0  0  0  0
   -0.7145   -2.9033    0.0000 C   0  0  0  0  0  0  0  0  0  0  0  0
    1.4289   -5.7908    0.0000 C   0  0  0  0  0  0  0  0  0  0  0  0
    4.2868   -3.3158    0.0000 C   0  0  0  0  0  0  0  0  0  0  0  0
    3.5724   -2.0783    0.0000 C   0  0  0  0  0  0  0  0  0  0  0  0
    0.0000   -1.6658    0.0000 C   0  0  0  0  0  0  0  0  0  0  0  0
   -0.7145   -2.0783    0.0000 C   0  0  0  0  0  0  0  0  0  0  0  0
    5.0013   -2.9033    0.0000 C   0  0  0  0  0  0  0  0  0  0  0  0
    4.2868   -1.6658    0.0000 C   0  0  0  0  0  0  0  0  0  0  0  0
    0.7145   -5.3783    0.0000 C   0  0  0  0  0  0  0  0  0  0  0  0
    1.4289   -6.6158    0.0000 C   0  0  0  0  0  0  0  0  0  0  0  0
    5.0013   -2.0783    0.0000 C   0  0  0  0  0  0  0  0  0  0  0  0
   -2.1434   -2.9033    0.0000 C   0  0  0  0  0  0  0  0  0  0  0  0
    0.0000   -5.7908    0.0000 C   0  0  0  0  0  0  0  0  0  0  0  0
    0.7145   -7.0283    0.0000 C   0  0  0  0  0  0  0  0  0  0  0  0
   -2.8579   -3.3158    0.0000 C   0  0  3  0  0  0  0  0  0  0  0  0
   -3.5724   -2.9033    0.0000 C   0  0  0  0  0  0  0  0  0  0  0  0
   -5.0013   -2.9033    0.0000 C   0  0  0  0  0  0  0  0  0  0  0  0
  1 16  1  0  0  0  0
  1 27  1  0  0  0  0
  2 28  1  0  0  0  0
  2 29  1  0  0  0  0
  3 30  1  0  0  0  0
  4  9  2  0  0  0  0
  4 10  1  0  0  0  0
  5  9  1  0  0  0  0
  5 12  2  0  0  0  0
  6 10  1  0  0  0  0
  6 18  1  0  0  0  0
  6 19  1  0  0  0  0
  7 12  1  0  0  0  0
  7 17  1  0  0  0  0
  8 31  1  0  0  0  0
  8 32  1  0  0  0  0
  9 11  1  0  0  0  0
 10 13  2  0  0  0  0
 11 14  2  0  0  0  0
 11 15  1  0  0  0  0
 12 13  1  0  0  0  0
 14 16  1  0  0  0  0
 15 20  2  0  0  0  0
 16 21  2  0  0  0  0
 17 24  1  0  0  0  0
 17 25  1  0  0  0  0
 18 22  1  0  0  0  0
 19 23  1  0  0  0  0
 20 21  1  0  0  0  0
 22 26  1  0  0  0  0
 23 26  1  0  0  0  0
 24 28  1  0  0  0  0
 25 29  1  0  0  0  0
 27 30  1  0  0  0  0
 30 31  1  0  0  0  0
M  END
> <PUBCHEM_COMPOUND_ID_TYPE>
0

> <PUBCHEM_TOTAL_CHARGE>
0

> <PUBCHEM_SUBSTANCE_ID>
310939607

> <PUBCHEM_SUBSTANCE_VERSION>
1

> <PUBCHEM_EXT_DATASOURCE_NAME>
4488

> <PUBCHEM_EXT_DATASOURCE_REGID>
SCHEMBL16117537

> <PUBCHEM_SUBSTANCE_COMMENT>
InChI=1S/C24H35N5O3/c1-25-16-20(30)17-32-21-7-5-6-18(14-21)24-27-22(26-19-8-12-31-13-9-19)15-23(28-24)29-10-3-2-4-11-29/h5-7,14-15,19-20,25,30H,2-4,8-13,16-17H2,1H3,(H,26,27,28)
InChIKey=CEXKXRUSQPUEAF-UHFFFAOYSA-N

> <PUBCHEM_SUBSTANCE_SYNONYM>
SCHEMBL16117537

> <PUBCHEM_XREF_EXT_ID>
SCHEMBL16117537

> <PUBCHEM_EXT_DATASOURCE_URL>
https://www.surechembl.org/

> <PUBCHEM_EXT_SUBSTANCE_URL>
https://www.surechembl.org/chemical/SCHEMBL16117537

> <PUBCHEM_CID_ASSOCIATIONS>
117606862  1

> <PUBCHEM_COORDINATE_TYPE>
1
3

$$$$
