310945920
  -OEChem-07211613022D

 36 38  0     1  0  0  0  0  0999 V2000
    3.6670    0.6845    0.0000 O   0  0  0  0  0  0  0  0  0  0  0  0
    2.5216   -1.2852    0.0000 O   0  0  0  0  0  0  0  0  0  0  0  0
    0.3562    0.7963    0.0000 O   0  0  0  0  0  0  0  0  0  0  0  0
   -1.8091   -1.2852    0.0000 O   0  0  0  0  0  0  0  0  0  0  0  0
    2.5216   -2.9616    0.0000 O   0  0  0  0  0  0  0  0  0  0  0  0
   -3.9884   -0.0280    0.0000 O   0  0  0  0  0  0  0  0  0  0  0  0
    1.0687   -0.4470    0.0000 N   0  0  0  0  0  0  0  0  0  0  0  0
   -1.0966   -0.0280    0.0000 N   0  0  0  0  0  0  0  0  0  0  0  0
   -2.5494    0.8103    0.0000 N   0  0  0  0  0  0  0  0  0  0  0  0
    3.2340   -0.0139    0.0000 C   0  0  3  0  0  0  0  0  0  0  0  0
    2.5075   -0.4191    0.0000 C   0  0  0  0  0  0  0  0  0  0  0  0
    2.8428    0.6845    0.0000 C   0  0  0  0  0  0  0  0  0  0  0  0
    1.7811   -0.0280    0.0000 C   0  0  3  0  0  0  0  0  0  0  0  0
    3.9884   -0.4331    0.0000 C   0  0  0  0  0  0  0  0  0  0  0  0
    1.7951    1.3132    0.0000 C   0  0  0  0  0  0  0  0  0  0  0  0
    0.3283   -0.0419    0.0000 C   0  0  0  0  0  0  0  0  0  0  0  0
   -0.3702   -0.4470    0.0000 C   0  0  3  0  0  0  0  0  0  0  0  0
    1.0547    1.7322    0.0000 C   0  0  0  0  0  0  0  0  0  0  0  0
   -0.3702   -1.2713    0.0000 C   0  0  0  0  0  0  0  0  0  0  0  0
   -1.8230   -0.4191    0.0000 C   0  0  0  0  0  0  0  0  0  0  0  0
    0.3562   -1.7043    0.0000 C   0  0  0  0  0  0  0  0  0  0  0  0
   -2.5494   -0.0280    0.0000 C   0  0  3  0  0  0  0  0  0  0  0  0
    1.0687    2.5564    0.0000 C   0  0  0  0  0  0  0  0  0  0  0  0
    0.3562    1.3132    0.0000 C   0  0  0  0  0  0  0  0  0  0  0  0
    1.0547   -1.2992    0.0000 C   0  0  0  0  0  0  0  0  0  0  0  0
    0.3562   -2.5285    0.0000 C   0  0  0  0  0  0  0  0  0  0  0  0
    1.7811   -2.5285    0.0000 C   0  0  0  0  0  0  0  0  0  0  0  0
    1.7811   -1.7043    0.0000 C   0  0  0  0  0  0  0  0  0  0  0  0
    1.0826   -2.9476    0.0000 C   0  0  0  0  0  0  0  0  0  0  0  0
    0.3283    2.9616    0.0000 C   0  0  0  0  0  0  0  0  0  0  0  0
   -0.3702    1.7322    0.0000 C   0  0  0  0  0  0  0  0  0  0  0  0
   -3.2480   -0.4331    0.0000 C   0  0  0  0  0  0  0  0  0  0  0  0
   -0.3702    2.5704    0.0000 C   0  0  0  0  0  0  0  0  0  0  0  0
   -3.2899    1.2153    0.0000 C   0  0  0  0  0  0  0  0  0  0  0  0
   -1.8091    1.2433    0.0000 C   0  0  0  0  0  0  0  0  0  0  0  0
    3.2340   -2.5285    0.0000 C   0  0  0  0  0  0  0  0  0  0  0  0
  1 10  1  0  0  0  0
  1 12  1  0  0  0  0
  2 11  2  0  0  0  0
  3 16  2  0  0  0  0
  4 20  2  0  0  0  0
  5 27  1  0  0  0  0
  5 36  1  0  0  0  0
  6 32  1  0  0  0  0
  7 13  1  0  0  0  0
  7 16  1  0  0  0  0
  8 17  1  0  0  0  0
  8 20  1  0  0  0  0
  9 22  1  0  0  0  0
  9 34  1  0  0  0  0
  9 35  1  0  0  0  0
 10 11  1  0  0  0  0
 10 12  1  0  0  0  0
 10 14  1  0  0  0  0
 11 13  1  0  0  0  0
 13 15  1  0  0  0  0
 15 18  1  0  0  0  0
 16 17  1  0  0  0  0
 17 19  1  0  0  0  0
 18 23  2  0  0  0  0
 18 24  1  0  0  0  0
 19 21  1  0  0  0  0
 20 22  1  0  0  0  0
 21 25  2  0  0  0  0
 21 26  1  0  0  0  0
 22 32  1  0  0  0  0
 23 30  1  0  0  0  0
 24 31  2  0  0  0  0
 25 28  1  0  0  0  0
 26 29  2  0  0  0  0
 27 28  2  0  0  0  0
 27 29  1  0  0  0  0
 30 33  2  0  0  0  0
 31 33  1  0  0  0  0
M  END
> <PUBCHEM_COMPOUND_ID_TYPE>
0

> <PUBCHEM_TOTAL_CHARGE>
0

> <PUBCHEM_SUBSTANCE_ID>
310945920

> <PUBCHEM_SUBSTANCE_VERSION>
1

> <PUBCHEM_EXT_DATASOURCE_NAME>
4488

> <PUBCHEM_EXT_DATASOURCE_REGID>
SCHEMBL16124025

> <PUBCHEM_SUBSTANCE_COMMENT>
InChI=1S/C27H35N3O6/c1-27(17-36-27)24(32)21(14-18-8-6-5-7-9-18)28-25(33)22(29-26(34)23(16-31)30(2)3)15-19-10-12-20(35-4)13-11-19/h5-13,21-23,31H,14-17H2,1-4H3,(H,28,33)(H,29,34)
InChIKey=YIZROMPXTPUIFK-UHFFFAOYSA-N

> <PUBCHEM_SUBSTANCE_SYNONYM>
SCHEMBL16124025

> <PUBCHEM_XREF_EXT_ID>
SCHEMBL16124025

> <PUBCHEM_EXT_DATASOURCE_URL>
https://www.surechembl.org/

> <PUBCHEM_EXT_SUBSTANCE_URL>
https://www.surechembl.org/chemical/SCHEMBL16124025

> <PUBCHEM_CID_ASSOCIATIONS>
117611903  1

> <PUBCHEM_COORDINATE_TYPE>
1
3

$$$$
