310939450
  -OEChem-07211613022D

 31 34  0     1  0  0  0  0  0999 V2000
    3.0075   -0.7626    0.0000 O   0  0  0  0  0  0  0  0  0  0  0  0
   -2.2294   -0.3210    0.0000 O   0  0  0  0  0  0  0  0  0  0  0  0
   -0.2085   -2.3418    0.0000 O   0  0  0  0  0  0  0  0  0  0  0  0
   -3.6096   -0.6908    0.0000 O   0  0  0  0  0  0  0  0  0  0  0  0
    1.6256   -0.6901    0.0000 N   0  0  0  0  0  0  0  0  0  0  0  0
    1.2131   -1.9597    0.0000 N   0  0  0  0  0  0  0  0  0  0  0  0
    2.0381   -1.9597    0.0000 N   0  0  0  0  0  0  0  0  0  0  0  0
    3.1247    1.6273    0.0000 N   0  0  0  0  0  0  0  0  0  0  0  0
    3.1247    0.2924    0.0000 N   0  0  0  0  0  0  0  0  0  0  0  0
    0.9582   -1.1751    0.0000 C   0  0  0  0  0  0  0  0  0  0  0  0
    1.6256    0.1349    0.0000 C   0  0  0  0  0  0  0  0  0  0  0  0
    2.3401    0.5474    0.0000 C   0  0  0  0  0  0  0  0  0  0  0  0
    0.1613   -0.9615    0.0000 C   0  0  0  0  0  0  0  0  0  0  0  0
    2.2931   -1.1751    0.0000 C   0  0  3  0  0  0  0  0  0  0  0  0
    2.3401    1.3724    0.0000 C   0  0  0  0  0  0  0  0  0  0  0  0
   -0.4221   -1.5449    0.0000 C   0  0  0  0  0  0  0  0  0  0  0  0
    0.9111    0.5474    0.0000 C   0  0  0  0  0  0  0  0  0  0  0  0
   -0.0522   -0.1646    0.0000 C   0  0  0  0  0  0  0  0  0  0  0  0
   -0.8491    0.0489    0.0000 C   0  0  0  0  0  0  0  0  0  0  0  0
   -1.4325   -0.5345    0.0000 C   0  0  0  0  0  0  0  0  0  0  0  0
    1.6256    1.7849    0.0000 C   0  0  0  0  0  0  0  0  0  0  0  0
   -1.2190   -1.3314    0.0000 C   0  0  0  0  0  0  0  0  0  0  0  0
    3.6096    0.9599    0.0000 C   0  0  0  0  0  0  0  0  0  0  0  0
    0.9111    1.3724    0.0000 C   0  0  0  0  0  0  0  0  0  0  0  0
   -1.0627    0.8458    0.0000 C   0  0  0  0  0  0  0  0  0  0  0  0
    3.5372    2.3418    0.0000 C   0  0  0  0  0  0  0  0  0  0  0  0
   -2.8127   -0.9043    0.0000 C   0  0  0  0  0  0  0  0  0  0  0  0
   -2.5992   -1.7012    0.0000 C   0  0  0  0  0  0  0  0  0  0  0  0
   -0.4793    1.4291    0.0000 C   0  0  0  0  0  0  0  0  0  0  0  0
   -3.1826   -2.2846    0.0000 C   0  0  0  0  0  0  0  0  0  0  0  0
   -1.8023   -1.9147    0.0000 C   0  0  0  0  0  0  0  0  0  0  0  0
  1 14  1  0  0  0  0
  2 20  1  0  0  0  0
  2 27  1  0  0  0  0
  3 16  1  0  0  0  0
  4 27  2  0  0  0  0
  5 10  1  0  0  0  0
  5 11  1  0  0  0  0
  5 14  1  0  0  0  0
  6  7  1  0  0  0  0
  6 10  2  0  0  0  0
  7 14  1  0  0  0  0
  8 15  1  0  0  0  0
  8 23  1  0  0  0  0
  8 26  1  0  0  0  0
  9 12  1  0  0  0  0
  9 23  2  0  0  0  0
 10 13  1  0  0  0  0
 11 12  2  0  0  0  0
 11 17  1  0  0  0  0
 12 15  1  0  0  0  0
 13 16  1  0  0  0  0
 13 18  2  0  0  0  0
 15 21  2  0  0  0  0
 16 22  2  0  0  0  0
 17 24  2  0  0  0  0
 18 19  1  0  0  0  0
 19 20  2  0  0  0  0
 19 25  1  0  0  0  0
 20 22  1  0  0  0  0
 21 24  1  0  0  0  0
 25 29  1  0  0  0  0
 27 28  1  0  0  0  0
 28 30  1  0  0  0  0
 28 31  1  0  0  0  0
M  END
> <PUBCHEM_COMPOUND_ID_TYPE>
0

> <PUBCHEM_TOTAL_CHARGE>
0

> <PUBCHEM_SUBSTANCE_ID>
310939450

> <PUBCHEM_SUBSTANCE_VERSION>
1

> <PUBCHEM_EXT_DATASOURCE_NAME>
4488

> <PUBCHEM_EXT_DATASOURCE_REGID>
SCHEMBL16117374

> <PUBCHEM_SUBSTANCE_COMMENT>
InChI=1S/C22H25N5O4/c1-5-13-9-14(17(28)10-18(13)31-21(29)12(2)3)20-24-25-22(30)27(20)16-8-6-7-15-19(16)23-11-26(15)4/h6-12,22,25,28,30H,5H2,1-4H3
InChIKey=OLIRSXJONCDTCP-UHFFFAOYSA-N

> <PUBCHEM_SUBSTANCE_SYNONYM>
SCHEMBL16117374

> <PUBCHEM_XREF_EXT_ID>
SCHEMBL16117374

> <PUBCHEM_EXT_DATASOURCE_URL>
https://www.surechembl.org/

> <PUBCHEM_EXT_SUBSTANCE_URL>
https://www.surechembl.org/chemical/SCHEMBL16117374

> <PUBCHEM_CID_ASSOCIATIONS>
117606766  1

> <PUBCHEM_COORDINATE_TYPE>
1
3

$$$$
