310931458
  -OEChem-07211613022D

 31 32  0     1  0  0  0  0  0999 V2000
    0.0000   -5.7465    0.0000 F   0  0  0  0  0  0  0  0  0  0  0  0
    0.8394    0.0000    0.0000 F   0  0  0  0  0  0  0  0  0  0  0  0
    2.2599   -0.8717    0.0000 F   0  0  0  0  0  0  0  0  0  0  0  0
    0.4197   -0.7103    0.0000 F   0  0  0  0  0  0  0  0  0  0  0  0
    0.0323   -4.2938    0.0000 O   0  0  0  0  0  0  0  0  0  0  0  0
    0.0323   -2.8732    0.0000 O   0  0  0  0  0  0  0  0  0  0  0  0
    2.0662   -3.5835    0.0000 O   0  5  0  0  0  0  0  0  0  0  0  0
    3.3253   -4.2938    0.0000 O   0  0  0  0  0  0  0  0  0  0  0  0
    2.0985   -0.7103    0.0000 O   0  0  0  0  0  0  0  0  0  0  0  0
    3.3253   -1.4528    0.0000 O   0  0  0  0  0  0  0  0  0  0  0  0
    1.2591   -3.5835    0.0000 N   0  0  0  0  0  0  0  0  0  0  0  0
    2.4859   -4.2938    0.0000 N   0  3  0  0  0  0  0  0  0  0  0  0
    2.0985   -2.1630    0.0000 N   0  0  0  0  0  0  0  0  0  0  0  0
    1.2591   -5.0363    0.0000 C   0  0  0  0  0  0  0  0  0  0  0  0
    0.8394   -4.2938    0.0000 C   0  0  0  0  0  0  0  0  0  0  0  0
    0.8394   -2.8732    0.0000 C   0  0  0  0  0  0  0  0  0  0  0  0
    2.0662   -5.0363    0.0000 C   0  0  0  0  0  0  0  0  0  0  0  0
    2.2599   -3.7449    0.0000 C   0  0  0  0  0  0  0  0  0  0  0  0
    0.8394   -5.7465    0.0000 C   0  0  0  0  0  0  0  0  0  0  0  0
    1.2591   -2.1630    0.0000 C   0  0  3  0  0  0  0  0  0  0  0  0
    2.4859   -5.7465    0.0000 C   0  0  0  0  0  0  0  0  0  0  0  0
    1.2591   -6.4568    0.0000 C   0  0  0  0  0  0  0  0  0  0  0  0
    0.8394   -1.4528    0.0000 C   0  0  0  0  0  0  0  0  0  0  0  0
    2.5182   -2.8732    0.0000 C   0  0  0  0  0  0  0  0  0  0  0  0
    2.6796   -4.4552    0.0000 C   0  0  0  0  0  0  0  0  0  0  0  0
    2.0662   -6.4568    0.0000 C   0  0  0  0  0  0  0  0  0  0  0  0
    1.2591   -0.7103    0.0000 C   0  0  0  0  0  0  0  0  0  0  0  0
    3.3253   -2.8732    0.0000 C   0  0  0  0  0  0  0  0  0  0  0  0
    3.4867   -4.4552    0.0000 C   0  0  0  0  0  0  0  0  0  0  0  0
    2.4859   -1.4528    0.0000 C   0  0  0  0  0  0  0  0  0  0  0  0
    3.7449   -3.5835    0.0000 C   0  0  0  0  0  0  0  0  0  0  0  0
  1 19  1  0  0  0  0
  2 27  1  0  0  0  0
  3 27  1  0  0  0  0
  4 27  1  0  0  0  0
  5 15  2  0  0  0  0
  6 16  2  0  0  0  0
  7 12  1  0  0  0  0
  8 12  2  0  0  0  0
  9 30  2  0  0  0  0
 10 30  1  0  0  0  0
 11 15  1  0  0  0  0
 11 16  1  0  0  0  0
 11 18  1  0  0  0  0
 12 17  1  0  0  0  0
 13 20  1  0  0  0  0
 13 30  1  0  0  0  0
 14 15  1  0  0  0  0
 14 17  1  0  0  0  0
 14 19  2  0  0  0  0
 16 20  1  0  0  0  0
 17 21  2  0  0  0  0
 18 24  2  0  0  0  0
 18 25  1  0  0  0  0
 19 22  1  0  0  0  0
 20 23  1  0  0  0  0
 21 26  1  0  0  0  0
 22 26  2  0  0  0  0
 23 27  1  0  0  0  0
 24 28  1  0  0  0  0
 25 29  2  0  0  0  0
 28 31  2  0  0  0  0
 29 31  1  0  0  0  0
M  CHG  2   7  -1  12   1
M  END
> <PUBCHEM_COMPOUND_ID_TYPE>
0

> <PUBCHEM_TOTAL_CHARGE>
0

> <PUBCHEM_SUBSTANCE_ID>
310931458

> <PUBCHEM_SUBSTANCE_VERSION>
1

> <PUBCHEM_EXT_DATASOURCE_NAME>
4488

> <PUBCHEM_EXT_DATASOURCE_REGID>
SCHEMBL16108783

> <PUBCHEM_SUBSTANCE_COMMENT>
InChI=1S/C18H13F4N3O6/c19-11-7-4-8-13(25(30)31)14(11)16(27)24(10-5-2-1-3-6-10)15(26)12(23-17(28)29)9-18(20,21)22/h1-8,12,23H,9H2,(H,28,29)
InChIKey=IVCVSRIGAKHWNH-UHFFFAOYSA-N

> <PUBCHEM_SUBSTANCE_SYNONYM>
SCHEMBL16108783

> <PUBCHEM_XREF_EXT_ID>
SCHEMBL16108783

> <PUBCHEM_EXT_DATASOURCE_URL>
https://www.surechembl.org/

> <PUBCHEM_EXT_SUBSTANCE_URL>
https://www.surechembl.org/chemical/SCHEMBL16108783

> <PUBCHEM_CID_ASSOCIATIONS>
117600229  1

> <PUBCHEM_COORDINATE_TYPE>
1
3

$$$$
