310940638
  -OEChem-07211613022D

 15 14  0     1  0  0  0  0  0999 V2000
   -0.1060    1.0307    0.0000 O   0  0  0  0  0  0  0  0  0  0  0  0
   -0.8270   -0.2078    0.0000 N   0  0  0  0  0  0  0  0  0  0  0  0
    0.6065   -1.0307    0.0000 N   0  0  0  0  0  0  0  0  0  0  0  0
   -3.6775   -0.2078    0.0000 N   0  0  0  0  0  0  0  0  0  0  0  0
    4.1864    0.2078    0.0000 N   0  0  0  0  0  0  0  0  0  0  0  0
   -0.0976    0.2163    0.0000 C   0  0  0  0  0  0  0  0  0  0  0  0
    0.6150   -0.1994    0.0000 C   0  0  3  0  0  0  0  0  0  0  0  0
    1.3192    0.2163    0.0000 C   0  0  0  0  0  0  0  0  0  0  0  0
   -1.5482    0.2163    0.0000 C   0  0  0  0  0  0  0  0  0  0  0  0
    2.0487   -0.1994    0.0000 C   0  0  0  0  0  0  0  0  0  0  0  0
   -2.2523   -0.1994    0.0000 C   0  0  0  0  0  0  0  0  0  0  0  0
    2.7528    0.2163    0.0000 C   0  0  0  0  0  0  0  0  0  0  0  0
   -2.9733    0.2163    0.0000 C   0  0  0  0  0  0  0  0  0  0  0  0
    3.4739   -0.1994    0.0000 C   0  0  0  0  0  0  0  0  0  0  0  0
   -4.1864    0.0806    0.0000 C   0  0  0  0  0  0  0  0  0  0  0  0
  1  6  2  0  0  0  0
  2  6  1  0  0  0  0
  2  9  1  0  0  0  0
  3  7  1  0  0  0  0
  4 13  1  0  0  0  0
  4 15  1  0  0  0  0
  5 14  1  0  0  0  0
  6  7  1  0  0  0  0
  7  8  1  0  0  0  0
  8 10  1  0  0  0  0
  9 11  1  0  0  0  0
 10 12  1  0  0  0  0
 11 13  1  0  0  0  0
 12 14  1  0  0  0  0
M  END
> <PUBCHEM_COMPOUND_ID_TYPE>
0

> <PUBCHEM_TOTAL_CHARGE>
0

> <PUBCHEM_SUBSTANCE_ID>
310940638

> <PUBCHEM_SUBSTANCE_VERSION>
1

> <PUBCHEM_EXT_DATASOURCE_NAME>
4488

> <PUBCHEM_EXT_DATASOURCE_REGID>
SCHEMBL16118593

> <PUBCHEM_SUBSTANCE_COMMENT>
InChI=1S/C10H24N4O/c1-13-7-4-8-14-10(15)9(12)5-2-3-6-11/h9,13H,2-8,11-12H2,1H3,(H,14,15)
InChIKey=METXTMPSYCZZIA-UHFFFAOYSA-N

> <PUBCHEM_SUBSTANCE_SYNONYM>
SCHEMBL16118593

> <PUBCHEM_XREF_EXT_ID>
SCHEMBL16118593

> <PUBCHEM_EXT_DATASOURCE_URL>
https://www.surechembl.org/

> <PUBCHEM_EXT_SUBSTANCE_URL>
https://www.surechembl.org/chemical/SCHEMBL16118593

> <PUBCHEM_CID_ASSOCIATIONS>
117607618  1

> <PUBCHEM_COORDINATE_TYPE>
1
3

$$$$
