310946812
  -OEChem-07211613022D

 15 14  0     1  0  0  0  0  0999 V2000
   -1.3265    1.0567    0.0000 P   0  0  0  0  0  0  0  0  0  0  0  0
   -2.3157    0.4946    0.0000 O   0  0  0  0  0  0  0  0  0  0  0  0
   -1.6187   -0.0224    0.0000 O   0  0  0  0  0  0  0  0  0  0  0  0
    3.7096    0.8543    0.0000 O   0  0  0  0  0  0  0  0  0  0  0  0
   -0.4496    0.4946    0.0000 C   0  0  0  0  0  0  0  0  0  0  0  0
    0.3822    1.0567    0.0000 C   0  0  0  0  0  0  0  0  0  0  0  0
    1.7311    0.7869    0.0000 C   0  0  3  0  0  0  0  0  0  0  0  0
    0.9668    0.6970    0.0000 C   0  0  0  0  0  0  0  0  0  0  0  0
   -2.4057   -0.2248    0.0000 C   0  0  0  0  0  0  0  0  0  0  0  0
   -2.9902    0.8993    0.0000 C   0  0  0  0  0  0  0  0  0  0  0  0
    2.1359    1.0567    0.0000 C   0  0  0  0  0  0  0  0  0  0  0  0
    1.3040    0.4946    0.0000 C   0  0  0  0  0  0  0  0  0  0  0  0
    2.9677    0.4946    0.0000 C   0  0  0  0  0  0  0  0  0  0  0  0
   -2.6080   -1.0567    0.0000 C   0  0  0  0  0  0  0  0  0  0  0  0
   -3.7096    0.4946    0.0000 C   0  0  0  0  0  0  0  0  0  0  0  0
  1  2  1  0  0  0  0
  1  3  1  0  0  0  0
  1  5  1  0  0  0  0
  2 10  1  0  0  0  0
  3  9  1  0  0  0  0
  4 13  2  0  0  0  0
  5  6  2  0  0  0  0
  6  8  1  0  0  0  0
  7  8  1  0  0  0  0
  7 11  1  0  0  0  0
  7 12  1  0  0  0  0
  9 14  1  0  0  0  0
 10 15  1  0  0  0  0
 11 13  1  0  0  0  0
M  END
> <PUBCHEM_COMPOUND_ID_TYPE>
0

> <PUBCHEM_TOTAL_CHARGE>
0

> <PUBCHEM_SUBSTANCE_ID>
310946812

> <PUBCHEM_SUBSTANCE_VERSION>
1

> <PUBCHEM_EXT_DATASOURCE_NAME>
4488

> <PUBCHEM_EXT_DATASOURCE_REGID>
SCHEMBL16124936

> <PUBCHEM_SUBSTANCE_COMMENT>
InChI=1S/C11H21O3P/c1-4-13-15(14-5-2)10-6-7-11(3)8-9-12/h6,9-11H,4-5,7-8H2,1-3H3/b10-6+
InChIKey=FXBYNWLJQKVHIF-UXBLZVDNSA-N

> <PUBCHEM_SUBSTANCE_SYNONYM>
SCHEMBL16124936

> <PUBCHEM_XREF_EXT_ID>
SCHEMBL16124936

> <PUBCHEM_EXT_DATASOURCE_URL>
https://www.surechembl.org/

> <PUBCHEM_EXT_SUBSTANCE_URL>
https://www.surechembl.org/chemical/SCHEMBL16124936

> <PUBCHEM_CID_ASSOCIATIONS>
117612673  1

> <PUBCHEM_COORDINATE_TYPE>
1
3

> <PUBCHEM_BONDANNOTATIONS>
8  7  3

$$$$
