310944732
  -OEChem-07211613022D

 29 31  0     1  0  0  0  0  0999 V2000
    0.8017    3.2131    0.0000 Cl  0  0  0  0  0  0  0  0  0  0  0  0
   -0.6402    0.7395    0.0000 O   0  0  0  0  0  0  0  0  0  0  0  0
    0.7893   -1.7464    0.0000 O   0  0  0  0  0  0  0  0  0  0  0  0
   -3.5115   -2.5792    0.0000 O   0  0  0  0  0  0  0  0  0  0  0  0
    0.9385   -0.0932    0.0000 N   0  0  0  0  0  0  0  0  0  0  0  0
    3.0391    3.4742    0.0000 N   0  0  3  0  0  0  0  0  0  0  0  0
   -0.6277   -1.7464    0.0000 N   0  0  0  0  0  0  0  0  0  0  0  0
    3.5239    2.8029    0.0000 N   0  0  0  0  0  0  0  0  0  0  0  0
   -2.0571   -2.5792    0.0000 N   0  0  0  0  0  0  0  0  0  0  0  0
    1.5227    1.9826    0.0000 C   0  0  0  0  0  0  0  0  0  0  0  0
    0.8017    0.7520    0.0000 C   0  0  0  0  0  0  0  0  0  0  0  0
    2.2187    2.3928    0.0000 C   0  0  3  0  0  0  0  0  0  0  0  0
    0.8017    2.3928    0.0000 C   0  0  0  0  0  0  0  0  0  0  0  0
    0.0808    1.1622    0.0000 C   0  0  0  0  0  0  0  0  0  0  0  0
    1.5227    1.1622    0.0000 C   0  0  0  0  0  0  0  0  0  0  0  0
    0.0932    1.9702    0.0000 C   0  0  0  0  0  0  0  0  0  0  0  0
    2.2436    3.2256    0.0000 C   0  0  0  0  0  0  0  0  0  0  0  0
    3.0267    2.1442    0.0000 C   0  0  0  0  0  0  0  0  0  0  0  0
    0.0684   -1.3238    0.0000 C   0  0  0  0  0  0  0  0  0  0  0  0
    0.0932   -0.5034    0.0000 C   0  0  0  0  0  0  0  0  0  0  0  0
   -1.3611   -1.3362    0.0000 C   0  0  0  0  0  0  0  0  0  0  0  0
   -0.6402   -2.5792    0.0000 C   0  0  0  0  0  0  0  0  0  0  0  0
   -2.0571   -1.7464    0.0000 C   0  0  0  0  0  0  0  0  0  0  0  0
   -1.3487   -2.9894    0.0000 C   0  0  0  0  0  0  0  0  0  0  0  0
   -2.7657   -2.9894    0.0000 C   0  0  0  0  0  0  0  0  0  0  0  0
    3.4369    4.1951    0.0000 C   0  0  0  0  0  0  0  0  0  0  0  0
   -1.3487    1.1498    0.0000 C   0  0  0  0  0  0  0  0  0  0  0  0
   -2.7905   -3.8222    0.0000 C   0  0  0  0  0  0  0  0  0  0  0  0
   -3.5239   -4.1951    0.0000 C   0  0  0  0  0  0  0  0  0  0  0  0
  1 13  1  0  0  0  0
  2 14  1  0  0  0  0
  2 27  1  0  0  0  0
  3 19  2  0  0  0  0
  4 25  2  0  0  0  0
  5 11  1  0  0  0  0
  5 20  1  0  0  0  0
  6  8  1  0  0  0  0
  6 17  1  0  0  0  0
  6 26  1  0  0  0  0
  7 19  1  0  0  0  0
  7 21  1  0  0  0  0
  7 22  1  0  0  0  0
  8 18  1  0  0  0  0
  9 23  1  0  0  0  0
  9 24  1  0  0  0  0
  9 25  1  0  0  0  0
 10 12  1  0  0  0  0
 10 13  1  0  0  0  0
 10 15  2  0  0  0  0
 11 14  2  0  0  0  0
 11 15  1  0  0  0  0
 12 17  1  0  0  0  0
 12 18  1  0  0  0  0
 13 16  2  0  0  0  0
 14 16  1  0  0  0  0
 19 20  1  0  0  0  0
 21 23  1  0  0  0  0
 22 24  1  0  0  0  0
 25 28  1  0  0  0  0
 28 29  2  0  0  0  0
M  END
> <PUBCHEM_COMPOUND_ID_TYPE>
0

> <PUBCHEM_TOTAL_CHARGE>
0

> <PUBCHEM_SUBSTANCE_ID>
310944732

> <PUBCHEM_SUBSTANCE_VERSION>
1

> <PUBCHEM_EXT_DATASOURCE_NAME>
4488

> <PUBCHEM_EXT_DATASOURCE_REGID>
SCHEMBL16122811

> <PUBCHEM_SUBSTANCE_COMMENT>
InChI=1S/C20H28ClN5O3/c1-4-19(27)25-5-7-26(8-6-25)20(28)12-22-17-9-15(14-11-23-24(2)13-14)16(21)10-18(17)29-3/h4,9-10,14,22-23H,1,5-8,11-13H2,2-3H3
InChIKey=OPKZWYNHMBZIHL-UHFFFAOYSA-N

> <PUBCHEM_SUBSTANCE_SYNONYM>
SCHEMBL16122811

> <PUBCHEM_XREF_EXT_ID>
SCHEMBL16122811

> <PUBCHEM_EXT_DATASOURCE_URL>
https://www.surechembl.org/

> <PUBCHEM_EXT_SUBSTANCE_URL>
https://www.surechembl.org/chemical/SCHEMBL16122811

> <PUBCHEM_CID_ASSOCIATIONS>
117610950  1

> <PUBCHEM_COORDINATE_TYPE>
1
3

$$$$
