310943787
  -OEChem-07211613022D

 21 24  0     1  0  0  0  0  0999 V2000
   -0.7923   -1.0176    0.0000 O   0  0  0  0  0  0  0  0  0  0  0  0
   -0.8359    1.8753    0.0000 O   0  0  0  0  0  0  0  0  0  0  0  0
    1.6064   -1.8753    0.0000 O   0  0  0  0  0  0  0  0  0  0  0  0
    2.9438   -1.4246    0.0000 O   0  0  0  0  0  0  0  0  0  0  0  0
    0.2254   -0.0291    0.0000 N   0  0  0  0  0  0  0  0  0  0  0  0
   -2.9438   -0.6833    0.0000 N   0  0  0  0  0  0  0  0  0  0  0  0
   -1.0394    0.4070    0.0000 C   0  0  0  0  0  0  0  0  0  0  0  0
   -0.5451   -0.2326    0.0000 C   0  0  0  0  0  0  0  0  0  0  0  0
   -0.5597    1.0612    0.0000 C   0  0  3  0  0  0  0  0  0  0  0  0
    1.0248   -0.7123    0.0000 C   0  0  0  0  0  0  0  0  0  0  0  0
   -1.8826    0.6251    0.0000 C   0  0  0  0  0  0  0  0  0  0  0  0
   -1.6500    0.0872    0.0000 C   0  0  0  0  0  0  0  0  0  0  0  0
    0.2544    0.7996    0.0000 C   0  0  0  0  0  0  0  0  0  0  0  0
   -2.0861   -0.8868    0.0000 C   0  0  3  0  0  0  0  0  0  0  0  0
   -2.2751   -0.3053    0.0000 C   0  0  3  0  0  0  0  0  0  0  0  0
    1.7954   -0.5960    0.0000 C   0  0  0  0  0  0  0  0  0  0  0  0
    0.8941   -1.5119    0.0000 C   0  0  0  0  0  0  0  0  0  0  0  0
    2.1297   -1.2793    0.0000 C   0  0  0  0  0  0  0  0  0  0  0  0
   -1.6064   -1.6572    0.0000 C   0  0  0  0  0  0  0  0  0  0  0  0
   -1.6936   -0.9304    0.0000 C   0  0  0  0  0  0  0  0  0  0  0  0
    2.1733    0.2180    0.0000 C   0  0  0  0  0  0  0  0  0  0  0  0
  1  8  2  0  0  0  0
  2  9  1  0  0  0  0
  3 17  1  0  0  0  0
  3 18  1  0  0  0  0
  4 18  2  0  0  0  0
  5  8  1  0  0  0  0
  5 10  1  0  0  0  0
  5 13  1  0  0  0  0
  6 14  1  0  0  0  0
  6 15  1  0  0  0  0
  7  8  1  0  0  0  0
  7  9  1  0  0  0  0
  7 11  1  0  0  0  0
  7 12  1  0  0  0  0
  9 13  1  0  0  0  0
 10 16  2  0  0  0  0
 10 17  1  0  0  0  0
 11 15  1  0  0  0  0
 12 14  1  0  0  0  0
 14 19  1  0  0  0  0
 15 20  1  0  0  0  0
 16 18  1  0  0  0  0
 16 21  1  0  0  0  0
 19 20  1  0  0  0  0
M  END
> <PUBCHEM_COMPOUND_ID_TYPE>
0

> <PUBCHEM_TOTAL_CHARGE>
0

> <PUBCHEM_SUBSTANCE_ID>
310943787

> <PUBCHEM_SUBSTANCE_VERSION>
1

> <PUBCHEM_EXT_DATASOURCE_NAME>
4488

> <PUBCHEM_EXT_DATASOURCE_REGID>
SCHEMBL16121857

> <PUBCHEM_SUBSTANCE_COMMENT>
InChI=1S/C15H20N2O4/c1-8-11(7-21-13(8)19)17-6-12(18)15(14(17)20)4-9-2-3-10(5-15)16-9/h9-10,12,16,18H,2-7H2,1H3
InChIKey=SPSGGSKNYXOKHF-UHFFFAOYSA-N

> <PUBCHEM_SUBSTANCE_SYNONYM>
SCHEMBL16121857

> <PUBCHEM_XREF_EXT_ID>
SCHEMBL16121857

> <PUBCHEM_EXT_DATASOURCE_URL>
https://www.surechembl.org/

> <PUBCHEM_EXT_SUBSTANCE_URL>
https://www.surechembl.org/chemical/SCHEMBL16121857

> <PUBCHEM_CID_ASSOCIATIONS>
117610146  1

> <PUBCHEM_COORDINATE_TYPE>
1
3

$$$$
