310949787
  -OEChem-07211613022D

 21 23  0     1  0  0  0  0  0999 V2000
   -3.4650   -0.9143    0.0000 O   0  0  0  0  0  0  0  0  0  0  0  0
   -0.1512    0.4606    0.0000 O   0  0  0  0  0  0  0  0  0  0  0  0
   -1.9800   -1.1482    0.0000 N   0  0  0  0  0  0  0  0  0  0  0  0
    3.4650    0.9968    0.0000 N   0  0  0  0  0  0  0  0  0  0  0  0
   -1.5812    0.1306    0.0000 C   0  0  0  0  0  0  0  0  0  0  0  0
   -2.4062    0.1306    0.0000 C   0  0  0  0  0  0  0  0  0  0  0  0
   -1.3200   -0.6531    0.0000 C   0  0  3  0  0  0  0  0  0  0  0  0
   -2.6538   -0.6531    0.0000 C   0  0  0  0  0  0  0  0  0  0  0  0
   -0.5088   -0.9143    0.0000 C   0  0  0  0  0  0  0  0  0  0  0  0
   -1.1550    0.8456    0.0000 C   0  0  0  0  0  0  0  0  0  0  0  0
    0.0688   -0.3369    0.0000 C   0  0  0  0  0  0  0  0  0  0  0  0
   -2.8050    0.8319    0.0000 C   0  0  0  0  0  0  0  0  0  0  0  0
    0.8800   -0.5431    0.0000 C   0  0  0  0  0  0  0  0  0  0  0  0
   -1.5675    1.5469    0.0000 C   0  0  0  0  0  0  0  0  0  0  0  0
   -2.3925    1.5469    0.0000 C   0  0  0  0  0  0  0  0  0  0  0  0
    1.4712    0.0344    0.0000 C   0  0  0  0  0  0  0  0  0  0  0  0
    1.1000   -1.3268    0.0000 C   0  0  0  0  0  0  0  0  0  0  0  0
    2.2687   -0.1856    0.0000 C   0  0  0  0  0  0  0  0  0  0  0  0
    1.9113   -1.5469    0.0000 C   0  0  0  0  0  0  0  0  0  0  0  0
    2.4887   -0.9694    0.0000 C   0  0  0  0  0  0  0  0  0  0  0  0
    2.8463    0.3781    0.0000 C   0  0  0  0  0  0  0  0  0  0  0  0
  1  8  2  0  0  0  0
  2 11  2  0  0  0  0
  3  7  1  0  0  0  0
  3  8  1  0  0  0  0
  4 21  3  0  0  0  0
  5  6  1  0  0  0  0
  5  7  1  0  0  0  0
  5 10  2  0  0  0  0
  6  8  1  0  0  0  0
  6 12  2  0  0  0  0
  7  9  1  0  0  0  0
  9 11  1  0  0  0  0
 10 14  1  0  0  0  0
 11 13  1  0  0  0  0
 12 15  1  0  0  0  0
 13 16  2  0  0  0  0
 13 17  1  0  0  0  0
 14 15  2  0  0  0  0
 16 18  1  0  0  0  0
 17 19  2  0  0  0  0
 18 20  2  0  0  0  0
 18 21  1  0  0  0  0
 19 20  1  0  0  0  0
M  END
> <PUBCHEM_COMPOUND_ID_TYPE>
0

> <PUBCHEM_TOTAL_CHARGE>
0

> <PUBCHEM_SUBSTANCE_ID>
310949787

> <PUBCHEM_SUBSTANCE_VERSION>
1

> <PUBCHEM_EXT_DATASOURCE_NAME>
4488

> <PUBCHEM_EXT_DATASOURCE_REGID>
SCHEMBL16127985

> <PUBCHEM_SUBSTANCE_COMMENT>
InChI=1S/C17H12N2O2/c18-10-11-4-3-5-12(8-11)16(20)9-15-13-6-1-2-7-14(13)17(21)19-15/h1-8,15H,9H2,(H,19,21)
InChIKey=DUBRVWZLZVNNJD-UHFFFAOYSA-N

> <PUBCHEM_SUBSTANCE_SYNONYM>
SCHEMBL16127985

> <PUBCHEM_XREF_EXT_ID>
SCHEMBL16127985

> <PUBCHEM_EXT_DATASOURCE_URL>
https://www.surechembl.org/

> <PUBCHEM_EXT_SUBSTANCE_URL>
https://www.surechembl.org/chemical/SCHEMBL16127985

> <PUBCHEM_CID_ASSOCIATIONS>
117615111  1

> <PUBCHEM_COORDINATE_TYPE>
1
3

$$$$
