310935343
  -OEChem-07211613022D

 24 26  0     1  0  0  0  0  0999 V2000
   -2.0899    0.3077    0.0000 F   0  0  0  0  0  0  0  0  0  0  0  0
    0.8526    0.3930    0.0000 O   0  0  0  0  0  0  0  0  0  0  0  0
    1.5999   -0.4197    0.0000 O   0  0  0  0  0  0  0  0  0  0  0  0
    2.5728   -3.6653    0.0000 N   0  0  0  0  0  0  0  0  0  0  0  0
    0.3700   -1.1471    0.0000 C   0  0  3  0  0  0  0  0  0  0  0  0
   -0.0350   -0.4284    0.0000 C   0  0  0  0  0  0  0  0  0  0  0  0
    1.0374   -1.6320    0.0000 C   0  0  0  0  0  0  0  0  0  0  0  0
    0.7825   -2.4167    0.0000 C   0  0  0  0  0  0  0  0  0  0  0  0
   -0.2975   -1.6320    0.0000 C   0  0  0  0  0  0  0  0  0  0  0  0
    0.7750   -0.4284    0.0000 C   0  0  0  0  0  0  0  0  0  0  0  0
   -0.8600   -0.4197    0.0000 C   0  0  0  0  0  0  0  0  0  0  0  0
   -0.0425   -2.4167    0.0000 C   0  0  0  0  0  0  0  0  0  0  0  0
    0.3849    0.2817    0.0000 C   0  0  0  0  0  0  0  0  0  0  0  0
   -1.2650    0.2990    0.0000 C   0  0  0  0  0  0  0  0  0  0  0  0
    1.2674   -3.0841    0.0000 C   0  0  0  0  0  0  0  0  0  0  0  0
   -0.8450    1.0091    0.0000 C   0  0  0  0  0  0  0  0  0  0  0  0
   -0.0201    1.0005    0.0000 C   0  0  0  0  0  0  0  0  0  0  0  0
   -1.2799   -1.1298    0.0000 C   0  0  0  0  0  0  0  0  0  0  0  0
    2.0879   -2.9979    0.0000 C   0  0  0  0  0  0  0  0  0  0  0  0
    0.9318   -3.8378    0.0000 C   0  0  0  0  0  0  0  0  0  0  0  0
    1.4167   -4.5052    0.0000 C   0  0  0  0  0  0  0  0  0  0  0  0
    2.2372   -4.4190    0.0000 C   0  0  0  0  0  0  0  0  0  0  0  0
   -1.2500    1.7279    0.0000 C   0  0  0  0  0  0  0  0  0  0  0  0
    2.7222   -5.0864    0.0000 C   0  0  0  0  0  0  0  0  0  0  0  0
  1 14  1  0  0  0  0
  2 10  2  0  0  0  0
  3 10  1  0  0  0  0
  4 19  2  0  0  0  0
  4 22  1  0  0  0  0
  5  6  1  0  0  0  0
  5  7  1  0  0  0  0
  5  9  1  0  0  0  0
  5 10  1  0  0  0  0
  6 11  2  0  0  0  0
  6 13  1  0  0  0  0
  7  8  2  0  0  0  0
  8 12  1  0  0  0  0
  8 15  1  0  0  0  0
  9 12  1  0  0  0  0
 11 14  1  0  0  0  0
 11 18  1  0  0  0  0
 13 17  2  0  0  0  0
 14 16  2  0  0  0  0
 15 19  1  0  0  0  0
 15 20  2  0  0  0  0
 16 17  1  0  0  0  0
 16 23  1  0  0  0  0
 20 21  1  0  0  0  0
 21 22  2  0  0  0  0
 22 24  1  0  0  0  0
M  END
> <PUBCHEM_COMPOUND_ID_TYPE>
0

> <PUBCHEM_TOTAL_CHARGE>
0

> <PUBCHEM_SUBSTANCE_ID>
310935343

> <PUBCHEM_SUBSTANCE_VERSION>
1

> <PUBCHEM_EXT_DATASOURCE_NAME>
4488

> <PUBCHEM_EXT_DATASOURCE_REGID>
SCHEMBL16112881

> <PUBCHEM_SUBSTANCE_COMMENT>
InChI=1S/C20H20FNO2/c1-12-4-7-17(14(3)18(12)21)20(19(23)24)9-8-15(10-20)16-6-5-13(2)22-11-16/h4-7,10-11H,8-9H2,1-3H3,(H,23,24)
InChIKey=WZXXNSAGICOLHU-UHFFFAOYSA-N

> <PUBCHEM_SUBSTANCE_SYNONYM>
SCHEMBL16112881

> <PUBCHEM_XREF_EXT_ID>
SCHEMBL16112881

> <PUBCHEM_EXT_DATASOURCE_URL>
https://www.surechembl.org/

> <PUBCHEM_EXT_SUBSTANCE_URL>
https://www.surechembl.org/chemical/SCHEMBL16112881

> <PUBCHEM_CID_ASSOCIATIONS>
117603399  1

> <PUBCHEM_COORDINATE_TYPE>
1
3

$$$$
