310934096
  -OEChem-07211613022D

 36 40  0     1  0  0  0  0  0999 V2000
    5.9839    0.0000    0.0000 Cl  0  0  0  0  0  0  0  0  0  0  0  0
    0.0000   -7.4582    0.0000 F   0  0  0  0  0  0  0  0  0  0  0  0
    3.5990   -8.6724    0.0000 F   0  0  0  0  0  0  0  0  0  0  0  0
    3.5123   -5.7238    0.0000 O   0  0  0  0  0  0  0  0  0  0  0  0
    6.4609   -5.0300    0.0000 O   0  0  0  0  0  0  0  0  0  0  0  0
    5.2034   -4.3362    0.0000 N   0  0  0  0  0  0  0  0  0  0  0  0
    3.4689   -4.3795    0.0000 N   0  0  0  0  0  0  0  0  0  0  0  0
    7.7184   -2.8619    0.0000 N   0  0  0  0  0  0  0  0  0  0  0  0
    4.8132   -5.0300    0.0000 C   0  0  3  0  0  0  0  0  0  0  0  0
    3.9893   -5.0734    0.0000 C   0  0  0  0  0  0  0  0  0  0  0  0
    6.0273   -4.3362    0.0000 C   0  0  0  0  0  0  0  0  0  0  0  0
    6.0273   -2.9053    0.0000 C   0  0  0  0  0  0  0  0  0  0  0  0
    2.7318   -5.4636    0.0000 C   0  0  0  0  0  0  0  0  0  0  0  0
    6.4609   -2.1681    0.0000 C   0  0  0  0  0  0  0  0  0  0  0  0
    4.7698   -3.5990    0.0000 C   0  0  0  0  0  0  0  0  0  0  0  0
    6.4609   -3.5990    0.0000 C   0  0  0  0  0  0  0  0  0  0  0  0
    5.2468   -5.7671    0.0000 C   0  0  0  0  0  0  0  0  0  0  0  0
    5.2034   -2.9053    0.0000 C   0  0  0  0  0  0  0  0  0  0  0  0
    2.0380   -5.9839    0.0000 C   0  0  0  0  0  0  0  0  0  0  0  0
    2.6884   -4.6397    0.0000 C   0  0  0  0  0  0  0  0  0  0  0  0
    7.2848   -2.1681    0.0000 C   0  0  0  0  0  0  0  0  0  0  0  0
    4.8132   -6.5043    0.0000 C   0  0  0  0  0  0  0  0  0  0  0  0
    6.0273   -1.4309    0.0000 C   0  0  0  0  0  0  0  0  0  0  0  0
    6.4175   -0.7372    0.0000 C   0  0  0  0  0  0  0  0  0  0  0  0
    2.1248   -6.8078    0.0000 C   0  0  0  0  0  0  0  0  0  0  0  0
    1.3008   -5.6370    0.0000 C   0  0  0  0  0  0  0  0  0  0  0  0
    7.6750   -1.4309    0.0000 C   0  0  0  0  0  0  0  0  0  0  0  0
    5.2468   -7.1981    0.0000 C   0  0  0  0  0  0  0  0  0  0  0  0
    3.9893   -6.5043    0.0000 C   0  0  0  0  0  0  0  0  0  0  0  0
    7.2414   -0.6938    0.0000 C   0  0  0  0  0  0  0  0  0  0  0  0
    1.4743   -7.2848    0.0000 C   0  0  0  0  0  0  0  0  0  0  0  0
    0.6071   -6.1140    0.0000 C   0  0  0  0  0  0  0  0  0  0  0  0
    0.6938   -6.9379    0.0000 C   0  0  0  0  0  0  0  0  0  0  0  0
    4.8565   -7.9352    0.0000 C   0  0  0  0  0  0  0  0  0  0  0  0
    3.5990   -7.2414    0.0000 C   0  0  0  0  0  0  0  0  0  0  0  0
    4.0327   -7.9352    0.0000 C   0  0  0  0  0  0  0  0  0  0  0  0
  1 24  1  0  0  0  0
  2 33  1  0  0  0  0
  3 36  1  0  0  0  0
  4 10  1  0  0  0  0
  4 13  1  0  0  0  0
  5 11  2  0  0  0  0
  6  9  1  0  0  0  0
  6 11  1  0  0  0  0
  6 15  1  0  0  0  0
  7 10  2  0  0  0  0
  7 20  1  0  0  0  0
  8 21  1  0  0  0  0
  9 10  1  0  0  0  0
  9 17  1  0  0  0  0
 11 16  1  0  0  0  0
 12 14  1  0  0  0  0
 12 16  2  0  0  0  0
 12 18  1  0  0  0  0
 13 19  1  0  0  0  0
 13 20  2  0  0  0  0
 14 21  1  0  0  0  0
 14 23  2  0  0  0  0
 15 18  2  0  0  0  0
 17 22  1  0  0  0  0
 19 25  2  0  0  0  0
 19 26  1  0  0  0  0
 21 27  2  0  0  0  0
 22 28  2  0  0  0  0
 22 29  1  0  0  0  0
 23 24  1  0  0  0  0
 24 30  2  0  0  0  0
 25 31  1  0  0  0  0
 26 32  2  0  0  0  0
 27 30  1  0  0  0  0
 28 34  1  0  0  0  0
 29 35  2  0  0  0  0
 31 33  2  0  0  0  0
 32 33  1  0  0  0  0
 34 36  2  0  0  0  0
 35 36  1  0  0  0  0
M  END
> <PUBCHEM_COMPOUND_ID_TYPE>
0

> <PUBCHEM_TOTAL_CHARGE>
0

> <PUBCHEM_SUBSTANCE_ID>
310934096

> <PUBCHEM_SUBSTANCE_VERSION>
1

> <PUBCHEM_EXT_DATASOURCE_NAME>
4488

> <PUBCHEM_EXT_DATASOURCE_REGID>
SCHEMBL16111542

> <PUBCHEM_SUBSTANCE_COMMENT>
InChI=1S/C28H20ClF2N3O2/c29-20-5-10-24(32)23(15-20)19-11-12-34(27(35)14-19)25(13-17-1-6-21(30)7-2-17)28-33-16-26(36-28)18-3-8-22(31)9-4-18/h1-12,14-16,25H,13,32H2
InChIKey=UIKSPTXZSZQBKI-UHFFFAOYSA-N

> <PUBCHEM_SUBSTANCE_SYNONYM>
SCHEMBL16111542

> <PUBCHEM_XREF_EXT_ID>
SCHEMBL16111542

> <PUBCHEM_EXT_DATASOURCE_URL>
https://www.surechembl.org/

> <PUBCHEM_EXT_SUBSTANCE_URL>
https://www.surechembl.org/chemical/SCHEMBL16111542

> <PUBCHEM_CID_ASSOCIATIONS>
86302174  1

> <PUBCHEM_COORDINATE_TYPE>
1
3

$$$$
