310933934
  -OEChem-07211613022D

 40 45  0     1  0  0  0  0  0999 V2000
    3.7128    0.0000    0.0000 Cl  0  0  0  0  0  0  0  0  0  0  0  0
    2.5505   -6.4570    0.0000 O   0  0  0  0  0  0  0  0  0  0  0  0
    4.1325   -5.0365    0.0000 O   0  0  0  0  0  0  0  0  0  0  0  0
    6.2310   -2.8411    0.0000 O   0  5  0  0  0  0  0  0  0  0  0  0
    5.0042   -3.5837    0.0000 O   0  0  0  0  0  0  0  0  0  0  0  0
    3.7773   -5.7467    0.0000 N   0  0  0  0  0  0  0  0  0  0  0  0
    6.0373   -5.7144    0.0000 N   0  0  0  0  0  0  0  0  0  0  0  0
    2.9379   -4.2939    0.0000 N   0  0  0  0  0  0  0  0  0  0  0  0
    7.2641   -5.0042    0.0000 N   0  0  0  0  0  0  0  0  0  0  0  0
    5.3916   -2.8411    0.0000 N   0  3  0  0  0  0  0  0  0  0  0  0
    5.0042   -5.7467    0.0000 C   0  0  0  0  0  0  0  0  0  0  0  0
    4.3907   -6.3279    0.0000 C   0  0  0  0  0  0  0  0  0  0  0  0
    4.3907   -5.1333    0.0000 C   0  0  0  0  0  0  0  0  0  0  0  0
    5.4239   -5.1010    0.0000 C   0  0  0  0  0  0  0  0  0  0  0  0
    5.4561   -6.3279    0.0000 C   0  0  0  0  0  0  0  0  0  0  0  0
    2.9379   -5.7467    0.0000 C   0  0  0  0  0  0  0  0  0  0  0  0
    2.5183   -5.0365    0.0000 C   0  0  3  0  0  0  0  0  0  0  0  0
    6.8767   -5.7144    0.0000 C   0  0  0  0  0  0  0  0  0  0  0  0
    3.7451   -4.2939    0.0000 C   0  0  0  0  0  0  0  0  0  0  0  0
    1.7111   -5.0365    0.0000 C   0  0  0  0  0  0  0  0  0  0  0  0
    3.7451   -2.8734    0.0000 C   0  0  0  0  0  0  0  0  0  0  0  0
    7.2964   -6.4247    0.0000 C   0  0  0  0  0  0  0  0  0  0  0  0
    2.4860   -3.5837    0.0000 C   0  0  0  0  0  0  0  0  0  0  0  0
    4.1325   -2.1631    0.0000 C   0  0  0  0  0  0  0  0  0  0  0  0
    4.1648   -3.5837    0.0000 C   0  0  0  0  0  0  0  0  0  0  0  0
    2.9379   -2.8734    0.0000 C   0  0  0  0  0  0  0  0  0  0  0  0
    4.9719   -2.1308    0.0000 C   0  0  0  0  0  0  0  0  0  0  0  0
    1.2591   -4.3262    0.0000 C   0  0  0  0  0  0  0  0  0  0  0  0
    3.7128   -1.4529    0.0000 C   0  0  0  0  0  0  0  0  0  0  0  0
    8.1036   -4.9396    0.0000 C   0  0  0  0  0  0  0  0  0  0  0  0
    8.1036   -6.3924    0.0000 C   0  0  0  0  0  0  0  0  0  0  0  0
    5.3916   -1.4205    0.0000 C   0  0  0  0  0  0  0  0  0  0  0  0
    4.1325   -0.7103    0.0000 C   0  0  0  0  0  0  0  0  0  0  0  0
    8.5233   -5.6822    0.0000 C   0  0  0  0  0  0  0  0  0  0  0  0
    4.9719   -0.7103    0.0000 C   0  0  0  0  0  0  0  0  0  0  0  0
    0.4197   -4.3262    0.0000 C   0  0  0  0  0  0  0  0  0  0  0  0
    1.6788   -3.5837    0.0000 C   0  0  0  0  0  0  0  0  0  0  0  0
    0.0000   -3.6159    0.0000 C   0  0  0  0  0  0  0  0  0  0  0  0
    1.2591   -2.9056    0.0000 C   0  0  0  0  0  0  0  0  0  0  0  0
    0.4197   -2.9056    0.0000 C   0  0  0  0  0  0  0  0  0  0  0  0
  1 33  1  0  0  0  0
  2 16  2  0  0  0  0
  3 19  2  0  0  0  0
  4 10  1  0  0  0  0
  5 10  2  0  0  0  0
  6 12  1  0  0  0  0
  6 13  1  0  0  0  0
  6 16  1  0  0  0  0
  7 14  1  0  0  0  0
  7 15  1  0  0  0  0
  7 18  1  0  0  0  0
  8 17  1  0  0  0  0
  8 19  1  0  0  0  0
  8 23  1  0  0  0  0
  9 18  1  0  0  0  0
  9 30  2  0  0  0  0
 10 27  1  0  0  0  0
 11 12  1  0  0  0  0
 11 13  1  0  0  0  0
 11 14  1  0  0  0  0
 11 15  1  0  0  0  0
 16 17  1  0  0  0  0
 17 20  1  0  0  0  0
 18 22  2  0  0  0  0
 19 25  1  0  0  0  0
 20 28  1  0  0  0  0
 21 24  1  0  0  0  0
 21 25  2  0  0  0  0
 21 26  1  0  0  0  0
 22 31  1  0  0  0  0
 23 26  2  0  0  0  0
 24 27  1  0  0  0  0
 24 29  2  0  0  0  0
 27 32  2  0  0  0  0
 28 36  2  0  0  0  0
 28 37  1  0  0  0  0
 29 33  1  0  0  0  0
 30 34  1  0  0  0  0
 31 34  2  0  0  0  0
 32 35  1  0  0  0  0
 33 35  2  0  0  0  0
 36 38  1  0  0  0  0
 37 39  2  0  0  0  0
 38 40  2  0  0  0  0
 39 40  1  0  0  0  0
M  CHG  2   4  -1  10   1
M  END
> <PUBCHEM_COMPOUND_ID_TYPE>
0

> <PUBCHEM_TOTAL_CHARGE>
0

> <PUBCHEM_SUBSTANCE_ID>
310933934

> <PUBCHEM_SUBSTANCE_VERSION>
1

> <PUBCHEM_EXT_DATASOURCE_NAME>
4488

> <PUBCHEM_EXT_DATASOURCE_REGID>
SCHEMBL16111373

> <PUBCHEM_SUBSTANCE_COMMENT>
InChI=1S/C30H26ClN5O4/c31-23-9-10-25(36(39)40)24(16-23)22-11-13-35(28(37)15-22)26(14-21-6-2-1-3-7-21)29(38)34-19-30(20-34)17-33(18-30)27-8-4-5-12-32-27/h1-13,15-16,26H,14,17-20H2
InChIKey=PNUNMIGCMFAYEM-UHFFFAOYSA-N

> <PUBCHEM_SUBSTANCE_SYNONYM>
SCHEMBL16111373

> <PUBCHEM_XREF_EXT_ID>
SCHEMBL16111373

> <PUBCHEM_EXT_DATASOURCE_URL>
https://www.surechembl.org/

> <PUBCHEM_EXT_SUBSTANCE_URL>
https://www.surechembl.org/chemical/SCHEMBL16111373

> <PUBCHEM_CID_ASSOCIATIONS>
86299896  1

> <PUBCHEM_COORDINATE_TYPE>
1
3

$$$$
