310931866
  -OEChem-07211613022D

 13 12  0     1  0  0  0  0  0999 V2000
    0.0000   -1.5963    0.0000 Cl  0  0  0  0  0  0  0  0  0  0  0  0
    1.6577   -1.5963    0.0000 Cl  0  0  0  0  0  0  0  0  0  0  0  0
    5.4233   -1.6372    0.0000 N   0  0  3  0  0  0  0  0  0  0  0  0
    4.0112    0.0000    0.0000 N   0  0  0  0  0  0  0  0  0  0  0  0
    5.4233   -2.4559    0.0000 C   0  0  0  0  0  0  0  0  0  0  0  0
    4.7275   -1.2279    0.0000 C   0  0  3  0  0  0  0  0  0  0  0  0
    5.8326   -3.1721    0.0000 C   0  0  0  0  0  0  0  0  0  0  0  0
    5.0140   -3.1926    0.0000 C   0  0  0  0  0  0  0  0  0  0  0  0
    4.7275   -0.4093    0.0000 C   0  0  0  0  0  0  0  0  0  0  0  0
    4.0112   -1.6372    0.0000 C   0  0  0  0  0  0  0  0  0  0  0  0
    6.1396   -1.2279    0.0000 C   0  0  0  0  0  0  0  0  0  0  0  0
    3.2949   -1.2279    0.0000 C   0  0  0  0  0  0  0  0  0  0  0  0
    3.2949   -0.4093    0.0000 C   0  0  0  0  0  0  0  0  0  0  0  0
  3  5  1  0  0  0  0
  6  3  1  6  0  0  0
  3 11  1  0  0  0  0
  4  9  1  0  0  0  0
  4 13  1  0  0  0  0
  5  7  1  0  0  0  0
  5  8  1  0  0  0  0
  6  9  1  0  0  0  0
  6 10  1  0  0  0  0
  7  8  1  0  0  0  0
 10 12  1  0  0  0  0
 12 13  1  0  0  0  0
M  END
> <PUBCHEM_COMPOUND_ID_TYPE>
0

> <PUBCHEM_TOTAL_CHARGE>
0

> <PUBCHEM_SUBSTANCE_ID>
310931866

> <PUBCHEM_SUBSTANCE_VERSION>
1

> <PUBCHEM_EXT_DATASOURCE_NAME>
4488

> <PUBCHEM_EXT_DATASOURCE_REGID>
SCHEMBL16109201

> <PUBCHEM_SUBSTANCE_COMMENT>
InChI=1S/C9H18N2.2ClH/c1-11(8-4-5-8)9-3-2-6-10-7-9;;/h8-10H,2-7H2,1H3;2*1H/t9-;;/m1../s1
InChIKey=RWBYEGUKEHYNGJ-KLQYNRQASA-N

> <PUBCHEM_SUBSTANCE_SYNONYM>
SCHEMBL16109201

> <PUBCHEM_XREF_EXT_ID>
SCHEMBL16109201

> <PUBCHEM_EXT_DATASOURCE_URL>
https://www.surechembl.org/

> <PUBCHEM_EXT_SUBSTANCE_URL>
https://www.surechembl.org/chemical/SCHEMBL16109201

> <PUBCHEM_CID_ASSOCIATIONS>
117600532  1
313  2
66569484  2

> <PUBCHEM_COORDINATE_TYPE>
1
3

> <PUBCHEM_BONDANNOTATIONS>
6  3  6

$$$$
