310932386
  -OEChem-07211613022D

 29 32  0     1  0  0  0  0  0999 V2000
    4.0640   -2.1203    0.0000 O   0  0  0  0  0  0  0  0  0  0  0  0
    8.5521   -2.2264    0.0000 O   0  0  0  0  0  0  0  0  0  0  0  0
    9.3649   -2.6505    0.0000 O   0  0  0  0  0  0  0  0  0  0  0  0
    4.9475   -0.9895    0.0000 N   0  0  0  0  0  0  0  0  0  0  0  0
    4.8768   -0.1413    0.0000 N   0  0  0  0  0  0  0  0  0  0  0  0
    6.3964   -0.9895    0.0000 N   0  0  0  0  0  0  0  0  0  0  0  0
    7.8453   -3.4632    0.0000 N   0  0  0  0  0  0  0  0  0  0  0  0
    0.0000   -1.8376    0.0000 N   0  0  0  0  0  0  0  0  0  0  0  0
    4.2053   -1.3076    0.0000 C   0  0  0  0  0  0  0  0  0  0  0  0
    3.6400   -0.7068    0.0000 C   0  0  0  0  0  0  0  0  0  0  0  0
    5.6896   -1.3782    0.0000 C   0  0  0  0  0  0  0  0  0  0  0  0
    2.8271   -0.8128    0.0000 C   0  0  0  0  0  0  0  0  0  0  0  0
    4.0640    0.0000    0.0000 C   0  0  0  0  0  0  0  0  0  0  0  0
    5.6896   -2.2264    0.0000 C   0  0  0  0  0  0  0  0  0  0  0  0
    7.1385   -2.2264    0.0000 C   0  0  0  0  0  0  0  0  0  0  0  0
    2.4738   -1.5549    0.0000 C   0  0  0  0  0  0  0  0  0  0  0  0
    2.3324   -0.1413    0.0000 C   0  0  0  0  0  0  0  0  0  0  0  0
    7.1385   -1.3782    0.0000 C   0  0  0  0  0  0  0  0  0  0  0  0
    6.3964   -2.6505    0.0000 C   0  0  0  0  0  0  0  0  0  0  0  0
    7.8453   -2.6505    0.0000 C   0  0  0  0  0  0  0  0  0  0  0  0
    1.1662   -0.9895    0.0000 C   0  0  0  0  0  0  0  0  0  0  0  0
    1.6609   -1.6609    0.0000 C   0  0  0  0  0  0  0  0  0  0  0  0
    1.4843   -0.2474    0.0000 C   0  0  0  0  0  0  0  0  0  0  0  0
    8.5874   -3.8873    0.0000 C   0  0  0  0  0  0  0  0  0  0  0  0
    9.2942   -3.4632    0.0000 C   0  0  3  0  0  0  0  0  0  0  0  0
    0.3181   -1.0955    0.0000 C   0  0  0  0  0  0  0  0  0  0  0  0
   10.0717   -3.8166    0.0000 C   0  0  0  0  0  0  0  0  0  0  0  0
   10.2130   -2.4738    0.0000 C   0  0  0  0  0  0  0  0  0  0  0  0
   10.6018   -3.1806    0.0000 C   0  0  0  0  0  0  0  0  0  0  0  0
  1  9  1  0  0  0  0
  2 20  2  0  0  0  0
  3 25  1  0  0  0  0
  3 28  1  0  0  0  0
  4  5  1  0  0  0  0
  4  9  1  0  0  0  0
  4 11  1  0  0  0  0
  5 13  2  0  0  0  0
  6 11  2  0  0  0  0
  6 18  1  0  0  0  0
  7 20  1  0  0  0  0
  7 24  1  0  0  0  0
  8 26  3  0  0  0  0
  9 10  2  0  0  0  0
 10 12  1  0  0  0  0
 10 13  1  0  0  0  0
 11 14  1  0  0  0  0
 12 16  2  0  0  0  0
 12 17  1  0  0  0  0
 14 19  2  0  0  0  0
 15 18  2  0  0  0  0
 15 19  1  0  0  0  0
 15 20  1  0  0  0  0
 16 22  1  0  0  0  0
 17 23  2  0  0  0  0
 21 22  2  0  0  0  0
 21 23  1  0  0  0  0
 21 26  1  0  0  0  0
 24 25  1  0  0  0  0
 25 27  1  0  0  0  0
 27 29  1  0  0  0  0
 28 29  1  0  0  0  0
M  END
> <PUBCHEM_COMPOUND_ID_TYPE>
0

> <PUBCHEM_TOTAL_CHARGE>
0

> <PUBCHEM_SUBSTANCE_ID>
310932386

> <PUBCHEM_SUBSTANCE_VERSION>
1

> <PUBCHEM_EXT_DATASOURCE_NAME>
4488

> <PUBCHEM_EXT_DATASOURCE_REGID>
SCHEMBL16109752

> <PUBCHEM_SUBSTANCE_COMMENT>
InChI=1S/C21H19N5O3/c22-10-14-3-5-15(6-4-14)18-13-25-26(21(18)28)19-8-7-16(11-23-19)20(27)24-12-17-2-1-9-29-17/h3-8,11,13,17,28H,1-2,9,12H2,(H,24,27)
InChIKey=AKNHCQBQTPNIOD-UHFFFAOYSA-N

> <PUBCHEM_SUBSTANCE_SYNONYM>
SCHEMBL16109752

> <PUBCHEM_XREF_EXT_ID>
SCHEMBL16109752

> <PUBCHEM_EXT_DATASOURCE_URL>
https://www.surechembl.org/

> <PUBCHEM_EXT_SUBSTANCE_URL>
https://www.surechembl.org/chemical/SCHEMBL16109752

> <PUBCHEM_CID_ASSOCIATIONS>
117600941  1

> <PUBCHEM_COORDINATE_TYPE>
1
3

$$$$
