310945149
  -OEChem-07211613022D

 31 36  0     1  0  0  0  0  0999 V2000
    2.6628    1.2694    0.0000 O   0  0  0  0  0  0  0  0  0  0  0  0
   -4.1242   -1.7401    0.0000 O   0  0  0  0  0  0  0  0  0  0  0  0
   -4.1985    0.6007    0.0000 O   0  0  0  0  0  0  0  0  0  0  0  0
    1.1642   -1.0465    0.0000 N   0  0  0  0  0  0  0  0  0  0  0  0
    3.3935    0.0433    0.0000 N   0  0  0  0  0  0  0  0  0  0  0  0
   -1.8082   -0.1177    0.0000 N   0  0  0  0  0  0  0  0  0  0  0  0
   -1.9568   -1.5420    0.0000 N   0  0  0  0  0  0  0  0  0  0  0  0
   -2.8733    0.0186    0.0000 N   0  0  0  0  0  0  0  0  0  0  0  0
    3.3811   -0.7865    0.0000 C   0  0  0  0  0  0  0  0  0  0  0  0
    1.9445    0.0310    0.0000 C   0  0  0  0  0  0  0  0  0  0  0  0
    1.9321   -0.7865    0.0000 C   0  0  0  0  0  0  0  0  0  0  0  0
    1.1394    0.2911    0.0000 C   0  0  0  0  0  0  0  0  0  0  0  0
    0.6688   -0.3777    0.0000 C   0  0  0  0  0  0  0  0  0  0  0  0
    2.6751   -1.1952    0.0000 C   0  0  0  0  0  0  0  0  0  0  0  0
    2.6628    0.4397    0.0000 C   0  0  0  0  0  0  0  0  0  0  0  0
   -0.1610   -0.2787    0.0000 C   0  0  0  0  0  0  0  0  0  0  0  0
    4.1985   -0.7988    0.0000 C   0  0  0  0  0  0  0  0  0  0  0  0
    3.8022   -1.4800    0.0000 C   0  0  0  0  0  0  0  0  0  0  0  0
   -0.4954    0.4644    0.0000 C   0  0  0  0  0  0  0  0  0  0  0  0
    0.8174    1.0465    0.0000 C   0  0  0  0  0  0  0  0  0  0  0  0
   -0.0124    1.1332    0.0000 C   0  0  0  0  0  0  0  0  0  0  0  0
   -0.6441   -0.9475    0.0000 C   0  0  0  0  0  0  0  0  0  0  0  0
   -1.4862   -0.8608    0.0000 C   0  0  0  0  0  0  0  0  0  0  0  0
   -1.3252    0.5511    0.0000 C   0  0  0  0  0  0  0  0  0  0  0  0
   -2.7990   -1.4428    0.0000 C   0  0  3  0  0  0  0  0  0  0  0  0
   -3.2077   -0.7493    0.0000 C   0  0  3  0  0  0  0  0  0  0  0  0
   -3.3563   -2.0745    0.0000 C   0  0  0  0  0  0  0  0  0  0  0  0
   -4.0251   -0.9103    0.0000 C   0  0  0  0  0  0  0  0  0  0  0  0
   -3.3439    0.6998    0.0000 C   0  0  0  0  0  0  0  0  0  0  0  0
   -3.0344    1.4553    0.0000 C   0  0  0  0  0  0  0  0  0  0  0  0
   -3.5793    2.0745    0.0000 C   0  0  0  0  0  0  0  0  0  0  0  0
  1 15  2  0  0  0  0
  2 27  1  0  0  0  0
  2 28  1  0  0  0  0
  3 29  2  0  0  0  0
  4 11  1  0  0  0  0
  4 13  1  0  0  0  0
  5  9  1  0  0  0  0
  5 15  1  0  0  0  0
  6 23  2  0  0  0  0
  6 24  1  0  0  0  0
  7 23  1  0  0  0  0
  7 25  1  0  0  0  0
  8 26  1  0  0  0  0
  8 29  1  0  0  0  0
  9 14  1  0  0  0  0
  9 17  1  0  0  0  0
  9 18  1  0  0  0  0
 10 11  2  0  0  0  0
 10 12  1  0  0  0  0
 10 15  1  0  0  0  0
 11 14  1  0  0  0  0
 12 13  2  0  0  0  0
 12 20  1  0  0  0  0
 13 16  1  0  0  0  0
 16 19  1  0  0  0  0
 16 22  2  0  0  0  0
 17 18  1  0  0  0  0
 19 21  1  0  0  0  0
 19 24  2  0  0  0  0
 20 21  1  0  0  0  0
 22 23  1  0  0  0  0
 25 26  1  0  0  0  0
 25 27  1  0  0  0  0
 26 28  1  0  0  0  0
 29 30  1  0  0  0  0
 30 31  2  0  0  0  0
M  END
> <PUBCHEM_COMPOUND_ID_TYPE>
0

> <PUBCHEM_TOTAL_CHARGE>
0

> <PUBCHEM_SUBSTANCE_ID>
310945149

> <PUBCHEM_SUBSTANCE_VERSION>
1

> <PUBCHEM_EXT_DATASOURCE_NAME>
4488

> <PUBCHEM_EXT_DATASOURCE_REGID>
SCHEMBL16123239

> <PUBCHEM_SUBSTANCE_COMMENT>
InChI=1S/C23H25N5O3/c1-2-19(29)26-17-11-31-10-16(17)25-18-7-14-12(9-24-18)3-4-13-20-15(27-21(13)14)8-23(5-6-23)28-22(20)30/h2,7,9,16-17,27H,1,3-6,8,10-11H2,(H,24,25)(H,26,29)(H,28,30)
InChIKey=KQXHCQIQXHEPQJ-UHFFFAOYSA-N

> <PUBCHEM_SUBSTANCE_SYNONYM>
SCHEMBL16123239

> <PUBCHEM_XREF_EXT_ID>
SCHEMBL16123239

> <PUBCHEM_EXT_DATASOURCE_URL>
https://www.surechembl.org/

> <PUBCHEM_EXT_SUBSTANCE_URL>
https://www.surechembl.org/chemical/SCHEMBL16123239

> <PUBCHEM_CID_ASSOCIATIONS>
86300607  1

> <PUBCHEM_COORDINATE_TYPE>
1
3

$$$$
