310931381
  -OEChem-07211613022D

 49 54  0     1  0  0  0  0  0999 V2000
    4.7325   -8.0897    0.0000 Cl  0  0  0  0  0  0  0  0  0  0  0  0
    8.7369   -3.5594    0.0000 S   0  0  0  0  0  0  0  0  0  0  0  0
   10.7592   -4.3684    0.0000 S   0  0  0  0  0  0  0  0  0  0  0  0
    7.8874   -2.1437    0.0000 F   0  0  0  0  0  0  0  0  0  0  0  0
    6.2695   -5.0156    0.0000 F   0  0  0  0  0  0  0  0  0  0  0  0
    8.7369   -4.4897    0.0000 O   0  0  0  0  0  0  0  0  0  0  0  0
    8.7369   -2.7909    0.0000 O   0  0  0  0  0  0  0  0  0  0  0  0
    5.4201   -3.5594    0.0000 O   0  0  0  0  0  0  0  0  0  0  0  0
   10.7997   -1.4561    0.0000 O   0  0  0  0  0  0  0  0  0  0  0  0
    8.2919    0.0000    0.0000 O   0  0  0  0  0  0  0  0  0  0  0  0
    9.5458   -3.5594    0.0000 N   0  0  0  0  0  0  0  0  0  0  0  0
    9.6267   -5.0561    0.0000 N   0  0  0  0  0  0  0  0  0  0  0  0
    2.9123   -3.8830    0.0000 N   0  0  3  0  0  0  0  0  0  0  0  0
   10.9615   -5.1774    0.0000 N   0  0  0  0  0  0  0  0  0  0  0  0
    7.9279   -3.5594    0.0000 C   0  0  0  0  0  0  0  0  0  0  0  0
    7.4829   -2.8718    0.0000 C   0  0  0  0  0  0  0  0  0  0  0  0
    9.9502   -4.2875    0.0000 C   0  0  0  0  0  0  0  0  0  0  0  0
    7.4829   -4.2875    0.0000 C   0  0  0  0  0  0  0  0  0  0  0  0
    6.2290   -3.5594    0.0000 C   0  0  0  0  0  0  0  0  0  0  0  0
    9.9502   -2.8718    0.0000 C   0  0  0  0  0  0  0  0  0  0  0  0
    6.6740   -4.2875    0.0000 C   0  0  0  0  0  0  0  0  0  0  0  0
    6.6740   -2.8718    0.0000 C   0  0  0  0  0  0  0  0  0  0  0  0
    9.5458   -2.1437    0.0000 C   0  0  0  0  0  0  0  0  0  0  0  0
    4.2066   -4.2875    0.0000 C   0  0  3  0  0  0  0  0  0  0  0  0
    3.7212   -4.9751    0.0000 C   0  0  3  0  0  0  0  0  0  0  0  0
    9.9502   -1.4561    0.0000 C   0  0  0  0  0  0  0  0  0  0  0  0
    5.0156   -4.2875    0.0000 C   0  0  0  0  0  0  0  0  0  0  0  0
    3.9639   -5.7437    0.0000 C   0  0  0  0  0  0  0  0  0  0  0  0
    8.7369   -2.1437    0.0000 C   0  0  0  0  0  0  0  0  0  0  0  0
    3.7212   -3.6404    0.0000 C   0  0  0  0  0  0  0  0  0  0  0  0
    2.9123   -4.6920    0.0000 C   0  0  0  0  0  0  0  0  0  0  0  0
   10.2334   -5.5819    0.0000 C   0  0  0  0  0  0  0  0  0  0  0  0
    9.5458   -0.7281    0.0000 C   0  0  0  0  0  0  0  0  0  0  0  0
    8.7369   -0.7281    0.0000 C   0  0  0  0  0  0  0  0  0  0  0  0
    8.2919   -1.4561    0.0000 C   0  0  0  0  0  0  0  0  0  0  0  0
    2.2651   -3.3976    0.0000 C   0  0  0  0  0  0  0  0  0  0  0  0
    4.7729   -5.9054    0.0000 C   0  0  0  0  0  0  0  0  0  0  0  0
    3.3976   -6.3504    0.0000 C   0  0  0  0  0  0  0  0  0  0  0  0
    1.4966   -3.7212    0.0000 C   0  0  0  0  0  0  0  0  0  0  0  0
    5.0156   -6.7144    0.0000 C   0  0  0  0  0  0  0  0  0  0  0  0
    3.6404   -7.1189    0.0000 C   0  0  0  0  0  0  0  0  0  0  0  0
    4.4493   -7.3211    0.0000 C   0  0  0  0  0  0  0  0  0  0  0  0
   11.2042   -0.7281    0.0000 C   0  0  0  0  0  0  0  0  0  0  0  0
    0.8494   -3.2358    0.0000 C   0  0  0  0  0  0  0  0  0  0  0  0
    1.4157   -4.5302    0.0000 C   0  0  0  0  0  0  0  0  0  0  0  0
    7.4829    0.0000    0.0000 C   0  0  0  0  0  0  0  0  0  0  0  0
    0.0809   -3.5594    0.0000 C   0  0  0  0  0  0  0  0  0  0  0  0
    0.6472   -4.8943    0.0000 C   0  0  0  0  0  0  0  0  0  0  0  0
    0.0000   -4.4089    0.0000 C   0  0  0  0  0  0  0  0  0  0  0  0
  1 42  1  0  0  0  0
  2  6  2  0  0  0  0
  2  7  2  0  0  0  0
  2 11  1  0  0  0  0
  2 15  1  0  0  0  0
  3 14  1  0  0  0  0
  3 17  1  0  0  0  0
  4 16  1  0  0  0  0
  5 21  1  0  0  0  0
  8 19  1  0  0  0  0
  8 27  1  0  0  0  0
  9 26  1  0  0  0  0
  9 43  1  0  0  0  0
 10 34  1  0  0  0  0
 10 46  1  0  0  0  0
 11 17  1  0  0  0  0
 11 20  1  0  0  0  0
 12 17  2  0  0  0  0
 12 32  1  0  0  0  0
 13 30  1  0  0  0  0
 13 31  1  0  0  0  0
 13 36  1  0  0  0  0
 14 32  2  0  0  0  0
 15 16  1  0  0  0  0
 15 18  2  0  0  0  0
 16 22  2  0  0  0  0
 18 21  1  0  0  0  0
 19 21  2  0  0  0  0
 19 22  1  0  0  0  0
 20 23  1  0  0  0  0
 23 26  2  0  0  0  0
 23 29  1  0  0  0  0
 24 25  1  0  0  0  0
 24 27  1  0  0  0  0
 24 30  1  0  0  0  0
 25 28  1  0  0  0  0
 25 31  1  0  0  0  0
 26 33  1  0  0  0  0
 28 37  2  0  0  0  0
 28 38  1  0  0  0  0
 29 35  2  0  0  0  0
 33 34  2  0  0  0  0
 34 35  1  0  0  0  0
 36 39  1  0  0  0  0
 37 40  1  0  0  0  0
 38 41  2  0  0  0  0
 39 44  2  0  0  0  0
 39 45  1  0  0  0  0
 40 42  2  0  0  0  0
 41 42  1  0  0  0  0
 44 47  1  0  0  0  0
 45 48  2  0  0  0  0
 47 49  2  0  0  0  0
 48 49  1  0  0  0  0
M  END
> <PUBCHEM_COMPOUND_ID_TYPE>
0

> <PUBCHEM_TOTAL_CHARGE>
0

> <PUBCHEM_SUBSTANCE_ID>
310931381

> <PUBCHEM_SUBSTANCE_VERSION>
1

> <PUBCHEM_EXT_DATASOURCE_NAME>
4488

> <PUBCHEM_EXT_DATASOURCE_REGID>
SCHEMBL16108704

> <PUBCHEM_SUBSTANCE_COMMENT>
InChI=1S/C35H33ClF2N4O5S2/c1-45-28-13-10-25(32(14-28)46-2)19-42(35-39-22-40-48-35)49(43,44)34-16-30(37)33(15-31(34)38)47-21-26-18-41(17-23-6-4-3-5-7-23)20-29(26)24-8-11-27(36)12-9-24/h3-16,22,26,29H,17-21H2,1-2H3
InChIKey=SDWNFHSPKTUZFF-UHFFFAOYSA-N

> <PUBCHEM_SUBSTANCE_SYNONYM>
SCHEMBL16108704

> <PUBCHEM_XREF_EXT_ID>
SCHEMBL16108704

> <PUBCHEM_EXT_DATASOURCE_URL>
https://www.surechembl.org/

> <PUBCHEM_EXT_SUBSTANCE_URL>
https://www.surechembl.org/chemical/SCHEMBL16108704

> <PUBCHEM_CID_ASSOCIATIONS>
117600174  1

> <PUBCHEM_COORDINATE_TYPE>
1
3

$$$$
