310935464
  -OEChem-07211613022D

 43 48  0     1  0  0  0  0  0999 V2000
    6.4039   -4.9025    0.0000 O   0  0  0  0  0  0  0  0  0  0  0  0
    4.9944   -2.4513    0.0000 O   0  0  0  0  0  0  0  0  0  0  0  0
    4.9944   -0.8273    0.0000 O   0  0  0  0  0  0  0  0  0  0  0  0
    2.1449   -4.9025    0.0000 N   0  0  3  0  0  0  0  0  0  0  0  0
    0.7354   -4.9025    0.0000 N   0  0  0  0  0  0  0  0  0  0  0  0
    0.0306   -3.6768    0.0000 N   0  0  0  0  0  0  0  0  0  0  0  0
    5.6991   -3.6768    0.0000 N   0  0  0  0  0  0  0  0  0  0  0  0
    3.7381   -2.6351    0.0000 N   0  0  0  0  0  0  0  0  0  0  0  0
    1.4401   -3.6768    0.0000 C   0  0  0  0  0  0  0  0  0  0  0  0
    1.4401   -4.5042    0.0000 C   0  0  0  0  0  0  0  0  0  0  0  0
    0.7354   -3.2479    0.0000 C   0  0  0  0  0  0  0  0  0  0  0  0
    2.1449   -2.4513    0.0000 C   0  0  0  0  0  0  0  0  0  0  0  0
    2.1449   -3.2785    0.0000 C   0  0  0  0  0  0  0  0  0  0  0  0
    0.7354   -2.4513    0.0000 C   0  0  0  0  0  0  0  0  0  0  0  0
    3.5849   -4.9025    0.0000 C   0  0  0  0  0  0  0  0  0  0  0  0
    2.8802   -4.5042    0.0000 C   0  0  0  0  0  0  0  0  0  0  0  0
    3.5849   -5.7298    0.0000 C   0  0  0  0  0  0  0  0  0  0  0  0
    1.4401   -2.0529    0.0000 C   0  0  0  0  0  0  0  0  0  0  0  0
    2.8496   -2.0529    0.0000 C   0  0  0  0  0  0  0  0  0  0  0  0
    2.1449   -5.7298    0.0000 C   0  0  0  0  0  0  0  0  0  0  0  0
    4.9944   -4.9025    0.0000 C   0  0  0  0  0  0  0  0  0  0  0  0
    4.2590   -4.5042    0.0000 C   0  0  0  0  0  0  0  0  0  0  0  0
    2.8802   -6.1281    0.0000 C   0  0  0  0  0  0  0  0  0  0  0  0
    0.0000   -4.5042    0.0000 C   0  0  0  0  0  0  0  0  0  0  0  0
    5.6991   -4.5042    0.0000 C   0  0  0  0  0  0  0  0  0  0  0  0
    4.2590   -6.1281    0.0000 C   0  0  0  0  0  0  0  0  0  0  0  0
    3.5849   -2.4513    0.0000 C   0  0  0  0  0  0  0  0  0  0  0  0
    4.9944   -5.7298    0.0000 C   0  0  0  0  0  0  0  0  0  0  0  0
    2.8802   -1.2256    0.0000 C   0  0  0  0  0  0  0  0  0  0  0  0
    4.2896   -2.0529    0.0000 C   0  0  0  0  0  0  0  0  0  0  0  0
    4.2896   -1.2256    0.0000 C   0  0  0  0  0  0  0  0  0  0  0  0
    0.0000   -2.0529    0.0000 C   0  0  0  0  0  0  0  0  0  0  0  0
    3.5849   -0.7966    0.0000 C   0  0  0  0  0  0  0  0  0  0  0  0
    4.9944   -3.2785    0.0000 C   0  0  0  0  0  0  0  0  0  0  0  0
    6.4039   -3.2785    0.0000 C   0  0  0  0  0  0  0  0  0  0  0  0
    5.1476   -2.6044    0.0000 C   0  0  0  0  0  0  0  0  0  0  0  0
    4.2896   -3.6768    0.0000 C   0  0  0  0  0  0  0  0  0  0  0  0
    4.4429   -2.2061    0.0000 C   0  0  0  0  0  0  0  0  0  0  0  0
    3.5543   -3.2785    0.0000 C   0  0  0  0  0  0  0  0  0  0  0  0
    6.4039   -2.4513    0.0000 C   0  0  0  0  0  0  0  0  0  0  0  0
    5.6991   -2.0529    0.0000 C   0  0  0  0  0  0  0  0  0  0  0  0
    4.9944    0.0000    0.0000 C   0  0  0  0  0  0  0  0  0  0  0  0
    3.0334   -2.2061    0.0000 C   0  0  0  0  0  0  0  0  0  0  0  0
  1 25  2  0  0  0  0
  2 30  1  0  0  0  0
  2 41  1  0  0  0  0
  3 31  1  0  0  0  0
  3 42  1  0  0  0  0
  4 10  1  0  0  0  0
  4 16  1  0  0  0  0
  4 20  1  0  0  0  0
  5 10  1  0  0  0  0
  5 24  2  0  0  0  0
  6 11  2  0  0  0  0
  6 24  1  0  0  0  0
  7 25  1  0  0  0  0
  7 34  1  0  0  0  0
  7 35  1  0  0  0  0
  8 38  1  0  0  0  0
  8 39  1  0  0  0  0
  8 43  1  0  0  0  0
  9 10  2  0  0  0  0
  9 11  1  0  0  0  0
  9 13  1  0  0  0  0
 11 14  1  0  0  0  0
 12 13  2  0  0  0  0
 12 18  1  0  0  0  0
 12 19  1  0  0  0  0
 14 18  2  0  0  0  0
 14 32  1  0  0  0  0
 15 16  1  0  0  0  0
 15 17  2  0  0  0  0
 15 22  1  0  0  0  0
 17 23  1  0  0  0  0
 17 26  1  0  0  0  0
 19 27  1  0  0  0  0
 19 29  2  0  0  0  0
 20 23  1  0  0  0  0
 21 22  2  0  0  0  0
 21 25  1  0  0  0  0
 21 28  1  0  0  0  0
 26 28  2  0  0  0  0
 27 30  2  0  0  0  0
 29 33  1  0  0  0  0
 30 31  1  0  0  0  0
 31 33  2  0  0  0  0
 34 36  1  0  0  0  0
 34 37  1  0  0  0  0
 35 40  1  0  0  0  0
 36 38  1  0  0  0  0
 37 39  1  0  0  0  0
M  END
> <PUBCHEM_COMPOUND_ID_TYPE>
0

> <PUBCHEM_TOTAL_CHARGE>
0

> <PUBCHEM_SUBSTANCE_ID>
310935464

> <PUBCHEM_SUBSTANCE_VERSION>
1

> <PUBCHEM_EXT_DATASOURCE_NAME>
4488

> <PUBCHEM_EXT_DATASOURCE_REGID>
SCHEMBL16113012

> <PUBCHEM_SUBSTANCE_COMMENT>
InChI=1S/C35H41N5O3/c1-6-40(29-12-14-38(3)15-13-29)35(41)26-8-7-24-11-16-39(21-28(24)18-26)34-30-19-27(17-23(2)33(30)36-22-37-34)25-9-10-31(42-4)32(20-25)43-5/h7-10,17-20,22,29H,6,11-16,21H2,1-5H3
InChIKey=UPRDHHIPOUDKSA-UHFFFAOYSA-N

> <PUBCHEM_SUBSTANCE_SYNONYM>
SCHEMBL16113012

> <PUBCHEM_XREF_EXT_ID>
SCHEMBL16113012

> <PUBCHEM_EXT_DATASOURCE_URL>
https://www.surechembl.org/

> <PUBCHEM_EXT_SUBSTANCE_URL>
https://www.surechembl.org/chemical/SCHEMBL16113012

> <PUBCHEM_CID_ASSOCIATIONS>
117603504  1

> <PUBCHEM_COORDINATE_TYPE>
1
3

$$$$
