310933657
  -OEChem-07211613022D

 32 36  0     1  0  0  0  0  0999 V2000
   -2.6221    2.6276    0.0000 O   0  0  0  0  0  0  0  0  0  0  0  0
    0.5422    2.2150    0.0000 O   0  0  0  0  0  0  0  0  0  0  0  0
   -2.5051    0.4960    0.0000 N   0  0  0  0  0  0  0  0  0  0  0  0
   -3.4654    1.4233    0.0000 N   0  0  0  0  0  0  0  0  0  0  0  0
   -3.8952    0.0174    0.0000 N   0  0  0  0  0  0  0  0  0  0  0  0
    5.1349    2.1307    0.0000 N   0  0  0  0  0  0  0  0  0  0  0  0
   -2.1435    1.2375    0.0000 C   0  0  3  0  0  0  0  0  0  0  0  0
   -1.4290    0.8250    0.0000 C   0  0  0  0  0  0  0  0  0  0  0  0
   -2.7369    1.8106    0.0000 C   0  0  0  0  0  0  0  0  0  0  0  0
   -1.6131    1.8696    0.0000 C   0  0  0  0  0  0  0  0  0  0  0  0
   -3.3221    0.6108    0.0000 C   0  0  0  0  0  0  0  0  0  0  0  0
   -2.0926   -0.2185    0.0000 C   0  0  0  0  0  0  0  0  0  0  0  0
   -0.6040    0.8250    0.0000 C   0  0  0  0  0  0  0  0  0  0  0  0
   -1.0165    0.1106    0.0000 C   0  0  0  0  0  0  0  0  0  0  0  0
   -0.8007    1.7263    0.0000 C   0  0  0  0  0  0  0  0  0  0  0  0
   -1.8953    2.6448    0.0000 C   0  0  0  0  0  0  0  0  0  0  0  0
   -0.2704    2.3583    0.0000 C   0  0  0  0  0  0  0  0  0  0  0  0
   -1.2676   -0.2185    0.0000 C   0  0  0  0  0  0  0  0  0  0  0  0
   -2.5051   -0.9330    0.0000 C   0  0  0  0  0  0  0  0  0  0  0  0
   -1.3650    3.2768    0.0000 C   0  0  0  0  0  0  0  0  0  0  0  0
   -0.5525    3.1335    0.0000 C   0  0  0  0  0  0  0  0  0  0  0  0
   -0.8551   -0.9330    0.0000 C   0  0  0  0  0  0  0  0  0  0  0  0
   -2.0926   -1.6474    0.0000 C   0  0  0  0  0  0  0  0  0  0  0  0
   -1.2676   -1.6474    0.0000 C   0  0  0  0  0  0  0  0  0  0  0  0
    1.0725    2.8470    0.0000 C   0  0  0  0  0  0  0  0  0  0  0  0
    1.8849    2.7038    0.0000 C   0  0  0  0  0  0  0  0  0  0  0  0
    2.4152    3.3357    0.0000 C   0  0  0  0  0  0  0  0  0  0  0  0
    2.1671    1.9285    0.0000 C   0  0  0  0  0  0  0  0  0  0  0  0
    3.5099    2.4172    0.0000 C   0  0  0  0  0  0  0  0  0  0  0  0
    3.2277    3.1925    0.0000 C   0  0  0  0  0  0  0  0  0  0  0  0
    2.9796    1.7852    0.0000 C   0  0  0  0  0  0  0  0  0  0  0  0
    4.3224    2.2739    0.0000 C   0  0  0  0  0  0  0  0  0  0  0  0
  1  9  2  0  0  0  0
  2 17  1  0  0  0  0
  2 25  1  0  0  0  0
  3  7  1  0  0  0  0
  3 11  1  0  0  0  0
  3 12  1  0  0  0  0
  4  9  1  0  0  0  0
  4 11  1  0  0  0  0
  5 11  2  3  0  0  0
  6 32  3  0  0  0  0
  7  8  1  0  0  0  0
  7  9  1  0  0  0  0
  7 10  1  0  0  0  0
  8 13  1  0  0  0  0
  8 14  1  0  0  0  0
 10 15  2  0  0  0  0
 10 16  1  0  0  0  0
 12 18  1  0  0  0  0
 12 19  1  0  0  0  0
 13 14  1  0  0  0  0
 15 17  1  0  0  0  0
 16 20  2  0  0  0  0
 17 21  2  0  0  0  0
 18 22  1  0  0  0  0
 19 23  1  0  0  0  0
 20 21  1  0  0  0  0
 22 24  1  0  0  0  0
 23 24  1  0  0  0  0
 25 26  1  0  0  0  0
 26 27  2  0  0  0  0
 26 28  1  0  0  0  0
 27 30  1  0  0  0  0
 28 31  2  0  0  0  0
 29 30  2  0  0  0  0
 29 31  1  0  0  0  0
 29 32  1  0  0  0  0
M  END
> <PUBCHEM_COMPOUND_ID_TYPE>
0

> <PUBCHEM_TOTAL_CHARGE>
0

> <PUBCHEM_SUBSTANCE_ID>
310933657

> <PUBCHEM_SUBSTANCE_VERSION>
1

> <PUBCHEM_EXT_DATASOURCE_NAME>
4488

> <PUBCHEM_EXT_DATASOURCE_REGID>
SCHEMBL16111090

> <PUBCHEM_SUBSTANCE_COMMENT>
InChI=1S/C26H28N4O2/c27-16-18-9-11-19(12-10-18)17-32-23-8-4-5-21(15-23)26(20-13-14-20)24(31)29-25(28)30(26)22-6-2-1-3-7-22/h4-5,8-12,15,20,22H,1-3,6-7,13-14,17H2,(H2,28,29,31)
InChIKey=MHZPZWOGPJBEHA-UHFFFAOYSA-N

> <PUBCHEM_SUBSTANCE_SYNONYM>
SCHEMBL16111090

> <PUBCHEM_XREF_EXT_ID>
SCHEMBL16111090

> <PUBCHEM_EXT_DATASOURCE_URL>
https://www.surechembl.org/

> <PUBCHEM_EXT_SUBSTANCE_URL>
https://www.surechembl.org/chemical/SCHEMBL16111090

> <PUBCHEM_CID_ASSOCIATIONS>
117602028  1

> <PUBCHEM_COORDINATE_TYPE>
1
3

$$$$
