310934526
  -OEChem-07211613022D

 28 31  0     1  0  0  0  0  0999 V2000
    0.8018   -0.8961    0.0000 S   0  0  0  0  0  0  0  0  0  0  0  0
    3.2071   -3.7259    0.0000 O   0  0  0  0  0  0  0  0  0  0  0  0
    0.8018    0.0000    0.0000 O   0  0  0  0  0  0  0  0  0  0  0  0
    0.8018   -1.6979    0.0000 O   0  0  0  0  0  0  0  0  0  0  0  0
    0.0000   -0.8961    0.0000 O   0  0  0  0  0  0  0  0  0  0  0  0
    2.8298   -7.2631    0.0000 O   0  0  0  0  0  0  0  0  0  0  0  0
    2.0280   -1.6035    0.0000 C   0  0  0  0  0  0  0  0  0  0  0  0
    2.8298   -2.9713    0.0000 C   0  0  0  0  0  0  0  0  0  0  0  0
    2.8298   -2.0752    0.0000 C   0  0  0  0  0  0  0  0  0  0  0  0
    1.6035   -0.8961    0.0000 C   0  0  3  0  0  0  0  0  0  0  0  0
    2.8298   -1.6035    0.0000 C   0  0  0  0  0  0  0  0  0  0  0  0
    1.6507   -2.3110    0.0000 C   0  0  0  0  0  0  0  0  0  0  0  0
    3.2071   -2.3110    0.0000 C   0  0  0  0  0  0  0  0  0  0  0  0
    2.0280   -2.9713    0.0000 C   0  0  0  0  0  0  0  0  0  0  0  0
    2.0280   -0.1887    0.0000 C   0  0  0  0  0  0  0  0  0  0  0  0
    2.7826   -4.4333    0.0000 C   0  0  0  0  0  0  0  0  0  0  0  0
    3.2071   -5.1408    0.0000 C   0  0  0  0  0  0  0  0  0  0  0  0
    2.8298   -5.8482    0.0000 C   0  0  0  0  0  0  0  0  0  0  0  0
    3.2071   -6.5556    0.0000 C   0  0  0  0  0  0  0  0  0  0  0  0
    4.0560   -5.1408    0.0000 C   0  0  0  0  0  0  0  0  0  0  0  0
    4.0560   -6.5556    0.0000 C   0  0  0  0  0  0  0  0  0  0  0  0
    4.4805   -5.8482    0.0000 C   0  0  0  0  0  0  0  0  0  0  0  0
    3.2071   -8.0177    0.0000 C   0  0  0  0  0  0  0  0  0  0  0  0
    2.8298   -8.7251    0.0000 C   0  0  0  0  0  0  0  0  0  0  0  0
    4.0560   -8.0177    0.0000 C   0  0  0  0  0  0  0  0  0  0  0  0
    3.2542   -9.4326    0.0000 C   0  0  0  0  0  0  0  0  0  0  0  0
    4.4333   -8.6780    0.0000 C   0  0  0  0  0  0  0  0  0  0  0  0
    4.0560   -9.4326    0.0000 C   0  0  0  0  0  0  0  0  0  0  0  0
  1  3  2  0  0  0  0
  1  4  2  0  0  0  0
  1  5  1  0  0  0  0
  1 10  1  0  0  0  0
  2  8  1  0  0  0  0
  2 16  1  0  0  0  0
  6 19  1  0  0  0  0
  6 23  1  0  0  0  0
  7  9  1  0  0  0  0
  7 10  1  0  0  0  0
  7 11  1  0  0  0  0
  7 12  1  0  0  0  0
  8  9  1  0  0  0  0
  8 13  1  0  0  0  0
  8 14  1  0  0  0  0
 10 15  1  0  0  0  0
 11 13  1  0  0  0  0
 12 14  1  0  0  0  0
 16 17  1  0  0  0  0
 17 18  2  0  0  0  0
 17 20  1  0  0  0  0
 18 19  1  0  0  0  0
 19 21  2  0  0  0  0
 20 22  2  0  0  0  0
 21 22  1  0  0  0  0
 23 24  2  0  0  0  0
 23 25  1  0  0  0  0
 24 26  1  0  0  0  0
 25 27  2  0  0  0  0
 26 28  2  0  0  0  0
 27 28  1  0  0  0  0
M  END
> <PUBCHEM_COMPOUND_ID_TYPE>
0

> <PUBCHEM_TOTAL_CHARGE>
0

> <PUBCHEM_SUBSTANCE_ID>
310934526

> <PUBCHEM_SUBSTANCE_VERSION>
1

> <PUBCHEM_EXT_DATASOURCE_NAME>
4488

> <PUBCHEM_EXT_DATASOURCE_REGID>
SCHEMBL16112015

> <PUBCHEM_SUBSTANCE_COMMENT>
InChI=1S/C22H26O5S/c1-17(28(23,24)25)21-10-12-22(16-21,13-11-21)26-15-18-6-5-9-20(14-18)27-19-7-3-2-4-8-19/h2-9,14,17H,10-13,15-16H2,1H3,(H,23,24,25)
InChIKey=AQPRAOBYWXGWNH-UHFFFAOYSA-N

> <PUBCHEM_SUBSTANCE_SYNONYM>
SCHEMBL16112015

> <PUBCHEM_XREF_EXT_ID>
SCHEMBL16112015

> <PUBCHEM_EXT_DATASOURCE_URL>
https://www.surechembl.org/

> <PUBCHEM_EXT_SUBSTANCE_URL>
https://www.surechembl.org/chemical/SCHEMBL16112015

> <PUBCHEM_CID_ASSOCIATIONS>
117602724  1

> <PUBCHEM_COORDINATE_TYPE>
1
3

$$$$
