310947085
  -OEChem-07211613022D

 42 46  0     1  0  0  0  0  0999 V2000
    2.4689   -2.5652    0.0000 S   0  0  0  0  0  0  0  0  0  0  0  0
   -3.1866    1.5396    0.0000 F   0  0  0  0  0  0  0  0  0  0  0  0
   -1.7453    4.0391    0.0000 F   0  0  0  0  0  0  0  0  0  0  0  0
    2.4689   -2.5652    0.0000 O   0  0  0  0  0  0  0  0  0  0  0  0
    2.4689   -2.5652    0.0000 O   0  0  0  0  0  0  0  0  0  0  0  0
   -1.7453   -0.9598    0.0000 N   0  0  0  0  0  0  0  0  0  0  0  0
   -1.0703   -1.4523    0.0000 N   0  0  0  0  0  0  0  0  0  0  0  0
   -0.8332   -2.9119    0.0000 N   0  0  0  0  0  0  0  0  0  0  0  0
   -1.7453    1.5396    0.0000 N   0  0  0  0  0  0  0  0  0  0  0  0
   -3.5332   -2.6929    0.0000 N   0  0  0  0  0  0  0  0  0  0  0  0
    2.4689   -2.5652    0.0000 N   0  0  0  0  0  0  0  0  0  0  0  0
    0.4074    0.2078    0.0000 N   0  0  0  0  0  0  0  0  0  0  0  0
   -1.7453   -0.1206    0.0000 C   0  0  0  0  0  0  0  0  0  0  0  0
   -2.4386   -1.4706    0.0000 C   0  0  0  0  0  0  0  0  0  0  0  0
   -2.1649   -2.2186    0.0000 C   0  0  0  0  0  0  0  0  0  0  0  0
   -1.3440   -2.2368    0.0000 C   0  0  0  0  0  0  0  0  0  0  0  0
   -2.7488   -2.8389    0.0000 C   0  0  0  0  0  0  0  0  0  0  0  0
   -2.4751    0.2990    0.0000 C   0  0  0  0  0  0  0  0  0  0  0  0
   -1.0338    0.2990    0.0000 C   0  0  0  0  0  0  0  0  0  0  0  0
   -3.2231   -1.2699    0.0000 C   0  0  0  0  0  0  0  0  0  0  0  0
   -1.0156   -0.5402    0.0000 C   0  0  0  0  0  0  0  0  0  0  0  0
   -2.4568    1.1383    0.0000 C   0  0  0  0  0  0  0  0  0  0  0  0
   -1.0338    1.1200    0.0000 C   0  0  0  0  0  0  0  0  0  0  0  0
   -3.7886   -1.8902    0.0000 C   0  0  0  0  0  0  0  0  0  0  0  0
   -0.0122   -2.8206    0.0000 C   0  0  0  0  0  0  0  0  0  0  0  0
   -1.7453    2.3789    0.0000 C   0  0  3  0  0  0  0  0  0  0  0  0
   -2.4934    2.8167    0.0000 C   0  0  0  0  0  0  0  0  0  0  0  0
   -2.5481   -3.3679    0.0000 C   0  0  0  0  0  0  0  0  0  0  0  0
   -0.3041   -0.1388    0.0000 C   0  0  0  0  0  0  0  0  0  0  0  0
    1.6297   -2.6564    0.0000 C   0  0  0  0  0  0  0  0  0  0  0  0
    0.4622   -3.4774    0.0000 C   0  0  0  0  0  0  0  0  0  0  0  0
    0.3345   -2.0727    0.0000 C   0  0  0  0  0  0  0  0  0  0  0  0
   -3.1866    2.3971    0.0000 C   0  0  0  0  0  0  0  0  0  0  0  0
   -2.4751    3.6377    0.0000 C   0  0  0  0  0  0  0  0  0  0  0  0
    1.3014   -3.4044    0.0000 C   0  0  0  0  0  0  0  0  0  0  0  0
    1.1554   -1.9814    0.0000 C   0  0  0  0  0  0  0  0  0  0  0  0
   -1.0338    2.7802    0.0000 C   0  0  0  0  0  0  0  0  0  0  0  0
   -3.8981    2.7802    0.0000 C   0  0  0  0  0  0  0  0  0  0  0  0
   -3.1684    4.0207    0.0000 C   0  0  0  0  0  0  0  0  0  0  0  0
   -3.8981    3.6194    0.0000 C   0  0  0  0  0  0  0  0  0  0  0  0
    3.8981   -4.0391    0.0000 C   0  0  0  0  0  0  0  0  0  0  0  0
    3.8981   -4.0391    0.0000 C   0  0  0  0  0  0  0  0  0  0  0  0
  1  4  2  0  0  0  0
  1  5  2  0  0  0  0
  1 11  1  0  0  0  0
  1 30  1  0  0  0  0
  2 33  1  0  0  0  0
  3 34  1  0  0  0  0
  6  7  1  0  0  0  0
  6 13  1  0  0  0  0
  6 14  1  0  0  0  0
  7 16  2  0  0  0  0
  8 16  1  0  0  0  0
  8 25  1  0  0  0  0
  9 22  1  0  0  0  0
  9 23  1  0  0  0  0
  9 26  1  0  0  0  0
 10 17  1  0  0  0  0
 10 24  1  0  0  0  0
 11 41  1  0  0  0  0
 11 42  1  0  0  0  0
 12 29  3  0  0  0  0
 13 18  1  0  0  0  0
 13 19  1  0  0  0  0
 13 21  1  0  0  0  0
 14 15  2  0  0  0  0
 14 20  1  0  0  0  0
 15 16  1  0  0  0  0
 15 17  1  0  0  0  0
 17 28  2  0  0  0  0
 18 22  1  0  0  0  0
 19 23  1  0  0  0  0
 20 24  2  0  0  0  0
 21 29  1  0  0  0  0
 25 31  2  0  0  0  0
 25 32  1  0  0  0  0
 26 27  1  0  0  0  0
 26 37  1  0  0  0  0
 27 33  1  0  0  0  0
 27 34  2  0  0  0  0
 30 35  2  0  0  0  0
 30 36  1  0  0  0  0
 31 35  1  0  0  0  0
 32 36  2  0  0  0  0
 33 38  2  0  0  0  0
 34 39  1  0  0  0  0
 38 40  1  0  0  0  0
 39 40  2  0  0  0  0
M  END
> <PUBCHEM_COMPOUND_ID_TYPE>
0

> <PUBCHEM_TOTAL_CHARGE>
0

> <PUBCHEM_SUBSTANCE_ID>
310947085

> <PUBCHEM_SUBSTANCE_VERSION>
1

> <PUBCHEM_EXT_DATASOURCE_NAME>
4488

> <PUBCHEM_EXT_DATASOURCE_REGID>
SCHEMBL16125239

> <PUBCHEM_SUBSTANCE_COMMENT>
InChI=1S/C30H33F2N7O2S/c1-20-27-26(12-17-34-20)39(36-29(27)35-22-8-10-23(11-9-22)42(40,41)37(3)4)30(13-16-33)14-18-38(19-15-30)21(2)28-24(31)6-5-7-25(28)32/h5-12,17,21,34H,1,13-15,18-19H2,2-4H3,(H,35,36)
InChIKey=QDOKPNUBTGMKPD-UHFFFAOYSA-N

> <PUBCHEM_SUBSTANCE_SYNONYM>
SCHEMBL16125239

> <PUBCHEM_XREF_EXT_ID>
SCHEMBL16125239

> <PUBCHEM_EXT_DATASOURCE_URL>
https://www.surechembl.org/

> <PUBCHEM_EXT_SUBSTANCE_URL>
https://www.surechembl.org/chemical/SCHEMBL16125239

> <PUBCHEM_CID_ASSOCIATIONS>
117612937  1

> <PUBCHEM_COORDINATE_TYPE>
1
3

$$$$
