310949729
  -OEChem-07211613022D

 29 31  0     1  0  0  0  0  0999 V2000
    1.4731   -2.4280    0.0000 O   0  0  0  0  0  0  0  0  0  0  0  0
   -1.3511   -1.5746    0.0000 O   0  0  0  0  0  0  0  0  0  0  0  0
    1.6965    2.4280    0.0000 O   0  0  0  0  0  0  0  0  0  0  0  0
    2.9359   -1.5340    0.0000 N   0  0  0  0  0  0  0  0  0  0  0  0
    3.4844   -0.9245    0.0000 N   0  0  0  0  0  0  0  0  0  0  0  0
    1.9809    1.0260    0.0000 N   0  0  0  0  0  0  0  0  0  0  0  0
    0.7618   -1.1886    0.0000 N   0  0  0  0  0  0  0  0  0  0  0  0
    2.3060   -0.3759    0.0000 C   0  0  0  0  0  0  0  0  0  0  0  0
    2.1638   -1.1886    0.0000 C   0  0  3  0  0  0  0  0  0  0  0  0
    3.0781   -0.2133    0.0000 C   0  0  0  0  0  0  0  0  0  0  0  0
    1.4731   -1.5746    0.0000 C   0  0  0  0  0  0  0  0  0  0  0  0
    1.7372    0.2337    0.0000 C   0  0  0  0  0  0  0  0  0  0  0  0
    3.3422    0.5993    0.0000 C   0  0  0  0  0  0  0  0  0  0  0  0
    2.7734    1.1886    0.0000 C   0  0  0  0  0  0  0  0  0  0  0  0
   -2.0622   -0.3149    0.0000 C   0  0  0  0  0  0  0  0  0  0  0  0
    1.4324    1.6152    0.0000 C   0  0  0  0  0  0  0  0  0  0  0  0
   -2.0622   -1.1480    0.0000 C   0  0  0  0  0  0  0  0  0  0  0  0
   -1.3511    0.0914    0.0000 C   0  0  0  0  0  0  0  0  0  0  0  0
    0.0508   -1.5746    0.0000 C   0  0  0  0  0  0  0  0  0  0  0  0
   -2.7937    0.0711    0.0000 C   0  0  0  0  0  0  0  0  0  0  0  0
   -0.6806   -1.1683    0.0000 C   0  0  0  0  0  0  0  0  0  0  0  0
   -2.7328   -1.5340    0.0000 C   0  0  0  0  0  0  0  0  0  0  0  0
    0.7822   -0.3555    0.0000 C   0  0  0  0  0  0  0  0  0  0  0  0
   -3.4844   -0.3353    0.0000 C   0  0  0  0  0  0  0  0  0  0  0  0
   -3.4844   -1.1480    0.0000 C   0  0  0  0  0  0  0  0  0  0  0  0
    0.6196    1.4527    0.0000 C   0  0  0  0  0  0  0  0  0  0  0  0
   -1.3308    0.9245    0.0000 C   0  0  0  0  0  0  0  0  0  0  0  0
   -0.6196    0.4977    0.0000 C   0  0  0  0  0  0  0  0  0  0  0  0
   -0.6400   -0.3149    0.0000 C   0  0  0  0  0  0  0  0  0  0  0  0
  1 11  2  0  0  0  0
  2 17  1  0  0  0  0
  2 21  1  0  0  0  0
  3 16  2  0  0  0  0
  4  5  1  0  0  0  0
  4  9  1  0  0  0  0
  5 10  1  0  0  0  0
  6 12  1  0  0  0  0
  6 14  1  0  0  0  0
  6 16  1  0  0  0  0
  7 11  1  0  0  0  0
  7 19  1  0  0  0  0
  7 23  1  0  0  0  0
  8  9  1  0  0  0  0
  8 10  2  0  0  0  0
  8 12  1  0  0  0  0
  9 11  1  0  0  0  0
 10 13  1  0  0  0  0
 13 14  1  0  0  0  0
 15 17  1  0  0  0  0
 15 18  1  0  0  0  0
 15 20  2  0  0  0  0
 16 26  1  0  0  0  0
 17 22  2  0  0  0  0
 18 27  1  0  0  0  0
 18 28  1  0  0  0  0
 18 29  1  0  0  0  0
 19 21  1  0  0  0  0
 20 24  1  0  0  0  0
 22 25  1  0  0  0  0
 24 25  2  0  0  0  0
M  END
> <PUBCHEM_COMPOUND_ID_TYPE>
0

> <PUBCHEM_TOTAL_CHARGE>
0

> <PUBCHEM_SUBSTANCE_ID>
310949729

> <PUBCHEM_SUBSTANCE_VERSION>
1

> <PUBCHEM_EXT_DATASOURCE_NAME>
4488

> <PUBCHEM_EXT_DATASOURCE_REGID>
SCHEMBL16127927

> <PUBCHEM_SUBSTANCE_COMMENT>
InChI=1S/C22H32N4O3/c1-15(27)26-11-10-18-16(14-26)20(24-23-18)21(28)25(5)12-13-29-19-9-7-6-8-17(19)22(2,3)4/h6-9,20,23-24H,10-14H2,1-5H3
InChIKey=LEUSMMLRNRTRKN-UHFFFAOYSA-N

> <PUBCHEM_SUBSTANCE_SYNONYM>
SCHEMBL16127927

> <PUBCHEM_XREF_EXT_ID>
SCHEMBL16127927

> <PUBCHEM_EXT_DATASOURCE_URL>
https://www.surechembl.org/

> <PUBCHEM_EXT_SUBSTANCE_URL>
https://www.surechembl.org/chemical/SCHEMBL16127927

> <PUBCHEM_CID_ASSOCIATIONS>
117615072  1

> <PUBCHEM_COORDINATE_TYPE>
1
3

$$$$
