310931797
  -OEChem-07211613022D

 23 26  0     1  0  0  0  0  0999 V2000
    0.2348   -2.7168    0.0000 O   0  0  0  0  0  0  0  0  0  0  0  0
    2.7503   -6.7081    0.0000 O   0  0  0  0  0  0  0  0  0  0  0  0
    1.6770   -2.4820    0.0000 N   0  0  0  0  0  0  0  0  0  0  0  0
    2.0795   -3.7565    0.0000 N   0  0  0  0  0  0  0  0  0  0  0  0
    3.1193   -2.7168    0.0000 N   0  0  0  0  0  0  0  0  0  0  0  0
    1.2410   -3.7565    0.0000 C   0  0  3  0  0  0  0  0  0  0  0  0
    1.0062   -2.9851    0.0000 C   0  0  0  0  0  0  0  0  0  0  0  0
    0.7715   -4.4274    0.0000 C   0  0  0  0  0  0  0  0  0  0  0  0
    1.6099   -4.4944    0.0000 C   0  0  0  0  0  0  0  0  0  0  0  0
    2.3478   -2.9851    0.0000 C   0  0  0  0  0  0  0  0  0  0  0  0
    0.6708   -5.2323    0.0000 C   0  0  0  0  0  0  0  0  0  0  0  0
    0.0000   -4.7628    0.0000 C   0  0  0  0  0  0  0  0  0  0  0  0
    1.6770   -1.6770    0.0000 C   0  0  0  0  0  0  0  0  0  0  0  0
    2.4485   -4.5615    0.0000 C   0  0  0  0  0  0  0  0  0  0  0  0
    1.1739   -5.1988    0.0000 C   0  0  0  0  0  0  0  0  0  0  0  0
    0.9727   -1.2410    0.0000 C   0  0  0  0  0  0  0  0  0  0  0  0
    2.3814   -1.2410    0.0000 C   0  0  0  0  0  0  0  0  0  0  0  0
    2.8174   -5.2658    0.0000 C   0  0  0  0  0  0  0  0  0  0  0  0
    1.5428   -5.9367    0.0000 C   0  0  0  0  0  0  0  0  0  0  0  0
    2.3814   -5.9702    0.0000 C   0  0  0  0  0  0  0  0  0  0  0  0
    0.9727   -0.4360    0.0000 C   0  0  0  0  0  0  0  0  0  0  0  0
    2.3814   -0.4360    0.0000 C   0  0  0  0  0  0  0  0  0  0  0  0
    1.6770    0.0000    0.0000 C   0  0  0  0  0  0  0  0  0  0  0  0
  1  7  2  0  0  0  0
  2 20  1  0  0  0  0
  3  7  1  0  0  0  0
  3 10  1  0  0  0  0
  3 13  1  0  0  0  0
  4  6  1  0  0  0  0
  4 10  1  0  0  0  0
  5 10  2  3  0  0  0
  6  7  1  0  0  0  0
  6  8  1  0  0  0  0
  6  9  1  0  0  0  0
  8 11  1  0  0  0  0
  8 12  1  0  0  0  0
  9 14  2  0  0  0  0
  9 15  1  0  0  0  0
 11 12  1  0  0  0  0
 13 16  1  0  0  0  0
 13 17  1  0  0  0  0
 14 18  1  0  0  0  0
 15 19  2  0  0  0  0
 16 21  1  0  0  0  0
 17 22  1  0  0  0  0
 18 20  2  0  0  0  0
 19 20  1  0  0  0  0
 21 23  1  0  0  0  0
 22 23  1  0  0  0  0
M  END
> <PUBCHEM_COMPOUND_ID_TYPE>
0

> <PUBCHEM_TOTAL_CHARGE>
0

> <PUBCHEM_SUBSTANCE_ID>
310931797

> <PUBCHEM_SUBSTANCE_VERSION>
1

> <PUBCHEM_EXT_DATASOURCE_NAME>
4488

> <PUBCHEM_EXT_DATASOURCE_REGID>
SCHEMBL16109129

> <PUBCHEM_SUBSTANCE_COMMENT>
InChI=1S/C18H23N3O2/c19-17-20-18(12-6-7-12,13-8-10-15(22)11-9-13)16(23)21(17)14-4-2-1-3-5-14/h8-12,14,22H,1-7H2,(H2,19,20)
InChIKey=LIXPTJRZFQNTOH-UHFFFAOYSA-N

> <PUBCHEM_SUBSTANCE_SYNONYM>
SCHEMBL16109129

> <PUBCHEM_XREF_EXT_ID>
SCHEMBL16109129

> <PUBCHEM_EXT_DATASOURCE_URL>
https://www.surechembl.org/

> <PUBCHEM_EXT_SUBSTANCE_URL>
https://www.surechembl.org/chemical/SCHEMBL16109129

> <PUBCHEM_CID_ASSOCIATIONS>
86274324  1

> <PUBCHEM_COORDINATE_TYPE>
1
3

$$$$
