310938692
  -OEChem-07211613022D

 16 17  0     1  0  0  0  0  0999 V2000
    1.4580    6.8870    0.0000 S   0  0  3  0  0  0  0  0  0  0  0  0
    1.0455    6.1725    0.0000 O   0  0  0  0  0  0  0  0  0  0  0  0
    1.8705    6.1725    0.0000 N   0  0  0  0  0  0  0  0  0  0  0  0
   -1.8875    7.9126    0.0000 N   0  0  0  0  0  0  0  0  0  0  0  0
    0.7906    7.3719    0.0000 C   0  0  3  0  0  0  0  0  0  0  0  0
    2.1255    7.3719    0.0000 C   0  0  0  0  0  0  0  0  0  0  0  0
    0.0761    6.9594    0.0000 C   0  0  0  0  0  0  0  0  0  0  0  0
    1.0455    8.1565    0.0000 C   0  0  0  0  0  0  0  0  0  0  0  0
   -0.5073    7.5428    0.0000 C   0  0  0  0  0  0  0  0  0  0  0  0
    1.8705    8.1565    0.0000 C   0  0  0  0  0  0  0  0  0  0  0  0
   -1.3041    7.3292    0.0000 C   0  0  0  0  0  0  0  0  0  0  0  0
   -0.2937    8.3397    0.0000 C   0  0  0  0  0  0  0  0  0  0  0  0
   -1.6740    8.7095    0.0000 C   0  0  0  0  0  0  0  0  0  0  0  0
   -0.8771    8.9230    0.0000 C   0  0  0  0  0  0  0  0  0  0  0  0
    2.6955    6.1725    0.0000 C   0  0  0  0  0  0  0  0  0  0  0  0
   -2.2573    9.2929    0.0000 C   0  0  0  0  0  0  0  0  0  0  0  0
  1  2  2  0  0  0  0
  1  3  2  0  0  0  0
  1  5  1  0  0  0  0
  1  6  1  0  0  0  0
  3 15  1  0  0  0  0
  4 11  2  0  0  0  0
  4 13  1  0  0  0  0
  5  7  1  0  0  0  0
  5  8  1  0  0  0  0
  6 10  1  0  0  0  0
  7  9  1  0  0  0  0
  8 10  1  0  0  0  0
  9 11  1  0  0  0  0
  9 12  2  0  0  0  0
 12 14  1  0  0  0  0
 13 14  2  0  0  0  0
 13 16  1  0  0  0  0
M  END
> <PUBCHEM_COMPOUND_ID_TYPE>
0

> <PUBCHEM_TOTAL_CHARGE>
0

> <PUBCHEM_SUBSTANCE_ID>
310938692

> <PUBCHEM_SUBSTANCE_VERSION>
1

> <PUBCHEM_EXT_DATASOURCE_NAME>
4488

> <PUBCHEM_EXT_DATASOURCE_REGID>
SCHEMBL16116606

> <PUBCHEM_SUBSTANCE_COMMENT>
InChI=1S/C12H18N2OS/c1-10-5-6-11(9-14-10)8-12-4-3-7-16(12,15)13-2/h5-6,9,12H,3-4,7-8H2,1-2H3
InChIKey=QVEFSMQYSMWJBU-UHFFFAOYSA-N

> <PUBCHEM_SUBSTANCE_SYNONYM>
SCHEMBL16116606

> <PUBCHEM_XREF_EXT_ID>
SCHEMBL16116606

> <PUBCHEM_EXT_DATASOURCE_URL>
https://www.surechembl.org/

> <PUBCHEM_EXT_SUBSTANCE_URL>
https://www.surechembl.org/chemical/SCHEMBL16116606

> <PUBCHEM_CID_ASSOCIATIONS>
117606123  1

> <PUBCHEM_COORDINATE_TYPE>
1
3

$$$$
