310932245
  -OEChem-07211613022D

 26 29  0     1  0  0  0  0  0999 V2000
    5.1584   -2.6724    0.0000 O   0  0  0  0  0  0  0  0  0  0  0  0
    5.1998   -0.5594    0.0000 O   0  0  0  0  0  0  0  0  0  0  0  0
    0.0000   -0.0414    0.0000 O   0  0  0  0  0  0  0  0  0  0  0  0
    0.7043   -1.2844    0.0000 N   0  0  0  0  0  0  0  0  0  0  0  0
    1.4294   -0.0414    0.0000 N   0  0  0  0  0  0  0  0  0  0  0  0
    5.5934   -1.9473    0.0000 N   0  0  0  0  0  0  0  0  0  0  0  0
    2.1545   -1.2844    0.0000 C   0  0  0  0  0  0  0  0  0  0  0  0
    1.4294   -1.6780    0.0000 C   0  0  3  0  0  0  0  0  0  0  0  0
    2.1545   -0.4557    0.0000 C   0  0  0  0  0  0  0  0  0  0  0  0
    3.5632   -1.2844    0.0000 C   0  0  0  0  0  0  0  0  0  0  0  0
    4.2676   -1.6780    0.0000 C   0  0  0  0  0  0  0  0  0  0  0  0
    2.8382   -1.6780    0.0000 C   0  0  0  0  0  0  0  0  0  0  0  0
    1.4294   -2.5067    0.0000 C   0  0  0  0  0  0  0  0  0  0  0  0
    0.7043   -0.4557    0.0000 C   0  0  0  0  0  0  0  0  0  0  0  0
    5.0133   -1.3673    0.0000 C   0  0  0  0  0  0  0  0  0  0  0  0
    4.3712   -2.5067    0.0000 C   0  0  0  0  0  0  0  0  0  0  0  0
    2.8382   -0.0414    0.0000 C   0  0  0  0  0  0  0  0  0  0  0  0
    3.5632   -0.4557    0.0000 C   0  0  0  0  0  0  0  0  0  0  0  0
    2.1545   -2.9210    0.0000 C   0  0  0  0  0  0  0  0  0  0  0  0
    0.7251   -2.9210    0.0000 C   0  0  0  0  0  0  0  0  0  0  0  0
    0.0000   -1.6780    0.0000 C   0  0  0  0  0  0  0  0  0  0  0  0
    3.7704   -3.0660    0.0000 C   0  0  0  0  0  0  0  0  0  0  0  0
    2.1545   -3.7289    0.0000 C   0  0  0  0  0  0  0  0  0  0  0  0
    0.7251   -3.7289    0.0000 C   0  0  0  0  0  0  0  0  0  0  0  0
    1.4294   -4.1433    0.0000 C   0  0  0  0  0  0  0  0  0  0  0  0
    4.5783    0.0000    0.0000 C   0  0  0  0  0  0  0  0  0  0  0  0
  1  6  1  0  0  0  0
  1 16  1  0  0  0  0
  2 15  1  0  0  0  0
  2 26  1  0  0  0  0
  3 14  2  0  0  0  0
  4  8  1  0  0  0  0
  4 14  1  0  0  0  0
  4 21  1  0  0  0  0
  5  9  1  0  0  0  0
  5 14  1  0  0  0  0
  6 15  2  0  0  0  0
  7  8  1  0  0  0  0
  7  9  2  0  0  0  0
  7 12  1  0  0  0  0
  8 13  1  0  0  0  0
  9 17  1  0  0  0  0
 10 11  1  0  0  0  0
 10 12  2  0  0  0  0
 10 18  1  0  0  0  0
 11 15  1  0  0  0  0
 11 16  2  0  0  0  0
 13 19  2  0  0  0  0
 13 20  1  0  0  0  0
 16 22  1  0  0  0  0
 17 18  2  0  0  0  0
 19 23  1  0  0  0  0
 20 24  2  0  0  0  0
 23 25  2  0  0  0  0
 24 25  1  0  0  0  0
M  END
> <PUBCHEM_COMPOUND_ID_TYPE>
0

> <PUBCHEM_TOTAL_CHARGE>
0

> <PUBCHEM_SUBSTANCE_ID>
310932245

> <PUBCHEM_SUBSTANCE_VERSION>
1

> <PUBCHEM_EXT_DATASOURCE_NAME>
4488

> <PUBCHEM_EXT_DATASOURCE_REGID>
SCHEMBL16109603

> <PUBCHEM_SUBSTANCE_COMMENT>
InChI=1S/C20H19N3O3/c1-12-17(19(25-3)22-26-12)14-9-10-16-15(11-14)18(23(2)20(24)21-16)13-7-5-4-6-8-13/h4-11,18H,1-3H3,(H,21,24)
InChIKey=LWKPCHOTVDJWMH-UHFFFAOYSA-N

> <PUBCHEM_SUBSTANCE_SYNONYM>
SCHEMBL16109603

> <PUBCHEM_XREF_EXT_ID>
SCHEMBL16109603

> <PUBCHEM_EXT_DATASOURCE_URL>
https://www.surechembl.org/

> <PUBCHEM_EXT_SUBSTANCE_URL>
https://www.surechembl.org/chemical/SCHEMBL16109603

> <PUBCHEM_CID_ASSOCIATIONS>
86273822  1

> <PUBCHEM_COORDINATE_TYPE>
1
3

$$$$
