310943727
  -OEChem-07211613022D

 25 27  0     1  0  0  0  0  0999 V2000
    4.6079    0.6994    0.0000 O   0  0  0  0  0  0  0  0  0  0  0  0
   -1.9941   -1.3008    0.0000 N   0  0  3  0  0  0  0  0  0  0  0  0
   -3.7735   -0.7854    0.0000 N   0  0  3  0  0  0  0  0  0  0  0  0
    0.1411    1.7671    0.0000 N   0  0  0  0  0  0  0  0  0  0  0  0
    0.8774   -0.4541    0.0000 C   0  0  0  0  0  0  0  0  0  0  0  0
    0.1534   -0.0491    0.0000 C   0  0  0  0  0  0  0  0  0  0  0  0
    1.5646   -0.0368    0.0000 C   0  0  0  0  0  0  0  0  0  0  0  0
   -0.5584   -1.2762    0.0000 C   0  0  0  0  0  0  0  0  0  0  0  0
   -0.5584   -0.4786    0.0000 C   0  0  0  0  0  0  0  0  0  0  0  0
    0.8774   -1.2762    0.0000 C   0  0  0  0  0  0  0  0  0  0  0  0
    0.1657   -1.6935    0.0000 C   0  0  0  0  0  0  0  0  0  0  0  0
    1.5769    0.7854    0.0000 C   0  0  0  0  0  0  0  0  0  0  0  0
    2.3131   -0.4295    0.0000 C   0  0  0  0  0  0  0  0  0  0  0  0
   -1.2578   -1.7057    0.0000 C   0  0  0  0  0  0  0  0  0  0  0  0
    0.1411    0.9572    0.0000 C   0  0  0  0  0  0  0  0  0  0  0  0
    3.0127    0.7976    0.0000 C   0  0  0  0  0  0  0  0  0  0  0  0
    2.2764    1.1903    0.0000 C   0  0  0  0  0  0  0  0  0  0  0  0
    3.0127   -0.0245    0.0000 C   0  0  0  0  0  0  0  0  0  0  0  0
   -2.6691   -1.7671    0.0000 C   0  0  0  0  0  0  0  0  0  0  0  0
   -1.9327   -0.4909    0.0000 C   0  0  0  0  0  0  0  0  0  0  0  0
   -3.4667   -1.5216    0.0000 C   0  0  0  0  0  0  0  0  0  0  0  0
    3.6998    1.2026    0.0000 C   0  0  0  0  0  0  0  0  0  0  0  0
   -2.5463    0.0736    0.0000 C   0  0  0  0  0  0  0  0  0  0  0  0
   -3.3685   -0.0614    0.0000 C   0  0  0  0  0  0  0  0  0  0  0  0
   -4.6079   -0.7854    0.0000 C   0  0  0  0  0  0  0  0  0  0  0  0
  1 22  1  0  0  0  0
  2 14  1  0  0  0  0
  2 19  1  0  0  0  0
  2 20  1  0  0  0  0
  3 21  1  0  0  0  0
  3 24  1  0  0  0  0
  3 25  1  0  0  0  0
  4 15  3  0  0  0  0
  5  6  2  0  0  0  0
  5  7  1  0  0  0  0
  5 10  1  0  0  0  0
  6  9  1  0  0  0  0
  6 15  1  0  0  0  0
  7 12  2  0  0  0  0
  7 13  1  0  0  0  0
  8  9  2  0  0  0  0
  8 11  1  0  0  0  0
  8 14  1  0  0  0  0
 10 11  2  0  0  0  0
 12 17  1  0  0  0  0
 13 18  2  0  0  0  0
 16 17  2  0  0  0  0
 16 18  1  0  0  0  0
 16 22  1  0  0  0  0
 19 21  1  0  0  0  0
 20 23  1  0  0  0  0
 23 24  1  0  0  0  0
M  END
> <PUBCHEM_COMPOUND_ID_TYPE>
0

> <PUBCHEM_TOTAL_CHARGE>
0

> <PUBCHEM_SUBSTANCE_ID>
310943727

> <PUBCHEM_SUBSTANCE_VERSION>
1

> <PUBCHEM_EXT_DATASOURCE_NAME>
4488

> <PUBCHEM_EXT_DATASOURCE_REGID>
SCHEMBL16121795

> <PUBCHEM_SUBSTANCE_COMMENT>
InChI=1S/C21H25N3O/c1-23-9-2-10-24(12-11-23)15-18-5-8-21(20(13-18)14-22)19-6-3-17(16-25)4-7-19/h3-8,13,25H,2,9-12,15-16H2,1H3
InChIKey=QKUZYPWZBVCQJM-UHFFFAOYSA-N

> <PUBCHEM_SUBSTANCE_SYNONYM>
SCHEMBL16121795

> <PUBCHEM_XREF_EXT_ID>
SCHEMBL16121795

> <PUBCHEM_EXT_DATASOURCE_URL>
https://www.surechembl.org/

> <PUBCHEM_EXT_SUBSTANCE_URL>
https://www.surechembl.org/chemical/SCHEMBL16121795

> <PUBCHEM_CID_ASSOCIATIONS>
86299879  1

> <PUBCHEM_COORDINATE_TYPE>
1
3

$$$$
