310947009
  -OEChem-07211613022D

 37 40  0     1  0  0  0  0  0999 V2000
   -1.1046   10.4277    0.0000 F   0  0  0  0  0  0  0  0  0  0  0  0
   -2.5335   12.9027    0.0000 F   0  0  0  0  0  0  0  0  0  0  0  0
   -2.5335    9.6027    0.0000 O   0  0  0  0  0  0  0  0  0  0  0  0
   -3.9625   12.0777    0.0000 O   0  0  0  0  0  0  0  0  0  0  0  0
    0.3243   12.9027    0.0000 O   0  0  0  0  0  0  0  0  0  0  0  0
    0.3243   14.5527    0.0000 O   0  0  0  0  0  0  0  0  0  0  0  0
   -1.1046   12.0777    0.0000 N   0  0  0  0  0  0  0  0  0  0  0  0
    0.3243   12.0777    0.0000 N   0  0  0  0  0  0  0  0  0  0  0  0
    1.7533   12.0777    0.0000 N   0  0  0  0  0  0  0  0  0  0  0  0
    1.7533   10.4277    0.0000 N   0  0  0  0  0  0  0  0  0  0  0  0
    3.9668   13.1577    0.0000 N   0  0  0  0  0  0  0  0  0  0  0  0
    4.4518   12.4902    0.0000 N   0  0  0  0  0  0  0  0  0  0  0  0
   -1.8191   11.6652    0.0000 C   0  0  0  0  0  0  0  0  0  0  0  0
   -0.3901   11.6652    0.0000 C   0  0  0  0  0  0  0  0  0  0  0  0
   -1.8191   10.8402    0.0000 C   0  0  0  0  0  0  0  0  0  0  0  0
   -2.5335   12.0777    0.0000 C   0  0  0  0  0  0  0  0  0  0  0  0
   -2.5335   10.4277    0.0000 C   0  0  0  0  0  0  0  0  0  0  0  0
   -3.2480   11.6652    0.0000 C   0  0  0  0  0  0  0  0  0  0  0  0
    1.0388   11.6652    0.0000 C   0  0  0  0  0  0  0  0  0  0  0  0
    1.0388   10.8402    0.0000 C   0  0  0  0  0  0  0  0  0  0  0  0
   -3.2480   10.8402    0.0000 C   0  0  0  0  0  0  0  0  0  0  0  0
   -1.1046   12.9027    0.0000 C   0  0  0  0  0  0  0  0  0  0  0  0
   -0.3901   10.8402    0.0000 C   0  0  0  0  0  0  0  0  0  0  0  0
    2.4678   11.6652    0.0000 C   0  0  0  0  0  0  0  0  0  0  0  0
    0.3243   10.4277    0.0000 C   0  0  0  0  0  0  0  0  0  0  0  0
    3.1822   12.0777    0.0000 C   0  0  0  0  0  0  0  0  0  0  0  0
    2.4678   10.8402    0.0000 C   0  0  0  0  0  0  0  0  0  0  0  0
   -0.3901   13.3152    0.0000 C   0  0  3  0  0  0  0  0  0  0  0  0
    3.1822   12.9027    0.0000 C   0  0  0  0  0  0  0  0  0  0  0  0
    3.9668   11.8228    0.0000 C   0  0  0  0  0  0  0  0  0  0  0  0
   -0.3901   14.1402    0.0000 C   0  0  0  0  0  0  0  0  0  0  0  0
   -3.2480    9.1902    0.0000 C   0  0  0  0  0  0  0  0  0  0  0  0
   -3.9625   12.9027    0.0000 C   0  0  0  0  0  0  0  0  0  0  0  0
    4.3793   13.8721    0.0000 C   0  0  0  0  0  0  0  0  0  0  0  0
    0.3243   15.3777    0.0000 C   0  0  0  0  0  0  0  0  0  0  0  0
    1.0388   15.7902    0.0000 C   0  0  0  0  0  0  0  0  0  0  0  0
   -0.3901   15.7902    0.0000 C   0  0  0  0  0  0  0  0  0  0  0  0
  1 15  1  0  0  0  0
  2 16  1  0  0  0  0
  3 17  1  0  0  0  0
  3 32  1  0  0  0  0
  4 18  1  0  0  0  0
  4 33  1  0  0  0  0
  5 28  1  0  0  0  0
  6 31  1  0  0  0  0
  6 35  1  0  0  0  0
  7 13  1  0  0  0  0
  7 14  1  0  0  0  0
  7 22  1  0  0  0  0
  8 14  2  0  0  0  0
  8 19  1  0  0  0  0
  9 19  1  0  0  0  0
  9 24  2  0  0  0  0
 10 20  1  0  0  0  0
 10 27  2  0  0  0  0
 11 12  1  0  0  0  0
 11 29  1  0  0  0  0
 11 34  1  0  0  0  0
 12 30  2  0  0  0  0
 13 15  1  0  0  0  0
 13 16  2  0  0  0  0
 14 23  1  0  0  0  0
 15 17  2  0  0  0  0
 16 18  1  0  0  0  0
 17 21  1  0  0  0  0
 18 21  2  0  0  0  0
 19 20  2  0  0  0  0
 20 25  1  0  0  0  0
 22 28  1  0  0  0  0
 23 25  2  0  0  0  0
 24 26  1  0  0  0  0
 24 27  1  0  0  0  0
 26 29  2  0  0  0  0
 26 30  1  0  0  0  0
 28 31  1  0  0  0  0
 35 36  1  0  0  0  0
 35 37  1  0  0  0  0
M  END
> <PUBCHEM_COMPOUND_ID_TYPE>
0

> <PUBCHEM_TOTAL_CHARGE>
0

> <PUBCHEM_SUBSTANCE_ID>
310947009

> <PUBCHEM_SUBSTANCE_VERSION>
1

> <PUBCHEM_EXT_DATASOURCE_NAME>
4488

> <PUBCHEM_EXT_DATASOURCE_REGID>
SCHEMBL16125161

> <PUBCHEM_SUBSTANCE_COMMENT>
InChI=1S/C25H28F2N6O4/c1-14(2)37-13-16(34)12-33(24-22(26)19(35-4)8-20(36-5)23(24)27)21-7-6-17-25(31-21)30-18(10-28-17)15-9-29-32(3)11-15/h6-11,14,16,34H,12-13H2,1-5H3
InChIKey=GQZKUBNRNGTPMI-UHFFFAOYSA-N

> <PUBCHEM_SUBSTANCE_SYNONYM>
SCHEMBL16125161

> <PUBCHEM_XREF_EXT_ID>
SCHEMBL16125161

> <PUBCHEM_EXT_DATASOURCE_URL>
https://www.surechembl.org/

> <PUBCHEM_EXT_SUBSTANCE_URL>
https://www.surechembl.org/chemical/SCHEMBL16125161

> <PUBCHEM_CID_ASSOCIATIONS>
89530859  1

> <PUBCHEM_COORDINATE_TYPE>
1
3

> <PUBCHEM_BONDANNOTATIONS>
28  5  3

$$$$
