310943515
  -OEChem-07211613022D

 46 51  0     1  0  0  0  0  0999 V2000
    2.4318    4.0079    0.0000 O   0  0  0  0  0  0  0  0  0  0  0  0
    3.4537   -3.5893    0.0000 O   0  0  0  0  0  0  0  0  0  0  0  0
    3.2198    2.5549    0.0000 N   0  0  0  0  0  0  0  0  0  0  0  0
   -3.2691    0.4864    0.0000 N   0  0  3  0  0  0  0  0  0  0  0  0
    2.0009   -2.7643    0.0000 N   0  0  0  0  0  0  0  0  0  0  0  0
   -1.1389    3.5769    0.0000 N   0  0  0  0  0  0  0  0  0  0  0  0
    4.9806    2.0131    0.0000 N   0  0  3  0  0  0  0  0  0  0  0  0
   -5.0421    1.0158    0.0000 N   0  0  3  0  0  0  0  0  0  0  0  0
    0.2893    1.7299    0.0000 C   0  0  0  0  0  0  0  0  0  0  0  0
    1.0158    1.3360    0.0000 C   0  0  0  0  0  0  0  0  0  0  0  0
   -0.4002    1.3236    0.0000 C   0  0  0  0  0  0  0  0  0  0  0  0
    1.0158    0.4002    0.0000 C   0  0  0  0  0  0  0  0  0  0  0  0
    1.7299    2.5673    0.0000 C   0  0  0  0  0  0  0  0  0  0  0  0
    1.7177    1.7423    0.0000 C   0  0  0  0  0  0  0  0  0  0  0  0
   -1.1389    1.7299    0.0000 C   0  0  0  0  0  0  0  0  0  0  0  0
    0.3140    2.5549    0.0000 C   0  0  0  0  0  0  0  0  0  0  0  0
    1.0035    2.9612    0.0000 C   0  0  0  0  0  0  0  0  0  0  0  0
    2.4318    2.9736    0.0000 C   0  0  0  0  0  0  0  0  0  0  0  0
   -0.4002    0.4986    0.0000 C   0  0  0  0  0  0  0  0  0  0  0  0
   -1.8285    1.3236    0.0000 C   0  0  0  0  0  0  0  0  0  0  0  0
   -1.8408    0.4864    0.0000 C   0  0  0  0  0  0  0  0  0  0  0  0
    1.7299   -0.0185    0.0000 C   0  0  0  0  0  0  0  0  0  0  0  0
    0.3263   -0.0185    0.0000 C   0  0  0  0  0  0  0  0  0  0  0  0
   -1.0897    0.0924    0.0000 C   0  0  0  0  0  0  0  0  0  0  0  0
   -1.1389    2.7519    0.0000 C   0  0  0  0  0  0  0  0  0  0  0  0
    1.0281   -1.2621    0.0000 C   0  0  0  0  0  0  0  0  0  0  0  0
    1.7299   -0.8435    0.0000 C   0  0  0  0  0  0  0  0  0  0  0  0
    0.3263   -0.8435    0.0000 C   0  0  0  0  0  0  0  0  0  0  0  0
   -2.5426    0.0678    0.0000 C   0  0  0  0  0  0  0  0  0  0  0  0
    3.5276    1.7916    0.0000 C   0  0  0  0  0  0  0  0  0  0  0  0
    3.6385    3.2691    0.0000 C   0  0  0  0  0  0  0  0  0  0  0  0
    1.0281   -2.2841    0.0000 C   0  0  0  0  0  0  0  0  0  0  0  0
    4.3280    1.5576    0.0000 C   0  0  0  0  0  0  0  0  0  0  0  0
    4.4388    3.3922    0.0000 C   0  0  0  0  0  0  0  0  0  0  0  0
   -3.9217    0.0185    0.0000 C   0  0  0  0  0  0  0  0  0  0  0  0
   -3.2198    1.2990    0.0000 C   0  0  0  0  0  0  0  0  0  0  0  0
    5.0299    2.8505    0.0000 C   0  0  0  0  0  0  0  0  0  0  0  0
    2.0009   -3.5769    0.0000 C   0  0  0  0  0  0  0  0  0  0  0  0
    2.7150   -2.3333    0.0000 C   0  0  0  0  0  0  0  0  0  0  0  0
   -4.7097    0.2401    0.0000 C   0  0  0  0  0  0  0  0  0  0  0  0
   -3.8108    1.8531    0.0000 C   0  0  0  0  0  0  0  0  0  0  0  0
   -4.6235    1.7299    0.0000 C   0  0  0  0  0  0  0  0  0  0  0  0
    2.7396   -4.0079    0.0000 C   0  0  0  0  0  0  0  0  0  0  0  0
    3.4291   -2.7396    0.0000 C   0  0  0  0  0  0  0  0  0  0  0  0
    5.8671    1.4960    0.0000 C   0  0  0  0  0  0  0  0  0  0  0  0
   -5.8671    1.0158    0.0000 C   0  0  0  0  0  0  0  0  0  0  0  0
  1 18  2  0  0  0  0
  2 43  1  0  0  0  0
  2 44  1  0  0  0  0
  3 18  1  0  0  0  0
  3 30  1  0  0  0  0
  3 31  1  0  0  0  0
  4 29  1  0  0  0  0
  4 35  1  0  0  0  0
  4 36  1  0  0  0  0
  5 32  1  0  0  0  0
  5 38  1  0  0  0  0
  5 39  1  0  0  0  0
  6 25  3  0  0  0  0
  7 33  1  0  0  0  0
  7 37  1  0  0  0  0
  7 45  1  0  0  0  0
  8 40  1  0  0  0  0
  8 42  1  0  0  0  0
  8 46  1  0  0  0  0
  9 10  2  0  0  0  0
  9 11  1  0  0  0  0
  9 16  1  0  0  0  0
 10 12  1  0  0  0  0
 10 14  1  0  0  0  0
 11 15  2  0  0  0  0
 11 19  1  0  0  0  0
 12 22  2  0  0  0  0
 12 23  1  0  0  0  0
 13 14  2  0  0  0  0
 13 17  1  0  0  0  0
 13 18  1  0  0  0  0
 15 20  1  0  0  0  0
 15 25  1  0  0  0  0
 16 17  2  0  0  0  0
 19 24  2  0  0  0  0
 20 21  2  0  0  0  0
 21 24  1  0  0  0  0
 21 29  1  0  0  0  0
 22 27  1  0  0  0  0
 23 28  2  0  0  0  0
 26 27  2  0  0  0  0
 26 28  1  0  0  0  0
 26 32  1  0  0  0  0
 30 33  1  0  0  0  0
 31 34  1  0  0  0  0
 34 37  1  0  0  0  0
 35 40  1  0  0  0  0
 36 41  1  0  0  0  0
 38 43  1  0  0  0  0
 39 44  1  0  0  0  0
 41 42  1  0  0  0  0
M  END
> <PUBCHEM_COMPOUND_ID_TYPE>
0

> <PUBCHEM_TOTAL_CHARGE>
0

> <PUBCHEM_SUBSTANCE_ID>
310943515

> <PUBCHEM_SUBSTANCE_VERSION>
1

> <PUBCHEM_EXT_DATASOURCE_NAME>
4488

> <PUBCHEM_EXT_DATASOURCE_REGID>
SCHEMBL16121581

> <PUBCHEM_SUBSTANCE_COMMENT>
InChI=1S/C38H48N6O2/c1-40-13-3-15-42(19-17-40)29-31-7-11-35(34(25-31)27-39)36-12-10-33(38(45)44-16-4-14-41(2)18-20-44)26-37(36)32-8-5-30(6-9-32)28-43-21-23-46-24-22-43/h5-12,25-26H,3-4,13-24,28-29H2,1-2H3
InChIKey=UYSRQFHUICMNQR-UHFFFAOYSA-N

> <PUBCHEM_SUBSTANCE_SYNONYM>
SCHEMBL16121581

> <PUBCHEM_XREF_EXT_ID>
SCHEMBL16121581

> <PUBCHEM_EXT_DATASOURCE_URL>
https://www.surechembl.org/

> <PUBCHEM_EXT_SUBSTANCE_URL>
https://www.surechembl.org/chemical/SCHEMBL16121581

> <PUBCHEM_CID_ASSOCIATIONS>
86301999  1

> <PUBCHEM_COORDINATE_TYPE>
1
3

$$$$
