310936011
  -OEChem-07211613022D

 40 45  0     1  0  0  0  0  0999 V2000
    4.2446   -8.6307    0.0000 F   0  0  0  0  0  0  0  0  0  0  0  0
    4.2918   -7.7818    0.0000 F   0  0  0  0  0  0  0  0  0  0  0  0
    3.5371   -5.7538    0.0000 O   0  0  0  0  0  0  0  0  0  0  0  0
    5.7066   -3.7258    0.0000 O   0  0  0  0  0  0  0  0  0  0  0  0
    0.7074   -3.3013    0.0000 N   0  0  3  0  0  0  0  0  0  0  0  0
    0.0000   -2.0751    0.0000 N   0  0  0  0  0  0  0  0  0  0  0  0
    0.7074   -0.8018    0.0000 N   0  0  0  0  0  0  0  0  0  0  0  0
    2.8297   -6.9800    0.0000 N   0  0  0  0  0  0  0  0  0  0  0  0
    4.9992   -2.4996    0.0000 N   0  0  0  0  0  0  0  0  0  0  0  0
    2.8297   -9.4324    0.0000 N   0  0  0  0  0  0  0  0  0  0  0  0
    1.4149   -2.0751    0.0000 C   0  0  0  0  0  0  0  0  0  0  0  0
    0.7074   -2.4524    0.0000 C   0  0  0  0  0  0  0  0  0  0  0  0
    1.4620   -1.2262    0.0000 C   0  0  0  0  0  0  0  0  0  0  0  0
    1.4149   -4.5276    0.0000 C   0  0  0  0  0  0  0  0  0  0  0  0
    2.8297   -2.0751    0.0000 C   0  0  0  0  0  0  0  0  0  0  0  0
    2.1223   -0.8489    0.0000 C   0  0  0  0  0  0  0  0  0  0  0  0
    2.1223   -2.4524    0.0000 C   0  0  0  0  0  0  0  0  0  0  0  0
    0.7074   -4.9520    0.0000 C   0  0  0  0  0  0  0  0  0  0  0  0
    1.4149   -3.6786    0.0000 C   0  0  0  0  0  0  0  0  0  0  0  0
    2.1223   -5.7538    0.0000 C   0  0  0  0  0  0  0  0  0  0  0  0
    2.8297   -1.2262    0.0000 C   0  0  0  0  0  0  0  0  0  0  0  0
    2.8297   -6.1311    0.0000 C   0  0  0  0  0  0  0  0  0  0  0  0
    2.1223   -4.9048    0.0000 C   0  0  0  0  0  0  0  0  0  0  0  0
    0.0000   -3.6786    0.0000 C   0  0  0  0  0  0  0  0  0  0  0  0
    3.5371   -2.4524    0.0000 C   0  0  0  0  0  0  0  0  0  0  0  0
    3.5371   -8.2062    0.0000 C   0  0  0  0  0  0  0  0  0  0  0  0
    0.0000   -4.5276    0.0000 C   0  0  0  0  0  0  0  0  0  0  0  0
    0.0000   -1.2262    0.0000 C   0  0  0  0  0  0  0  0  0  0  0  0
    0.7074   -5.7538    0.0000 C   0  0  0  0  0  0  0  0  0  0  0  0
    1.4149   -6.1311    0.0000 C   0  0  0  0  0  0  0  0  0  0  0  0
    3.5371   -7.3573    0.0000 C   0  0  0  0  0  0  0  0  0  0  0  0
    2.8297   -8.6307    0.0000 C   0  0  3  0  0  0  0  0  0  0  0  0
    2.1223   -7.3573    0.0000 C   0  0  0  0  0  0  0  0  0  0  0  0
    2.1223   -8.2062    0.0000 C   0  0  0  0  0  0  0  0  0  0  0  0
    2.1223    0.0000    0.0000 C   0  0  0  0  0  0  0  0  0  0  0  0
    4.2918   -2.0751    0.0000 C   0  0  0  0  0  0  0  0  0  0  0  0
    3.5843   -3.3013    0.0000 C   0  0  0  0  0  0  0  0  0  0  0  0
    4.2446   -3.7258    0.0000 C   0  0  0  0  0  0  0  0  0  0  0  0
    4.9992   -3.3013    0.0000 C   0  0  0  0  0  0  0  0  0  0  0  0
    6.4140   -3.3013    0.0000 C   0  0  0  0  0  0  0  0  0  0  0  0
  1 26  1  0  0  0  0
  2 26  1  0  0  0  0
  3 22  2  0  0  0  0
  4 39  1  0  0  0  0
  4 40  1  0  0  0  0
  5 12  1  0  0  0  0
  5 19  1  0  0  0  0
  5 24  1  0  0  0  0
  6 12  1  0  0  0  0
  6 28  2  0  0  0  0
  7 13  2  0  0  0  0
  7 28  1  0  0  0  0
  8 22  1  0  0  0  0
  8 31  1  0  0  0  0
  8 33  1  0  0  0  0
  9 36  1  0  0  0  0
  9 39  2  0  0  0  0
 10 32  1  0  0  0  0
 11 12  2  0  0  0  0
 11 13  1  0  0  0  0
 11 17  1  0  0  0  0
 13 16  1  0  0  0  0
 14 18  2  0  0  0  0
 14 19  1  0  0  0  0
 14 23  1  0  0  0  0
 15 17  2  0  0  0  0
 15 21  1  0  0  0  0
 15 25  1  0  0  0  0
 16 21  2  0  0  0  0
 16 35  1  0  0  0  0
 18 27  1  0  0  0  0
 18 29  1  0  0  0  0
 20 22  1  0  0  0  0
 20 23  2  0  0  0  0
 20 30  1  0  0  0  0
 24 27  1  0  0  0  0
 25 36  2  0  0  0  0
 25 37  1  0  0  0  0
 26 31  1  0  0  0  0
 26 32  1  0  0  0  0
 29 30  2  0  0  0  0
 32 34  1  0  0  0  0
 33 34  1  0  0  0  0
 37 38  2  0  0  0  0
 38 39  1  0  0  0  0
M  END
> <PUBCHEM_COMPOUND_ID_TYPE>
0

> <PUBCHEM_TOTAL_CHARGE>
0

> <PUBCHEM_SUBSTANCE_ID>
310936011

> <PUBCHEM_SUBSTANCE_VERSION>
1

> <PUBCHEM_EXT_DATASOURCE_NAME>
4488

> <PUBCHEM_EXT_DATASOURCE_REGID>
SCHEMBL16113613

> <PUBCHEM_SUBSTANCE_COMMENT>
InChI=1S/C30H30F2N6O2/c1-18-11-22(21-5-6-26(40-2)34-14-21)13-24-27(18)35-17-36-28(24)37-9-7-19-3-4-20(12-23(19)15-37)29(39)38-10-8-25(33)30(31,32)16-38/h3-6,11-14,17,25H,7-10,15-16,33H2,1-2H3
InChIKey=VCYULJZRGKNMMX-UHFFFAOYSA-N

> <PUBCHEM_SUBSTANCE_SYNONYM>
SCHEMBL16113613

> <PUBCHEM_XREF_EXT_ID>
SCHEMBL16113613

> <PUBCHEM_EXT_DATASOURCE_URL>
https://www.surechembl.org/

> <PUBCHEM_EXT_SUBSTANCE_URL>
https://www.surechembl.org/chemical/SCHEMBL16113613

> <PUBCHEM_CID_ASSOCIATIONS>
117603980  1

> <PUBCHEM_COORDINATE_TYPE>
1
3

$$$$
