310930094
  -OEChem-07211613022D

 24 25  0     1  0  0  0  0  0999 V2000
    0.8206   -4.6976    0.0000 S   0  0  0  0  0  0  0  0  0  0  0  0
    7.9236   -1.3300    0.0000 S   0  0  0  0  0  0  0  0  0  0  0  0
    0.8206   -3.9052    0.0000 O   0  0  0  0  0  0  0  0  0  0  0  0
    1.6413   -4.6976    0.0000 O   0  0  0  0  0  0  0  0  0  0  0  0
    0.0000   -4.6976    0.0000 O   0  0  0  0  0  0  0  0  0  0  0  0
    0.8206   -5.5182    0.0000 O   0  0  0  0  0  0  0  0  0  0  0  0
    3.6505   -3.9052    0.0000 N   0  0  3  0  0  0  0  0  0  0  0  0
    6.4804   -2.2356    0.0000 N   0  0  0  0  0  0  0  0  0  0  0  0
    6.4804   -1.4149    0.0000 N   0  0  0  0  0  0  0  0  0  0  0  0
    7.2727   -0.1981    0.0000 N   0  0  0  0  0  0  0  0  0  0  0  0
    4.3580   -3.4807    0.0000 C   0  0  0  0  0  0  0  0  0  0  0  0
    5.7729   -2.6318    0.0000 C   0  0  0  0  0  0  0  0  0  0  0  0
    4.3580   -2.6601    0.0000 C   0  0  0  0  0  0  0  0  0  0  0  0
    5.0655   -3.8769    0.0000 C   0  0  0  0  0  0  0  0  0  0  0  0
    5.0371   -2.2356    0.0000 C   0  0  0  0  0  0  0  0  0  0  0  0
    5.7729   -3.4524    0.0000 C   0  0  0  0  0  0  0  0  0  0  0  0
    7.1878   -0.9905    0.0000 C   0  0  0  0  0  0  0  0  0  0  0  0
    2.9431   -3.4807    0.0000 C   0  0  0  0  0  0  0  0  0  0  0  0
    3.6505   -4.6976    0.0000 C   0  0  0  0  0  0  0  0  0  0  0  0
    2.2356   -3.9052    0.0000 C   0  0  0  0  0  0  0  0  0  0  0  0
    8.4895   -0.7075    0.0000 C   0  0  0  0  0  0  0  0  0  0  0  0
    8.0368    0.0000    0.0000 C   0  0  0  0  0  0  0  0  0  0  0  0
    1.5281   -3.4807    0.0000 C   0  0  0  0  0  0  0  0  0  0  0  0
    4.3580   -5.1220    0.0000 C   0  0  0  0  0  0  0  0  0  0  0  0
  1  3  1  0  0  0  0
  1  4  2  0  0  0  0
  1  5  2  0  0  0  0
  1  6  1  0  0  0  0
  2 17  1  0  0  0  0
  2 21  1  0  0  0  0
  3 23  1  0  0  0  0
  7 11  1  0  0  0  0
  7 18  1  0  0  0  0
  7 19  1  0  0  0  0
  8  9  2  0  0  0  0
  8 12  1  0  0  0  0
  9 17  1  0  0  0  0
 10 17  2  0  0  0  0
 10 22  1  0  0  0  0
 11 13  2  0  0  0  0
 11 14  1  0  0  0  0
 12 15  2  0  0  0  0
 12 16  1  0  0  0  0
 13 15  1  0  0  0  0
 14 16  2  0  0  0  0
 18 20  1  0  0  0  0
 19 24  1  0  0  0  0
 20 23  1  0  0  0  0
 21 22  2  0  0  0  0
M  END
> <PUBCHEM_COMPOUND_ID_TYPE>
0

> <PUBCHEM_TOTAL_CHARGE>
0

> <PUBCHEM_SUBSTANCE_ID>
310930094

> <PUBCHEM_SUBSTANCE_VERSION>
1

> <PUBCHEM_EXT_DATASOURCE_NAME>
4488

> <PUBCHEM_EXT_DATASOURCE_REGID>
SCHEMBL16107339

> <PUBCHEM_SUBSTANCE_COMMENT>
InChI=1S/C14H18N4O4S2/c1-2-18(9-3-10-22-24(19,20)21)13-6-4-12(5-7-13)16-17-14-15-8-11-23-14/h4-8,11H,2-3,9-10H2,1H3,(H,19,20,21)/b17-16+
InChIKey=NAQQXZXDJLZKQY-WUKNDPDISA-N

> <PUBCHEM_SUBSTANCE_SYNONYM>
SCHEMBL16107339

> <PUBCHEM_XREF_EXT_ID>
SCHEMBL16107339

> <PUBCHEM_EXT_DATASOURCE_URL>
https://www.surechembl.org/

> <PUBCHEM_EXT_SUBSTANCE_URL>
https://www.surechembl.org/chemical/SCHEMBL16107339

> <PUBCHEM_CID_ASSOCIATIONS>
89559140  1

> <PUBCHEM_COORDINATE_TYPE>
1
3

$$$$
