310936482
  -OEChem-07211613022D

 27 30  0     1  0  0  0  0  0999 V2000
    5.9725   -3.1912    0.0000 Cl  0  0  0  0  0  0  0  0  0  0  0  0
    5.2113   -1.9616    0.0000 Cl  0  0  0  0  0  0  0  0  0  0  0  0
    5.2405   -3.6303    0.0000 Cl  0  0  0  0  0  0  0  0  0  0  0  0
    0.0000   -4.6257    0.0000 F   0  0  0  0  0  0  0  0  0  0  0  0
    0.7319   -5.8554    0.0000 F   0  0  0  0  0  0  0  0  0  0  0  0
    0.7026   -4.1866    0.0000 F   0  0  0  0  0  0  0  0  0  0  0  0
    2.7227   -1.3760    0.0000 N   0  0  0  0  0  0  0  0  0  0  0  0
    2.7227   -2.8106    0.0000 N   0  0  0  0  0  0  0  0  0  0  0  0
    3.9524   -2.0786    0.0000 N   0  0  0  0  0  0  0  0  0  0  0  0
    3.9817   -3.5132    0.0000 N   0  0  0  0  0  0  0  0  0  0  0  0
    1.9323    0.0000    0.0000 N   0  0  0  0  0  0  0  0  0  0  0  0
    3.1326   -2.1079    0.0000 C   0  0  0  0  0  0  0  0  0  0  0  0
    3.1326   -0.7026    0.0000 C   0  0  3  0  0  0  0  0  0  0  0  0
    3.1619   -3.5132    0.0000 C   0  0  0  0  0  0  0  0  0  0  0  0
    4.3915   -2.7813    0.0000 C   0  0  0  0  0  0  0  0  0  0  0  0
    1.5224   -0.7026    0.0000 C   0  0  3  0  0  0  0  0  0  0  0  0
    1.9323   -1.3760    0.0000 C   0  0  0  0  0  0  0  0  0  0  0  0
    2.7813   -4.2451    0.0000 C   0  0  0  0  0  0  0  0  0  0  0  0
    5.2405   -2.7813    0.0000 C   0  0  0  0  0  0  0  0  0  0  0  0
    2.3422   -1.1418    0.0000 C   0  0  0  0  0  0  0  0  0  0  0  0
    2.7227    0.0000    0.0000 C   0  0  0  0  0  0  0  0  0  0  0  0
    1.9323   -4.2744    0.0000 C   0  0  0  0  0  0  0  0  0  0  0  0
    1.5517   -5.0063    0.0000 C   0  0  0  0  0  0  0  0  0  0  0  0
    3.1912   -4.9771    0.0000 C   0  0  0  0  0  0  0  0  0  0  0  0
    0.7319   -5.0063    0.0000 C   0  0  0  0  0  0  0  0  0  0  0  0
    1.9616   -5.7090    0.0000 C   0  0  0  0  0  0  0  0  0  0  0  0
    2.8106   -5.7090    0.0000 C   0  0  0  0  0  0  0  0  0  0  0  0
  1 19  1  0  0  0  0
  2 19  1  0  0  0  0
  3 19  1  0  0  0  0
  4 25  1  0  0  0  0
  5 25  1  0  0  0  0
  6 25  1  0  0  0  0
  7 12  1  0  0  0  0
  7 13  1  0  0  0  0
  7 17  1  0  0  0  0
  8 12  2  0  0  0  0
  8 14  1  0  0  0  0
  9 12  1  0  0  0  0
  9 15  2  0  0  0  0
 10 14  2  0  0  0  0
 10 15  1  0  0  0  0
 11 16  1  0  0  0  0
 11 21  1  0  0  0  0
 13 20  1  0  0  0  0
 13 21  1  0  0  0  0
 14 18  1  0  0  0  0
 15 19  1  0  0  0  0
 16 17  1  0  0  0  0
 16 20  1  0  0  0  0
 18 22  1  0  0  0  0
 18 24  2  0  0  0  0
 22 23  2  0  0  0  0
 23 25  1  0  0  0  0
 23 26  1  0  0  0  0
 24 27  1  0  0  0  0
 26 27  2  0  0  0  0
M  END
> <PUBCHEM_COMPOUND_ID_TYPE>
0

> <PUBCHEM_TOTAL_CHARGE>
0

> <PUBCHEM_SUBSTANCE_ID>
310936482

> <PUBCHEM_SUBSTANCE_VERSION>
1

> <PUBCHEM_EXT_DATASOURCE_NAME>
4488

> <PUBCHEM_EXT_DATASOURCE_REGID>
SCHEMBL16114131

> <PUBCHEM_SUBSTANCE_COMMENT>
InChI=1S/C16H13Cl3F3N5/c17-15(18,19)13-24-12(8-2-1-3-9(4-8)16(20,21)22)25-14(26-13)27-7-10-5-11(27)6-23-10/h1-4,10-11,23H,5-7H2
InChIKey=JOWDKXLEUGMQCX-UHFFFAOYSA-N

> <PUBCHEM_SUBSTANCE_SYNONYM>
SCHEMBL16114131

> <PUBCHEM_XREF_EXT_ID>
SCHEMBL16114131

> <PUBCHEM_EXT_DATASOURCE_URL>
https://www.surechembl.org/

> <PUBCHEM_EXT_SUBSTANCE_URL>
https://www.surechembl.org/chemical/SCHEMBL16114131

> <PUBCHEM_CID_ASSOCIATIONS>
117604411  1

> <PUBCHEM_COORDINATE_TYPE>
1
3

$$$$
