310948594
  -OEChem-07211613022D

 31 35  0     1  0  0  0  0  0999 V2000
    5.6602   -1.1545    0.0000 O   0  0  0  0  0  0  0  0  0  0  0  0
    0.0561    1.7661    0.0000 O   0  0  0  0  0  0  0  0  0  0  0  0
    5.5853   -2.5399    0.0000 O   0  0  0  0  0  0  0  0  0  0  0  0
   -0.6429    0.5180    0.0000 N   0  0  0  0  0  0  0  0  0  0  0  0
    0.7925   -0.3183    0.0000 N   0  0  3  0  0  0  0  0  0  0  0  0
   -5.6602    2.5399    0.0000 N   0  0  0  0  0  0  0  0  0  0  0  0
   -1.3792    0.9423    0.0000 C   0  0  0  0  0  0  0  0  0  0  0  0
    4.3747   -1.5539    0.0000 C   0  0  0  0  0  0  0  0  0  0  0  0
    4.3871   -0.7301    0.0000 C   0  0  0  0  0  0  0  0  0  0  0  0
   -2.8145    0.9423    0.0000 C   0  0  0  0  0  0  0  0  0  0  0  0
   -2.8145    1.7661    0.0000 C   0  0  0  0  0  0  0  0  0  0  0  0
    0.0561    0.9298    0.0000 C   0  0  0  0  0  0  0  0  0  0  0  0
   -2.0781    0.5305    0.0000 C   0  0  0  0  0  0  0  0  0  0  0  0
    5.1734   -1.8035    0.0000 C   0  0  0  0  0  0  0  0  0  0  0  0
    2.9643   -0.7301    0.0000 C   0  0  0  0  0  0  0  0  0  0  0  0
    3.6757   -0.3183    0.0000 C   0  0  0  0  0  0  0  0  0  0  0  0
   -1.3792    1.7661    0.0000 C   0  0  0  0  0  0  0  0  0  0  0  0
   -0.6429   -0.3183    0.0000 C   0  0  0  0  0  0  0  0  0  0  0  0
   -2.0905    2.1779    0.0000 C   0  0  0  0  0  0  0  0  0  0  0  0
    3.6881   -1.9658    0.0000 C   0  0  0  0  0  0  0  0  0  0  0  0
    5.1734   -0.4806    0.0000 C   0  0  0  0  0  0  0  0  0  0  0  0
    0.7925    0.5180    0.0000 C   0  0  0  0  0  0  0  0  0  0  0  0
   -3.5259    2.1779    0.0000 C   0  0  0  0  0  0  0  0  0  0  0  0
    2.9643   -1.5539    0.0000 C   0  0  0  0  0  0  0  0  0  0  0  0
    0.0811   -0.7301    0.0000 C   0  0  0  0  0  0  0  0  0  0  0  0
   -3.5383    0.5305    0.0000 C   0  0  0  0  0  0  0  0  0  0  0  0
   -4.2498    1.7661    0.0000 C   0  0  0  0  0  0  0  0  0  0  0  0
    2.2278   -0.3183    0.0000 C   0  0  0  0  0  0  0  0  0  0  0  0
    1.5165   -0.7301    0.0000 C   0  0  0  0  0  0  0  0  0  0  0  0
   -4.2374    0.9298    0.0000 C   0  0  0  0  0  0  0  0  0  0  0  0
   -4.9737    2.1779    0.0000 C   0  0  0  0  0  0  0  0  0  0  0  0
  1 14  1  0  0  0  0
  1 21  1  0  0  0  0
  2 12  2  0  0  0  0
  3 14  2  0  0  0  0
  4  7  1  0  0  0  0
  4 12  1  0  0  0  0
  4 18  1  0  0  0  0
  5 22  1  0  0  0  0
  5 25  1  0  0  0  0
  5 29  1  0  0  0  0
  6 31  3  0  0  0  0
  7 13  2  0  0  0  0
  7 17  1  0  0  0  0
  8  9  1  0  0  0  0
  8 14  1  0  0  0  0
  8 20  2  0  0  0  0
  9 16  2  0  0  0  0
  9 21  1  0  0  0  0
 10 11  1  0  0  0  0
 10 13  1  0  0  0  0
 10 26  2  0  0  0  0
 11 19  1  0  0  0  0
 11 23  2  0  0  0  0
 12 22  1  0  0  0  0
 15 16  1  0  0  0  0
 15 24  2  0  0  0  0
 15 28  1  0  0  0  0
 17 19  2  0  0  0  0
 18 25  1  0  0  0  0
 20 24  1  0  0  0  0
 23 27  1  0  0  0  0
 26 30  1  0  0  0  0
 27 30  2  0  0  0  0
 27 31  1  0  0  0  0
 28 29  1  0  0  0  0
M  END
> <PUBCHEM_COMPOUND_ID_TYPE>
0

> <PUBCHEM_TOTAL_CHARGE>
0

> <PUBCHEM_SUBSTANCE_ID>
310948594

> <PUBCHEM_SUBSTANCE_VERSION>
1

> <PUBCHEM_EXT_DATASOURCE_NAME>
4488

> <PUBCHEM_EXT_DATASOURCE_REGID>
SCHEMBL16126777

> <PUBCHEM_SUBSTANCE_COMMENT>
InChI=1S/C25H21N3O3/c26-14-18-1-3-20-13-22(5-4-19(20)12-18)28-10-9-27(15-24(28)29)8-7-17-2-6-23-21(11-17)16-31-25(23)30/h1-6,11-13H,7-10,15-16H2
InChIKey=OQYLAUBWXCPCNO-UHFFFAOYSA-N

> <PUBCHEM_SUBSTANCE_SYNONYM>
SCHEMBL16126777

> <PUBCHEM_XREF_EXT_ID>
SCHEMBL16126777

> <PUBCHEM_EXT_DATASOURCE_URL>
https://www.surechembl.org/

> <PUBCHEM_EXT_SUBSTANCE_URL>
https://www.surechembl.org/chemical/SCHEMBL16126777

> <PUBCHEM_CID_ASSOCIATIONS>
71525689  1

> <PUBCHEM_COORDINATE_TYPE>
1
3

$$$$
