310941045
  -OEChem-07211613022D

 43 46  0     1  0  0  0  0  0999 V2000
    5.0373    0.6606    0.0000 O   0  0  0  0  0  0  0  0  0  0  0  0
    3.9087   -1.2800    0.0000 O   0  0  0  0  0  0  0  0  0  0  0  0
    1.7617    0.7707    0.0000 O   0  0  0  0  0  0  0  0  0  0  0  0
   -0.3716   -1.2800    0.0000 O   0  0  0  0  0  0  0  0  0  0  0  0
    3.9087   -2.9315    0.0000 O   0  0  0  0  0  0  0  0  0  0  0  0
   -2.5186    0.7707    0.0000 O   0  0  0  0  0  0  0  0  0  0  0  0
   -1.8030    1.1836    0.0000 O   0  0  0  0  0  0  0  0  0  0  0  0
   -5.3675    0.7707    0.0000 O   0  0  0  0  0  0  0  0  0  0  0  0
    2.4911   -0.4541    0.0000 N   0  0  0  0  0  0  0  0  0  0  0  0
    0.3440   -0.0413    0.0000 N   0  0  0  0  0  0  0  0  0  0  0  0
   -1.8030   -0.4541    0.0000 N   0  0  0  0  0  0  0  0  0  0  0  0
   -3.9362   -0.0413    0.0000 N   0  0  0  0  0  0  0  0  0  0  0  0
    4.6244    0.0000    0.0000 C   0  0  3  0  0  0  0  0  0  0  0  0
    3.9224   -0.4129    0.0000 C   0  0  0  0  0  0  0  0  0  0  0  0
    4.2390    0.6744    0.0000 C   0  0  0  0  0  0  0  0  0  0  0  0
    3.1930   -0.0275    0.0000 C   0  0  3  0  0  0  0  0  0  0  0  0
    5.3675   -0.4404    0.0000 C   0  0  0  0  0  0  0  0  0  0  0  0
    3.1930    1.2937    0.0000 C   0  0  0  0  0  0  0  0  0  0  0  0
    1.7754   -0.0413    0.0000 C   0  0  0  0  0  0  0  0  0  0  0  0
    1.0735   -0.4267    0.0000 C   0  0  3  0  0  0  0  0  0  0  0  0
    2.4911    1.7203    0.0000 C   0  0  0  0  0  0  0  0  0  0  0  0
    1.0597   -1.2524    0.0000 C   0  0  0  0  0  0  0  0  0  0  0  0
   -0.3578   -0.4129    0.0000 C   0  0  0  0  0  0  0  0  0  0  0  0
    1.7754   -1.6653    0.0000 C   0  0  0  0  0  0  0  0  0  0  0  0
    1.7754    1.3075    0.0000 C   0  0  0  0  0  0  0  0  0  0  0  0
    2.4911    2.5186    0.0000 C   0  0  0  0  0  0  0  0  0  0  0  0
   -1.0873   -0.0275    0.0000 C   0  0  3  0  0  0  0  0  0  0  0  0
    2.4773   -1.2662    0.0000 C   0  0  0  0  0  0  0  0  0  0  0  0
    1.7892   -2.5048    0.0000 C   0  0  0  0  0  0  0  0  0  0  0  0
    1.0735    1.7066    0.0000 C   0  0  0  0  0  0  0  0  0  0  0  0
    1.7617    2.9315    0.0000 C   0  0  0  0  0  0  0  0  0  0  0  0
   -2.5186   -0.0413    0.0000 C   0  0  0  0  0  0  0  0  0  0  0  0
    3.2067   -2.4911    0.0000 C   0  0  0  0  0  0  0  0  0  0  0  0
    3.2067   -1.6791    0.0000 C   0  0  0  0  0  0  0  0  0  0  0  0
    2.4911   -2.8902    0.0000 C   0  0  0  0  0  0  0  0  0  0  0  0
   -1.0873    0.7983    0.0000 C   0  0  0  0  0  0  0  0  0  0  0  0
    1.0735    2.5186    0.0000 C   0  0  0  0  0  0  0  0  0  0  0  0
   -3.2067   -0.4267    0.0000 C   0  0  0  0  0  0  0  0  0  0  0  0
   -3.9362    0.7845    0.0000 C   0  0  0  0  0  0  0  0  0  0  0  0
   -4.6244   -0.4267    0.0000 C   0  0  0  0  0  0  0  0  0  0  0  0
   -4.6656    1.2112    0.0000 C   0  0  0  0  0  0  0  0  0  0  0  0
   -5.3675   -0.0275    0.0000 C   0  0  0  0  0  0  0  0  0  0  0  0
    4.6381   -2.4773    0.0000 C   0  0  0  0  0  0  0  0  0  0  0  0
  1 13  1  0  0  0  0
  1 15  1  0  0  0  0
  2 14  2  0  0  0  0
  3 19  2  0  0  0  0
  4 23  2  0  0  0  0
  5 33  1  0  0  0  0
  5 43  1  0  0  0  0
  6 32  2  0  0  0  0
  7 36  1  0  0  0  0
  8 41  1  0  0  0  0
  8 42  1  0  0  0  0
  9 16  1  0  0  0  0
  9 19  1  0  0  0  0
 10 20  1  0  0  0  0
 10 23  1  0  0  0  0
 11 27  1  0  0  0  0
 11 32  1  0  0  0  0
 12 38  1  0  0  0  0
 12 39  1  0  0  0  0
 12 40  1  0  0  0  0
 13 14  1  0  0  0  0
 13 15  1  0  0  0  0
 13 17  1  0  0  0  0
 14 16  1  0  0  0  0
 16 18  1  0  0  0  0
 18 21  1  0  0  0  0
 19 20  1  0  0  0  0
 20 22  1  0  0  0  0
 21 25  2  0  0  0  0
 21 26  1  0  0  0  0
 22 24  1  0  0  0  0
 23 27  1  0  0  0  0
 24 28  2  0  0  0  0
 24 29  1  0  0  0  0
 25 30  1  0  0  0  0
 26 31  2  0  0  0  0
 27 36  1  0  0  0  0
 28 34  1  0  0  0  0
 29 35  2  0  0  0  0
 30 37  2  0  0  0  0
 31 37  1  0  0  0  0
 32 38  1  0  0  0  0
 33 34  2  0  0  0  0
 33 35  1  0  0  0  0
 39 41  1  0  0  0  0
 40 42  1  0  0  0  0
M  END
> <PUBCHEM_COMPOUND_ID_TYPE>
0

> <PUBCHEM_TOTAL_CHARGE>
0

> <PUBCHEM_SUBSTANCE_ID>
310941045

> <PUBCHEM_SUBSTANCE_VERSION>
1

> <PUBCHEM_EXT_DATASOURCE_NAME>
4488

> <PUBCHEM_EXT_DATASOURCE_REGID>
SCHEMBL16119004

> <PUBCHEM_SUBSTANCE_COMMENT>
InChI=1S/C31H40N4O8/c1-31(20-43-31)28(38)24(16-21-6-4-3-5-7-21)33-29(39)25(17-22-8-10-23(41-2)11-9-22)34-30(40)26(19-36)32-27(37)18-35-12-14-42-15-13-35/h3-11,24-26,36H,12-20H2,1-2H3,(H,32,37)(H,33,39)(H,34,40)
InChIKey=QMFFBCQYCPNICO-UHFFFAOYSA-N

> <PUBCHEM_SUBSTANCE_SYNONYM>
SCHEMBL16119004

> <PUBCHEM_XREF_EXT_ID>
SCHEMBL16119004

> <PUBCHEM_EXT_DATASOURCE_URL>
https://www.surechembl.org/

> <PUBCHEM_EXT_SUBSTANCE_URL>
https://www.surechembl.org/chemical/SCHEMBL16119004

> <PUBCHEM_CID_ASSOCIATIONS>
117607937  1

> <PUBCHEM_COORDINATE_TYPE>
1
3

$$$$
