310945563
  -OEChem-07211613022D

 25 28  0     1  0  0  0  0  0999 V2000
    2.5719    3.0335    0.0000 F   0  0  0  0  0  0  0  0  0  0  0  0
   -2.5719    1.4508    0.0000 O   0  0  0  0  0  0  0  0  0  0  0  0
   -0.5056   -3.0335    0.0000 O   0  0  0  0  0  0  0  0  0  0  0  0
    0.2418    0.7034    0.0000 N   0  0  0  0  0  0  0  0  0  0  0  0
    2.2641    1.6413    0.0000 N   0  0  0  0  0  0  0  0  0  0  0  0
   -0.5202   -1.3775    0.0000 N   0  0  0  0  0  0  0  0  0  0  0  0
    0.9013    1.2164    0.0000 C   0  0  0  0  0  0  0  0  0  0  0  0
    0.6521    1.9637    0.0000 C   0  0  0  0  0  0  0  0  0  0  0  0
   -0.4323    1.2017    0.0000 C   0  0  0  0  0  0  0  0  0  0  0  0
   -0.1685    1.9930    0.0000 C   0  0  0  0  0  0  0  0  0  0  0  0
    1.7219    1.0258    0.0000 C   0  0  0  0  0  0  0  0  0  0  0  0
    1.2090    2.5939    0.0000 C   0  0  0  0  0  0  0  0  0  0  0  0
   -1.2237    1.0405    0.0000 C   0  0  0  0  0  0  0  0  0  0  0  0
    0.2271   -0.1466    0.0000 C   0  0  0  0  0  0  0  0  0  0  0  0
   -0.7107    2.5792    0.0000 C   0  0  0  0  0  0  0  0  0  0  0  0
    2.0150    2.4180    0.0000 C   0  0  0  0  0  0  0  0  0  0  0  0
   -1.7952    1.6413    0.0000 C   0  0  0  0  0  0  0  0  0  0  0  0
   -0.5056   -0.5569    0.0000 C   0  0  3  0  0  0  0  0  0  0  0  0
   -1.5168    2.4180    0.0000 C   0  0  0  0  0  0  0  0  0  0  0  0
    2.0296    0.1466    0.0000 C   0  0  0  0  0  0  0  0  0  0  0  0
   -1.2383   -0.1466    0.0000 C   0  0  0  0  0  0  0  0  0  0  0  0
    0.1979   -1.8025    0.0000 C   0  0  0  0  0  0  0  0  0  0  0  0
   -1.2237   -1.7878    0.0000 C   0  0  0  0  0  0  0  0  0  0  0  0
    0.1979   -2.6232    0.0000 C   0  0  0  0  0  0  0  0  0  0  0  0
   -1.2237   -2.6085    0.0000 C   0  0  0  0  0  0  0  0  0  0  0  0
  1 16  1  0  0  0  0
  2 17  1  0  0  0  0
  3 24  1  0  0  0  0
  3 25  1  0  0  0  0
  4  7  1  0  0  0  0
  4  9  1  0  0  0  0
  4 14  1  0  0  0  0
  5 11  2  0  0  0  0
  5 16  1  0  0  0  0
  6 18  1  0  0  0  0
  6 22  1  0  0  0  0
  6 23  1  0  0  0  0
  7  8  2  0  0  0  0
  7 11  1  0  0  0  0
  8 10  1  0  0  0  0
  8 12  1  0  0  0  0
  9 10  2  0  0  0  0
  9 13  1  0  0  0  0
 10 15  1  0  0  0  0
 11 20  1  0  0  0  0
 12 16  2  0  0  0  0
 13 17  2  0  0  0  0
 14 18  1  0  0  0  0
 15 19  2  0  0  0  0
 17 19  1  0  0  0  0
 18 21  1  0  0  0  0
 22 24  1  0  0  0  0
 23 25  1  0  0  0  0
M  END
> <PUBCHEM_COMPOUND_ID_TYPE>
0

> <PUBCHEM_TOTAL_CHARGE>
0

> <PUBCHEM_SUBSTANCE_ID>
310945563

> <PUBCHEM_SUBSTANCE_VERSION>
1

> <PUBCHEM_EXT_DATASOURCE_NAME>
4488

> <PUBCHEM_EXT_DATASOURCE_REGID>
SCHEMBL16123661

> <PUBCHEM_SUBSTANCE_COMMENT>
InChI=1S/C19H22FN3O2/c1-12(22-5-7-25-8-6-22)11-23-17-9-14(24)3-4-15(17)16-10-18(20)21-13(2)19(16)23/h3-4,9-10,12,24H,5-8,11H2,1-2H3
InChIKey=SVZQNKIXLHBCKB-UHFFFAOYSA-N

> <PUBCHEM_SUBSTANCE_SYNONYM>
SCHEMBL16123661

> <PUBCHEM_XREF_EXT_ID>
SCHEMBL16123661

> <PUBCHEM_EXT_DATASOURCE_URL>
https://www.surechembl.org/

> <PUBCHEM_EXT_SUBSTANCE_URL>
https://www.surechembl.org/chemical/SCHEMBL16123661

> <PUBCHEM_CID_ASSOCIATIONS>
117611597  1

> <PUBCHEM_COORDINATE_TYPE>
1
3

$$$$
