310930690
  -OEChem-07211613022D

 24 27  0     1  0  0  0  0  0999 V2000
    4.4844   -2.2644    0.0000 O   0  0  0  0  0  0  0  0  0  0  0  0
    5.5500   -0.8214    0.0000 O   0  0  0  0  0  0  0  0  0  0  0  0
    0.0000   -1.9314    0.0000 O   0  0  0  0  0  0  0  0  0  0  0  0
    4.2402   -0.1554    0.0000 N   0  0  0  0  0  0  0  0  0  0  0  0
    5.5500   -0.9768    0.0000 N   0  0  0  0  0  0  0  0  0  0  0  0
    0.4218   -2.6640    0.0000 N   0  0  0  0  0  0  0  0  0  0  0  0
    4.2402   -1.4874    0.0000 C   0  0  3  0  0  0  0  0  0  0  0  0
    3.4410   -1.2432    0.0000 C   0  0  0  0  0  0  0  0  0  0  0  0
    3.4410   -0.3774    0.0000 C   0  0  0  0  0  0  0  0  0  0  0  0
    4.7286   -0.8214    0.0000 C   0  0  0  0  0  0  0  0  0  0  0  0
    5.0394   -1.5984    0.0000 C   0  0  0  0  0  0  0  0  0  0  0  0
    2.7306   -1.6428    0.0000 C   0  0  0  0  0  0  0  0  0  0  0  0
    2.0202   -1.2432    0.0000 C   0  0  0  0  0  0  0  0  0  0  0  0
    1.3098   -1.6650    0.0000 C   0  0  0  0  0  0  0  0  0  0  0  0
    2.7306    0.0000    0.0000 C   0  0  0  0  0  0  0  0  0  0  0  0
    2.0202   -0.3774    0.0000 C   0  0  0  0  0  0  0  0  0  0  0  0
    5.3280   -2.3976    0.0000 C   0  0  0  0  0  0  0  0  0  0  0  0
    0.5550   -1.3320    0.0000 C   0  0  0  0  0  0  0  0  0  0  0  0
    1.2210   -2.4864    0.0000 C   0  0  0  0  0  0  0  0  0  0  0  0
    6.3714   -1.0878    0.0000 C   0  0  0  0  0  0  0  0  0  0  0  0
    6.1494   -2.4864    0.0000 C   0  0  0  0  0  0  0  0  0  0  0  0
    6.6600   -1.8648    0.0000 C   0  0  0  0  0  0  0  0  0  0  0  0
    0.3774   -0.5328    0.0000 C   0  0  0  0  0  0  0  0  0  0  0  0
    1.8426   -3.0192    0.0000 C   0  0  0  0  0  0  0  0  0  0  0  0
  1  7  1  0  0  0  0
  2 10  2  0  0  0  0
  3  6  1  0  0  0  0
  3 18  1  0  0  0  0
  4  9  1  0  0  0  0
  4 10  1  0  0  0  0
  5 11  1  0  0  0  0
  5 20  2  0  0  0  0
  6 19  2  0  0  0  0
  7  8  1  0  0  0  0
  7 10  1  0  0  0  0
  7 11  1  0  0  0  0
  8  9  2  0  0  0  0
  8 12  1  0  0  0  0
  9 15  1  0  0  0  0
 11 17  2  0  0  0  0
 12 13  2  0  0  0  0
 13 14  1  0  0  0  0
 13 16  1  0  0  0  0
 14 18  2  0  0  0  0
 14 19  1  0  0  0  0
 15 16  2  0  0  0  0
 17 21  1  0  0  0  0
 18 23  1  0  0  0  0
 19 24  1  0  0  0  0
 20 22  1  0  0  0  0
 21 22  2  0  0  0  0
M  END
> <PUBCHEM_COMPOUND_ID_TYPE>
0

> <PUBCHEM_TOTAL_CHARGE>
0

> <PUBCHEM_SUBSTANCE_ID>
310930690

> <PUBCHEM_SUBSTANCE_VERSION>
1

> <PUBCHEM_EXT_DATASOURCE_NAME>
4488

> <PUBCHEM_EXT_DATASOURCE_REGID>
SCHEMBL16107987

> <PUBCHEM_SUBSTANCE_COMMENT>
InChI=1S/C18H15N3O3/c1-10-16(11(2)24-21-10)12-6-7-14-13(9-12)18(23,17(22)20-14)15-5-3-4-8-19-15/h3-9,23H,1-2H3,(H,20,22)
InChIKey=QMGZMTFKEPEICQ-UHFFFAOYSA-N

> <PUBCHEM_SUBSTANCE_SYNONYM>
SCHEMBL16107987

> <PUBCHEM_XREF_EXT_ID>
SCHEMBL16107987

> <PUBCHEM_EXT_DATASOURCE_URL>
https://www.surechembl.org/

> <PUBCHEM_EXT_SUBSTANCE_URL>
https://www.surechembl.org/chemical/SCHEMBL16107987

> <PUBCHEM_CID_ASSOCIATIONS>
86296104  1

> <PUBCHEM_COORDINATE_TYPE>
1
3

$$$$
