310932297
  -OEChem-07211613022D

 31 35  0     1  0  0  0  0  0999 V2000
    5.9232   -2.6443    0.0000 O   0  0  0  0  0  0  0  0  0  0  0  0
    0.7193    0.0000    0.0000 O   0  0  0  0  0  0  0  0  0  0  0  0
    1.4385   -1.2481    0.0000 N   0  0  0  0  0  0  0  0  0  0  0  0
    2.1577    0.0000    0.0000 N   0  0  0  0  0  0  0  0  0  0  0  0
    6.3463   -1.9250    0.0000 N   0  0  0  0  0  0  0  0  0  0  0  0
    2.8982   -1.2481    0.0000 C   0  0  0  0  0  0  0  0  0  0  0  0
    2.1577   -1.6501    0.0000 C   0  0  3  0  0  0  0  0  0  0  0  0
    2.8982   -0.4231    0.0000 C   0  0  0  0  0  0  0  0  0  0  0  0
    4.3155   -1.2481    0.0000 C   0  0  0  0  0  0  0  0  0  0  0  0
    3.5962   -1.6501    0.0000 C   0  0  0  0  0  0  0  0  0  0  0  0
    1.4385   -0.4231    0.0000 C   0  0  0  0  0  0  0  0  0  0  0  0
    2.1577   -2.4962    0.0000 C   0  0  0  0  0  0  0  0  0  0  0  0
    5.0347   -1.6501    0.0000 C   0  0  0  0  0  0  0  0  0  0  0  0
    3.5962    0.0000    0.0000 C   0  0  0  0  0  0  0  0  0  0  0  0
    4.3155   -0.4231    0.0000 C   0  0  0  0  0  0  0  0  0  0  0  0
    0.7193   -1.6501    0.0000 C   0  0  0  0  0  0  0  0  0  0  0  0
    5.1193   -2.4962    0.0000 C   0  0  0  0  0  0  0  0  0  0  0  0
    5.7751   -1.3327    0.0000 C   0  0  0  0  0  0  0  0  0  0  0  0
    2.8982   -2.9193    0.0000 C   0  0  0  0  0  0  0  0  0  0  0  0
    1.6077   -3.0674    0.0000 C   0  0  0  0  0  0  0  0  0  0  0  0
    0.7193   -2.4962    0.0000 C   0  0  0  0  0  0  0  0  0  0  0  0
    2.8982   -3.7232    0.0000 C   0  0  0  0  0  0  0  0  0  0  0  0
    1.6077   -3.8924    0.0000 C   0  0  0  0  0  0  0  0  0  0  0  0
    4.5270   -3.0462    0.0000 C   0  0  0  0  0  0  0  0  0  0  0  0
    5.9655   -0.5077    0.0000 C   0  0  0  0  0  0  0  0  0  0  0  0
    0.0000   -2.8982    0.0000 C   0  0  0  0  0  0  0  0  0  0  0  0
    1.4385   -2.8982    0.0000 C   0  0  0  0  0  0  0  0  0  0  0  0
    2.1577   -4.1463    0.0000 C   0  0  0  0  0  0  0  0  0  0  0  0
    0.0000   -3.7232    0.0000 C   0  0  0  0  0  0  0  0  0  0  0  0
    1.4385   -3.7232    0.0000 C   0  0  0  0  0  0  0  0  0  0  0  0
    0.7193   -4.1463    0.0000 C   0  0  0  0  0  0  0  0  0  0  0  0
  1  5  1  0  0  0  0
  1 17  1  0  0  0  0
  2 11  2  0  0  0  0
  3  7  1  0  0  0  0
  3 11  1  0  0  0  0
  3 16  1  0  0  0  0
  4  8  1  0  0  0  0
  4 11  1  0  0  0  0
  5 18  2  0  0  0  0
  6  7  1  0  0  0  0
  6  8  2  0  0  0  0
  6 10  1  0  0  0  0
  7 12  1  0  0  0  0
  8 14  1  0  0  0  0
  9 10  2  0  0  0  0
  9 13  1  0  0  0  0
  9 15  1  0  0  0  0
 12 19  2  0  0  0  0
 12 20  1  0  0  0  0
 13 17  2  0  0  0  0
 13 18  1  0  0  0  0
 14 15  2  0  0  0  0
 16 21  1  0  0  0  0
 17 24  1  0  0  0  0
 18 25  1  0  0  0  0
 19 22  1  0  0  0  0
 20 23  2  0  0  0  0
 21 26  2  0  0  0  0
 21 27  1  0  0  0  0
 22 28  2  0  0  0  0
 23 28  1  0  0  0  0
 26 29  1  0  0  0  0
 27 30  2  0  0  0  0
 29 31  2  0  0  0  0
 30 31  1  0  0  0  0
M  END
> <PUBCHEM_COMPOUND_ID_TYPE>
0

> <PUBCHEM_TOTAL_CHARGE>
0

> <PUBCHEM_SUBSTANCE_ID>
310932297

> <PUBCHEM_SUBSTANCE_VERSION>
1

> <PUBCHEM_EXT_DATASOURCE_NAME>
4488

> <PUBCHEM_EXT_DATASOURCE_REGID>
SCHEMBL16109661

> <PUBCHEM_SUBSTANCE_COMMENT>
InChI=1S/C26H23N3O2/c1-17-24(18(2)31-28-17)21-13-14-23-22(15-21)25(20-11-7-4-8-12-20)29(26(30)27-23)16-19-9-5-3-6-10-19/h3-15,25H,16H2,1-2H3,(H,27,30)
InChIKey=DNXXXZWQSHZTTN-UHFFFAOYSA-N

> <PUBCHEM_SUBSTANCE_SYNONYM>
SCHEMBL16109661

> <PUBCHEM_XREF_EXT_ID>
SCHEMBL16109661

> <PUBCHEM_EXT_DATASOURCE_URL>
https://www.surechembl.org/

> <PUBCHEM_EXT_SUBSTANCE_URL>
https://www.surechembl.org/chemical/SCHEMBL16109661

> <PUBCHEM_CID_ASSOCIATIONS>
86273345  1

> <PUBCHEM_COORDINATE_TYPE>
1
3

$$$$
