310943768
  -OEChem-07211613022D

 32 35  0     1  0  0  0  0  0999 V2000
    2.6526    2.1775    0.0000 O   0  0  0  0  0  0  0  0  0  0  0  0
    5.6708   -0.5900    0.0000 O   0  0  0  0  0  0  0  0  0  0  0  0
    3.3628    0.7362    0.0000 N   0  0  0  0  0  0  0  0  0  0  0  0
   -3.0600   -1.3733    0.0000 N   0  0  3  0  0  0  0  0  0  0  0  0
    1.2428   -2.1775    0.0000 N   0  0  0  0  0  0  0  0  0  0  0  0
   -4.8353   -0.8303    0.0000 N   0  0  3  0  0  0  0  0  0  0  0  0
   -0.2193   -0.5274    0.0000 C   0  0  0  0  0  0  0  0  0  0  0  0
    0.5117   -0.1096    0.0000 C   0  0  0  0  0  0  0  0  0  0  0  0
   -0.2193   -1.3524    0.0000 C   0  0  0  0  0  0  0  0  0  0  0  0
    1.9320    0.7362    0.0000 C   0  0  0  0  0  0  0  0  0  0  0  0
    2.6422    1.1331    0.0000 C   0  0  0  0  0  0  0  0  0  0  0  0
   -1.6291   -1.3629    0.0000 C   0  0  0  0  0  0  0  0  0  0  0  0
   -0.9086   -0.1201    0.0000 C   0  0  0  0  0  0  0  0  0  0  0  0
   -0.8982   -1.7701    0.0000 C   0  0  0  0  0  0  0  0  0  0  0  0
    1.2323   -0.5065    0.0000 C   0  0  0  0  0  0  0  0  0  0  0  0
    0.5221    0.7258    0.0000 C   0  0  0  0  0  0  0  0  0  0  0  0
    1.9320   -0.0888    0.0000 C   0  0  0  0  0  0  0  0  0  0  0  0
    1.2115    1.1331    0.0000 C   0  0  0  0  0  0  0  0  0  0  0  0
   -1.6187   -0.5274    0.0000 C   0  0  0  0  0  0  0  0  0  0  0  0
   -2.3185   -1.7701    0.0000 C   0  0  0  0  0  0  0  0  0  0  0  0
    0.5221   -1.7806    0.0000 C   0  0  0  0  0  0  0  0  0  0  0  0
    3.3628   -0.0888    0.0000 C   0  0  0  0  0  0  0  0  0  0  0  0
    4.0625    1.1540    0.0000 C   0  0  0  0  0  0  0  0  0  0  0  0
    4.7622   -0.1096    0.0000 C   0  0  0  0  0  0  0  0  0  0  0  0
    4.0834   -0.4961    0.0000 C   0  0  0  0  0  0  0  0  0  0  0  0
    4.7831    0.7467    0.0000 C   0  0  0  0  0  0  0  0  0  0  0  0
   -3.7388   -1.8432    0.0000 C   0  0  0  0  0  0  0  0  0  0  0  0
   -2.9973   -0.5482    0.0000 C   0  0  0  0  0  0  0  0  0  0  0  0
   -4.5220   -1.6031    0.0000 C   0  0  0  0  0  0  0  0  0  0  0  0
   -3.5925    0.0053    0.0000 C   0  0  0  0  0  0  0  0  0  0  0  0
   -4.4176   -0.1096    0.0000 C   0  0  0  0  0  0  0  0  0  0  0  0
   -5.6708   -0.8407    0.0000 C   0  0  0  0  0  0  0  0  0  0  0  0
  1 11  2  0  0  0  0
  2 24  1  0  0  0  0
  3 11  1  0  0  0  0
  3 22  1  0  0  0  0
  3 23  1  0  0  0  0
  4 20  1  0  0  0  0
  4 27  1  0  0  0  0
  4 28  1  0  0  0  0
  5 21  3  0  0  0  0
  6 29  1  0  0  0  0
  6 31  1  0  0  0  0
  6 32  1  0  0  0  0
  7  8  1  0  0  0  0
  7  9  1  0  0  0  0
  7 13  2  0  0  0  0
  8 15  2  0  0  0  0
  8 16  1  0  0  0  0
  9 14  2  0  0  0  0
  9 21  1  0  0  0  0
 10 11  1  0  0  0  0
 10 17  2  0  0  0  0
 10 18  1  0  0  0  0
 12 14  1  0  0  0  0
 12 19  2  0  0  0  0
 12 20  1  0  0  0  0
 13 19  1  0  0  0  0
 15 17  1  0  0  0  0
 16 18  2  0  0  0  0
 22 25  1  0  0  0  0
 23 26  1  0  0  0  0
 24 25  1  0  0  0  0
 24 26  1  0  0  0  0
 27 29  1  0  0  0  0
 28 30  1  0  0  0  0
 30 31  1  0  0  0  0
M  END
> <PUBCHEM_COMPOUND_ID_TYPE>
0

> <PUBCHEM_TOTAL_CHARGE>
0

> <PUBCHEM_SUBSTANCE_ID>
310943768

> <PUBCHEM_SUBSTANCE_VERSION>
1

> <PUBCHEM_EXT_DATASOURCE_NAME>
4488

> <PUBCHEM_EXT_DATASOURCE_REGID>
SCHEMBL16121837

> <PUBCHEM_SUBSTANCE_COMMENT>
InChI=1S/C26H32N4O2/c1-28-11-2-12-29(16-15-28)19-20-3-8-25(23(17-20)18-27)21-4-6-22(7-5-21)26(32)30-13-9-24(31)10-14-30/h3-8,17,24,31H,2,9-16,19H2,1H3
InChIKey=JMNMEGDVVYUHGQ-UHFFFAOYSA-N

> <PUBCHEM_SUBSTANCE_SYNONYM>
SCHEMBL16121837

> <PUBCHEM_XREF_EXT_ID>
SCHEMBL16121837

> <PUBCHEM_EXT_DATASOURCE_URL>
https://www.surechembl.org/

> <PUBCHEM_EXT_SUBSTANCE_URL>
https://www.surechembl.org/chemical/SCHEMBL16121837

> <PUBCHEM_CID_ASSOCIATIONS>
117610130  1

> <PUBCHEM_COORDINATE_TYPE>
1
3

> <PUBCHEM_BONDANNOTATIONS>
24  2  3

$$$$
