310948629
  -OEChem-07211613022D

 28 31  0     1  0  0  0  0  0999 V2000
   -1.4211   -0.8681    0.0000 N   0  0  0  0  0  0  0  0  0  0  0  0
   -1.4597    0.0322    0.0000 C   0  0  0  0  0  0  0  0  0  0  0  0
   -2.3727   -0.9710    0.0000 C   0  0  0  0  0  0  0  0  0  0  0  0
   -2.7971   -0.2636    0.0000 C   0  0  3  0  0  0  0  0  0  0  0  0
   -0.7394    0.4437    0.0000 C   0  0  0  0  0  0  0  0  0  0  0  0
   -2.2184    0.3665    0.0000 C   0  0  0  0  0  0  0  0  0  0  0  0
   -0.0193    0.1222    0.0000 C   0  0  0  0  0  0  0  0  0  0  0  0
   -2.7842   -1.7039    0.0000 C   0  0  0  0  0  0  0  0  0  0  0  0
   -3.6202   -0.2636    0.0000 C   0  0  0  0  0  0  0  0  0  0  0  0
   -0.7137    1.2925    0.0000 C   0  0  0  0  0  0  0  0  0  0  0  0
    0.7137    0.4437    0.0000 C   0  0  0  0  0  0  0  0  0  0  0  0
    0.2766   -0.2766    0.0000 C   0  0  0  0  0  0  0  0  0  0  0  0
    1.4597    0.0193    0.0000 C   0  0  0  0  0  0  0  0  0  0  0  0
   -3.6074   -1.7039    0.0000 C   0  0  0  0  0  0  0  0  0  0  0  0
   -4.0317   -0.9710    0.0000 C   0  0  0  0  0  0  0  0  0  0  0  0
    0.2766    0.1608    0.0000 C   0  0  0  0  0  0  0  0  0  0  0  0
   -0.0064    1.7039    0.0000 C   0  0  0  0  0  0  0  0  0  0  0  0
    0.7266    1.2796    0.0000 C   0  0  0  0  0  0  0  0  0  0  0  0
    2.7713   -0.2508    0.0000 C   0  0  0  0  0  0  0  0  0  0  0  0
    2.2184    0.3537    0.0000 C   0  0  0  0  0  0  0  0  0  0  0  0
   -0.0322   -0.3408    0.0000 C   0  0  0  0  0  0  0  0  0  0  0  0
    2.3599   -0.9710    0.0000 C   0  0  0  0  0  0  0  0  0  0  0  0
    3.6074   -0.2636    0.0000 C   0  0  0  0  0  0  0  0  0  0  0  0
    2.7842   -1.7039    0.0000 C   0  0  0  0  0  0  0  0  0  0  0  0
    1.5240   -0.5080    0.0000 C   0  0  0  0  0  0  0  0  0  0  0  0
    4.0317   -0.9710    0.0000 C   0  0  0  0  0  0  0  0  0  0  0  0
    3.6074   -1.7039    0.0000 C   0  0  0  0  0  0  0  0  0  0  0  0
    1.7297   -0.8552    0.0000 C   0  0  0  0  0  0  0  0  0  0  0  0
  1  2  1  0  0  0  0
  1  3  1  0  0  0  0
  2  5  1  0  0  0  0
  2  6  2  0  0  0  0
  3  4  1  0  0  0  0
  3  8  2  0  0  0  0
  4  6  1  0  0  0  0
  4  9  1  0  0  0  0
  5  7  2  0  0  0  0
  5 10  1  0  0  0  0
  7 12  1  0  0  0  0
  7 21  1  0  0  0  0
  8 14  1  0  0  0  0
  9 15  1  0  0  0  0
 10 17  2  0  0  0  0
 11 13  1  0  0  0  0
 11 16  1  0  0  0  0
 11 18  2  0  0  0  0
 12 16  1  0  0  0  0
 13 20  2  0  0  0  0
 13 25  1  0  0  0  0
 14 15  2  0  0  0  0
 17 18  1  0  0  0  0
 19 20  1  0  0  0  0
 19 22  2  0  0  0  0
 19 23  1  0  0  0  0
 22 24  1  0  0  0  0
 22 28  1  0  0  0  0
 23 26  2  0  0  0  0
 24 27  2  0  0  0  0
 26 27  1  0  0  0  0
M  END
> <PUBCHEM_COMPOUND_ID_TYPE>
0

> <PUBCHEM_TOTAL_CHARGE>
0

> <PUBCHEM_SUBSTANCE_ID>
310948629

> <PUBCHEM_SUBSTANCE_VERSION>
1

> <PUBCHEM_EXT_DATASOURCE_NAME>
4488

> <PUBCHEM_EXT_DATASOURCE_REGID>
SCHEMBL16126813

> <PUBCHEM_SUBSTANCE_COMMENT>
InChI=1S/C27H29N/c1-19-9-4-5-10-23(19)17-21(3)22-12-8-13-25(20(2)15-16-22)27-18-24-11-6-7-14-26(24)28-27/h4-10,12-14,17-18,24,28H,11,15-16H2,1-3H3/b13-8-,21-17+,22-12+,25-20+
InChIKey=AAIDTPHQQSVQRG-OSWXSFKKSA-N

> <PUBCHEM_SUBSTANCE_SYNONYM>
SCHEMBL16126813

> <PUBCHEM_XREF_EXT_ID>
SCHEMBL16126813

> <PUBCHEM_EXT_DATASOURCE_URL>
https://www.surechembl.org/

> <PUBCHEM_EXT_SUBSTANCE_URL>
https://www.surechembl.org/chemical/SCHEMBL16126813

> <PUBCHEM_CID_ASSOCIATIONS>
117614173  1

> <PUBCHEM_COORDINATE_TYPE>
1
3

$$$$
