310946066
  -OEChem-07211613022D

 36 39  0     1  0  0  0  0  0999 V2000
    3.6369    1.1894    0.0000 O   0  0  0  0  0  0  0  0  0  0  0  0
    1.3819    1.1894    0.0000 O   0  0  0  0  0  0  0  0  0  0  0  0
    0.6669    0.7769    0.0000 O   0  0  0  0  0  0  0  0  0  0  0  0
   -0.0481    1.1894    0.0000 O   0  0  0  0  0  0  0  0  0  0  0  0
   -2.7156    2.9494    0.0000 O   0  0  0  0  0  0  0  0  0  0  0  0
   -2.9081   -2.9494    0.0000 O   0  0  0  0  0  0  0  0  0  0  0  0
    1.3819   -0.4606    0.0000 N   0  0  0  0  0  0  0  0  0  0  0  0
   -0.7631   -0.0481    0.0000 N   0  0  0  0  0  0  0  0  0  0  0  0
   -1.5606    2.0282    0.0000 N   0  0  0  0  0  0  0  0  0  0  0  0
    2.8119    1.2306    0.0000 C   0  0  3  0  0  0  0  0  0  0  0  0
    2.1106    0.8044    0.0000 C   0  0  0  0  0  0  0  0  0  0  0  0
    3.2381    0.5294    0.0000 C   0  0  0  0  0  0  0  0  0  0  0  0
    2.0968   -0.0206    0.0000 C   0  0  3  0  0  0  0  0  0  0  0  0
    2.8257    2.0694    0.0000 C   0  0  0  0  0  0  0  0  0  0  0  0
    0.6669   -0.0344    0.0000 C   0  0  0  0  0  0  0  0  0  0  0  0
    2.8119   -0.4331    0.0000 C   0  0  0  0  0  0  0  0  0  0  0  0
   -0.0344   -0.4194    0.0000 C   0  0  3  0  0  0  0  0  0  0  0  0
    2.8119   -1.2581    0.0000 C   0  0  0  0  0  0  0  0  0  0  0  0
   -0.7769    0.8044    0.0000 C   0  0  0  0  0  0  0  0  0  0  0  0
   -1.4919    1.2306    0.0000 C   0  0  3  0  0  0  0  0  0  0  0  0
   -0.0481   -1.2581    0.0000 C   0  0  0  0  0  0  0  0  0  0  0  0
   -0.7631   -1.6706    0.0000 C   0  0  0  0  0  0  0  0  0  0  0  0
   -2.2481    0.9007    0.0000 C   0  0  0  0  0  0  0  0  0  0  0  0
    3.5269   -1.6844    0.0000 C   0  0  0  0  0  0  0  0  0  0  0  0
    2.1106   -1.6844    0.0000 C   0  0  0  0  0  0  0  0  0  0  0  0
   -2.3581    2.2069    0.0000 C   0  0  0  0  0  0  0  0  0  0  0  0
   -2.7844    1.5056    0.0000 C   0  0  0  0  0  0  0  0  0  0  0  0
   -1.4782   -1.2856    0.0000 C   0  0  0  0  0  0  0  0  0  0  0  0
   -0.7631   -2.4956    0.0000 C   0  0  0  0  0  0  0  0  0  0  0  0
   -2.2069   -2.4956    0.0000 C   0  0  0  0  0  0  0  0  0  0  0  0
   -2.1794   -1.6706    0.0000 C   0  0  0  0  0  0  0  0  0  0  0  0
   -1.4782   -2.9081    0.0000 C   0  0  0  0  0  0  0  0  0  0  0  0
    3.5269   -2.4956    0.0000 C   0  0  0  0  0  0  0  0  0  0  0  0
    2.1106   -2.4956    0.0000 C   0  0  0  0  0  0  0  0  0  0  0  0
    2.8119   -2.9081    0.0000 C   0  0  0  0  0  0  0  0  0  0  0  0
   -3.6369   -2.5094    0.0000 C   0  0  0  0  0  0  0  0  0  0  0  0
  1 10  1  0  0  0  0
  1 12  1  0  0  0  0
  2 11  2  0  0  0  0
  3 15  2  0  0  0  0
  4 19  2  0  0  0  0
  5 26  2  0  0  0  0
  6 30  1  0  0  0  0
  6 36  1  0  0  0  0
  7 13  1  0  0  0  0
  7 15  1  0  0  0  0
  8 17  1  0  0  0  0
  8 19  1  0  0  0  0
  9 20  1  0  0  0  0
  9 26  1  0  0  0  0
 10 11  1  0  0  0  0
 10 12  1  0  0  0  0
 10 14  1  0  0  0  0
 11 13  1  0  0  0  0
 13 16  1  0  0  0  0
 15 17  1  0  0  0  0
 16 18  1  0  0  0  0
 17 21  1  0  0  0  0
 18 24  2  0  0  0  0
 18 25  1  0  0  0  0
 19 20  1  0  0  0  0
 20 23  1  0  0  0  0
 21 22  1  0  0  0  0
 22 28  2  0  0  0  0
 22 29  1  0  0  0  0
 23 27  1  0  0  0  0
 24 33  1  0  0  0  0
 25 34  2  0  0  0  0
 26 27  1  0  0  0  0
 28 31  1  0  0  0  0
 29 32  2  0  0  0  0
 30 31  2  0  0  0  0
 30 32  1  0  0  0  0
 33 35  2  0  0  0  0
 34 35  1  0  0  0  0
M  END
> <PUBCHEM_COMPOUND_ID_TYPE>
0

> <PUBCHEM_TOTAL_CHARGE>
0

> <PUBCHEM_SUBSTANCE_ID>
310946066

> <PUBCHEM_SUBSTANCE_VERSION>
1

> <PUBCHEM_EXT_DATASOURCE_NAME>
4488

> <PUBCHEM_EXT_DATASOURCE_REGID>
SCHEMBL16124172

> <PUBCHEM_SUBSTANCE_COMMENT>
InChI=1S/C27H31N3O6/c1-27(16-36-27)24(32)21(14-17-6-4-3-5-7-17)29-26(34)22(15-18-8-10-19(35-2)11-9-18)30-25(33)20-12-13-23(31)28-20/h3-11,20-22H,12-16H2,1-2H3,(H,28,31)(H,29,34)(H,30,33)
InChIKey=AGFKXCQULDZJPO-UHFFFAOYSA-N

> <PUBCHEM_SUBSTANCE_SYNONYM>
SCHEMBL16124172

> <PUBCHEM_XREF_EXT_ID>
SCHEMBL16124172

> <PUBCHEM_EXT_DATASOURCE_URL>
https://www.surechembl.org/

> <PUBCHEM_EXT_SUBSTANCE_URL>
https://www.surechembl.org/chemical/SCHEMBL16124172

> <PUBCHEM_CID_ASSOCIATIONS>
117612037  1

> <PUBCHEM_COORDINATE_TYPE>
1
3

$$$$
