310935022
  -OEChem-07211613022D

 36 40  0     1  0  0  0  0  0999 V2000
    0.0000   -2.6072    0.0000 Cl  0  0  0  0  0  0  0  0  0  0  0  0
    0.0000   -4.1039    0.0000 Cl  0  0  0  0  0  0  0  0  0  0  0  0
    0.8208   -2.6072    0.0000 Cl  0  0  0  0  0  0  0  0  0  0  0  0
    5.6489   -1.1588    0.0000 O   0  0  0  0  0  0  0  0  0  0  0  0
    6.3731   -2.4141    0.0000 O   0  0  0  0  0  0  0  0  0  0  0  0
    3.3314   -3.3314    0.0000 N   0  0  0  0  0  0  0  0  0  0  0  0
    4.9247   -2.4141    0.0000 N   0  0  0  0  0  0  0  0  0  0  0  0
    1.8830   -3.2831    0.0000 N   0  0  0  0  0  0  0  0  0  0  0  0
    2.6072   -4.5384    0.0000 N   0  0  0  0  0  0  0  0  0  0  0  0
    1.1588   -4.5868    0.0000 N   0  0  0  0  0  0  0  0  0  0  0  0
    1.9313   -8.4010    0.0000 N   0  0  0  0  0  0  0  0  0  0  0  0
    4.1039   -3.7660    0.0000 C   0  0  3  0  0  0  0  0  0  0  0  0
    2.6072   -3.7176    0.0000 C   0  0  0  0  0  0  0  0  0  0  0  0
    4.1039   -1.9313    0.0000 C   0  0  3  0  0  0  0  0  0  0  0  0
    3.3314   -2.4141    0.0000 C   0  0  0  0  0  0  0  0  0  0  0  0
    4.9247   -3.3314    0.0000 C   0  0  0  0  0  0  0  0  0  0  0  0
    1.1588   -3.7660    0.0000 C   0  0  0  0  0  0  0  0  0  0  0  0
    1.8830   -5.0213    0.0000 C   0  0  0  0  0  0  0  0  0  0  0  0
    4.4902   -3.1866    0.0000 C   0  0  0  0  0  0  0  0  0  0  0  0
    4.4419   -2.5589    0.0000 C   0  0  0  0  0  0  0  0  0  0  0  0
    5.6489   -1.9795    0.0000 C   0  0  0  0  0  0  0  0  0  0  0  0
    0.4346   -3.3314    0.0000 C   0  0  0  0  0  0  0  0  0  0  0  0
    1.8830   -5.8420    0.0000 C   0  0  0  0  0  0  0  0  0  0  0  0
    2.6072   -6.2766    0.0000 C   0  0  0  0  0  0  0  0  0  0  0  0
    1.1588   -6.2766    0.0000 C   0  0  0  0  0  0  0  0  0  0  0  0
    1.9313   -7.5319    0.0000 C   0  0  0  0  0  0  0  0  0  0  0  0
    6.3731   -0.7242    0.0000 C   0  0  0  0  0  0  0  0  0  0  0  0
    2.6072   -7.0974    0.0000 C   0  0  0  0  0  0  0  0  0  0  0  0
    1.1588   -7.0974    0.0000 C   0  0  0  0  0  0  0  0  0  0  0  0
    2.6072   -8.8838    0.0000 C   0  0  0  0  0  0  0  0  0  0  0  0
    1.2070   -8.8838    0.0000 C   0  0  0  0  0  0  0  0  0  0  0  0
    6.8077   -1.4485    0.0000 C   0  0  0  0  0  0  0  0  0  0  0  0
    7.0974   -0.3380    0.0000 C   0  0  0  0  0  0  0  0  0  0  0  0
    5.9869    0.0000    0.0000 C   0  0  0  0  0  0  0  0  0  0  0  0
    2.3175   -9.6563    0.0000 C   0  0  0  0  0  0  0  0  0  0  0  0
    1.4967   -9.6563    0.0000 C   0  0  0  0  0  0  0  0  0  0  0  0
  1 22  1  0  0  0  0
  2 22  1  0  0  0  0
  3 22  1  0  0  0  0
  4 21  1  0  0  0  0
  4 27  1  0  0  0  0
  5 21  2  0  0  0  0
  6 12  1  0  0  0  0
  6 13  1  0  0  0  0
  6 15  1  0  0  0  0
  7 14  1  0  0  0  0
  7 16  1  0  0  0  0
  7 21  1  0  0  0  0
  8 13  2  0  0  0  0
  8 17  1  0  0  0  0
  9 13  1  0  0  0  0
  9 18  2  0  0  0  0
 10 17  2  0  0  0  0
 10 18  1  0  0  0  0
 11 26  1  0  0  0  0
 11 30  1  0  0  0  0
 11 31  1  0  0  0  0
 12 16  1  0  0  0  0
 12 19  1  0  0  0  0
 14 15  1  0  0  0  0
 14 20  1  0  0  0  0
 17 22  1  0  0  0  0
 18 23  1  0  0  0  0
 19 20  1  0  0  0  0
 23 24  2  0  0  0  0
 23 25  1  0  0  0  0
 24 28  1  0  0  0  0
 25 29  2  0  0  0  0
 26 28  2  0  0  0  0
 26 29  1  0  0  0  0
 27 32  1  0  0  0  0
 27 33  1  0  0  0  0
 27 34  1  0  0  0  0
 30 35  1  0  0  0  0
 31 36  1  0  0  0  0
 35 36  1  0  0  0  0
M  END
> <PUBCHEM_COMPOUND_ID_TYPE>
0

> <PUBCHEM_TOTAL_CHARGE>
0

> <PUBCHEM_SUBSTANCE_ID>
310935022

> <PUBCHEM_SUBSTANCE_VERSION>
1

> <PUBCHEM_EXT_DATASOURCE_NAME>
4488

> <PUBCHEM_EXT_DATASOURCE_REGID>
SCHEMBL16112541

> <PUBCHEM_SUBSTANCE_COMMENT>
InChI=1S/C25H31Cl3N6O2/c1-24(2,3)36-23(35)34-15-18-10-11-19(34)14-33(18)22-30-20(29-21(31-22)25(26,27)28)16-6-8-17(9-7-16)32-12-4-5-13-32/h6-9,18-19H,4-5,10-15H2,1-3H3
InChIKey=IUPUVXJNHDTDOD-UHFFFAOYSA-N

> <PUBCHEM_SUBSTANCE_SYNONYM>
SCHEMBL16112541

> <PUBCHEM_XREF_EXT_ID>
SCHEMBL16112541

> <PUBCHEM_EXT_DATASOURCE_URL>
https://www.surechembl.org/

> <PUBCHEM_EXT_SUBSTANCE_URL>
https://www.surechembl.org/chemical/SCHEMBL16112541

> <PUBCHEM_CID_ASSOCIATIONS>
117603132  1

> <PUBCHEM_COORDINATE_TYPE>
1
3

$$$$
