310944075
  -OEChem-07211613022D

 32 34  0     1  0  0  0  0  0999 V2000
   -5.1166    1.3248    0.0000 I   0  0  0  0  0  0  0  0  0  0  0  0
   -5.3387   -0.3253    0.0000 Cl  0  0  0  0  0  0  0  0  0  0  0  0
    4.5455   -0.9123    0.0000 O   0  0  0  0  0  0  0  0  0  0  0  0
    3.7680   -2.1498    0.0000 O   0  0  0  0  0  0  0  0  0  0  0  0
   -2.2608   -0.3253    0.0000 O   0  0  0  0  0  0  0  0  0  0  0  0
   -0.8329    2.1498    0.0000 O   0  0  0  0  0  0  0  0  0  0  0  0
    3.0700   -0.9123    0.0000 N   0  0  0  0  0  0  0  0  0  0  0  0
    1.3406    0.0873    0.0000 N   0  0  0  0  0  0  0  0  0  0  0  0
   -0.0873    0.9123    0.0000 N   0  0  0  0  0  0  0  0  0  0  0  0
   -2.2450    1.3248    0.0000 N   0  0  0  0  0  0  0  0  0  0  0  0
    2.0863   -0.3094    0.0000 C   0  0  0  0  0  0  0  0  0  0  0  0
    2.2608   -1.1185    0.0000 C   0  0  0  0  0  0  0  0  0  0  0  0
    2.8637   -0.1190    0.0000 C   0  0  0  0  0  0  0  0  0  0  0  0
    3.7680   -1.3248    0.0000 C   0  0  0  0  0  0  0  0  0  0  0  0
   -2.9589    0.9281    0.0000 C   0  0  0  0  0  0  0  0  0  0  0  0
   -0.8171    1.3248    0.0000 C   0  0  0  0  0  0  0  0  0  0  0  0
    1.3406    0.9123    0.0000 C   0  0  0  0  0  0  0  0  0  0  0  0
    0.6266   -0.3253    0.0000 C   0  0  0  0  0  0  0  0  0  0  0  0
   -1.5310    0.9281    0.0000 C   0  0  3  0  0  0  0  0  0  0  0  0
   -2.9748    0.0873    0.0000 C   0  0  0  0  0  0  0  0  0  0  0  0
    0.6108    1.3248    0.0000 C   0  0  0  0  0  0  0  0  0  0  0  0
   -0.0873    0.0873    0.0000 C   0  0  0  0  0  0  0  0  0  0  0  0
   -4.3868    0.9123    0.0000 C   0  0  0  0  0  0  0  0  0  0  0  0
   -3.6887    1.3248    0.0000 C   0  0  0  0  0  0  0  0  0  0  0  0
   -4.4027    0.0873    0.0000 C   0  0  0  0  0  0  0  0  0  0  0  0
   -3.6887   -0.3094    0.0000 C   0  0  0  0  0  0  0  0  0  0  0  0
    4.5614   -0.0555    0.0000 C   0  0  0  0  0  0  0  0  0  0  0  0
   -1.5152    0.0873    0.0000 C   0  0  0  0  0  0  0  0  0  0  0  0
    5.3387   -0.0238    0.0000 C   0  0  0  0  0  0  0  0  0  0  0  0
    3.7680   -0.0555    0.0000 C   0  0  0  0  0  0  0  0  0  0  0  0
    4.5455    0.7853    0.0000 C   0  0  0  0  0  0  0  0  0  0  0  0
   -2.2291   -1.1503    0.0000 C   0  0  0  0  0  0  0  0  0  0  0  0
  1 23  1  0  0  0  0
  2 25  1  0  0  0  0
  3 14  1  0  0  0  0
  3 27  1  0  0  0  0
  4 14  2  0  0  0  0
  5 20  1  0  0  0  0
  5 32  1  0  0  0  0
  6 16  2  0  0  0  0
  7 12  1  0  0  0  0
  7 13  1  0  0  0  0
  7 14  1  0  0  0  0
  8 11  1  0  0  0  0
  8 17  1  0  0  0  0
  8 18  1  0  0  0  0
  9 16  1  0  0  0  0
  9 21  1  0  0  0  0
  9 22  1  0  0  0  0
 10 15  1  0  0  0  0
 10 19  1  0  0  0  0
 11 12  1  0  0  0  0
 11 13  1  0  0  0  0
 15 20  1  0  0  0  0
 15 24  2  0  0  0  0
 16 19  1  0  0  0  0
 17 21  1  0  0  0  0
 18 22  1  0  0  0  0
 19 28  1  0  0  0  0
 20 26  2  0  0  0  0
 23 24  1  0  0  0  0
 23 25  2  0  0  0  0
 25 26  1  0  0  0  0
 27 29  1  0  0  0  0
 27 30  1  0  0  0  0
 27 31  1  0  0  0  0
M  END
> <PUBCHEM_COMPOUND_ID_TYPE>
0

> <PUBCHEM_TOTAL_CHARGE>
0

> <PUBCHEM_SUBSTANCE_ID>
310944075

> <PUBCHEM_SUBSTANCE_VERSION>
1

> <PUBCHEM_EXT_DATASOURCE_NAME>
4488

> <PUBCHEM_EXT_DATASOURCE_REGID>
SCHEMBL16122150

> <PUBCHEM_SUBSTANCE_COMMENT>
InChI=1S/C22H32ClIN4O4/c1-14(25-18-11-17(24)16(23)10-19(18)31-5)20(29)27-8-6-26(7-9-27)15-12-28(13-15)21(30)32-22(2,3)4/h10-11,14-15,25H,6-9,12-13H2,1-5H3
InChIKey=LSPZNQJEAHYICT-UHFFFAOYSA-N

> <PUBCHEM_SUBSTANCE_SYNONYM>
SCHEMBL16122150

> <PUBCHEM_XREF_EXT_ID>
SCHEMBL16122150

> <PUBCHEM_EXT_DATASOURCE_URL>
https://www.surechembl.org/

> <PUBCHEM_EXT_SUBSTANCE_URL>
https://www.surechembl.org/chemical/SCHEMBL16122150

> <PUBCHEM_CID_ASSOCIATIONS>
117610368  1

> <PUBCHEM_COORDINATE_TYPE>
1
3

$$$$
