310931482
  -OEChem-07211613022D

 15 16  0     1  0  0  0  0  0999 V2000
    3.2745    0.0000    0.0000 O   0  0  0  0  0  0  0  0  0  0  0  0
    4.4001   -1.9613    0.0000 O   0  0  0  0  0  0  0  0  0  0  0  0
    5.1164   -0.7163    0.0000 O   0  0  0  0  0  0  0  0  0  0  0  0
    3.6838   -0.7163    0.0000 C   0  0  3  0  0  0  0  0  0  0  0  0
    2.8652   -0.7163    0.0000 C   0  0  3  0  0  0  0  0  0  0  0  0
    2.1489   -1.1427    0.0000 C   0  0  0  0  0  0  0  0  0  0  0  0
    4.4001   -1.1427    0.0000 C   0  0  0  0  0  0  0  0  0  0  0  0
    3.4621   -1.5179    0.0000 C   0  0  0  0  0  0  0  0  0  0  0  0
    2.1319   -1.9613    0.0000 C   0  0  0  0  0  0  0  0  0  0  0  0
    1.4326   -0.7334    0.0000 C   0  0  0  0  0  0  0  0  0  0  0  0
    1.4326   -2.3877    0.0000 C   0  0  0  0  0  0  0  0  0  0  0  0
    0.7163   -1.1427    0.0000 C   0  0  0  0  0  0  0  0  0  0  0  0
    0.7163   -1.9613    0.0000 C   0  0  0  0  0  0  0  0  0  0  0  0
    5.1164   -2.3706    0.0000 C   0  0  0  0  0  0  0  0  0  0  0  0
    0.0000   -2.3706    0.0000 C   0  0  0  0  0  0  0  0  0  0  0  0
  1  4  1  0  0  0  0
  1  5  1  0  0  0  0
  2  7  1  0  0  0  0
  2 14  1  0  0  0  0
  3  7  2  0  0  0  0
  4  5  1  0  0  0  0
  4  7  1  0  0  0  0
  4  8  1  0  0  0  0
  5  6  1  0  0  0  0
  6  9  2  0  0  0  0
  6 10  1  0  0  0  0
  9 11  1  0  0  0  0
 10 12  2  0  0  0  0
 11 13  2  0  0  0  0
 12 13  1  0  0  0  0
 13 15  1  0  0  0  0
M  END
> <PUBCHEM_COMPOUND_ID_TYPE>
0

> <PUBCHEM_TOTAL_CHARGE>
0

> <PUBCHEM_SUBSTANCE_ID>
310931482

> <PUBCHEM_SUBSTANCE_VERSION>
1

> <PUBCHEM_EXT_DATASOURCE_NAME>
4488

> <PUBCHEM_EXT_DATASOURCE_REGID>
SCHEMBL16108807

> <PUBCHEM_SUBSTANCE_COMMENT>
InChI=1S/C12H14O3/c1-8-4-6-9(7-5-8)10-12(2,15-10)11(13)14-3/h4-7,10H,1-3H3
InChIKey=BGDSTUCBCIOCQD-UHFFFAOYSA-N

> <PUBCHEM_SUBSTANCE_SYNONYM>
SCHEMBL16108807

> <PUBCHEM_XREF_EXT_ID>
SCHEMBL16108807

> <PUBCHEM_EXT_DATASOURCE_URL>
https://www.surechembl.org/

> <PUBCHEM_EXT_SUBSTANCE_URL>
https://www.surechembl.org/chemical/SCHEMBL16108807

> <PUBCHEM_CID_ASSOCIATIONS>
117600247  1

> <PUBCHEM_COORDINATE_TYPE>
1
3

$$$$
