310943865
  -OEChem-07211613022D

 31 34  0     1  0  0  0  0  0999 V2000
    1.0174    2.0074    0.0000 F   0  0  0  0  0  0  0  0  0  0  0  0
    3.2311    0.5362    0.0000 N   0  0  3  0  0  0  0  0  0  0  0  0
   -3.2724   -1.5399    0.0000 N   0  0  3  0  0  0  0  0  0  0  0  0
    4.9910   -0.0137    0.0000 N   0  0  3  0  0  0  0  0  0  0  0  0
   -5.0460   -0.9900    0.0000 N   0  0  3  0  0  0  0  0  0  0  0  0
    0.3162   -0.2750    0.0000 C   0  0  0  0  0  0  0  0  0  0  0  0
   -0.4263   -0.6875    0.0000 C   0  0  0  0  0  0  0  0  0  0  0  0
    1.7187    0.5637    0.0000 C   0  0  0  0  0  0  0  0  0  0  0  0
    1.0174    0.9624    0.0000 C   0  0  0  0  0  0  0  0  0  0  0  0
    0.3162    0.5500    0.0000 C   0  0  0  0  0  0  0  0  0  0  0  0
    1.0037   -0.6875    0.0000 C   0  0  0  0  0  0  0  0  0  0  0  0
    1.7049   -0.2888    0.0000 C   0  0  0  0  0  0  0  0  0  0  0  0
   -1.8700   -1.5262    0.0000 C   0  0  0  0  0  0  0  0  0  0  0  0
    2.4337    0.9624    0.0000 C   0  0  0  0  0  0  0  0  0  0  0  0
   -1.1275   -0.3025    0.0000 C   0  0  0  0  0  0  0  0  0  0  0  0
   -0.4400   -1.5399    0.0000 C   0  0  0  0  0  0  0  0  0  0  0  0
   -1.8424   -0.7012    0.0000 C   0  0  0  0  0  0  0  0  0  0  0  0
   -1.1275   -1.9387    0.0000 C   0  0  0  0  0  0  0  0  0  0  0  0
   -2.5436   -1.9387    0.0000 C   0  0  0  0  0  0  0  0  0  0  0  0
    3.5336   -0.2338    0.0000 C   0  0  0  0  0  0  0  0  0  0  0  0
    3.6436    1.2512    0.0000 C   0  0  0  0  0  0  0  0  0  0  0  0
   -3.9599   -2.0074    0.0000 C   0  0  0  0  0  0  0  0  0  0  0  0
   -3.2174   -0.7149    0.0000 C   0  0  0  0  0  0  0  0  0  0  0  0
    4.3311   -0.4674    0.0000 C   0  0  0  0  0  0  0  0  0  0  0  0
    4.4549    1.3750    0.0000 C   0  0  0  0  0  0  0  0  0  0  0  0
    5.0598    0.7837    0.0000 C   0  0  0  0  0  0  0  0  0  0  0  0
   -4.7573   -1.7462    0.0000 C   0  0  0  0  0  0  0  0  0  0  0  0
   -3.8086   -0.1650    0.0000 C   0  0  0  0  0  0  0  0  0  0  0  0
   -4.6336   -0.2612    0.0000 C   0  0  0  0  0  0  0  0  0  0  0  0
    5.8847   -0.5362    0.0000 C   0  0  0  0  0  0  0  0  0  0  0  0
   -5.8847   -0.9900    0.0000 C   0  0  0  0  0  0  0  0  0  0  0  0
  1  9  1  0  0  0  0
  2 14  1  0  0  0  0
  2 20  1  0  0  0  0
  2 21  1  0  0  0  0
  3 19  1  0  0  0  0
  3 22  1  0  0  0  0
  3 23  1  0  0  0  0
  4 24  1  0  0  0  0
  4 26  1  0  0  0  0
  4 30  1  0  0  0  0
  5 27  1  0  0  0  0
  5 29  1  0  0  0  0
  5 31  1  0  0  0  0
  6  7  1  0  0  0  0
  6 10  1  0  0  0  0
  6 11  2  0  0  0  0
  7 15  2  0  0  0  0
  7 16  1  0  0  0  0
  8  9  1  0  0  0  0
  8 12  2  0  0  0  0
  8 14  1  0  0  0  0
  9 10  2  0  0  0  0
 11 12  1  0  0  0  0
 13 17  2  0  0  0  0
 13 18  1  0  0  0  0
 13 19  1  0  0  0  0
 15 17  1  0  0  0  0
 16 18  2  0  0  0  0
 20 24  1  0  0  0  0
 21 25  1  0  0  0  0
 22 27  1  0  0  0  0
 23 28  1  0  0  0  0
 25 26  1  0  0  0  0
 28 29  1  0  0  0  0
M  END
> <PUBCHEM_COMPOUND_ID_TYPE>
0

> <PUBCHEM_TOTAL_CHARGE>
0

> <PUBCHEM_SUBSTANCE_ID>
310943865

> <PUBCHEM_SUBSTANCE_VERSION>
1

> <PUBCHEM_EXT_DATASOURCE_NAME>
4488

> <PUBCHEM_EXT_DATASOURCE_REGID>
SCHEMBL16121936

> <PUBCHEM_SUBSTANCE_COMMENT>
InChI=1S/C26H37FN4/c1-28-11-3-13-30(17-15-28)20-22-5-7-23(8-6-22)24-9-10-25(26(27)19-24)21-31-14-4-12-29(2)16-18-31/h5-10,19H,3-4,11-18,20-21H2,1-2H3
InChIKey=MKPVJLDFNABNAO-UHFFFAOYSA-N

> <PUBCHEM_SUBSTANCE_SYNONYM>
SCHEMBL16121936

> <PUBCHEM_XREF_EXT_ID>
SCHEMBL16121936

> <PUBCHEM_EXT_DATASOURCE_URL>
https://www.surechembl.org/

> <PUBCHEM_EXT_SUBSTANCE_URL>
https://www.surechembl.org/chemical/SCHEMBL16121936

> <PUBCHEM_CID_ASSOCIATIONS>
117610196  1

> <PUBCHEM_COORDINATE_TYPE>
1
3

$$$$
