310937501
  -OEChem-07211613022D

 25 27  0     1  0  0  0  0  0999 V2000
    5.8348   -2.5527    0.0000 O   0  0  0  0  0  0  0  0  0  0  0  0
    1.7392   -3.2821    0.0000 O   0  0  0  0  0  0  0  0  0  0  0  0
    1.4306   -0.8135    0.0000 O   0  0  0  0  0  0  0  0  0  0  0  0
    4.5725   -2.1600    0.0000 N   0  0  0  0  0  0  0  0  0  0  0  0
    4.0114   -4.2358    0.0000 N   0  0  0  0  0  0  0  0  0  0  0  0
    5.3579   -3.2260    0.0000 N   0  0  0  0  0  0  0  0  0  0  0  0
    2.5808   -4.4042    0.0000 C   0  0  0  0  0  0  0  0  0  0  0  0
    3.8992   -3.4504    0.0000 C   0  0  0  0  0  0  0  0  0  0  0  0
    4.5725   -2.9735    0.0000 C   0  0  0  0  0  0  0  0  0  0  0  0
    2.4966   -3.5907    0.0000 C   0  0  0  0  0  0  0  0  0  0  0  0
    1.9075   -4.8810    0.0000 C   0  0  0  0  0  0  0  0  0  0  0  0
    5.3579   -1.9075    0.0000 C   0  0  0  0  0  0  0  0  0  0  0  0
    3.1418   -3.0857    0.0000 C   0  0  0  0  0  0  0  0  0  0  0  0
    5.6104   -1.1221    0.0000 C   0  0  0  0  0  0  0  0  0  0  0  0
    3.3382   -4.7408    0.0000 C   0  0  0  0  0  0  0  0  0  0  0  0
    1.5709   -5.6104    0.0000 C   0  0  0  0  0  0  0  0  0  0  0  0
    1.0940   -4.9652    0.0000 C   0  0  0  0  0  0  0  0  0  0  0  0
    6.3959   -1.3745    0.0000 C   0  0  0  0  0  0  0  0  0  0  0  0
    5.8628   -0.3366    0.0000 C   0  0  0  0  0  0  0  0  0  0  0  0
    4.8249   -0.8696    0.0000 C   0  0  0  0  0  0  0  0  0  0  0  0
    1.6550   -2.4686    0.0000 C   0  0  0  0  0  0  0  0  0  0  0  0
    0.8976   -2.1320    0.0000 C   0  0  0  0  0  0  0  0  0  0  0  0
    0.8135   -1.3184    0.0000 C   0  0  3  0  0  0  0  0  0  0  0  0
    0.0000   -1.0659    0.0000 C   0  0  0  0  0  0  0  0  0  0  0  0
    1.2904    0.0000    0.0000 C   0  0  0  0  0  0  0  0  0  0  0  0
  1  6  1  0  0  0  0
  1 12  1  0  0  0  0
  2 10  1  0  0  0  0
  2 21  1  0  0  0  0
  3 23  1  0  0  0  0
  3 25  1  0  0  0  0
  4  9  1  0  0  0  0
  4 12  2  0  0  0  0
  5  8  1  0  0  0  0
  5 15  2  0  0  0  0
  6  9  2  0  0  0  0
  7 10  2  0  0  0  0
  7 11  1  0  0  0  0
  7 15  1  0  0  0  0
  8  9  1  0  0  0  0
  8 13  2  0  0  0  0
 10 13  1  0  0  0  0
 11 16  1  0  0  0  0
 11 17  1  0  0  0  0
 12 14  1  0  0  0  0
 14 18  1  0  0  0  0
 14 19  1  0  0  0  0
 14 20  1  0  0  0  0
 16 17  1  0  0  0  0
 21 22  1  0  0  0  0
 22 23  1  0  0  0  0
 23 24  1  0  0  0  0
M  END
> <PUBCHEM_COMPOUND_ID_TYPE>
0

> <PUBCHEM_TOTAL_CHARGE>
0

> <PUBCHEM_SUBSTANCE_ID>
310937501

> <PUBCHEM_SUBSTANCE_VERSION>
1

> <PUBCHEM_EXT_DATASOURCE_NAME>
4488

> <PUBCHEM_EXT_DATASOURCE_REGID>
SCHEMBL16115272

> <PUBCHEM_SUBSTANCE_COMMENT>
InChI=1S/C19H27N3O3/c1-12(23-5)8-9-24-16-10-15(20-11-14(16)13-6-7-13)17-21-18(25-22-17)19(2,3)4/h10-13H,6-9H2,1-5H3
InChIKey=ZUGIJKPPOJHXRW-UHFFFAOYSA-N

> <PUBCHEM_SUBSTANCE_SYNONYM>
SCHEMBL16115272

> <PUBCHEM_XREF_EXT_ID>
SCHEMBL16115272

> <PUBCHEM_EXT_DATASOURCE_URL>
https://www.surechembl.org/

> <PUBCHEM_EXT_SUBSTANCE_URL>
https://www.surechembl.org/chemical/SCHEMBL16115272

> <PUBCHEM_CID_ASSOCIATIONS>
86276072  1

> <PUBCHEM_COORDINATE_TYPE>
1
3

$$$$
