310935253
  -OEChem-07211613022D

 27 29  0     1  0  0  0  0  0999 V2000
    7.6856   -0.6661    0.0000 F   0  0  0  0  0  0  0  0  0  0  0  0
    0.0000   -4.2015    0.0000 F   0  0  0  0  0  0  0  0  0  0  0  0
    1.2297   -4.9187    0.0000 F   0  0  0  0  0  0  0  0  0  0  0  0
    0.4355   -3.4841    0.0000 F   0  0  0  0  0  0  0  0  0  0  0  0
    6.5071   -1.4858    0.0000 O   0  0  0  0  0  0  0  0  0  0  0  0
    6.5071   -2.9205    0.0000 O   0  0  0  0  0  0  0  0  0  0  0  0
    2.0751   -3.5097    0.0000 N   0  0  0  0  0  0  0  0  0  0  0  0
    2.5619   -4.1758    0.0000 N   0  0  0  0  0  0  0  0  0  0  0  0
    5.2774   -2.2032    0.0000 C   0  0  3  0  0  0  0  0  0  0  0  0
    5.6617   -1.4603    0.0000 C   0  0  0  0  0  0  0  0  0  0  0  0
    4.8163   -2.8693    0.0000 C   0  0  0  0  0  0  0  0  0  0  0  0
    4.0221   -2.6131    0.0000 C   0  0  0  0  0  0  0  0  0  0  0  0
    6.1228   -2.2032    0.0000 C   0  0  0  0  0  0  0  0  0  0  0  0
    4.8163   -1.5371    0.0000 C   0  0  0  0  0  0  0  0  0  0  0  0
    3.3560   -3.0999    0.0000 C   0  0  0  0  0  0  0  0  0  0  0  0
    6.6608   -1.5884    0.0000 C   0  0  0  0  0  0  0  0  0  0  0  0
    4.0221   -1.7933    0.0000 C   0  0  0  0  0  0  0  0  0  0  0  0
    5.2262   -0.7686    0.0000 C   0  0  0  0  0  0  0  0  0  0  0  0
    6.8657   -0.6917    0.0000 C   0  0  0  0  0  0  0  0  0  0  0  0
    2.5619   -2.8437    0.0000 C   0  0  0  0  0  0  0  0  0  0  0  0
    3.3560   -3.9196    0.0000 C   0  0  0  0  0  0  0  0  0  0  0  0
    5.5848   -0.0256    0.0000 C   0  0  0  0  0  0  0  0  0  0  0  0
    6.4302    0.0000    0.0000 C   0  0  0  0  0  0  0  0  0  0  0  0
    6.9426   -2.1007    0.0000 C   0  0  0  0  0  0  0  0  0  0  0  0
    1.2553   -3.4841    0.0000 C   0  0  0  0  0  0  0  0  0  0  0  0
    0.8454   -4.2015    0.0000 C   0  0  0  0  0  0  0  0  0  0  0  0
    7.3525   -1.4858    0.0000 C   0  0  0  0  0  0  0  0  0  0  0  0
  1 19  1  0  0  0  0
  2 26  1  0  0  0  0
  3 26  1  0  0  0  0
  4 26  1  0  0  0  0
  5 13  1  0  0  0  0
  5 27  1  0  0  0  0
  6 13  2  0  0  0  0
  7  8  1  0  0  0  0
  7 20  1  0  0  0  0
  7 25  1  0  0  0  0
  8 21  2  0  0  0  0
  9 10  1  0  0  0  0
  9 11  1  0  0  0  0
  9 13  1  0  0  0  0
  9 14  1  0  0  0  0
 10 16  1  0  0  0  0
 10 18  2  0  0  0  0
 11 12  2  0  0  0  0
 12 15  1  0  0  0  0
 12 17  1  0  0  0  0
 14 17  1  0  0  0  0
 15 20  2  0  0  0  0
 15 21  1  0  0  0  0
 16 19  2  0  0  0  0
 16 24  1  0  0  0  0
 18 22  1  0  0  0  0
 19 23  1  0  0  0  0
 22 23  2  0  0  0  0
 25 26  1  0  0  0  0
M  END
> <PUBCHEM_COMPOUND_ID_TYPE>
0

> <PUBCHEM_TOTAL_CHARGE>
0

> <PUBCHEM_SUBSTANCE_ID>
310935253

> <PUBCHEM_SUBSTANCE_VERSION>
1

> <PUBCHEM_EXT_DATASOURCE_NAME>
4488

> <PUBCHEM_EXT_DATASOURCE_REGID>
SCHEMBL16112783

> <PUBCHEM_SUBSTANCE_COMMENT>
InChI=1S/C19H18F4N2O2/c1-12-15(4-3-5-16(12)20)18(17(26)27-2)7-6-13(8-18)14-9-24-25(10-14)11-19(21,22)23/h3-5,8-10H,6-7,11H2,1-2H3
InChIKey=VVRDAEDYYQHKKD-UHFFFAOYSA-N

> <PUBCHEM_SUBSTANCE_SYNONYM>
SCHEMBL16112783

> <PUBCHEM_XREF_EXT_ID>
SCHEMBL16112783

> <PUBCHEM_EXT_DATASOURCE_URL>
https://www.surechembl.org/

> <PUBCHEM_EXT_SUBSTANCE_URL>
https://www.surechembl.org/chemical/SCHEMBL16112783

> <PUBCHEM_CID_ASSOCIATIONS>
117603327  1

> <PUBCHEM_COORDINATE_TYPE>
1
3

$$$$
