310937515
  -OEChem-07211613022D

 28 31  0     1  0  0  0  0  0999 V2000
    6.4253   -5.2933    0.0000 O   0  0  0  0  0  0  0  0  0  0  0  0
    5.0179   -5.2933    0.0000 O   0  0  0  0  0  0  0  0  0  0  0  0
    7.2209   -2.6008    0.0000 N   0  0  3  0  0  0  0  0  0  0  0  0
    2.1418   -1.2239    0.0000 N   0  0  0  0  0  0  0  0  0  0  0  0
    2.8761   -2.4477    0.0000 N   0  0  0  0  0  0  0  0  0  0  0  0
    0.7038   -0.4284    0.0000 N   0  0  0  0  0  0  0  0  0  0  0  0
    6.4253   -3.6716    0.0000 C   0  0  0  0  0  0  0  0  0  0  0  0
    6.4253   -2.8455    0.0000 C   0  0  0  0  0  0  0  0  0  0  0  0
    5.7216   -4.0694    0.0000 C   0  0  0  0  0  0  0  0  0  0  0  0
    5.0179   -2.8455    0.0000 C   0  0  0  0  0  0  0  0  0  0  0  0
    5.7216   -2.4171    0.0000 C   0  0  0  0  0  0  0  0  0  0  0  0
    5.0179   -3.6716    0.0000 C   0  0  0  0  0  0  0  0  0  0  0  0
    4.3142   -2.4477    0.0000 C   0  0  0  0  0  0  0  0  0  0  0  0
    7.2209   -3.9164    0.0000 C   0  0  0  0  0  0  0  0  0  0  0  0
    5.7216   -4.8955    0.0000 C   0  0  0  0  0  0  0  0  0  0  0  0
    7.6798   -3.2433    0.0000 C   0  0  0  0  0  0  0  0  0  0  0  0
    2.8455   -1.6217    0.0000 C   0  0  0  0  0  0  0  0  0  0  0  0
    3.5798   -2.8455    0.0000 C   0  0  0  0  0  0  0  0  0  0  0  0
    4.2835   -1.6217    0.0000 C   0  0  0  0  0  0  0  0  0  0  0  0
    7.4657   -1.8052    0.0000 C   0  0  0  0  0  0  0  0  0  0  0  0
    3.5798   -1.2239    0.0000 C   0  0  0  0  0  0  0  0  0  0  0  0
    2.1418   -0.3978    0.0000 C   0  0  0  0  0  0  0  0  0  0  0  0
    1.4380   -1.6523    0.0000 C   0  0  0  0  0  0  0  0  0  0  0  0
    0.7038   -1.2239    0.0000 C   0  0  0  0  0  0  0  0  0  0  0  0
    1.4075    0.0000    0.0000 C   0  0  0  0  0  0  0  0  0  0  0  0
    6.9149   -1.1933    0.0000 C   0  0  0  0  0  0  0  0  0  0  0  0
    6.4253   -6.1194    0.0000 C   0  0  0  0  0  0  0  0  0  0  0  0
    0.0000   -0.0306    0.0000 C   0  0  0  0  0  0  0  0  0  0  0  0
  1 15  1  0  0  0  0
  1 27  1  0  0  0  0
  2 15  2  0  0  0  0
  3  8  1  0  0  0  0
  3 16  1  0  0  0  0
  3 20  1  0  0  0  0
  4 17  1  0  0  0  0
  4 22  1  0  0  0  0
  4 23  1  0  0  0  0
  5 17  2  0  0  0  0
  5 18  1  0  0  0  0
  6 24  1  0  0  0  0
  6 25  1  0  0  0  0
  6 28  1  0  0  0  0
  7  8  2  0  0  0  0
  7  9  1  0  0  0  0
  7 14  1  0  0  0  0
  8 11  1  0  0  0  0
  9 12  2  0  0  0  0
  9 15  1  0  0  0  0
 10 11  2  0  0  0  0
 10 12  1  0  0  0  0
 10 13  1  0  0  0  0
 13 18  2  0  0  0  0
 13 19  1  0  0  0  0
 14 16  1  0  0  0  0
 17 21  1  0  0  0  0
 19 21  2  0  0  0  0
 20 26  1  0  0  0  0
 22 25  1  0  0  0  0
 23 24  1  0  0  0  0
M  END
> <PUBCHEM_COMPOUND_ID_TYPE>
0

> <PUBCHEM_TOTAL_CHARGE>
0

> <PUBCHEM_SUBSTANCE_ID>
310937515

> <PUBCHEM_SUBSTANCE_VERSION>
1

> <PUBCHEM_EXT_DATASOURCE_NAME>
4488

> <PUBCHEM_EXT_DATASOURCE_REGID>
SCHEMBL16115288

> <PUBCHEM_SUBSTANCE_COMMENT>
InChI=1S/C22H28N4O2/c1-4-25-8-7-18-19(22(27)28-3)13-17(14-20(18)25)16-5-6-21(23-15-16)26-11-9-24(2)10-12-26/h5-6,13-15H,4,7-12H2,1-3H3
InChIKey=RSLMBTCLLGDUJW-UHFFFAOYSA-N

> <PUBCHEM_SUBSTANCE_SYNONYM>
SCHEMBL16115288

> <PUBCHEM_XREF_EXT_ID>
SCHEMBL16115288

> <PUBCHEM_EXT_DATASOURCE_URL>
https://www.surechembl.org/

> <PUBCHEM_EXT_SUBSTANCE_URL>
https://www.surechembl.org/chemical/SCHEMBL16115288

> <PUBCHEM_CID_ASSOCIATIONS>
117605247  1

> <PUBCHEM_COORDINATE_TYPE>
1
3

$$$$
