310930957
  -OEChem-07211613022D

 23 26  0     1  0  0  0  0  0999 V2000
    0.1465   -3.6034    0.0000 Cl  0  0  0  0  0  0  0  0  0  0  0  0
    0.7617   -2.7245    0.0000 O   0  0  0  0  0  0  0  0  0  0  0  0
    2.1972    0.0000    0.0000 O   0  0  0  0  0  0  0  0  0  0  0  0
    2.1972   -2.4901    0.0000 N   0  0  0  0  0  0  0  0  0  0  0  0
    2.6073   -3.7791    0.0000 N   0  0  0  0  0  0  0  0  0  0  0  0
    3.6327   -2.7245    0.0000 N   0  0  0  0  0  0  0  0  0  0  0  0
    1.7870   -3.7791    0.0000 C   0  0  3  0  0  0  0  0  0  0  0  0
    1.5526   -2.9881    0.0000 C   0  0  0  0  0  0  0  0  0  0  0  0
    2.1679   -4.5116    0.0000 C   0  0  0  0  0  0  0  0  0  0  0  0
    1.3183   -4.4236    0.0000 C   0  0  0  0  0  0  0  0  0  0  0  0
    2.8710   -2.9881    0.0000 C   0  0  0  0  0  0  0  0  0  0  0  0
    2.8417   -4.9509    0.0000 C   0  0  0  0  0  0  0  0  0  0  0  0
    2.1093   -5.3318    0.0000 C   0  0  0  0  0  0  0  0  0  0  0  0
    2.1972   -1.6699    0.0000 C   0  0  0  0  0  0  0  0  0  0  0  0
    0.4980   -4.3650    0.0000 C   0  0  0  0  0  0  0  0  0  0  0  0
    1.6405   -5.1853    0.0000 C   0  0  0  0  0  0  0  0  0  0  0  0
    0.0000   -5.0096    0.0000 C   0  0  0  0  0  0  0  0  0  0  0  0
    2.9003   -1.2304    0.0000 C   0  0  0  0  0  0  0  0  0  0  0  0
    1.4941   -1.2304    0.0000 C   0  0  0  0  0  0  0  0  0  0  0  0
    1.1718   -5.8591    0.0000 C   0  0  0  0  0  0  0  0  0  0  0  0
    0.3223   -5.7712    0.0000 C   0  0  0  0  0  0  0  0  0  0  0  0
    2.9003   -0.4394    0.0000 C   0  0  0  0  0  0  0  0  0  0  0  0
    1.4941   -0.4394    0.0000 C   0  0  0  0  0  0  0  0  0  0  0  0
  1 15  1  0  0  0  0
  2  8  2  0  0  0  0
  3 22  1  0  0  0  0
  3 23  1  0  0  0  0
  4  8  1  0  0  0  0
  4 11  1  0  0  0  0
  4 14  1  0  0  0  0
  5  7  1  0  0  0  0
  5 11  1  0  0  0  0
  6 11  2  3  0  0  0
  7  8  1  0  0  0  0
  7  9  1  0  0  0  0
  7 10  1  0  0  0  0
  9 12  1  0  0  0  0
  9 13  1  0  0  0  0
 10 15  1  0  0  0  0
 10 16  2  0  0  0  0
 12 13  1  0  0  0  0
 14 18  1  0  0  0  0
 14 19  1  0  0  0  0
 15 17  2  0  0  0  0
 16 20  1  0  0  0  0
 17 21  1  0  0  0  0
 18 22  1  0  0  0  0
 19 23  1  0  0  0  0
 20 21  2  0  0  0  0
M  END
> <PUBCHEM_COMPOUND_ID_TYPE>
0

> <PUBCHEM_TOTAL_CHARGE>
0

> <PUBCHEM_SUBSTANCE_ID>
310930957

> <PUBCHEM_SUBSTANCE_VERSION>
1

> <PUBCHEM_EXT_DATASOURCE_NAME>
4488

> <PUBCHEM_EXT_DATASOURCE_REGID>
SCHEMBL16108256

> <PUBCHEM_SUBSTANCE_COMMENT>
InChI=1S/C17H20ClN3O2/c18-14-4-2-1-3-13(14)17(11-5-6-11)15(22)21(16(19)20-17)12-7-9-23-10-8-12/h1-4,11-12H,5-10H2,(H2,19,20)
InChIKey=HVQKJOPVHAKKAI-UHFFFAOYSA-N

> <PUBCHEM_SUBSTANCE_SYNONYM>
SCHEMBL16108256

> <PUBCHEM_XREF_EXT_ID>
SCHEMBL16108256

> <PUBCHEM_EXT_DATASOURCE_URL>
https://www.surechembl.org/

> <PUBCHEM_EXT_SUBSTANCE_URL>
https://www.surechembl.org/chemical/SCHEMBL16108256

> <PUBCHEM_CID_ASSOCIATIONS>
86274083  1

> <PUBCHEM_COORDINATE_TYPE>
1
3

$$$$
