310946630
  -OEChem-07211613022D

 40 40  0     1  0  0  0  0  0999 V2000
  -10.7142   -5.7592    0.0000 O   0  0  0  0  0  0  0  0  0  0  0  0
   -6.5587   -8.0632    0.0000 O   0  0  0  0  0  0  0  0  0  0  0  0
   -7.1420   -9.4715    0.0000 O   0  0  0  0  0  0  0  0  0  0  0  0
   -9.2854   -9.8840    0.0000 O   0  0  0  0  0  0  0  0  0  0  0  0
   -9.9998   -4.5217    0.0000 O   0  0  0  0  0  0  0  0  0  0  0  0
   -7.8565   -9.8840    0.0000 O   0  0  0  0  0  0  0  0  0  0  0  0
  -11.4287   -4.5217    0.0000 O   0  0  0  0  0  0  0  0  0  0  0  0
  -10.7142  -13.1839    0.0000 O   0  0  0  0  0  0  0  0  0  0  0  0
   -6.4276   -4.9342    0.0000 O   0  0  0  0  0  0  0  0  0  0  0  0
   -9.9814  -14.4531    0.0000 O   0  5  0  0  0  0  0  0  0  0  0  0
   -9.2487  -13.1839    0.0000 O   0  0  0  0  0  0  0  0  0  0  0  0
   -4.9620   -4.9342    0.0000 O   0  5  0  0  0  0  0  0  0  0  0  0
   -5.6948   -3.6650    0.0000 O   0  0  0  0  0  0  0  0  0  0  0  0
   -8.5709   -8.6466    0.0000 N   0  0  0  0  0  0  0  0  0  0  0  0
   -9.9814  -13.6070    0.0000 N   0  3  0  0  0  0  0  0  0  0  0  0
   -5.6948   -4.5111    0.0000 N   0  3  0  0  0  0  0  0  0  0  0  0
   -7.8565   -8.2341    0.0000 C   0  0  3  0  0  0  0  0  0  0  0  0
   -8.5709   -6.9966    0.0000 C   0  0  0  0  0  0  0  0  0  0  0  0
   -7.8565   -7.4091    0.0000 C   0  0  0  0  0  0  0  0  0  0  0  0
   -9.9998   -6.1716    0.0000 C   0  0  0  0  0  0  0  0  0  0  0  0
   -7.1420   -8.6466    0.0000 C   0  0  0  0  0  0  0  0  0  0  0  0
   -8.5709   -6.1716    0.0000 C   0  0  0  0  0  0  0  0  0  0  0  0
   -9.2854   -7.4091    0.0000 C   0  0  0  0  0  0  0  0  0  0  0  0
   -9.2854   -5.7592    0.0000 C   0  0  0  0  0  0  0  0  0  0  0  0
   -9.9998   -6.9966    0.0000 C   0  0  0  0  0  0  0  0  0  0  0  0
   -8.5709   -9.4715    0.0000 C   0  0  0  0  0  0  0  0  0  0  0  0
  -10.7142   -4.9342    0.0000 C   0  0  0  0  0  0  0  0  0  0  0  0
   -5.7618   -8.2768    0.0000 C   0  0  0  0  0  0  0  0  0  0  0  0
   -9.2854  -10.7090    0.0000 C   0  0  0  0  0  0  0  0  0  0  0  0
   -5.1784   -7.6934    0.0000 C   0  0  0  0  0  0  0  0  0  0  0  0
   -9.2854   -4.9342    0.0000 C   0  0  0  0  0  0  0  0  0  0  0  0
   -9.9998  -11.1215    0.0000 C   0  0  0  0  0  0  0  0  0  0  0  0
   -8.5709   -4.5217    0.0000 C   0  0  0  0  0  0  0  0  0  0  0  0
   -4.3816   -7.9069    0.0000 C   0  0  0  0  0  0  0  0  0  0  0  0
   -9.9998  -11.9465    0.0000 C   0  0  0  0  0  0  0  0  0  0  0  0
   -7.8565   -4.9342    0.0000 C   0  0  0  0  0  0  0  0  0  0  0  0
  -10.7142  -12.3590    0.0000 C   0  0  0  0  0  0  0  0  0  0  0  0
   -3.7982   -7.3236    0.0000 C   0  0  0  0  0  0  0  0  0  0  0  0
   -7.1420   -4.5217    0.0000 C   0  0  0  0  0  0  0  0  0  0  0  0
   -3.0013   -7.5371    0.0000 C   0  0  0  0  0  0  0  0  0  0  0  0
  1 20  1  0  0  0  0
  1 27  1  0  0  0  0
  2 21  1  0  0  0  0
  2 28  1  0  0  0  0
  3 21  2  0  0  0  0
  4 26  1  0  0  0  0
  4 29  1  0  0  0  0
  5 27  1  0  0  0  0
  5 31  1  0  0  0  0
  6 26  2  0  0  0  0
  7 27  2  0  0  0  0
  8 15  1  0  0  0  0
  8 37  1  0  0  0  0
  9 16  1  0  0  0  0
  9 39  1  0  0  0  0
 10 15  1  0  0  0  0
 11 15  2  0  0  0  0
 12 16  1  0  0  0  0
 13 16  2  0  0  0  0
 14 17  1  0  0  0  0
 14 26  1  0  0  0  0
 17 19  1  0  0  0  0
 17 21  1  0  0  0  0
 18 19  1  0  0  0  0
 18 22  2  0  0  0  0
 18 23  1  0  0  0  0
 20 24  2  0  0  0  0
 20 25  1  0  0  0  0
 22 24  1  0  0  0  0
 23 25  2  0  0  0  0
 28 30  1  0  0  0  0
 29 32  1  0  0  0  0
 30 34  1  0  0  0  0
 31 33  1  0  0  0  0
 32 35  1  0  0  0  0
 33 36  1  0  0  0  0
 34 38  1  0  0  0  0
 35 37  1  0  0  0  0
 36 39  1  0  0  0  0
 38 40  1  0  0  0  0
M  CHG  4  10  -1  12  -1  15   1  16   1
M  END
> <PUBCHEM_COMPOUND_ID_TYPE>
0

> <PUBCHEM_TOTAL_CHARGE>
0

> <PUBCHEM_SUBSTANCE_ID>
310946630

> <PUBCHEM_SUBSTANCE_VERSION>
1

> <PUBCHEM_EXT_DATASOURCE_NAME>
4488

> <PUBCHEM_EXT_DATASOURCE_REGID>
SCHEMBL16124751

> <PUBCHEM_SUBSTANCE_COMMENT>
InChI=1S/C24H35N3O13/c1-2-3-4-13-35-22(28)21(25-23(29)36-14-5-7-16-38-26(31)32)18-19-9-11-20(12-10-19)40-24(30)37-15-6-8-17-39-27(33)34/h9-12,21H,2-8,13-18H2,1H3,(H,25,29)
InChIKey=GCKPPSDUTGLXQK-UHFFFAOYSA-N

> <PUBCHEM_SUBSTANCE_SYNONYM>
SCHEMBL16124751

> <PUBCHEM_XREF_EXT_ID>
SCHEMBL16124751

> <PUBCHEM_EXT_DATASOURCE_URL>
https://www.surechembl.org/

> <PUBCHEM_EXT_SUBSTANCE_URL>
https://www.surechembl.org/chemical/SCHEMBL16124751

> <PUBCHEM_CID_ASSOCIATIONS>
117612530  1

> <PUBCHEM_COORDINATE_TYPE>
1
3

$$$$
