310932766
  -OEChem-07211613022D

 33 35  0     1  0  0  0  0  0999 V2000
   -5.7158   -2.8875    0.0000 O   0  0  0  0  0  0  0  0  0  0  0  0
   -6.4302   -4.1250    0.0000 O   0  0  0  0  0  0  0  0  0  0  0  0
  -12.1460   -0.8250    0.0000 O   0  0  0  0  0  0  0  0  0  0  0  0
  -10.7170   -3.3000    0.0000 N   0  0  0  0  0  0  0  0  0  0  0  0
   -9.2881   -3.3000    0.0000 N   0  0  0  0  0  0  0  0  0  0  0  0
   -8.5736   -2.8875    0.0000 N   0  0  0  0  0  0  0  0  0  0  0  0
  -12.8605   -2.0625    0.0000 N   0  0  0  0  0  0  0  0  0  0  0  0
   -7.1447    1.2375    0.0000 N   0  0  0  0  0  0  0  0  0  0  0  0
   -7.1447   -2.8875    0.0000 C   0  0  3  0  0  0  0  0  0  0  0  0
   -7.1447   -2.0625    0.0000 C   0  0  0  0  0  0  0  0  0  0  0  0
   -6.4302   -3.3000    0.0000 C   0  0  0  0  0  0  0  0  0  0  0  0
  -11.4316   -2.0625    0.0000 C   0  0  0  0  0  0  0  0  0  0  0  0
  -10.0026   -2.8875    0.0000 C   0  0  0  0  0  0  0  0  0  0  0  0
   -7.8592   -3.3000    0.0000 C   0  0  0  0  0  0  0  0  0  0  0  0
   -7.8592   -1.6500    0.0000 C   0  0  0  0  0  0  0  0  0  0  0  0
   -6.4302   -1.6500    0.0000 C   0  0  0  0  0  0  0  0  0  0  0  0
  -12.1460   -1.6500    0.0000 C   0  0  0  0  0  0  0  0  0  0  0  0
   -7.1447   -0.4125    0.0000 C   0  0  0  0  0  0  0  0  0  0  0  0
  -11.4316   -2.8875    0.0000 C   0  0  0  0  0  0  0  0  0  0  0  0
  -10.7170   -1.6500    0.0000 C   0  0  0  0  0  0  0  0  0  0  0  0
   -7.8592   -0.8250    0.0000 C   0  0  0  0  0  0  0  0  0  0  0  0
   -6.4302   -0.8250    0.0000 C   0  0  0  0  0  0  0  0  0  0  0  0
  -10.0026   -2.0625    0.0000 C   0  0  0  0  0  0  0  0  0  0  0  0
   -7.1447    0.4125    0.0000 C   0  0  0  0  0  0  0  0  0  0  0  0
  -13.5750   -1.6500    0.0000 C   0  0  0  0  0  0  0  0  0  0  0  0
  -14.2894   -2.0625    0.0000 C   0  0  0  0  0  0  0  0  0  0  0  0
   -5.0013   -3.3000    0.0000 C   0  0  0  0  0  0  0  0  0  0  0  0
  -14.2894   -2.8875    0.0000 C   0  0  0  0  0  0  0  0  0  0  0  0
  -15.0039   -1.6500    0.0000 C   0  0  0  0  0  0  0  0  0  0  0  0
  -15.0039   -3.3000    0.0000 C   0  0  0  0  0  0  0  0  0  0  0  0
  -15.7184   -2.0625    0.0000 C   0  0  0  0  0  0  0  0  0  0  0  0
  -15.7184   -2.8875    0.0000 C   0  0  0  0  0  0  0  0  0  0  0  0
   -4.2868   -2.8875    0.0000 C   0  0  0  0  0  0  0  0  0  0  0  0
  1 11  1  0  0  0  0
  1 27  1  0  0  0  0
  2 11  2  0  0  0  0
  3 17  2  0  0  0  0
  4 13  2  0  0  0  0
  4 19  1  0  0  0  0
  5  6  1  0  0  0  0
  5 13  1  0  0  0  0
  6 14  2  3  0  0  0
  7 17  1  0  0  0  0
  7 25  1  0  0  0  0
  8 24  3  0  0  0  0
  9 10  1  0  0  0  0
  9 11  1  0  0  0  0
  9 14  1  0  0  0  0
 10 15  2  0  0  0  0
 10 16  1  0  0  0  0
 12 17  1  0  0  0  0
 12 19  2  0  0  0  0
 12 20  1  0  0  0  0
 13 23  1  0  0  0  0
 15 21  1  0  0  0  0
 16 22  2  0  0  0  0
 18 21  2  0  0  0  0
 18 22  1  0  0  0  0
 18 24  1  0  0  0  0
 20 23  2  0  0  0  0
 25 26  1  0  0  0  0
 26 28  2  0  0  0  0
 26 29  1  0  0  0  0
 27 33  1  0  0  0  0
 28 30  1  0  0  0  0
 29 31  2  0  0  0  0
 30 32  2  0  0  0  0
 31 32  1  0  0  0  0
M  END
> <PUBCHEM_COMPOUND_ID_TYPE>
0

> <PUBCHEM_TOTAL_CHARGE>
0

> <PUBCHEM_SUBSTANCE_ID>
310932766

> <PUBCHEM_SUBSTANCE_VERSION>
1

> <PUBCHEM_EXT_DATASOURCE_NAME>
4488

> <PUBCHEM_EXT_DATASOURCE_REGID>
SCHEMBL16110152

> <PUBCHEM_SUBSTANCE_COMMENT>
InChI=1S/C25H23N5O3/c1-2-33-25(32)22(20-10-8-18(14-26)9-11-20)17-29-30-23-13-12-21(16-27-23)24(31)28-15-19-6-4-3-5-7-19/h3-13,16-17,22H,2,15H2,1H3,(H,27,30)(H,28,31)/b29-17+
InChIKey=KVDPDBMWRXYKNM-STBIYBPSSA-N

> <PUBCHEM_SUBSTANCE_SYNONYM>
SCHEMBL16110152

> <PUBCHEM_XREF_EXT_ID>
SCHEMBL16110152

> <PUBCHEM_EXT_DATASOURCE_URL>
https://www.surechembl.org/

> <PUBCHEM_EXT_SUBSTANCE_URL>
https://www.surechembl.org/chemical/SCHEMBL16110152

> <PUBCHEM_CID_ASSOCIATIONS>
117601263  1

> <PUBCHEM_COORDINATE_TYPE>
1
3

> <PUBCHEM_BONDANNOTATIONS>
6  14  1

$$$$
