310948530
  -OEChem-07211613022D

 49 52  0     1  0  0  0  0  0999 V2000
    3.5682   -2.6316    0.0000 S   0  0  0  0  0  0  0  0  0  0  0  0
    3.5682    0.2529    0.0000 F   0  0  0  0  0  0  0  0  0  0  0  0
   -4.0364   -3.1561    0.0000 F   0  0  0  0  0  0  0  0  0  0  0  0
   -2.8564   -3.1561    0.0000 F   0  0  0  0  0  0  0  0  0  0  0  0
    3.6993    3.3247    0.0000 F   0  0  0  0  0  0  0  0  0  0  0  0
    2.5754    3.0063    0.0000 F   0  0  0  0  0  0  0  0  0  0  0  0
    3.9615    2.2008    0.0000 F   0  0  0  0  0  0  0  0  0  0  0  0
    2.8564   -3.0437    0.0000 O   0  0  0  0  0  0  0  0  0  0  0  0
    4.2986   -2.2196    0.0000 O   0  0  0  0  0  0  0  0  0  0  0  0
    2.8751    1.9199    0.0000 O   0  0  0  0  0  0  0  0  0  0  0  0
    4.8231   -0.4964    0.0000 O   0  0  0  0  0  0  0  0  0  0  0  0
   -4.8231   -2.2196    0.0000 O   0  0  0  0  0  0  0  0  0  0  0  0
   -0.7212    0.4402    0.0000 N   0  0  0  0  0  0  0  0  0  0  0  0
   -1.5265    0.5151    0.0000 N   0  0  0  0  0  0  0  0  0  0  0  0
   -2.2196   -0.8335    0.0000 N   0  0  0  0  0  0  0  0  0  0  0  0
   -1.7139    1.3205    0.0000 N   0  0  0  0  0  0  0  0  0  0  0  0
   -2.9688   -1.1894    0.0000 N   0  0  0  0  0  0  0  0  0  0  0  0
   -0.1780   -0.4589    0.0000 C   0  0  0  0  0  0  0  0  0  0  0  0
   -0.5713   -1.1894    0.0000 C   0  0  0  0  0  0  0  0  0  0  0  0
    1.0583   -1.1894    0.0000 C   0  0  0  0  0  0  0  0  0  0  0  0
   -0.3465    1.2268    0.0000 C   0  0  0  0  0  0  0  0  0  0  0  0
    1.9199   -1.2081    0.0000 C   0  0  0  0  0  0  0  0  0  0  0  0
    0.6650   -0.5151    0.0000 C   0  0  0  0  0  0  0  0  0  0  0  0
   -1.6389   -1.3580    0.0000 C   0  0  0  0  0  0  0  0  0  0  0  0
    3.1561   -1.9012    0.0000 C   0  0  0  0  0  0  0  0  0  0  0  0
   -0.1592   -1.9012    0.0000 C   0  0  0  0  0  0  0  0  0  0  0  0
    3.5682   -1.1706    0.0000 C   0  0  0  0  0  0  0  0  0  0  0  0
    0.6650   -1.9012    0.0000 C   0  0  0  0  0  0  0  0  0  0  0  0
    2.3133   -1.8825    0.0000 C   0  0  0  0  0  0  0  0  0  0  0  0
    0.4589    1.3954    0.0000 C   0  0  0  0  0  0  0  0  0  0  0  0
    3.1561   -0.4589    0.0000 C   0  0  0  0  0  0  0  0  0  0  0  0
    2.3320   -0.4964    0.0000 C   0  0  0  0  0  0  0  0  0  0  0  0
   -1.0207    1.7326    0.0000 C   0  0  0  0  0  0  0  0  0  0  0  0
   -2.0323   -2.1260    0.0000 C   0  0  0  0  0  0  0  0  0  0  0  0
   -2.8564   -1.9761    0.0000 C   0  0  0  0  0  0  0  0  0  0  0  0
   -3.4371   -2.5754    0.0000 C   0  0  0  0  0  0  0  0  0  0  0  0
    1.0207    0.7960    0.0000 C   0  0  0  0  0  0  0  0  0  0  0  0
    0.7025    2.1634    0.0000 C   0  0  0  0  0  0  0  0  0  0  0  0
    4.4298   -1.1894    0.0000 C   0  0  0  0  0  0  0  0  0  0  0  0
   -4.0364   -1.9949    0.0000 C   0  0  3  0  0  0  0  0  0  0  0  0
    2.0885    1.7700    0.0000 C   0  0  0  0  0  0  0  0  0  0  0  0
    1.8263    0.9833    0.0000 C   0  0  0  0  0  0  0  0  0  0  0  0
    1.5078    2.3506    0.0000 C   0  0  0  0  0  0  0  0  0  0  0  0
    3.9989   -3.3247    0.0000 C   0  0  0  0  0  0  0  0  0  0  0  0
   -2.1073   -0.0281    0.0000 C   0  0  0  0  0  0  0  0  0  0  0  0
   -2.6878   -1.0395    0.0000 C   0  0  0  0  0  0  0  0  0  0  0  0
    3.2873    2.6129    0.0000 C   0  0  0  0  0  0  0  0  0  0  0  0
   -3.9054   -1.5265    0.0000 C   0  0  0  0  0  0  0  0  0  0  0  0
   -3.6806   -0.9084    0.0000 C   0  0  0  0  0  0  0  0  0  0  0  0
  1  8  2  0  0  0  0
  1  9  2  0  0  0  0
  1 25  1  0  0  0  0
  1 44  1  0  0  0  0
  2 31  1  0  0  0  0
  3 36  1  0  0  0  0
  4 36  1  0  0  0  0
  5 47  1  0  0  0  0
  6 47  1  0  0  0  0
  7 47  1  0  0  0  0
 10 41  1  0  0  0  0
 10 47  1  0  0  0  0
 11 39  1  0  0  0  0
 12 40  1  0  0  0  0
 13 14  1  0  0  0  0
 13 18  1  0  0  0  0
 13 21  1  0  0  0  0
 14 16  2  0  0  0  0
 15 24  1  0  0  0  0
 15 45  1  0  0  0  0
 15 46  1  0  0  0  0
 16 33  1  0  0  0  0
 17 35  2  0  0  0  0
 17 49  1  0  0  0  0
 18 19  2  0  0  0  0
 18 23  1  0  0  0  0
 19 24  1  0  0  0  0
 19 26  1  0  0  0  0
 20 22  1  0  0  0  0
 20 23  2  0  0  0  0
 20 28  1  0  0  0  0
 21 30  1  0  0  0  0
 21 33  2  0  0  0  0
 22 29  1  0  0  0  0
 22 32  2  0  0  0  0
 24 34  2  0  0  0  0
 25 27  1  0  0  0  0
 25 29  2  0  0  0  0
 26 28  2  0  0  0  0
 27 31  2  0  0  0  0
 27 39  1  0  0  0  0
 30 37  2  0  0  0  0
 30 38  1  0  0  0  0
 31 32  1  0  0  0  0
 34 35  1  0  0  0  0
 35 36  1  0  0  0  0
 36 40  1  0  0  0  0
 37 42  1  0  0  0  0
 38 43  2  0  0  0  0
 40 48  1  0  0  0  0
 41 42  2  0  0  0  0
 41 43  1  0  0  0  0
M  END
> <PUBCHEM_COMPOUND_ID_TYPE>
0

> <PUBCHEM_TOTAL_CHARGE>
0

> <PUBCHEM_SUBSTANCE_ID>
310948530

> <PUBCHEM_SUBSTANCE_VERSION>
1

> <PUBCHEM_EXT_DATASOURCE_NAME>
4488

> <PUBCHEM_EXT_DATASOURCE_REGID>
SCHEMBL16126712

> <PUBCHEM_SUBSTANCE_COMMENT>
InChI=1S/C32H31F6N5O5S/c1-18(45)31(34,35)30(39-2)15-26(42(3)4)23-11-8-20(21-12-25(33)24(17-44)29(14-21)49(5,46)47)13-27(23)43-28(16-40-41-43)19-6-9-22(10-7-19)48-32(36,37)38/h6-16,18,44-45H,17H2,1-5H3/b26-15-,39-30-
InChIKey=YUKFTRPLONXVOC-VCVNACGVSA-N

> <PUBCHEM_SUBSTANCE_SYNONYM>
SCHEMBL16126712

> <PUBCHEM_XREF_EXT_ID>
SCHEMBL16126712

> <PUBCHEM_EXT_DATASOURCE_URL>
https://www.surechembl.org/

> <PUBCHEM_EXT_SUBSTANCE_URL>
https://www.surechembl.org/chemical/SCHEMBL16126712

> <PUBCHEM_CID_ASSOCIATIONS>
117614087  1

> <PUBCHEM_COORDINATE_TYPE>
1
3

$$$$
