310930280
  -OEChem-07211613022D

 31 35  0     1  0  0  0  0  0999 V2000
    0.0000   -7.3813    0.0000 O   0  0  0  0  0  0  0  0  0  0  0  0
    0.6513   -8.6839    0.0000 O   0  0  0  0  0  0  0  0  0  0  0  0
    5.4709   -3.8643    0.0000 O   0  0  0  0  0  0  0  0  0  0  0  0
    4.3854   -2.9091    0.0000 N   0  0  0  0  0  0  0  0  0  0  0  0
    3.2999   -4.1249    0.0000 N   0  0  3  0  0  0  0  0  0  0  0  0
    1.0421   -0.4342    0.0000 N   0  0  0  0  0  0  0  0  0  0  0  0
    3.9078   -1.2592    0.0000 C   0  0  0  0  0  0  0  0  0  0  0  0
    4.6893   -1.5197    0.0000 C   0  0  3  0  0  0  0  0  0  0  0  0
    3.9078   -0.4342    0.0000 C   0  0  0  0  0  0  0  0  0  0  0  0
    1.3460   -7.3813    0.0000 C   0  0  0  0  0  0  0  0  0  0  0  0
    1.0855   -6.5998    0.0000 C   0  0  0  0  0  0  0  0  0  0  0  0
    4.9498   -2.3013    0.0000 C   0  0  0  0  0  0  0  0  0  0  0  0
    0.6513   -7.8589    0.0000 C   0  0  0  0  0  0  0  0  0  0  0  0
    5.2104   -0.8684    0.0000 C   0  0  0  0  0  0  0  0  0  0  0  0
    4.6893   -0.1737    0.0000 C   0  0  0  0  0  0  0  0  0  0  0  0
    2.4315   -6.1656    0.0000 C   0  0  0  0  0  0  0  0  0  0  0  0
    1.6499   -5.9919    0.0000 C   0  0  0  0  0  0  0  0  0  0  0  0
    3.1696   -1.6934    0.0000 C   0  0  0  0  0  0  0  0  0  0  0  0
    4.6459   -3.6907    0.0000 C   0  0  0  0  0  0  0  0  0  0  0  0
    3.1696    0.0000    0.0000 C   0  0  0  0  0  0  0  0  0  0  0  0
    0.2605   -6.5998    0.0000 C   0  0  0  0  0  0  0  0  0  0  0  0
    2.1710   -7.5550    0.0000 C   0  0  0  0  0  0  0  0  0  0  0  0
    2.4749   -0.4342    0.0000 C   0  0  0  0  0  0  0  0  0  0  0  0
    2.6920   -6.9906    0.0000 C   0  0  0  0  0  0  0  0  0  0  0  0
    3.6038   -2.7354    0.0000 C   0  0  0  0  0  0  0  0  0  0  0  0
    4.0814   -4.2986    0.0000 C   0  0  0  0  0  0  0  0  0  0  0  0
    2.4749   -1.2592    0.0000 C   0  0  0  0  0  0  0  0  0  0  0  0
    2.9959   -5.5577    0.0000 C   0  0  0  0  0  0  0  0  0  0  0  0
    3.0394   -3.3433    0.0000 C   0  0  0  0  0  0  0  0  0  0  0  0
    2.7354   -4.7328    0.0000 C   0  0  0  0  0  0  0  0  0  0  0  0
    1.7802    0.0000    0.0000 C   0  0  0  0  0  0  0  0  0  0  0  0
  1 13  1  0  0  0  0
  1 21  1  0  0  0  0
  2 13  2  0  0  0  0
  3 19  2  0  0  0  0
  4 12  1  0  0  0  0
  4 19  1  0  0  0  0
  4 25  1  0  0  0  0
  5 26  1  0  0  0  0
  5 29  1  0  0  0  0
  5 30  1  0  0  0  0
  6 31  3  0  0  0  0
  7  8  1  0  0  0  0
  7  9  2  0  0  0  0
  7 18  1  0  0  0  0
  8 12  1  0  0  0  0
  8 14  1  0  0  0  0
  9 15  1  0  0  0  0
  9 20  1  0  0  0  0
 10 11  2  0  0  0  0
 10 13  1  0  0  0  0
 10 22  1  0  0  0  0
 11 17  1  0  0  0  0
 11 21  1  0  0  0  0
 14 15  1  0  0  0  0
 16 17  2  0  0  0  0
 16 24  1  0  0  0  0
 16 28  1  0  0  0  0
 18 27  2  0  0  0  0
 19 26  1  0  0  0  0
 20 23  2  0  0  0  0
 22 24  2  0  0  0  0
 23 27  1  0  0  0  0
 23 31  1  0  0  0  0
 25 29  1  0  0  0  0
 28 30  1  0  0  0  0
M  END
> <PUBCHEM_COMPOUND_ID_TYPE>
0

> <PUBCHEM_TOTAL_CHARGE>
0

> <PUBCHEM_SUBSTANCE_ID>
310930280

> <PUBCHEM_SUBSTANCE_VERSION>
1

> <PUBCHEM_EXT_DATASOURCE_NAME>
4488

> <PUBCHEM_EXT_DATASOURCE_REGID>
SCHEMBL16107558

> <PUBCHEM_SUBSTANCE_COMMENT>
InChI=1S/C25H25N3O3/c26-13-18-2-5-22-19(12-18)3-4-20(22)14-28-10-9-27(15-24(28)29)8-7-17-1-6-23-21(11-17)16-31-25(23)30/h1-2,5-6,11-12,20H,3-4,7-10,14-16H2
InChIKey=UIMLDNBFIKAJJN-UHFFFAOYSA-N

> <PUBCHEM_SUBSTANCE_SYNONYM>
SCHEMBL16107558

> <PUBCHEM_XREF_EXT_ID>
SCHEMBL16107558

> <PUBCHEM_EXT_DATASOURCE_URL>
https://www.surechembl.org/

> <PUBCHEM_EXT_SUBSTANCE_URL>
https://www.surechembl.org/chemical/SCHEMBL16107558

> <PUBCHEM_CID_ASSOCIATIONS>
117599462  1

> <PUBCHEM_COORDINATE_TYPE>
1
3

$$$$
