310947225
  -OEChem-07211613022D

 23 24  0     1  0  0  0  0  0999 V2000
   -0.9203    8.8803    0.0000 F   0  0  0  0  0  0  0  0  0  0  0  0
    0.0901    7.8699    0.0000 F   0  0  0  0  0  0  0  0  0  0  0  0
   -0.1234    8.6668    0.0000 F   0  0  0  0  0  0  0  0  0  0  0  0
   -3.0402    5.7500    0.0000 O   0  0  0  0  0  0  0  0  0  0  0  0
   -1.9314    4.6555    0.0000 N   0  0  0  0  0  0  0  0  0  0  0  0
   -1.4465    3.9881    0.0000 N   0  0  0  0  0  0  0  0  0  0  0  0
    0.7671    5.0680    0.0000 N   0  0  3  0  0  0  0  0  0  0  0  0
   -1.6600    6.1198    0.0000 C   0  0  0  0  0  0  0  0  0  0  0  0
   -1.4465    5.3229    0.0000 C   0  0  0  0  0  0  0  0  0  0  0  0
   -1.2902    7.5001    0.0000 C   0  0  0  0  0  0  0  0  0  0  0  0
   -2.4569    6.3334    0.0000 C   0  0  0  0  0  0  0  0  0  0  0  0
   -0.6618    5.0680    0.0000 C   0  0  0  0  0  0  0  0  0  0  0  0
   -1.0766    6.7032    0.0000 C   0  0  0  0  0  0  0  0  0  0  0  0
   -0.7068    8.0834    0.0000 C   0  0  0  0  0  0  0  0  0  0  0  0
   -2.0870    7.7136    0.0000 C   0  0  0  0  0  0  0  0  0  0  0  0
   -2.6704    7.1302    0.0000 C   0  0  0  0  0  0  0  0  0  0  0  0
   -0.6618    4.2430    0.0000 C   0  0  0  0  0  0  0  0  0  0  0  0
    0.0526    5.4805    0.0000 C   0  0  0  0  0  0  0  0  0  0  0  0
   -2.8267    4.9531    0.0000 C   0  0  0  0  0  0  0  0  0  0  0  0
    1.4816    5.4805    0.0000 C   0  0  0  0  0  0  0  0  0  0  0  0
    0.7671    4.2430    0.0000 C   0  0  0  0  0  0  0  0  0  0  0  0
    2.1960    5.0680    0.0000 C   0  0  0  0  0  0  0  0  0  0  0  0
    2.9105    5.4805    0.0000 C   0  0  0  0  0  0  0  0  0  0  0  0
  1 14  1  0  0  0  0
  2 14  1  0  0  0  0
  3 14  1  0  0  0  0
  4 11  1  0  0  0  0
  4 19  1  0  0  0  0
  5  6  1  0  0  0  0
  5  9  2  0  0  0  0
  6 17  1  0  0  0  0
  7 18  1  0  0  0  0
  7 20  1  0  0  0  0
  7 21  1  0  0  0  0
  8  9  1  0  0  0  0
  8 11  2  0  0  0  0
  8 13  1  0  0  0  0
  9 12  1  0  0  0  0
 10 13  2  0  0  0  0
 10 14  1  0  0  0  0
 10 15  1  0  0  0  0
 11 16  1  0  0  0  0
 12 17  2  0  0  0  0
 12 18  1  0  0  0  0
 15 16  2  0  0  0  0
 20 22  1  0  0  0  0
 22 23  1  0  0  0  0
M  END
> <PUBCHEM_COMPOUND_ID_TYPE>
0

> <PUBCHEM_TOTAL_CHARGE>
0

> <PUBCHEM_SUBSTANCE_ID>
310947225

> <PUBCHEM_SUBSTANCE_VERSION>
1

> <PUBCHEM_EXT_DATASOURCE_NAME>
4488

> <PUBCHEM_EXT_DATASOURCE_REGID>
SCHEMBL16125380

> <PUBCHEM_SUBSTANCE_COMMENT>
InChI=1S/C16H20F3N3O/c1-4-7-22(2)10-11-9-20-21-15(11)13-8-12(16(17,18)19)5-6-14(13)23-3/h5-6,8-9H,4,7,10H2,1-3H3,(H,20,21)
InChIKey=ZFQXJSHMKUGSQE-UHFFFAOYSA-N

> <PUBCHEM_SUBSTANCE_SYNONYM>
SCHEMBL16125380

> <PUBCHEM_XREF_EXT_ID>
SCHEMBL16125380

> <PUBCHEM_EXT_DATASOURCE_URL>
https://www.surechembl.org/

> <PUBCHEM_EXT_SUBSTANCE_URL>
https://www.surechembl.org/chemical/SCHEMBL16125380

> <PUBCHEM_CID_ASSOCIATIONS>
117613040  1

> <PUBCHEM_COORDINATE_TYPE>
1
3

$$$$
