310946410
  -OEChem-07211613022D

 12 11  0     1  0  0  0  0  0999 V2000
   -1.0717   -3.3548    0.0000 O   0  0  0  0  0  0  0  0  0  0  0  0
   -1.7862   -2.1173    0.0000 O   0  0  0  0  0  0  0  0  0  0  0  0
   -1.7862   -4.5923    0.0000 O   0  0  0  0  0  0  0  0  0  0  0  0
   -3.2151   -2.9423    0.0000 N   0  0  0  0  0  0  0  0  0  0  0  0
   -1.7862   -2.9423    0.0000 C   0  0  0  0  0  0  0  0  0  0  0  0
   -2.5006   -3.3548    0.0000 C   0  0  3  0  0  0  0  0  0  0  0  0
   -2.5006   -4.1798    0.0000 C   0  0  0  0  0  0  0  0  0  0  0  0
   -0.3572   -2.9423    0.0000 C   0  0  0  0  0  0  0  0  0  0  0  0
    0.3572   -3.3548    0.0000 C   0  0  0  0  0  0  0  0  0  0  0  0
    1.0717   -2.9423    0.0000 C   0  0  0  0  0  0  0  0  0  0  0  0
    1.7862   -3.3548    0.0000 C   0  0  0  0  0  0  0  0  0  0  0  0
    2.5006   -2.9423    0.0000 C   0  0  0  0  0  0  0  0  0  0  0  0
  1  5  1  0  0  0  0
  1  8  1  0  0  0  0
  2  5  2  0  0  0  0
  3  7  1  0  0  0  0
  4  6  1  0  0  0  0
  5  6  1  0  0  0  0
  6  7  1  0  0  0  0
  8  9  1  0  0  0  0
  9 10  1  0  0  0  0
 10 11  1  0  0  0  0
 11 12  1  0  0  0  0
M  END
> <PUBCHEM_COMPOUND_ID_TYPE>
0

> <PUBCHEM_TOTAL_CHARGE>
0

> <PUBCHEM_SUBSTANCE_ID>
310946410

> <PUBCHEM_SUBSTANCE_VERSION>
1

> <PUBCHEM_EXT_DATASOURCE_NAME>
4488

> <PUBCHEM_EXT_DATASOURCE_REGID>
SCHEMBL16124531

> <PUBCHEM_SUBSTANCE_COMMENT>
InChI=1S/C8H17NO3/c1-2-3-4-5-12-8(11)7(9)6-10/h7,10H,2-6,9H2,1H3
InChIKey=CITYCTKDKGHBFR-UHFFFAOYSA-N

> <PUBCHEM_SUBSTANCE_SYNONYM>
SCHEMBL16124531

> <PUBCHEM_XREF_EXT_ID>
SCHEMBL16124531

> <PUBCHEM_EXT_DATASOURCE_URL>
https://www.surechembl.org/

> <PUBCHEM_EXT_SUBSTANCE_URL>
https://www.surechembl.org/chemical/SCHEMBL16124531

> <PUBCHEM_CID_ASSOCIATIONS>
61301930  1

> <PUBCHEM_COORDINATE_TYPE>
1
3

$$$$
