310935144
  -OEChem-07211613022D

 26 29  0     1  0  0  0  0  0999 V2000
    6.3406   -0.6539    0.0000 F   0  0  0  0  0  0  0  0  0  0  0  0
    5.1748   -2.9286    0.0000 O   0  0  0  0  0  0  0  0  0  0  0  0
    5.1748   -1.4785    0.0000 O   0  0  0  0  0  0  0  0  0  0  0  0
    0.0000   -4.5208    0.0000 N   0  0  0  0  0  0  0  0  0  0  0  0
    3.9522   -2.1893    0.0000 C   0  0  3  0  0  0  0  0  0  0  0  0
    4.3218   -1.4785    0.0000 C   0  0  0  0  0  0  0  0  0  0  0  0
    3.4688   -2.8717    0.0000 C   0  0  0  0  0  0  0  0  0  0  0  0
    2.6727   -2.6158    0.0000 C   0  0  0  0  0  0  0  0  0  0  0  0
    3.4688   -1.5353    0.0000 C   0  0  0  0  0  0  0  0  0  0  0  0
    4.7767   -2.1893    0.0000 C   0  0  0  0  0  0  0  0  0  0  0  0
    5.3169   -1.5922    0.0000 C   0  0  0  0  0  0  0  0  0  0  0  0
    2.0187   -3.0992    0.0000 C   0  0  0  0  0  0  0  0  0  0  0  0
    2.6727   -1.7913    0.0000 C   0  0  0  0  0  0  0  0  0  0  0  0
    3.8668   -0.7677    0.0000 C   0  0  0  0  0  0  0  0  0  0  0  0
    5.5160   -0.6824    0.0000 C   0  0  0  0  0  0  0  0  0  0  0  0
    2.0756   -3.9237    0.0000 C   0  0  0  0  0  0  0  0  0  0  0  0
    1.4217   -4.3787    0.0000 C   0  0  0  0  0  0  0  0  0  0  0  0
    1.2510   -2.7580    0.0000 C   0  0  0  0  0  0  0  0  0  0  0  0
    0.6824   -4.0375    0.0000 C   0  0  0  0  0  0  0  0  0  0  0  0
    4.2650   -0.0284    0.0000 C   0  0  0  0  0  0  0  0  0  0  0  0
    5.0895    0.0000    0.0000 C   0  0  0  0  0  0  0  0  0  0  0  0
    0.5971   -3.2413    0.0000 C   0  0  0  0  0  0  0  0  0  0  0  0
    5.6013   -2.1040    0.0000 C   0  0  0  0  0  0  0  0  0  0  0  0
    1.5069   -5.2032    0.0000 C   0  0  0  0  0  0  0  0  0  0  0  0
    0.8246   -5.6866    0.0000 C   0  0  0  0  0  0  0  0  0  0  0  0
    0.0853   -5.3454    0.0000 C   0  0  0  0  0  0  0  0  0  0  0  0
  1 15  1  0  0  0  0
  2 10  2  0  0  0  0
  3 10  1  0  0  0  0
  4 19  2  0  0  0  0
  4 26  1  0  0  0  0
  5  6  1  0  0  0  0
  5  7  1  0  0  0  0
  5  9  1  0  0  0  0
  5 10  1  0  0  0  0
  6 11  1  0  0  0  0
  6 14  2  0  0  0  0
  7  8  2  0  0  0  0
  8 12  1  0  0  0  0
  8 13  1  0  0  0  0
  9 13  1  0  0  0  0
 11 15  2  0  0  0  0
 11 23  1  0  0  0  0
 12 16  2  0  0  0  0
 12 18  1  0  0  0  0
 14 20  1  0  0  0  0
 15 21  1  0  0  0  0
 16 17  1  0  0  0  0
 17 19  1  0  0  0  0
 17 24  2  0  0  0  0
 18 22  2  0  0  0  0
 19 22  1  0  0  0  0
 20 21  2  0  0  0  0
 24 25  1  0  0  0  0
 25 26  2  0  0  0  0
M  END
> <PUBCHEM_COMPOUND_ID_TYPE>
0

> <PUBCHEM_TOTAL_CHARGE>
0

> <PUBCHEM_SUBSTANCE_ID>
310935144

> <PUBCHEM_SUBSTANCE_VERSION>
1

> <PUBCHEM_EXT_DATASOURCE_NAME>
4488

> <PUBCHEM_EXT_DATASOURCE_REGID>
SCHEMBL16112671

> <PUBCHEM_SUBSTANCE_COMMENT>
InChI=1S/C22H18FNO2/c1-14-18(5-2-6-19(14)23)22(21(25)26)10-9-17(13-22)15-7-8-20-16(12-15)4-3-11-24-20/h2-8,11-13H,9-10H2,1H3,(H,25,26)
InChIKey=FGLBRJYAQHOPKR-UHFFFAOYSA-N

> <PUBCHEM_SUBSTANCE_SYNONYM>
SCHEMBL16112671

> <PUBCHEM_XREF_EXT_ID>
SCHEMBL16112671

> <PUBCHEM_EXT_DATASOURCE_URL>
https://www.surechembl.org/

> <PUBCHEM_EXT_SUBSTANCE_URL>
https://www.surechembl.org/chemical/SCHEMBL16112671

> <PUBCHEM_CID_ASSOCIATIONS>
117603231  1

> <PUBCHEM_COORDINATE_TYPE>
1
3

$$$$
