310944707
  -OEChem-07211613022D

 34 36  0     1  0  0  0  0  0999 V2000
   -2.9364   -0.8531    0.0000 Cl  0  0  0  0  0  0  0  0  0  0  0  0
   -2.0463    2.0277    0.0000 Cl  0  0  0  0  0  0  0  0  0  0  0  0
   -5.0754    0.3833    0.0000 Cl  0  0  0  0  0  0  0  0  0  0  0  0
    0.0804   -0.8531    0.0000 O   0  0  0  0  0  0  0  0  0  0  0  0
    1.5022    1.6197    0.0000 O   0  0  0  0  0  0  0  0  0  0  0  0
    5.0754   -0.4327    0.0000 O   0  0  0  0  0  0  0  0  0  0  0  0
    4.3583    1.6197    0.0000 O   0  0  0  0  0  0  0  0  0  0  0  0
    2.2441    0.3833    0.0000 N   0  0  0  0  0  0  0  0  0  0  0  0
    0.0927    0.8037    0.0000 N   0  0  0  0  0  0  0  0  0  0  0  0
    3.6659   -0.4327    0.0000 N   0  0  0  0  0  0  0  0  0  0  0  0
   -2.0463    0.3956    0.0000 C   0  0  0  0  0  0  0  0  0  0  0  0
   -2.7757    0.8037    0.0000 C   0  0  0  0  0  0  0  0  0  0  0  0
   -0.6244    0.3956    0.0000 C   0  0  0  0  0  0  0  0  0  0  0  0
   -2.0463   -0.4327    0.0000 C   0  0  0  0  0  0  0  0  0  0  0  0
   -0.6244   -0.4327    0.0000 C   0  0  0  0  0  0  0  0  0  0  0  0
   -1.3415    0.7913    0.0000 C   0  0  0  0  0  0  0  0  0  0  0  0
   -2.7633    1.6320    0.0000 C   0  0  0  0  0  0  0  0  0  0  0  0
   -1.3291   -0.8408    0.0000 C   0  0  0  0  0  0  0  0  0  0  0  0
    2.9364    0.8037    0.0000 C   0  0  3  0  0  0  0  0  0  0  0  0
   -3.4681    0.3956    0.0000 C   0  0  0  0  0  0  0  0  0  0  0  0
    1.5145    0.7913    0.0000 C   0  0  0  0  0  0  0  0  0  0  0  0
   -4.1975    0.8037    0.0000 C   0  0  0  0  0  0  0  0  0  0  0  0
    0.8222    0.3956    0.0000 C   0  0  0  0  0  0  0  0  0  0  0  0
    3.6659    0.3833    0.0000 C   0  0  0  0  0  0  0  0  0  0  0  0
    2.2317   -0.4327    0.0000 C   0  0  0  0  0  0  0  0  0  0  0  0
   -3.4681    2.0277    0.0000 C   0  0  0  0  0  0  0  0  0  0  0  0
    2.9611   -0.8408    0.0000 C   0  0  0  0  0  0  0  0  0  0  0  0
   -4.1851    1.6197    0.0000 C   0  0  0  0  0  0  0  0  0  0  0  0
    4.3583   -0.8531    0.0000 C   0  0  0  0  0  0  0  0  0  0  0  0
    2.9611    1.6320    0.0000 C   0  0  0  0  0  0  0  0  0  0  0  0
    4.3707   -1.6814    0.0000 C   0  0  0  0  0  0  0  0  0  0  0  0
    0.7975   -0.4327    0.0000 C   0  0  0  0  0  0  0  0  0  0  0  0
    3.6659    2.0401    0.0000 C   0  0  0  0  0  0  0  0  0  0  0  0
    3.6412   -2.0401    0.0000 C   0  0  0  0  0  0  0  0  0  0  0  0
  1 14  1  0  0  0  0
  2 17  1  0  0  0  0
  3 22  1  0  0  0  0
  4 15  1  0  0  0  0
  4 32  1  0  0  0  0
  5 21  2  0  0  0  0
  6 29  2  0  0  0  0
  7 33  1  0  0  0  0
  8 19  1  0  0  0  0
  8 21  1  0  0  0  0
  8 25  1  0  0  0  0
  9 13  1  0  0  0  0
  9 23  1  0  0  0  0
 10 24  1  0  0  0  0
 10 27  1  0  0  0  0
 10 29  1  0  0  0  0
 11 12  1  0  0  0  0
 11 14  2  0  0  0  0
 11 16  1  0  0  0  0
 12 17  1  0  0  0  0
 12 20  2  0  0  0  0
 13 15  1  0  0  0  0
 13 16  2  0  0  0  0
 14 18  1  0  0  0  0
 15 18  2  0  0  0  0
 17 26  2  0  0  0  0
 19 24  1  0  0  0  0
 19 30  1  0  0  0  0
 20 22  1  0  0  0  0
 21 23  1  0  0  0  0
 22 28  2  0  0  0  0
 25 27  1  0  0  0  0
 26 28  1  0  0  0  0
 29 31  1  0  0  0  0
 30 33  1  0  0  0  0
 31 34  2  0  0  0  0
M  END
> <PUBCHEM_COMPOUND_ID_TYPE>
0

> <PUBCHEM_TOTAL_CHARGE>
0

> <PUBCHEM_SUBSTANCE_ID>
310944707

> <PUBCHEM_SUBSTANCE_VERSION>
1

> <PUBCHEM_EXT_DATASOURCE_NAME>
4488

> <PUBCHEM_EXT_DATASOURCE_REGID>
SCHEMBL16122786

> <PUBCHEM_SUBSTANCE_COMMENT>
InChI=1S/C24H26Cl3N3O4/c1-3-23(32)29-7-8-30(16(14-29)6-9-31)24(33)13-28-21-11-18(20(27)12-22(21)34-2)17-10-15(25)4-5-19(17)26/h3-5,10-12,16,28,31H,1,6-9,13-14H2,2H3
InChIKey=ANFUCNCIPOHXGB-UHFFFAOYSA-N

> <PUBCHEM_SUBSTANCE_SYNONYM>
SCHEMBL16122786

> <PUBCHEM_XREF_EXT_ID>
SCHEMBL16122786

> <PUBCHEM_EXT_DATASOURCE_URL>
https://www.surechembl.org/

> <PUBCHEM_EXT_SUBSTANCE_URL>
https://www.surechembl.org/chemical/SCHEMBL16122786

> <PUBCHEM_CID_ASSOCIATIONS>
117610929  1

> <PUBCHEM_COORDINATE_TYPE>
1
3

$$$$
