310946933
  -OEChem-07211613022D

 23 26  0     1  0  0  0  0  0999 V2000
   -0.6336    0.4125    0.0000 N   0  0  3  0  0  0  0  0  0  0  0  0
    1.3504   -1.2375    0.0000 N   0  0  0  0  0  0  0  0  0  0  0  0
    0.8655   -1.9049    0.0000 N   0  0  0  0  0  0  0  0  0  0  0  0
   -1.3481   -0.8250    0.0000 N   0  0  0  0  0  0  0  0  0  0  0  0
    0.0808   -0.8250    0.0000 C   0  0  0  0  0  0  0  0  0  0  0  0
    0.8655   -0.5701    0.0000 C   0  0  0  0  0  0  0  0  0  0  0  0
   -0.6336   -0.4125    0.0000 C   0  0  0  0  0  0  0  0  0  0  0  0
    0.0808   -1.6500    0.0000 C   0  0  0  0  0  0  0  0  0  0  0  0
    1.2780    0.1444    0.0000 C   0  0  0  0  0  0  0  0  0  0  0  0
   -0.6336   -2.0625    0.0000 C   0  0  0  0  0  0  0  0  0  0  0  0
   -1.3481    0.8250    0.0000 C   0  0  0  0  0  0  0  0  0  0  0  0
    2.0626    0.3993    0.0000 C   0  0  0  0  0  0  0  0  0  0  0  0
   -1.3481   -1.6500    0.0000 C   0  0  0  0  0  0  0  0  0  0  0  0
    0.7930    0.8118    0.0000 C   0  0  0  0  0  0  0  0  0  0  0  0
    2.0626    1.2243    0.0000 C   0  0  3  0  0  0  0  0  0  0  0  0
    1.2780    1.4793    0.0000 C   0  0  0  0  0  0  0  0  0  0  0  0
    0.0808    0.8250    0.0000 C   0  0  0  0  0  0  0  0  0  0  0  0
   -1.3481    1.6500    0.0000 C   0  0  0  0  0  0  0  0  0  0  0  0
   -2.0626    0.4125    0.0000 C   0  0  0  0  0  0  0  0  0  0  0  0
   -2.7770    0.8250    0.0000 C   0  0  0  0  0  0  0  0  0  0  0  0
   -2.0626    2.0625    0.0000 C   0  0  0  0  0  0  0  0  0  0  0  0
    2.7770    1.6368    0.0000 C   0  0  0  0  0  0  0  0  0  0  0  0
   -2.7770    1.6500    0.0000 C   0  0  0  0  0  0  0  0  0  0  0  0
  1  7  1  0  0  0  0
  1 11  1  0  0  0  0
  1 17  1  0  0  0  0
  2  3  1  0  0  0  0
  2  6  2  0  0  0  0
  3  8  1  0  0  0  0
  4  7  1  0  0  0  0
  4 13  2  0  0  0  0
  5  6  1  0  0  0  0
  5  7  2  0  0  0  0
  5  8  1  0  0  0  0
  6  9  1  0  0  0  0
  8 10  2  0  0  0  0
  9 12  2  0  0  0  0
  9 14  1  0  0  0  0
 10 13  1  0  0  0  0
 11 18  1  0  0  0  0
 11 19  1  0  0  0  0
 12 15  1  0  0  0  0
 14 16  2  0  0  0  0
 15 16  1  0  0  0  0
 15 22  1  0  0  0  0
 18 21  1  0  0  0  0
 19 20  1  0  0  0  0
 20 23  1  0  0  0  0
 21 23  1  0  0  0  0
M  END
> <PUBCHEM_COMPOUND_ID_TYPE>
0

> <PUBCHEM_TOTAL_CHARGE>
0

> <PUBCHEM_SUBSTANCE_ID>
310946933

> <PUBCHEM_SUBSTANCE_VERSION>
1

> <PUBCHEM_EXT_DATASOURCE_NAME>
4488

> <PUBCHEM_EXT_DATASOURCE_REGID>
SCHEMBL16125058

> <PUBCHEM_SUBSTANCE_COMMENT>
InChI=1S/C19H24N4/c1-13-8-9-14(12-13)18-17-16(21-22-18)10-11-20-19(17)23(2)15-6-4-3-5-7-15/h8-13,15H,3-7H2,1-2H3,(H,21,22)
InChIKey=AXTLBFYYVWPGMO-UHFFFAOYSA-N

> <PUBCHEM_SUBSTANCE_SYNONYM>
SCHEMBL16125058

> <PUBCHEM_XREF_EXT_ID>
SCHEMBL16125058

> <PUBCHEM_EXT_DATASOURCE_URL>
https://www.surechembl.org/

> <PUBCHEM_EXT_SUBSTANCE_URL>
https://www.surechembl.org/chemical/SCHEMBL16125058

> <PUBCHEM_CID_ASSOCIATIONS>
117612789  1

> <PUBCHEM_COORDINATE_TYPE>
1
3

$$$$
