310942363
  -OEChem-07211613022D

 31 33  0     1  0  0  0  0  0999 V2000
    3.3374    1.4470    0.0000 S   0  0  0  0  0  0  0  0  0  0  0  0
    0.0968   -2.2012    0.0000 O   0  0  0  0  0  0  0  0  0  0  0  0
   -1.3298    0.2649    0.0000 O   0  0  0  0  0  0  0  0  0  0  0  0
    2.6241    1.8649    0.0000 O   0  0  0  0  0  0  0  0  0  0  0  0
    3.5514    2.2521    0.0000 O   0  0  0  0  0  0  0  0  0  0  0  0
   -2.7463   -2.2012    0.0000 O   0  0  0  0  0  0  0  0  0  0  0  0
    2.1145   -0.6828    0.0000 N   0  0  0  0  0  0  0  0  0  0  0  0
    2.9196   -0.8560    0.0000 N   0  0  0  0  0  0  0  0  0  0  0  0
    2.9298    0.7439    0.0000 N   0  0  0  0  0  0  0  0  0  0  0  0
   -0.6165   -0.9681    0.0000 N   0  0  0  0  0  0  0  0  0  0  0  0
   -3.4597   -0.9681    0.0000 N   0  0  0  0  0  0  0  0  0  0  0  0
    1.7069    0.0203    0.0000 C   0  0  0  0  0  0  0  0  0  0  0  0
    0.8101   -0.9579    0.0000 C   0  0  0  0  0  0  0  0  0  0  0  0
    1.5642   -1.3044    0.0000 C   0  0  0  0  0  0  0  0  0  0  0  0
    0.9121   -0.1426    0.0000 C   0  0  0  0  0  0  0  0  0  0  0  0
    2.1145    0.7439    0.0000 C   0  0  3  0  0  0  0  0  0  0  0  0
    0.1070   -1.3554    0.0000 C   0  0  0  0  0  0  0  0  0  0  0  0
    1.8190   -2.0789    0.0000 C   0  0  0  0  0  0  0  0  0  0  0  0
    0.2802    0.4076    0.0000 C   0  0  0  0  0  0  0  0  0  0  0  0
    3.1744   -1.6407    0.0000 C   0  0  0  0  0  0  0  0  0  0  0  0
    2.6241   -2.2521    0.0000 C   0  0  0  0  0  0  0  0  0  0  0  0
   -2.0432   -0.9681    0.0000 C   0  0  0  0  0  0  0  0  0  0  0  0
   -1.3095   -1.3757    0.0000 C   0  0  0  0  0  0  0  0  0  0  0  0
    1.6865    1.4572    0.0000 C   0  0  0  0  0  0  0  0  0  0  0  0
   -2.0331   -0.1426    0.0000 C   0  0  0  0  0  0  0  0  0  0  0  0
   -2.7463   -1.3554    0.0000 C   0  0  0  0  0  0  0  0  0  0  0  0
   -2.7565    0.2649    0.0000 C   0  0  0  0  0  0  0  0  0  0  0  0
   -3.4495   -0.1426    0.0000 C   0  0  0  0  0  0  0  0  0  0  0  0
    4.1832    1.4369    0.0000 C   0  0  0  0  0  0  0  0  0  0  0  0
   -4.1832    0.2751    0.0000 C   0  0  0  0  0  0  0  0  0  0  0  0
   -1.3095    1.1108    0.0000 C   0  0  0  0  0  0  0  0  0  0  0  0
  1  4  2  0  0  0  0
  1  5  2  0  0  0  0
  1  9  1  0  0  0  0
  1 29  1  0  0  0  0
  2 17  2  0  0  0  0
  3 25  1  0  0  0  0
  3 31  1  0  0  0  0
  6 26  2  0  0  0  0
  7  8  1  0  0  0  0
  7 12  1  0  0  0  0
  7 14  1  0  0  0  0
  8 20  2  0  0  0  0
  9 16  1  0  0  0  0
 10 17  1  0  0  0  0
 10 23  1  0  0  0  0
 11 26  1  0  0  0  0
 11 28  1  0  0  0  0
 12 15  2  0  0  0  0
 12 16  1  0  0  0  0
 13 14  2  0  0  0  0
 13 15  1  0  0  0  0
 13 17  1  0  0  0  0
 14 18  1  0  0  0  0
 15 19  1  0  0  0  0
 16 24  1  0  0  0  0
 18 21  2  0  0  0  0
 20 21  1  0  0  0  0
 22 23  1  0  0  0  0
 22 25  2  0  0  0  0
 22 26  1  0  0  0  0
 25 27  1  0  0  0  0
 27 28  2  0  0  0  0
 28 30  1  0  0  0  0
M  END
> <PUBCHEM_COMPOUND_ID_TYPE>
0

> <PUBCHEM_TOTAL_CHARGE>
0

> <PUBCHEM_SUBSTANCE_ID>
310942363

> <PUBCHEM_SUBSTANCE_VERSION>
1

> <PUBCHEM_EXT_DATASOURCE_NAME>
4488

> <PUBCHEM_EXT_DATASOURCE_REGID>
SCHEMBL16120399

> <PUBCHEM_SUBSTANCE_COMMENT>
InChI=1S/C20H25N5O5S/c1-11-9-16(30-4)14(19(26)23-11)10-21-20(27)17-12(2)18(13(3)24-31(5,28)29)25-15(17)7-6-8-22-25/h6-9,13,24H,10H2,1-5H3,(H,21,27)(H,23,26)
InChIKey=ROMHXGIQOFFTGV-UHFFFAOYSA-N

> <PUBCHEM_SUBSTANCE_SYNONYM>
SCHEMBL16120399

> <PUBCHEM_XREF_EXT_ID>
SCHEMBL16120399

> <PUBCHEM_EXT_DATASOURCE_URL>
https://www.surechembl.org/

> <PUBCHEM_EXT_SUBSTANCE_URL>
https://www.surechembl.org/chemical/SCHEMBL16120399

> <PUBCHEM_CID_ASSOCIATIONS>
86299761  1

> <PUBCHEM_COORDINATE_TYPE>
1
3

$$$$
