310949171
  -OEChem-07211613022D

 34 38  0     1  0  0  0  0  0999 V2000
   -2.9144   -0.0206    0.0000 O   0  0  0  0  0  0  0  0  0  0  0  0
   -2.3920   -1.2716    0.0000 O   0  0  0  0  0  0  0  0  0  0  0  0
    2.8044   -0.3918    0.0000 O   0  0  0  0  0  0  0  0  0  0  0  0
    2.1995   -1.6565    0.0000 O   0  0  0  0  0  0  0  0  0  0  0  0
    0.0550   -0.1856    0.0000 C   0  0  3  0  0  0  0  0  0  0  0  0
   -0.7560    0.0206    0.0000 C   0  0  3  0  0  0  0  0  0  0  0  0
    0.4399    0.5293    0.0000 C   0  0  3  0  0  0  0  0  0  0  0  0
   -0.3162    0.7491    0.0000 C   0  0  3  0  0  0  0  0  0  0  0  0
   -1.5260   -0.1856    0.0000 C   0  0  3  0  0  0  0  0  0  0  0  0
   -0.7148    1.3816    0.0000 C   0  0  0  0  0  0  0  0  0  0  0  0
   -1.1135    0.5293    0.0000 C   0  0  0  0  0  0  0  0  0  0  0  0
    0.6186   -0.8179    0.0000 C   0  0  0  0  0  0  0  0  0  0  0  0
    1.3747   -0.4743    0.0000 C   0  0  0  0  0  0  0  0  0  0  0  0
    1.3060    0.3368    0.0000 C   0  0  0  0  0  0  0  0  0  0  0  0
   -2.2682   -0.4606    0.0000 C   0  0  0  0  0  0  0  0  0  0  0  0
    2.1445   -0.8179    0.0000 C   0  0  0  0  0  0  0  0  0  0  0  0
   -3.6155   -0.3093    0.0000 C   0  0  0  0  0  0  0  0  0  0  0  0
    3.5467   -0.7491    0.0000 C   0  0  0  0  0  0  0  0  0  0  0  0
   -4.2340    0.1581    0.0000 C   0  0  0  0  0  0  0  0  0  0  0  0
    4.2065   -0.2681    0.0000 C   0  0  0  0  0  0  0  0  0  0  0  0
   -4.1241    0.9967    0.0000 C   0  0  0  0  0  0  0  0  0  0  0  0
   -4.9902   -0.1719    0.0000 C   0  0  0  0  0  0  0  0  0  0  0  0
    4.9489   -0.6392    0.0000 C   0  0  0  0  0  0  0  0  0  0  0  0
    4.1654    0.5156    0.0000 C   0  0  0  0  0  0  0  0  0  0  0  0
   -5.5400    1.1616    0.0000 C   0  0  0  0  0  0  0  0  0  0  0  0
   -4.7702    1.4641    0.0000 C   0  0  0  0  0  0  0  0  0  0  0  0
   -5.6363    0.3093    0.0000 C   0  0  0  0  0  0  0  0  0  0  0  0
    5.5263    0.6117    0.0000 C   0  0  0  0  0  0  0  0  0  0  0  0
    5.5813   -0.1994    0.0000 C   0  0  0  0  0  0  0  0  0  0  0  0
    4.8252    0.9554    0.0000 C   0  0  0  0  0  0  0  0  0  0  0  0
   -6.2275    1.6565    0.0000 C   0  0  0  0  0  0  0  0  0  0  0  0
    6.2275    1.0654    0.0000 C   0  0  0  0  0  0  0  0  0  0  0  0
   -6.9697    1.2716    0.0000 C   0  0  0  0  0  0  0  0  0  0  0  0
    6.9697    0.6117    0.0000 C   0  0  0  0  0  0  0  0  0  0  0  0
  1 15  1  0  0  0  0
  1 17  1  0  0  0  0
  2 15  2  0  0  0  0
  3 16  1  0  0  0  0
  3 18  1  0  0  0  0
  4 16  2  0  0  0  0
  5  6  1  0  0  0  0
  5  7  1  0  0  0  0
  5 12  1  0  0  0  0
  6  9  1  0  0  0  0
  6 10  1  0  0  0  0
  7  8  1  0  0  0  0
  7 14  1  0  0  0  0
  8 10  1  0  0  0  0
  8 11  1  0  0  0  0
  9 11  1  0  0  0  0
  9 15  1  0  0  0  0
 12 13  1  0  0  0  0
 13 14  2  0  0  0  0
 13 16  1  0  0  0  0
 17 19  1  0  0  0  0
 18 20  1  0  0  0  0
 19 21  2  0  0  0  0
 19 22  1  0  0  0  0
 20 23  2  0  0  0  0
 20 24  1  0  0  0  0
 21 26  1  0  0  0  0
 22 27  1  0  0  0  0
 23 29  1  0  0  0  0
 24 30  2  0  0  0  0
 25 26  2  0  0  0  0
 25 27  1  0  0  0  0
 25 31  1  0  0  0  0
 28 29  2  0  0  0  0
 28 30  1  0  0  0  0
 28 32  1  0  0  0  0
 31 33  2  0  0  0  0
 32 34  2  0  0  0  0
M  END
> <PUBCHEM_COMPOUND_ID_TYPE>
0

> <PUBCHEM_TOTAL_CHARGE>
0

> <PUBCHEM_SUBSTANCE_ID>
310949171

> <PUBCHEM_SUBSTANCE_VERSION>
1

> <PUBCHEM_EXT_DATASOURCE_NAME>
4488

> <PUBCHEM_EXT_DATASOURCE_REGID>
SCHEMBL16127361

> <PUBCHEM_SUBSTANCE_COMMENT>
InChI=1S/C30H32O4/c1-3-19-5-9-21(10-6-19)17-33-29(31)24-15-25-23-13-27(26(25)16-24)28(14-23)30(32)34-18-22-11-7-20(4-2)8-12-22/h3-7,9-11,15,23,25-28H,1-2,8,12-14,16-18H2
InChIKey=BUFOWTHAHBPDMW-UHFFFAOYSA-N

> <PUBCHEM_SUBSTANCE_SYNONYM>
SCHEMBL16127361

> <PUBCHEM_XREF_EXT_ID>
SCHEMBL16127361

> <PUBCHEM_EXT_DATASOURCE_URL>
https://www.surechembl.org/

> <PUBCHEM_EXT_SUBSTANCE_URL>
https://www.surechembl.org/chemical/SCHEMBL16127361

> <PUBCHEM_CID_ASSOCIATIONS>
117614664  1

> <PUBCHEM_COORDINATE_TYPE>
1
3

$$$$
