310948330
  -OEChem-07211613022D

 24 26  0     1  0  0  0  0  0999 V2000
   -1.2885    0.2217    0.0000 O   0  0  0  0  0  0  0  0  0  0  0  0
    1.0391    0.0832    0.0000 N   0  0  0  0  0  0  0  0  0  0  0  0
    0.7066   -0.6650    0.0000 N   0  0  0  0  0  0  0  0  0  0  0  0
   -0.9975    1.4686    0.0000 N   0  0  0  0  0  0  0  0  0  0  0  0
   -0.6650   -1.1915    0.0000 N   0  0  0  0  0  0  0  0  0  0  0  0
    1.6626   -1.8704    0.0000 N   0  0  0  0  0  0  0  0  0  0  0  0
   -0.2771    0.2356    0.0000 C   0  0  0  0  0  0  0  0  0  0  0  0
    0.4156    0.6512    0.0000 C   0  0  0  0  0  0  0  0  0  0  0  0
   -0.1108   -0.5681    0.0000 C   0  0  0  0  0  0  0  0  0  0  0  0
    1.8427    0.2632    0.0000 C   0  0  3  0  0  0  0  0  0  0  0  0
   -1.0113    0.6374    0.0000 C   0  0  0  0  0  0  0  0  0  0  0  0
    0.4296    1.4686    0.0000 C   0  0  0  0  0  0  0  0  0  0  0  0
    2.3553   -0.3880    0.0000 C   0  0  3  0  0  0  0  0  0  0  0  0
   -0.2910    1.8704    0.0000 C   0  0  0  0  0  0  0  0  0  0  0  0
    2.0644    1.1083    0.0000 C   0  0  0  0  0  0  0  0  0  0  0  0
    3.1866   -0.3741    0.0000 C   0  0  0  0  0  0  0  0  0  0  0  0
    1.9951   -1.1499    0.0000 C   0  0  0  0  0  0  0  0  0  0  0  0
    2.7986    1.4409    0.0000 C   0  0  0  0  0  0  0  0  0  0  0  0
   -2.0782    0.2217    0.0000 C   0  0  0  0  0  0  0  0  0  0  0  0
    3.7131    0.2494    0.0000 C   0  0  0  0  0  0  0  0  0  0  0  0
    3.5468    1.0668    0.0000 C   0  0  0  0  0  0  0  0  0  0  0  0
   -2.4799    0.9143    0.0000 C   0  0  0  0  0  0  0  0  0  0  0  0
   -3.2974    0.8867    0.0000 C   0  0  0  0  0  0  0  0  0  0  0  0
   -3.7131    1.6071    0.0000 C   0  0  0  0  0  0  0  0  0  0  0  0
  1 11  1  0  0  0  0
  1 19  1  0  0  0  0
  2  3  1  0  0  0  0
  2  8  1  0  0  0  0
  2 10  1  0  0  0  0
  3  9  2  0  0  0  0
  4 11  2  0  0  0  0
  4 14  1  0  0  0  0
  5  9  1  0  0  0  0
  6 17  3  0  0  0  0
  7  8  2  0  0  0  0
  7  9  1  0  0  0  0
  7 11  1  0  0  0  0
  8 12  1  0  0  0  0
 10 13  1  0  0  0  0
 10 15  1  0  0  0  0
 12 14  2  0  0  0  0
 13 16  1  0  0  0  0
 13 17  1  0  0  0  0
 15 18  1  0  0  0  0
 16 20  1  0  0  0  0
 18 21  1  0  0  0  0
 19 22  1  0  0  0  0
 20 21  1  0  0  0  0
 22 23  1  0  0  0  0
 23 24  1  0  0  0  0
M  END
> <PUBCHEM_COMPOUND_ID_TYPE>
0

> <PUBCHEM_TOTAL_CHARGE>
0

> <PUBCHEM_SUBSTANCE_ID>
310948330

> <PUBCHEM_SUBSTANCE_VERSION>
1

> <PUBCHEM_EXT_DATASOURCE_NAME>
4488

> <PUBCHEM_EXT_DATASOURCE_REGID>
SCHEMBL16126508

> <PUBCHEM_SUBSTANCE_COMMENT>
InChI=1S/C18H25N5O/c1-2-3-11-24-18-16-15(9-10-21-18)23(22-17(16)20)14-8-6-4-5-7-13(14)12-19/h9-10,13-14H,2-8,11H2,1H3,(H2,20,22)
InChIKey=MKAMRHXGIPILJC-UHFFFAOYSA-N

> <PUBCHEM_SUBSTANCE_SYNONYM>
SCHEMBL16126508

> <PUBCHEM_XREF_EXT_ID>
SCHEMBL16126508

> <PUBCHEM_EXT_DATASOURCE_URL>
https://www.surechembl.org/

> <PUBCHEM_EXT_SUBSTANCE_URL>
https://www.surechembl.org/chemical/SCHEMBL16126508

> <PUBCHEM_CID_ASSOCIATIONS>
117613895  1

> <PUBCHEM_COORDINATE_TYPE>
1
3

$$$$
