310944709
  -OEChem-07211613022D

 34 36  0     1  0  0  0  0  0999 V2000
   -3.3315   -0.9918    0.0000 Cl  0  0  0  0  0  0  0  0  0  0  0  0
   -2.4414    1.8819    0.0000 Cl  0  0  0  0  0  0  0  0  0  0  0  0
   -5.4677    0.2416    0.0000 Cl  0  0  0  0  0  0  0  0  0  0  0  0
   -0.3179   -0.9918    0.0000 O   0  0  0  0  0  0  0  0  0  0  0  0
    1.1063    1.4750    0.0000 O   0  0  0  0  0  0  0  0  0  0  0  0
    4.0181   -1.8819    0.0000 O   0  0  0  0  0  0  0  0  0  0  0  0
    4.0181    1.5132    0.0000 O   0  0  0  0  0  0  0  0  0  0  0  0
    3.3061   -0.6103    0.0000 N   0  0  0  0  0  0  0  0  0  0  0  0
    1.8310    0.2416    0.0000 N   0  0  0  0  0  0  0  0  0  0  0  0
   -0.3052    0.6485    0.0000 N   0  0  0  0  0  0  0  0  0  0  0  0
    4.8955    0.2416    0.0000 N   0  0  0  0  0  0  0  0  0  0  0  0
   -2.4287    0.2416    0.0000 C   0  0  0  0  0  0  0  0  0  0  0  0
   -3.1661    0.6612    0.0000 C   0  0  0  0  0  0  0  0  0  0  0  0
   -1.0173    0.2543    0.0000 C   0  0  0  0  0  0  0  0  0  0  0  0
   -2.4541   -0.5722    0.0000 C   0  0  0  0  0  0  0  0  0  0  0  0
   -1.0299   -0.5722    0.0000 C   0  0  0  0  0  0  0  0  0  0  0  0
   -1.7420    0.6358    0.0000 C   0  0  0  0  0  0  0  0  0  0  0  0
    3.2933    0.2543    0.0000 C   0  0  3  0  0  0  0  0  0  0  0  0
   -3.1535    1.4750    0.0000 C   0  0  0  0  0  0  0  0  0  0  0  0
   -1.7166   -0.9791    0.0000 C   0  0  0  0  0  0  0  0  0  0  0  0
    2.5558    0.6612    0.0000 C   0  0  0  0  0  0  0  0  0  0  0  0
   -3.8782    0.2543    0.0000 C   0  0  0  0  0  0  0  0  0  0  0  0
    1.1063    0.6358    0.0000 C   0  0  0  0  0  0  0  0  0  0  0  0
    2.5685   -1.0299    0.0000 C   0  0  0  0  0  0  0  0  0  0  0  0
    1.8437   -0.6103    0.0000 C   0  0  0  0  0  0  0  0  0  0  0  0
    4.0309   -1.0046    0.0000 C   0  0  0  0  0  0  0  0  0  0  0  0
    4.0181    0.6485    0.0000 C   0  0  0  0  0  0  0  0  0  0  0  0
   -4.5776    0.6612    0.0000 C   0  0  0  0  0  0  0  0  0  0  0  0
    0.4196    0.2416    0.0000 C   0  0  0  0  0  0  0  0  0  0  0  0
   -3.8782    1.8692    0.0000 C   0  0  0  0  0  0  0  0  0  0  0  0
   -4.5649    1.4750    0.0000 C   0  0  0  0  0  0  0  0  0  0  0  0
    4.7557   -0.6103    0.0000 C   0  0  0  0  0  0  0  0  0  0  0  0
    0.4069   -0.5849    0.0000 C   0  0  0  0  0  0  0  0  0  0  0  0
    5.4677   -1.0554    0.0000 C   0  0  0  0  0  0  0  0  0  0  0  0
  1 15  1  0  0  0  0
  2 19  1  0  0  0  0
  3 28  1  0  0  0  0
  4 16  1  0  0  0  0
  4 33  1  0  0  0  0
  5 23  2  0  0  0  0
  6 26  2  0  0  0  0
  7 27  2  0  0  0  0
  8 18  1  0  0  0  0
  8 24  1  0  0  0  0
  8 26  1  0  0  0  0
  9 21  1  0  0  0  0
  9 23  1  0  0  0  0
  9 25  1  0  0  0  0
 10 14  1  0  0  0  0
 10 29  1  0  0  0  0
 11 27  1  0  0  0  0
 12 13  1  0  0  0  0
 12 15  2  0  0  0  0
 12 17  1  0  0  0  0
 13 19  2  0  0  0  0
 13 22  1  0  0  0  0
 14 16  1  0  0  0  0
 14 17  2  0  0  0  0
 15 20  1  0  0  0  0
 16 20  2  0  0  0  0
 18 21  1  0  0  0  0
 18 27  1  0  0  0  0
 19 30  1  0  0  0  0
 22 28  2  0  0  0  0
 23 29  1  0  0  0  0
 24 25  1  0  0  0  0
 26 32  1  0  0  0  0
 28 31  1  0  0  0  0
 30 31  2  0  0  0  0
 32 34  2  0  0  0  0
M  END
> <PUBCHEM_COMPOUND_ID_TYPE>
0

> <PUBCHEM_TOTAL_CHARGE>
0

> <PUBCHEM_SUBSTANCE_ID>
310944709

> <PUBCHEM_SUBSTANCE_VERSION>
1

> <PUBCHEM_EXT_DATASOURCE_NAME>
4488

> <PUBCHEM_EXT_DATASOURCE_REGID>
SCHEMBL16122788

> <PUBCHEM_SUBSTANCE_COMMENT>
InChI=1S/C23H23Cl3N4O4/c1-3-21(31)30-7-6-29(12-19(30)23(27)33)22(32)11-28-18-9-15(17(26)10-20(18)34-2)14-8-13(24)4-5-16(14)25/h3-5,8-10,19,28H,1,6-7,11-12H2,2H3,(H2,27,33)
InChIKey=JAJQSKHDLCXNHC-UHFFFAOYSA-N

> <PUBCHEM_SUBSTANCE_SYNONYM>
SCHEMBL16122788

> <PUBCHEM_XREF_EXT_ID>
SCHEMBL16122788

> <PUBCHEM_EXT_DATASOURCE_URL>
https://www.surechembl.org/

> <PUBCHEM_EXT_SUBSTANCE_URL>
https://www.surechembl.org/chemical/SCHEMBL16122788

> <PUBCHEM_CID_ASSOCIATIONS>
117610931  1

> <PUBCHEM_COORDINATE_TYPE>
1
3

$$$$
