310939506
  -OEChem-07211613022D

 21 24  0     1  0  0  0  0  0999 V2000
   -2.1102   13.6061    0.0000 O   0  0  0  0  0  0  0  0  0  0  0  0
    0.7215   15.1375    0.0000 O   0  0  0  0  0  0  0  0  0  0  0  0
   -0.2688   12.8916    0.0000 O   0  0  0  0  0  0  0  0  0  0  0  0
    0.0332   16.4936    0.0000 O   0  0  0  0  0  0  0  0  0  0  0  0
   -0.6813   14.4311    0.0000 C   0  0  3  0  0  0  0  0  0  0  0  0
   -1.3958   14.0186    0.0000 C   0  0  3  0  0  0  0  0  0  0  0  0
   -0.6813   15.2561    0.0000 C   0  0  3  0  0  0  0  0  0  0  0  0
   -1.3958   15.6686    0.0000 C   0  0  3  0  0  0  0  0  0  0  0  0
   -2.1102   14.4311    0.0000 C   0  0  3  0  0  0  0  0  0  0  0  0
   -2.1102   15.2561    0.0000 C   0  0  3  0  0  0  0  0  0  0  0  0
   -1.1731   14.8495    0.0000 C   0  0  0  0  0  0  0  0  0  0  0  0
   -0.6813   13.6061    0.0000 C   0  0  0  0  0  0  0  0  0  0  0  0
    0.0332   15.6686    0.0000 C   0  0  0  0  0  0  0  0  0  0  0  0
    1.3310   14.6727    0.0000 C   0  0  0  0  0  0  0  0  0  0  0  0
   -2.3238   16.0530    0.0000 C   0  0  0  0  0  0  0  0  0  0  0  0
    2.1560   14.6727    0.0000 C   0  0  0  0  0  0  0  0  0  0  0  0
    1.0761   13.8881    0.0000 C   0  0  0  0  0  0  0  0  0  0  0  0
    1.5445   15.4696    0.0000 C   0  0  0  0  0  0  0  0  0  0  0  0
    1.7435   13.4032    0.0000 C   0  0  0  0  0  0  0  0  0  0  0  0
    2.4109   13.8881    0.0000 C   0  0  0  0  0  0  0  0  0  0  0  0
    2.3414   15.6832    0.0000 C   0  0  0  0  0  0  0  0  0  0  0  0
  1  9  1  0  0  0  0
  1 12  1  0  0  0  0
  2 13  1  0  0  0  0
  2 14  1  0  0  0  0
  3 12  2  0  0  0  0
  4 13  2  0  0  0  0
  5  6  1  0  0  0  0
  5  7  1  0  0  0  0
  5 12  1  0  0  0  0
  6  9  1  0  0  0  0
  6 11  1  0  0  0  0
  7  8  1  0  0  0  0
  7 13  1  0  0  0  0
  8 10  1  0  0  0  0
  8 11  1  0  0  0  0
  9 10  1  0  0  0  0
 10 15  1  0  0  0  0
 14 16  1  0  0  0  0
 14 17  1  0  0  0  0
 14 18  1  0  0  0  0
 16 20  1  0  0  0  0
 17 19  1  0  0  0  0
 18 21  1  0  0  0  0
 19 20  1  0  0  0  0
M  END
> <PUBCHEM_COMPOUND_ID_TYPE>
0

> <PUBCHEM_TOTAL_CHARGE>
0

> <PUBCHEM_SUBSTANCE_ID>
310939506

> <PUBCHEM_SUBSTANCE_VERSION>
1

> <PUBCHEM_EXT_DATASOURCE_NAME>
4488

> <PUBCHEM_EXT_DATASOURCE_REGID>
SCHEMBL16117435

> <PUBCHEM_SUBSTANCE_COMMENT>
InChI=1S/C17H24O4/c1-3-17(6-4-5-7-17)21-16(19)12-10-8-11-13(12)15(18)20-14(11)9(10)2/h9-14H,3-8H2,1-2H3
InChIKey=XKORPDJVHFVXCC-UHFFFAOYSA-N

> <PUBCHEM_SUBSTANCE_SYNONYM>
SCHEMBL16117435

> <PUBCHEM_XREF_EXT_ID>
SCHEMBL16117435

> <PUBCHEM_EXT_DATASOURCE_URL>
https://www.surechembl.org/

> <PUBCHEM_EXT_SUBSTANCE_URL>
https://www.surechembl.org/chemical/SCHEMBL16117435

> <PUBCHEM_CID_ASSOCIATIONS>
72238854  1

> <PUBCHEM_COORDINATE_TYPE>
1
3

$$$$
