310935526
  -OEChem-07211613022D

 44 49  0     1  0  0  0  0  0999 V2000
    5.6895   -3.6862    0.0000 S   0  0  0  0  0  0  0  0  0  0  0  0
    6.4107   -1.6294    0.0000 F   0  0  0  0  0  0  0  0  0  0  0  0
    5.6895   -0.4007    0.0000 F   0  0  0  0  0  0  0  0  0  0  0  0
    5.6895   -2.0567    0.0000 F   0  0  0  0  0  0  0  0  0  0  0  0
    6.1436   -4.4608    0.0000 O   0  0  0  0  0  0  0  0  0  0  0  0
    5.2888   -2.9917    0.0000 O   0  0  0  0  0  0  0  0  0  0  0  0
    4.9683   -1.6561    0.0000 O   0  0  0  0  0  0  0  0  0  0  0  0
    2.1369   -4.1135    0.0000 N   0  0  3  0  0  0  0  0  0  0  0  0
    0.6945   -4.1135    0.0000 N   0  0  0  0  0  0  0  0  0  0  0  0
    0.0000   -2.8581    0.0000 N   0  0  0  0  0  0  0  0  0  0  0  0
    6.3840   -3.2855    0.0000 N   0  0  3  0  0  0  0  0  0  0  0  0
    4.4074   -1.3890    0.0000 N   0  0  0  0  0  0  0  0  0  0  0  0
    1.4424   -2.8581    0.0000 C   0  0  0  0  0  0  0  0  0  0  0  0
    1.4157   -3.6862    0.0000 C   0  0  0  0  0  0  0  0  0  0  0  0
    0.7212   -2.4574    0.0000 C   0  0  0  0  0  0  0  0  0  0  0  0
    3.5793   -4.1135    0.0000 C   0  0  0  0  0  0  0  0  0  0  0  0
    4.9683   -4.1135    0.0000 C   0  0  0  0  0  0  0  0  0  0  0  0
    2.1369   -1.6561    0.0000 C   0  0  0  0  0  0  0  0  0  0  0  0
    3.5793   -4.9149    0.0000 C   0  0  0  0  0  0  0  0  0  0  0  0
    2.1369   -2.4841    0.0000 C   0  0  0  0  0  0  0  0  0  0  0  0
    0.6945   -1.6561    0.0000 C   0  0  0  0  0  0  0  0  0  0  0  0
    2.8581   -3.6862    0.0000 C   0  0  0  0  0  0  0  0  0  0  0  0
    4.2738   -3.6862    0.0000 C   0  0  0  0  0  0  0  0  0  0  0  0
    1.4157   -1.2287    0.0000 C   0  0  0  0  0  0  0  0  0  0  0  0
    2.1369   -4.9149    0.0000 C   0  0  0  0  0  0  0  0  0  0  0  0
    2.8581   -1.2287    0.0000 C   0  0  0  0  0  0  0  0  0  0  0  0
    2.8581   -5.3422    0.0000 C   0  0  0  0  0  0  0  0  0  0  0  0
    4.9683   -4.9149    0.0000 C   0  0  0  0  0  0  0  0  0  0  0  0
    4.2738   -5.3422    0.0000 C   0  0  0  0  0  0  0  0  0  0  0  0
    0.0000   -3.7129    0.0000 C   0  0  0  0  0  0  0  0  0  0  0  0
    3.5526   -1.6294    0.0000 C   0  0  0  0  0  0  0  0  0  0  0  0
    2.8581   -0.4007    0.0000 C   0  0  0  0  0  0  0  0  0  0  0  0
    0.0000   -1.2287    0.0000 C   0  0  0  0  0  0  0  0  0  0  0  0
    4.2738   -1.2287    0.0000 C   0  0  0  0  0  0  0  0  0  0  0  0
    6.3840   -2.4841    0.0000 C   0  0  0  0  0  0  0  0  0  0  0  0
    3.5526    0.0000    0.0000 C   0  0  0  0  0  0  0  0  0  0  0  0
    5.8230   -2.2170    0.0000 C   0  0  0  0  0  0  0  0  0  0  0  0
    7.1052   -3.7129    0.0000 C   0  0  0  0  0  0  0  0  0  0  0  0
    4.2738   -0.4274    0.0000 C   0  0  0  0  0  0  0  0  0  0  0  0
    5.6895   -1.2287    0.0000 C   0  0  0  0  0  0  0  0  0  0  0  0
    5.8230   -1.3890    0.0000 C   0  0  0  0  0  0  0  0  0  0  0  0
    4.9416   -2.4574    0.0000 C   0  0  0  0  0  0  0  0  0  0  0  0
    4.9683   -0.8013    0.0000 C   0  0  0  0  0  0  0  0  0  0  0  0
    4.2471   -2.0567    0.0000 C   0  0  0  0  0  0  0  0  0  0  0  0
  1  5  2  0  0  0  0
  1  6  2  0  0  0  0
  1 11  1  0  0  0  0
  1 17  1  0  0  0  0
  2 40  1  0  0  0  0
  3 40  1  0  0  0  0
  4 40  1  0  0  0  0
  7 34  1  0  0  0  0
  7 40  1  0  0  0  0
  8 14  1  0  0  0  0
  8 22  1  0  0  0  0
  8 25  1  0  0  0  0
  9 14  1  0  0  0  0
  9 30  2  0  0  0  0
 10 15  2  0  0  0  0
 10 30  1  0  0  0  0
 11 35  1  0  0  0  0
 11 38  1  0  0  0  0
 12 43  1  0  0  0  0
 12 44  1  0  0  0  0
 13 14  2  0  0  0  0
 13 15  1  0  0  0  0
 13 20  1  0  0  0  0
 15 21  1  0  0  0  0
 16 19  2  0  0  0  0
 16 22  1  0  0  0  0
 16 23  1  0  0  0  0
 17 23  2  0  0  0  0
 17 28  1  0  0  0  0
 18 20  2  0  0  0  0
 18 24  1  0  0  0  0
 18 26  1  0  0  0  0
 19 27  1  0  0  0  0
 19 29  1  0  0  0  0
 21 24  2  0  0  0  0
 21 33  1  0  0  0  0
 25 27  1  0  0  0  0
 26 31  1  0  0  0  0
 26 32  2  0  0  0  0
 28 29  2  0  0  0  0
 31 34  2  0  0  0  0
 32 36  1  0  0  0  0
 34 39  1  0  0  0  0
 35 37  1  0  0  0  0
 36 39  2  0  0  0  0
 37 41  1  0  0  0  0
 37 42  1  0  0  0  0
 41 43  1  0  0  0  0
 42 44  1  0  0  0  0
M  END
> <PUBCHEM_COMPOUND_ID_TYPE>
0

> <PUBCHEM_TOTAL_CHARGE>
0

> <PUBCHEM_SUBSTANCE_ID>
310935526

> <PUBCHEM_SUBSTANCE_VERSION>
1

> <PUBCHEM_EXT_DATASOURCE_NAME>
4488

> <PUBCHEM_EXT_DATASOURCE_REGID>
SCHEMBL16113096

> <PUBCHEM_SUBSTANCE_COMMENT>
InChI=1S/C32H34F3N5O3S/c1-21-14-25(24-4-3-5-27(15-24)43-32(33,34)35)17-29-30(21)37-20-38-31(29)40-13-10-23-6-7-28(16-26(23)19-40)44(41,42)39(2)18-22-8-11-36-12-9-22/h3-7,14-17,20,22,36H,8-13,18-19H2,1-2H3
InChIKey=QDOMVCBDYIIVLP-UHFFFAOYSA-N

> <PUBCHEM_SUBSTANCE_SYNONYM>
SCHEMBL16113096

> <PUBCHEM_XREF_EXT_ID>
SCHEMBL16113096

> <PUBCHEM_EXT_DATASOURCE_URL>
https://www.surechembl.org/

> <PUBCHEM_EXT_SUBSTANCE_URL>
https://www.surechembl.org/chemical/SCHEMBL16113096

> <PUBCHEM_CID_ASSOCIATIONS>
86301054  1

> <PUBCHEM_COORDINATE_TYPE>
1
3

$$$$
