310932400
  -OEChem-07211613022D

 24 26  0     1  0  0  0  0  0999 V2000
    3.3001    0.0000    0.0000 O   0  0  0  0  0  0  0  0  0  0  0  0
    4.4162   -1.9655    0.0000 O   0  0  0  0  0  0  0  0  0  0  0  0
    5.1442   -0.7280    0.0000 O   0  0  0  0  0  0  0  0  0  0  0  0
    3.7125   -0.7280    0.0000 C   0  0  3  0  0  0  0  0  0  0  0  0
    2.8875   -0.7280    0.0000 C   0  0  3  0  0  0  0  0  0  0  0  0
    3.4942   -1.5287    0.0000 C   0  0  0  0  0  0  0  0  0  0  0  0
    4.4162   -1.1405    0.0000 C   0  0  0  0  0  0  0  0  0  0  0  0
    2.1596   -1.1405    0.0000 C   0  0  0  0  0  0  0  0  0  0  0  0
    4.0765   -2.1111    0.0000 C   0  0  0  0  0  0  0  0  0  0  0  0
    2.6934   -1.7471    0.0000 C   0  0  0  0  0  0  0  0  0  0  0  0
    2.1596   -1.9655    0.0000 C   0  0  0  0  0  0  0  0  0  0  0  0
    1.4316   -0.7280    0.0000 C   0  0  0  0  0  0  0  0  0  0  0  0
    3.8582   -2.9118    0.0000 C   0  0  0  0  0  0  0  0  0  0  0  0
    2.4751   -2.5478    0.0000 C   0  0  0  0  0  0  0  0  0  0  0  0
    1.4316   -2.3780    0.0000 C   0  0  0  0  0  0  0  0  0  0  0  0
    0.7280   -1.1405    0.0000 C   0  0  0  0  0  0  0  0  0  0  0  0
    0.7280   -1.9655    0.0000 C   0  0  0  0  0  0  0  0  0  0  0  0
    5.1442   -2.3780    0.0000 C   0  0  0  0  0  0  0  0  0  0  0  0
    3.0574   -3.1302    0.0000 C   0  0  0  0  0  0  0  0  0  0  0  0
    5.1442   -3.2030    0.0000 C   0  0  0  0  0  0  0  0  0  0  0  0
    0.0000   -2.3780    0.0000 C   0  0  0  0  0  0  0  0  0  0  0  0
    5.8479   -3.6155    0.0000 C   0  0  0  0  0  0  0  0  0  0  0  0
    5.8721   -4.4405    0.0000 C   0  0  0  0  0  0  0  0  0  0  0  0
    6.5758   -4.8530    0.0000 C   0  0  0  0  0  0  0  0  0  0  0  0
  1  4  1  0  0  0  0
  1  5  1  0  0  0  0
  2  7  1  0  0  0  0
  2 18  1  0  0  0  0
  3  7  2  0  0  0  0
  4  5  1  0  0  0  0
  4  6  1  0  0  0  0
  4  7  1  0  0  0  0
  5  8  1  0  0  0  0
  6  9  2  0  0  0  0
  6 10  1  0  0  0  0
  8 11  2  0  0  0  0
  8 12  1  0  0  0  0
  9 13  1  0  0  0  0
 10 14  2  0  0  0  0
 11 15  1  0  0  0  0
 12 16  2  0  0  0  0
 13 19  2  0  0  0  0
 14 19  1  0  0  0  0
 15 17  2  0  0  0  0
 16 17  1  0  0  0  0
 17 21  1  0  0  0  0
 18 20  1  0  0  0  0
 20 22  1  0  0  0  0
 22 23  1  0  0  0  0
 23 24  1  0  0  0  0
M  END
> <PUBCHEM_COMPOUND_ID_TYPE>
0

> <PUBCHEM_TOTAL_CHARGE>
0

> <PUBCHEM_SUBSTANCE_ID>
310932400

> <PUBCHEM_SUBSTANCE_VERSION>
1

> <PUBCHEM_EXT_DATASOURCE_NAME>
4488

> <PUBCHEM_EXT_DATASOURCE_REGID>
SCHEMBL16109768

> <PUBCHEM_SUBSTANCE_COMMENT>
InChI=1S/C21H24O3/c1-3-4-8-15-23-20(22)21(18-9-6-5-7-10-18)19(24-21)17-13-11-16(2)12-14-17/h5-7,9-14,19H,3-4,8,15H2,1-2H3
InChIKey=PELAEBCCFDUFCH-UHFFFAOYSA-N

> <PUBCHEM_SUBSTANCE_SYNONYM>
SCHEMBL16109768

> <PUBCHEM_XREF_EXT_ID>
SCHEMBL16109768

> <PUBCHEM_EXT_DATASOURCE_URL>
https://www.surechembl.org/

> <PUBCHEM_EXT_SUBSTANCE_URL>
https://www.surechembl.org/chemical/SCHEMBL16109768

> <PUBCHEM_CID_ASSOCIATIONS>
117600954  1

> <PUBCHEM_COORDINATE_TYPE>
1
3

$$$$
