310933685
  -OEChem-07211613022D

 35 38  0     1  0  0  0  0  0999 V2000
    2.8505   -7.3638    0.0000 O   0  0  0  0  0  0  0  0  0  0  0  0
    1.5440   -0.8314    0.0000 O   0  0  0  0  0  0  0  0  0  0  0  0
    2.8505  -10.6300    0.0000 O   0  0  0  0  0  0  0  0  0  0  0  0
    2.1379  -11.8771    0.0000 O   0  0  0  0  0  0  0  0  0  0  0  0
    2.8505   -5.7604    0.0000 N   0  0  0  0  0  0  0  0  0  0  0  0
    1.4253   -7.3638    0.0000 N   0  0  0  0  0  0  0  0  0  0  0  0
    0.1188   -2.4942    0.0000 N   0  0  0  0  0  0  0  0  0  0  0  0
    0.1188   -0.8314    0.0000 N   0  0  0  0  0  0  0  0  0  0  0  0
    1.4253   -4.9290    0.0000 C   0  0  0  0  0  0  0  0  0  0  0  0
    1.4253   -5.7604    0.0000 C   0  0  0  0  0  0  0  0  0  0  0  0
    0.7720   -4.5133    0.0000 C   0  0  0  0  0  0  0  0  0  0  0  0
    2.1379   -6.1761    0.0000 C   0  0  3  0  0  0  0  0  0  0  0  0
    0.7720   -3.7413    0.0000 C   0  0  0  0  0  0  0  0  0  0  0  0
    2.1379   -7.0075    0.0000 C   0  0  0  0  0  0  0  0  0  0  0  0
    2.1379   -4.5133    0.0000 C   0  0  0  0  0  0  0  0  0  0  0  0
    0.7126   -6.1761    0.0000 C   0  0  0  0  0  0  0  0  0  0  0  0
    0.0594   -4.9290    0.0000 C   0  0  0  0  0  0  0  0  0  0  0  0
    0.0000   -5.7604    0.0000 C   0  0  0  0  0  0  0  0  0  0  0  0
    2.8505   -4.9290    0.0000 C   0  0  0  0  0  0  0  0  0  0  0  0
    0.0594   -3.2662    0.0000 C   0  0  0  0  0  0  0  0  0  0  0  0
    1.4846   -3.2662    0.0000 C   0  0  0  0  0  0  0  0  0  0  0  0
    0.8314   -2.0191    0.0000 C   0  0  0  0  0  0  0  0  0  0  0  0
    1.4253   -8.1952    0.0000 C   0  0  0  0  0  0  0  0  0  0  0  0
    1.4846   -2.4942    0.0000 C   0  0  0  0  0  0  0  0  0  0  0  0
    0.8314   -1.2471    0.0000 C   0  0  0  0  0  0  0  0  0  0  0  0
    0.7126   -8.6109    0.0000 C   0  0  0  0  0  0  0  0  0  0  0  0
    2.1379   -8.6109    0.0000 C   0  0  0  0  0  0  0  0  0  0  0  0
    1.4253   -9.8580    0.0000 C   0  0  0  0  0  0  0  0  0  0  0  0
    0.7126   -9.4423    0.0000 C   0  0  0  0  0  0  0  0  0  0  0  0
    2.1379   -9.4423    0.0000 C   0  0  0  0  0  0  0  0  0  0  0  0
    1.4253  -10.6300    0.0000 C   0  0  0  0  0  0  0  0  0  0  0  0
    2.1379  -11.0457    0.0000 C   0  0  0  0  0  0  0  0  0  0  0  0
    0.1188    0.0000    0.0000 C   0  0  0  0  0  0  0  0  0  0  0  0
    3.5631  -11.0457    0.0000 C   0  0  0  0  0  0  0  0  0  0  0  0
    4.2757  -10.6300    0.0000 C   0  0  0  0  0  0  0  0  0  0  0  0
  1 14  2  0  0  0  0
  2 25  2  0  0  0  0
  3 32  1  0  0  0  0
  3 34  1  0  0  0  0
  4 32  2  0  0  0  0
  5 12  1  0  0  0  0
  5 19  1  0  0  0  0
  6 14  1  0  0  0  0
  6 23  1  0  0  0  0
  7 20  1  0  0  0  0
  7 22  2  0  0  0  0
  8 25  1  0  0  0  0
  8 33  1  0  0  0  0
  9 10  2  0  0  0  0
  9 11  1  0  0  0  0
  9 15  1  0  0  0  0
 10 12  1  0  0  0  0
 10 16  1  0  0  0  0
 11 13  1  0  0  0  0
 11 17  2  0  0  0  0
 12 14  1  0  0  0  0
 13 20  2  0  0  0  0
 13 21  1  0  0  0  0
 15 19  1  0  0  0  0
 16 18  2  0  0  0  0
 17 18  1  0  0  0  0
 21 24  2  0  0  0  0
 22 24  1  0  0  0  0
 22 25  1  0  0  0  0
 23 26  2  0  0  0  0
 23 27  1  0  0  0  0
 26 29  1  0  0  0  0
 27 30  2  0  0  0  0
 28 29  2  0  0  0  0
 28 30  1  0  0  0  0
 28 31  1  0  0  0  0
 31 32  1  0  0  0  0
 34 35  1  0  0  0  0
M  END
> <PUBCHEM_COMPOUND_ID_TYPE>
0

> <PUBCHEM_TOTAL_CHARGE>
0

> <PUBCHEM_SUBSTANCE_ID>
310933685

> <PUBCHEM_SUBSTANCE_VERSION>
1

> <PUBCHEM_EXT_DATASOURCE_NAME>
4488

> <PUBCHEM_EXT_DATASOURCE_REGID>
SCHEMBL16111120

> <PUBCHEM_SUBSTANCE_COMMENT>
InChI=1S/C27H28N4O4/c1-3-35-24(32)15-17-7-10-19(11-8-17)31-27(34)25-22-6-4-5-20(21(22)13-14-29-25)18-9-12-23(30-16-18)26(33)28-2/h4-12,16,25,29H,3,13-15H2,1-2H3,(H,28,33)(H,31,34)
InChIKey=DWHQWKQMMRIELP-UHFFFAOYSA-N

> <PUBCHEM_SUBSTANCE_SYNONYM>
SCHEMBL16111120

> <PUBCHEM_XREF_EXT_ID>
SCHEMBL16111120

> <PUBCHEM_EXT_DATASOURCE_URL>
https://www.surechembl.org/

> <PUBCHEM_EXT_SUBSTANCE_URL>
https://www.surechembl.org/chemical/SCHEMBL16111120

> <PUBCHEM_CID_ASSOCIATIONS>
117602052  1

> <PUBCHEM_COORDINATE_TYPE>
1
3

$$$$
