310944643
  -OEChem-07211613022D

 33 36  0     1  0  0  0  0  0999 V2000
   -3.2754   -0.5168    0.0000 Cl  0  0  0  0  0  0  0  0  0  0  0  0
   -2.3788    2.3850    0.0000 Cl  0  0  0  0  0  0  0  0  0  0  0  0
   -5.4300    0.7286    0.0000 Cl  0  0  0  0  0  0  0  0  0  0  0  0
   -0.2367   -0.5168    0.0000 O   0  0  0  0  0  0  0  0  0  0  0  0
    1.1956    1.9740    0.0000 O   0  0  0  0  0  0  0  0  0  0  0  0
    5.4300   -0.7659    0.0000 O   0  0  0  0  0  0  0  0  0  0  0  0
    1.9429    0.7411    0.0000 N   0  0  0  0  0  0  0  0  0  0  0  0
    4.0103   -0.7659    0.0000 N   0  0  0  0  0  0  0  0  0  0  0  0
   -0.2242    1.1520    0.0000 N   0  0  0  0  0  0  0  0  0  0  0  0
    2.7275   -0.3425    0.0000 C   0  0  3  0  0  0  0  0  0  0  0  0
    3.2131    0.3301    0.0000 C   0  0  3  0  0  0  0  0  0  0  0  0
   -2.3788    0.7411    0.0000 C   0  0  0  0  0  0  0  0  0  0  0  0
   -3.1135    1.1645    0.0000 C   0  0  0  0  0  0  0  0  0  0  0  0
    1.9553   -0.0934    0.0000 C   0  0  0  0  0  0  0  0  0  0  0  0
    2.7275    0.9901    0.0000 C   0  0  0  0  0  0  0  0  0  0  0  0
   -0.9465    0.7411    0.0000 C   0  0  0  0  0  0  0  0  0  0  0  0
    3.2257   -1.0150    0.0000 C   0  0  0  0  0  0  0  0  0  0  0  0
    4.0103    0.0561    0.0000 C   0  0  0  0  0  0  0  0  0  0  0  0
   -2.3788   -0.0934    0.0000 C   0  0  0  0  0  0  0  0  0  0  0  0
   -0.9590   -0.0934    0.0000 C   0  0  0  0  0  0  0  0  0  0  0  0
   -1.6688    1.1395    0.0000 C   0  0  0  0  0  0  0  0  0  0  0  0
    1.2081    1.1395    0.0000 C   0  0  0  0  0  0  0  0  0  0  0  0
   -1.6564   -0.5044    0.0000 C   0  0  0  0  0  0  0  0  0  0  0  0
   -3.1011    1.9864    0.0000 C   0  0  0  0  0  0  0  0  0  0  0  0
    4.7077   -1.1894    0.0000 C   0  0  0  0  0  0  0  0  0  0  0  0
   -3.8110    0.7411    0.0000 C   0  0  0  0  0  0  0  0  0  0  0  0
    0.4982    0.7411    0.0000 C   0  0  0  0  0  0  0  0  0  0  0  0
   -4.5458    1.1520    0.0000 C   0  0  0  0  0  0  0  0  0  0  0  0
   -3.8234    2.3850    0.0000 C   0  0  0  0  0  0  0  0  0  0  0  0
   -4.5334    1.9740    0.0000 C   0  0  0  0  0  0  0  0  0  0  0  0
    4.7202   -2.0238    0.0000 C   0  0  0  0  0  0  0  0  0  0  0  0
    0.4857   -0.0934    0.0000 C   0  0  0  0  0  0  0  0  0  0  0  0
    3.9978   -2.3850    0.0000 C   0  0  0  0  0  0  0  0  0  0  0  0
  1 19  1  0  0  0  0
  2 24  1  0  0  0  0
  3 28  1  0  0  0  0
  4 20  1  0  0  0  0
  4 32  1  0  0  0  0
  5 22  2  0  0  0  0
  6 25  2  0  0  0  0
  7 14  1  0  0  0  0
  7 15  1  0  0  0  0
  7 22  1  0  0  0  0
  8 17  1  0  0  0  0
  8 18  1  0  0  0  0
  8 25  1  0  0  0  0
  9 16  1  0  0  0  0
  9 27  1  0  0  0  0
 10 11  1  0  0  0  0
 10 14  1  0  0  0  0
 10 17  1  0  0  0  0
 11 15  1  0  0  0  0
 11 18  1  0  0  0  0
 12 13  1  0  0  0  0
 12 19  2  0  0  0  0
 12 21  1  0  0  0  0
 13 24  2  0  0  0  0
 13 26  1  0  0  0  0
 16 20  1  0  0  0  0
 16 21  2  0  0  0  0
 19 23  1  0  0  0  0
 20 23  2  0  0  0  0
 22 27  1  0  0  0  0
 24 29  1  0  0  0  0
 25 31  1  0  0  0  0
 26 28  2  0  0  0  0
 28 30  1  0  0  0  0
 29 30  2  0  0  0  0
 31 33  2  0  0  0  0
M  END
> <PUBCHEM_COMPOUND_ID_TYPE>
0

> <PUBCHEM_TOTAL_CHARGE>
0

> <PUBCHEM_SUBSTANCE_ID>
310944643

> <PUBCHEM_SUBSTANCE_VERSION>
1

> <PUBCHEM_EXT_DATASOURCE_NAME>
4488

> <PUBCHEM_EXT_DATASOURCE_REGID>
SCHEMBL16122721

> <PUBCHEM_SUBSTANCE_COMMENT>
InChI=1S/C24H24Cl3N3O3/c1-3-23(31)29-10-14-12-30(13-15(14)11-29)24(32)9-28-21-7-18(20(27)8-22(21)33-2)17-6-16(25)4-5-19(17)26/h3-8,14-15,28H,1,9-13H2,2H3
InChIKey=XSVVRXQVEGJMCB-UHFFFAOYSA-N

> <PUBCHEM_SUBSTANCE_SYNONYM>
SCHEMBL16122721

> <PUBCHEM_XREF_EXT_ID>
SCHEMBL16122721

> <PUBCHEM_EXT_DATASOURCE_URL>
https://www.surechembl.org/

> <PUBCHEM_EXT_SUBSTANCE_URL>
https://www.surechembl.org/chemical/SCHEMBL16122721

> <PUBCHEM_CID_ASSOCIATIONS>
117610873  1

> <PUBCHEM_COORDINATE_TYPE>
1
3

$$$$
