310933386
  -OEChem-07211613022D

 33 36  0     1  0  0  0  0  0999 V2000
    6.0146   -0.6951    0.0000 F   0  0  0  0  0  0  0  0  0  0  0  0
    4.7453    0.0000    0.0000 F   0  0  0  0  0  0  0  0  0  0  0  0
    5.5916   -1.4205    0.0000 F   0  0  0  0  0  0  0  0  0  0  0  0
    2.2669   -1.4507    0.0000 O   0  0  0  0  0  0  0  0  0  0  0  0
    3.9594   -2.8713    0.0000 O   0  0  0  0  0  0  0  0  0  0  0  0
    0.0000   -4.9568    0.0000 O   0  0  0  0  0  0  0  0  0  0  0  0
    5.5613   -3.8385    0.0000 O   0  0  0  0  0  0  0  0  0  0  0  0
    4.2315   -3.1735    0.0000 N   0  0  0  0  0  0  0  0  0  0  0  0
    4.2315   -4.4732    0.0000 N   0  0  0  0  0  0  0  0  0  0  0  0
    1.4810   -2.9015    0.0000 N   0  0  0  0  0  0  0  0  0  0  0  0
    0.3929   -5.6822    0.0000 N   0  0  0  0  0  0  0  0  0  0  0  0
    2.6900   -2.1761    0.0000 C   0  0  3  0  0  0  0  0  0  0  0  0
    2.7202   -2.9922    0.0000 C   0  0  0  0  0  0  0  0  0  0  0  0
    3.4456   -3.3852    0.0000 C   0  0  0  0  0  0  0  0  0  0  0  0
    3.4456   -4.2616    0.0000 C   0  0  0  0  0  0  0  0  0  0  0  0
    2.0251   -4.2616    0.0000 C   0  0  0  0  0  0  0  0  0  0  0  0
    1.8739   -2.1761    0.0000 C   0  0  0  0  0  0  0  0  0  0  0  0
    2.0251   -3.3852    0.0000 C   0  0  0  0  0  0  0  0  0  0  0  0
    3.5362   -2.1761    0.0000 C   0  0  3  0  0  0  0  0  0  0  0  0
    2.7202   -4.6545    0.0000 C   0  0  0  0  0  0  0  0  0  0  0  0
    1.2996   -4.6848    0.0000 C   0  0  0  0  0  0  0  0  0  0  0  0
    4.7150   -3.8385    0.0000 C   0  0  0  0  0  0  0  0  0  0  0  0
    0.5441   -4.3523    0.0000 C   0  0  0  0  0  0  0  0  0  0  0  0
    1.2090   -5.5008    0.0000 C   0  0  0  0  0  0  0  0  0  0  0  0
    1.4507   -1.4507    0.0000 C   0  0  0  0  0  0  0  0  0  0  0  0
    3.9292   -1.4507    0.0000 C   0  0  0  0  0  0  0  0  0  0  0  0
    0.6347   -2.9317    0.0000 C   0  0  0  0  0  0  0  0  0  0  0  0
    0.6347   -1.4810    0.0000 C   0  0  0  0  0  0  0  0  0  0  0  0
    4.7754   -1.4205    0.0000 C   0  0  0  0  0  0  0  0  0  0  0  0
    0.2418   -2.2064    0.0000 C   0  0  0  0  0  0  0  0  0  0  0  0
    0.3627   -3.5362    0.0000 C   0  0  0  0  0  0  0  0  0  0  0  0
    1.8437   -6.0449    0.0000 C   0  0  0  0  0  0  0  0  0  0  0  0
    5.1684   -0.7254    0.0000 C   0  0  0  0  0  0  0  0  0  0  0  0
  1 33  1  0  0  0  0
  2 33  1  0  0  0  0
  3 33  1  0  0  0  0
  4 12  1  0  0  0  0
  5 19  1  0  0  0  0
  6 11  1  0  0  0  0
  6 23  1  0  0  0  0
  7 22  2  0  0  0  0
  8 14  1  0  0  0  0
  8 22  1  0  0  0  0
  9 15  1  0  0  0  0
  9 22  1  0  0  0  0
 10 17  1  0  0  0  0
 10 27  2  0  0  0  0
 11 24  2  0  0  0  0
 12 13  1  0  0  0  0
 12 17  1  0  0  0  0
 12 19  1  0  0  0  0
 13 14  1  0  0  0  0
 13 18  2  0  0  0  0
 14 15  2  0  0  0  0
 15 20  1  0  0  0  0
 16 18  1  0  0  0  0
 16 20  2  0  0  0  0
 16 21  1  0  0  0  0
 17 25  2  0  0  0  0
 19 26  1  0  0  0  0
 21 23  2  0  0  0  0
 21 24  1  0  0  0  0
 23 31  1  0  0  0  0
 24 32  1  0  0  0  0
 25 28  1  0  0  0  0
 26 29  1  0  0  0  0
 27 30  1  0  0  0  0
 28 30  2  0  0  0  0
 29 33  1  0  0  0  0
M  END
> <PUBCHEM_COMPOUND_ID_TYPE>
0

> <PUBCHEM_TOTAL_CHARGE>
0

> <PUBCHEM_SUBSTANCE_ID>
310933386

> <PUBCHEM_SUBSTANCE_VERSION>
1

> <PUBCHEM_EXT_DATASOURCE_NAME>
4488

> <PUBCHEM_EXT_DATASOURCE_REGID>
SCHEMBL16110802

> <PUBCHEM_SUBSTANCE_COMMENT>
InChI=1S/C22H21F3N4O4/c1-11-18(12(2)33-29-11)13-9-14(19-15(10-13)27-20(31)28-19)22(32,16-5-3-4-8-26-16)17(30)6-7-21(23,24)25/h3-5,8-10,17,30,32H,6-7H2,1-2H3,(H2,27,28,31)
InChIKey=LDNRJKXJYRHFOV-UHFFFAOYSA-N

> <PUBCHEM_SUBSTANCE_SYNONYM>
SCHEMBL16110802

> <PUBCHEM_XREF_EXT_ID>
SCHEMBL16110802

> <PUBCHEM_EXT_DATASOURCE_URL>
https://www.surechembl.org/

> <PUBCHEM_EXT_SUBSTANCE_URL>
https://www.surechembl.org/chemical/SCHEMBL16110802

> <PUBCHEM_CID_ASSOCIATIONS>
117601797  1

> <PUBCHEM_COORDINATE_TYPE>
1
3

$$$$
