310936051
  -OEChem-07211613022D

 22 23  0     1  0  0  0  0  0999 V2000
    0.0000   -6.2254    0.0000 Cl  0  0  0  0  0  0  0  0  0  0  0  0
    1.4502   -7.0743    0.0000 Cl  0  0  0  0  0  0  0  0  0  0  0  0
    2.9005   -3.7494    0.0000 O   0  0  0  0  0  0  0  0  0  0  0  0
    3.6079   -0.8489    0.0000 N   0  0  0  0  0  0  0  0  0  0  0  0
    0.0000   -2.9359    0.0000 N   0  0  0  0  0  0  0  0  0  0  0  0
    1.4502   -3.7494    0.0000 C   0  0  3  0  0  0  0  0  0  0  0  0
    1.4502   -4.5629    0.0000 C   0  0  0  0  0  0  0  0  0  0  0  0
    2.1576   -3.3250    0.0000 C   0  0  3  0  0  0  0  0  0  0  0  0
    2.1576   -2.5114    0.0000 C   0  0  0  0  0  0  0  0  0  0  0  0
    0.7428   -4.9874    0.0000 C   0  0  0  0  0  0  0  0  0  0  0  0
    0.7428   -5.8363    0.0000 C   0  0  0  0  0  0  0  0  0  0  0  0
    2.1576   -4.9874    0.0000 C   0  0  0  0  0  0  0  0  0  0  0  0
    1.4502   -6.2254    0.0000 C   0  0  0  0  0  0  0  0  0  0  0  0
    2.8651   -2.0869    0.0000 C   0  0  0  0  0  0  0  0  0  0  0  0
    2.8651   -1.2380    0.0000 C   0  0  0  0  0  0  0  0  0  0  0  0
    1.4502   -2.0869    0.0000 C   0  0  0  0  0  0  0  0  0  0  0  0
    2.1576   -5.8363    0.0000 C   0  0  0  0  0  0  0  0  0  0  0  0
    0.7074   -3.3250    0.0000 C   0  0  0  0  0  0  0  0  0  0  0  0
    2.1576   -0.8489    0.0000 C   0  0  0  0  0  0  0  0  0  0  0  0
    1.4502   -1.2380    0.0000 C   0  0  0  0  0  0  0  0  0  0  0  0
    4.3153   -1.2380    0.0000 C   0  0  0  0  0  0  0  0  0  0  0  0
    3.6079    0.0000    0.0000 C   0  0  0  0  0  0  0  0  0  0  0  0
  1 11  1  0  0  0  0
  2 13  1  0  0  0  0
  3  8  1  0  0  0  0
  4 15  1  0  0  0  0
  4 21  1  0  0  0  0
  4 22  1  0  0  0  0
  5 18  3  0  0  0  0
  6  7  1  0  0  0  0
  6  8  1  0  0  0  0
  6 18  1  0  0  0  0
  7 10  1  0  0  0  0
  7 12  2  0  0  0  0
  8  9  1  0  0  0  0
  9 14  1  0  0  0  0
  9 16  2  0  0  0  0
 10 11  2  0  0  0  0
 11 13  1  0  0  0  0
 12 17  1  0  0  0  0
 13 17  2  0  0  0  0
 14 15  2  0  0  0  0
 15 19  1  0  0  0  0
 16 20  1  0  0  0  0
 19 20  2  0  0  0  0
M  END
> <PUBCHEM_COMPOUND_ID_TYPE>
0

> <PUBCHEM_TOTAL_CHARGE>
0

> <PUBCHEM_SUBSTANCE_ID>
310936051

> <PUBCHEM_SUBSTANCE_VERSION>
1

> <PUBCHEM_EXT_DATASOURCE_NAME>
4488

> <PUBCHEM_EXT_DATASOURCE_REGID>
SCHEMBL16113656

> <PUBCHEM_SUBSTANCE_COMMENT>
InChI=1S/C17H16Cl2N2O/c1-21(2)13-5-3-4-12(8-13)17(22)14(10-20)11-6-7-15(18)16(19)9-11/h3-9,14,17,22H,1-2H3
InChIKey=ZRDBRRSREULLNZ-UHFFFAOYSA-N

> <PUBCHEM_SUBSTANCE_SYNONYM>
SCHEMBL16113656

> <PUBCHEM_XREF_EXT_ID>
SCHEMBL16113656

> <PUBCHEM_EXT_DATASOURCE_URL>
https://www.surechembl.org/

> <PUBCHEM_EXT_SUBSTANCE_URL>
https://www.surechembl.org/chemical/SCHEMBL16113656

> <PUBCHEM_CID_ASSOCIATIONS>
117604017  1

> <PUBCHEM_COORDINATE_TYPE>
1
3

$$$$
