310941163
  -OEChem-07211613022D

 14 14  0     1  0  0  0  0  0999 V2000
    0.5014    1.7871    0.0000 O   0  0  0  0  0  0  0  0  0  0  0  0
    1.1159   -0.3154    0.0000 O   0  0  0  0  0  0  0  0  0  0  0  0
    0.4690   -1.5608    0.0000 O   0  0  0  0  0  0  0  0  0  0  0  0
   -0.3558   -1.9489    0.0000 O   0  0  0  0  0  0  0  0  0  0  0  0
   -1.0189   -0.7036    0.0000 N   0  0  0  0  0  0  0  0  0  0  0  0
   -0.3073   -0.2830    0.0000 C   0  0  3  0  0  0  0  0  0  0  0  0
    0.4205    0.9623    0.0000 C   0  0  0  0  0  0  0  0  0  0  0  0
   -0.2911    0.5418    0.0000 C   0  0  0  0  0  0  0  0  0  0  0  0
    0.4205   -0.7197    0.0000 C   0  0  0  0  0  0  0  0  0  0  0  0
    1.2130    0.6388    0.0000 C   0  0  0  0  0  0  0  0  0  0  0  0
   -1.0836   -1.4799    0.0000 C   0  0  0  0  0  0  0  0  0  0  0  0
    1.3424    1.9489    0.0000 C   0  0  0  0  0  0  0  0  0  0  0  0
    1.7468    1.2534    0.0000 C   0  0  0  0  0  0  0  0  0  0  0  0
   -1.7468   -1.8680    0.0000 C   0  0  0  0  0  0  0  0  0  0  0  0
  1  7  1  0  0  0  0
  1 12  1  0  0  0  0
  2  9  2  0  0  0  0
  3  9  1  0  0  0  0
  4 11  2  0  0  0  0
  5  6  1  0  0  0  0
  5 11  1  0  0  0  0
  6  8  1  0  0  0  0
  6  9  1  0  0  0  0
  7  8  1  0  0  0  0
  7 10  2  0  0  0  0
 10 13  1  0  0  0  0
 11 14  1  0  0  0  0
 12 13  2  0  0  0  0
M  END
> <PUBCHEM_COMPOUND_ID_TYPE>
0

> <PUBCHEM_TOTAL_CHARGE>
0

> <PUBCHEM_SUBSTANCE_ID>
310941163

> <PUBCHEM_SUBSTANCE_VERSION>
1

> <PUBCHEM_EXT_DATASOURCE_NAME>
4488

> <PUBCHEM_EXT_DATASOURCE_REGID>
SCHEMBL16119123

> <PUBCHEM_SUBSTANCE_COMMENT>
InChI=1S/C9H11NO4/c1-6(11)10-8(9(12)13)5-7-3-2-4-14-7/h2-4,8H,5H2,1H3,(H,10,11)(H,12,13)
InChIKey=GFVYWXULHGXCNE-UHFFFAOYSA-N

> <PUBCHEM_SUBSTANCE_SYNONYM>
SCHEMBL16119123

> <PUBCHEM_XREF_EXT_ID>
SCHEMBL16119123

> <PUBCHEM_EXT_DATASOURCE_URL>
https://www.surechembl.org/

> <PUBCHEM_EXT_SUBSTANCE_URL>
https://www.surechembl.org/chemical/SCHEMBL16119123

> <PUBCHEM_CID_ASSOCIATIONS>
14519817  1

> <PUBCHEM_COORDINATE_TYPE>
1
3

$$$$
