310942341
  -OEChem-07211613022D

 37 40  0     1  0  0  0  0  0999 V2000
    4.0041    2.4096    0.0000 F   0  0  0  0  0  0  0  0  0  0  0  0
    5.3267    1.8764    0.0000 F   0  0  0  0  0  0  0  0  0  0  0  0
   -1.0100   -2.3686    0.0000 O   0  0  0  0  0  0  0  0  0  0  0  0
   -2.4557    0.1026    0.0000 O   0  0  0  0  0  0  0  0  0  0  0  0
   -3.8913   -2.3788    0.0000 O   0  0  0  0  0  0  0  0  0  0  0  0
    4.7013    0.3384    0.0000 O   0  0  0  0  0  0  0  0  0  0  0  0
    1.0100   -0.8408    0.0000 N   0  0  0  0  0  0  0  0  0  0  0  0
    1.8200   -1.0049    0.0000 N   0  0  0  0  0  0  0  0  0  0  0  0
   -1.7277   -1.1382    0.0000 N   0  0  0  0  0  0  0  0  0  0  0  0
    3.3889    0.9024    0.0000 N   0  0  0  0  0  0  0  0  0  0  0  0
   -4.5987   -1.1382    0.0000 N   0  0  0  0  0  0  0  0  0  0  0  0
    0.5895   -0.1332    0.0000 C   0  0  0  0  0  0  0  0  0  0  0  0
   -0.3025   -1.1176    0.0000 C   0  0  0  0  0  0  0  0  0  0  0  0
    0.4563   -1.4662    0.0000 C   0  0  0  0  0  0  0  0  0  0  0  0
   -0.2101   -0.2974    0.0000 C   0  0  0  0  0  0  0  0  0  0  0  0
    0.9177    0.6357    0.0000 C   0  0  3  0  0  0  0  0  0  0  0  0
   -1.0100   -1.5175    0.0000 C   0  0  0  0  0  0  0  0  0  0  0  0
    0.7229   -2.2456    0.0000 C   0  0  0  0  0  0  0  0  0  0  0  0
    1.7379    0.7178    0.0000 C   0  0  0  0  0  0  0  0  0  0  0  0
   -0.8460    0.2460    0.0000 C   0  0  0  0  0  0  0  0  0  0  0  0
    2.0764   -1.7841    0.0000 C   0  0  0  0  0  0  0  0  0  0  0  0
    1.5329   -2.4096    0.0000 C   0  0  0  0  0  0  0  0  0  0  0  0
    0.4357    1.3022    0.0000 C   0  0  0  0  0  0  0  0  0  0  0  0
    2.0764    1.4765    0.0000 C   0  0  0  0  0  0  0  0  0  0  0  0
    2.2302    0.0615    0.0000 C   0  0  0  0  0  0  0  0  0  0  0  0
   -3.1632   -1.1382    0.0000 C   0  0  0  0  0  0  0  0  0  0  0  0
   -2.4250   -1.5482    0.0000 C   0  0  0  0  0  0  0  0  0  0  0  0
   -3.1632   -0.3178    0.0000 C   0  0  0  0  0  0  0  0  0  0  0  0
    2.8967    1.5688    0.0000 C   0  0  0  0  0  0  0  0  0  0  0  0
    3.0504    0.1436    0.0000 C   0  0  0  0  0  0  0  0  0  0  0  0
   -3.8810   -1.5278    0.0000 C   0  0  0  0  0  0  0  0  0  0  0  0
    4.1886    1.0151    0.0000 C   0  0  0  0  0  0  0  0  0  0  0  0
   -3.9015    0.0820    0.0000 C   0  0  0  0  0  0  0  0  0  0  0  0
   -4.5987   -0.3076    0.0000 C   0  0  0  0  0  0  0  0  0  0  0  0
    4.5167    1.7636    0.0000 C   0  0  0  0  0  0  0  0  0  0  0  0
   -5.3267    0.1026    0.0000 C   0  0  0  0  0  0  0  0  0  0  0  0
   -2.4455    0.9434    0.0000 C   0  0  0  0  0  0  0  0  0  0  0  0
  1 35  1  0  0  0  0
  2 35  1  0  0  0  0
  3 17  2  0  0  0  0
  4 28  1  0  0  0  0
  4 37  1  0  0  0  0
  5 31  2  0  0  0  0
  6 32  2  0  0  0  0
  7  8  1  0  0  0  0
  7 12  1  0  0  0  0
  7 14  1  0  0  0  0
  8 21  2  0  0  0  0
  9 17  1  0  0  0  0
  9 27  1  0  0  0  0
 10 29  1  0  0  0  0
 10 30  1  0  0  0  0
 10 32  1  0  0  0  0
 11 31  1  0  0  0  0
 11 34  1  0  0  0  0
 12 15  2  0  0  0  0
 12 16  1  0  0  0  0
 13 14  2  0  0  0  0
 13 15  1  0  0  0  0
 13 17  1  0  0  0  0
 14 18  1  0  0  0  0
 15 20  1  0  0  0  0
 16 19  1  0  0  0  0
 16 23  1  0  0  0  0
 18 22  2  0  0  0  0
 19 24  1  0  0  0  0
 19 25  1  0  0  0  0
 21 22  1  0  0  0  0
 24 29  1  0  0  0  0
 25 30  1  0  0  0  0
 26 27  1  0  0  0  0
 26 28  2  0  0  0  0
 26 31  1  0  0  0  0
 28 33  1  0  0  0  0
 32 35  1  0  0  0  0
 33 34  2  0  0  0  0
 34 36  1  0  0  0  0
M  END
> <PUBCHEM_COMPOUND_ID_TYPE>
0

> <PUBCHEM_TOTAL_CHARGE>
0

> <PUBCHEM_SUBSTANCE_ID>
310942341

> <PUBCHEM_SUBSTANCE_VERSION>
1

> <PUBCHEM_EXT_DATASOURCE_NAME>
4488

> <PUBCHEM_EXT_DATASOURCE_REGID>
SCHEMBL16120377

> <PUBCHEM_SUBSTANCE_COMMENT>
InChI=1S/C26H31F2N5O4/c1-14-12-20(37-4)18(24(34)31-14)13-29-25(35)21-16(3)22(33-19(21)6-5-9-30-33)15(2)17-7-10-32(11-8-17)26(36)23(27)28/h5-6,9,12,15,17,23H,7-8,10-11,13H2,1-4H3,(H,29,35)(H,31,34)
InChIKey=BXOXBNRPCKINJH-UHFFFAOYSA-N

> <PUBCHEM_SUBSTANCE_SYNONYM>
SCHEMBL16120377

> <PUBCHEM_XREF_EXT_ID>
SCHEMBL16120377

> <PUBCHEM_EXT_DATASOURCE_URL>
https://www.surechembl.org/

> <PUBCHEM_EXT_SUBSTANCE_URL>
https://www.surechembl.org/chemical/SCHEMBL16120377

> <PUBCHEM_CID_ASSOCIATIONS>
117608965  1

> <PUBCHEM_COORDINATE_TYPE>
1
3

$$$$
