310939125
  -OEChem-07211613022D

 23 25  0     1  0  0  0  0  0999 V2000
    0.0000   -0.7145    0.0000 F   0  0  0  0  0  0  0  0  0  0  0  0
    0.0000    2.1434    0.0000 F   0  0  0  0  0  0  0  0  0  0  0  0
   -0.8250    0.7145    0.0000 O   0  0  0  0  0  0  0  0  0  0  0  0
    0.4125   -2.8579    0.0000 O   0  0  0  0  0  0  0  0  0  0  0  0
    2.4750   -0.7145    0.0000 N   0  0  0  0  0  0  0  0  0  0  0  0
    1.2375    0.0000    0.0000 C   0  0  0  0  0  0  0  0  0  0  0  0
    0.4125    0.0000    0.0000 C   0  0  0  0  0  0  0  0  0  0  0  0
    0.0000    0.7145    0.0000 C   0  0  0  0  0  0  0  0  0  0  0  0
    1.6500   -0.7145    0.0000 C   0  0  3  0  0  0  0  0  0  0  0  0
    0.4125    1.4289    0.0000 C   0  0  0  0  0  0  0  0  0  0  0  0
    1.6500    0.7145    0.0000 C   0  0  0  0  0  0  0  0  0  0  0  0
    1.2375   -1.4289    0.0000 C   0  0  0  0  0  0  0  0  0  0  0  0
    1.2375    1.4289    0.0000 C   0  0  0  0  0  0  0  0  0  0  0  0
   -1.2375    1.4289    0.0000 C   0  0  0  0  0  0  0  0  0  0  0  0
    0.4125   -1.4289    0.0000 C   0  0  0  0  0  0  0  0  0  0  0  0
    1.6500   -2.1434    0.0000 C   0  0  0  0  0  0  0  0  0  0  0  0
   -0.8250    2.1434    0.0000 C   0  0  0  0  0  0  0  0  0  0  0  0
   -2.0625    1.4289    0.0000 C   0  0  0  0  0  0  0  0  0  0  0  0
    0.0000   -2.1434    0.0000 C   0  0  0  0  0  0  0  0  0  0  0  0
    1.2375   -2.8579    0.0000 C   0  0  0  0  0  0  0  0  0  0  0  0
   -1.2375    2.8579    0.0000 C   0  0  0  0  0  0  0  0  0  0  0  0
   -2.4750    2.1434    0.0000 C   0  0  0  0  0  0  0  0  0  0  0  0
   -2.0625    2.8579    0.0000 C   0  0  0  0  0  0  0  0  0  0  0  0
  1  7  1  0  0  0  0
  2 10  1  0  0  0  0
  3  8  1  0  0  0  0
  3 14  1  0  0  0  0
  4 19  1  0  0  0  0
  4 20  1  0  0  0  0
  5  9  1  0  0  0  0
  6  7  2  0  0  0  0
  6  9  1  0  0  0  0
  6 11  1  0  0  0  0
  7  8  1  0  0  0  0
  8 10  2  0  0  0  0
  9 12  1  0  0  0  0
 10 13  1  0  0  0  0
 11 13  2  0  0  0  0
 12 15  1  0  0  0  0
 12 16  1  0  0  0  0
 14 17  2  0  0  0  0
 14 18  1  0  0  0  0
 15 19  1  0  0  0  0
 16 20  1  0  0  0  0
 17 21  1  0  0  0  0
 18 22  2  0  0  0  0
 21 23  2  0  0  0  0
 22 23  1  0  0  0  0
M  END
> <PUBCHEM_COMPOUND_ID_TYPE>
0

> <PUBCHEM_TOTAL_CHARGE>
0

> <PUBCHEM_SUBSTANCE_ID>
310939125

> <PUBCHEM_SUBSTANCE_VERSION>
1

> <PUBCHEM_EXT_DATASOURCE_NAME>
4488

> <PUBCHEM_EXT_DATASOURCE_REGID>
SCHEMBL16117046

> <PUBCHEM_SUBSTANCE_COMMENT>
InChI=1S/C18H19F2NO2/c19-15-7-6-14(17(21)12-8-10-22-11-9-12)16(20)18(15)23-13-4-2-1-3-5-13/h1-7,12,17H,8-11,21H2
InChIKey=RWNRPVTZJAXVPY-UHFFFAOYSA-N

> <PUBCHEM_SUBSTANCE_SYNONYM>
SCHEMBL16117046

> <PUBCHEM_XREF_EXT_ID>
SCHEMBL16117046

> <PUBCHEM_EXT_DATASOURCE_URL>
https://www.surechembl.org/

> <PUBCHEM_EXT_SUBSTANCE_URL>
https://www.surechembl.org/chemical/SCHEMBL16117046

> <PUBCHEM_CID_ASSOCIATIONS>
117606480  1

> <PUBCHEM_COORDINATE_TYPE>
1
3

$$$$
