310944996
  -OEChem-07211613022D

 29 33  0     1  0  0  0  0  0999 V2000
    3.0629    1.2636    0.0000 O   0  0  0  0  0  0  0  0  0  0  0  0
   -3.7098   -1.7487    0.0000 O   0  0  0  0  0  0  0  0  0  0  0  0
   -3.7805    0.5863    0.0000 O   0  0  0  0  0  0  0  0  0  0  0  0
    1.5466   -1.0513    0.0000 N   0  0  0  0  0  0  0  0  0  0  0  0
    3.7805    0.0303    0.0000 N   0  0  0  0  0  0  0  0  0  0  0  0
   -1.4152   -0.1213    0.0000 N   0  0  0  0  0  0  0  0  0  0  0  0
   -1.5668   -1.5567    0.0000 N   0  0  0  0  0  0  0  0  0  0  0  0
   -2.4766    0.0101    0.0000 N   0  0  0  0  0  0  0  0  0  0  0  0
    1.0614   -0.3740    0.0000 C   0  0  0  0  0  0  0  0  0  0  0  0
    1.5466    0.2932    0.0000 C   0  0  0  0  0  0  0  0  0  0  0  0
    2.3452    0.0303    0.0000 C   0  0  0  0  0  0  0  0  0  0  0  0
    0.2426   -0.2932    0.0000 C   0  0  0  0  0  0  0  0  0  0  0  0
    2.3351   -0.7884    0.0000 C   0  0  0  0  0  0  0  0  0  0  0  0
   -0.1011    0.4650    0.0000 C   0  0  0  0  0  0  0  0  0  0  0  0
    3.0527    0.4347    0.0000 C   0  0  0  0  0  0  0  0  0  0  0  0
    1.2130    1.0412    0.0000 C   0  0  0  0  0  0  0  0  0  0  0  0
   -0.2527   -0.9603    0.0000 C   0  0  0  0  0  0  0  0  0  0  0  0
    0.3943    1.1322    0.0000 C   0  0  0  0  0  0  0  0  0  0  0  0
   -1.0816   -0.8592    0.0000 C   0  0  0  0  0  0  0  0  0  0  0  0
    3.0831   -1.2029    0.0000 C   0  0  0  0  0  0  0  0  0  0  0  0
   -0.9199    0.5458    0.0000 C   0  0  0  0  0  0  0  0  0  0  0  0
    3.7805   -0.7985    0.0000 C   0  0  0  0  0  0  0  0  0  0  0  0
   -2.3957   -1.4455    0.0000 C   0  0  3  0  0  0  0  0  0  0  0  0
   -2.8101   -0.7480    0.0000 C   0  0  3  0  0  0  0  0  0  0  0  0
   -2.9516   -2.0722    0.0000 C   0  0  0  0  0  0  0  0  0  0  0  0
   -3.6189   -0.9097    0.0000 C   0  0  0  0  0  0  0  0  0  0  0  0
   -2.9314    0.6873    0.0000 C   0  0  0  0  0  0  0  0  0  0  0  0
   -2.6180    1.4455    0.0000 C   0  0  0  0  0  0  0  0  0  0  0  0
   -3.1842    2.0722    0.0000 C   0  0  0  0  0  0  0  0  0  0  0  0
  1 15  2  0  0  0  0
  2 25  1  0  0  0  0
  2 26  1  0  0  0  0
  3 27  2  0  0  0  0
  4  9  1  0  0  0  0
  4 13  1  0  0  0  0
  5 15  1  0  0  0  0
  5 22  1  0  0  0  0
  6 19  2  0  0  0  0
  6 21  1  0  0  0  0
  7 19  1  0  0  0  0
  7 23  1  0  0  0  0
  8 24  1  0  0  0  0
  8 27  1  0  0  0  0
  9 10  2  0  0  0  0
  9 12  1  0  0  0  0
 10 11  1  0  0  0  0
 10 16  1  0  0  0  0
 11 13  2  0  0  0  0
 11 15  1  0  0  0  0
 12 14  1  0  0  0  0
 12 17  2  0  0  0  0
 13 20  1  0  0  0  0
 14 18  1  0  0  0  0
 14 21  2  0  0  0  0
 16 18  1  0  0  0  0
 17 19  1  0  0  0  0
 20 22  1  0  0  0  0
 23 24  1  0  0  0  0
 23 25  1  0  0  0  0
 24 26  1  0  0  0  0
 27 28  1  0  0  0  0
 28 29  2  0  0  0  0
M  END
> <PUBCHEM_COMPOUND_ID_TYPE>
0

> <PUBCHEM_TOTAL_CHARGE>
0

> <PUBCHEM_SUBSTANCE_ID>
310944996

> <PUBCHEM_SUBSTANCE_VERSION>
1

> <PUBCHEM_EXT_DATASOURCE_NAME>
4488

> <PUBCHEM_EXT_DATASOURCE_REGID>
SCHEMBL16123084

> <PUBCHEM_SUBSTANCE_COMMENT>
InChI=1S/C21H23N5O3/c1-2-18(27)25-16-10-29-9-15(16)24-17-7-13-11(8-23-17)3-4-12-19-14(26-20(12)13)5-6-22-21(19)28/h2,7-8,15-16,26H,1,3-6,9-10H2,(H,22,28)(H,23,24)(H,25,27)
InChIKey=BTWGWKBCNQJKFZ-UHFFFAOYSA-N

> <PUBCHEM_SUBSTANCE_SYNONYM>
SCHEMBL16123084

> <PUBCHEM_XREF_EXT_ID>
SCHEMBL16123084

> <PUBCHEM_EXT_DATASOURCE_URL>
https://www.surechembl.org/

> <PUBCHEM_EXT_SUBSTANCE_URL>
https://www.surechembl.org/chemical/SCHEMBL16123084

> <PUBCHEM_CID_ASSOCIATIONS>
117611136  1

> <PUBCHEM_COORDINATE_TYPE>
1
3

$$$$
