310934948
  -OEChem-07211613022D

 28 31  0     1  0  0  0  0  0999 V2000
    1.8442   -1.9609    0.0000 F   0  0  0  0  0  0  0  0  0  0  0  0
    7.0034   -0.6770    0.0000 F   0  0  0  0  0  0  0  0  0  0  0  0
    5.8361   -2.9414    0.0000 O   0  0  0  0  0  0  0  0  0  0  0  0
    6.6532   -1.5174    0.0000 O   0  0  0  0  0  0  0  0  0  0  0  0
    0.4436   -3.0815    0.0000 N   0  0  0  0  0  0  0  0  0  0  0  0
    5.8361   -1.5174    0.0000 N   0  0  0  0  0  0  0  0  0  0  0  0
    0.0000   -3.8052    0.0000 N   0  0  0  0  0  0  0  0  0  0  0  0
    4.5755   -2.2178    0.0000 C   0  0  3  0  0  0  0  0  0  0  0  0
    4.9724   -1.4707    0.0000 C   0  0  0  0  0  0  0  0  0  0  0  0
    3.3149   -2.6380    0.0000 C   0  0  3  0  0  0  0  0  0  0  0  0
    4.1087   -2.8947    0.0000 C   0  0  0  0  0  0  0  0  0  0  0  0
    2.6613   -3.1048    0.0000 C   0  0  0  0  0  0  0  0  0  0  0  0
    4.1087   -1.5407    0.0000 C   0  0  0  0  0  0  0  0  0  0  0  0
    5.4159   -2.2178    0.0000 C   0  0  0  0  0  0  0  0  0  0  0  0
    1.9143   -2.7780    0.0000 C   0  0  0  0  0  0  0  0  0  0  0  0
    1.2372   -3.2449    0.0000 C   0  0  0  0  0  0  0  0  0  0  0  0
    3.3149   -1.8209    0.0000 C   0  0  0  0  0  0  0  0  0  0  0  0
    5.9529   -1.6108    0.0000 C   0  0  0  0  0  0  0  0  0  0  0  0
    1.3306   -4.1087    0.0000 C   0  0  0  0  0  0  0  0  0  0  0  0
    2.7313   -3.9686    0.0000 C   0  0  0  0  0  0  0  0  0  0  0  0
    4.5289   -0.7704    0.0000 C   0  0  0  0  0  0  0  0  0  0  0  0
    2.0777   -4.4355    0.0000 C   0  0  0  0  0  0  0  0  0  0  0  0
    6.1630   -0.7003    0.0000 C   0  0  0  0  0  0  0  0  0  0  0  0
    0.5603   -4.4121    0.0000 C   0  0  0  0  0  0  0  0  0  0  0  0
    4.9024   -0.0467    0.0000 C   0  0  0  0  0  0  0  0  0  0  0  0
    5.7194    0.0000    0.0000 C   0  0  0  0  0  0  0  0  0  0  0  0
    6.2330   -2.1244    0.0000 C   0  0  0  0  0  0  0  0  0  0  0  0
    0.0934   -2.3345    0.0000 C   0  0  0  0  0  0  0  0  0  0  0  0
  1 15  1  0  0  0  0
  2 23  1  0  0  0  0
  3 14  2  0  0  0  0
  4  6  1  0  0  0  0
  5  7  1  0  0  0  0
  5 16  1  0  0  0  0
  5 28  1  0  0  0  0
  6 14  1  0  0  0  0
  7 24  2  0  0  0  0
  8  9  1  0  0  0  0
  8 11  1  0  0  0  0
  8 13  1  0  0  0  0
  8 14  1  0  0  0  0
  9 18  1  0  0  0  0
  9 21  2  0  0  0  0
 10 11  1  0  0  0  0
 10 12  1  0  0  0  0
 10 17  1  0  0  0  0
 12 15  2  0  0  0  0
 12 20  1  0  0  0  0
 13 17  1  0  0  0  0
 15 16  1  0  0  0  0
 16 19  2  0  0  0  0
 18 23  2  0  0  0  0
 18 27  1  0  0  0  0
 19 22  1  0  0  0  0
 19 24  1  0  0  0  0
 20 22  2  0  0  0  0
 21 25  1  0  0  0  0
 23 26  1  0  0  0  0
 25 26  2  0  0  0  0
M  END
> <PUBCHEM_COMPOUND_ID_TYPE>
0

> <PUBCHEM_TOTAL_CHARGE>
0

> <PUBCHEM_SUBSTANCE_ID>
310934948

> <PUBCHEM_SUBSTANCE_VERSION>
1

> <PUBCHEM_EXT_DATASOURCE_NAME>
4488

> <PUBCHEM_EXT_DATASOURCE_REGID>
SCHEMBL16112463

> <PUBCHEM_SUBSTANCE_COMMENT>
InChI=1S/C21H21F2N3O2/c1-12-16(4-3-5-17(12)22)21(20(27)25-28)9-8-13(10-21)15-7-6-14-11-24-26(2)19(14)18(15)23/h3-7,11,13,28H,8-10H2,1-2H3,(H,25,27)
InChIKey=CFMBAUBXRNMZPH-UHFFFAOYSA-N

> <PUBCHEM_SUBSTANCE_SYNONYM>
SCHEMBL16112463

> <PUBCHEM_XREF_EXT_ID>
SCHEMBL16112463

> <PUBCHEM_EXT_DATASOURCE_URL>
https://www.surechembl.org/

> <PUBCHEM_EXT_SUBSTANCE_URL>
https://www.surechembl.org/chemical/SCHEMBL16112463

> <PUBCHEM_CID_ASSOCIATIONS>
117603070  1

> <PUBCHEM_COORDINATE_TYPE>
1
3

$$$$
