310931794
  -OEChem-07211613022D

 21 19  0     1  0  0  0  0  0999 V2000
    5.3436   -2.1934    0.0000 S   0  0  0  0  0  0  0  0  0  0  0  0
    6.5803   -2.9168    0.0000 F   0  0  0  0  0  0  0  0  0  0  0  0
    6.5803   -1.4700    0.0000 F   0  0  0  0  0  0  0  0  0  0  0  0
    7.0003   -2.1934    0.0000 F   0  0  0  0  0  0  0  0  0  0  0  0
    4.5502   -2.1934    0.0000 O   0  5  0  0  0  0  0  0  0  0  0  0
    5.3436   -1.2834    0.0000 O   0  0  0  0  0  0  0  0  0  0  0  0
    5.3436   -3.0101    0.0000 O   0  0  0  0  0  0  0  0  0  0  0  0
    2.0534   -1.4234    0.0000 O   0  0  0  0  0  0  0  0  0  0  0  0
    2.0767   -2.8701    0.0000 N   0  3  0  0  0  0  0  0  0  0  0  0
    0.8401   -2.1468    0.0000 N   0  0  0  0  0  0  0  0  0  0  0  0
    6.1836   -2.1934    0.0000 C   0  0  0  0  0  0  0  0  0  0  0  0
    1.2367   -2.8701    0.0000 C   0  0  3  0  0  0  0  0  0  0  0  0
    1.2367   -1.4234    0.0000 C   0  0  0  0  0  0  0  0  0  0  0  0
    0.8401   -3.5935    0.0000 C   0  0  0  0  0  0  0  0  0  0  0  0
    0.8401   -0.7234    0.0000 C   0  0  0  0  0  0  0  0  0  0  0  0
    2.4968   -3.5935    0.0000 C   0  0  0  0  0  0  0  0  0  0  0  0
    2.4968   -2.1468    0.0000 C   0  0  0  0  0  0  0  0  0  0  0  0
    2.8934   -2.8701    0.0000 C   0  0  0  0  0  0  0  0  0  0  0  0
    1.2367   -4.2935    0.0000 C   0  0  0  0  0  0  0  0  0  0  0  0
    1.2601    0.0000    0.0000 C   0  0  0  0  0  0  0  0  0  0  0  0
    0.0000   -0.7234    0.0000 C   0  0  0  0  0  0  0  0  0  0  0  0
  1  5  1  0  0  0  0
  1  6  2  0  0  0  0
  1  7  2  0  0  0  0
  1 11  1  0  0  0  0
  2 11  1  0  0  0  0
  3 11  1  0  0  0  0
  4 11  1  0  0  0  0
  8 13  2  0  0  0  0
  9 12  1  0  0  0  0
  9 16  1  0  0  0  0
  9 17  1  0  0  0  0
  9 18  1  0  0  0  0
 10 12  1  0  0  0  0
 10 13  1  0  0  0  0
 12 14  1  0  0  0  0
 13 15  1  0  0  0  0
 14 19  1  0  0  0  0
 15 20  2  0  0  0  0
 15 21  1  0  0  0  0
M  CHG  2   5  -1   9   1
M  END
> <PUBCHEM_COMPOUND_ID_TYPE>
0

> <PUBCHEM_TOTAL_CHARGE>
0

> <PUBCHEM_SUBSTANCE_ID>
310931794

> <PUBCHEM_SUBSTANCE_VERSION>
1

> <PUBCHEM_EXT_DATASOURCE_NAME>
4488

> <PUBCHEM_EXT_DATASOURCE_REGID>
SCHEMBL16109126

> <PUBCHEM_SUBSTANCE_COMMENT>
InChI=1S/C10H20N2O.CHF3O3S/c1-7-9(12(4,5)6)11-10(13)8(2)3;2-1(3,4)8(5,6)7/h9H,2,7H2,1,3-6H3;(H,5,6,7)
InChIKey=JLXRGSKOUCWVFC-UHFFFAOYSA-N

> <PUBCHEM_SUBSTANCE_SYNONYM>
SCHEMBL16109126

> <PUBCHEM_XREF_EXT_ID>
SCHEMBL16109126

> <PUBCHEM_EXT_DATASOURCE_URL>
https://www.surechembl.org/

> <PUBCHEM_EXT_SUBSTANCE_URL>
https://www.surechembl.org/chemical/SCHEMBL16109126

> <PUBCHEM_CID_ASSOCIATIONS>
117600475  1
62406  2
10466073  2

> <PUBCHEM_COORDINATE_TYPE>
1
3

$$$$
