310938025
  -OEChem-07211613022D

 38 42  0     1  0  0  0  0  0999 V2000
    4.3421   -5.3407    0.0000 O   0  0  0  0  0  0  0  0  0  0  0  0
    7.2512   -5.3841    0.0000 O   0  0  0  0  0  0  0  0  0  0  0  0
    6.5999   -2.6052    0.0000 N   0  0  3  0  0  0  0  0  0  0  0  0
    5.7749   -5.3407    0.0000 N   0  0  0  0  0  0  0  0  0  0  0  0
    2.2144   -2.4750    0.0000 N   0  0  0  0  0  0  0  0  0  0  0  0
    1.4329   -1.2592    0.0000 N   0  0  0  0  0  0  0  0  0  0  0  0
    7.9460   -6.5999    0.0000 N   0  0  0  0  0  0  0  0  0  0  0  0
    0.0000   -0.4342    0.0000 N   0  0  0  0  0  0  0  0  0  0  0  0
    5.7749   -3.6907    0.0000 C   0  0  0  0  0  0  0  0  0  0  0  0
    5.7749   -2.8658    0.0000 C   0  0  0  0  0  0  0  0  0  0  0  0
    5.0802   -4.1250    0.0000 C   0  0  0  0  0  0  0  0  0  0  0  0
    4.3421   -2.8658    0.0000 C   0  0  0  0  0  0  0  0  0  0  0  0
    5.0802   -2.4750    0.0000 C   0  0  0  0  0  0  0  0  0  0  0  0
    4.3421   -3.6907    0.0000 C   0  0  0  0  0  0  0  0  0  0  0  0
    6.5999   -3.9513    0.0000 C   0  0  0  0  0  0  0  0  0  0  0  0
    5.0802   -4.9499    0.0000 C   0  0  0  0  0  0  0  0  0  0  0  0
    3.6473   -2.4750    0.0000 C   0  0  0  0  0  0  0  0  0  0  0  0
    7.0776   -3.3000    0.0000 C   0  0  0  0  0  0  0  0  0  0  0  0
    6.5131   -6.5999    0.0000 C   0  0  0  0  0  0  0  0  0  0  0  0
    6.8170   -1.8237    0.0000 C   0  0  0  0  0  0  0  0  0  0  0  0
    2.9092   -2.8658    0.0000 C   0  0  0  0  0  0  0  0  0  0  0  0
    3.6039   -1.6500    0.0000 C   0  0  0  0  0  0  0  0  0  0  0  0
    6.5131   -7.4249    0.0000 C   0  0  0  0  0  0  0  0  0  0  0  0
    5.7749   -6.2091    0.0000 C   0  0  0  0  0  0  0  0  0  0  0  0
    2.1710   -1.6500    0.0000 C   0  0  0  0  0  0  0  0  0  0  0  0
    7.2512   -6.2091    0.0000 C   0  0  0  0  0  0  0  0  0  0  0  0
    2.9092   -1.2592    0.0000 C   0  0  0  0  0  0  0  0  0  0  0  0
    7.2078   -7.8591    0.0000 C   0  0  0  0  0  0  0  0  0  0  0  0
    7.9460   -7.4683    0.0000 C   0  0  0  0  0  0  0  0  0  0  0  0
    5.8184   -7.8591    0.0000 C   0  0  0  0  0  0  0  0  0  0  0  0
    6.2960   -1.2158    0.0000 C   0  0  0  0  0  0  0  0  0  0  0  0
    1.4329   -0.4342    0.0000 C   0  0  0  0  0  0  0  0  0  0  0  0
    0.7381   -1.6500    0.0000 C   0  0  0  0  0  0  0  0  0  0  0  0
    8.6841   -7.8591    0.0000 C   0  0  0  0  0  0  0  0  0  0  0  0
    5.8184   -8.6841    0.0000 C   0  0  0  0  0  0  0  0  0  0  0  0
    5.0802   -7.4683    0.0000 C   0  0  0  0  0  0  0  0  0  0  0  0
    0.0000   -1.2592    0.0000 C   0  0  0  0  0  0  0  0  0  0  0  0
    0.7381    0.0000    0.0000 C   0  0  0  0  0  0  0  0  0  0  0  0
  1 16  2  0  0  0  0
  2 26  2  0  0  0  0
  3 10  1  0  0  0  0
  3 18  1  0  0  0  0
  3 20  1  0  0  0  0
  4 16  1  0  0  0  0
  4 24  1  0  0  0  0
  5 21  1  0  0  0  0
  5 25  2  0  0  0  0
  6 25  1  0  0  0  0
  6 32  1  0  0  0  0
  6 33  1  0  0  0  0
  7 26  1  0  0  0  0
  7 29  1  0  0  0  0
  8 37  1  0  0  0  0
  8 38  1  0  0  0  0
  9 10  2  0  0  0  0
  9 11  1  0  0  0  0
  9 15  1  0  0  0  0
 10 13  1  0  0  0  0
 11 14  2  0  0  0  0
 11 16  1  0  0  0  0
 12 13  2  0  0  0  0
 12 14  1  0  0  0  0
 12 17  1  0  0  0  0
 15 18  1  0  0  0  0
 17 21  2  0  0  0  0
 17 22  1  0  0  0  0
 19 23  2  0  0  0  0
 19 24  1  0  0  0  0
 19 26  1  0  0  0  0
 20 31  1  0  0  0  0
 22 27  2  0  0  0  0
 23 28  1  0  0  0  0
 23 30  1  0  0  0  0
 25 27  1  0  0  0  0
 28 29  2  0  0  0  0
 29 34  1  0  0  0  0
 30 35  1  0  0  0  0
 30 36  1  0  0  0  0
 32 38  1  0  0  0  0
 33 37  1  0  0  0  0
M  END
> <PUBCHEM_COMPOUND_ID_TYPE>
0

> <PUBCHEM_TOTAL_CHARGE>
0

> <PUBCHEM_SUBSTANCE_ID>
310938025

> <PUBCHEM_SUBSTANCE_VERSION>
1

> <PUBCHEM_EXT_DATASOURCE_NAME>
4488

> <PUBCHEM_EXT_DATASOURCE_REGID>
SCHEMBL16115865

> <PUBCHEM_SUBSTANCE_COMMENT>
InChI=1S/C30H38N6O2/c1-5-35-11-8-23-25(29(37)33-18-26-24(19(2)3)14-20(4)34-30(26)38)15-22(16-27(23)35)21-6-7-28(32-17-21)36-12-9-31-10-13-36/h6-7,14-17,19,31H,5,8-13,18H2,1-4H3,(H,33,37)(H,34,38)
InChIKey=UYRAEGGTDBGUDJ-UHFFFAOYSA-N

> <PUBCHEM_SUBSTANCE_SYNONYM>
SCHEMBL16115865

> <PUBCHEM_XREF_EXT_ID>
SCHEMBL16115865

> <PUBCHEM_EXT_DATASOURCE_URL>
https://www.surechembl.org/

> <PUBCHEM_EXT_SUBSTANCE_URL>
https://www.surechembl.org/chemical/SCHEMBL16115865

> <PUBCHEM_CID_ASSOCIATIONS>
86274360  1

> <PUBCHEM_COORDINATE_TYPE>
1
3

$$$$
