310928744
  -OEChem-07211613022D

 13 14  0     1  0  0  0  0  0999 V2000
   -1.9950    0.2198    0.0000 Br  0  0  0  0  0  0  0  0  0  0  0  0
    0.6046    1.4302    0.0000 O   0  0  0  0  0  0  0  0  0  0  0  0
    1.9950    1.0184    0.0000 O   0  0  0  0  0  0  0  0  0  0  0  0
    0.1484   -0.1927    0.0000 C   0  0  0  0  0  0  0  0  0  0  0  0
    0.9331    0.0622    0.0000 C   0  0  3  0  0  0  0  0  0  0  0  0
    0.1484   -1.0177    0.0000 C   0  0  0  0  0  0  0  0  0  0  0  0
   -0.5660    0.2198    0.0000 C   0  0  0  0  0  0  0  0  0  0  0  0
    1.4180   -0.6052    0.0000 C   0  0  0  0  0  0  0  0  0  0  0  0
    0.9331   -1.2727    0.0000 C   0  0  0  0  0  0  0  0  0  0  0  0
    1.1880    0.8468    0.0000 C   0  0  0  0  0  0  0  0  0  0  0  0
   -1.2805   -0.1927    0.0000 C   0  0  0  0  0  0  0  0  0  0  0  0
   -0.5660   -1.4302    0.0000 C   0  0  0  0  0  0  0  0  0  0  0  0
   -1.2805   -1.0177    0.0000 C   0  0  0  0  0  0  0  0  0  0  0  0
  1 11  1  0  0  0  0
  2 10  2  0  0  0  0
  3 10  1  0  0  0  0
  4  5  1  0  0  0  0
  4  6  2  0  0  0  0
  4  7  1  0  0  0  0
  5  8  1  0  0  0  0
  5 10  1  0  0  0  0
  6  9  1  0  0  0  0
  6 12  1  0  0  0  0
  7 11  2  0  0  0  0
  8  9  1  0  0  0  0
 11 13  1  0  0  0  0
 12 13  2  0  0  0  0
M  END
> <PUBCHEM_COMPOUND_ID_TYPE>
0

> <PUBCHEM_TOTAL_CHARGE>
0

> <PUBCHEM_SUBSTANCE_ID>
310928744

> <PUBCHEM_SUBSTANCE_VERSION>
1

> <PUBCHEM_EXT_DATASOURCE_NAME>
11752

> <PUBCHEM_EXT_DATASOURCE_REGID>
BD267495

> <PUBCHEM_SUBSTANCE_SYNONYM>
52651-16-8
6-Bromo-2,3-dihydro-1H-indene-1-carboxylic acid

> <PUBCHEM_GENERIC_REGISTRY_NAME>
52651-16-8

> <PUBCHEM_XREF_EXT_ID>
BD267495

> <PUBCHEM_EXT_DATASOURCE_URL>
http://www.bidepharmatech.com/en/index.html

> <PUBCHEM_EXT_SUBSTANCE_URL>
http://www.bidepharmatech.com/en/goodsview_goodscode_BD267495.html

> <PUBCHEM_CID_ASSOCIATIONS>
12318484  1

> <PUBCHEM_COORDINATE_TYPE>
1
3

$$$$
