310932700
  -OEChem-07211613022D

 11 10  0     1  0  0  0  0  0999 V2000
    0.0000   -1.5033    0.0000 Cl  0  0  0  0  0  0  0  0  0  0  0  0
    1.6500   -1.5033    0.0000 Cl  0  0  0  0  0  0  0  0  0  0  0  0
    4.1068   -1.5950    0.0000 N   0  0  3  0  0  0  0  0  0  0  0  0
    5.4817   -3.0067    0.0000 N   0  0  0  0  0  0  0  0  0  0  0  0
    4.3084   -0.7883    0.0000 C   0  0  0  0  0  0  0  0  0  0  0  0
    4.6751   -2.1634    0.0000 C   0  0  0  0  0  0  0  0  0  0  0  0
    4.1068    0.0000    0.0000 C   0  0  0  0  0  0  0  0  0  0  0  0
    4.8951   -0.1833    0.0000 C   0  0  0  0  0  0  0  0  0  0  0  0
    4.6751   -3.0067    0.0000 C   0  0  0  0  0  0  0  0  0  0  0  0
    5.5001   -2.1634    0.0000 C   0  0  0  0  0  0  0  0  0  0  0  0
    3.3001   -1.7967    0.0000 C   0  0  0  0  0  0  0  0  0  0  0  0
  3  5  1  0  0  0  0
  3  6  1  0  0  0  0
  3 11  1  0  0  0  0
  4  9  1  0  0  0  0
  4 10  1  0  0  0  0
  5  7  1  0  0  0  0
  5  8  1  0  0  0  0
  6  9  1  0  0  0  0
  6 10  1  0  0  0  0
  7  8  1  0  0  0  0
M  END
> <PUBCHEM_COMPOUND_ID_TYPE>
0

> <PUBCHEM_TOTAL_CHARGE>
0

> <PUBCHEM_SUBSTANCE_ID>
310932700

> <PUBCHEM_SUBSTANCE_VERSION>
1

> <PUBCHEM_EXT_DATASOURCE_NAME>
4488

> <PUBCHEM_EXT_DATASOURCE_REGID>
SCHEMBL16110082

> <PUBCHEM_SUBSTANCE_COMMENT>
InChI=1S/C7H14N2.2ClH/c1-9(6-2-3-6)7-4-8-5-7;;/h6-8H,2-5H2,1H3;2*1H
InChIKey=XCXAPNZCGKXJNG-UHFFFAOYSA-N

> <PUBCHEM_SUBSTANCE_SYNONYM>
SCHEMBL16110082

> <PUBCHEM_XREF_EXT_ID>
SCHEMBL16110082

> <PUBCHEM_EXT_DATASOURCE_URL>
https://www.surechembl.org/

> <PUBCHEM_EXT_SUBSTANCE_URL>
https://www.surechembl.org/chemical/SCHEMBL16110082

> <PUBCHEM_CID_ASSOCIATIONS>
117601209  1
313  2
62783698  2

> <PUBCHEM_COORDINATE_TYPE>
1
3

$$$$
