310938748
  -OEChem-07211613022D

 61 64  0     1  0  0  0  0  0999 V2000
    6.9310   -2.0874    0.0000 I   0  0  0  0  0  0  0  0  0  0  0  0
   -4.5186   -0.8375    0.0000 S   0  0  0  0  0  0  0  0  0  0  0  0
    2.1562   -0.8375    0.0000 F   0  0  0  0  0  0  0  0  0  0  0  0
   -4.5186   -1.6750    0.0000 O   0  0  0  0  0  0  0  0  0  0  0  0
   -4.5186    0.0000    0.0000 O   0  0  0  0  0  0  0  0  0  0  0  0
   -7.2184   -0.1125    0.0000 O   0  0  0  0  0  0  0  0  0  0  0  0
   -8.3558   -1.2499    0.0000 O   0  0  0  0  0  0  0  0  0  0  0  0
   -1.1812   -0.8375    0.0000 O   0  0  0  0  0  0  0  0  0  0  0  0
   -6.7934    1.6624    0.0000 O   0  0  0  0  0  0  0  0  0  0  0  0
   -3.1936    1.2499    0.0000 O   0  0  0  0  0  0  0  0  0  0  0  0
    8.3558   -1.2499    0.0000 O   0  0  0  0  0  0  0  0  0  0  0  0
    6.1934    2.4999    0.0000 O   0  0  0  0  0  0  0  0  0  0  0  0
    4.0311    0.4125    0.0000 O   0  0  0  0  0  0  0  0  0  0  0  0
    1.8687    1.6624    0.0000 O   0  0  0  0  0  0  0  0  0  0  0  0
   -1.0187    2.4999    0.0000 O   0  0  0  0  0  0  0  0  0  0  0  0
   -5.3310   -0.8375    0.0000 N   0  0  3  0  0  0  0  0  0  0  0  0
   -7.4934   -1.2499    0.0000 N   0  0  0  0  0  0  0  0  0  0  0  0
   -5.3434    1.6624    0.0000 N   0  0  0  0  0  0  0  0  0  0  0  0
    4.7685    1.6624    0.0000 N   0  0  0  0  0  0  0  0  0  0  0  0
    7.0559    1.2499    0.0000 N   0  0  0  0  0  0  0  0  0  0  0  0
   -0.2812    1.2499    0.0000 N   0  0  0  0  0  0  0  0  0  0  0  0
   -6.0684   -1.2499    0.0000 C   0  0  0  0  0  0  0  0  0  0  0  0
   -6.7810   -0.8500    0.0000 C   0  0  0  0  0  0  0  0  0  0  0  0
   -3.6687   -0.8375    0.0000 C   0  0  0  0  0  0  0  0  0  0  0  0
   -6.7684   -1.6624    0.0000 C   0  0  0  0  0  0  0  0  0  0  0  0
   -5.3434   -1.6624    0.0000 C   0  0  0  0  0  0  0  0  0  0  0  0
   -5.3434    0.0000    0.0000 C   0  0  0  0  0  0  0  0  0  0  0  0
   -6.7684   -2.4999    0.0000 C   0  0  0  0  0  0  0  0  0  0  0  0
   -5.3434   -2.4999    0.0000 C   0  0  0  0  0  0  0  0  0  0  0  0
   -3.2561   -1.5499    0.0000 C   0  0  0  0  0  0  0  0  0  0  0  0
   -3.2561   -0.1249    0.0000 C   0  0  0  0  0  0  0  0  0  0  0  0
   -6.0560    0.4250    0.0000 C   0  0  0  0  0  0  0  0  0  0  0  0
   -2.0187   -0.8375    0.0000 C   0  0  0  0  0  0  0  0  0  0  0  0
   -2.4186   -1.5499    0.0000 C   0  0  0  0  0  0  0  0  0  0  0  0
   -2.4186   -0.1249    0.0000 C   0  0  0  0  0  0  0  0  0  0  0  0
   -6.0435    1.2499    0.0000 C   0  0  0  0  0  0  0  0  0  0  0  0
   -0.3312   -0.8375    0.0000 C   0  0  0  0  0  0  0  0  0  0  0  0
    0.0812   -1.5499    0.0000 C   0  0  0  0  0  0  0  0  0  0  0  0
    0.0812   -0.1249    0.0000 C   0  0  0  0  0  0  0  0  0  0  0  0
   -4.6060    1.2499    0.0000 C   0  0  0  0  0  0  0  0  0  0  0  0
    0.9062   -1.5499    0.0000 C   0  0  0  0  0  0  0  0  0  0  0  0
    0.9062   -0.1249    0.0000 C   0  0  0  0  0  0  0  0  0  0  0  0
    1.3187   -0.8375    0.0000 C   0  0  0  0  0  0  0  0  0  0  0  0
   -3.9061    1.6624    0.0000 C   0  0  0  0  0  0  0  0  0  0  0  0
    6.2185    0.0000    0.0000 C   0  0  0  0  0  0  0  0  0  0  0  0
    6.9310   -1.2375    0.0000 C   0  0  0  0  0  0  0  0  0  0  0  0
    5.4810    1.2499    0.0000 C   0  0  3  0  0  0  0  0  0  0  0  0
    7.6309   -0.8250    0.0000 C   0  0  0  0  0  0  0  0  0  0  0  0
    6.2185   -0.8250    0.0000 C   0  0  0  0  0  0  0  0  0  0  0  0
    5.4810    0.4250    0.0000 C   0  0  0  0  0  0  0  0  0  0  0  0
    6.9310    0.4000    0.0000 C   0  0  0  0  0  0  0  0  0  0  0  0
    7.6434    0.0000    0.0000 C   0  0  0  0  0  0  0  0  0  0  0  0
    6.1934    1.6499    0.0000 C   0  0  0  0  0  0  0  0  0  0  0  0
    4.0436    1.2624    0.0000 C   0  0  0  0  0  0  0  0  0  0  0  0
   -2.4686    1.6624    0.0000 C   0  0  0  0  0  0  0  0  0  0  0  0
    3.3061    1.6624    0.0000 C   0  0  0  0  0  0  0  0  0  0  0  0
   -1.7187    1.2499    0.0000 C   0  0  0  0  0  0  0  0  0  0  0  0
    2.5937    1.2499    0.0000 C   0  0  0  0  0  0  0  0  0  0  0  0
   -1.0187    1.6499    0.0000 C   0  0  0  0  0  0  0  0  0  0  0  0
    1.1687    1.2499    0.0000 C   0  0  0  0  0  0  0  0  0  0  0  0
    0.4187    1.6624    0.0000 C   0  0  0  0  0  0  0  0  0  0  0  0
  1 46  1  0  0  0  0
  2  4  2  0  0  0  0
  2  5  2  0  0  0  0
  2 16  1  0  0  0  0
  2 24  1  0  0  0  0
  3 43  1  0  0  0  0
  6 23  2  0  0  0  0
  7 17  1  0  0  0  0
  8 33  1  0  0  0  0
  8 37  1  0  0  0  0
  9 36  2  0  0  0  0
 10 44  1  0  0  0  0
 10 55  1  0  0  0  0
 11 48  1  0  0  0  0
 12 53  2  0  0  0  0
 13 54  2  0  0  0  0
 14 58  1  0  0  0  0
 14 60  1  0  0  0  0
 15 59  2  0  0  0  0
 16 22  1  0  0  0  0
 16 27  1  0  0  0  0
 17 23  1  0  0  0  0
 18 36  1  0  0  0  0
 18 40  1  0  0  0  0
 19 47  1  0  0  0  0
 19 54  1  0  0  0  0
 20 53  1  0  0  0  0
 21 59  1  0  0  0  0
 21 61  1  0  0  0  0
 22 23  1  0  0  0  0
 22 25  1  0  0  0  0
 22 26  1  0  0  0  0
 24 30  2  0  0  0  0
 24 31  1  0  0  0  0
 25 28  1  0  0  0  0
 26 29  1  0  0  0  0
 27 32  1  0  0  0  0
 28 29  1  0  0  0  0
 30 34  1  0  0  0  0
 31 35  2  0  0  0  0
 32 36  1  0  0  0  0
 33 34  2  0  0  0  0
 33 35  1  0  0  0  0
 37 38  2  0  0  0  0
 37 39  1  0  0  0  0
 38 41  1  0  0  0  0
 39 42  2  0  0  0  0
 40 44  1  0  0  0  0
 41 43  2  0  0  0  0
 42 43  1  0  0  0  0
 45 49  2  0  0  0  0
 45 50  1  0  0  0  0
 45 51  1  0  0  0  0
 46 48  2  0  0  0  0
 46 49  1  0  0  0  0
 47 50  1  0  0  0  0
 47 53  1  0  0  0  0
 48 52  1  0  0  0  0
 51 52  2  0  0  0  0
 54 56  1  0  0  0  0
 55 57  1  0  0  0  0
 56 58  1  0  0  0  0
 57 59  1  0  0  0  0
 60 61  1  0  0  0  0
M  END
> <PUBCHEM_COMPOUND_ID_TYPE>
0

> <PUBCHEM_TOTAL_CHARGE>
0

> <PUBCHEM_SUBSTANCE_ID>
310938748

> <PUBCHEM_SUBSTANCE_VERSION>
1

> <PUBCHEM_EXT_DATASOURCE_NAME>
4488

> <PUBCHEM_EXT_DATASOURCE_REGID>
SCHEMBL16116664

> <PUBCHEM_SUBSTANCE_COMMENT>
InChI=1S/C40H50FIN6O12S/c41-28-4-6-29(7-5-28)60-30-8-10-31(11-9-30)61(56,57)48(40(39(54)47-55)16-1-2-17-40)20-13-35(50)44-18-23-58-21-14-36(51)45-19-24-59-22-15-37(52)46-33(38(43)53)26-27-3-12-34(49)32(42)25-27/h3-12,25,33,49,55H,1-2,13-24,26H2,(H2,43,53)(H,44,50)(H,45,51)(H,46,52)(H,47,54)
InChIKey=RYWLFBLSXHPLGL-UHFFFAOYSA-N

> <PUBCHEM_SUBSTANCE_SYNONYM>
SCHEMBL16116664

> <PUBCHEM_XREF_EXT_ID>
SCHEMBL16116664

> <PUBCHEM_EXT_DATASOURCE_URL>
https://www.surechembl.org/

> <PUBCHEM_EXT_SUBSTANCE_URL>
https://www.surechembl.org/chemical/SCHEMBL16116664

> <PUBCHEM_CID_ASSOCIATIONS>
117606162  1

> <PUBCHEM_COORDINATE_TYPE>
1
3

$$$$
