310943860
  -OEChem-07211613022D

 24 26  0     1  0  0  0  0  0999 V2000
   -1.5544   -1.3149    0.0000 N   0  0  3  0  0  0  0  0  0  0  0  0
    2.7357    1.2034    0.0000 N   0  0  0  0  0  0  0  0  0  0  0  0
   -3.3262   -0.7689    0.0000 N   0  0  3  0  0  0  0  0  0  0  0  0
    0.5961    1.7829    0.0000 N   0  0  0  0  0  0  0  0  0  0  0  0
    4.1508    1.2146    0.0000 N   0  0  0  0  0  0  0  0  0  0  0  0
    1.3093   -0.4680    0.0000 C   0  0  0  0  0  0  0  0  0  0  0  0
    0.5738   -0.0557    0.0000 C   0  0  0  0  0  0  0  0  0  0  0  0
    2.0113   -0.0446    0.0000 C   0  0  0  0  0  0  0  0  0  0  0  0
   -0.1281   -1.3037    0.0000 C   0  0  0  0  0  0  0  0  0  0  0  0
   -0.1170   -0.4680    0.0000 C   0  0  0  0  0  0  0  0  0  0  0  0
    1.2982   -1.2926    0.0000 C   0  0  0  0  0  0  0  0  0  0  0  0
    0.6073   -1.7049    0.0000 C   0  0  0  0  0  0  0  0  0  0  0  0
   -0.8190   -1.7160    0.0000 C   0  0  0  0  0  0  0  0  0  0  0  0
    2.0225    0.7912    0.0000 C   0  0  0  0  0  0  0  0  0  0  0  0
    2.7357   -0.4569    0.0000 C   0  0  0  0  0  0  0  0  0  0  0  0
    0.5850    0.9694    0.0000 C   0  0  0  0  0  0  0  0  0  0  0  0
    3.4488    0.8023    0.0000 C   0  0  0  0  0  0  0  0  0  0  0  0
    3.4488   -0.0335    0.0000 C   0  0  0  0  0  0  0  0  0  0  0  0
   -2.2342   -1.7829    0.0000 C   0  0  0  0  0  0  0  0  0  0  0  0
   -1.4988   -0.4903    0.0000 C   0  0  0  0  0  0  0  0  0  0  0  0
   -3.0142   -1.5377    0.0000 C   0  0  0  0  0  0  0  0  0  0  0  0
   -2.0893    0.0780    0.0000 C   0  0  0  0  0  0  0  0  0  0  0  0
   -2.9028   -0.0446    0.0000 C   0  0  0  0  0  0  0  0  0  0  0  0
   -4.1508   -0.7800    0.0000 C   0  0  0  0  0  0  0  0  0  0  0  0
  1 13  1  0  0  0  0
  1 19  1  0  0  0  0
  1 20  1  0  0  0  0
  2 14  1  0  0  0  0
  2 17  2  0  0  0  0
  3 21  1  0  0  0  0
  3 23  1  0  0  0  0
  3 24  1  0  0  0  0
  4 16  3  0  0  0  0
  5 17  1  0  0  0  0
  6  7  2  0  0  0  0
  6  8  1  0  0  0  0
  6 11  1  0  0  0  0
  7 10  1  0  0  0  0
  7 16  1  0  0  0  0
  8 14  2  0  0  0  0
  8 15  1  0  0  0  0
  9 10  2  0  0  0  0
  9 12  1  0  0  0  0
  9 13  1  0  0  0  0
 11 12  2  0  0  0  0
 15 18  2  0  0  0  0
 17 18  1  0  0  0  0
 19 21  1  0  0  0  0
 20 22  1  0  0  0  0
 22 23  1  0  0  0  0
M  END
> <PUBCHEM_COMPOUND_ID_TYPE>
0

> <PUBCHEM_TOTAL_CHARGE>
0

> <PUBCHEM_SUBSTANCE_ID>
310943860

> <PUBCHEM_SUBSTANCE_VERSION>
1

> <PUBCHEM_EXT_DATASOURCE_NAME>
4488

> <PUBCHEM_EXT_DATASOURCE_REGID>
SCHEMBL16121931

> <PUBCHEM_SUBSTANCE_COMMENT>
InChI=1S/C19H23N5/c1-23-7-2-8-24(10-9-23)14-15-3-5-18(17(11-15)12-20)16-4-6-19(21)22-13-16/h3-6,11,13H,2,7-10,14H2,1H3,(H2,21,22)
InChIKey=ICHYCHHKAXKMAI-UHFFFAOYSA-N

> <PUBCHEM_SUBSTANCE_SYNONYM>
SCHEMBL16121931

> <PUBCHEM_XREF_EXT_ID>
SCHEMBL16121931

> <PUBCHEM_EXT_DATASOURCE_URL>
https://www.surechembl.org/

> <PUBCHEM_EXT_SUBSTANCE_URL>
https://www.surechembl.org/chemical/SCHEMBL16121931

> <PUBCHEM_CID_ASSOCIATIONS>
86299881  1

> <PUBCHEM_COORDINATE_TYPE>
1
3

$$$$
