310945844
  -OEChem-07211613022D

 40 42  0     1  0  0  0  0  0999 V2000
    3.5199    2.1930    0.0000 S   0  0  0  0  0  0  0  0  0  0  0  0
    4.6336   -1.4231    0.0000 O   0  0  0  0  0  0  0  0  0  0  0  0
    3.5199    0.5431    0.0000 O   0  0  0  0  0  0  0  0  0  0  0  0
    1.3749   -1.5331    0.0000 O   0  0  0  0  0  0  0  0  0  0  0  0
    3.1074    2.9081    0.0000 O   0  0  0  0  0  0  0  0  0  0  0  0
    3.9324    1.4781    0.0000 O   0  0  0  0  0  0  0  0  0  0  0  0
   -0.7700    0.5431    0.0000 O   0  0  0  0  0  0  0  0  0  0  0  0
   -2.9011   -1.5331    0.0000 O   0  0  0  0  0  0  0  0  0  0  0  0
   -5.0324   -1.1206    0.0000 O   0  0  0  0  0  0  0  0  0  0  0  0
    2.0900   -0.2819    0.0000 N   0  0  0  0  0  0  0  0  0  0  0  0
   -0.0413   -0.6944    0.0000 N   0  0  0  0  0  0  0  0  0  0  0  0
   -2.1862   -0.2819    0.0000 N   0  0  0  0  0  0  0  0  0  0  0  0
    4.2349   -0.6668    0.0000 C   0  0  3  0  0  0  0  0  0  0  0  0
    3.5199   -0.2819    0.0000 C   0  0  0  0  0  0  0  0  0  0  0  0
    2.8187   -0.6668    0.0000 C   0  0  3  0  0  0  0  0  0  0  0  0
    0.6600   -0.2544    0.0000 C   0  0  3  0  0  0  0  0  0  0  0  0
    1.3887   -0.6531    0.0000 C   0  0  0  0  0  0  0  0  0  0  0  0
    5.0461   -0.6806    0.0000 C   0  0  0  0  0  0  0  0  0  0  0  0
    1.3887    0.9831    0.0000 C   0  0  0  0  0  0  0  0  0  0  0  0
    2.8049   -1.5056    0.0000 C   0  0  0  0  0  0  0  0  0  0  0  0
    2.8049    1.8218    0.0000 C   0  0  0  0  0  0  0  0  0  0  0  0
    0.6738    0.5706    0.0000 C   0  0  0  0  0  0  0  0  0  0  0  0
    3.5336   -1.9043    0.0000 C   0  0  0  0  0  0  0  0  0  0  0  0
   -0.7700   -0.2819    0.0000 C   0  0  0  0  0  0  0  0  0  0  0  0
    1.4025    1.8218    0.0000 C   0  0  0  0  0  0  0  0  0  0  0  0
    2.1037    0.5706    0.0000 C   0  0  0  0  0  0  0  0  0  0  0  0
    2.1037    2.2205    0.0000 C   0  0  0  0  0  0  0  0  0  0  0  0
    2.8049    0.9831    0.0000 C   0  0  0  0  0  0  0  0  0  0  0  0
   -1.4575   -0.6668    0.0000 C   0  0  3  0  0  0  0  0  0  0  0  0
    3.6162   -2.7293    0.0000 C   0  0  0  0  0  0  0  0  0  0  0  0
    4.2762   -1.5881    0.0000 C   0  0  0  0  0  0  0  0  0  0  0  0
    4.2211    2.6468    0.0000 C   0  0  0  0  0  0  0  0  0  0  0  0
   -2.8875   -0.6531    0.0000 C   0  0  0  0  0  0  0  0  0  0  0  0
    4.8124   -2.1930    0.0000 C   0  0  0  0  0  0  0  0  0  0  0  0
    4.4137   -2.9081    0.0000 C   0  0  0  0  0  0  0  0  0  0  0  0
   -4.3311   -0.6806    0.0000 C   0  0  0  0  0  0  0  0  0  0  0  0
   -3.6162   -0.2681    0.0000 C   0  0  0  0  0  0  0  0  0  0  0  0
   -1.4712   -1.5194    0.0000 C   0  0  0  0  0  0  0  0  0  0  0  0
   -4.3174   -1.5194    0.0000 C   0  0  0  0  0  0  0  0  0  0  0  0
   -5.0461   -0.2819    0.0000 C   0  0  0  0  0  0  0  0  0  0  0  0
  1  5  2  0  0  0  0
  1  6  2  0  0  0  0
  1 21  1  0  0  0  0
  1 32  1  0  0  0  0
  2 13  1  0  0  0  0
  2 18  1  0  0  0  0
  3 14  2  0  0  0  0
  4 17  2  0  0  0  0
  7 24  2  0  0  0  0
  8 33  2  0  0  0  0
  9 36  1  0  0  0  0
 10 15  1  0  0  0  0
 10 17  1  0  0  0  0
 11 16  1  0  0  0  0
 11 24  1  0  0  0  0
 12 29  1  0  0  0  0
 12 33  1  0  0  0  0
 13 14  1  0  0  0  0
 13 18  1  0  0  0  0
 14 15  1  0  0  0  0
 15 20  1  0  0  0  0
 16 17  1  0  0  0  0
 16 22  1  0  0  0  0
 19 22  1  0  0  0  0
 19 25  2  0  0  0  0
 19 26  1  0  0  0  0
 20 23  1  0  0  0  0
 21 27  2  0  0  0  0
 21 28  1  0  0  0  0
 23 30  1  0  0  0  0
 23 31  1  0  0  0  0
 24 29  1  0  0  0  0
 25 27  1  0  0  0  0
 26 28  2  0  0  0  0
 29 38  1  0  0  0  0
 30 35  1  0  0  0  0
 31 34  1  0  0  0  0
 33 37  1  0  0  0  0
 34 35  1  0  0  0  0
 36 37  1  0  0  0  0
 36 39  1  0  0  0  0
 36 40  1  0  0  0  0
M  END
> <PUBCHEM_COMPOUND_ID_TYPE>
0

> <PUBCHEM_TOTAL_CHARGE>
0

> <PUBCHEM_SUBSTANCE_ID>
310945844

> <PUBCHEM_SUBSTANCE_VERSION>
1

> <PUBCHEM_EXT_DATASOURCE_NAME>
4488

> <PUBCHEM_EXT_DATASOURCE_REGID>
SCHEMBL16123949

> <PUBCHEM_SUBSTANCE_COMMENT>
InChI=1S/C28H41N3O8S/c1-17(29-24(32)15-28(2,3)36)26(34)31-22(14-19-9-11-20(12-10-19)40(4,37)38)27(35)30-21(25(33)23-16-39-23)13-18-7-5-6-8-18/h9-12,17-18,21-23,36H,5-8,13-16H2,1-4H3,(H,29,32)(H,30,35)(H,31,34)
InChIKey=YUQAGWNKACXLPK-UHFFFAOYSA-N

> <PUBCHEM_SUBSTANCE_SYNONYM>
SCHEMBL16123949

> <PUBCHEM_XREF_EXT_ID>
SCHEMBL16123949

> <PUBCHEM_EXT_DATASOURCE_URL>
https://www.surechembl.org/

> <PUBCHEM_EXT_SUBSTANCE_URL>
https://www.surechembl.org/chemical/SCHEMBL16123949

> <PUBCHEM_CID_ASSOCIATIONS>
117611830  1

> <PUBCHEM_COORDINATE_TYPE>
1
3

$$$$
