310940400
  -OEChem-07211613022D

 40 43  0     1  0  0  0  0  0999 V2000
   -3.1797   -1.2426    0.0000 O   0  0  0  0  0  0  0  0  0  0  0  0
   -1.5423   -2.2807    0.0000 O   0  0  0  0  0  0  0  0  0  0  0  0
    1.8493   -0.0146    0.0000 O   0  0  0  0  0  0  0  0  0  0  0  0
   -2.3464   -3.4356    0.0000 O   0  0  0  0  0  0  0  0  0  0  0  0
   -1.0307    0.8333    0.0000 N   0  0  0  0  0  0  0  0  0  0  0  0
    1.1037    1.2426    0.0000 N   0  0  0  0  0  0  0  0  0  0  0  0
    2.6388    2.0614    0.0000 N   0  0  0  0  0  0  0  0  0  0  0  0
    3.3113    0.9064    0.0000 N   0  0  0  0  0  0  0  0  0  0  0  0
    3.8961    3.8010    0.0000 N   0  0  0  0  0  0  0  0  0  0  0  0
   -2.4488   -1.6374    0.0000 C   0  0  3  0  0  0  0  0  0  0  0  0
   -1.7470   -0.3948    0.0000 C   0  0  3  0  0  0  0  0  0  0  0  0
   -1.0453    0.0146    0.0000 C   0  0  0  0  0  0  0  0  0  0  0  0
   -3.1797   -0.3801    0.0000 C   0  0  0  0  0  0  0  0  0  0  0  0
   -0.3289    1.2572    0.0000 C   0  0  0  0  0  0  0  0  0  0  0  0
   -1.7470   -1.2134    0.0000 C   0  0  0  0  0  0  0  0  0  0  0  0
   -2.4634    0.0146    0.0000 C   0  0  0  0  0  0  0  0  0  0  0  0
    0.4020    0.8480    0.0000 C   0  0  0  0  0  0  0  0  0  0  0  0
   -0.3143    2.0760    0.0000 C   0  0  0  0  0  0  0  0  0  0  0  0
   -0.3143   -0.3948    0.0000 C   0  0  0  0  0  0  0  0  0  0  0  0
    0.3874    0.0146    0.0000 C   0  0  0  0  0  0  0  0  0  0  0  0
   -3.0482   -2.2075    0.0000 C   0  0  0  0  0  0  0  0  0  0  0  0
    1.8493    0.8626    0.0000 C   0  0  0  0  0  0  0  0  0  0  0  0
    0.3874    2.4854    0.0000 C   0  0  0  0  0  0  0  0  0  0  0  0
   -1.0307    2.5000    0.0000 C   0  0  0  0  0  0  0  0  0  0  0  0
   -3.8961   -0.8333    0.0000 C   0  0  0  0  0  0  0  0  0  0  0  0
   -3.3990    0.4094    0.0000 C   0  0  0  0  0  0  0  0  0  0  0  0
   -0.3289    3.7426    0.0000 C   0  0  0  0  0  0  0  0  0  0  0  0
   -1.5862   -3.1285    0.0000 C   0  0  0  0  0  0  0  0  0  0  0  0
    2.5511    1.2426    0.0000 C   0  0  0  0  0  0  0  0  0  0  0  0
    0.3874    3.3040    0.0000 C   0  0  0  0  0  0  0  0  0  0  0  0
   -1.0307    3.3040    0.0000 C   0  0  0  0  0  0  0  0  0  0  0  0
    3.4429    2.2368    0.0000 C   0  0  0  0  0  0  0  0  0  0  0  0
    3.8522    1.5204    0.0000 C   0  0  0  0  0  0  0  0  0  0  0  0
   -0.3874   -2.2953    0.0000 C   0  0  0  0  0  0  0  0  0  0  0  0
   -0.7237    4.4589    0.0000 C   0  0  0  0  0  0  0  0  0  0  0  0
    0.0950    4.4589    0.0000 C   0  0  0  0  0  0  0  0  0  0  0  0
    3.6622    3.0116    0.0000 C   0  0  0  0  0  0  0  0  0  0  0  0
    0.0220   -3.0116    0.0000 C   0  0  0  0  0  0  0  0  0  0  0  0
   -0.3728   -3.7426    0.0000 C   0  0  0  0  0  0  0  0  0  0  0  0
    0.0512   -4.4589    0.0000 C   0  0  0  0  0  0  0  0  0  0  0  0
  1 10  1  0  0  0  0
  1 13  1  0  0  0  0
  2 10  1  0  0  0  0
  2 28  1  0  0  0  0
  3 22  2  0  0  0  0
  4 28  2  0  0  0  0
  5 12  1  0  0  0  0
  5 14  2  0  0  0  0
  6 17  1  0  0  0  0
  6 22  1  0  0  0  0
  7 29  2  0  0  0  0
  7 32  1  0  0  0  0
  8 29  1  0  0  0  0
  8 33  1  0  0  0  0
  9 37  3  0  0  0  0
 10 15  1  0  0  0  0
 10 21  1  0  0  0  0
 11 12  1  0  0  0  0
 11 15  1  0  0  0  0
 11 16  1  0  0  0  0
 12 19  2  0  0  0  0
 13 16  1  0  0  0  0
 13 25  1  0  0  0  0
 13 26  1  0  0  0  0
 14 17  1  0  0  0  0
 14 18  1  0  0  0  0
 17 20  2  0  0  0  0
 18 23  2  0  0  0  0
 18 24  1  0  0  0  0
 19 20  1  0  0  0  0
 22 29  1  0  0  0  0
 23 30  1  0  0  0  0
 24 31  1  0  0  0  0
 27 30  1  0  0  0  0
 27 31  1  0  0  0  0
 27 35  1  0  0  0  0
 27 36  1  0  0  0  0
 28 34  1  0  0  0  0
 32 33  2  0  0  0  0
 32 37  1  0  0  0  0
 34 38  1  0  0  0  0
 38 39  1  0  0  0  0
 39 40  1  0  0  0  0
M  END
> <PUBCHEM_COMPOUND_ID_TYPE>
0

> <PUBCHEM_TOTAL_CHARGE>
0

> <PUBCHEM_SUBSTANCE_ID>
310940400

> <PUBCHEM_SUBSTANCE_VERSION>
1

> <PUBCHEM_EXT_DATASOURCE_NAME>
4488

> <PUBCHEM_EXT_DATASOURCE_REGID>
SCHEMBL16118348

> <PUBCHEM_SUBSTANCE_COMMENT>
InChI=1S/C31H41N5O4/c1-7-8-9-25(37)39-31(6)17-21(16-30(4,5)40-31)23-10-11-24(36-28(38)27-33-19-22(18-32)34-27)26(35-23)20-12-14-29(2,3)15-13-20/h10-12,19,21H,7-9,13-17H2,1-6H3,(H,33,34)(H,36,38)
InChIKey=CZXOVIURBHNFFK-UHFFFAOYSA-N

> <PUBCHEM_SUBSTANCE_SYNONYM>
SCHEMBL16118348

> <PUBCHEM_XREF_EXT_ID>
SCHEMBL16118348

> <PUBCHEM_EXT_DATASOURCE_URL>
https://www.surechembl.org/

> <PUBCHEM_EXT_SUBSTANCE_URL>
https://www.surechembl.org/chemical/SCHEMBL16118348

> <PUBCHEM_CID_ASSOCIATIONS>
117607427  1

> <PUBCHEM_COORDINATE_TYPE>
1
3

$$$$
