310931842
  -OEChem-07211613022D

 29 30  0     1  0  0  0  0  0999 V2000
    5.5413   -1.1397    0.0000 S   0  0  0  0  0  0  0  0  0  0  0  0
    1.5738   -1.0206    0.0000 S   0  0  0  0  0  0  0  0  0  0  0  0
    5.5413   -2.7897    0.0000 F   0  0  0  0  0  0  0  0  0  0  0  0
    4.7163   -1.9647    0.0000 F   0  0  0  0  0  0  0  0  0  0  0  0
    6.3663   -1.9647    0.0000 F   0  0  0  0  0  0  0  0  0  0  0  0
    4.7163   -1.1397    0.0000 O   0  0  0  0  0  0  0  0  0  0  0  0
    3.0663    1.7182    0.0000 O   0  0  0  0  0  0  0  0  0  0  0  0
    5.5413   -0.3147    0.0000 O   0  0  0  0  0  0  0  0  0  0  0  0
    6.3663   -1.1397    0.0000 O   0  0  0  0  0  0  0  0  0  0  0  0
    0.8123    1.1143    0.0000 O   0  0  0  0  0  0  0  0  0  0  0  0
    1.5268    2.3518    0.0000 O   0  0  0  0  0  0  0  0  0  0  0  0
    2.9087   -1.0206    0.0000 N   0  0  0  0  0  0  0  0  0  0  0  0
    2.2413    0.2893    0.0000 C   0  0  3  0  0  0  0  0  0  0  0  0
    3.0663    0.2893    0.0000 C   0  0  0  0  0  0  0  0  0  0  0  0
    2.2413   -0.5357    0.0000 C   0  0  0  0  0  0  0  0  0  0  0  0
    3.4788    1.0038    0.0000 C   0  0  0  0  0  0  0  0  0  0  0  0
    3.4788   -0.4252    0.0000 C   0  0  0  0  0  0  0  0  0  0  0  0
    4.3038   -0.4252    0.0000 C   0  0  0  0  0  0  0  0  0  0  0  0
    2.2413    1.1143    0.0000 C   0  0  0  0  0  0  0  0  0  0  0  0
    1.4163    0.2893    0.0000 C   0  0  0  0  0  0  0  0  0  0  0  0
    5.5413   -1.9647    0.0000 C   0  0  0  0  0  0  0  0  0  0  0  0
    4.3038    1.0038    0.0000 C   0  0  0  0  0  0  0  0  0  0  0  0
    4.7163    0.2893    0.0000 C   0  0  0  0  0  0  0  0  0  0  0  0
    1.8288   -1.8053    0.0000 C   0  0  0  0  0  0  0  0  0  0  0  0
    1.5268    1.5268    0.0000 C   0  0  0  0  0  0  0  0  0  0  0  0
    2.6538   -1.8053    0.0000 C   0  0  0  0  0  0  0  0  0  0  0  0
    1.0038   -0.4252    0.0000 C   0  0  0  0  0  0  0  0  0  0  0  0
    1.3438   -2.4727    0.0000 C   0  0  0  0  0  0  0  0  0  0  0  0
    3.4788    2.4327    0.0000 C   0  0  0  0  0  0  0  0  0  0  0  0
  1  6  1  0  0  0  0
  1  8  2  0  0  0  0
  1  9  2  0  0  0  0
  1 21  1  0  0  0  0
  2 15  1  0  0  0  0
  2 24  1  0  0  0  0
  3 21  1  0  0  0  0
  4 21  1  0  0  0  0
  5 21  1  0  0  0  0
  6 18  1  0  0  0  0
  7 16  1  0  0  0  0
  7 29  1  0  0  0  0
 10 25  2  0  0  0  0
 11 25  1  0  0  0  0
 12 15  2  0  0  0  0
 12 26  1  0  0  0  0
 13 14  1  0  0  0  0
 13 15  1  0  0  0  0
 13 19  1  0  0  0  0
 13 20  1  0  0  0  0
 14 16  2  0  0  0  0
 14 17  1  0  0  0  0
 16 22  1  0  0  0  0
 17 18  2  0  0  0  0
 18 23  1  0  0  0  0
 19 25  1  0  0  0  0
 20 27  1  0  0  0  0
 22 23  2  0  0  0  0
 24 26  2  0  0  0  0
 24 28  1  0  0  0  0
M  END
> <PUBCHEM_COMPOUND_ID_TYPE>
0

> <PUBCHEM_TOTAL_CHARGE>
0

> <PUBCHEM_SUBSTANCE_ID>
310931842

> <PUBCHEM_SUBSTANCE_VERSION>
1

> <PUBCHEM_EXT_DATASOURCE_NAME>
4488

> <PUBCHEM_EXT_DATASOURCE_REGID>
SCHEMBL16109176

> <PUBCHEM_SUBSTANCE_COMMENT>
InChI=1S/C17H18F3NO6S2/c1-4-16(8-14(22)23,15-21-9-10(2)28-15)12-7-11(5-6-13(12)26-3)27-29(24,25)17(18,19)20/h5-7,9H,4,8H2,1-3H3,(H,22,23)
InChIKey=QQABQOUBHIOVNW-UHFFFAOYSA-N

> <PUBCHEM_SUBSTANCE_SYNONYM>
SCHEMBL16109176

> <PUBCHEM_XREF_EXT_ID>
SCHEMBL16109176

> <PUBCHEM_EXT_DATASOURCE_URL>
https://www.surechembl.org/

> <PUBCHEM_EXT_SUBSTANCE_URL>
https://www.surechembl.org/chemical/SCHEMBL16109176

> <PUBCHEM_CID_ASSOCIATIONS>
117600513  1

> <PUBCHEM_COORDINATE_TYPE>
1
3

$$$$
