310933722
  -OEChem-07211613022D

 36 39  0     1  0  0  0  0  0999 V2000
    1.6298   -1.4582    0.0000 Cl  0  0  0  0  0  0  0  0  0  0  0  0
    2.4876   -2.8736    0.0000 S   0  0  0  0  0  0  0  0  0  0  0  0
    4.9323   -5.7043    0.0000 S   0  0  0  0  0  0  0  0  0  0  0  0
    2.4876   -3.7743    0.0000 O   0  0  0  0  0  0  0  0  0  0  0  0
    2.4876   -2.0587    0.0000 O   0  0  0  0  0  0  0  0  0  0  0  0
    4.2032   -6.1332    0.0000 O   0  0  0  0  0  0  0  0  0  0  0  0
    5.6614   -5.3183    0.0000 O   0  0  0  0  0  0  0  0  0  0  0  0
    3.2596    0.0000    0.0000 O   0  0  0  0  0  0  0  0  0  0  0  0
    3.3025   -2.8736    0.0000 N   0  0  3  0  0  0  0  0  0  0  0  0
    4.5034   -5.0181    0.0000 N   0  0  0  0  0  0  0  0  0  0  0  0
    3.3025   -1.4582    0.0000 N   0  0  0  0  0  0  0  0  0  0  0  0
    3.6885   -3.5599    0.0000 C   0  0  0  0  0  0  0  0  0  0  0  0
    1.6727   -2.8736    0.0000 C   0  0  0  0  0  0  0  0  0  0  0  0
    3.6885   -2.1445    0.0000 C   0  0  0  0  0  0  0  0  0  0  0  0
    1.2009   -2.1445    0.0000 C   0  0  0  0  0  0  0  0  0  0  0  0
    3.2596   -4.2890    0.0000 C   0  0  0  0  0  0  0  0  0  0  0  0
    4.5034   -3.5599    0.0000 C   0  0  0  0  0  0  0  0  0  0  0  0
    5.3183   -6.4335    0.0000 C   0  0  0  0  0  0  0  0  0  0  0  0
    3.6885   -5.0181    0.0000 C   0  0  0  0  0  0  0  0  0  0  0  0
    4.9323   -4.2890    0.0000 C   0  0  0  0  0  0  0  0  0  0  0  0
    1.2009   -3.5599    0.0000 C   0  0  0  0  0  0  0  0  0  0  0  0
    4.5463   -2.1445    0.0000 C   0  0  0  0  0  0  0  0  0  0  0  0
    3.6456   -0.7292    0.0000 C   0  0  0  0  0  0  0  0  0  0  0  0
    0.4289   -2.1445    0.0000 C   0  0  0  0  0  0  0  0  0  0  0  0
    6.1761   -6.4335    0.0000 C   0  0  0  0  0  0  0  0  0  0  0  0
    4.9323   -7.1626    0.0000 C   0  0  0  0  0  0  0  0  0  0  0  0
    0.4289   -3.5599    0.0000 C   0  0  0  0  0  0  0  0  0  0  0  0
    4.9323   -1.4154    0.0000 C   0  0  0  0  0  0  0  0  0  0  0  0
    4.5034   -0.7292    0.0000 C   0  0  0  0  0  0  0  0  0  0  0  0
    0.0000   -2.8736    0.0000 C   0  0  0  0  0  0  0  0  0  0  0  0
    6.1332   -7.8488    0.0000 C   0  0  0  0  0  0  0  0  0  0  0  0
    6.5621   -7.1197    0.0000 C   0  0  0  0  0  0  0  0  0  0  0  0
    5.3183   -7.8488    0.0000 C   0  0  0  0  0  0  0  0  0  0  0  0
    6.5621   -8.5779    0.0000 C   0  0  0  0  0  0  0  0  0  0  0  0
    2.4018    0.0000    0.0000 C   0  0  0  0  0  0  0  0  0  0  0  0
    7.3770   -8.5779    0.0000 C   0  0  0  0  0  0  0  0  0  0  0  0
  1 15  1  0  0  0  0
  2  4  2  0  0  0  0
  2  5  2  0  0  0  0
  2  9  1  0  0  0  0
  2 13  1  0  0  0  0
  3  6  2  0  0  0  0
  3  7  2  0  0  0  0
  3 10  1  0  0  0  0
  3 18  1  0  0  0  0
  8 23  1  0  0  0  0
  8 35  1  0  0  0  0
  9 12  1  0  0  0  0
  9 14  1  0  0  0  0
 10 19  1  0  0  0  0
 10 20  1  0  0  0  0
 11 14  1  0  0  0  0
 11 23  2  0  0  0  0
 12 16  1  0  0  0  0
 12 17  1  0  0  0  0
 13 15  1  0  0  0  0
 13 21  2  0  0  0  0
 14 22  2  0  0  0  0
 15 24  2  0  0  0  0
 16 19  1  0  0  0  0
 17 20  1  0  0  0  0
 18 25  2  0  0  0  0
 18 26  1  0  0  0  0
 21 27  1  0  0  0  0
 22 28  1  0  0  0  0
 23 29  1  0  0  0  0
 24 30  1  0  0  0  0
 25 32  1  0  0  0  0
 26 33  2  0  0  0  0
 27 30  2  0  0  0  0
 28 29  2  0  0  0  0
 31 32  2  0  0  0  0
 31 33  1  0  0  0  0
 31 34  1  0  0  0  0
 34 36  1  0  0  0  0
M  END
> <PUBCHEM_COMPOUND_ID_TYPE>
0

> <PUBCHEM_TOTAL_CHARGE>
0

> <PUBCHEM_SUBSTANCE_ID>
310933722

> <PUBCHEM_SUBSTANCE_VERSION>
1

> <PUBCHEM_EXT_DATASOURCE_NAME>
4488

> <PUBCHEM_EXT_DATASOURCE_REGID>
SCHEMBL16111157

> <PUBCHEM_SUBSTANCE_COMMENT>
InChI=1S/C25H28ClN3O5S2/c1-3-19-11-13-21(14-12-19)35(30,31)28-17-15-20(16-18-28)29(24-9-6-10-25(27-24)34-2)36(32,33)23-8-5-4-7-22(23)26/h4-14,20H,3,15-18H2,1-2H3
InChIKey=ISFJMMLATBIMRV-UHFFFAOYSA-N

> <PUBCHEM_SUBSTANCE_SYNONYM>
SCHEMBL16111157

> <PUBCHEM_XREF_EXT_ID>
SCHEMBL16111157

> <PUBCHEM_EXT_DATASOURCE_URL>
https://www.surechembl.org/

> <PUBCHEM_EXT_SUBSTANCE_URL>
https://www.surechembl.org/chemical/SCHEMBL16111157

> <PUBCHEM_CID_ASSOCIATIONS>
117602086  1

> <PUBCHEM_COORDINATE_TYPE>
1
3

$$$$
