310930762
  -OEChem-07211613022D

 50 54  0     1  0  0  0  0  0999 V2000
    1.5278   -7.8352    0.0000 Cl  0  0  0  0  0  0  0  0  0  0  0  0
    6.5423   -5.7980    0.0000 S   0  0  0  0  0  0  0  0  0  0  0  0
    6.8949   -3.6042    0.0000 S   0  0  0  0  0  0  0  0  0  0  0  0
    6.5423   -4.1135    0.0000 F   0  0  0  0  0  0  0  0  0  0  0  0
    3.6825   -5.7588    0.0000 F   0  0  0  0  0  0  0  0  0  0  0  0
    6.1114   -6.5032    0.0000 O   0  0  0  0  0  0  0  0  0  0  0  0
    7.2475   -6.2289    0.0000 O   0  0  0  0  0  0  0  0  0  0  0  0
    3.6825   -4.1135    0.0000 O   0  0  0  0  0  0  0  0  0  0  0  0
    9.4413   -5.1320    0.0000 O   0  0  0  0  0  0  0  0  0  0  0  0
    9.4805   -2.2722    0.0000 O   0  0  0  0  0  0  0  0  0  0  0  0
    0.8227   -1.6454    0.0000 O   0  0  0  0  0  0  0  0  0  0  0  0
    2.2722   -1.6454    0.0000 O   0  0  0  0  0  0  0  0  0  0  0  0
    6.9733   -5.0929    0.0000 N   0  0  0  0  0  0  0  0  0  0  0  0
    5.7197   -4.2702    0.0000 N   0  0  0  0  0  0  0  0  0  0  0  0
    5.5629   -3.4474    0.0000 N   0  0  0  0  0  0  0  0  0  0  0  0
    1.5278   -2.8598    0.0000 N   0  0  0  0  0  0  0  0  0  0  0  0
    5.8372   -5.3670    0.0000 C   0  0  0  0  0  0  0  0  0  0  0  0
    5.8372   -4.5444    0.0000 C   0  0  0  0  0  0  0  0  0  0  0  0
    6.5423   -4.3485    0.0000 C   0  0  0  0  0  0  0  0  0  0  0  0
    5.1320   -5.7588    0.0000 C   0  0  0  0  0  0  0  0  0  0  0  0
    7.7960   -5.0929    0.0000 C   0  0  0  0  0  0  0  0  0  0  0  0
    4.3877   -5.3670    0.0000 C   0  0  0  0  0  0  0  0  0  0  0  0
    4.4268   -4.5444    0.0000 C   0  0  0  0  0  0  0  0  0  0  0  0
    5.1320   -4.1135    0.0000 C   0  0  0  0  0  0  0  0  0  0  0  0
    8.2269   -4.3877    0.0000 C   0  0  0  0  0  0  0  0  0  0  0  0
    9.0496   -4.3877    0.0000 C   0  0  0  0  0  0  0  0  0  0  0  0
    2.2722   -4.1135    0.0000 C   0  0  3  0  0  0  0  0  0  0  0  0
    1.5278   -4.5052    0.0000 C   0  0  3  0  0  0  0  0  0  0  0  0
    7.8352   -3.6433    0.0000 C   0  0  0  0  0  0  0  0  0  0  0  0
    2.9774   -4.5052    0.0000 C   0  0  0  0  0  0  0  0  0  0  0  0
    6.3073   -3.0165    0.0000 C   0  0  0  0  0  0  0  0  0  0  0  0
    9.4805   -3.6825    0.0000 C   0  0  0  0  0  0  0  0  0  0  0  0
    1.5278   -5.3279    0.0000 C   0  0  0  0  0  0  0  0  0  0  0  0
    2.2722   -3.2908    0.0000 C   0  0  0  0  0  0  0  0  0  0  0  0
    9.0496   -2.9774    0.0000 C   0  0  0  0  0  0  0  0  0  0  0  0
    8.2269   -2.9774    0.0000 C   0  0  0  0  0  0  0  0  0  0  0  0
    0.8227   -4.1135    0.0000 C   0  0  0  0  0  0  0  0  0  0  0  0
    0.8227   -3.2908    0.0000 C   0  0  0  0  0  0  0  0  0  0  0  0
    1.5278   -2.0371    0.0000 C   0  0  0  0  0  0  0  0  0  0  0  0
    2.2722   -5.7588    0.0000 C   0  0  0  0  0  0  0  0  0  0  0  0
    0.8227   -5.7588    0.0000 C   0  0  0  0  0  0  0  0  0  0  0  0
    2.2722   -6.5815    0.0000 C   0  0  0  0  0  0  0  0  0  0  0  0
    0.8227   -6.5815    0.0000 C   0  0  0  0  0  0  0  0  0  0  0  0
    1.5278   -7.0125    0.0000 C   0  0  0  0  0  0  0  0  0  0  0  0
    0.8227   -0.8227    0.0000 C   0  0  0  0  0  0  0  0  0  0  0  0
   10.2640   -5.1320    0.0000 C   0  0  0  0  0  0  0  0  0  0  0  0
    9.0887   -1.5278    0.0000 C   0  0  0  0  0  0  0  0  0  0  0  0
    1.6845   -0.8227    0.0000 C   0  0  0  0  0  0  0  0  0  0  0  0
    0.8227    0.0000    0.0000 C   0  0  0  0  0  0  0  0  0  0  0  0
    0.0000   -0.8227    0.0000 C   0  0  0  0  0  0  0  0  0  0  0  0
  1 44  1  0  0  0  0
  2  6  2  0  0  0  0
  2  7  2  0  0  0  0
  2 13  1  0  0  0  0
  2 17  1  0  0  0  0
  3 19  1  0  0  0  0
  3 31  1  0  0  0  0
  4 18  1  0  0  0  0
  5 22  1  0  0  0  0
  8 23  1  0  0  0  0
  8 30  1  0  0  0  0
  9 26  1  0  0  0  0
  9 46  1  0  0  0  0
 10 35  1  0  0  0  0
 10 47  1  0  0  0  0
 11 39  1  0  0  0  0
 11 45  1  0  0  0  0
 12 39  2  0  0  0  0
 13 19  1  0  0  0  0
 13 21  1  0  0  0  0
 14 15  1  0  0  0  0
 14 19  2  0  0  0  0
 15 31  2  0  0  0  0
 16 34  1  0  0  0  0
 16 38  1  0  0  0  0
 16 39  1  0  0  0  0
 17 18  1  0  0  0  0
 17 20  2  0  0  0  0
 18 24  2  0  0  0  0
 20 22  1  0  0  0  0
 21 25  1  0  0  0  0
 22 23  2  0  0  0  0
 23 24  1  0  0  0  0
 25 26  2  0  0  0  0
 25 29  1  0  0  0  0
 26 32  1  0  0  0  0
 27 28  1  0  0  0  0
 27 30  1  0  0  0  0
 27 34  1  0  0  0  0
 28 33  1  0  0  0  0
 28 37  1  0  0  0  0
 29 36  2  0  0  0  0
 32 35  2  0  0  0  0
 33 40  2  0  0  0  0
 33 41  1  0  0  0  0
 35 36  1  0  0  0  0
 37 38  1  0  0  0  0
 40 42  1  0  0  0  0
 41 43  2  0  0  0  0
 42 44  2  0  0  0  0
 43 44  1  0  0  0  0
 45 48  1  0  0  0  0
 45 49  1  0  0  0  0
 45 50  1  0  0  0  0
M  END
> <PUBCHEM_COMPOUND_ID_TYPE>
0

> <PUBCHEM_TOTAL_CHARGE>
0

> <PUBCHEM_SUBSTANCE_ID>
310930762

> <PUBCHEM_SUBSTANCE_VERSION>
1

> <PUBCHEM_EXT_DATASOURCE_NAME>
4488

> <PUBCHEM_EXT_DATASOURCE_REGID>
SCHEMBL16108059

> <PUBCHEM_SUBSTANCE_COMMENT>
InChI=1S/C34H37ClF2N4O7S2/c1-34(2,3)48-33(42)40-13-12-26(21-6-9-24(35)10-7-21)23(17-40)19-47-30-15-28(37)31(16-27(30)36)50(43,44)41(32-39-38-20-49-32)18-22-8-11-25(45-4)14-29(22)46-5/h6-11,14-16,20,23,26H,12-13,17-19H2,1-5H3
InChIKey=MTZMYYYBGRHXQU-UHFFFAOYSA-N

> <PUBCHEM_SUBSTANCE_SYNONYM>
SCHEMBL16108059

> <PUBCHEM_XREF_EXT_ID>
SCHEMBL16108059

> <PUBCHEM_EXT_DATASOURCE_URL>
https://www.surechembl.org/

> <PUBCHEM_EXT_SUBSTANCE_URL>
https://www.surechembl.org/chemical/SCHEMBL16108059

> <PUBCHEM_CID_ASSOCIATIONS>
117599781  1

> <PUBCHEM_COORDINATE_TYPE>
1
3

$$$$
