310947505
  -OEChem-07211613022D

 33 38  0     1  0  0  0  0  0999 V2000
   -3.4538   -1.7950    0.0000 O   0  0  0  0  0  0  0  0  0  0  0  0
   -4.6238   -1.1380    0.0000 O   0  0  0  0  0  0  0  0  0  0  0  0
    1.8030    0.4167    0.0000 O   0  0  0  0  0  0  0  0  0  0  0  0
    1.8030    1.7630    0.0000 O   0  0  0  0  0  0  0  0  0  0  0  0
   -1.1300   -0.5929    0.0000 N   0  0  3  0  0  0  0  0  0  0  0  0
   -1.1300    0.2564    0.0000 C   0  0  0  0  0  0  0  0  0  0  0  0
   -1.8672    0.6571    0.0000 C   0  0  0  0  0  0  0  0  0  0  0  0
   -2.6045   -0.5769    0.0000 C   0  0  0  0  0  0  0  0  0  0  0  0
   -2.5724    0.2404    0.0000 C   0  0  0  0  0  0  0  0  0  0  0  0
   -0.4087    0.6731    0.0000 C   0  0  0  0  0  0  0  0  0  0  0  0
   -1.8351   -0.9937    0.0000 C   0  0  3  0  0  0  0  0  0  0  0  0
   -3.3096   -0.9937    0.0000 C   0  0  0  0  0  0  0  0  0  0  0  0
   -0.4087    1.4905    0.0000 C   0  0  0  0  0  0  0  0  0  0  0  0
   -3.9987   -0.5929    0.0000 C   0  0  0  0  0  0  0  0  0  0  0  0
   -1.8511    1.4905    0.0000 C   0  0  0  0  0  0  0  0  0  0  0  0
   -3.2936    0.6410    0.0000 C   0  0  0  0  0  0  0  0  0  0  0  0
    0.2804    0.2564    0.0000 C   0  0  0  0  0  0  0  0  0  0  0  0
   -1.1300    1.8912    0.0000 C   0  0  0  0  0  0  0  0  0  0  0  0
    1.0017    0.6731    0.0000 C   0  0  0  0  0  0  0  0  0  0  0  0
    1.0177    1.4905    0.0000 C   0  0  0  0  0  0  0  0  0  0  0  0
    0.2804    1.8912    0.0000 C   0  0  0  0  0  0  0  0  0  0  0  0
   -3.9987    0.2404    0.0000 C   0  0  0  0  0  0  0  0  0  0  0  0
   -0.3926   -0.9937    0.0000 C   0  0  0  0  0  0  0  0  0  0  0  0
   -1.4986   -0.6090    0.0000 C   0  0  0  0  0  0  0  0  0  0  0  0
   -4.2873   -1.8912    0.0000 C   0  0  0  0  0  0  0  0  0  0  0  0
    2.2839    1.0738    0.0000 C   0  0  0  0  0  0  0  0  0  0  0  0
    0.2644   -0.5929    0.0000 C   0  0  0  0  0  0  0  0  0  0  0  0
    1.0338   -0.9937    0.0000 C   0  0  0  0  0  0  0  0  0  0  0  0
    1.7229   -0.5929    0.0000 C   0  0  0  0  0  0  0  0  0  0  0  0
    2.4441   -0.9937    0.0000 C   0  0  0  0  0  0  0  0  0  0  0  0
    3.1333   -0.5929    0.0000 C   0  0  0  0  0  0  0  0  0  0  0  0
    3.9026   -0.9937    0.0000 C   0  0  0  0  0  0  0  0  0  0  0  0
    4.6238   -0.6090    0.0000 C   0  0  0  0  0  0  0  0  0  0  0  0
  1 12  1  0  0  0  0
  1 25  1  0  0  0  0
  2 14  1  0  0  0  0
  2 25  1  0  0  0  0
  3 19  1  0  0  0  0
  3 26  1  0  0  0  0
  4 20  1  0  0  0  0
  4 26  1  0  0  0  0
  5  6  1  0  0  0  0
  5 11  1  0  0  0  0
  5 23  1  0  0  0  0
  6  7  2  0  0  0  0
  6 10  1  0  0  0  0
  7  9  1  0  0  0  0
  7 15  1  0  0  0  0
  8  9  1  0  0  0  0
  8 11  1  0  0  0  0
  8 12  2  0  0  0  0
  9 16  2  0  0  0  0
 10 13  2  0  0  0  0
 10 17  1  0  0  0  0
 11 24  1  0  0  0  0
 12 14  1  0  0  0  0
 13 18  1  0  0  0  0
 13 21  1  0  0  0  0
 14 22  2  0  0  0  0
 15 18  2  0  0  0  0
 16 22  1  0  0  0  0
 17 19  2  0  0  0  0
 19 20  1  0  0  0  0
 20 21  2  0  0  0  0
 23 27  1  0  0  0  0
 27 28  1  0  0  0  0
 28 29  1  0  0  0  0
 29 30  1  0  0  0  0
 30 31  1  0  0  0  0
 31 32  1  0  0  0  0
 32 33  1  0  0  0  0
M  END
> <PUBCHEM_COMPOUND_ID_TYPE>
0

> <PUBCHEM_TOTAL_CHARGE>
0

> <PUBCHEM_SUBSTANCE_ID>
310947505

> <PUBCHEM_SUBSTANCE_VERSION>
1

> <PUBCHEM_EXT_DATASOURCE_NAME>
4488

> <PUBCHEM_EXT_DATASOURCE_REGID>
SCHEMBL16125667

> <PUBCHEM_SUBSTANCE_COMMENT>
InChI=1S/C28H31NO4/c1-3-4-5-6-7-8-13-29-18(2)26-20(11-12-23-28(26)33-17-30-23)21-10-9-19-14-24-25(32-16-31-24)15-22(19)27(21)29/h9-12,14-15,18H,3-8,13,16-17H2,1-2H3
InChIKey=JLEPUPJKNJLFIJ-UHFFFAOYSA-N

> <PUBCHEM_SUBSTANCE_SYNONYM>
SCHEMBL16125667

> <PUBCHEM_XREF_EXT_ID>
SCHEMBL16125667

> <PUBCHEM_EXT_DATASOURCE_URL>
https://www.surechembl.org/

> <PUBCHEM_EXT_SUBSTANCE_URL>
https://www.surechembl.org/chemical/SCHEMBL16125667

> <PUBCHEM_CID_ASSOCIATIONS>
117613228  1

> <PUBCHEM_COORDINATE_TYPE>
1
3

$$$$
