310948921
  -OEChem-07211613022D

 17 18  0     1  0  0  0  0  0999 V2000
   -1.9805    2.1723    0.0000 O   0  0  0  0  0  0  0  0  0  0  0  0
    0.9283   -0.7365    0.0000 O   0  0  0  0  0  0  0  0  0  0  0  0
    2.5745   -2.1599    0.0000 O   0  0  0  0  0  0  0  0  0  0  0  0
   -0.4704   -0.1547    0.0000 N   0  0  0  0  0  0  0  0  0  0  0  0
   -1.9681   -0.3033    0.0000 N   0  0  0  0  0  0  0  0  0  0  0  0
   -0.4704    1.1820    0.0000 N   0  0  0  0  0  0  0  0  0  0  0  0
   -2.6860    0.9345    0.0000 N   0  0  0  0  0  0  0  0  0  0  0  0
   -3.3915   -0.3033    0.0000 N   0  0  0  0  0  0  0  0  0  0  0  0
   -1.2749    0.1052    0.0000 C   0  0  3  0  0  0  0  0  0  0  0  0
   -1.2501    0.9345    0.0000 C   0  0  3  0  0  0  0  0  0  0  0  0
   -1.9805    1.3182    0.0000 C   0  0  0  0  0  0  0  0  0  0  0  0
    0.0124    0.5137    0.0000 C   0  0  0  0  0  0  0  0  0  0  0  0
   -2.6860    0.1052    0.0000 C   0  0  0  0  0  0  0  0  0  0  0  0
    0.0990   -0.7242    0.0000 C   0  0  0  0  0  0  0  0  0  0  0  0
    1.3367   -1.4296    0.0000 C   0  0  0  0  0  0  0  0  0  0  0  0
    2.1785   -1.4543    0.0000 C   0  0  0  0  0  0  0  0  0  0  0  0
    3.3915   -2.1723    0.0000 C   0  0  0  0  0  0  0  0  0  0  0  0
  1 11  2  0  0  0  0
  2 14  1  0  0  0  0
  2 15  1  0  0  0  0
  3 16  1  0  0  0  0
  3 17  1  0  0  0  0
  4  9  1  0  0  0  0
  4 12  1  0  0  0  0
  4 14  1  0  0  0  0
  5  9  1  0  0  0  0
  5 13  2  0  0  0  0
  6 10  1  0  0  0  0
  6 12  2  0  0  0  0
  7 11  1  0  0  0  0
  7 13  1  0  0  0  0
  8 13  1  0  0  0  0
  9 10  1  0  0  0  0
 10 11  1  0  0  0  0
 15 16  1  0  0  0  0
M  END
> <PUBCHEM_COMPOUND_ID_TYPE>
0

> <PUBCHEM_TOTAL_CHARGE>
0

> <PUBCHEM_SUBSTANCE_ID>
310948921

> <PUBCHEM_SUBSTANCE_VERSION>
1

> <PUBCHEM_EXT_DATASOURCE_NAME>
4488

> <PUBCHEM_EXT_DATASOURCE_REGID>
SCHEMBL16127107

> <PUBCHEM_SUBSTANCE_COMMENT>
InChI=1S/C9H15N5O3/c1-16-2-3-17-5-14-4-11-6-7(14)12-9(10)13-8(6)15/h4,6-7H,2-3,5H2,1H3,(H3,10,12,13,15)
InChIKey=LLQVNIQALDOTOM-UHFFFAOYSA-N

> <PUBCHEM_SUBSTANCE_SYNONYM>
SCHEMBL16127107

> <PUBCHEM_XREF_EXT_ID>
SCHEMBL16127107

> <PUBCHEM_EXT_DATASOURCE_URL>
https://www.surechembl.org/

> <PUBCHEM_EXT_SUBSTANCE_URL>
https://www.surechembl.org/chemical/SCHEMBL16127107

> <PUBCHEM_CID_ASSOCIATIONS>
117614436  1

> <PUBCHEM_COORDINATE_TYPE>
1
3

$$$$
