310944080
  -OEChem-07211613022D

 16 16  0     1  0  0  0  0  0999 V2000
   -2.4247    0.8533    0.0000 I   0  0  0  0  0  0  0  0  0  0  0  0
   -2.6238   -0.8106    0.0000 Cl  0  0  0  0  0  0  0  0  0  0  0  0
    0.4337   -0.8106    0.0000 O   0  0  0  0  0  0  0  0  0  0  0  0
    1.8844    1.6354    0.0000 O   0  0  0  0  0  0  0  0  0  0  0  0
    2.6238    0.4409    0.0000 O   0  0  0  0  0  0  0  0  0  0  0  0
    0.4480    0.8533    0.0000 N   0  0  0  0  0  0  0  0  0  0  0  0
   -0.2631    0.4409    0.0000 C   0  0  0  0  0  0  0  0  0  0  0  0
   -0.2773   -0.3840    0.0000 C   0  0  0  0  0  0  0  0  0  0  0  0
   -1.6994    0.4409    0.0000 C   0  0  0  0  0  0  0  0  0  0  0  0
   -1.7137   -0.3840    0.0000 C   0  0  0  0  0  0  0  0  0  0  0  0
   -0.9884    0.8390    0.0000 C   0  0  0  0  0  0  0  0  0  0  0  0
   -0.9884   -0.7964    0.0000 C   0  0  0  0  0  0  0  0  0  0  0  0
    1.1733    0.4409    0.0000 C   0  0  3  0  0  0  0  0  0  0  0  0
    1.8844    0.8533    0.0000 C   0  0  0  0  0  0  0  0  0  0  0  0
    1.1875   -0.3840    0.0000 C   0  0  0  0  0  0  0  0  0  0  0  0
    0.4622   -1.6355    0.0000 C   0  0  0  0  0  0  0  0  0  0  0  0
  1  9  1  0  0  0  0
  2 10  1  0  0  0  0
  3  8  1  0  0  0  0
  3 16  1  0  0  0  0
  4 14  2  0  0  0  0
  5 14  1  0  0  0  0
  6  7  1  0  0  0  0
  6 13  1  0  0  0  0
  7  8  1  0  0  0  0
  7 11  2  0  0  0  0
  8 12  2  0  0  0  0
  9 10  2  0  0  0  0
  9 11  1  0  0  0  0
 10 12  1  0  0  0  0
 13 14  1  0  0  0  0
 13 15  1  0  0  0  0
M  END
> <PUBCHEM_COMPOUND_ID_TYPE>
0

> <PUBCHEM_TOTAL_CHARGE>
0

> <PUBCHEM_SUBSTANCE_ID>
310944080

> <PUBCHEM_SUBSTANCE_VERSION>
1

> <PUBCHEM_EXT_DATASOURCE_NAME>
4488

> <PUBCHEM_EXT_DATASOURCE_REGID>
SCHEMBL16122155

> <PUBCHEM_SUBSTANCE_COMMENT>
InChI=1S/C10H11ClINO3/c1-5(10(14)15)13-8-4-7(12)6(11)3-9(8)16-2/h3-5,13H,1-2H3,(H,14,15)
InChIKey=MGZYBRVKGZCEJP-UHFFFAOYSA-N

> <PUBCHEM_SUBSTANCE_SYNONYM>
SCHEMBL16122155

> <PUBCHEM_XREF_EXT_ID>
SCHEMBL16122155

> <PUBCHEM_EXT_DATASOURCE_URL>
https://www.surechembl.org/

> <PUBCHEM_EXT_SUBSTANCE_URL>
https://www.surechembl.org/chemical/SCHEMBL16122155

> <PUBCHEM_CID_ASSOCIATIONS>
117610372  1

> <PUBCHEM_COORDINATE_TYPE>
1
3

$$$$
