310929639
  -OEChem-07211613022D

 63 71  0     1  0  0  0  0  0999 V2000
    4.4276   -1.3836    0.0000 S   0  0  0  0  0  0  0  0  0  0  0  0
    2.4905   -2.3521    0.0000 O   0  0  0  0  0  0  0  0  0  0  0  0
    5.0271   -1.9371    0.0000 O   0  0  0  0  0  0  0  0  0  0  0  0
    3.8280   -0.7840    0.0000 O   0  0  0  0  0  0  0  0  0  0  0  0
    4.5659   -0.0461    0.0000 O   0  0  0  0  0  0  0  0  0  0  0  0
    7.4254   -3.3668    0.0000 O   0  0  0  0  0  0  0  0  0  0  0  0
    1.2453   -2.0754    0.0000 O   0  0  0  0  0  0  0  0  0  0  0  0
    8.4400   -6.2724    0.0000 O   0  0  0  0  0  0  0  0  0  0  0  0
    2.8595   -8.3017    0.0000 O   0  0  0  0  0  0  0  0  0  0  0  0
    1.6604   -8.6707    0.0000 O   0  0  0  0  0  0  0  0  0  0  0  0
    3.6435   -0.8302    0.0000 N   0  0  0  0  0  0  0  0  0  0  0  0
    3.8741   -1.9832    0.0000 N   0  0  0  0  0  0  0  0  0  0  0  0
    6.0418   -1.4758    0.0000 N   0  0  0  0  0  0  0  0  0  0  0  0
    8.3940   -3.8741    0.0000 N   0  0  0  0  0  0  0  0  0  0  0  0
    1.4297   -7.5176    0.0000 N   0  0  0  0  0  0  0  0  0  0  0  0
    7.1026   -7.9327    0.0000 N   0  0  0  0  0  0  0  0  0  0  0  0
    2.8595   -0.9685    0.0000 C   0  0  3  0  0  0  0  0  0  0  0  0
    2.0754   -1.2914    0.0000 C   0  0  3  0  0  0  0  0  0  0  0  0
    2.2137   -0.5074    0.0000 C   0  0  0  0  0  0  0  0  0  0  0  0
    3.0901   -1.7526    0.0000 C   0  0  0  0  0  0  0  0  0  0  0  0
    5.0271   -0.7840    0.0000 C   0  0  0  0  0  0  0  0  0  0  0  0
    4.4276   -0.8302    0.0000 C   0  0  0  0  0  0  0  0  0  0  0  0
    1.4297   -1.7987    0.0000 C   0  0  0  0  0  0  0  0  0  0  0  0
    5.2116    0.0000    0.0000 C   0  0  0  0  0  0  0  0  0  0  0  0
    5.8112   -0.5535    0.0000 C   0  0  0  0  0  0  0  0  0  0  0  0
    5.2116   -1.1530    0.0000 C   0  0  3  0  0  0  0  0  0  0  0  0
    4.2892   -0.4151    0.0000 C   0  0  0  0  0  0  0  0  0  0  0  0
    6.6413   -1.3836    0.0000 C   0  0  0  0  0  0  0  0  0  0  0  0
    7.1487   -2.7211    0.0000 C   0  0  3  0  0  0  0  0  0  0  0  0
    0.7840   -2.2599    0.0000 C   0  0  0  0  0  0  0  0  0  0  0  0
    6.6413   -1.9371    0.0000 C   0  0  0  0  0  0  0  0  0  0  0  0
    1.8448   -2.6750    0.0000 C   0  0  0  0  0  0  0  0  0  0  0  0
    7.6099   -4.1508    0.0000 C   0  0  0  0  0  0  0  0  0  0  0  0
    0.7840   -6.8719    0.0000 C   0  0  3  0  0  0  0  0  0  0  0  0
    7.6099   -5.1194    0.0000 C   0  0  0  0  0  0  0  0  0  0  0  0
    8.3940   -5.4422    0.0000 C   0  0  0  0  0  0  0  0  0  0  0  0
    9.0396   -5.1194    0.0000 C   0  0  0  0  0  0  0  0  0  0  0  0
    0.3228   -3.0439    0.0000 C   0  0  0  0  0  0  0  0  0  0  0  0
    9.0396   -4.1508    0.0000 C   0  0  0  0  0  0  0  0  0  0  0  0
    0.3228   -6.2262    0.0000 C   0  0  0  0  0  0  0  0  0  0  0  0
    7.4254   -5.9034    0.0000 C   0  0  0  0  0  0  0  0  0  0  0  0
    9.8237   -5.4422    0.0000 C   0  0  0  0  0  0  0  0  0  0  0  0
    9.8237   -3.8741    0.0000 C   0  0  0  0  0  0  0  0  0  0  0  0
    0.1384   -3.8741    0.0000 C   0  0  0  0  0  0  0  0  0  0  0  0
    2.0754   -7.9789    0.0000 C   0  0  0  0  0  0  0  0  0  0  0  0
    3.6435   -8.4400    0.0000 C   0  0  3  0  0  0  0  0  0  0  0  0
    4.4276   -8.4400    0.0000 C   0  0  3  0  0  0  0  0  0  0  0  0
    0.1384   -5.4422    0.0000 C   0  0  0  0  0  0  0  0  0  0  0  0
   10.4693   -5.1194    0.0000 C   0  0  0  0  0  0  0  0  0  0  0  0
   10.4693   -4.1508    0.0000 C   0  0  0  0  0  0  0  0  0  0  0  0
    0.0000   -4.6582    0.0000 C   0  0  0  0  0  0  0  0  0  0  0  0
    4.1047   -9.0857    0.0000 C   0  0  0  0  0  0  0  0  0  0  0  0
    7.0103   -6.4569    0.0000 C   0  0  0  0  0  0  0  0  0  0  0  0
    7.7482   -6.6875    0.0000 C   0  0  0  0  0  0  0  0  0  0  0  0
    5.2116   -8.1172    0.0000 C   0  0  0  0  0  0  0  0  0  0  0  0
    6.6413   -7.1948    0.0000 C   0  0  0  0  0  0  0  0  0  0  0  0
    6.0418   -7.8405    0.0000 C   0  0  0  0  0  0  0  0  0  0  0  0
    7.7943   -7.5176    0.0000 C   0  0  0  0  0  0  0  0  0  0  0  0
    7.1487   -8.7629    0.0000 C   0  0  0  0  0  0  0  0  0  0  0  0
    6.3646   -7.5638    0.0000 C   0  0  0  0  0  0  0  0  0  0  0  0
    6.4569   -9.2241    0.0000 C   0  0  0  0  0  0  0  0  0  0  0  0
    5.6728   -8.0250    0.0000 C   0  0  0  0  0  0  0  0  0  0  0  0
    5.7189   -8.8551    0.0000 C   0  0  0  0  0  0  0  0  0  0  0  0
  1  3  2  0  0  0  0
  1  4  2  0  0  0  0
  1 12  1  0  0  0  0
  1 21  1  0  0  0  0
  2 20  2  0  0  0  0
  5 22  2  0  0  0  0
  6 29  1  0  0  0  0
  6 33  1  0  0  0  0
  7 32  2  0  0  0  0
  8 36  1  0  0  0  0
  8 54  1  0  0  0  0
  9 45  1  0  0  0  0
  9 46  1  0  0  0  0
 10 45  2  0  0  0  0
 11 17  1  0  0  0  0
 11 22  1  0  0  0  0
 12 20  1  0  0  0  0
 13 26  1  0  0  0  0
 13 31  1  0  0  0  0
 13 32  1  0  0  0  0
 14 33  1  0  0  0  0
 14 39  2  0  0  0  0
 15 34  1  0  0  0  0
 15 45  1  0  0  0  0
 16 58  1  0  0  0  0
 16 59  1  0  0  0  0
 16 60  1  0  0  0  0
 17 18  1  0  0  0  0
 17 19  1  0  0  0  0
 17 20  1  6  0  0  0
 18 19  1  6  0  0  0
 18 23  1  0  0  0  0
 21 24  1  0  0  0  0
 21 25  1  0  0  0  0
 21 27  1  0  0  0  0
 22 26  1  0  0  0  0
 23 30  2  3  0  0  0
 24 25  1  0  0  0  0
 26 28  1  6  0  0  0
 29 28  1  1  0  0  0
 29 31  1  0  0  0  0
 30 38  1  0  0  0  0
 32 34  1  0  0  0  0
 33 35  2  0  0  0  0
 34 40  1  1  0  0  0
 35 36  1  0  0  0  0
 35 41  1  0  0  0  0
 36 37  2  0  0  0  0
 37 39  1  0  0  0  0
 37 42  1  0  0  0  0
 38 44  1  0  0  0  0
 39 43  1  0  0  0  0
 40 48  1  0  0  0  0
 41 53  2  0  0  0  0
 42 49  2  0  0  0  0
 43 50  2  0  0  0  0
 44 51  1  0  0  0  0
 46 47  1  0  0  0  0
 46 52  1  1  0  0  0
 47 52  1  6  0  0  0
 47 55  1  0  0  0  0
 48 51  1  0  0  0  0
 49 50  1  0  0  0  0
 53 56  1  0  0  0  0
 54 58  1  0  0  0  0
 55 57  1  0  0  0  0
 56 57  1  0  0  0  0
 59 61  1  0  0  0  0
 60 62  1  0  0  0  0
 61 63  1  0  0  0  0
 62 63  1  0  0  0  0
M  END
> <PUBCHEM_COMPOUND_ID_TYPE>
0

> <PUBCHEM_TOTAL_CHARGE>
0

> <PUBCHEM_SUBSTANCE_ID>
310929639

> <PUBCHEM_SUBSTANCE_VERSION>
1

> <PUBCHEM_EXT_DATASOURCE_NAME>
4488

> <PUBCHEM_EXT_DATASOURCE_REGID>
SCHEMBL16106827

> <PUBCHEM_SUBSTANCE_COMMENT>
InChI=1S/C47H62N6O9S/c1-46(21-22-46)63(58,59)51-44(56)47-29-32(47)16-8-3-2-4-10-20-37-43(55)53-30-33(28-38(53)41(54)50-47)61-42-35(18-9-5-7-15-31-27-39(31)62-45(57)49-37)40(34-17-11-12-19-36(34)48-42)60-26-25-52-23-13-6-14-24-52/h8-9,11-12,16-19,31-33,37-39H,2-7,10,13-15,20-30H2,1H3,(H,49,57)(H,50,54)(H,51,56)/b16-8+,18-9+/t31-,32-,33-,37+,38-,39-,47-/m1/s1
InChIKey=XHNWMBCJKOMJDN-YLUHMCRUSA-N

> <PUBCHEM_SUBSTANCE_SYNONYM>
SCHEMBL16106827

> <PUBCHEM_XREF_EXT_ID>
SCHEMBL16106827

> <PUBCHEM_EXT_DATASOURCE_URL>
https://www.surechembl.org/

> <PUBCHEM_EXT_SUBSTANCE_URL>
https://www.surechembl.org/chemical/SCHEMBL16106827

> <PUBCHEM_CID_ASSOCIATIONS>
117598942  1

> <PUBCHEM_COORDINATE_TYPE>
1
3

> <PUBCHEM_BONDANNOTATIONS>
17  20  6
18  19  6
26  28  6
29  28  5
34  40  5
46  52  5
47  52  6

$$$$
