310947722
  -OEChem-07211613022D

 17 18  0     1  0  0  0  0  0999 V2000
    0.5644   -4.9731    0.0000 N   0  0  0  0  0  0  0  0  0  0  0  0
    1.2319   -5.4580    0.0000 N   0  0  0  0  0  0  0  0  0  0  0  0
    3.0246   -3.8186    0.0000 N   0  0  3  0  0  0  0  0  0  0  0  0
   -0.1338   -2.2248    0.0000 N   0  0  0  0  0  0  0  0  0  0  0  0
    4.9882   -2.8654    0.0000 N   0  0  0  0  0  0  0  0  0  0  0  0
    0.8194   -4.1884    0.0000 C   0  0  0  0  0  0  0  0  0  0  0  0
    1.6444   -4.1884    0.0000 C   0  0  0  0  0  0  0  0  0  0  0  0
    0.2360   -3.6051    0.0000 C   0  0  0  0  0  0  0  0  0  0  0  0
    1.8993   -4.9731    0.0000 C   0  0  0  0  0  0  0  0  0  0  0  0
    2.2277   -3.6051    0.0000 C   0  0  0  0  0  0  0  0  0  0  0  0
    0.4495   -2.8082    0.0000 C   0  0  0  0  0  0  0  0  0  0  0  0
   -0.5609   -3.8186    0.0000 C   0  0  0  0  0  0  0  0  0  0  0  0
   -1.1442   -3.2352    0.0000 C   0  0  0  0  0  0  0  0  0  0  0  0
   -0.9307   -2.4384    0.0000 C   0  0  0  0  0  0  0  0  0  0  0  0
    3.6080   -3.2352    0.0000 C   0  0  0  0  0  0  0  0  0  0  0  0
    3.2381   -4.6155    0.0000 C   0  0  0  0  0  0  0  0  0  0  0  0
    4.4049   -3.4488    0.0000 C   0  0  0  0  0  0  0  0  0  0  0  0
  1  2  1  0  0  0  0
  1  6  1  0  0  0  0
  2  9  2  0  0  0  0
  3 10  1  0  0  0  0
  3 15  1  0  0  0  0
  3 16  1  0  0  0  0
  4 11  1  0  0  0  0
  4 14  2  0  0  0  0
  5 17  1  0  0  0  0
  6  7  2  0  0  0  0
  6  8  1  0  0  0  0
  7  9  1  0  0  0  0
  7 10  1  0  0  0  0
  8 11  2  0  0  0  0
  8 12  1  0  0  0  0
 12 13  2  0  0  0  0
 13 14  1  0  0  0  0
 15 17  1  0  0  0  0
M  END
> <PUBCHEM_COMPOUND_ID_TYPE>
0

> <PUBCHEM_TOTAL_CHARGE>
0

> <PUBCHEM_SUBSTANCE_ID>
310947722

> <PUBCHEM_SUBSTANCE_VERSION>
1

> <PUBCHEM_EXT_DATASOURCE_NAME>
4488

> <PUBCHEM_EXT_DATASOURCE_REGID>
SCHEMBL16125893

> <PUBCHEM_SUBSTANCE_COMMENT>
InChI=1S/C12H17N5/c1-17(6-4-13)9-11-8-15-16-12(11)10-3-2-5-14-7-10/h2-3,5,7-8H,4,6,9,13H2,1H3,(H,15,16)
InChIKey=HNTNKURBPIETDD-UHFFFAOYSA-N

> <PUBCHEM_SUBSTANCE_SYNONYM>
SCHEMBL16125893

> <PUBCHEM_XREF_EXT_ID>
SCHEMBL16125893

> <PUBCHEM_EXT_DATASOURCE_URL>
https://www.surechembl.org/

> <PUBCHEM_EXT_SUBSTANCE_URL>
https://www.surechembl.org/chemical/SCHEMBL16125893

> <PUBCHEM_CID_ASSOCIATIONS>
86302164  1

> <PUBCHEM_COORDINATE_TYPE>
1
3

$$$$
