310946472
  -OEChem-07211613022D

 23 23  0     1  0  0  0  0  0999 V2000
   -1.6247   13.0651    0.0000 O   0  0  0  0  0  0  0  0  0  0  0  0
    1.9477   11.8276    0.0000 O   0  0  0  0  0  0  0  0  0  0  0  0
   -2.3392   11.8276    0.0000 O   0  0  0  0  0  0  0  0  0  0  0  0
    2.6621   10.5901    0.0000 O   0  5  0  0  0  0  0  0  0  0  0  0
    3.3766   11.8276    0.0000 O   0  0  0  0  0  0  0  0  0  0  0  0
   -3.7681   12.6526    0.0000 N   0  0  0  0  0  0  0  0  0  0  0  0
    2.6621   11.4151    0.0000 N   0  3  0  0  0  0  0  0  0  0  0  0
   -3.0536   13.0651    0.0000 C   0  0  3  0  0  0  0  0  0  0  0  0
   -2.4703   14.4735    0.0000 C   0  0  0  0  0  0  0  0  0  0  0  0
   -2.3392   12.6526    0.0000 C   0  0  0  0  0  0  0  0  0  0  0  0
   -3.0536   13.8901    0.0000 C   0  0  0  0  0  0  0  0  0  0  0  0
   -1.6734   14.2600    0.0000 C   0  0  0  0  0  0  0  0  0  0  0  0
   -2.6838   15.2704    0.0000 C   0  0  0  0  0  0  0  0  0  0  0  0
    1.9477   12.6526    0.0000 C   0  0  3  0  0  0  0  0  0  0  0  0
   -1.0900   14.8433    0.0000 C   0  0  0  0  0  0  0  0  0  0  0  0
   -2.1004   15.8538    0.0000 C   0  0  0  0  0  0  0  0  0  0  0  0
   -0.9102   12.6526    0.0000 C   0  0  0  0  0  0  0  0  0  0  0  0
    1.2332   13.0651    0.0000 C   0  0  0  0  0  0  0  0  0  0  0  0
   -1.3035   15.6402    0.0000 C   0  0  0  0  0  0  0  0  0  0  0  0
   -0.1957   13.0651    0.0000 C   0  0  0  0  0  0  0  0  0  0  0  0
    0.5187   12.6526    0.0000 C   0  0  0  0  0  0  0  0  0  0  0  0
    2.6621   13.0651    0.0000 C   0  0  0  0  0  0  0  0  0  0  0  0
    3.3766   12.6526    0.0000 C   0  0  0  0  0  0  0  0  0  0  0  0
  1 10  1  0  0  0  0
  1 17  1  0  0  0  0
  2  7  1  0  0  0  0
  2 14  1  0  0  0  0
  3 10  2  0  0  0  0
  4  7  1  0  0  0  0
  5  7  2  0  0  0  0
  6  8  1  0  0  0  0
  8 10  1  0  0  0  0
  8 11  1  0  0  0  0
  9 11  1  0  0  0  0
  9 12  2  0  0  0  0
  9 13  1  0  0  0  0
 12 15  1  0  0  0  0
 13 16  2  0  0  0  0
 14 18  1  0  0  0  0
 14 22  1  0  0  0  0
 15 19  2  0  0  0  0
 16 19  1  0  0  0  0
 17 20  1  0  0  0  0
 18 21  1  0  0  0  0
 20 21  1  0  0  0  0
 22 23  1  0  0  0  0
M  CHG  2   4  -1   7   1
M  END
> <PUBCHEM_COMPOUND_ID_TYPE>
0

> <PUBCHEM_TOTAL_CHARGE>
0

> <PUBCHEM_SUBSTANCE_ID>
310946472

> <PUBCHEM_SUBSTANCE_VERSION>
1

> <PUBCHEM_EXT_DATASOURCE_NAME>
4488

> <PUBCHEM_EXT_DATASOURCE_REGID>
SCHEMBL16124593

> <PUBCHEM_SUBSTANCE_COMMENT>
InChI=1S/C16H24N2O5/c1-2-14(23-18(20)21)10-6-7-11-22-16(19)15(17)12-13-8-4-3-5-9-13/h3-5,8-9,14-15H,2,6-7,10-12,17H2,1H3
InChIKey=CTMMTJIZJVUEIR-UHFFFAOYSA-N

> <PUBCHEM_SUBSTANCE_SYNONYM>
SCHEMBL16124593

> <PUBCHEM_XREF_EXT_ID>
SCHEMBL16124593

> <PUBCHEM_EXT_DATASOURCE_URL>
https://www.surechembl.org/

> <PUBCHEM_EXT_SUBSTANCE_URL>
https://www.surechembl.org/chemical/SCHEMBL16124593

> <PUBCHEM_CID_ASSOCIATIONS>
117612381  1

> <PUBCHEM_COORDINATE_TYPE>
1
3

$$$$
