310945562
  -OEChem-07211613022D

 25 27  0     1  0  0  0  0  0999 V2000
    2.9676    0.0366    0.0000 F   0  0  0  0  0  0  0  0  0  0  0  0
    2.4841   -0.9892    0.0000 F   0  0  0  0  0  0  0  0  0  0  0  0
    1.4435   -0.5056    0.0000 F   0  0  0  0  0  0  0  0  0  0  0  0
   -2.3961    1.0918    0.0000 O   0  0  0  0  0  0  0  0  0  0  0  0
    0.4177    0.3297    0.0000 N   0  0  0  0  0  0  0  0  0  0  0  0
    2.4401    1.2677    0.0000 N   0  0  0  0  0  0  0  0  0  0  0  0
   -0.2711   -1.7806    0.0000 N   0  0  0  0  0  0  0  0  0  0  0  0
    1.0772    0.8426    0.0000 C   0  0  0  0  0  0  0  0  0  0  0  0
    0.8280    1.6047    0.0000 C   0  0  0  0  0  0  0  0  0  0  0  0
   -0.2565    0.8426    0.0000 C   0  0  0  0  0  0  0  0  0  0  0  0
    0.0073    1.6341    0.0000 C   0  0  0  0  0  0  0  0  0  0  0  0
    1.8832    0.6375    0.0000 C   0  0  0  0  0  0  0  0  0  0  0  0
    0.4177   -0.4763    0.0000 C   0  0  3  0  0  0  0  0  0  0  0  0
    2.1909   -0.2271    0.0000 C   0  0  0  0  0  0  0  0  0  0  0  0
    1.3849    2.2203    0.0000 C   0  0  0  0  0  0  0  0  0  0  0  0
   -1.0478    0.6668    0.0000 C   0  0  0  0  0  0  0  0  0  0  0  0
   -0.5349    2.2203    0.0000 C   0  0  0  0  0  0  0  0  0  0  0  0
   -1.6047    1.2824    0.0000 C   0  0  0  0  0  0  0  0  0  0  0  0
    2.1909    2.0444    0.0000 C   0  0  0  0  0  0  0  0  0  0  0  0
   -1.3409    2.0590    0.0000 C   0  0  0  0  0  0  0  0  0  0  0  0
   -0.2565   -0.9452    0.0000 C   0  0  0  0  0  0  0  0  0  0  0  0
    1.1651   -0.8573    0.0000 C   0  0  0  0  0  0  0  0  0  0  0  0
   -2.9676    1.7220    0.0000 C   0  0  0  0  0  0  0  0  0  0  0  0
    0.4616   -2.2203    0.0000 C   0  0  0  0  0  0  0  0  0  0  0  0
   -0.9892   -2.2056    0.0000 C   0  0  0  0  0  0  0  0  0  0  0  0
  1 14  1  0  0  0  0
  2 14  1  0  0  0  0
  3 14  1  0  0  0  0
  4 18  1  0  0  0  0
  4 23  1  0  0  0  0
  5  8  1  0  0  0  0
  5 10  1  0  0  0  0
  5 13  1  0  0  0  0
  6 12  2  0  0  0  0
  6 19  1  0  0  0  0
  7 21  1  0  0  0  0
  7 24  1  0  0  0  0
  7 25  1  0  0  0  0
  8  9  2  0  0  0  0
  8 12  1  0  0  0  0
  9 11  1  0  0  0  0
  9 15  1  0  0  0  0
 10 11  2  0  0  0  0
 10 16  1  0  0  0  0
 11 17  1  0  0  0  0
 12 14  1  0  0  0  0
 13 21  1  0  0  0  0
 13 22  1  0  0  0  0
 15 19  2  0  0  0  0
 16 18  2  0  0  0  0
 17 20  2  0  0  0  0
 18 20  1  0  0  0  0
M  END
> <PUBCHEM_COMPOUND_ID_TYPE>
0

> <PUBCHEM_TOTAL_CHARGE>
0

> <PUBCHEM_SUBSTANCE_ID>
310945562

> <PUBCHEM_SUBSTANCE_VERSION>
1

> <PUBCHEM_EXT_DATASOURCE_NAME>
4488

> <PUBCHEM_EXT_DATASOURCE_REGID>
SCHEMBL16123660

> <PUBCHEM_SUBSTANCE_COMMENT>
InChI=1S/C18H20F3N3O/c1-11(10-23(2)3)24-15-9-12(25-4)5-6-13(15)14-7-8-22-17(16(14)24)18(19,20)21/h5-9,11H,10H2,1-4H3
InChIKey=LWARKHHCHNLFTM-UHFFFAOYSA-N

> <PUBCHEM_SUBSTANCE_SYNONYM>
SCHEMBL16123660

> <PUBCHEM_XREF_EXT_ID>
SCHEMBL16123660

> <PUBCHEM_EXT_DATASOURCE_URL>
https://www.surechembl.org/

> <PUBCHEM_EXT_SUBSTANCE_URL>
https://www.surechembl.org/chemical/SCHEMBL16123660

> <PUBCHEM_CID_ASSOCIATIONS>
117611596  1

> <PUBCHEM_COORDINATE_TYPE>
1
3

$$$$
