310944404
  -OEChem-07211613022D

 42 47  0     1  0  0  0  0  0999 V2000
   -0.0188    4.2933    0.0000 F   0  0  0  0  0  0  0  0  0  0  0  0
   -0.0188   -1.4749    0.0000 N   0  0  0  0  0  0  0  0  0  0  0  0
    2.1419    3.8424    0.0000 N   0  0  0  0  0  0  0  0  0  0  0  0
   -2.1795    3.8235    0.0000 N   0  0  0  0  0  0  0  0  0  0  0  0
    0.0000   -0.6106    0.0000 C   0  0  0  0  0  0  0  0  0  0  0  0
   -0.7328   -1.8507    0.0000 C   0  0  0  0  0  0  0  0  0  0  0  0
    0.7328   -1.8507    0.0000 C   0  0  3  0  0  0  0  0  0  0  0  0
   -0.0188    1.0052    0.0000 C   0  0  0  0  0  0  0  0  0  0  0  0
   -0.0188    1.8319    0.0000 C   0  0  0  0  0  0  0  0  0  0  0  0
   -0.7140   -0.1973    0.0000 C   0  0  0  0  0  0  0  0  0  0  0  0
    0.6952   -0.2161    0.0000 C   0  0  0  0  0  0  0  0  0  0  0  0
    0.7140    3.0720    0.0000 C   0  0  0  0  0  0  0  0  0  0  0  0
   -0.7328    3.0720    0.0000 C   0  0  0  0  0  0  0  0  0  0  0  0
   -0.7328    0.5919    0.0000 C   0  0  0  0  0  0  0  0  0  0  0  0
    0.7140    0.5919    0.0000 C   0  0  0  0  0  0  0  0  0  0  0  0
   -0.0375    3.4853    0.0000 C   0  0  0  0  0  0  0  0  0  0  0  0
    0.6952    2.2453    0.0000 C   0  0  0  0  0  0  0  0  0  0  0  0
   -0.7328    2.2640    0.0000 C   0  0  0  0  0  0  0  0  0  0  0  0
   -1.4655   -1.4561    0.0000 C   0  0  0  0  0  0  0  0  0  0  0  0
   -0.7515   -2.6774    0.0000 C   0  0  0  0  0  0  0  0  0  0  0  0
    1.4280   -1.4561    0.0000 C   0  0  0  0  0  0  0  0  0  0  0  0
    0.7515   -2.6774    0.0000 C   0  0  0  0  0  0  0  0  0  0  0  0
   -2.2171   -2.6774    0.0000 C   0  0  0  0  0  0  0  0  0  0  0  0
    2.1419   -2.6586    0.0000 C   0  0  0  0  0  0  0  0  0  0  0  0
   -2.1795   -1.8507    0.0000 C   0  0  0  0  0  0  0  0  0  0  0  0
   -1.4467   -3.0720    0.0000 C   0  0  0  0  0  0  0  0  0  0  0  0
    2.1607   -1.8882    0.0000 C   0  0  0  0  0  0  0  0  0  0  0  0
    1.5031   -3.0532    0.0000 C   0  0  0  0  0  0  0  0  0  0  0  0
   -2.9311   -3.0908    0.0000 C   0  0  0  0  0  0  0  0  0  0  0  0
    2.8935   -3.0720    0.0000 C   0  0  0  0  0  0  0  0  0  0  0  0
    1.4280    3.4853    0.0000 C   0  0  0  0  0  0  0  0  0  0  0  0
   -1.4844    3.4666    0.0000 C   0  0  0  0  0  0  0  0  0  0  0  0
   -3.6451   -2.6962    0.0000 C   0  0  0  0  0  0  0  0  0  0  0  0
   -2.9311   -3.8799    0.0000 C   0  0  0  0  0  0  0  0  0  0  0  0
    2.9123   -3.8799    0.0000 C   0  0  0  0  0  0  0  0  0  0  0  0
    3.6451   -2.6774    0.0000 C   0  0  0  0  0  0  0  0  0  0  0  0
   -4.3778   -3.1095    0.0000 C   0  0  0  0  0  0  0  0  0  0  0  0
   -3.6074   -4.2933    0.0000 C   0  0  0  0  0  0  0  0  0  0  0  0
    3.6638   -4.2933    0.0000 C   0  0  0  0  0  0  0  0  0  0  0  0
    4.3778   -3.0720    0.0000 C   0  0  0  0  0  0  0  0  0  0  0  0
   -4.3590   -3.9175    0.0000 C   0  0  0  0  0  0  0  0  0  0  0  0
    4.3778   -3.8799    0.0000 C   0  0  0  0  0  0  0  0  0  0  0  0
  1 16  1  0  0  0  0
  2  5  1  0  0  0  0
  2  6  1  0  0  0  0
  2  7  1  0  0  0  0
  3 31  3  0  0  0  0
  4 32  3  0  0  0  0
  5 10  2  0  0  0  0
  5 11  1  0  0  0  0
  6 19  2  0  0  0  0
  6 20  1  0  0  0  0
  7 21  1  0  0  0  0
  7 22  1  0  0  0  0
  8  9  1  0  0  0  0
  8 14  2  0  0  0  0
  8 15  1  0  0  0  0
  9 17  2  0  0  0  0
  9 18  1  0  0  0  0
 10 14  1  0  0  0  0
 11 15  2  0  0  0  0
 12 16  2  0  0  0  0
 12 17  1  0  0  0  0
 12 31  1  0  0  0  0
 13 16  1  0  0  0  0
 13 18  2  0  0  0  0
 13 32  1  0  0  0  0
 19 25  1  0  0  0  0
 20 26  2  0  0  0  0
 21 27  2  0  0  0  0
 22 28  1  0  0  0  0
 23 25  2  0  0  0  0
 23 26  1  0  0  0  0
 23 29  1  0  0  0  0
 24 27  1  0  0  0  0
 24 28  2  0  0  0  0
 24 30  1  0  0  0  0
 29 33  2  0  0  0  0
 29 34  1  0  0  0  0
 30 35  2  0  0  0  0
 30 36  1  0  0  0  0
 33 37  1  0  0  0  0
 34 38  2  0  0  0  0
 35 39  1  0  0  0  0
 36 40  2  0  0  0  0
 37 41  2  0  0  0  0
 38 41  1  0  0  0  0
 39 42  2  0  0  0  0
 40 42  1  0  0  0  0
M  END
> <PUBCHEM_COMPOUND_ID_TYPE>
0

> <PUBCHEM_TOTAL_CHARGE>
0

> <PUBCHEM_SUBSTANCE_ID>
310944404

> <PUBCHEM_SUBSTANCE_VERSION>
1

> <PUBCHEM_EXT_DATASOURCE_NAME>
4488

> <PUBCHEM_EXT_DATASOURCE_REGID>
SCHEMBL16122479

> <PUBCHEM_SUBSTANCE_COMMENT>
InChI=1S/C38H26FN3/c39-38-33(25-40)23-32(24-34(38)26-41)31-15-21-37(22-16-31)42(35-17-11-29(12-18-35)27-7-3-1-4-8-27)36-19-13-30(14-20-36)28-9-5-2-6-10-28/h1-19,21-24,36H,20H2
InChIKey=RZZZERMNBHGBFW-UHFFFAOYSA-N

> <PUBCHEM_SUBSTANCE_SYNONYM>
SCHEMBL16122479

> <PUBCHEM_XREF_EXT_ID>
SCHEMBL16122479

> <PUBCHEM_EXT_DATASOURCE_URL>
https://www.surechembl.org/

> <PUBCHEM_EXT_SUBSTANCE_URL>
https://www.surechembl.org/chemical/SCHEMBL16122479

> <PUBCHEM_CID_ASSOCIATIONS>
117610661  1

> <PUBCHEM_COORDINATE_TYPE>
1
3

$$$$
