310946545
  -OEChem-07211613022D

 15 14  0     1  0  0  0  0  0999 V2000
    3.5285   10.8187    0.0000 O   0  0  0  0  0  0  0  0  0  0  0  0
    4.2429   12.0562    0.0000 O   0  0  0  0  0  0  0  0  0  0  0  0
    2.8140   12.0562    0.0000 O   0  0  0  0  0  0  0  0  0  0  0  0
    3.5285    8.3437    0.0000 O   0  0  0  0  0  0  0  0  0  0  0  0
    4.2429    9.5812    0.0000 O   0  0  0  0  0  0  0  0  0  0  0  0
    2.0995    9.1687    0.0000 N   0  0  0  0  0  0  0  0  0  0  0  0
    2.8140    9.5812    0.0000 C   0  0  3  0  0  0  0  0  0  0  0  0
    3.5285   11.6437    0.0000 C   0  0  0  0  0  0  0  0  0  0  0  0
    2.8140   10.4062    0.0000 C   0  0  0  0  0  0  0  0  0  0  0  0
    3.5285    9.1687    0.0000 C   0  0  0  0  0  0  0  0  0  0  0  0
    4.9574   11.6437    0.0000 C   0  0  0  0  0  0  0  0  0  0  0  0
    5.6719   12.0562    0.0000 C   0  0  0  0  0  0  0  0  0  0  0  0
    6.3863   11.6437    0.0000 C   0  0  0  0  0  0  0  0  0  0  0  0
    7.1008   12.0562    0.0000 C   0  0  0  0  0  0  0  0  0  0  0  0
    7.8153   11.6437    0.0000 C   0  0  0  0  0  0  0  0  0  0  0  0
  1  8  1  0  0  0  0
  1  9  1  0  0  0  0
  2  8  1  0  0  0  0
  2 11  1  0  0  0  0
  3  8  2  0  0  0  0
  4 10  2  0  0  0  0
  5 10  1  0  0  0  0
  6  7  1  0  0  0  0
  7  9  1  0  0  0  0
  7 10  1  0  0  0  0
 11 12  1  0  0  0  0
 12 13  1  0  0  0  0
 13 14  1  0  0  0  0
 14 15  1  0  0  0  0
M  END
> <PUBCHEM_COMPOUND_ID_TYPE>
0

> <PUBCHEM_TOTAL_CHARGE>
0

> <PUBCHEM_SUBSTANCE_ID>
310946545

> <PUBCHEM_SUBSTANCE_VERSION>
1

> <PUBCHEM_EXT_DATASOURCE_NAME>
4488

> <PUBCHEM_EXT_DATASOURCE_REGID>
SCHEMBL16124666

> <PUBCHEM_SUBSTANCE_COMMENT>
InChI=1S/C9H17NO5/c1-2-3-4-5-14-9(13)15-6-7(10)8(11)12/h7H,2-6,10H2,1H3,(H,11,12)
InChIKey=SNIWEAGBNDKPDF-UHFFFAOYSA-N

> <PUBCHEM_SUBSTANCE_SYNONYM>
SCHEMBL16124666

> <PUBCHEM_XREF_EXT_ID>
SCHEMBL16124666

> <PUBCHEM_EXT_DATASOURCE_URL>
https://www.surechembl.org/

> <PUBCHEM_EXT_SUBSTANCE_URL>
https://www.surechembl.org/chemical/SCHEMBL16124666

> <PUBCHEM_CID_ASSOCIATIONS>
117612449  1

> <PUBCHEM_COORDINATE_TYPE>
1
3

$$$$
