310935997
  -OEChem-07211613022D

 43 48  0     1  0  0  0  0  0999 V2000
    5.6827   -4.4131    0.0000 S   0  0  0  0  0  0  0  0  0  0  0  0
    5.8640   -0.6952    0.0000 F   0  0  0  0  0  0  0  0  0  0  0  0
    4.6248    0.0000    0.0000 F   0  0  0  0  0  0  0  0  0  0  0  0
    5.4408   -1.4207    0.0000 F   0  0  0  0  0  0  0  0  0  0  0  0
    6.1361   -5.1688    0.0000 O   0  0  0  0  0  0  0  0  0  0  0  0
    5.2897   -3.7179    0.0000 O   0  0  0  0  0  0  0  0  0  0  0  0
    2.1461   -4.8061    0.0000 N   0  0  3  0  0  0  0  0  0  0  0  0
    0.7255   -4.8363    0.0000 N   0  0  0  0  0  0  0  0  0  0  0  0
    0.0302   -3.5668    0.0000 N   0  0  0  0  0  0  0  0  0  0  0  0
    6.3779   -4.0202    0.0000 N   0  0  3  0  0  0  0  0  0  0  0  0
    3.5970   -0.7255    0.0000 N   0  0  0  0  0  0  0  0  0  0  0  0
    4.4434   -2.1159    0.0000 N   0  0  0  0  0  0  0  0  0  0  0  0
    1.4509   -3.5668    0.0000 C   0  0  0  0  0  0  0  0  0  0  0  0
    1.4509   -4.4131    0.0000 C   0  0  0  0  0  0  0  0  0  0  0  0
    0.7255   -3.1739    0.0000 C   0  0  0  0  0  0  0  0  0  0  0  0
    3.5970   -4.8061    0.0000 C   0  0  0  0  0  0  0  0  0  0  0  0
    2.1461   -2.3577    0.0000 C   0  0  0  0  0  0  0  0  0  0  0  0
    4.9874   -4.8061    0.0000 C   0  0  0  0  0  0  0  0  0  0  0  0
    3.5970   -5.6222    0.0000 C   0  0  0  0  0  0  0  0  0  0  0  0
    2.1461   -3.1739    0.0000 C   0  0  0  0  0  0  0  0  0  0  0  0
    0.7255   -2.3577    0.0000 C   0  0  0  0  0  0  0  0  0  0  0  0
    2.8716   -4.4131    0.0000 C   0  0  0  0  0  0  0  0  0  0  0  0
    4.2620   -4.4131    0.0000 C   0  0  0  0  0  0  0  0  0  0  0  0
    1.4509   -1.9648    0.0000 C   0  0  0  0  0  0  0  0  0  0  0  0
    2.8716   -1.9648    0.0000 C   0  0  0  0  0  0  0  0  0  0  0  0
    2.1461   -5.6222    0.0000 C   0  0  0  0  0  0  0  0  0  0  0  0
    2.8716   -6.0454    0.0000 C   0  0  0  0  0  0  0  0  0  0  0  0
    4.9874   -5.6222    0.0000 C   0  0  0  0  0  0  0  0  0  0  0  0
    4.2620   -6.0454    0.0000 C   0  0  0  0  0  0  0  0  0  0  0  0
    0.0000   -4.4131    0.0000 C   0  0  0  0  0  0  0  0  0  0  0  0
    2.9018   -1.1184    0.0000 C   0  0  0  0  0  0  0  0  0  0  0  0
    3.5970   -2.3577    0.0000 C   0  0  0  0  0  0  0  0  0  0  0  0
    4.3225   -1.1184    0.0000 C   0  0  0  0  0  0  0  0  0  0  0  0
    0.0000   -1.9648    0.0000 C   0  0  0  0  0  0  0  0  0  0  0  0
    6.3779   -3.1739    0.0000 C   0  0  0  0  0  0  0  0  0  0  0  0
    4.2922   -1.9345    0.0000 C   0  0  0  0  0  0  0  0  0  0  0  0
    5.0177   -0.6952    0.0000 C   0  0  0  0  0  0  0  0  0  0  0  0
    5.6827   -2.7809    0.0000 C   0  0  0  0  0  0  0  0  0  0  0  0
    7.1034   -4.4131    0.0000 C   0  0  0  0  0  0  0  0  0  0  0  0
    5.6827   -1.9345    0.0000 C   0  0  0  0  0  0  0  0  0  0  0  0
    4.9572   -3.1739    0.0000 C   0  0  0  0  0  0  0  0  0  0  0  0
    4.9572   -1.5416    0.0000 C   0  0  0  0  0  0  0  0  0  0  0  0
    4.2620   -2.7507    0.0000 C   0  0  0  0  0  0  0  0  0  0  0  0
  1  5  2  0  0  0  0
  1  6  2  0  0  0  0
  1 10  1  0  0  0  0
  1 18  1  0  0  0  0
  2 37  1  0  0  0  0
  3 37  1  0  0  0  0
  4 37  1  0  0  0  0
  7 14  1  0  0  0  0
  7 22  1  0  0  0  0
  7 26  1  0  0  0  0
  8 14  1  0  0  0  0
  8 30  2  0  0  0  0
  9 15  2  0  0  0  0
  9 30  1  0  0  0  0
 10 35  1  0  0  0  0
 10 39  1  0  0  0  0
 11 31  1  0  0  0  0
 11 33  2  0  0  0  0
 12 42  1  0  0  0  0
 12 43  1  0  0  0  0
 13 14  2  0  0  0  0
 13 15  1  0  0  0  0
 13 20  1  0  0  0  0
 15 21  1  0  0  0  0
 16 19  2  0  0  0  0
 16 22  1  0  0  0  0
 16 23  1  0  0  0  0
 17 20  2  0  0  0  0
 17 24  1  0  0  0  0
 17 25  1  0  0  0  0
 18 23  2  0  0  0  0
 18 28  1  0  0  0  0
 19 27  1  0  0  0  0
 19 29  1  0  0  0  0
 21 24  2  0  0  0  0
 21 34  1  0  0  0  0
 25 31  2  0  0  0  0
 25 32  1  0  0  0  0
 26 27  1  0  0  0  0
 28 29  2  0  0  0  0
 32 36  2  0  0  0  0
 33 36  1  0  0  0  0
 33 37  1  0  0  0  0
 35 38  1  0  0  0  0
 38 40  1  0  0  0  0
 38 41  1  0  0  0  0
 40 42  1  0  0  0  0
 41 43  1  0  0  0  0
M  END
> <PUBCHEM_COMPOUND_ID_TYPE>
0

> <PUBCHEM_TOTAL_CHARGE>
0

> <PUBCHEM_SUBSTANCE_ID>
310935997

> <PUBCHEM_SUBSTANCE_VERSION>
1

> <PUBCHEM_EXT_DATASOURCE_NAME>
4488

> <PUBCHEM_EXT_DATASOURCE_REGID>
SCHEMBL16113598

> <PUBCHEM_SUBSTANCE_COMMENT>
InChI=1S/C31H33F3N6O2S/c1-20-13-24(23-4-6-28(36-16-23)31(32,33)34)15-27-29(20)37-19-38-30(27)40-12-9-22-3-5-26(14-25(22)18-40)43(41,42)39(2)17-21-7-10-35-11-8-21/h3-6,13-16,19,21,35H,7-12,17-18H2,1-2H3
InChIKey=ODPOVMBDGBARQY-UHFFFAOYSA-N

> <PUBCHEM_SUBSTANCE_SYNONYM>
SCHEMBL16113598

> <PUBCHEM_XREF_EXT_ID>
SCHEMBL16113598

> <PUBCHEM_EXT_DATASOURCE_URL>
https://www.surechembl.org/

> <PUBCHEM_EXT_SUBSTANCE_URL>
https://www.surechembl.org/chemical/SCHEMBL16113598

> <PUBCHEM_CID_ASSOCIATIONS>
86301211  1

> <PUBCHEM_COORDINATE_TYPE>
1
3

$$$$
