310940790
  -OEChem-07211613022D

 43 46  0     1  0  0  0  0  0999 V2000
    2.4038    2.7253    0.0000 S   0  0  0  0  0  0  0  0  0  0  0  0
    5.1948   -1.8778    0.0000 O   0  0  0  0  0  0  0  0  0  0  0  0
    4.0550    0.0950    0.0000 O   0  0  0  0  0  0  0  0  0  0  0  0
    1.6731   -1.8632    0.0000 O   0  0  0  0  0  0  0  0  0  0  0  0
    1.5708    2.7253    0.0000 O   0  0  0  0  0  0  0  0  0  0  0  0
    3.2367    2.7253    0.0000 O   0  0  0  0  0  0  0  0  0  0  0  0
   -0.4895    0.2265    0.0000 O   0  0  0  0  0  0  0  0  0  0  0  0
   -2.6522   -1.8632    0.0000 O   0  0  0  0  0  0  0  0  0  0  0  0
   -5.5308   -1.8632    0.0000 O   0  0  0  0  0  0  0  0  0  0  0  0
    2.4038   -0.6064    0.0000 N   0  0  0  0  0  0  0  0  0  0  0  0
    0.2411   -1.0301    0.0000 N   0  0  0  0  0  0  0  0  0  0  0  0
   -1.9216   -0.6064    0.0000 N   0  0  0  0  0  0  0  0  0  0  0  0
   -4.0842   -1.0301    0.0000 N   0  0  0  0  0  0  0  0  0  0  0  0
    4.7856   -1.1325    0.0000 C   0  0  3  0  0  0  0  0  0  0  0  0
    4.0696   -0.7233    0.0000 C   0  0  0  0  0  0  0  0  0  0  0  0
    4.3911   -1.8339    0.0000 C   0  0  0  0  0  0  0  0  0  0  0  0
    3.3537   -1.1179    0.0000 C   0  0  3  0  0  0  0  0  0  0  0  0
    5.5308   -0.7233    0.0000 C   0  0  0  0  0  0  0  0  0  0  0  0
    3.3537   -2.1992    0.0000 C   0  0  0  0  0  0  0  0  0  0  0  0
    1.7023   -0.9717    0.0000 C   0  0  0  0  0  0  0  0  0  0  0  0
    0.9717   -0.5773    0.0000 C   0  0  3  0  0  0  0  0  0  0  0  0
    2.6230   -2.6230    0.0000 C   0  0  0  0  0  0  0  0  0  0  0  0
    1.6731    0.6795    0.0000 C   0  0  0  0  0  0  0  0  0  0  0  0
    0.9863    0.2703    0.0000 C   0  0  0  0  0  0  0  0  0  0  0  0
    2.4038    1.9216    0.0000 C   0  0  0  0  0  0  0  0  0  0  0  0
    1.7023    1.5124    0.0000 C   0  0  0  0  0  0  0  0  0  0  0  0
   -0.4895   -0.5918    0.0000 C   0  0  0  0  0  0  0  0  0  0  0  0
    1.8632   -2.3015    0.0000 C   0  0  0  0  0  0  0  0  0  0  0  0
    2.5206   -3.4413    0.0000 C   0  0  0  0  0  0  0  0  0  0  0  0
    2.4038    0.2703    0.0000 C   0  0  0  0  0  0  0  0  0  0  0  0
    3.1344    1.4978    0.0000 C   0  0  0  0  0  0  0  0  0  0  0  0
   -1.1764   -1.0010    0.0000 C   0  0  3  0  0  0  0  0  0  0  0  0
    3.1344    0.6795    0.0000 C   0  0  0  0  0  0  0  0  0  0  0  0
    1.3225   -2.9006    0.0000 C   0  0  0  0  0  0  0  0  0  0  0  0
    1.7170   -3.6020    0.0000 C   0  0  0  0  0  0  0  0  0  0  0  0
    2.4183    3.6020    0.0000 C   0  0  0  0  0  0  0  0  0  0  0  0
   -2.6230   -0.9717    0.0000 C   0  0  0  0  0  0  0  0  0  0  0  0
   -1.1910   -1.8485    0.0000 C   0  0  0  0  0  0  0  0  0  0  0  0
   -3.3537   -0.5773    0.0000 C   0  0  0  0  0  0  0  0  0  0  0  0
   -4.0842   -1.8339    0.0000 C   0  0  0  0  0  0  0  0  0  0  0  0
   -4.8148   -0.5773    0.0000 C   0  0  0  0  0  0  0  0  0  0  0  0
   -4.7856   -2.2430    0.0000 C   0  0  0  0  0  0  0  0  0  0  0  0
   -5.5017   -0.9863    0.0000 C   0  0  0  0  0  0  0  0  0  0  0  0
  1  5  2  0  0  0  0
  1  6  2  0  0  0  0
  1 25  1  0  0  0  0
  1 36  1  0  0  0  0
  2 14  1  0  0  0  0
  2 16  1  0  0  0  0
  3 15  2  0  0  0  0
  4 20  2  0  0  0  0
  7 27  2  0  0  0  0
  8 37  2  0  0  0  0
  9 42  1  0  0  0  0
  9 43  1  0  0  0  0
 10 17  1  0  0  0  0
 10 20  1  0  0  0  0
 11 21  1  0  0  0  0
 11 27  1  0  0  0  0
 12 32  1  0  0  0  0
 12 37  1  0  0  0  0
 13 39  1  0  0  0  0
 13 40  1  0  0  0  0
 13 41  1  0  0  0  0
 14 15  1  0  0  0  0
 14 16  1  0  0  0  0
 14 18  1  0  0  0  0
 15 17  1  0  0  0  0
 17 19  1  0  0  0  0
 19 22  1  0  0  0  0
 20 21  1  0  0  0  0
 21 24  1  0  0  0  0
 22 28  1  0  0  0  0
 22 29  1  0  0  0  0
 23 24  1  0  0  0  0
 23 26  1  0  0  0  0
 23 30  2  0  0  0  0
 25 26  2  0  0  0  0
 25 31  1  0  0  0  0
 27 32  1  0  0  0  0
 28 34  1  0  0  0  0
 29 35  1  0  0  0  0
 30 33  1  0  0  0  0
 31 33  2  0  0  0  0
 32 38  1  0  0  0  0
 34 35  1  0  0  0  0
 37 39  1  0  0  0  0
 40 42  1  0  0  0  0
 41 43  1  0  0  0  0
M  END
> <PUBCHEM_COMPOUND_ID_TYPE>
0

> <PUBCHEM_TOTAL_CHARGE>
0

> <PUBCHEM_SUBSTANCE_ID>
310940790

> <PUBCHEM_SUBSTANCE_VERSION>
1

> <PUBCHEM_EXT_DATASOURCE_NAME>
4488

> <PUBCHEM_EXT_DATASOURCE_REGID>
SCHEMBL16118749

> <PUBCHEM_SUBSTANCE_COMMENT>
InChI=1S/C30H44N4O8S/c1-20(31-26(35)18-34-11-13-41-14-12-34)28(37)33-25(17-22-9-6-10-23(15-22)43(3,39)40)29(38)32-24(16-21-7-4-5-8-21)27(36)30(2)19-42-30/h6,9-10,15,20-21,24-25H,4-5,7-8,11-14,16-19H2,1-3H3,(H,31,35)(H,32,38)(H,33,37)
InChIKey=PQUNHZLLOHDCSD-UHFFFAOYSA-N

> <PUBCHEM_SUBSTANCE_SYNONYM>
SCHEMBL16118749

> <PUBCHEM_XREF_EXT_ID>
SCHEMBL16118749

> <PUBCHEM_EXT_DATASOURCE_URL>
https://www.surechembl.org/

> <PUBCHEM_EXT_SUBSTANCE_URL>
https://www.surechembl.org/chemical/SCHEMBL16118749

> <PUBCHEM_CID_ASSOCIATIONS>
86296922  1

> <PUBCHEM_COORDINATE_TYPE>
1
3

$$$$
