310948381
  -OEChem-07211613022D

 15 16  0     1  0  0  0  0  0999 V2000
   -0.7746    2.3873    0.0000 Br  0  0  0  0  0  0  0  0  0  0  0  0
   -0.6105   -0.8748    0.0000 S   0  0  0  0  0  0  0  0  0  0  0  0
   -1.4305   -0.9659    0.0000 O   0  0  0  0  0  0  0  0  0  0  0  0
   -0.6105   -1.6948    0.0000 O   0  0  0  0  0  0  0  0  0  0  0  0
    0.2096   -0.9477    0.0000 N   0  0  3  0  0  0  0  0  0  0  0  0
   -0.7562   -0.0547    0.0000 C   0  0  0  0  0  0  0  0  0  0  0  0
   -0.0637    0.3462    0.0000 C   0  0  0  0  0  0  0  0  0  0  0  0
    0.5558   -0.2005    0.0000 C   0  0  0  0  0  0  0  0  0  0  0  0
   -1.4852    0.3462    0.0000 C   0  0  0  0  0  0  0  0  0  0  0  0
    0.6287   -1.6401    0.0000 C   0  0  0  0  0  0  0  0  0  0  0  0
   -0.0637    1.1481    0.0000 C   0  0  0  0  0  0  0  0  0  0  0  0
   -0.7746    1.5673    0.0000 C   0  0  0  0  0  0  0  0  0  0  0  0
   -1.4670    1.1663    0.0000 C   0  0  0  0  0  0  0  0  0  0  0  0
    1.4852   -1.6583    0.0000 C   0  0  0  0  0  0  0  0  0  0  0  0
    0.2460   -2.3873    0.0000 C   0  0  0  0  0  0  0  0  0  0  0  0
  1 12  1  0  0  0  0
  2  3  2  0  0  0  0
  2  4  2  0  0  0  0
  2  5  1  0  0  0  0
  2  6  1  0  0  0  0
  5  8  1  0  0  0  0
  5 10  1  0  0  0  0
  6  7  2  0  0  0  0
  6  9  1  0  0  0  0
  7  8  1  0  0  0  0
  7 11  1  0  0  0  0
  9 13  2  0  0  0  0
 10 14  1  0  0  0  0
 10 15  1  0  0  0  0
 11 12  2  0  0  0  0
 12 13  1  0  0  0  0
M  END
> <PUBCHEM_COMPOUND_ID_TYPE>
0

> <PUBCHEM_TOTAL_CHARGE>
0

> <PUBCHEM_SUBSTANCE_ID>
310948381

> <PUBCHEM_SUBSTANCE_VERSION>
1

> <PUBCHEM_EXT_DATASOURCE_NAME>
4488

> <PUBCHEM_EXT_DATASOURCE_REGID>
SCHEMBL16126562

> <PUBCHEM_SUBSTANCE_COMMENT>
InChI=1S/C10H12BrNO2S/c1-7(2)12-6-8-5-9(11)3-4-10(8)15(12,13)14/h3-5,7H,6H2,1-2H3
InChIKey=WJERYQFIWXPDSV-UHFFFAOYSA-N

> <PUBCHEM_SUBSTANCE_SYNONYM>
SCHEMBL16126562

> <PUBCHEM_XREF_EXT_ID>
SCHEMBL16126562

> <PUBCHEM_EXT_DATASOURCE_URL>
https://www.surechembl.org/

> <PUBCHEM_EXT_SUBSTANCE_URL>
https://www.surechembl.org/chemical/SCHEMBL16126562

> <PUBCHEM_CID_ASSOCIATIONS>
117613944  1

> <PUBCHEM_COORDINATE_TYPE>
1
3

$$$$
