310942025
  -OEChem-07211613022D

 39 42  0     1  0  0  0  0  0999 V2000
   -1.7797   -1.9037    0.0000 F   0  0  0  0  0  0  0  0  0  0  0  0
   -1.9937   -2.6994    0.0000 F   0  0  0  0  0  0  0  0  0  0  0  0
   -1.4118   -3.2899    0.0000 F   0  0  0  0  0  0  0  0  0  0  0  0
   -0.4278   -0.5176    0.0000 O   0  0  0  0  0  0  0  0  0  0  0  0
    2.6439    0.7658    0.0000 O   0  0  0  0  0  0  0  0  0  0  0  0
   -2.0108    2.1262    0.0000 O   0  0  0  0  0  0  0  0  0  0  0  0
   -4.1754    0.2524    0.0000 O   0  0  0  0  0  0  0  0  0  0  0  0
    1.6257   -0.2438    0.0000 O   0  0  0  0  0  0  0  0  0  0  0  0
   -0.9326    0.8685    0.0000 N   0  0  0  0  0  0  0  0  0  0  0  0
    0.7102    2.8706    0.0000 N   0  0  0  0  0  0  0  0  0  0  0  0
   -3.0973    1.1850    0.0000 N   0  0  0  0  0  0  0  0  0  0  0  0
    1.9937   -1.6385    0.0000 N   0  0  0  0  0  0  0  0  0  0  0  0
    4.1754   -1.7925    0.0000 N   0  0  0  0  0  0  0  0  0  0  0  0
    0.3936    0.7060    0.0000 C   0  0  0  0  0  0  0  0  0  0  0  0
    0.2481    1.5273    0.0000 C   0  0  0  0  0  0  0  0  0  0  0  0
   -0.3251    0.3294    0.0000 C   0  0  0  0  0  0  0  0  0  0  0  0
   -0.5818    1.6214    0.0000 C   0  0  0  0  0  0  0  0  0  0  0  0
    0.8557    2.0578    0.0000 C   0  0  0  0  0  0  0  0  0  0  0  0
   -1.7369    0.7231    0.0000 C   0  0  3  0  0  0  0  0  0  0  0  0
    1.1722    0.4406    0.0000 C   0  0  0  0  0  0  0  0  0  0  0  0
    1.7968    0.9797    0.0000 C   0  0  0  0  0  0  0  0  0  0  0  0
    1.6427    1.7839    0.0000 C   0  0  0  0  0  0  0  0  0  0  0  0
   -2.2931    1.3305    0.0000 C   0  0  0  0  0  0  0  0  0  0  0  0
   -2.0193   -0.0641    0.0000 C   0  0  0  0  0  0  0  0  0  0  0  0
    3.2256    0.1840    0.0000 C   0  0  0  0  0  0  0  0  0  0  0  0
   -3.3626    0.4064    0.0000 C   0  0  0  0  0  0  0  0  0  0  0  0
   -2.8235   -0.2181    0.0000 C   0  0  0  0  0  0  0  0  0  0  0  0
    3.0032   -0.6203    0.0000 C   0  0  0  0  0  0  0  0  0  0  0  0
    2.2246   -0.8343    0.0000 C   0  0  0  0  0  0  0  0  0  0  0  0
    1.4289    3.2899    0.0000 C   0  0  0  0  0  0  0  0  0  0  0  0
   -0.4021   -2.2717    0.0000 C   0  0  0  0  0  0  0  0  0  0  0  0
    1.1979   -1.8438    0.0000 C   0  0  0  0  0  0  0  0  0  0  0  0
   -1.2065   -2.4856    0.0000 C   0  0  0  0  0  0  0  0  0  0  0  0
    4.0385    0.3807    0.0000 C   0  0  0  0  0  0  0  0  0  0  0  0
    3.5851   -1.2021    0.0000 C   0  0  0  0  0  0  0  0  0  0  0  0
    0.1797   -2.8535    0.0000 C   0  0  0  0  0  0  0  0  0  0  0  0
   -0.1797   -1.4760    0.0000 C   0  0  0  0  0  0  0  0  0  0  0  0
    0.9754   -2.6396    0.0000 C   0  0  0  0  0  0  0  0  0  0  0  0
    0.6075   -1.2621    0.0000 C   0  0  0  0  0  0  0  0  0  0  0  0
  1 33  1  0  0  0  0
  2 33  1  0  0  0  0
  3 33  1  0  0  0  0
  4 16  2  0  0  0  0
  5 21  1  0  0  0  0
  5 25  1  0  0  0  0
  6 23  2  0  0  0  0
  7 26  2  0  0  0  0
  8 29  2  0  0  0  0
  9 16  1  0  0  0  0
  9 17  1  0  0  0  0
  9 19  1  0  0  0  0
 10 18  1  0  0  0  0
 10 30  1  0  0  0  0
 11 23  1  0  0  0  0
 11 26  1  0  0  0  0
 12 29  1  0  0  0  0
 12 32  1  0  0  0  0
 13 35  3  0  0  0  0
 14 15  2  0  0  0  0
 14 16  1  0  0  0  0
 14 20  1  0  0  0  0
 15 17  1  0  0  0  0
 15 18  1  0  0  0  0
 18 22  2  0  0  0  0
 19 23  1  0  0  0  0
 19 24  1  0  0  0  0
 20 21  2  0  0  0  0
 21 22  1  0  0  0  0
 24 27  1  0  0  0  0
 25 28  2  0  0  0  0
 25 34  1  0  0  0  0
 26 27  1  0  0  0  0
 28 29  1  0  0  0  0
 28 35  1  0  0  0  0
 31 33  1  0  0  0  0
 31 36  2  0  0  0  0
 31 37  1  0  0  0  0
 32 38  2  0  0  0  0
 32 39  1  0  0  0  0
 36 38  1  0  0  0  0
 37 39  2  0  0  0  0
M  END
> <PUBCHEM_COMPOUND_ID_TYPE>
0

> <PUBCHEM_TOTAL_CHARGE>
0

> <PUBCHEM_SUBSTANCE_ID>
310942025

> <PUBCHEM_SUBSTANCE_VERSION>
1

> <PUBCHEM_EXT_DATASOURCE_NAME>
4488

> <PUBCHEM_EXT_DATASOURCE_REGID>
SCHEMBL16120059

> <PUBCHEM_SUBSTANCE_COMMENT>
InChI=1S/C26H22F3N5O5/c1-13(18(11-30)23(36)32-15-5-3-14(4-6-15)26(27,28)29)39-16-9-17-19(20(10-16)31-2)12-34(25(17)38)21-7-8-22(35)33-24(21)37/h3-6,9-10,21,31H,7-8,12H2,1-2H3,(H,32,36)(H,33,35,37)/b18-13-
InChIKey=DWBVBODMOAINRR-AQTBWJFISA-N

> <PUBCHEM_SUBSTANCE_SYNONYM>
SCHEMBL16120059

> <PUBCHEM_XREF_EXT_ID>
SCHEMBL16120059

> <PUBCHEM_EXT_DATASOURCE_URL>
https://www.surechembl.org/

> <PUBCHEM_EXT_SUBSTANCE_URL>
https://www.surechembl.org/chemical/SCHEMBL16120059

> <PUBCHEM_CID_ASSOCIATIONS>
117608712  1

> <PUBCHEM_COORDINATE_TYPE>
1
3

$$$$
