310949730
  -OEChem-07211613022D

 30 32  0     1  0  0  0  0  0999 V2000
    1.4615    1.7374    0.0000 S   0  0  0  0  0  0  0  0  0  0  0  0
    1.4820   -2.3302    0.0000 O   0  0  0  0  0  0  0  0  0  0  0  0
    0.8688    1.1651    0.0000 O   0  0  0  0  0  0  0  0  0  0  0  0
    0.8892    2.3302    0.0000 O   0  0  0  0  0  0  0  0  0  0  0  0
   -1.4002   -1.4718    0.0000 O   0  0  0  0  0  0  0  0  0  0  0  0
    2.0134    1.1242    0.0000 N   0  0  3  0  0  0  0  0  0  0  0  0
    2.9741   -1.4309    0.0000 N   0  0  0  0  0  0  0  0  0  0  0  0
    3.5260   -0.8176    0.0000 N   0  0  0  0  0  0  0  0  0  0  0  0
    0.7665   -1.0834    0.0000 N   0  0  0  0  0  0  0  0  0  0  0  0
    2.2996   -0.2862    0.0000 C   0  0  0  0  0  0  0  0  0  0  0  0
    2.1769   -1.1038    0.0000 C   0  0  0  0  0  0  0  0  0  0  0  0
    3.0764   -0.1022    0.0000 C   0  0  0  0  0  0  0  0  0  0  0  0
    1.7477    0.3679    0.0000 C   0  0  0  0  0  0  0  0  0  0  0  0
    1.5024   -1.4718    0.0000 C   0  0  0  0  0  0  0  0  0  0  0  0
    3.3625    0.6950    0.0000 C   0  0  0  0  0  0  0  0  0  0  0  0
    2.8311    1.2674    0.0000 C   0  0  0  0  0  0  0  0  0  0  0  0
   -2.1156   -0.2249    0.0000 C   0  0  0  0  0  0  0  0  0  0  0  0
   -2.1360   -1.0425    0.0000 C   0  0  0  0  0  0  0  0  0  0  0  0
   -1.3797    0.1840    0.0000 C   0  0  0  0  0  0  0  0  0  0  0  0
    0.0920   -1.4718    0.0000 C   0  0  0  0  0  0  0  0  0  0  0  0
    2.0952    2.3302    0.0000 C   0  0  0  0  0  0  0  0  0  0  0  0
   -2.7902    0.1635    0.0000 C   0  0  0  0  0  0  0  0  0  0  0  0
   -0.6848   -1.0834    0.0000 C   0  0  0  0  0  0  0  0  0  0  0  0
    0.7665   -0.2453    0.0000 C   0  0  0  0  0  0  0  0  0  0  0  0
   -2.8106   -1.4513    0.0000 C   0  0  0  0  0  0  0  0  0  0  0  0
   -3.5260   -0.2249    0.0000 C   0  0  0  0  0  0  0  0  0  0  0  0
   -3.5260   -1.0425    0.0000 C   0  0  0  0  0  0  0  0  0  0  0  0
   -1.3797    1.0220    0.0000 C   0  0  0  0  0  0  0  0  0  0  0  0
   -0.6439    0.5519    0.0000 C   0  0  0  0  0  0  0  0  0  0  0  0
   -0.6439   -0.2249    0.0000 C   0  0  0  0  0  0  0  0  0  0  0  0
  1  3  2  0  0  0  0
  1  4  2  0  0  0  0
  1  6  1  0  0  0  0
  1 21  1  0  0  0  0
  2 14  2  0  0  0  0
  5 18  1  0  0  0  0
  5 23  1  0  0  0  0
  6 13  1  0  0  0  0
  6 16  1  0  0  0  0
  7  8  1  0  0  0  0
  7 11  2  0  0  0  0
  8 12  1  0  0  0  0
  9 14  1  0  0  0  0
  9 20  1  0  0  0  0
  9 24  1  0  0  0  0
 10 11  1  0  0  0  0
 10 12  2  0  0  0  0
 10 13  1  0  0  0  0
 11 14  1  0  0  0  0
 12 15  1  0  0  0  0
 15 16  1  0  0  0  0
 17 18  1  0  0  0  0
 17 19  1  0  0  0  0
 17 22  2  0  0  0  0
 18 25  2  0  0  0  0
 19 28  1  0  0  0  0
 19 29  1  0  0  0  0
 19 30  1  0  0  0  0
 20 23  1  0  0  0  0
 22 26  1  0  0  0  0
 25 27  1  0  0  0  0
 26 27  2  0  0  0  0
M  END
> <PUBCHEM_COMPOUND_ID_TYPE>
0

> <PUBCHEM_TOTAL_CHARGE>
0

> <PUBCHEM_SUBSTANCE_ID>
310949730

> <PUBCHEM_SUBSTANCE_VERSION>
1

> <PUBCHEM_EXT_DATASOURCE_NAME>
4488

> <PUBCHEM_EXT_DATASOURCE_REGID>
SCHEMBL16127928

> <PUBCHEM_SUBSTANCE_COMMENT>
InChI=1S/C21H30N4O4S/c1-21(2,3)16-8-6-7-9-18(16)29-13-12-24(4)20(26)19-15-14-25(30(5,27)28)11-10-17(15)22-23-19/h6-9H,10-14H2,1-5H3,(H,22,23)
InChIKey=SNKCMCOKSKSUHN-UHFFFAOYSA-N

> <PUBCHEM_SUBSTANCE_SYNONYM>
SCHEMBL16127928

> <PUBCHEM_XREF_EXT_ID>
SCHEMBL16127928

> <PUBCHEM_EXT_DATASOURCE_URL>
https://www.surechembl.org/

> <PUBCHEM_EXT_SUBSTANCE_URL>
https://www.surechembl.org/chemical/SCHEMBL16127928

> <PUBCHEM_CID_ASSOCIATIONS>
86272755  1

> <PUBCHEM_COORDINATE_TYPE>
1
3

$$$$
