310936704
  -OEChem-07211613022D

 21 25  0     1  0  0  0  0  0999 V2000
    0.1014    2.2020    0.0000 O   0  0  0  0  0  0  0  0  0  0  0  0
    1.2574    2.8695    0.0000 O   0  0  0  0  0  0  0  0  0  0  0  0
    4.2868    2.0625    0.0000 O   0  0  0  0  0  0  0  0  0  0  0  0
    0.7144    0.8250    0.0000 C   0  0  0  0  0  0  0  0  0  0  0  0
    0.7144    1.6500    0.0000 C   0  0  0  0  0  0  0  0  0  0  0  0
    1.4290    0.4125    0.0000 C   0  0  0  0  0  0  0  0  0  0  0  0
    1.4290    2.0625    0.0000 C   0  0  3  0  0  0  0  0  0  0  0  0
    2.1434    0.8250    0.0000 C   0  0  0  0  0  0  0  0  0  0  0  0
    2.1434    1.6500    0.0000 C   0  0  0  0  0  0  0  0  0  0  0  0
    0.0000    0.4125    0.0000 C   0  0  0  0  0  0  0  0  0  0  0  0
    0.0000   -0.4125    0.0000 C   0  0  0  0  0  0  0  0  0  0  0  0
    1.4290   -0.4125    0.0000 C   0  0  0  0  0  0  0  0  0  0  0  0
    2.8579    2.0625    0.0000 C   0  0  0  0  0  0  0  0  0  0  0  0
    2.8579    0.4125    0.0000 C   0  0  0  0  0  0  0  0  0  0  0  0
    0.7144   -0.8250    0.0000 C   0  0  0  0  0  0  0  0  0  0  0  0
   -0.7846    0.6674    0.0000 C   0  0  0  0  0  0  0  0  0  0  0  0
    0.4370    2.9557    0.0000 C   0  0  0  0  0  0  0  0  0  0  0  0
    3.5724    1.6500    0.0000 C   0  0  0  0  0  0  0  0  0  0  0  0
   -0.7846   -0.6674    0.0000 C   0  0  0  0  0  0  0  0  0  0  0  0
    3.5724    0.8250    0.0000 C   0  0  0  0  0  0  0  0  0  0  0  0
   -1.2696    0.0000    0.0000 C   0  0  0  0  0  0  0  0  0  0  0  0
  1  5  1  0  0  0  0
  1 17  1  0  0  0  0
  2  7  1  0  0  0  0
  2 17  1  0  0  0  0
  3 18  2  0  0  0  0
  4  5  2  0  0  0  0
  4  6  1  0  0  0  0
  4 10  1  0  0  0  0
  5  7  1  0  0  0  0
  6  8  1  0  0  0  0
  6 12  2  0  0  0  0
  7  9  1  0  0  0  0
  8  9  1  0  0  0  0
  8 14  2  0  0  0  0
  9 13  2  0  0  0  0
 10 11  1  0  0  0  0
 10 16  2  0  0  0  0
 11 15  2  0  0  0  0
 11 19  1  0  0  0  0
 12 15  1  0  0  0  0
 13 18  1  0  0  0  0
 14 20  1  0  0  0  0
 16 21  1  0  0  0  0
 18 20  1  0  0  0  0
 19 21  2  0  0  0  0
M  END
> <PUBCHEM_COMPOUND_ID_TYPE>
0

> <PUBCHEM_TOTAL_CHARGE>
0

> <PUBCHEM_SUBSTANCE_ID>
310936704

> <PUBCHEM_SUBSTANCE_VERSION>
1

> <PUBCHEM_EXT_DATASOURCE_NAME>
4488

> <PUBCHEM_EXT_DATASOURCE_REGID>
SCHEMBL16114382

> <PUBCHEM_SUBSTANCE_COMMENT>
InChI=1S/C18H12O3/c19-11-5-7-13-14-6-4-10-2-1-3-12(10)16(14)18-17(15(13)8-11)20-9-21-18/h1-4,6-8,17H,5,9H2
InChIKey=SOQBEQKRCSJDAD-UHFFFAOYSA-N

> <PUBCHEM_SUBSTANCE_SYNONYM>
SCHEMBL16114382

> <PUBCHEM_XREF_EXT_ID>
SCHEMBL16114382

> <PUBCHEM_EXT_DATASOURCE_URL>
https://www.surechembl.org/

> <PUBCHEM_EXT_SUBSTANCE_URL>
https://www.surechembl.org/chemical/SCHEMBL16114382

> <PUBCHEM_CID_ASSOCIATIONS>
117604606  1

> <PUBCHEM_COORDINATE_TYPE>
1
3

$$$$
