310929568
  -OEChem-07211613022D

 72 79  0     1  0  0  0  0  0999 V2000
    2.3848   -5.1547    0.0000 S   0  0  0  0  0  0  0  0  0  0  0  0
    4.8598   -1.9586    0.0000 F   0  0  0  0  0  0  0  0  0  0  0  0
    5.5742   -2.3711    0.0000 F   0  0  0  0  0  0  0  0  0  0  0  0
    4.8598   -1.1336    0.0000 F   0  0  0  0  0  0  0  0  0  0  0  0
   -4.2868   -0.8250    0.0000 O   0  0  0  0  0  0  0  0  0  0  0  0
    1.5598   -3.7257    0.0000 O   0  0  0  0  0  0  0  0  0  0  0  0
   -1.4290   -0.8250    0.0000 O   0  0  0  0  0  0  0  0  0  0  0  0
    2.3848   -5.9797    0.0000 O   0  0  0  0  0  0  0  0  0  0  0  0
    2.3848   -4.3297    0.0000 O   0  0  0  0  0  0  0  0  0  0  0  0
   -1.3277   -4.4402    0.0000 O   0  0  0  0  0  0  0  0  0  0  0  0
   -2.8579   -4.1250    0.0000 O   0  0  0  0  0  0  0  0  0  0  0  0
   -5.0013   -2.0625    0.0000 O   0  0  0  0  0  0  0  0  0  0  0  0
    0.0000    1.6500    0.0000 O   0  0  0  0  0  0  0  0  0  0  0  0
    7.0032   -1.5461    0.0000 O   0  5  0  0  0  0  0  0  0  0  0  0
    6.2887   -0.3086    0.0000 O   0  0  0  0  0  0  0  0  0  0  0  0
   -0.0902   -3.7257    0.0000 N   0  0  0  0  0  0  0  0  0  0  0  0
    1.5598   -5.1547    0.0000 N   0  0  0  0  0  0  0  0  0  0  0  0
   -2.1434   -2.8875    0.0000 N   0  0  0  0  0  0  0  0  0  0  0  0
   -3.5724   -2.0625    0.0000 N   0  0  0  0  0  0  0  0  0  0  0  0
    0.0000   -0.8250    0.0000 N   0  0  0  0  0  0  0  0  0  0  0  0
    2.1434    2.8875    0.0000 N   0  3  0  0  0  0  0  0  0  0  0  0
    0.3223   -4.4402    0.0000 C   0  0  3  0  0  0  0  0  0  0  0  0
    0.3223   -5.2651    0.0000 C   0  0  3  0  0  0  0  0  0  0  0  0
   -5.0013   -0.4125    0.0000 C   0  0  3  0  0  0  0  0  0  0  0  0
   -5.0013    0.4125    0.0000 C   0  0  3  0  0  0  0  0  0  0  0  0
   -0.3922   -4.8526    0.0000 C   0  0  0  0  0  0  0  0  0  0  0  0
    1.1473   -4.4402    0.0000 C   0  0  0  0  0  0  0  0  0  0  0  0
   -5.7158    0.0000    0.0000 C   0  0  0  0  0  0  0  0  0  0  0  0
    3.2098   -5.1547    0.0000 C   0  0  0  0  0  0  0  0  0  0  0  0
   -0.9152   -3.7257    0.0000 C   0  0  0  0  0  0  0  0  0  0  0  0
   -1.3277   -3.0112    0.0000 C   0  0  3  0  0  0  0  0  0  0  0  0
   -4.2868    0.8250    0.0000 C   0  0  0  0  0  0  0  0  0  0  0  0
    0.7348   -5.9797    0.0000 C   0  0  0  0  0  0  0  0  0  0  0  0
   -1.4290   -1.6500    0.0000 C   0  0  3  0  0  0  0  0  0  0  0  0
    3.6223   -4.4402    0.0000 C   0  0  0  0  0  0  0  0  0  0  0  0
    4.0348   -5.1547    0.0000 C   0  0  0  0  0  0  0  0  0  0  0  0
   -0.9152   -2.2967    0.0000 C   0  0  0  0  0  0  0  0  0  0  0  0
   -2.1434   -2.0625    0.0000 C   0  0  0  0  0  0  0  0  0  0  0  0
   -2.8579   -3.3000    0.0000 C   0  0  0  0  0  0  0  0  0  0  0  0
   -4.2868   -1.6500    0.0000 C   0  0  0  0  0  0  0  0  0  0  0  0
   -3.5724   -2.8875    0.0000 C   0  0  3  0  0  0  0  0  0  0  0  0
    2.7973   -5.8691    0.0000 C   0  0  0  0  0  0  0  0  0  0  0  0
   -0.7144   -0.4125    0.0000 C   0  0  0  0  0  0  0  0  0  0  0  0
   -3.5724    0.4125    0.0000 C   0  0  0  0  0  0  0  0  0  0  0  0
   -0.7144    0.4125    0.0000 C   0  0  0  0  0  0  0  0  0  0  0  0
   -4.2868   -3.3000    0.0000 C   0  0  0  0  0  0  0  0  0  0  0  0
    1.5598   -5.9797    0.0000 C   0  0  0  0  0  0  0  0  0  0  0  0
    0.0000    0.8250    0.0000 C   0  0  0  0  0  0  0  0  0  0  0  0
    0.7144    0.4125    0.0000 C   0  0  0  0  0  0  0  0  0  0  0  0
    0.7144   -0.4125    0.0000 C   0  0  0  0  0  0  0  0  0  0  0  0
   -2.8579    0.8250    0.0000 C   0  0  0  0  0  0  0  0  0  0  0  0
   -1.4290    0.8250    0.0000 C   0  0  0  0  0  0  0  0  0  0  0  0
   -2.1434    0.4125    0.0000 C   0  0  0  0  0  0  0  0  0  0  0  0
   -4.2868   -4.1250    0.0000 C   0  0  0  0  0  0  0  0  0  0  0  0
   -5.0013   -2.8875    0.0000 C   0  0  0  0  0  0  0  0  0  0  0  0
    1.4290    0.8250    0.0000 C   0  0  0  0  0  0  0  0  0  0  0  0
    1.4290   -0.8250    0.0000 C   0  0  0  0  0  0  0  0  0  0  0  0
    0.7144    2.0625    0.0000 C   0  0  0  0  0  0  0  0  0  0  0  0
    2.1434    0.4125    0.0000 C   0  0  0  0  0  0  0  0  0  0  0  0
    2.1434   -0.4125    0.0000 C   0  0  0  0  0  0  0  0  0  0  0  0
   -5.0013   -4.5375    0.0000 C   0  0  0  0  0  0  0  0  0  0  0  0
   -5.7158   -3.3000    0.0000 C   0  0  0  0  0  0  0  0  0  0  0  0
   -5.7158   -4.1250    0.0000 C   0  0  0  0  0  0  0  0  0  0  0  0
    1.4290    1.6500    0.0000 C   0  0  0  0  0  0  0  0  0  0  0  0
    0.7144    2.8875    0.0000 C   0  0  0  0  0  0  0  0  0  0  0  0
    2.1434    2.0625    0.0000 C   0  0  0  0  0  0  0  0  0  0  0  0
    1.4290    3.3000    0.0000 C   0  0  0  0  0  0  0  0  0  0  0  0
    5.5742   -1.5461    0.0000 C   0  0  0  0  0  0  0  0  0  0  0  0
    6.2887   -1.1336    0.0000 C   0  0  0  0  0  0  0  0  0  0  0  0
   -5.4138   -1.1270    0.0000 H   0  0  0  0  0  0  0  0  0  0  0  0
   -5.4138    1.1270    0.0000 H   0  0  0  0  0  0  0  0  0  0  0  0
   -0.6500   -1.3783    0.0000 H   0  0  0  0  0  0  0  0  0  0  0  0
  1  8  2  0  0  0  0
  1  9  2  0  0  0  0
  1 17  1  0  0  0  0
  1 29  1  0  0  0  0
  2 68  1  0  0  0  0
  3 68  1  0  0  0  0
  4 68  1  0  0  0  0
  5 24  1  0  0  0  0
  5 40  1  0  0  0  0
  6 27  2  0  0  0  0
  7 34  1  0  0  0  0
  7 43  1  0  0  0  0
 10 30  2  0  0  0  0
 11 39  2  0  0  0  0
 12 40  2  0  0  0  0
 13 48  1  0  0  0  0
 13 58  1  0  0  0  0
 14 69  1  0  0  0  0
 15 69  2  0  0  0  0
 22 16  1  1  0  0  0
 16 30  1  0  0  0  0
 17 27  1  0  0  0  0
 18 31  1  0  0  0  0
 18 38  1  0  0  0  0
 18 39  1  0  0  0  0
 19 40  1  0  0  0  0
 19 41  1  0  0  0  0
 20 43  2  0  0  0  0
 20 50  1  0  0  0  0
 21 66  1  0  0  0  0
 21 67  1  0  0  0  0
 22 23  1  0  0  0  0
 22 26  1  0  0  0  0
 22 27  1  6  0  0  0
 23 26  1  0  0  0  0
 23 33  1  6  0  0  0
 24 25  1  0  0  0  0
 24 28  1  0  0  0  0
 24 70  1  1  0  0  0
 25 28  1  0  0  0  0
 25 32  1  0  0  0  0
 25 71  1  6  0  0  0
 29 35  1  0  0  0  0
 29 36  1  0  0  0  0
 29 42  1  0  0  0  0
 31 30  1  1  0  0  0
 31 37  1  0  0  0  0
 32 44  1  0  0  0  0
 33 47  2  0  0  0  0
 34 37  1  0  0  0  0
 34 38  1  0  0  0  0
 34 72  1  1  0  0  0
 35 36  1  0  0  0  0
 41 39  1  6  0  0  0
 41 46  1  0  0  0  0
 43 45  1  0  0  0  0
 44 51  1  0  0  0  0
 45 48  2  0  0  0  0
 45 52  1  0  0  0  0
 46 54  1  0  0  0  0
 46 55  1  0  0  0  0
 48 49  1  0  0  0  0
 49 50  1  0  0  0  0
 49 56  2  0  0  0  0
 50 57  2  0  0  0  0
 51 53  1  0  0  0  0
 52 53  1  0  0  0  0
 54 61  1  0  0  0  0
 55 62  1  0  0  0  0
 56 59  1  0  0  0  0
 57 60  1  0  0  0  0
 58 64  1  0  0  0  0
 58 65  1  0  0  0  0
 59 60  2  0  0  0  0
 61 63  1  0  0  0  0
 62 63  1  0  0  0  0
 64 66  1  0  0  0  0
 65 67  1  0  0  0  0
 68 69  1  0  0  0  0
M  CHG  2  14  -1  21   1
M  END
> <PUBCHEM_COMPOUND_ID_TYPE>
0

> <PUBCHEM_TOTAL_CHARGE>
0

> <PUBCHEM_SUBSTANCE_ID>
310929568

> <PUBCHEM_SUBSTANCE_VERSION>
1

> <PUBCHEM_EXT_DATASOURCE_NAME>
4488

> <PUBCHEM_EXT_DATASOURCE_REGID>
SCHEMBL16106753

> <PUBCHEM_SUBSTANCE_COMMENT>
InChI=1S/C46H62N6O9S.C2HF3O2/c1-3-30-26-46(30,43(55)51-62(57,58)45(2)20-21-45)50-40(53)36-25-32-27-52(36)42(54)38(28-12-6-4-7-13-28)49-44(56)61-37-24-29(37)14-8-5-9-16-34-39(59-31-18-22-47-23-19-31)33-15-10-11-17-35(33)48-41(34)60-32;3-2(4,5)1(6)7/h3,10-11,15,17,28-32,36-38,47H,1,4-9,12-14,16,18-27H2,2H3,(H,49,56)(H,50,53)(H,51,55);(H,6,7)/t29-,30-,32-,36+,37-,38+,46-;/m1./s1
InChIKey=WEAAIVGGBJZJOA-WFKRTOJESA-N

> <PUBCHEM_SUBSTANCE_SYNONYM>
SCHEMBL16106753

> <PUBCHEM_XREF_EXT_ID>
SCHEMBL16106753

> <PUBCHEM_EXT_DATASOURCE_URL>
https://www.surechembl.org/

> <PUBCHEM_EXT_SUBSTANCE_URL>
https://www.surechembl.org/chemical/SCHEMBL16106753

> <PUBCHEM_CID_ASSOCIATIONS>
117598881  1
6422  2
76332504  2

> <PUBCHEM_COORDINATE_TYPE>
1
3

> <PUBCHEM_BONDANNOTATIONS>
22  16  5
22  27  6
23  33  6
24  70  5
25  71  6
31  30  5
34  72  5
41  39  6

$$$$
