310932248
  -OEChem-07211613022D

 30 33  0     1  0  0  0  0  0999 V2000
    7.1447   -2.4750    0.0000 S   0  0  0  0  0  0  0  0  0  0  0  0
    5.0013   -0.4125    0.0000 F   0  0  0  0  0  0  0  0  0  0  0  0
    8.5737   -1.6500    0.0000 F   0  0  0  0  0  0  0  0  0  0  0  0
    8.2717   -2.7770    0.0000 F   0  0  0  0  0  0  0  0  0  0  0  0
    7.4467   -1.3480    0.0000 F   0  0  0  0  0  0  0  0  0  0  0  0
    3.5724   -1.2375    0.0000 O   0  0  0  0  0  0  0  0  0  0  0  0
    6.4302   -2.8875    0.0000 O   0  0  0  0  0  0  0  0  0  0  0  0
    3.5724   -4.5375    0.0000 O   0  0  0  0  0  0  0  0  0  0  0  0
    7.5572   -3.1895    0.0000 O   0  0  0  0  0  0  0  0  0  0  0  0
    6.7322   -1.7605    0.0000 O   0  0  0  0  0  0  0  0  0  0  0  0
    2.8579   -3.3000    0.0000 N   0  0  0  0  0  0  0  0  0  0  0  0
    2.1434   -4.5375    0.0000 N   0  0  0  0  0  0  0  0  0  0  0  0
    0.7145   -2.8875    0.0000 N   0  0  0  0  0  0  0  0  0  0  0  0
    3.5724   -2.8875    0.0000 C   0  0  3  0  0  0  0  0  0  0  0  0
    4.2868   -2.4750    0.0000 C   0  0  0  0  0  0  0  0  0  0  0  0
    2.8579   -2.4750    0.0000 C   0  0  0  0  0  0  0  0  0  0  0  0
    4.2868   -1.6500    0.0000 C   0  0  0  0  0  0  0  0  0  0  0  0
    2.8579   -1.6500    0.0000 C   0  0  0  0  0  0  0  0  0  0  0  0
    5.0013   -2.8875    0.0000 C   0  0  0  0  0  0  0  0  0  0  0  0
    4.2868   -3.3000    0.0000 C   0  0  0  0  0  0  0  0  0  0  0  0
    5.0013   -1.2375    0.0000 C   0  0  0  0  0  0  0  0  0  0  0  0
    5.7158   -2.4750    0.0000 C   0  0  0  0  0  0  0  0  0  0  0  0
    2.1434   -2.8875    0.0000 C   0  0  0  0  0  0  0  0  0  0  0  0
    5.7158   -1.6500    0.0000 C   0  0  0  0  0  0  0  0  0  0  0  0
    2.8579   -4.1250    0.0000 C   0  0  0  0  0  0  0  0  0  0  0  0
    2.1434   -1.2375    0.0000 C   0  0  0  0  0  0  0  0  0  0  0  0
    7.8592   -2.0625    0.0000 C   0  0  0  0  0  0  0  0  0  0  0  0
    1.4289   -2.4750    0.0000 C   0  0  0  0  0  0  0  0  0  0  0  0
    4.2868   -4.1250    0.0000 C   0  0  0  0  0  0  0  0  0  0  0  0
    1.4289   -1.6500    0.0000 C   0  0  0  0  0  0  0  0  0  0  0  0
  1  7  1  0  0  0  0
  1  9  2  0  0  0  0
  1 10  2  0  0  0  0
  1 27  1  0  0  0  0
  2 21  1  0  0  0  0
  3 27  1  0  0  0  0
  4 27  1  0  0  0  0
  5 27  1  0  0  0  0
  6 17  1  0  0  0  0
  6 18  1  0  0  0  0
  7 22  1  0  0  0  0
  8 25  1  0  0  0  0
  8 29  1  0  0  0  0
 11 14  1  0  0  0  0
 11 25  2  0  0  0  0
 12 25  1  0  0  0  0
 13 28  1  0  0  0  0
 14 15  1  0  0  0  0
 14 16  1  0  0  0  0
 14 20  1  0  0  0  0
 15 17  1  0  0  0  0
 15 19  2  0  0  0  0
 16 18  1  0  0  0  0
 16 23  2  0  0  0  0
 17 21  2  0  0  0  0
 18 26  2  0  0  0  0
 19 22  1  0  0  0  0
 20 29  1  0  0  0  0
 21 24  1  0  0  0  0
 22 24  2  0  0  0  0
 23 28  1  0  0  0  0
 26 30  1  0  0  0  0
 28 30  2  0  0  0  0
M  END
> <PUBCHEM_COMPOUND_ID_TYPE>
0

> <PUBCHEM_TOTAL_CHARGE>
0

> <PUBCHEM_SUBSTANCE_ID>
310932248

> <PUBCHEM_SUBSTANCE_VERSION>
1

> <PUBCHEM_EXT_DATASOURCE_NAME>
4488

> <PUBCHEM_EXT_DATASOURCE_REGID>
SCHEMBL16109606

> <PUBCHEM_SUBSTANCE_COMMENT>
InChI=1S/C17H13F4N3O5S/c18-12-7-9(29-30(25,26)17(19,20)21)6-11-14(12)28-13-2-1-8(22)5-10(13)16(11)3-4-27-15(23)24-16/h1-2,5-7H,3-4,22H2,(H2,23,24)
InChIKey=NARCRHHEISQURU-UHFFFAOYSA-N

> <PUBCHEM_SUBSTANCE_SYNONYM>
SCHEMBL16109606

> <PUBCHEM_XREF_EXT_ID>
SCHEMBL16109606

> <PUBCHEM_EXT_DATASOURCE_URL>
https://www.surechembl.org/

> <PUBCHEM_EXT_SUBSTANCE_URL>
https://www.surechembl.org/chemical/SCHEMBL16109606

> <PUBCHEM_CID_ASSOCIATIONS>
117600821  1

> <PUBCHEM_COORDINATE_TYPE>
1
3

$$$$
