310937894
  -OEChem-07211613022D

 25 28  0     1  0  0  0  0  0999 V2000
    4.3111   -5.3224    0.0000 O   0  0  0  0  0  0  0  0  0  0  0  0
    5.7482   -5.3224    0.0000 O   0  0  0  0  0  0  0  0  0  0  0  0
    0.0000   -0.3992    0.0000 O   0  0  0  0  0  0  0  0  0  0  0  0
    6.5466   -2.6080    0.0000 N   0  0  3  0  0  0  0  0  0  0  0  0
    1.4370   -1.2242    0.0000 N   0  0  0  0  0  0  0  0  0  0  0  0
    5.7482   -3.6725    0.0000 C   0  0  0  0  0  0  0  0  0  0  0  0
    5.7482   -2.8475    0.0000 C   0  0  0  0  0  0  0  0  0  0  0  0
    5.0296   -4.0982    0.0000 C   0  0  0  0  0  0  0  0  0  0  0  0
    4.3377   -2.8475    0.0000 C   0  0  0  0  0  0  0  0  0  0  0  0
    5.0296   -2.4217    0.0000 C   0  0  0  0  0  0  0  0  0  0  0  0
    4.3377   -3.6725    0.0000 C   0  0  0  0  0  0  0  0  0  0  0  0
    3.6192   -2.4483    0.0000 C   0  0  0  0  0  0  0  0  0  0  0  0
    6.5466   -3.9386    0.0000 C   0  0  0  0  0  0  0  0  0  0  0  0
    7.0255   -3.2732    0.0000 C   0  0  0  0  0  0  0  0  0  0  0  0
    5.0296   -4.9232    0.0000 C   0  0  0  0  0  0  0  0  0  0  0  0
    2.1556   -1.6499    0.0000 C   0  0  0  0  0  0  0  0  0  0  0  0
    2.8741   -2.8741    0.0000 C   0  0  0  0  0  0  0  0  0  0  0  0
    3.5926   -1.6233    0.0000 C   0  0  0  0  0  0  0  0  0  0  0  0
    2.1556   -2.4749    0.0000 C   0  0  0  0  0  0  0  0  0  0  0  0
    2.8741   -1.2242    0.0000 C   0  0  0  0  0  0  0  0  0  0  0  0
    6.7860   -1.8096    0.0000 C   0  0  0  0  0  0  0  0  0  0  0  0
    0.7185   -1.6499    0.0000 C   0  0  0  0  0  0  0  0  0  0  0  0
    1.4370   -0.4258    0.0000 C   0  0  0  0  0  0  0  0  0  0  0  0
    0.0000   -1.2508    0.0000 C   0  0  0  0  0  0  0  0  0  0  0  0
    0.7185    0.0000    0.0000 C   0  0  0  0  0  0  0  0  0  0  0  0
  1 15  2  0  0  0  0
  2 15  1  0  0  0  0
  3 24  1  0  0  0  0
  3 25  1  0  0  0  0
  4  7  1  0  0  0  0
  4 14  1  0  0  0  0
  4 21  1  0  0  0  0
  5 16  1  0  0  0  0
  5 22  1  0  0  0  0
  5 23  1  0  0  0  0
  6  7  2  0  0  0  0
  6  8  1  0  0  0  0
  6 13  1  0  0  0  0
  7 10  1  0  0  0  0
  8 11  2  0  0  0  0
  8 15  1  0  0  0  0
  9 10  2  0  0  0  0
  9 11  1  0  0  0  0
  9 12  1  0  0  0  0
 12 17  2  0  0  0  0
 12 18  1  0  0  0  0
 13 14  1  0  0  0  0
 16 19  2  0  0  0  0
 16 20  1  0  0  0  0
 17 19  1  0  0  0  0
 18 20  2  0  0  0  0
 22 24  1  0  0  0  0
 23 25  1  0  0  0  0
M  END
> <PUBCHEM_COMPOUND_ID_TYPE>
0

> <PUBCHEM_TOTAL_CHARGE>
0

> <PUBCHEM_SUBSTANCE_ID>
310937894

> <PUBCHEM_SUBSTANCE_VERSION>
1

> <PUBCHEM_EXT_DATASOURCE_NAME>
4488

> <PUBCHEM_EXT_DATASOURCE_REGID>
SCHEMBL16115722

> <PUBCHEM_SUBSTANCE_COMMENT>
InChI=1S/C20H22N2O3/c1-21-7-6-17-18(20(23)24)12-15(13-19(17)21)14-2-4-16(5-3-14)22-8-10-25-11-9-22/h2-5,12-13H,6-11H2,1H3,(H,23,24)
InChIKey=JJCDHAJRUANVKK-UHFFFAOYSA-N

> <PUBCHEM_SUBSTANCE_SYNONYM>
SCHEMBL16115722

> <PUBCHEM_XREF_EXT_ID>
SCHEMBL16115722

> <PUBCHEM_EXT_DATASOURCE_URL>
https://www.surechembl.org/

> <PUBCHEM_EXT_SUBSTANCE_URL>
https://www.surechembl.org/chemical/SCHEMBL16115722

> <PUBCHEM_CID_ASSOCIATIONS>
117605516  1

> <PUBCHEM_COORDINATE_TYPE>
1
3

$$$$
