310931338
  -OEChem-07211613022D

 17 18  0     1  0  0  0  0  0999 V2000
    0.7000   -4.9997    0.0000 Br  0  0  0  0  0  0  0  0  0  0  0  0
    0.7000   -1.6499    0.0000 O   0  0  0  0  0  0  0  0  0  0  0  0
    2.8748   -2.9248    0.0000 N   0  0  0  0  0  0  0  0  0  0  0  0
    1.4249   -2.9248    0.0000 C   0  0  0  0  0  0  0  0  0  0  0  0
    2.1499   -2.4998    0.0000 C   0  0  3  0  0  0  0  0  0  0  0  0
    0.7000   -2.4998    0.0000 C   0  0  0  0  0  0  0  0  0  0  0  0
    2.1499   -1.6749    0.0000 C   0  0  0  0  0  0  0  0  0  0  0  0
    1.4249   -3.7498    0.0000 C   0  0  0  0  0  0  0  0  0  0  0  0
    0.7000   -4.1747    0.0000 C   0  0  0  0  0  0  0  0  0  0  0  0
    0.0000   -2.9248    0.0000 C   0  0  0  0  0  0  0  0  0  0  0  0
    0.0000   -3.7498    0.0000 C   0  0  0  0  0  0  0  0  0  0  0  0
    1.4249   -1.2249    0.0000 C   0  0  0  0  0  0  0  0  0  0  0  0
    2.8498   -1.2499    0.0000 C   0  0  0  0  0  0  0  0  0  0  0  0
    1.4249   -0.4000    0.0000 C   0  0  0  0  0  0  0  0  0  0  0  0
    2.8498   -0.4249    0.0000 C   0  0  0  0  0  0  0  0  0  0  0  0
    2.1499    0.0000    0.0000 C   0  0  0  0  0  0  0  0  0  0  0  0
    3.5748   -2.4998    0.0000 C   0  0  0  0  0  0  0  0  0  0  0  0
  1  9  1  0  0  0  0
  2  6  1  0  0  0  0
  3  5  1  0  0  0  0
  3 17  1  0  0  0  0
  4  5  1  0  0  0  0
  4  6  2  0  0  0  0
  4  8  1  0  0  0  0
  5  7  1  0  0  0  0
  6 10  1  0  0  0  0
  7 12  2  0  0  0  0
  7 13  1  0  0  0  0
  8  9  2  0  0  0  0
  9 11  1  0  0  0  0
 10 11  2  0  0  0  0
 12 14  1  0  0  0  0
 13 15  2  0  0  0  0
 14 16  2  0  0  0  0
 15 16  1  0  0  0  0
M  END
> <PUBCHEM_COMPOUND_ID_TYPE>
0

> <PUBCHEM_TOTAL_CHARGE>
0

> <PUBCHEM_SUBSTANCE_ID>
310931338

> <PUBCHEM_SUBSTANCE_VERSION>
1

> <PUBCHEM_EXT_DATASOURCE_NAME>
4488

> <PUBCHEM_EXT_DATASOURCE_REGID>
SCHEMBL16108658

> <PUBCHEM_SUBSTANCE_COMMENT>
InChI=1S/C14H14BrNO/c1-16-14(10-5-3-2-4-6-10)12-9-11(15)7-8-13(12)17/h2-9,14,16-17H,1H3
InChIKey=ZBGGHXLGDKRIAI-UHFFFAOYSA-N

> <PUBCHEM_SUBSTANCE_SYNONYM>
SCHEMBL16108658

> <PUBCHEM_XREF_EXT_ID>
SCHEMBL16108658

> <PUBCHEM_EXT_DATASOURCE_URL>
https://www.surechembl.org/

> <PUBCHEM_EXT_SUBSTANCE_URL>
https://www.surechembl.org/chemical/SCHEMBL16108658

> <PUBCHEM_CID_ASSOCIATIONS>
117600146  1

> <PUBCHEM_COORDINATE_TYPE>
1
3

$$$$
