310936969
  -OEChem-07211613022D

 31 35  0     1  0  0  0  0  0999 V2000
    3.5724   -0.4125    0.0000 Br  0  0  0  0  0  0  0  0  0  0  0  0
   -3.5250   -2.4458    0.0000 F   0  0  0  0  0  0  0  0  0  0  0  0
   -2.2875    1.1266    0.0000 O   0  0  0  0  0  0  0  0  0  0  0  0
   -3.1895    1.1658    0.0000 O   0  0  0  0  0  0  0  0  0  0  0  0
   -1.0500    0.4121    0.0000 N   0  0  0  0  0  0  0  0  0  0  0  0
    0.7144    1.2375    0.0000 N   0  0  0  0  0  0  0  0  0  0  0  0
    1.4290    0.0000    0.0000 N   0  0  0  0  0  0  0  0  0  0  0  0
    2.1434    1.2375    0.0000 N   0  0  0  0  0  0  0  0  0  0  0  0
   -4.3456    0.4984    0.0000 N   0  0  0  0  0  0  0  0  0  0  0  0
   -0.7144    1.2375    0.0000 C   0  0  3  0  0  0  0  0  0  0  0  0
   -0.7144   -0.4125    0.0000 C   0  0  3  0  0  0  0  0  0  0  0  0
    0.0000    0.8250    0.0000 C   0  0  3  0  0  0  0  0  0  0  0  0
    0.0000    0.0000    0.0000 C   0  0  0  0  0  0  0  0  0  0  0  0
   -1.8750    0.4121    0.0000 C   0  0  0  0  0  0  0  0  0  0  0  0
   -1.4290    0.8250    0.0000 C   0  0  0  0  0  0  0  0  0  0  0  0
   -1.4290    0.0000    0.0000 C   0  0  0  0  0  0  0  0  0  0  0  0
   -2.2875   -0.3024    0.0000 C   0  0  0  0  0  0  0  0  0  0  0  0
   -3.1125   -0.3024    0.0000 C   0  0  0  0  0  0  0  0  0  0  0  0
    1.4290    0.8250    0.0000 C   0  0  0  0  0  0  0  0  0  0  0  0
   -1.8750   -1.0168    0.0000 C   0  0  0  0  0  0  0  0  0  0  0  0
   -3.5250    0.4121    0.0000 C   0  0  0  0  0  0  0  0  0  0  0  0
   -3.5250   -1.0168    0.0000 C   0  0  0  0  0  0  0  0  0  0  0  0
   -3.1125   -1.7313    0.0000 C   0  0  0  0  0  0  0  0  0  0  0  0
   -2.2875   -1.7313    0.0000 C   0  0  0  0  0  0  0  0  0  0  0  0
    2.1434   -0.4125    0.0000 C   0  0  0  0  0  0  0  0  0  0  0  0
    2.8579    0.8250    0.0000 C   0  0  0  0  0  0  0  0  0  0  0  0
   -3.8026    1.7178    0.0000 C   0  0  0  0  0  0  0  0  0  0  0  0
   -4.5171    1.3053    0.0000 C   0  0  0  0  0  0  0  0  0  0  0  0
    2.8579    0.0000    0.0000 C   0  0  0  0  0  0  0  0  0  0  0  0
   -0.7144    2.0625    0.0000 H   0  0  0  0  0  0  0  0  0  0  0  0
   -0.7144   -1.2375    0.0000 H   0  0  0  0  0  0  0  0  0  0  0  0
  1 29  1  0  0  0  0
  2 23  1  0  0  0  0
  3 14  2  0  0  0  0
  4 21  1  0  0  0  0
  4 27  1  0  0  0  0
  5 10  1  0  0  0  0
  5 11  1  0  0  0  0
  5 14  1  0  0  0  0
 12  6  1  6  0  0  0
  6 19  1  0  0  0  0
  7 19  2  0  0  0  0
  7 25  1  0  0  0  0
  8 19  1  0  0  0  0
  8 26  2  0  0  0  0
  9 21  2  0  0  0  0
  9 28  1  0  0  0  0
 10 12  1  0  0  0  0
 10 15  1  0  0  0  0
 10 30  1  6  0  0  0
 11 13  1  0  0  0  0
 11 16  1  0  0  0  0
 11 31  1  6  0  0  0
 12 13  1  0  0  0  0
 14 17  1  0  0  0  0
 15 16  1  0  0  0  0
 17 18  1  0  0  0  0
 17 20  2  0  0  0  0
 18 21  1  0  0  0  0
 18 22  2  0  0  0  0
 20 24  1  0  0  0  0
 22 23  1  0  0  0  0
 23 24  2  0  0  0  0
 25 29  2  0  0  0  0
 26 29  1  0  0  0  0
 27 28  2  0  0  0  0
M  END
> <PUBCHEM_COMPOUND_ID_TYPE>
0

> <PUBCHEM_TOTAL_CHARGE>
0

> <PUBCHEM_SUBSTANCE_ID>
310936969

> <PUBCHEM_SUBSTANCE_VERSION>
1

> <PUBCHEM_EXT_DATASOURCE_NAME>
4488

> <PUBCHEM_EXT_DATASOURCE_REGID>
SCHEMBL16114672

> <PUBCHEM_SUBSTANCE_COMMENT>
InChI=1S/C20H17BrFN5O2/c21-11-9-24-20(25-10-11)26-16-8-13-2-4-17(16)27(13)19(28)14-3-1-12(22)7-15(14)18-23-5-6-29-18/h1,3,5-7,9-10,13,16-17H,2,4,8H2,(H,24,25,26)/t13-,16-,17+/m1/s1
InChIKey=CVGPVTXNRWAKDY-XYPHTWIQSA-N

> <PUBCHEM_SUBSTANCE_SYNONYM>
SCHEMBL16114672

> <PUBCHEM_XREF_EXT_ID>
SCHEMBL16114672

> <PUBCHEM_EXT_DATASOURCE_URL>
https://www.surechembl.org/

> <PUBCHEM_EXT_SUBSTANCE_URL>
https://www.surechembl.org/chemical/SCHEMBL16114672

> <PUBCHEM_CID_ASSOCIATIONS>
117604835  1

> <PUBCHEM_COORDINATE_TYPE>
1
3

> <PUBCHEM_BONDANNOTATIONS>
10  30  6
11  31  6
12  6  6

$$$$
