310941732
  -OEChem-07211613022D

 14 14  0     1  0  0  0  0  0999 V2000
   -0.9838   -0.9247    0.0000 O   0  0  0  0  0  0  0  0  0  0  0  0
    2.4397    0.8854    0.0000 O   0  0  0  0  0  0  0  0  0  0  0  0
   -1.7117    0.3443    0.0000 O   0  0  0  0  0  0  0  0  0  0  0  0
    1.0034    0.0492    0.0000 N   0  0  0  0  0  0  0  0  0  0  0  0
    0.4132   -0.5116    0.0000 C   0  0  3  0  0  0  0  0  0  0  0  0
    1.7215   -0.3443    0.0000 C   0  0  0  0  0  0  0  0  0  0  0  0
    1.0034    0.9247    0.0000 C   0  0  0  0  0  0  0  0  0  0  0  0
   -0.3935   -0.3049    0.0000 C   0  0  0  0  0  0  0  0  0  0  0  0
    2.4298    0.0787    0.0000 C   0  0  0  0  0  0  0  0  0  0  0  0
    1.7117    1.3379    0.0000 C   0  0  0  0  0  0  0  0  0  0  0  0
   -1.7117   -0.4820    0.0000 C   0  0  0  0  0  0  0  0  0  0  0  0
    0.6394   -1.3379    0.0000 C   0  0  0  0  0  0  0  0  0  0  0  0
   -2.0757   -0.6886    0.0000 C   0  0  0  0  0  0  0  0  0  0  0  0
   -2.4397   -0.9051    0.0000 C   0  0  0  0  0  0  0  0  0  0  0  0
  1  8  1  0  0  0  0
  1 11  1  0  0  0  0
  2  9  1  0  0  0  0
  2 10  1  0  0  0  0
  3 11  2  0  0  0  0
  4  5  1  0  0  0  0
  4  6  1  0  0  0  0
  4  7  1  0  0  0  0
  5  8  1  0  0  0  0
  5 12  1  0  0  0  0
  6  9  1  0  0  0  0
  7 10  1  0  0  0  0
 11 13  1  0  0  0  0
 13 14  1  0  0  0  0
M  END
> <PUBCHEM_COMPOUND_ID_TYPE>
0

> <PUBCHEM_TOTAL_CHARGE>
0

> <PUBCHEM_SUBSTANCE_ID>
310941732

> <PUBCHEM_SUBSTANCE_VERSION>
1

> <PUBCHEM_EXT_DATASOURCE_NAME>
4488

> <PUBCHEM_EXT_DATASOURCE_REGID>
SCHEMBL16119763

> <PUBCHEM_SUBSTANCE_COMMENT>
InChI=1S/C10H19NO3/c1-3-10(12)14-8-9(2)11-4-6-13-7-5-11/h9H,3-8H2,1-2H3
InChIKey=WPZCMXSCYONMBN-UHFFFAOYSA-N

> <PUBCHEM_SUBSTANCE_SYNONYM>
SCHEMBL16119763

> <PUBCHEM_XREF_EXT_ID>
SCHEMBL16119763

> <PUBCHEM_EXT_DATASOURCE_URL>
https://www.surechembl.org/

> <PUBCHEM_EXT_SUBSTANCE_URL>
https://www.surechembl.org/chemical/SCHEMBL16119763

> <PUBCHEM_CID_ASSOCIATIONS>
117608501  1

> <PUBCHEM_COORDINATE_TYPE>
1
3

$$$$
