310937164
  -OEChem-07211613022D

 31 34  0     1  0  0  0  0  0999 V2000
    2.9328    1.3099    0.0000 S   0  0  0  0  0  0  0  0  0  0  0  0
   -0.4496   -1.5777    0.0000 F   0  0  0  0  0  0  0  0  0  0  0  0
    0.0462   -1.6967    0.0000 F   0  0  0  0  0  0  0  0  0  0  0  0
   -0.7220   -0.4432    0.0000 F   0  0  0  0  0  0  0  0  0  0  0  0
   -0.1332    1.4230    0.0000 F   0  0  0  0  0  0  0  0  0  0  0  0
    1.9657   -0.9224    0.0000 O   0  0  0  0  0  0  0  0  0  0  0  0
   -0.8980    3.7769    0.0000 O   0  0  0  0  0  0  0  0  0  0  0  0
    1.4808    1.0799    0.0000 N   0  0  0  0  0  0  0  0  0  0  0  0
    2.2654    0.0000    0.0000 N   0  0  0  0  0  0  0  0  0  0  0  0
    2.0993   -1.5561    0.0000 N   0  0  0  0  0  0  0  0  0  0  0  0
   -1.1951    2.3791    0.0000 N   0  0  0  0  0  0  0  0  0  0  0  0
    0.9959    0.4125    0.0000 C   0  0  3  0  0  0  0  0  0  0  0  0
    0.4125   -0.1709    0.0000 C   0  0  3  0  0  0  0  0  0  0  0  0
   -0.0186   -0.8743    0.0000 C   0  0  0  0  0  0  0  0  0  0  0  0
    1.4808   -0.2549    0.0000 C   0  0  0  0  0  0  0  0  0  0  0  0
    0.4125    0.9959    0.0000 C   0  0  0  0  0  0  0  0  0  0  0  0
   -0.1709    0.4125    0.0000 C   0  0  0  0  0  0  0  0  0  0  0  0
    0.8436   -0.8743    0.0000 C   0  0  0  0  0  0  0  0  0  0  0  0
    2.2654    0.8250    0.0000 C   0  0  0  0  0  0  0  0  0  0  0  0
    1.2258    1.8646    0.0000 C   0  0  0  0  0  0  0  0  0  0  0  0
    1.6683   -0.8527    0.0000 C   0  0  0  0  0  0  0  0  0  0  0  0
    0.4499   -1.5993    0.0000 C   0  0  0  0  0  0  0  0  0  0  0  0
    0.4189    2.0361    0.0000 C   0  0  0  0  0  0  0  0  0  0  0  0
    1.7779    2.4777    0.0000 C   0  0  0  0  0  0  0  0  0  0  0  0
    0.1639    2.8207    0.0000 C   0  0  0  0  0  0  0  0  0  0  0  0
    0.8810   -2.3027    0.0000 C   0  0  0  0  0  0  0  0  0  0  0  0
    1.5229    3.2623    0.0000 C   0  0  0  0  0  0  0  0  0  0  0  0
    0.7160    3.4338    0.0000 C   0  0  0  0  0  0  0  0  0  0  0  0
    1.7057   -2.2811    0.0000 C   0  0  0  0  0  0  0  0  0  0  0  0
   -0.6430    2.9922    0.0000 C   0  0  0  0  0  0  0  0  0  0  0  0
   -2.0020    2.5507    0.0000 C   0  0  0  0  0  0  0  0  0  0  0  0
  1 19  2  0  0  0  0
  2 14  1  0  0  0  0
  3 14  1  0  0  0  0
  4 14  1  0  0  0  0
  5 23  1  0  0  0  0
  6 15  2  0  0  0  0
  7 30  2  0  0  0  0
  8 12  1  0  0  0  0
  8 19  1  0  0  0  0
  8 20  1  0  0  0  0
  9 15  1  0  0  0  0
  9 19  1  0  0  0  0
 10 21  2  0  0  0  0
 10 29  1  0  0  0  0
 11 30  1  0  0  0  0
 11 31  1  0  0  0  0
 12 13  1  0  0  0  0
 12 15  1  0  0  0  0
 12 16  1  0  0  0  0
 13 14  1  0  0  0  0
 13 17  1  0  0  0  0
 13 18  1  0  0  0  0
 16 17  1  0  0  0  0
 18 21  1  0  0  0  0
 18 22  2  0  0  0  0
 20 23  1  0  0  0  0
 20 24  2  0  0  0  0
 22 26  1  0  0  0  0
 23 25  2  0  0  0  0
 24 27  1  0  0  0  0
 25 28  1  0  0  0  0
 25 30  1  0  0  0  0
 26 29  2  0  0  0  0
 27 28  2  0  0  0  0
M  END
> <PUBCHEM_COMPOUND_ID_TYPE>
0

> <PUBCHEM_TOTAL_CHARGE>
0

> <PUBCHEM_SUBSTANCE_ID>
310937164

> <PUBCHEM_SUBSTANCE_VERSION>
1

> <PUBCHEM_EXT_DATASOURCE_NAME>
4488

> <PUBCHEM_EXT_DATASOURCE_REGID>
SCHEMBL16114888

> <PUBCHEM_SUBSTANCE_COMMENT>
InChI=1S/C20H16F4N4O2S/c1-25-15(29)12-5-2-6-13(14(12)21)28-17(31)27-16(30)19(28)8-7-18(19,20(22,23)24)11-4-3-9-26-10-11/h2-6,9-10H,7-8H2,1H3,(H,25,29)(H,27,30,31)
InChIKey=QKPSJYRNYILYAF-UHFFFAOYSA-N

> <PUBCHEM_SUBSTANCE_SYNONYM>
SCHEMBL16114888

> <PUBCHEM_XREF_EXT_ID>
SCHEMBL16114888

> <PUBCHEM_EXT_DATASOURCE_URL>
https://www.surechembl.org/

> <PUBCHEM_EXT_SUBSTANCE_URL>
https://www.surechembl.org/chemical/SCHEMBL16114888

> <PUBCHEM_CID_ASSOCIATIONS>
117604986  1

> <PUBCHEM_COORDINATE_TYPE>
1
3

$$$$
