310942033
  -OEChem-07211613022D

 32 34  0     1  0  0  0  0  0999 V2000
    2.8216   -0.4188    0.0000 O   0  0  0  0  0  0  0  0  0  0  0  0
   -3.1922   -2.7255    0.0000 O   0  0  0  0  0  0  0  0  0  0  0  0
   -1.8193   -3.0961    0.0000 O   0  0  0  0  0  0  0  0  0  0  0  0
    1.8604    0.6522    0.0000 N   0  0  0  0  0  0  0  0  0  0  0  0
    1.1877    0.1716    0.0000 N   0  0  0  0  0  0  0  0  0  0  0  0
   -0.4325   -0.4051    0.0000 N   0  0  3  0  0  0  0  0  0  0  0  0
   -2.1763   -1.7094    0.0000 N   0  0  0  0  0  0  0  0  0  0  0  0
    1.5996    1.4348    0.0000 C   0  0  0  0  0  0  0  0  0  0  0  0
    0.7757    1.4485    0.0000 C   0  0  0  0  0  0  0  0  0  0  0  0
    0.5286    0.6796    0.0000 C   0  0  0  0  0  0  0  0  0  0  0  0
    2.6568    0.4188    0.0000 C   0  0  3  0  0  0  0  0  0  0  0  0
    0.3913    2.1625    0.0000 C   0  0  0  0  0  0  0  0  0  0  0  0
    2.0115    2.1625    0.0000 C   0  0  0  0  0  0  0  0  0  0  0  0
    0.7757    2.8764    0.0000 C   0  0  0  0  0  0  0  0  0  0  0  0
   -0.2540    0.4188    0.0000 C   0  0  0  0  0  0  0  0  0  0  0  0
    1.6133    2.8627    0.0000 C   0  0  0  0  0  0  0  0  0  0  0  0
    3.2747    0.9680    0.0000 C   0  0  0  0  0  0  0  0  0  0  0  0
    0.3776    3.5767    0.0000 C   0  0  0  0  0  0  0  0  0  0  0  0
    3.6316   -0.6247    0.0000 C   0  0  0  0  0  0  0  0  0  0  0  0
    4.0573    0.7071    0.0000 C   0  0  0  0  0  0  0  0  0  0  0  0
   -1.2151   -0.6385    0.0000 C   0  0  0  0  0  0  0  0  0  0  0  0
    4.2220   -0.1030    0.0000 C   0  0  0  0  0  0  0  0  0  0  0  0
   -0.4737    3.5905    0.0000 C   0  0  0  0  0  0  0  0  0  0  0  0
    0.7757    4.3044    0.0000 C   0  0  0  0  0  0  0  0  0  0  0  0
    0.2128   -0.9543    0.0000 C   0  0  0  0  0  0  0  0  0  0  0  0
   -1.3936   -1.4485    0.0000 C   0  0  0  0  0  0  0  0  0  0  0  0
   -2.4096   -2.4783    0.0000 C   0  0  0  0  0  0  0  0  0  0  0  0
   -3.4119   -3.5081    0.0000 C   0  0  0  0  0  0  0  0  0  0  0  0
   -2.7803   -1.1190    0.0000 C   0  0  0  0  0  0  0  0  0  0  0  0
   -4.2220   -3.7140    0.0000 C   0  0  0  0  0  0  0  0  0  0  0  0
   -2.8078   -4.0847    0.0000 C   0  0  0  0  0  0  0  0  0  0  0  0
   -3.6042   -4.3044    0.0000 C   0  0  0  0  0  0  0  0  0  0  0  0
  1 11  1  0  0  0  0
  1 19  1  0  0  0  0
  2 27  1  0  0  0  0
  2 28  1  0  0  0  0
  3 27  2  0  0  0  0
  4  5  1  0  0  0  0
  4  8  1  0  0  0  0
  4 11  1  0  0  0  0
  5 10  2  0  0  0  0
  6 15  1  0  0  0  0
  6 21  1  0  0  0  0
  6 25  1  0  0  0  0
  7 26  1  0  0  0  0
  7 27  1  0  0  0  0
  7 29  1  0  0  0  0
  8  9  1  0  0  0  0
  8 13  2  0  0  0  0
  9 10  1  0  0  0  0
  9 12  2  0  0  0  0
 10 15  1  0  0  0  0
 11 17  1  0  0  0  0
 12 14  1  0  0  0  0
 13 16  1  0  0  0  0
 14 16  2  0  0  0  0
 14 18  1  0  0  0  0
 17 20  1  0  0  0  0
 18 23  1  0  0  0  0
 18 24  1  0  0  0  0
 19 22  1  0  0  0  0
 20 22  1  0  0  0  0
 21 26  1  0  0  0  0
 28 30  1  0  0  0  0
 28 31  1  0  0  0  0
 28 32  1  0  0  0  0
M  END
> <PUBCHEM_COMPOUND_ID_TYPE>
0

> <PUBCHEM_TOTAL_CHARGE>
0

> <PUBCHEM_SUBSTANCE_ID>
310942033

> <PUBCHEM_SUBSTANCE_VERSION>
1

> <PUBCHEM_EXT_DATASOURCE_NAME>
4488

> <PUBCHEM_EXT_DATASOURCE_REGID>
SCHEMBL16120067

> <PUBCHEM_SUBSTANCE_COMMENT>
InChI=1S/C25H40N4O3/c1-18(2)19-11-12-22-20(16-19)21(26-29(22)23-10-8-9-15-31-23)17-27(6)13-14-28(7)24(30)32-25(3,4)5/h11-12,16,18,23H,8-10,13-15,17H2,1-7H3
InChIKey=LILHFBLPQVMUOR-UHFFFAOYSA-N

> <PUBCHEM_SUBSTANCE_SYNONYM>
SCHEMBL16120067

> <PUBCHEM_XREF_EXT_ID>
SCHEMBL16120067

> <PUBCHEM_EXT_DATASOURCE_URL>
https://www.surechembl.org/

> <PUBCHEM_EXT_SUBSTANCE_URL>
https://www.surechembl.org/chemical/SCHEMBL16120067

> <PUBCHEM_CID_ASSOCIATIONS>
117608719  1

> <PUBCHEM_COORDINATE_TYPE>
1
3

$$$$
