310933363
  -OEChem-07211613022D

 32 35  0     1  0  0  0  0  0999 V2000
    2.5218   -4.2555    0.0000 O   0  0  0  0  0  0  0  0  0  0  0  0
    5.9577   -1.1032    0.0000 O   0  0  0  0  0  0  0  0  0  0  0  0
    0.4413   -2.1750    0.0000 O   0  0  0  0  0  0  0  0  0  0  0  0
    1.7337   -2.8370    0.0000 N   0  0  0  0  0  0  0  0  0  0  0  0
    1.7652   -1.5131    0.0000 N   0  0  0  0  0  0  0  0  0  0  0  0
    4.0979   -5.2327    0.0000 N   0  0  0  0  0  0  0  0  0  0  0  0
    5.5794   -0.3782    0.0000 N   0  0  0  0  0  0  0  0  0  0  0  0
    3.2468   -3.8457    0.0000 C   0  0  3  0  0  0  0  0  0  0  0  0
    3.2468   -3.0261    0.0000 C   0  0  0  0  0  0  0  0  0  0  0  0
    2.5218   -2.6163    0.0000 C   0  0  0  0  0  0  0  0  0  0  0  0
    2.5533   -1.7652    0.0000 C   0  0  0  0  0  0  0  0  0  0  0  0
    3.9718   -1.7652    0.0000 C   0  0  0  0  0  0  0  0  0  0  0  0
    3.9403   -2.6478    0.0000 C   0  0  0  0  0  0  0  0  0  0  0  0
    3.2468   -4.6652    0.0000 C   0  0  0  0  0  0  0  0  0  0  0  0
    3.9718   -4.2555    0.0000 C   0  0  0  0  0  0  0  0  0  0  0  0
    3.2783   -1.3869    0.0000 C   0  0  0  0  0  0  0  0  0  0  0  0
    4.6652   -1.3869    0.0000 C   0  0  0  0  0  0  0  0  0  0  0  0
    1.2609   -2.1750    0.0000 C   0  0  0  0  0  0  0  0  0  0  0  0
    5.4218   -1.7022    0.0000 C   0  0  0  0  0  0  0  0  0  0  0  0
    4.7598   -0.5674    0.0000 C   0  0  0  0  0  0  0  0  0  0  0  0
    2.5218   -5.0750    0.0000 C   0  0  0  0  0  0  0  0  0  0  0  0
    4.6652   -3.8457    0.0000 C   0  0  0  0  0  0  0  0  0  0  0  0
    3.9718   -5.0750    0.0000 C   0  0  0  0  0  0  0  0  0  0  0  0
    3.9718   -5.8946    0.0000 C   0  0  0  0  0  0  0  0  0  0  0  0
    2.5533   -5.8946    0.0000 C   0  0  0  0  0  0  0  0  0  0  0  0
    5.6109   -2.5218    0.0000 C   0  0  0  0  0  0  0  0  0  0  0  0
    4.1609    0.0000    0.0000 C   0  0  0  0  0  0  0  0  0  0  0  0
    3.2468   -6.3044    0.0000 C   0  0  0  0  0  0  0  0  0  0  0  0
    5.3902   -4.2555    0.0000 C   0  0  0  0  0  0  0  0  0  0  0  0
    4.6968   -5.4849    0.0000 C   0  0  0  0  0  0  0  0  0  0  0  0
    0.0000   -2.8685    0.0000 C   0  0  0  0  0  0  0  0  0  0  0  0
    0.4098   -3.5935    0.0000 C   0  0  0  0  0  0  0  0  0  0  0  0
  1  8  1  0  0  0  0
  2  7  1  0  0  0  0
  2 19  1  0  0  0  0
  3 18  1  0  0  0  0
  3 31  1  0  0  0  0
  4 10  1  0  0  0  0
  4 18  2  0  0  0  0
  5 11  1  0  0  0  0
  5 18  1  0  0  0  0
  6 14  1  0  0  0  0
  6 24  2  0  0  0  0
  7 20  2  0  0  0  0
  8  9  1  0  0  0  0
  8 14  1  0  0  0  0
  8 15  1  0  0  0  0
  9 10  1  0  0  0  0
  9 13  2  0  0  0  0
 10 11  2  0  0  0  0
 11 16  1  0  0  0  0
 12 13  1  0  0  0  0
 12 16  2  0  0  0  0
 12 17  1  0  0  0  0
 14 21  2  0  0  0  0
 15 22  1  0  0  0  0
 15 23  1  0  0  0  0
 17 19  2  0  0  0  0
 17 20  1  0  0  0  0
 19 26  1  0  0  0  0
 20 27  1  0  0  0  0
 21 25  1  0  0  0  0
 22 29  1  0  0  0  0
 23 30  1  0  0  0  0
 24 28  1  0  0  0  0
 25 28  2  0  0  0  0
 31 32  1  0  0  0  0
M  END
> <PUBCHEM_COMPOUND_ID_TYPE>
0

> <PUBCHEM_TOTAL_CHARGE>
0

> <PUBCHEM_SUBSTANCE_ID>
310933363

> <PUBCHEM_SUBSTANCE_VERSION>
1

> <PUBCHEM_EXT_DATASOURCE_NAME>
4488

> <PUBCHEM_EXT_DATASOURCE_REGID>
SCHEMBL16110777

> <PUBCHEM_SUBSTANCE_COMMENT>
InChI=1S/C25H30N4O3/c1-6-18(7-2)25(30,21-11-9-10-12-26-21)19-13-17(22-15(4)29-32-16(22)5)14-20-23(19)28-24(27-20)31-8-3/h9-14,18,30H,6-8H2,1-5H3,(H,27,28)
InChIKey=UIBHOYBDMNWXES-UHFFFAOYSA-N

> <PUBCHEM_SUBSTANCE_SYNONYM>
SCHEMBL16110777

> <PUBCHEM_XREF_EXT_ID>
SCHEMBL16110777

> <PUBCHEM_EXT_DATASOURCE_URL>
https://www.surechembl.org/

> <PUBCHEM_EXT_SUBSTANCE_URL>
https://www.surechembl.org/chemical/SCHEMBL16110777

> <PUBCHEM_CID_ASSOCIATIONS>
117601774  1

> <PUBCHEM_COORDINATE_TYPE>
1
3

$$$$
