310943928
  -OEChem-07211613022D

 33 36  0     1  0  0  0  0  0999 V2000
    4.6639    0.8413    0.0000 N   0  0  3  0  0  0  0  0  0  0  0  0
   -4.6639   -1.7821    0.0000 N   0  0  3  0  0  0  0  0  0  0  0  0
    6.4260    1.3846    0.0000 N   0  0  3  0  0  0  0  0  0  0  0  0
   -6.4260   -1.2256    0.0000 N   0  0  3  0  0  0  0  0  0  0  0  0
    3.8027    0.3379    0.0000 C   0  0  0  0  0  0  0  0  0  0  0  0
    2.3849   -0.4968    0.0000 C   0  0  0  0  0  0  0  0  0  0  0  0
    3.1004    0.7354    0.0000 C   0  0  0  0  0  0  0  0  0  0  0  0
    3.8027   -0.4968    0.0000 C   0  0  0  0  0  0  0  0  0  0  0  0
   -3.2329   -1.7556    0.0000 C   0  0  0  0  0  0  0  0  0  0  0  0
    5.3528    0.3908    0.0000 C   0  0  0  0  0  0  0  0  0  0  0  0
    2.3982    0.3246    0.0000 C   0  0  0  0  0  0  0  0  0  0  0  0
    3.1136   -0.9076    0.0000 C   0  0  0  0  0  0  0  0  0  0  0  0
    4.6241    1.6893    0.0000 C   0  0  0  0  0  0  0  0  0  0  0  0
   -1.8152   -0.9341    0.0000 C   0  0  0  0  0  0  0  0  0  0  0  0
   -3.9484   -2.1663    0.0000 C   0  0  0  0  0  0  0  0  0  0  0  0
   -3.2196   -0.9341    0.0000 C   0  0  0  0  0  0  0  0  0  0  0  0
   -2.5042   -2.1663    0.0000 C   0  0  0  0  0  0  0  0  0  0  0  0
    6.1345    0.6426    0.0000 C   0  0  0  0  0  0  0  0  0  0  0  0
    1.5502   -0.9871    0.0000 C   0  0  0  0  0  0  0  0  0  0  0  0
   -2.5307   -0.5234    0.0000 C   0  0  0  0  0  0  0  0  0  0  0  0
   -1.8152   -1.7556    0.0000 C   0  0  0  0  0  0  0  0  0  0  0  0
    5.2071    2.2326    0.0000 C   0  0  0  0  0  0  0  0  0  0  0  0
   -5.3263   -2.2326    0.0000 C   0  0  0  0  0  0  0  0  0  0  0  0
   -4.5976   -0.9606    0.0000 C   0  0  0  0  0  0  0  0  0  0  0  0
    6.0285    2.1000    0.0000 C   0  0  0  0  0  0  0  0  0  0  0  0
   -1.0865   -0.5234    0.0000 C   0  0  0  0  0  0  0  0  0  0  0  0
    0.6360   -0.5234    0.0000 C   0  0  0  0  0  0  0  0  0  0  0  0
   -6.1213   -1.9940    0.0000 C   0  0  0  0  0  0  0  0  0  0  0  0
   -0.2252   -1.0136    0.0000 C   0  0  0  0  0  0  0  0  0  0  0  0
   -5.2071   -0.3908    0.0000 C   0  0  0  0  0  0  0  0  0  0  0  0
   -6.0020   -0.5101    0.0000 C   0  0  0  0  0  0  0  0  0  0  0  0
    6.4260    1.3846    0.0000 C   0  0  0  0  0  0  0  0  0  0  0  0
   -6.4260   -1.2256    0.0000 C   0  0  0  0  0  0  0  0  0  0  0  0
  1  5  1  0  0  0  0
  1 10  1  0  0  0  0
  1 13  1  0  0  0  0
  2 15  1  0  0  0  0
  2 23  1  0  0  0  0
  2 24  1  0  0  0  0
  3 18  1  0  0  0  0
  3 25  1  0  0  0  0
  3 32  1  0  0  0  0
  4 28  1  0  0  0  0
  4 31  1  0  0  0  0
  4 33  1  0  0  0  0
  5  7  2  0  0  0  0
  5  8  1  0  0  0  0
  6 11  2  0  0  0  0
  6 12  1  0  0  0  0
  6 19  1  0  0  0  0
  7 11  1  0  0  0  0
  8 12  2  0  0  0  0
  9 15  1  0  0  0  0
  9 16  2  0  0  0  0
  9 17  1  0  0  0  0
 10 18  1  0  0  0  0
 13 22  1  0  0  0  0
 14 20  2  0  0  0  0
 14 21  1  0  0  0  0
 14 26  1  0  0  0  0
 16 20  1  0  0  0  0
 17 21  2  0  0  0  0
 19 27  1  0  0  0  0
 22 25  1  0  0  0  0
 23 28  1  0  0  0  0
 24 30  1  0  0  0  0
 26 29  1  0  0  0  0
 27 29  1  0  0  0  0
 30 31  1  0  0  0  0
M  END
> <PUBCHEM_COMPOUND_ID_TYPE>
0

> <PUBCHEM_TOTAL_CHARGE>
0

> <PUBCHEM_SUBSTANCE_ID>
310943928

> <PUBCHEM_SUBSTANCE_VERSION>
1

> <PUBCHEM_EXT_DATASOURCE_NAME>
4488

> <PUBCHEM_EXT_DATASOURCE_REGID>
SCHEMBL16121999

> <PUBCHEM_SUBSTANCE_COMMENT>
InChI=1S/C29H44N4/c1-30-17-5-19-32(23-21-30)25-28-11-9-26(10-12-28)7-3-4-8-27-13-15-29(16-14-27)33-20-6-18-31(2)22-24-33/h9-16H,3-8,17-25H2,1-2H3
InChIKey=GITHOYIXQQYZHG-UHFFFAOYSA-N

> <PUBCHEM_SUBSTANCE_SYNONYM>
SCHEMBL16121999

> <PUBCHEM_XREF_EXT_ID>
SCHEMBL16121999

> <PUBCHEM_EXT_DATASOURCE_URL>
https://www.surechembl.org/

> <PUBCHEM_EXT_SUBSTANCE_URL>
https://www.surechembl.org/chemical/SCHEMBL16121999

> <PUBCHEM_CID_ASSOCIATIONS>
117610239  1

> <PUBCHEM_COORDINATE_TYPE>
1
3

$$$$
