310938479
  -OEChem-07211613022D

 35 38  0     1  0  0  0  0  0999 V2000
    9.3204    3.7582    0.0000 S   0  0  0  0  0  0  0  0  0  0  0  0
    7.5398   -0.4125    0.0000 F   0  0  0  0  0  0  0  0  0  0  0  0
    8.1483    0.4987    0.0000 O   0  0  0  0  0  0  0  0  0  0  0  0
   10.3977    0.4125    0.0000 O   0  0  0  0  0  0  0  0  0  0  0  0
    7.2624    7.4168    0.0000 O   0  0  0  0  0  0  0  0  0  0  0  0
    6.0249    6.7023    0.0000 O   0  0  0  0  0  0  0  0  0  0  0  0
    7.9767    1.3057    0.0000 N   0  0  0  0  0  0  0  0  0  0  0  0
    8.1644    3.0907    0.0000 N   0  0  0  0  0  0  0  0  0  0  0  0
    7.2624    5.9878    0.0000 N   0  0  0  0  0  0  0  0  0  0  0  0
   11.1122    0.0000    0.0000 N   0  0  0  0  0  0  0  0  0  0  0  0
    8.9688    0.4125    0.0000 C   0  0  3  0  0  0  0  0  0  0  0  0
    8.9688   -0.4125    0.0000 C   0  0  0  0  0  0  0  0  0  0  0  0
    8.6912    1.7182    0.0000 C   0  0  0  0  0  0  0  0  0  0  0  0
    9.3043    1.1662    0.0000 C   0  0  0  0  0  0  0  0  0  0  0  0
    8.7775    2.5387    0.0000 C   0  0  0  0  0  0  0  0  0  0  0  0
    9.6833    0.0000    0.0000 C   0  0  0  0  0  0  0  0  0  0  0  0
    8.2543   -0.8250    0.0000 C   0  0  0  0  0  0  0  0  0  0  0  0
    8.4999    3.8444    0.0000 C   0  0  0  0  0  0  0  0  0  0  0  0
    9.6833   -0.8250    0.0000 C   0  0  0  0  0  0  0  0  0  0  0  0
    9.4919    2.9512    0.0000 C   0  0  0  0  0  0  0  0  0  0  0  0
    8.0874    4.5589    0.0000 C   0  0  0  0  0  0  0  0  0  0  0  0
    8.2543   -1.6500    0.0000 C   0  0  0  0  0  0  0  0  0  0  0  0
    9.6833   -1.6500    0.0000 C   0  0  0  0  0  0  0  0  0  0  0  0
    8.4999    5.2733    0.0000 C   0  0  0  0  0  0  0  0  0  0  0  0
    7.2624    4.5589    0.0000 C   0  0  0  0  0  0  0  0  0  0  0  0
    8.9688   -2.0625    0.0000 C   0  0  0  0  0  0  0  0  0  0  0  0
    8.0874    5.9878    0.0000 C   0  0  0  0  0  0  0  0  0  0  0  0
    6.8499    5.2733    0.0000 C   0  0  0  0  0  0  0  0  0  0  0  0
    6.8499    6.7023    0.0000 C   0  0  0  0  0  0  0  0  0  0  0  0
    6.8499    8.1312    0.0000 C   0  0  0  0  0  0  0  0  0  0  0  0
   11.8267    0.4125    0.0000 C   0  0  0  0  0  0  0  0  0  0  0  0
    6.0249    8.1312    0.0000 C   0  0  0  0  0  0  0  0  0  0  0  0
    6.4374    8.8457    0.0000 C   0  0  0  0  0  0  0  0  0  0  0  0
    7.2624    8.8457    0.0000 C   0  0  0  0  0  0  0  0  0  0  0  0
   12.5411    0.0000    0.0000 C   0  0  0  0  0  0  0  0  0  0  0  0
  1 18  1  0  0  0  0
  1 20  1  0  0  0  0
  2 17  1  0  0  0  0
  3  7  1  0  0  0  0
  3 11  1  0  0  0  0
  4 10  1  0  0  0  0
  4 16  1  0  0  0  0
  5 29  1  0  0  0  0
  5 30  1  0  0  0  0
  6 29  2  0  0  0  0
  7 13  2  0  0  0  0
  8 15  1  0  0  0  0
  8 18  2  0  0  0  0
  9 27  1  0  0  0  0
  9 28  1  0  0  0  0
  9 29  1  0  0  0  0
 10 31  2  0  0  0  0
 11 12  1  0  0  0  0
 11 14  1  0  0  0  0
 11 16  1  0  0  0  0
 12 17  1  0  0  0  0
 12 19  2  0  0  0  0
 13 14  1  0  0  0  0
 13 15  1  0  0  0  0
 15 20  2  0  0  0  0
 17 22  2  0  0  0  0
 18 21  1  0  0  0  0
 19 23  1  0  0  0  0
 21 24  1  0  0  0  0
 21 25  1  0  0  0  0
 22 26  1  0  0  0  0
 23 26  2  0  0  0  0
 24 27  1  0  0  0  0
 25 28  1  0  0  0  0
 30 32  1  0  0  0  0
 30 33  1  0  0  0  0
 30 34  1  0  0  0  0
 31 35  1  0  0  0  0
M  END
> <PUBCHEM_COMPOUND_ID_TYPE>
0

> <PUBCHEM_TOTAL_CHARGE>
0

> <PUBCHEM_SUBSTANCE_ID>
310938479

> <PUBCHEM_SUBSTANCE_VERSION>
1

> <PUBCHEM_EXT_DATASOURCE_NAME>
4488

> <PUBCHEM_EXT_DATASOURCE_REGID>
SCHEMBL16116381

> <PUBCHEM_SUBSTANCE_COMMENT>
InChI=1S/C25H31FN4O4S/c1-5-27-32-16-25(18-8-6-7-9-19(18)26)14-20(29-34-25)21-15-35-22(28-21)17-10-12-30(13-11-17)23(31)33-24(2,3)4/h5-9,15,17H,10-14,16H2,1-4H3/b27-5+
InChIKey=XWYJCKWBZYTENW-FZXKJZBHSA-N

> <PUBCHEM_SUBSTANCE_SYNONYM>
SCHEMBL16116381

> <PUBCHEM_XREF_EXT_ID>
SCHEMBL16116381

> <PUBCHEM_EXT_DATASOURCE_URL>
https://www.surechembl.org/

> <PUBCHEM_EXT_SUBSTANCE_URL>
https://www.surechembl.org/chemical/SCHEMBL16116381

> <PUBCHEM_CID_ASSOCIATIONS>
117605936  1

> <PUBCHEM_COORDINATE_TYPE>
1
3

$$$$
