310932328
  -OEChem-07211613022D

 24 26  0     1  0  0  0  0  0999 V2000
    3.2852    0.0000    0.0000 O   0  0  0  0  0  0  0  0  0  0  0  0
    4.4194   -1.9555    0.0000 O   0  0  0  0  0  0  0  0  0  0  0  0
    5.1233   -0.7235    0.0000 O   0  0  0  0  0  0  0  0  0  0  0  0
    0.0000   -2.3661    0.0000 O   0  0  0  0  0  0  0  0  0  0  0  0
    3.6959   -0.7235    0.0000 C   0  0  3  0  0  0  0  0  0  0  0  0
    2.8745   -0.7235    0.0000 C   0  0  3  0  0  0  0  0  0  0  0  0
    3.4808   -1.5253    0.0000 C   0  0  0  0  0  0  0  0  0  0  0  0
    4.4194   -1.1342    0.0000 C   0  0  0  0  0  0  0  0  0  0  0  0
    2.1706   -1.1342    0.0000 C   0  0  0  0  0  0  0  0  0  0  0  0
    4.0674   -2.1119    0.0000 C   0  0  0  0  0  0  0  0  0  0  0  0
    2.6985   -1.7404    0.0000 C   0  0  0  0  0  0  0  0  0  0  0  0
    2.1510   -1.9555    0.0000 C   0  0  0  0  0  0  0  0  0  0  0  0
    1.4471   -0.7235    0.0000 C   0  0  0  0  0  0  0  0  0  0  0  0
    3.8523   -2.9136    0.0000 C   0  0  0  0  0  0  0  0  0  0  0  0
    2.4834   -2.5421    0.0000 C   0  0  0  0  0  0  0  0  0  0  0  0
    3.0701   -3.1092    0.0000 C   0  0  0  0  0  0  0  0  0  0  0  0
    1.4471   -2.3857    0.0000 C   0  0  0  0  0  0  0  0  0  0  0  0
    0.7431   -1.1342    0.0000 C   0  0  0  0  0  0  0  0  0  0  0  0
    5.1233   -2.3661    0.0000 C   0  0  0  0  0  0  0  0  0  0  0  0
    0.7235   -1.9555    0.0000 C   0  0  0  0  0  0  0  0  0  0  0  0
    2.8550   -3.9110    0.0000 C   0  0  0  0  0  0  0  0  0  0  0  0
    5.8469   -1.9555    0.0000 C   0  0  0  0  0  0  0  0  0  0  0  0
    5.1233   -3.1874    0.0000 C   0  0  0  0  0  0  0  0  0  0  0  0
    0.0000   -3.1874    0.0000 C   0  0  0  0  0  0  0  0  0  0  0  0
  1  5  1  0  0  0  0
  1  6  1  0  0  0  0
  2  8  1  0  0  0  0
  2 19  1  0  0  0  0
  3  8  2  0  0  0  0
  4 20  1  0  0  0  0
  4 24  1  0  0  0  0
  5  6  1  0  0  0  0
  5  7  1  0  0  0  0
  5  8  1  0  0  0  0
  6  9  1  0  0  0  0
  7 10  2  0  0  0  0
  7 11  1  0  0  0  0
  9 12  2  0  0  0  0
  9 13  1  0  0  0  0
 10 14  1  0  0  0  0
 11 15  2  0  0  0  0
 12 17  1  0  0  0  0
 13 18  2  0  0  0  0
 14 16  2  0  0  0  0
 15 16  1  0  0  0  0
 16 21  1  0  0  0  0
 17 20  2  0  0  0  0
 18 20  1  0  0  0  0
 19 22  1  0  0  0  0
 19 23  1  0  0  0  0
M  END
> <PUBCHEM_COMPOUND_ID_TYPE>
0

> <PUBCHEM_TOTAL_CHARGE>
0

> <PUBCHEM_SUBSTANCE_ID>
310932328

> <PUBCHEM_SUBSTANCE_VERSION>
1

> <PUBCHEM_EXT_DATASOURCE_NAME>
4488

> <PUBCHEM_EXT_DATASOURCE_REGID>
SCHEMBL16109694

> <PUBCHEM_SUBSTANCE_COMMENT>
InChI=1S/C20H22O4/c1-13(2)23-19(21)20(16-9-5-14(3)6-10-16)18(24-20)15-7-11-17(22-4)12-8-15/h5-13,18H,1-4H3
InChIKey=IITOQIRPJVNOHQ-UHFFFAOYSA-N

> <PUBCHEM_SUBSTANCE_SYNONYM>
SCHEMBL16109694

> <PUBCHEM_XREF_EXT_ID>
SCHEMBL16109694

> <PUBCHEM_EXT_DATASOURCE_URL>
https://www.surechembl.org/

> <PUBCHEM_EXT_SUBSTANCE_URL>
https://www.surechembl.org/chemical/SCHEMBL16109694

> <PUBCHEM_CID_ASSOCIATIONS>
117600884  1

> <PUBCHEM_COORDINATE_TYPE>
1
3

$$$$
