310946636
  -OEChem-07211613022D

 36 35  0     1  0  0  0  0  0999 V2000
   -5.8994    4.9662    0.0000 O   0  0  0  0  0  0  0  0  0  0  0  0
   -6.4827    6.0329    0.0000 O   0  0  0  0  0  0  0  0  0  0  0  0
   -9.3406    4.3829    0.0000 O   0  0  0  0  0  0  0  0  0  0  0  0
   -6.4827    3.5579    0.0000 O   0  0  0  0  0  0  0  0  0  0  0  0
   -8.6262    5.6204    0.0000 O   0  0  0  0  0  0  0  0  0  0  0  0
   -5.7683    7.2704    0.0000 O   0  0  0  0  0  0  0  0  0  0  0  0
   -7.1972    7.2704    0.0000 O   0  0  0  0  0  0  0  0  0  0  0  0
   -4.0921    3.7423    0.0000 O   0  0  0  0  0  0  0  0  0  0  0  0
  -10.0551    2.3204    0.0000 O   0  0  0  0  0  0  0  0  0  0  0  0
   -3.0817    2.7319    0.0000 O   0  0  0  0  0  0  0  0  0  0  0  0
   -3.6249    6.8579    0.0000 O   0  0  0  0  0  0  0  0  0  0  0  0
  -10.0551    0.6704    0.0000 O   0  0  0  0  0  0  0  0  0  0  0  0
   -1.7014    3.1017    0.0000 O   0  5  0  0  0  0  0  0  0  0  0  0
   -2.7118    4.1121    0.0000 O   0  0  0  0  0  0  0  0  0  0  0  0
   -8.6262    0.6704    0.0000 O   0  5  0  0  0  0  0  0  0  0  0  0
   -9.3406    1.9079    0.0000 O   0  0  0  0  0  0  0  0  0  0  0  0
   -7.9117    4.3829    0.0000 N   0  0  0  0  0  0  0  0  0  0  0  0
   -2.4983    3.3152    0.0000 N   0  3  0  0  0  0  0  0  0  0  0  0
   -9.3406    1.0829    0.0000 N   0  3  0  0  0  0  0  0  0  0  0  0
   -7.1972    4.7954    0.0000 C   0  0  3  0  0  0  0  0  0  0  0  0
   -6.4827    4.3829    0.0000 C   0  0  0  0  0  0  0  0  0  0  0  0
   -7.1972    5.6204    0.0000 C   0  0  0  0  0  0  0  0  0  0  0  0
   -8.6262    4.7954    0.0000 C   0  0  0  0  0  0  0  0  0  0  0  0
   -6.4827    6.8579    0.0000 C   0  0  0  0  0  0  0  0  0  0  0  0
   -5.1025    4.7527    0.0000 C   0  0  0  0  0  0  0  0  0  0  0  0
   -9.3406    3.5579    0.0000 C   0  0  0  0  0  0  0  0  0  0  0  0
   -4.8890    3.9558    0.0000 C   0  0  0  0  0  0  0  0  0  0  0  0
   -5.0538    6.8579    0.0000 C   0  0  0  0  0  0  0  0  0  0  0  0
  -10.0551    3.1454    0.0000 C   0  0  0  0  0  0  0  0  0  0  0  0
   -4.3393    7.2704    0.0000 C   0  0  0  0  0  0  0  0  0  0  0  0
   -3.8786    2.9454    0.0000 C   0  0  0  0  0  0  0  0  0  0  0  0
  -10.7696    1.9079    0.0000 C   0  0  0  0  0  0  0  0  0  0  0  0
  -10.7696    1.0829    0.0000 C   0  0  0  0  0  0  0  0  0  0  0  0
   -2.9104    7.2704    0.0000 C   0  0  0  0  0  0  0  0  0  0  0  0
   -2.1959    6.8579    0.0000 C   0  0  0  0  0  0  0  0  0  0  0  0
   -1.4815    7.2704    0.0000 C   0  0  0  0  0  0  0  0  0  0  0  0
  1 21  1  0  0  0  0
  1 25  1  0  0  0  0
  2 22  1  0  0  0  0
  2 24  1  0  0  0  0
  3 23  1  0  0  0  0
  3 26  1  0  0  0  0
  4 21  2  0  0  0  0
  5 23  2  0  0  0  0
  6 24  1  0  0  0  0
  6 28  1  0  0  0  0
  7 24  2  0  0  0  0
  8 27  1  0  0  0  0
  8 31  1  0  0  0  0
  9 29  1  0  0  0  0
  9 32  1  0  0  0  0
 10 18  1  0  0  0  0
 10 31  1  0  0  0  0
 11 30  1  0  0  0  0
 11 34  1  0  0  0  0
 12 19  1  0  0  0  0
 12 33  1  0  0  0  0
 13 18  1  0  0  0  0
 14 18  2  0  0  0  0
 15 19  1  0  0  0  0
 16 19  2  0  0  0  0
 17 20  1  0  0  0  0
 17 23  1  0  0  0  0
 20 21  1  0  0  0  0
 20 22  1  0  0  0  0
 25 27  1  0  0  0  0
 26 29  1  0  0  0  0
 28 30  1  0  0  0  0
 32 33  1  0  0  0  0
 34 35  1  0  0  0  0
 35 36  1  0  0  0  0
M  CHG  4  13  -1  15  -1  18   1  19   1
M  END
> <PUBCHEM_COMPOUND_ID_TYPE>
0

> <PUBCHEM_TOTAL_CHARGE>
0

> <PUBCHEM_SUBSTANCE_ID>
310946636

> <PUBCHEM_SUBSTANCE_VERSION>
1

> <PUBCHEM_EXT_DATASOURCE_NAME>
4488

> <PUBCHEM_EXT_DATASOURCE_REGID>
SCHEMBL16124757

> <PUBCHEM_SUBSTANCE_COMMENT>
InChI=1S/C17H29N3O16/c1-2-3-28-5-10-33-17(23)34-12-14(15(21)31-8-6-30-13-36-20(26)27)18-16(22)32-9-4-29-7-11-35-19(24)25/h14H,2-13H2,1H3,(H,18,22)
InChIKey=YRSDWJBPIKLAFZ-UHFFFAOYSA-N

> <PUBCHEM_SUBSTANCE_SYNONYM>
SCHEMBL16124757

> <PUBCHEM_XREF_EXT_ID>
SCHEMBL16124757

> <PUBCHEM_EXT_DATASOURCE_URL>
https://www.surechembl.org/

> <PUBCHEM_EXT_SUBSTANCE_URL>
https://www.surechembl.org/chemical/SCHEMBL16124757

> <PUBCHEM_CID_ASSOCIATIONS>
117612536  1

> <PUBCHEM_COORDINATE_TYPE>
1
3

$$$$
