310939436
  -OEChem-07211613022D

 20 21  0     1  0  0  0  0  0999 V2000
   -1.2923   -0.0349    0.0000 O   0  0  0  0  0  0  0  0  0  0  0  0
   -1.2923    0.7901    0.0000 C   0  0  0  0  0  0  0  0  0  0  0  0
   -1.2923    2.4401    0.0000 C   0  0  0  0  0  0  0  0  0  0  0  0
   -2.0068   -1.2724    0.0000 C   0  0  0  0  0  0  0  0  0  0  0  0
   -0.5778    1.2026    0.0000 C   0  0  0  0  0  0  0  0  0  0  0  0
   -2.0068    1.2026    0.0000 C   0  0  0  0  0  0  0  0  0  0  0  0
   -0.5778    2.0276    0.0000 C   0  0  0  0  0  0  0  0  0  0  0  0
   -2.0068    2.0276    0.0000 C   0  0  0  0  0  0  0  0  0  0  0  0
   -1.2937    3.2651    0.0000 C   0  0  3  0  0  0  0  0  0  0  0  0
   -2.0068   -0.4474    0.0000 C   0  0  0  0  0  0  0  0  0  0  0  0
   -2.0068   -2.9224    0.0000 C   0  0  0  0  0  0  0  0  0  0  0  0
   -1.2923   -1.6849    0.0000 C   0  0  0  0  0  0  0  0  0  0  0  0
   -2.7212   -1.6849    0.0000 C   0  0  0  0  0  0  0  0  0  0  0  0
   -1.2923   -2.5099    0.0000 C   0  0  0  0  0  0  0  0  0  0  0  0
   -2.7212   -2.5099    0.0000 C   0  0  0  0  0  0  0  0  0  0  0  0
   -2.3703    3.2651    0.0000 C   0  0  0  0  0  0  0  0  0  0  0  0
   -2.0068   -3.7474    0.0000 C   0  0  0  0  0  0  0  0  0  0  0  0
   -0.1205    3.2651    0.0000 C   0  0  0  0  0  0  0  0  0  0  0  0
   -3.1953    3.2651    0.0000 C   0  0  0  0  0  0  0  0  0  0  0  0
   -1.2923   -4.1599    0.0000 C   0  0  0  0  0  0  0  0  0  0  0  0
  1  2  1  0  0  0  0
  1 10  1  0  0  0  0
  2  5  2  0  0  0  0
  2  6  1  0  0  0  0
  3  7  2  0  0  0  0
  3  8  1  0  0  0  0
  3  9  1  0  0  0  0
  4 10  1  0  0  0  0
  4 12  2  0  0  0  0
  4 13  1  0  0  0  0
  5  7  1  0  0  0  0
  6  8  2  0  0  0  0
  9 16  1  0  0  0  0
  9 18  1  0  0  0  0
 11 14  2  0  0  0  0
 11 15  1  0  0  0  0
 11 17  1  0  0  0  0
 12 14  1  0  0  0  0
 13 15  2  0  0  0  0
 16 19  1  0  0  0  0
 17 20  2  0  0  0  0
M  END
> <PUBCHEM_COMPOUND_ID_TYPE>
0

> <PUBCHEM_TOTAL_CHARGE>
0

> <PUBCHEM_SUBSTANCE_ID>
310939436

> <PUBCHEM_SUBSTANCE_VERSION>
1

> <PUBCHEM_EXT_DATASOURCE_NAME>
4488

> <PUBCHEM_EXT_DATASOURCE_REGID>
SCHEMBL16117358

> <PUBCHEM_SUBSTANCE_COMMENT>
InChI=1S/C19H22O/c1-4-15(3)18-10-12-19(13-11-18)20-14-17-8-6-16(5-2)7-9-17/h5-13,15H,2,4,14H2,1,3H3
InChIKey=DDPOXHOUSGJWKE-UHFFFAOYSA-N

> <PUBCHEM_SUBSTANCE_SYNONYM>
SCHEMBL16117358

> <PUBCHEM_XREF_EXT_ID>
SCHEMBL16117358

> <PUBCHEM_EXT_DATASOURCE_URL>
https://www.surechembl.org/

> <PUBCHEM_EXT_SUBSTANCE_URL>
https://www.surechembl.org/chemical/SCHEMBL16117358

> <PUBCHEM_CID_ASSOCIATIONS>
20764900  1

> <PUBCHEM_COORDINATE_TYPE>
1
3

$$$$
