310934691
  -OEChem-07211613022D

 38 43  0     1  0  0  0  0  0999 V2000
    5.7068   -3.6788    0.0000 O   0  0  0  0  0  0  0  0  0  0  0  0
    4.9994   -8.3952    0.0000 O   0  0  0  0  0  0  0  0  0  0  0  0
    0.7074   -3.2543    0.0000 N   0  0  3  0  0  0  0  0  0  0  0  0
    0.0000   -2.0752    0.0000 N   0  0  0  0  0  0  0  0  0  0  0  0
    0.7074   -0.8018    0.0000 N   0  0  0  0  0  0  0  0  0  0  0  0
    4.9522   -2.4525    0.0000 N   0  0  0  0  0  0  0  0  0  0  0  0
    2.8298   -6.1313    0.0000 N   0  0  0  0  0  0  0  0  0  0  0  0
    3.5373   -8.1593    0.0000 N   0  0  0  0  0  0  0  0  0  0  0  0
    1.4149   -2.0752    0.0000 C   0  0  0  0  0  0  0  0  0  0  0  0
    0.7074   -2.4525    0.0000 C   0  0  0  0  0  0  0  0  0  0  0  0
    1.4149   -1.2263    0.0000 C   0  0  0  0  0  0  0  0  0  0  0  0
    2.8298   -2.0280    0.0000 C   0  0  0  0  0  0  0  0  0  0  0  0
    2.0752   -0.8490    0.0000 C   0  0  0  0  0  0  0  0  0  0  0  0
    2.1224   -2.4525    0.0000 C   0  0  0  0  0  0  0  0  0  0  0  0
    1.4149   -4.5277    0.0000 C   0  0  0  0  0  0  0  0  0  0  0  0
    2.7827   -1.2263    0.0000 C   0  0  0  0  0  0  0  0  0  0  0  0
    1.4149   -3.6788    0.0000 C   0  0  0  0  0  0  0  0  0  0  0  0
    0.7074   -4.9050    0.0000 C   0  0  0  0  0  0  0  0  0  0  0  0
    3.5373   -2.4525    0.0000 C   0  0  0  0  0  0  0  0  0  0  0  0
    0.0000   -3.6788    0.0000 C   0  0  0  0  0  0  0  0  0  0  0  0
    0.0000   -1.2263    0.0000 C   0  0  0  0  0  0  0  0  0  0  0  0
    0.0000   -4.4805    0.0000 C   0  0  0  0  0  0  0  0  0  0  0  0
    2.1224   -4.9050    0.0000 C   0  0  0  0  0  0  0  0  0  0  0  0
    2.1224   -5.7068    0.0000 C   0  0  0  0  0  0  0  0  0  0  0  0
    0.7074   -5.7068    0.0000 C   0  0  0  0  0  0  0  0  0  0  0  0
    4.2447   -2.0752    0.0000 C   0  0  0  0  0  0  0  0  0  0  0  0
    3.5373   -3.3015    0.0000 C   0  0  0  0  0  0  0  0  0  0  0  0
    2.0752    0.0000    0.0000 C   0  0  0  0  0  0  0  0  0  0  0  0
    1.4149   -6.1313    0.0000 C   0  0  0  0  0  0  0  0  0  0  0  0
    4.9522   -3.3015    0.0000 C   0  0  0  0  0  0  0  0  0  0  0  0
    4.2447   -3.6788    0.0000 C   0  0  0  0  0  0  0  0  0  0  0  0
    2.8298   -6.9331    0.0000 C   0  0  0  0  0  0  0  0  0  0  0  0
    3.5373   -7.3575    0.0000 C   0  0  0  0  0  0  0  0  0  0  0  0
    4.1976   -8.6310    0.0000 C   0  0  0  0  0  0  0  0  0  0  0  0
    2.8770   -8.6310    0.0000 C   0  0  0  0  0  0  0  0  0  0  0  0
    3.9618   -9.4328    0.0000 C   0  0  0  0  0  0  0  0  0  0  0  0
    3.1128   -9.4328    0.0000 C   0  0  0  0  0  0  0  0  0  0  0  0
    6.3671   -3.3015    0.0000 C   0  0  0  0  0  0  0  0  0  0  0  0
  1 30  1  0  0  0  0
  1 38  1  0  0  0  0
  2 34  2  0  0  0  0
  3 10  1  0  0  0  0
  3 17  1  0  0  0  0
  3 20  1  0  0  0  0
  4 10  1  0  0  0  0
  4 21  2  0  0  0  0
  5 11  2  0  0  0  0
  5 21  1  0  0  0  0
  6 26  1  0  0  0  0
  6 30  2  0  0  0  0
  7 24  1  0  0  0  0
  7 32  1  0  0  0  0
  8 33  1  0  0  0  0
  8 34  1  0  0  0  0
  8 35  1  0  0  0  0
  9 10  2  0  0  0  0
  9 11  1  0  0  0  0
  9 14  1  0  0  0  0
 11 13  1  0  0  0  0
 12 14  2  0  0  0  0
 12 16  1  0  0  0  0
 12 19  1  0  0  0  0
 13 16  2  0  0  0  0
 13 28  1  0  0  0  0
 15 17  1  0  0  0  0
 15 18  2  0  0  0  0
 15 23  1  0  0  0  0
 18 22  1  0  0  0  0
 18 25  1  0  0  0  0
 19 26  2  0  0  0  0
 19 27  1  0  0  0  0
 20 22  1  0  0  0  0
 23 24  2  0  0  0  0
 24 29  1  0  0  0  0
 25 29  2  0  0  0  0
 27 31  2  0  0  0  0
 30 31  1  0  0  0  0
 32 33  1  0  0  0  0
 34 36  1  0  0  0  0
 35 37  1  0  0  0  0
 36 37  1  0  0  0  0
M  END
> <PUBCHEM_COMPOUND_ID_TYPE>
0

> <PUBCHEM_TOTAL_CHARGE>
0

> <PUBCHEM_SUBSTANCE_ID>
310934691

> <PUBCHEM_SUBSTANCE_VERSION>
1

> <PUBCHEM_EXT_DATASOURCE_NAME>
4488

> <PUBCHEM_EXT_DATASOURCE_REGID>
SCHEMBL16112192

> <PUBCHEM_SUBSTANCE_COMMENT>
InChI=1S/C30H32N6O2/c1-20-14-23(22-6-8-27(38-2)32-17-22)16-26-29(20)33-19-34-30(26)36-12-9-21-5-7-25(15-24(21)18-36)31-10-13-35-11-3-4-28(35)37/h5-8,14-17,19,31H,3-4,9-13,18H2,1-2H3
InChIKey=JYRDPDFANMELIL-UHFFFAOYSA-N

> <PUBCHEM_SUBSTANCE_SYNONYM>
SCHEMBL16112192

> <PUBCHEM_XREF_EXT_ID>
SCHEMBL16112192

> <PUBCHEM_EXT_DATASOURCE_URL>
https://www.surechembl.org/

> <PUBCHEM_EXT_SUBSTANCE_URL>
https://www.surechembl.org/chemical/SCHEMBL16112192

> <PUBCHEM_CID_ASSOCIATIONS>
117602853  1

> <PUBCHEM_COORDINATE_TYPE>
1
3

$$$$
