310939651
  -OEChem-07211613022D

 31 33  0     1  0  0  0  0  0999 V2000
   -2.1458    5.4671    0.0000 O   0  0  0  0  0  0  0  0  0  0  0  0
   -3.5747    4.6421    0.0000 O   0  0  0  0  0  0  0  0  0  0  0  0
    0.7120    4.6421    0.0000 N   0  0  0  0  0  0  0  0  0  0  0  0
    1.4265    5.8795    0.0000 N   0  0  0  0  0  0  0  0  0  0  0  0
    2.8554    5.8795    0.0000 N   0  0  0  0  0  0  0  0  0  0  0  0
    2.1410    2.1672    0.0000 N   0  0  0  0  0  0  0  0  0  0  0  0
    0.7120    2.1672    0.0000 N   0  0  0  0  0  0  0  0  0  0  0  0
   -5.0036    5.4671    0.0000 N   0  0  0  0  0  0  0  0  0  0  0  0
    0.7120    5.4671    0.0000 C   0  0  0  0  0  0  0  0  0  0  0  0
    1.4265    4.2296    0.0000 C   0  0  0  0  0  0  0  0  0  0  0  0
    2.1410    5.4671    0.0000 C   0  0  0  0  0  0  0  0  0  0  0  0
   -0.0024    5.8795    0.0000 C   0  0  0  0  0  0  0  0  0  0  0  0
    2.1410    4.6421    0.0000 C   0  0  0  0  0  0  0  0  0  0  0  0
    1.4265    3.4046    0.0000 C   0  0  0  0  0  0  0  0  0  0  0  0
   -0.7169    5.4671    0.0000 C   0  0  0  0  0  0  0  0  0  0  0  0
   -0.0024    6.7046    0.0000 C   0  0  0  0  0  0  0  0  0  0  0  0
   -1.4313    5.8795    0.0000 C   0  0  0  0  0  0  0  0  0  0  0  0
    2.1410    2.9922    0.0000 C   0  0  0  0  0  0  0  0  0  0  0  0
    0.7120    2.9922    0.0000 C   0  0  0  0  0  0  0  0  0  0  0  0
   -0.7169    7.1170    0.0000 C   0  0  0  0  0  0  0  0  0  0  0  0
   -1.4313    6.7046    0.0000 C   0  0  0  0  0  0  0  0  0  0  0  0
    3.5699    5.4671    0.0000 C   0  0  0  0  0  0  0  0  0  0  0  0
    2.8554    6.7046    0.0000 C   0  0  0  0  0  0  0  0  0  0  0  0
    1.4265    1.7546    0.0000 C   0  0  0  0  0  0  0  0  0  0  0  0
   -2.8603    5.8795    0.0000 C   0  0  0  0  0  0  0  0  0  0  0  0
    4.2844    5.8795    0.0000 C   0  0  0  0  0  0  0  0  0  0  0  0
   -3.5747    5.4671    0.0000 C   0  0  3  0  0  0  0  0  0  0  0  0
    4.9988    5.4671    0.0000 C   0  0  0  0  0  0  0  0  0  0  0  0
   -4.2892    5.8795    0.0000 C   0  0  0  0  0  0  0  0  0  0  0  0
    5.7133    5.0545    0.0000 C   0  0  0  0  0  0  0  0  0  0  0  0
   -5.7181    5.8795    0.0000 C   0  0  0  0  0  0  0  0  0  0  0  0
  1 17  1  0  0  0  0
  1 25  1  0  0  0  0
  2 27  1  0  0  0  0
  3  9  2  0  0  0  0
  3 10  1  0  0  0  0
  4  9  1  0  0  0  0
  4 11  2  0  0  0  0
  5 11  1  0  0  0  0
  5 22  1  0  0  0  0
  5 23  1  0  0  0  0
  6 18  2  0  0  0  0
  6 24  1  0  0  0  0
  7 19  1  0  0  0  0
  7 24  2  0  0  0  0
  8 29  1  0  0  0  0
  8 31  1  0  0  0  0
  9 12  1  0  0  0  0
 10 13  2  0  0  0  0
 10 14  1  0  0  0  0
 11 13  1  0  0  0  0
 12 15  2  0  0  0  0
 12 16  1  0  0  0  0
 14 18  1  0  0  0  0
 14 19  2  0  0  0  0
 15 17  1  0  0  0  0
 16 20  2  0  0  0  0
 17 21  2  0  0  0  0
 20 21  1  0  0  0  0
 22 26  1  0  0  0  0
 25 27  1  0  0  0  0
 26 28  1  0  0  0  0
 27 29  1  0  0  0  0
 28 30  3  0  0  0  0
M  END
> <PUBCHEM_COMPOUND_ID_TYPE>
0

> <PUBCHEM_TOTAL_CHARGE>
0

> <PUBCHEM_SUBSTANCE_ID>
310939651

> <PUBCHEM_SUBSTANCE_VERSION>
1

> <PUBCHEM_EXT_DATASOURCE_NAME>
4488

> <PUBCHEM_EXT_DATASOURCE_REGID>
SCHEMBL16117581

> <PUBCHEM_SUBSTANCE_COMMENT>
InChI=1S/C23H26N6O2/c1-4-5-9-29(3)22-11-21(18-12-25-16-26-13-18)27-23(28-22)17-7-6-8-20(10-17)31-15-19(30)14-24-2/h1,6-8,10-13,16,19,24,30H,5,9,14-15H2,2-3H3
InChIKey=ZNWSAOWILNLWQX-UHFFFAOYSA-N

> <PUBCHEM_SUBSTANCE_SYNONYM>
SCHEMBL16117581

> <PUBCHEM_XREF_EXT_ID>
SCHEMBL16117581

> <PUBCHEM_EXT_DATASOURCE_URL>
https://www.surechembl.org/

> <PUBCHEM_EXT_SUBSTANCE_URL>
https://www.surechembl.org/chemical/SCHEMBL16117581

> <PUBCHEM_CID_ASSOCIATIONS>
117606886  1

> <PUBCHEM_COORDINATE_TYPE>
1
3

$$$$
