310943465
  -OEChem-07211613022D

 22 23  0     1  0  0  0  0  0999 V2000
   -0.0070   -1.7429    0.0000 N   0  0  0  0  0  0  0  0  0  0  0  0
    0.8222   -1.9116    0.0000 N   0  0  0  0  0  0  0  0  0  0  0  0
   -2.2841    0.2811    0.0000 N   0  0  0  0  0  0  0  0  0  0  0  0
    1.6516    0.4358    0.0000 N   0  0  3  0  0  0  0  0  0  0  0  0
    3.7458   -0.2952    0.0000 N   0  0  0  0  0  0  0  0  0  0  0  0
   -0.0773   -0.9277    0.0000 C   0  0  0  0  0  0  0  0  0  0  0  0
    0.6676   -0.6044    0.0000 C   0  0  0  0  0  0  0  0  0  0  0  0
   -0.8222   -0.5201    0.0000 C   0  0  0  0  0  0  0  0  0  0  0  0
    1.2440   -1.1947    0.0000 C   0  0  0  0  0  0  0  0  0  0  0  0
   -1.5532   -0.9277    0.0000 C   0  0  0  0  0  0  0  0  0  0  0  0
   -0.8082    0.2811    0.0000 C   0  0  0  0  0  0  0  0  0  0  0  0
    0.8644    0.1967    0.0000 C   0  0  0  0  0  0  0  0  0  0  0  0
   -2.2841   -0.5201    0.0000 C   0  0  0  0  0  0  0  0  0  0  0  0
   -1.5672    0.6888    0.0000 C   0  0  0  0  0  0  0  0  0  0  0  0
   -3.0009    0.6888    0.0000 C   0  0  0  0  0  0  0  0  0  0  0  0
    2.3403   -0.0562    0.0000 C   0  0  0  0  0  0  0  0  0  0  0  0
   -3.0009    1.5040    0.0000 C   0  0  0  0  0  0  0  0  0  0  0  0
    1.7780    1.2510    0.0000 C   0  0  0  0  0  0  0  0  0  0  0  0
    3.0993    0.2249    0.0000 C   0  0  0  0  0  0  0  0  0  0  0  0
   -3.7458    1.8835    0.0000 C   0  0  0  0  0  0  0  0  0  0  0  0
   -2.2560    1.9116    0.0000 C   0  0  0  0  0  0  0  0  0  0  0  0
    3.6334   -1.1104    0.0000 C   0  0  0  0  0  0  0  0  0  0  0  0
  1  2  1  0  0  0  0
  1  6  2  0  0  0  0
  2  9  1  0  0  0  0
  3 13  1  0  0  0  0
  3 14  1  0  0  0  0
  3 15  1  0  0  0  0
  4 12  1  0  0  0  0
  4 16  1  0  0  0  0
  4 18  1  0  0  0  0
  5 19  1  0  0  0  0
  5 22  1  0  0  0  0
  6  7  1  0  0  0  0
  6  8  1  0  0  0  0
  7  9  2  0  0  0  0
  7 12  1  0  0  0  0
  8 10  1  0  0  0  0
  8 11  1  0  0  0  0
 10 13  1  0  0  0  0
 11 14  1  0  0  0  0
 15 17  1  0  0  0  0
 16 19  1  0  0  0  0
 17 20  1  0  0  0  0
 17 21  1  0  0  0  0
M  END
> <PUBCHEM_COMPOUND_ID_TYPE>
0

> <PUBCHEM_TOTAL_CHARGE>
0

> <PUBCHEM_SUBSTANCE_ID>
310943465

> <PUBCHEM_SUBSTANCE_VERSION>
1

> <PUBCHEM_EXT_DATASOURCE_NAME>
4488

> <PUBCHEM_EXT_DATASOURCE_REGID>
SCHEMBL16121530

> <PUBCHEM_SUBSTANCE_COMMENT>
InChI=1S/C17H33N5/c1-14(2)12-22-8-5-15(6-9-22)17-16(11-19-20-17)13-21(4)10-7-18-3/h11,14-15,18H,5-10,12-13H2,1-4H3,(H,19,20)
InChIKey=VUYYCQVNHPLBLY-UHFFFAOYSA-N

> <PUBCHEM_SUBSTANCE_SYNONYM>
SCHEMBL16121530

> <PUBCHEM_XREF_EXT_ID>
SCHEMBL16121530

> <PUBCHEM_EXT_DATASOURCE_URL>
https://www.surechembl.org/

> <PUBCHEM_EXT_SUBSTANCE_URL>
https://www.surechembl.org/chemical/SCHEMBL16121530

> <PUBCHEM_CID_ASSOCIATIONS>
86301533  1

> <PUBCHEM_COORDINATE_TYPE>
1
3

$$$$
