310935487
  -OEChem-07211613022D

 29 33  0     1  0  0  0  0  0999 V2000
    5.7419   -5.1809    0.0000 S   0  0  0  0  0  0  0  0  0  0  0  0
    1.3860   -0.3960    0.0000 O   0  0  0  0  0  0  0  0  0  0  0  0
    3.5310   -4.9499    0.0000 N   0  0  3  0  0  0  0  0  0  0  0  0
    2.8380   -6.1709    0.0000 N   0  0  0  0  0  0  0  0  0  0  0  0
    1.4190   -6.1709    0.0000 N   0  0  0  0  0  0  0  0  0  0  0  0
    5.7419   -3.8610    0.0000 N   0  0  0  0  0  0  0  0  0  0  0  0
    0.6930   -1.6500    0.0000 N   0  0  0  0  0  0  0  0  0  0  0  0
    7.0619   -4.5210    0.0000 N   0  0  0  0  0  0  0  0  0  0  0  0
    2.1120   -4.9499    0.0000 C   0  0  0  0  0  0  0  0  0  0  0  0
    2.8380   -5.3459    0.0000 C   0  0  0  0  0  0  0  0  0  0  0  0
    1.4190   -5.3459    0.0000 C   0  0  0  0  0  0  0  0  0  0  0  0
    4.9499   -4.9499    0.0000 C   0  0  0  0  0  0  0  0  0  0  0  0
    1.4190   -3.7290    0.0000 C   0  0  0  0  0  0  0  0  0  0  0  0
    2.1120   -4.1249    0.0000 C   0  0  0  0  0  0  0  0  0  0  0  0
    4.9499   -4.0919    0.0000 C   0  0  0  0  0  0  0  0  0  0  0  0
    0.6930   -4.9830    0.0000 C   0  0  0  0  0  0  0  0  0  0  0  0
    4.2239   -5.3459    0.0000 C   0  0  0  0  0  0  0  0  0  0  0  0
    3.5310   -4.0919    0.0000 C   0  0  0  0  0  0  0  0  0  0  0  0
    0.6930   -4.1249    0.0000 C   0  0  0  0  0  0  0  0  0  0  0  0
    1.4190   -2.9040    0.0000 C   0  0  0  0  0  0  0  0  0  0  0  0
    4.2239   -3.6960    0.0000 C   0  0  0  0  0  0  0  0  0  0  0  0
    6.2369   -4.5210    0.0000 C   0  0  0  0  0  0  0  0  0  0  0  0
    2.1449   -6.5999    0.0000 C   0  0  0  0  0  0  0  0  0  0  0  0
    0.6930   -2.4749    0.0000 C   0  0  0  0  0  0  0  0  0  0  0  0
    2.1120   -2.4749    0.0000 C   0  0  0  0  0  0  0  0  0  0  0  0
    0.0000   -5.3789    0.0000 C   0  0  0  0  0  0  0  0  0  0  0  0
    1.3860   -1.2210    0.0000 C   0  0  0  0  0  0  0  0  0  0  0  0
    2.1120   -1.6500    0.0000 C   0  0  0  0  0  0  0  0  0  0  0  0
    0.6600    0.0000    0.0000 C   0  0  0  0  0  0  0  0  0  0  0  0
  1 12  1  0  0  0  0
  1 22  1  0  0  0  0
  2 27  1  0  0  0  0
  2 29  1  0  0  0  0
  3 10  1  0  0  0  0
  3 17  1  0  0  0  0
  3 18  1  0  0  0  0
  4 10  1  0  0  0  0
  4 23  2  0  0  0  0
  5 11  2  0  0  0  0
  5 23  1  0  0  0  0
  6 15  1  0  0  0  0
  6 22  2  0  0  0  0
  7 24  1  0  0  0  0
  7 27  2  0  0  0  0
  8 22  1  0  0  0  0
  9 10  2  0  0  0  0
  9 11  1  0  0  0  0
  9 14  1  0  0  0  0
 11 16  1  0  0  0  0
 12 15  2  0  0  0  0
 12 17  1  0  0  0  0
 13 14  2  0  0  0  0
 13 19  1  0  0  0  0
 13 20  1  0  0  0  0
 15 21  1  0  0  0  0
 16 19  2  0  0  0  0
 16 26  1  0  0  0  0
 18 21  1  0  0  0  0
 20 24  2  0  0  0  0
 20 25  1  0  0  0  0
 25 28  2  0  0  0  0
 27 28  1  0  0  0  0
M  END
> <PUBCHEM_COMPOUND_ID_TYPE>
0

> <PUBCHEM_TOTAL_CHARGE>
0

> <PUBCHEM_SUBSTANCE_ID>
310935487

> <PUBCHEM_SUBSTANCE_VERSION>
1

> <PUBCHEM_EXT_DATASOURCE_NAME>
4488

> <PUBCHEM_EXT_DATASOURCE_REGID>
SCHEMBL16113051

> <PUBCHEM_SUBSTANCE_COMMENT>
InChI=1S/C21H20N6OS/c1-12-7-14(13-3-4-18(28-2)23-9-13)8-15-19(12)24-11-25-20(15)27-6-5-16-17(10-27)29-21(22)26-16/h3-4,7-9,11H,5-6,10H2,1-2H3,(H2,22,26)
InChIKey=VSVPERUZBPQABC-UHFFFAOYSA-N

> <PUBCHEM_SUBSTANCE_SYNONYM>
SCHEMBL16113051

> <PUBCHEM_XREF_EXT_ID>
SCHEMBL16113051

> <PUBCHEM_EXT_DATASOURCE_URL>
https://www.surechembl.org/

> <PUBCHEM_EXT_SUBSTANCE_URL>
https://www.surechembl.org/chemical/SCHEMBL16113051

> <PUBCHEM_CID_ASSOCIATIONS>
117603520  1

> <PUBCHEM_COORDINATE_TYPE>
1
3

$$$$
