310941098
  -OEChem-07211613022D

 44 47  0     1  0  0  0  0  0999 V2000
    0.3647    1.2731    0.0000 F   0  0  0  0  0  0  0  0  0  0  0  0
    5.0582    0.6675    0.0000 O   0  0  0  0  0  0  0  0  0  0  0  0
    3.9295   -1.2731    0.0000 O   0  0  0  0  0  0  0  0  0  0  0  0
    1.7824    0.7776    0.0000 O   0  0  0  0  0  0  0  0  0  0  0  0
    0.3372    2.9110    0.0000 O   0  0  0  0  0  0  0  0  0  0  0  0
   -0.3509   -1.2869    0.0000 O   0  0  0  0  0  0  0  0  0  0  0  0
    3.9432   -2.9248    0.0000 O   0  0  0  0  0  0  0  0  0  0  0  0
   -2.4981    0.7639    0.0000 O   0  0  0  0  0  0  0  0  0  0  0  0
   -5.3471    0.7501    0.0000 O   0  0  0  0  0  0  0  0  0  0  0  0
    2.4981   -0.4473    0.0000 N   0  0  0  0  0  0  0  0  0  0  0  0
    0.3509   -0.0481    0.0000 N   0  0  0  0  0  0  0  0  0  0  0  0
   -1.7962   -0.4611    0.0000 N   0  0  0  0  0  0  0  0  0  0  0  0
   -3.9295   -0.0619    0.0000 N   0  0  0  0  0  0  0  0  0  0  0  0
    4.6315   -0.0206    0.0000 C   0  0  3  0  0  0  0  0  0  0  0  0
    3.9295   -0.4198    0.0000 C   0  0  0  0  0  0  0  0  0  0  0  0
    4.2460    0.6675    0.0000 C   0  0  0  0  0  0  0  0  0  0  0  0
    3.2001   -0.0344    0.0000 C   0  0  3  0  0  0  0  0  0  0  0  0
    5.3609   -0.4611    0.0000 C   0  0  0  0  0  0  0  0  0  0  0  0
    3.2138    1.2869    0.0000 C   0  0  0  0  0  0  0  0  0  0  0  0
    1.7686   -0.0481    0.0000 C   0  0  0  0  0  0  0  0  0  0  0  0
    2.4843    1.7136    0.0000 C   0  0  0  0  0  0  0  0  0  0  0  0
    1.0667   -0.4473    0.0000 C   0  0  3  0  0  0  0  0  0  0  0  0
    1.7824    1.2869    0.0000 C   0  0  0  0  0  0  0  0  0  0  0  0
    2.4843    2.5256    0.0000 C   0  0  0  0  0  0  0  0  0  0  0  0
    1.0667   -1.2594    0.0000 C   0  0  0  0  0  0  0  0  0  0  0  0
    1.0529    1.6998    0.0000 C   0  0  0  0  0  0  0  0  0  0  0  0
    1.0667    2.5256    0.0000 C   0  0  0  0  0  0  0  0  0  0  0  0
    1.7824   -1.6861    0.0000 C   0  0  0  0  0  0  0  0  0  0  0  0
   -0.3509   -0.4336    0.0000 C   0  0  0  0  0  0  0  0  0  0  0  0
    1.7548    2.9248    0.0000 C   0  0  0  0  0  0  0  0  0  0  0  0
   -1.0804   -0.0481    0.0000 C   0  0  3  0  0  0  0  0  0  0  0  0
    2.4843   -1.2869    0.0000 C   0  0  0  0  0  0  0  0  0  0  0  0
    1.7962   -2.5118    0.0000 C   0  0  0  0  0  0  0  0  0  0  0  0
    3.2138   -2.4981    0.0000 C   0  0  0  0  0  0  0  0  0  0  0  0
    3.2001   -1.6861    0.0000 C   0  0  0  0  0  0  0  0  0  0  0  0
    2.4981   -2.9110    0.0000 C   0  0  0  0  0  0  0  0  0  0  0  0
   -2.5256   -0.0619    0.0000 C   0  0  0  0  0  0  0  0  0  0  0  0
   -1.0804    0.7914    0.0000 C   0  0  0  0  0  0  0  0  0  0  0  0
   -3.2138   -0.4611    0.0000 C   0  0  0  0  0  0  0  0  0  0  0  0
   -3.9295    0.7639    0.0000 C   0  0  0  0  0  0  0  0  0  0  0  0
   -4.6315   -0.4748    0.0000 C   0  0  0  0  0  0  0  0  0  0  0  0
   -4.6590    1.1630    0.0000 C   0  0  0  0  0  0  0  0  0  0  0  0
   -5.3609   -0.0619    0.0000 C   0  0  0  0  0  0  0  0  0  0  0  0
    4.6590   -2.4981    0.0000 C   0  0  0  0  0  0  0  0  0  0  0  0
  1 26  1  0  0  0  0
  2 14  1  0  0  0  0
  2 16  1  0  0  0  0
  3 15  2  0  0  0  0
  4 20  2  0  0  0  0
  5 27  1  0  0  0  0
  6 29  2  0  0  0  0
  7 34  1  0  0  0  0
  7 44  1  0  0  0  0
  8 37  2  0  0  0  0
  9 42  1  0  0  0  0
  9 43  1  0  0  0  0
 10 17  1  0  0  0  0
 10 20  1  0  0  0  0
 11 22  1  0  0  0  0
 11 29  1  0  0  0  0
 12 31  1  0  0  0  0
 12 37  1  0  0  0  0
 13 39  1  0  0  0  0
 13 40  1  0  0  0  0
 13 41  1  0  0  0  0
 14 15  1  0  0  0  0
 14 16  1  0  0  0  0
 14 18  1  0  0  0  0
 15 17  1  0  0  0  0
 17 19  1  0  0  0  0
 19 21  1  0  0  0  0
 20 22  1  0  0  0  0
 21 23  1  0  0  0  0
 21 24  2  0  0  0  0
 22 25  1  0  0  0  0
 23 26  2  0  0  0  0
 24 30  1  0  0  0  0
 25 28  1  0  0  0  0
 26 27  1  0  0  0  0
 27 30  2  0  0  0  0
 28 32  2  0  0  0  0
 28 33  1  0  0  0  0
 29 31  1  0  0  0  0
 31 38  1  0  0  0  0
 32 35  1  0  0  0  0
 33 36  2  0  0  0  0
 34 35  2  0  0  0  0
 34 36  1  0  0  0  0
 37 39  1  0  0  0  0
 40 42  1  0  0  0  0
 41 43  1  0  0  0  0
M  END
> <PUBCHEM_COMPOUND_ID_TYPE>
0

> <PUBCHEM_TOTAL_CHARGE>
0

> <PUBCHEM_SUBSTANCE_ID>
310941098

> <PUBCHEM_SUBSTANCE_VERSION>
1

> <PUBCHEM_EXT_DATASOURCE_NAME>
4488

> <PUBCHEM_EXT_DATASOURCE_REGID>
SCHEMBL16119058

> <PUBCHEM_SUBSTANCE_COMMENT>
InChI=1S/C31H39FN4O8/c1-19(33-27(38)17-36-10-12-43-13-11-36)29(40)35-25(15-20-4-7-22(42-3)8-5-20)30(41)34-24(28(39)31(2)18-44-31)16-21-6-9-26(37)23(32)14-21/h4-9,14,19,24-25,37H,10-13,15-18H2,1-3H3,(H,33,38)(H,34,41)(H,35,40)
InChIKey=RKJQKVCVCUWBBU-UHFFFAOYSA-N

> <PUBCHEM_SUBSTANCE_SYNONYM>
SCHEMBL16119058

> <PUBCHEM_XREF_EXT_ID>
SCHEMBL16119058

> <PUBCHEM_EXT_DATASOURCE_URL>
https://www.surechembl.org/

> <PUBCHEM_EXT_SUBSTANCE_URL>
https://www.surechembl.org/chemical/SCHEMBL16119058

> <PUBCHEM_CID_ASSOCIATIONS>
117607983  1

> <PUBCHEM_COORDINATE_TYPE>
1
3

$$$$
