310942121
  -OEChem-07211613022D

 27 30  0     1  0  0  0  0  0999 V2000
    0.2444   -0.1604    0.0000 O   0  0  0  0  0  0  0  0  0  0  0  0
   -3.3301    1.1075    0.0000 O   0  0  0  0  0  0  0  0  0  0  0  0
   -2.6122   -0.1451    0.0000 O   0  0  0  0  0  0  0  0  0  0  0  0
   -1.1610    2.3295    0.0000 N   0  0  0  0  0  0  0  0  0  0  0  0
   -1.1762   -0.1451    0.0000 N   0  0  0  0  0  0  0  0  0  0  0  0
   -0.4430    1.1228    0.0000 C   0  0  0  0  0  0  0  0  0  0  0  0
    0.2597    0.7103    0.0000 C   0  0  0  0  0  0  0  0  0  0  0  0
   -1.1762    0.7103    0.0000 C   0  0  0  0  0  0  0  0  0  0  0  0
   -0.4277    1.9477    0.0000 C   0  0  0  0  0  0  0  0  0  0  0  0
    1.2221   -0.7562    0.0000 C   0  0  0  0  0  0  0  0  0  0  0  0
   -1.8942    1.1380    0.0000 C   0  0  0  0  0  0  0  0  0  0  0  0
   -1.8637    1.9630    0.0000 C   0  0  0  0  0  0  0  0  0  0  0  0
    1.2221   -1.5352    0.0000 C   0  0  0  0  0  0  0  0  0  0  0  0
    1.8942   -0.3284    0.0000 C   0  0  0  0  0  0  0  0  0  0  0  0
    0.9776    1.1228    0.0000 C   0  0  0  0  0  0  0  0  0  0  0  0
    0.2749    2.3295    0.0000 C   0  0  0  0  0  0  0  0  0  0  0  0
    1.8789   -1.9324    0.0000 C   0  0  3  0  0  0  0  0  0  0  0  0
    2.5816   -0.7103    0.0000 C   0  0  3  0  0  0  0  0  0  0  0  0
   -2.5969    0.7103    0.0000 C   0  0  0  0  0  0  0  0  0  0  0  0
    0.9776    1.9324    0.0000 C   0  0  0  0  0  0  0  0  0  0  0  0
    1.8942   -1.1228    0.0000 C   0  0  0  0  0  0  0  0  0  0  0  0
    1.7873   -1.3824    0.0000 C   0  0  0  0  0  0  0  0  0  0  0  0
    2.5969   -2.3448    0.0000 C   0  0  0  0  0  0  0  0  0  0  0  0
    3.3301   -1.1228    0.0000 C   0  0  0  0  0  0  0  0  0  0  0  0
    3.2843   -1.9477    0.0000 C   0  0  0  0  0  0  0  0  0  0  0  0
   -2.6122    2.3448    0.0000 C   0  0  0  0  0  0  0  0  0  0  0  0
    2.0623   -1.6880    0.0000 C   0  0  0  0  0  0  0  0  0  0  0  0
  1  7  1  0  0  0  0
  1 10  1  0  0  0  0
  2 19  2  0  0  0  0
  3 19  1  0  0  0  0
  4  9  1  0  0  0  0
  4 12  2  0  0  0  0
  5  8  1  0  0  0  0
  6  7  2  0  0  0  0
  6  8  1  0  0  0  0
  6  9  1  0  0  0  0
  7 15  1  0  0  0  0
  8 11  2  0  0  0  0
  9 16  2  0  0  0  0
 10 13  1  0  0  0  0
 10 14  1  0  0  0  0
 10 22  1  0  0  0  0
 11 12  1  0  0  0  0
 11 19  1  0  0  0  0
 12 26  1  0  0  0  0
 13 17  1  0  0  0  0
 14 18  1  0  0  0  0
 15 20  2  0  0  0  0
 16 20  1  0  0  0  0
 17 21  1  0  0  0  0
 17 23  1  0  0  0  0
 18 21  1  0  0  0  0
 18 24  1  0  0  0  0
 23 25  1  0  0  0  0
 24 25  1  0  0  0  0
 25 27  1  0  0  0  0
M  END
> <PUBCHEM_COMPOUND_ID_TYPE>
0

> <PUBCHEM_TOTAL_CHARGE>
0

> <PUBCHEM_SUBSTANCE_ID>
310942121

> <PUBCHEM_SUBSTANCE_VERSION>
1

> <PUBCHEM_EXT_DATASOURCE_NAME>
4488

> <PUBCHEM_EXT_DATASOURCE_REGID>
SCHEMBL16120156

> <PUBCHEM_SUBSTANCE_COMMENT>
InChI=1S/C22H28N2O3/c1-12-7-14-9-15(8-12)11-22(3,10-14)27-17-6-4-5-16-19(17)20(23)18(21(25)26)13(2)24-16/h4-6,12,14-15H,7-11H2,1-3H3,(H2,23,24)(H,25,26)
InChIKey=KJEIZUJSCWMOCP-UHFFFAOYSA-N

> <PUBCHEM_SUBSTANCE_SYNONYM>
SCHEMBL16120156

> <PUBCHEM_XREF_EXT_ID>
SCHEMBL16120156

> <PUBCHEM_EXT_DATASOURCE_URL>
https://www.surechembl.org/

> <PUBCHEM_EXT_SUBSTANCE_URL>
https://www.surechembl.org/chemical/SCHEMBL16120156

> <PUBCHEM_CID_ASSOCIATIONS>
117608781  1

> <PUBCHEM_COORDINATE_TYPE>
1
3

$$$$
