310936301
  -OEChem-07211613022D

 29 30  0     1  0  0  0  0  0999 V2000
    1.8386    0.0000    0.0000 F   0  0  0  0  0  0  0  0  0  0  0  0
    0.5986   -0.7269    0.0000 F   0  0  0  0  0  0  0  0  0  0  0  0
    2.2449   -0.7269    0.0000 F   0  0  0  0  0  0  0  0  0  0  0  0
    2.1380   -2.7793    0.0000 O   0  0  0  0  0  0  0  0  0  0  0  0
    3.5704   -2.7793    0.0000 O   0  0  0  0  0  0  0  0  0  0  0  0
    1.4324   -4.0194    0.0000 O   0  0  0  0  0  0  0  0  0  0  0  0
    0.0000   -3.1855    0.0000 O   0  0  0  0  0  0  0  0  0  0  0  0
    4.2759   -4.0194    0.0000 O   0  0  0  0  0  0  0  0  0  0  0  0
    2.1380   -1.9669    0.0000 C   0  0  3  0  0  0  0  0  0  0  0  0
    1.4324   -3.1855    0.0000 C   0  0  0  0  0  0  0  0  0  0  0  0
    0.7269   -2.7793    0.0000 C   0  0  0  0  0  0  0  0  0  0  0  0
    0.7269   -1.9456    0.0000 C   0  0  0  0  0  0  0  0  0  0  0  0
    1.4324   -1.5393    0.0000 C   0  0  0  0  0  0  0  0  0  0  0  0
    1.4324   -0.7269    0.0000 C   0  0  0  0  0  0  0  0  0  0  0  0
    2.8435   -1.5393    0.0000 C   0  0  0  0  0  0  0  0  0  0  0  0
    3.5704   -1.9669    0.0000 C   0  0  3  0  0  0  0  0  0  0  0  0
    4.2759   -3.1855    0.0000 C   0  0  0  0  0  0  0  0  0  0  0  0
    5.0028   -2.7793    0.0000 C   0  0  0  0  0  0  0  0  0  0  0  0
    0.0214   -1.5180    0.0000 C   0  0  0  0  0  0  0  0  0  0  0  0
    1.6035   -1.7104    0.0000 C   0  0  0  0  0  0  0  0  0  0  0  0
    5.7084   -3.1855    0.0000 C   0  0  0  0  0  0  0  0  0  0  0  0
    5.0028   -1.9669    0.0000 C   0  0  0  0  0  0  0  0  0  0  0  0
    0.0214   -0.7055    0.0000 C   0  0  0  0  0  0  0  0  0  0  0  0
    1.6248   -0.8979    0.0000 C   0  0  0  0  0  0  0  0  0  0  0  0
    4.2759   -1.5393    0.0000 C   0  0  0  0  0  0  0  0  0  0  0  0
    0.7483   -0.2993    0.0000 C   0  0  0  0  0  0  0  0  0  0  0  0
    6.4138   -2.7793    0.0000 C   0  0  0  0  0  0  0  0  0  0  0  0
    5.7084   -1.5393    0.0000 C   0  0  0  0  0  0  0  0  0  0  0  0
    6.4138   -1.9669    0.0000 C   0  0  0  0  0  0  0  0  0  0  0  0
  1 14  1  0  0  0  0
  2 14  1  0  0  0  0
  3 14  1  0  0  0  0
  4  9  1  0  0  0  0
  4 10  1  0  0  0  0
  5 16  1  0  0  0  0
  5 17  1  0  0  0  0
  6 10  2  0  0  0  0
  7 11  2  0  0  0  0
  8 17  2  0  0  0  0
  9 13  1  0  0  0  0
  9 15  1  0  0  0  0
 10 11  1  0  0  0  0
 11 12  1  0  0  0  0
 12 19  2  0  0  0  0
 12 20  1  0  0  0  0
 13 14  1  0  0  0  0
 15 16  1  0  0  0  0
 16 25  1  0  0  0  0
 17 18  1  0  0  0  0
 18 21  2  0  0  0  0
 18 22  1  0  0  0  0
 19 23  1  0  0  0  0
 20 24  2  0  0  0  0
 21 27  1  0  0  0  0
 22 28  2  0  0  0  0
 23 26  2  0  0  0  0
 24 26  1  0  0  0  0
 27 29  2  0  0  0  0
 28 29  1  0  0  0  0
M  END
> <PUBCHEM_COMPOUND_ID_TYPE>
0

> <PUBCHEM_TOTAL_CHARGE>
0

> <PUBCHEM_SUBSTANCE_ID>
310936301

> <PUBCHEM_SUBSTANCE_VERSION>
1

> <PUBCHEM_EXT_DATASOURCE_NAME>
4488

> <PUBCHEM_EXT_DATASOURCE_REGID>
SCHEMBL16113927

> <PUBCHEM_SUBSTANCE_COMMENT>
InChI=1S/C21H19F3O5/c1-14(28-19(26)16-10-6-3-7-11-16)12-17(13-21(22,23)24)29-20(27)18(25)15-8-4-2-5-9-15/h2-11,14,17H,12-13H2,1H3
InChIKey=DJELBRYOTLBDSU-UHFFFAOYSA-N

> <PUBCHEM_SUBSTANCE_SYNONYM>
SCHEMBL16113927

> <PUBCHEM_XREF_EXT_ID>
SCHEMBL16113927

> <PUBCHEM_EXT_DATASOURCE_URL>
https://www.surechembl.org/

> <PUBCHEM_EXT_SUBSTANCE_URL>
https://www.surechembl.org/chemical/SCHEMBL16113927

> <PUBCHEM_CID_ASSOCIATIONS>
117604244  1

> <PUBCHEM_COORDINATE_TYPE>
1
3

$$$$
