310939437
  -OEChem-07211613022D

 35 35  0     1  0  0  0  0  0999 V2000
    6.7214   -2.7923    0.0000 Cl  0  0  0  0  0  0  0  0  0  0  0  0
    2.1581   -1.9673    0.0000 P   0  0  3  0  0  0  0  0  0  0  0  0
   -2.5599   -1.9673    0.0000 P   0  0  3  0  0  0  0  0  0  0  0  0
    6.7214   -1.9673    0.0000 P   0  0  3  0  0  0  0  0  0  0  0  0
    1.4436   -4.0298    0.0000 P   0  0  0  0  0  0  0  0  0  0  0  0
    2.9058   -1.9673    0.0000 O   0  0  0  0  0  0  0  0  0  0  0  0
    2.1581   -2.7923    0.0000 O   0  0  0  0  0  0  0  0  0  0  0  0
   -1.7349   -1.9673    0.0000 O   0  0  0  0  0  0  0  0  0  0  0  0
    0.7401   -1.9673    0.0000 O   0  0  0  0  0  0  0  0  0  0  0  0
    2.1581   -1.1423    0.0000 O   0  0  0  0  0  0  0  0  0  0  0  0
    7.3401   -1.9673    0.0000 O   0  0  0  0  0  0  0  0  0  0  0  0
    5.4581   -1.9673    0.0000 O   0  0  0  0  0  0  0  0  0  0  0  0
   -2.5599   -1.1423    0.0000 O   0  0  0  0  0  0  0  0  0  0  0  0
    6.7214   -1.1423    0.0000 O   0  0  0  0  0  0  0  0  0  0  0  0
   10.0214   -1.9673    0.0000 O   0  0  0  0  0  0  0  0  0  0  0  0
   -2.5599   -2.7923    0.0000 N   0  0  0  0  0  0  0  0  0  0  0  0
    1.3331   -1.9673    0.0000 C   0  0  0  0  0  0  0  0  0  0  0  0
    3.5503   -1.9673    0.0000 C   0  0  3  0  0  0  0  0  0  0  0  0
   -3.2743   -3.2048    0.0000 C   0  0  0  0  0  0  0  0  0  0  0  0
   -1.0774   -1.9673    0.0000 C   0  0  3  0  0  0  0  0  0  0  0  0
    1.4436   -3.2048    0.0000 C   0  0  0  0  0  0  0  0  0  0  0  0
   -0.2524   -1.9673    0.0000 C   0  0  0  0  0  0  0  0  0  0  0  0
    4.4526   -1.9673    0.0000 C   0  0  0  0  0  0  0  0  0  0  0  0
   -4.0993   -3.2048    0.0000 C   0  0  0  0  0  0  0  0  0  0  0  0
   -2.8618   -3.9193    0.0000 C   0  0  0  0  0  0  0  0  0  0  0  0
    5.8964   -1.9673    0.0000 C   0  0  0  0  0  0  0  0  0  0  0  0
   -4.5118   -3.9193    0.0000 C   0  0  0  0  0  0  0  0  0  0  0  0
   -3.3849   -1.9673    0.0000 C   0  0  0  0  0  0  0  0  0  0  0  0
    8.0878   -1.9673    0.0000 C   0  0  3  0  0  0  0  0  0  0  0  0
    3.8018   -1.1533    0.0000 C   0  0  0  0  0  0  0  0  0  0  0  0
   -0.8259   -1.1412    0.0000 C   0  0  0  0  0  0  0  0  0  0  0  0
    8.9901   -1.9673    0.0000 C   0  0  0  0  0  0  0  0  0  0  0  0
    8.3393   -1.1799    0.0000 C   0  0  0  0  0  0  0  0  0  0  0  0
   10.8464   -1.9673    0.0000 C   0  0  0  0  0  0  0  0  0  0  0  0
    0.7292   -2.7923    0.0000 H   2  0  0  0  0  0  0  0  0  0  0  0
  1  4  1  0  0  0  0
  2  6  1  0  0  0  0
  2  7  1  0  0  0  0
  2 10  2  0  0  0  0
  2 17  1  0  0  0  0
  3  8  1  0  0  0  0
  3 13  2  0  0  0  0
  3 16  1  0  0  0  0
  3 28  1  0  0  0  0
  4 11  1  0  0  0  0
  4 14  2  0  0  0  0
  4 26  1  0  0  0  0
  5 21  1  0  0  0  0
  6 18  1  0  0  0  0
  7 21  1  0  0  0  0
  8 20  1  0  0  0  0
  9 17  1  0  0  0  0
  9 22  1  0  0  0  0
 11 29  1  0  0  0  0
 12 23  1  0  0  0  0
 12 26  1  0  0  0  0
 15 32  1  0  0  0  0
 15 34  1  0  0  0  0
 16 19  1  0  0  0  0
 18 23  1  0  0  0  0
 18 30  1  0  0  0  0
 19 24  1  0  0  0  0
 19 25  1  0  0  0  0
 20 22  1  0  0  0  0
 20 31  1  0  0  0  0
 21 35  1  0  0  0  0
 24 27  1  0  0  0  0
 25 27  1  0  0  0  0
 29 32  1  0  0  0  0
 29 33  1  0  0  0  0
M  ISO  1  35   3
M  END
> <PUBCHEM_COMPOUND_ID_TYPE>
0

> <PUBCHEM_TOTAL_CHARGE>
0

> <PUBCHEM_SUBSTANCE_ID>
310939437

> <PUBCHEM_SUBSTANCE_VERSION>
1

> <PUBCHEM_EXT_DATASOURCE_NAME>
4488

> <PUBCHEM_EXT_DATASOURCE_REGID>
SCHEMBL16117359

> <PUBCHEM_SUBSTANCE_COMMENT>
InChI=1S/C18H40ClNO10P4/c1-15(9-24-4)29-33(19,22)13-25-11-17(3)30-34(23,27-12-31)14-26-10-16(2)28-32(5,21)20-18-7-6-8-18/h15-18H,6-14,31H2,1-5H3,(H,20,21)/i12T
InChIKey=OCFIDNNXGMRIRR-BFDQMJDGSA-N

> <PUBCHEM_SUBSTANCE_SYNONYM>
SCHEMBL16117359

> <PUBCHEM_XREF_EXT_ID>
SCHEMBL16117359

> <PUBCHEM_EXT_DATASOURCE_URL>
https://www.surechembl.org/

> <PUBCHEM_EXT_SUBSTANCE_URL>
https://www.surechembl.org/chemical/SCHEMBL16117359

> <PUBCHEM_CID_ASSOCIATIONS>
117606760  1

> <PUBCHEM_COORDINATE_TYPE>
1
3

$$$$
