310945774
  -OEChem-07211613022D

 43 47  0     1  0  0  0  0  0999 V2000
    5.4043    0.9781    0.0000 O   0  0  0  0  0  0  0  0  0  0  0  0
    4.2665   -0.9781    0.0000 O   0  0  0  0  0  0  0  0  0  0  0  0
    1.8801    0.9643    0.0000 O   0  0  0  0  0  0  0  0  0  0  0  0
   -2.4489    0.9643    0.0000 O   0  0  0  0  0  0  0  0  0  0  0  0
   -0.2844   -1.1031    0.0000 O   0  0  0  0  0  0  0  0  0  0  0  0
    4.0445   -2.7681    0.0000 O   0  0  0  0  0  0  0  0  0  0  0  0
    2.6016   -0.2706    0.0000 N   0  0  0  0  0  0  0  0  0  0  0  0
   -1.7274   -0.2706    0.0000 N   0  0  0  0  0  0  0  0  0  0  0  0
    0.4370    0.1457    0.0000 N   0  0  0  0  0  0  0  0  0  0  0  0
    4.9880    0.3122    0.0000 C   0  0  3  0  0  0  0  0  0  0  0  0
    4.2804   -0.1041    0.0000 C   0  0  0  0  0  0  0  0  0  0  0  0
    4.5995    0.9920    0.0000 C   0  0  0  0  0  0  0  0  0  0  0  0
    3.5451    0.2844    0.0000 C   0  0  3  0  0  0  0  0  0  0  0  0
   -4.0723   -1.2418    0.0000 C   0  0  0  0  0  0  0  0  0  0  0  0
   -3.1704   -0.2428    0.0000 C   0  0  0  0  0  0  0  0  0  0  0  0
   -3.2814   -1.0614    0.0000 C   0  0  0  0  0  0  0  0  0  0  0  0
   -4.4885   -0.5342    0.0000 C   0  0  0  0  0  0  0  0  0  0  0  0
    5.7234   -0.1318    0.0000 C   0  0  0  0  0  0  0  0  0  0  0  0
   -3.9336    0.0763    0.0000 C   0  0  0  0  0  0  0  0  0  0  0  0
    3.5451    1.3666    0.0000 C   0  0  0  0  0  0  0  0  0  0  0  0
    1.8662    0.1457    0.0000 C   0  0  0  0  0  0  0  0  0  0  0  0
   -2.4489    0.1457    0.0000 C   0  0  0  0  0  0  0  0  0  0  0  0
    1.1724   -0.2428    0.0000 C   0  0  3  0  0  0  0  0  0  0  0  0
   -4.4885   -1.9633    0.0000 C   0  0  0  0  0  0  0  0  0  0  0  0
    2.8097    1.7968    0.0000 C   0  0  0  0  0  0  0  0  0  0  0  0
   -5.3071   -0.5342    0.0000 C   0  0  0  0  0  0  0  0  0  0  0  0
   -2.6431   -1.6303    0.0000 C   0  0  0  0  0  0  0  0  0  0  0  0
   -5.3071   -1.9633    0.0000 C   0  0  0  0  0  0  0  0  0  0  0  0
   -5.7234   -1.2418    0.0000 C   0  0  0  0  0  0  0  0  0  0  0  0
    1.1585   -1.0753    0.0000 C   0  0  0  0  0  0  0  0  0  0  0  0
   -0.2706   -0.2289    0.0000 C   0  0  0  0  0  0  0  0  0  0  0  0
    2.0604    1.4499    0.0000 C   0  0  0  0  0  0  0  0  0  0  0  0
    2.7264    2.6016    0.0000 C   0  0  0  0  0  0  0  0  0  0  0  0
    1.8939   -1.4916    0.0000 C   0  0  0  0  0  0  0  0  0  0  0  0
   -1.0337    0.1596    0.0000 C   0  0  0  0  0  0  0  0  0  0  0  0
    1.5193    2.0604    0.0000 C   0  0  0  0  0  0  0  0  0  0  0  0
    1.9355    2.7681    0.0000 C   0  0  0  0  0  0  0  0  0  0  0  0
    1.8939   -2.3240    0.0000 C   0  0  0  0  0  0  0  0  0  0  0  0
    2.6016   -1.1031    0.0000 C   0  0  0  0  0  0  0  0  0  0  0  0
    3.3369   -2.3101    0.0000 C   0  0  0  0  0  0  0  0  0  0  0  0
    2.6016   -2.7264    0.0000 C   0  0  0  0  0  0  0  0  0  0  0  0
    3.3369   -1.5054    0.0000 C   0  0  0  0  0  0  0  0  0  0  0  0
    4.7938   -2.3379    0.0000 C   0  0  0  0  0  0  0  0  0  0  0  0
  1 10  1  0  0  0  0
  1 12  1  0  0  0  0
  2 11  2  0  0  0  0
  3 21  2  0  0  0  0
  4 22  2  0  0  0  0
  5 31  2  0  0  0  0
  6 40  1  0  0  0  0
  6 43  1  0  0  0  0
  7 13  1  0  0  0  0
  7 21  1  0  0  0  0
  8 22  1  0  0  0  0
  8 35  1  0  0  0  0
  9 23  1  0  0  0  0
  9 31  1  0  0  0  0
 10 11  1  0  0  0  0
 10 12  1  0  0  0  0
 10 18  1  0  0  0  0
 11 13  1  0  0  0  0
 13 20  1  0  0  0  0
 14 16  1  0  0  0  0
 14 17  1  0  0  0  0
 14 24  2  0  0  0  0
 15 16  2  0  0  0  0
 15 19  1  0  0  0  0
 15 22  1  0  0  0  0
 16 27  1  0  0  0  0
 17 19  1  0  0  0  0
 17 26  2  0  0  0  0
 20 25  1  0  0  0  0
 21 23  1  0  0  0  0
 23 30  1  0  0  0  0
 24 28  1  0  0  0  0
 25 32  1  0  0  0  0
 25 33  1  0  0  0  0
 26 29  1  0  0  0  0
 28 29  2  0  0  0  0
 30 34  1  0  0  0  0
 31 35  1  0  0  0  0
 32 36  1  0  0  0  0
 33 37  1  0  0  0  0
 34 38  2  0  0  0  0
 34 39  1  0  0  0  0
 36 37  1  0  0  0  0
 38 41  1  0  0  0  0
 39 42  2  0  0  0  0
 40 41  2  0  0  0  0
 40 42  1  0  0  0  0
M  END
> <PUBCHEM_COMPOUND_ID_TYPE>
0

> <PUBCHEM_TOTAL_CHARGE>
0

> <PUBCHEM_SUBSTANCE_ID>
310945774

> <PUBCHEM_SUBSTANCE_VERSION>
1

> <PUBCHEM_EXT_DATASOURCE_NAME>
4488

> <PUBCHEM_EXT_DATASOURCE_REGID>
SCHEMBL16123878

> <PUBCHEM_SUBSTANCE_COMMENT>
InChI=1S/C34H41N3O6/c1-21-26-11-7-6-10-24(26)18-27(21)32(40)35-19-30(38)36-29(17-23-12-14-25(42-3)15-13-23)33(41)37-28(16-22-8-4-5-9-22)31(39)34(2)20-43-34/h6-7,10-15,22,28-29H,4-5,8-9,16-20H2,1-3H3,(H,35,40)(H,36,38)(H,37,41)
InChIKey=SPGMUFRQWRXGBO-UHFFFAOYSA-N

> <PUBCHEM_SUBSTANCE_SYNONYM>
SCHEMBL16123878

> <PUBCHEM_XREF_EXT_ID>
SCHEMBL16123878

> <PUBCHEM_EXT_DATASOURCE_URL>
https://www.surechembl.org/

> <PUBCHEM_EXT_SUBSTANCE_URL>
https://www.surechembl.org/chemical/SCHEMBL16123878

> <PUBCHEM_CID_ASSOCIATIONS>
117611762  1

> <PUBCHEM_COORDINATE_TYPE>
1
3

$$$$
