310940813
  -OEChem-07211613022D

 42 45  0     1  0  0  0  0  0999 V2000
    5.1942   -1.0227    0.0000 O   0  0  0  0  0  0  0  0  0  0  0  0
    4.0545    0.9497    0.0000 O   0  0  0  0  0  0  0  0  0  0  0  0
    1.6729   -1.0082    0.0000 O   0  0  0  0  0  0  0  0  0  0  0  0
   -0.4895    1.0666    0.0000 O   0  0  0  0  0  0  0  0  0  0  0  0
    3.8354    2.7323    0.0000 O   0  0  0  0  0  0  0  0  0  0  0  0
   -2.6519   -1.0082    0.0000 O   0  0  0  0  0  0  0  0  0  0  0  0
   -5.5302   -1.0082    0.0000 O   0  0  0  0  0  0  0  0  0  0  0  0
    2.3889    0.2338    0.0000 N   0  0  0  0  0  0  0  0  0  0  0  0
    0.2265   -0.1753    0.0000 N   0  0  0  0  0  0  0  0  0  0  0  0
   -1.9359    0.2338    0.0000 N   0  0  0  0  0  0  0  0  0  0  0  0
   -4.0984   -0.1753    0.0000 N   0  0  0  0  0  0  0  0  0  0  0  0
    4.7851   -0.2776    0.0000 C   0  0  3  0  0  0  0  0  0  0  0  0
    4.0399    0.1169    0.0000 C   0  0  0  0  0  0  0  0  0  0  0  0
    4.3906   -0.9936    0.0000 C   0  0  0  0  0  0  0  0  0  0  0  0
    3.3532   -0.2630    0.0000 C   0  0  3  0  0  0  0  0  0  0  0  0
    5.5302    0.1461    0.0000 C   0  0  0  0  0  0  0  0  0  0  0  0
    3.3386   -1.3442    0.0000 C   0  0  0  0  0  0  0  0  0  0  0  0
    1.6876   -0.1169    0.0000 C   0  0  0  0  0  0  0  0  0  0  0  0
    0.9424    0.2776    0.0000 C   0  0  3  0  0  0  0  0  0  0  0  0
    2.6227   -1.7679    0.0000 C   0  0  0  0  0  0  0  0  0  0  0  0
    0.9716    1.1104    0.0000 C   0  0  0  0  0  0  0  0  0  0  0  0
   -0.4895    0.2484    0.0000 C   0  0  0  0  0  0  0  0  0  0  0  0
    1.6876    1.5195    0.0000 C   0  0  0  0  0  0  0  0  0  0  0  0
    1.8629   -1.4464    0.0000 C   0  0  0  0  0  0  0  0  0  0  0  0
    2.5203   -2.5861    0.0000 C   0  0  0  0  0  0  0  0  0  0  0  0
   -1.1908   -0.1461    0.0000 C   0  0  3  0  0  0  0  0  0  0  0  0
    1.3223   -2.0601    0.0000 C   0  0  0  0  0  0  0  0  0  0  0  0
    1.7168   -2.7468    0.0000 C   0  0  0  0  0  0  0  0  0  0  0  0
    2.4035    1.1104    0.0000 C   0  0  0  0  0  0  0  0  0  0  0  0
    1.7022    2.3524    0.0000 C   0  0  0  0  0  0  0  0  0  0  0  0
    3.1194    2.3524    0.0000 C   0  0  0  0  0  0  0  0  0  0  0  0
   -2.6373   -0.1169    0.0000 C   0  0  0  0  0  0  0  0  0  0  0  0
    3.1194    1.5195    0.0000 C   0  0  0  0  0  0  0  0  0  0  0  0
    2.3889    2.7468    0.0000 C   0  0  0  0  0  0  0  0  0  0  0  0
   -1.2054   -0.9789    0.0000 C   0  0  0  0  0  0  0  0  0  0  0  0
   -3.3970    0.2630    0.0000 C   0  0  0  0  0  0  0  0  0  0  0  0
   -4.0837   -0.9789    0.0000 C   0  0  0  0  0  0  0  0  0  0  0  0
   -4.8143    0.2630    0.0000 C   0  0  0  0  0  0  0  0  0  0  0  0
   -1.9359   -1.3880    0.0000 C   0  0  0  0  0  0  0  0  0  0  0  0
   -4.7996   -1.3880    0.0000 C   0  0  0  0  0  0  0  0  0  0  0  0
   -5.5156   -0.1315    0.0000 C   0  0  0  0  0  0  0  0  0  0  0  0
    4.5805    2.3231    0.0000 C   0  0  0  0  0  0  0  0  0  0  0  0
  1 12  1  0  0  0  0
  1 14  1  0  0  0  0
  2 13  2  0  0  0  0
  3 18  2  0  0  0  0
  4 22  2  0  0  0  0
  5 31  1  0  0  0  0
  5 42  1  0  0  0  0
  6 32  2  0  0  0  0
  7 40  1  0  0  0  0
  7 41  1  0  0  0  0
  8 15  1  0  0  0  0
  8 18  1  0  0  0  0
  9 19  1  0  0  0  0
  9 22  1  0  0  0  0
 10 26  1  0  0  0  0
 10 32  1  0  0  0  0
 11 36  1  0  0  0  0
 11 37  1  0  0  0  0
 11 38  1  0  0  0  0
 12 13  1  0  0  0  0
 12 14  1  0  0  0  0
 12 16  1  0  0  0  0
 13 15  1  0  0  0  0
 15 17  1  0  0  0  0
 17 20  1  0  0  0  0
 18 19  1  0  0  0  0
 19 21  1  0  0  0  0
 20 24  1  0  0  0  0
 20 25  1  0  0  0  0
 21 23  1  0  0  0  0
 22 26  1  0  0  0  0
 23 29  2  0  0  0  0
 23 30  1  0  0  0  0
 24 27  1  0  0  0  0
 25 28  1  0  0  0  0
 26 35  1  0  0  0  0
 27 28  1  0  0  0  0
 29 33  1  0  0  0  0
 30 34  2  0  0  0  0
 31 33  2  0  0  0  0
 31 34  1  0  0  0  0
 32 36  1  0  0  0  0
 35 39  1  0  0  0  0
 37 40  1  0  0  0  0
 38 41  1  0  0  0  0
M  END
> <PUBCHEM_COMPOUND_ID_TYPE>
0

> <PUBCHEM_TOTAL_CHARGE>
0

> <PUBCHEM_SUBSTANCE_ID>
310940813

> <PUBCHEM_SUBSTANCE_VERSION>
1

> <PUBCHEM_EXT_DATASOURCE_NAME>
4488

> <PUBCHEM_EXT_DATASOURCE_REGID>
SCHEMBL16118772

> <PUBCHEM_SUBSTANCE_COMMENT>
InChI=1S/C31H46N4O7/c1-4-24(32-27(36)19-35-13-15-41-16-14-35)29(38)34-26(18-22-9-11-23(40-3)12-10-22)30(39)33-25(17-21-7-5-6-8-21)28(37)31(2)20-42-31/h9-12,21,24-26H,4-8,13-20H2,1-3H3,(H,32,36)(H,33,39)(H,34,38)
InChIKey=DEMICLLBHMMEIO-UHFFFAOYSA-N

> <PUBCHEM_SUBSTANCE_SYNONYM>
SCHEMBL16118772

> <PUBCHEM_XREF_EXT_ID>
SCHEMBL16118772

> <PUBCHEM_EXT_DATASOURCE_URL>
https://www.surechembl.org/

> <PUBCHEM_EXT_SUBSTANCE_URL>
https://www.surechembl.org/chemical/SCHEMBL16118772

> <PUBCHEM_CID_ASSOCIATIONS>
86296341  1

> <PUBCHEM_COORDINATE_TYPE>
1
3

$$$$
