310946785
  -OEChem-07211613022D

 36 39  0     1  0  0  0  0  0999 V2000
    0.6425   -1.6019    0.0000 O   0  0  0  0  0  0  0  0  0  0  0  0
    3.1437   -1.8788    0.0000 O   0  0  0  0  0  0  0  0  0  0  0  0
    3.5135   -0.4985    0.0000 O   0  0  0  0  0  0  0  0  0  0  0  0
   -0.0720   -0.3644    0.0000 N   0  0  0  0  0  0  0  0  0  0  0  0
   -0.7394    0.1206    0.0000 N   0  0  0  0  0  0  0  0  0  0  0  0
   -1.9769    2.4043    0.0000 N   0  0  0  0  0  0  0  0  0  0  0  0
   -1.3095    2.8892    0.0000 N   0  0  0  0  0  0  0  0  0  0  0  0
    1.7208    1.2750    0.0000 N   0  0  3  0  0  0  0  0  0  0  0  0
    2.1333   -0.8684    0.0000 N   0  0  0  0  0  0  0  0  0  0  0  0
   -0.4845    0.9052    0.0000 C   0  0  0  0  0  0  0  0  0  0  0  0
    0.3405    0.9052    0.0000 C   0  0  0  0  0  0  0  0  0  0  0  0
   -0.8970    1.6197    0.0000 C   0  0  0  0  0  0  0  0  0  0  0  0
    0.5954    0.1206    0.0000 C   0  0  0  0  0  0  0  0  0  0  0  0
   -0.0720   -1.1894    0.0000 C   0  0  3  0  0  0  0  0  0  0  0  0
   -1.7220    1.6197    0.0000 C   0  0  0  0  0  0  0  0  0  0  0  0
   -0.6421    2.4043    0.0000 C   0  0  0  0  0  0  0  0  0  0  0  0
    0.9239    1.4886    0.0000 C   0  0  0  0  0  0  0  0  0  0  0  0
   -0.7865   -1.6019    0.0000 C   0  0  0  0  0  0  0  0  0  0  0  0
   -2.7738    2.6178    0.0000 C   0  0  0  0  0  0  0  0  0  0  0  0
   -3.3572    2.0344    0.0000 C   0  0  0  0  0  0  0  0  0  0  0  0
    0.6425   -2.4269    0.0000 C   0  0  0  0  0  0  0  0  0  0  0  0
   -0.7865   -2.4269    0.0000 C   0  0  0  0  0  0  0  0  0  0  0  0
    2.1333    0.5606    0.0000 C   0  0  0  0  0  0  0  0  0  0  0  0
   -0.0720   -2.8394    0.0000 C   0  0  0  0  0  0  0  0  0  0  0  0
    2.3041    1.8584    0.0000 C   0  0  0  0  0  0  0  0  0  0  0  0
   -4.1541    2.2480    0.0000 C   0  0  0  0  0  0  0  0  0  0  0  0
   -3.1437    1.2376    0.0000 C   0  0  0  0  0  0  0  0  0  0  0  0
    1.7208   -0.1539    0.0000 C   0  0  0  0  0  0  0  0  0  0  0  0
   -4.7374    1.6646    0.0000 C   0  0  0  0  0  0  0  0  0  0  0  0
   -3.7270    0.6542    0.0000 C   0  0  0  0  0  0  0  0  0  0  0  0
    2.9301   -1.0819    0.0000 C   0  0  0  0  0  0  0  0  0  0  0  0
   -4.5239    0.8677    0.0000 C   0  0  0  0  0  0  0  0  0  0  0  0
    3.9406   -2.0923    0.0000 C   0  0  0  0  0  0  0  0  0  0  0  0
    4.7374   -2.3058    0.0000 C   0  0  0  0  0  0  0  0  0  0  0  0
    4.5239   -1.5090    0.0000 C   0  0  0  0  0  0  0  0  0  0  0  0
    4.1541   -2.8892    0.0000 C   0  0  0  0  0  0  0  0  0  0  0  0
  1 14  1  0  0  0  0
  1 21  1  0  0  0  0
  2 31  1  0  0  0  0
  2 33  1  0  0  0  0
  3 31  2  0  0  0  0
  4  5  1  0  0  0  0
  4 13  1  0  0  0  0
  4 14  1  0  0  0  0
  5 10  2  0  0  0  0
  6  7  1  0  0  0  0
  6 15  1  0  0  0  0
  6 19  1  0  0  0  0
  7 16  2  0  0  0  0
  8 17  1  0  0  0  0
  8 23  1  0  0  0  0
  8 25  1  0  0  0  0
  9 28  1  0  0  0  0
  9 31  1  0  0  0  0
 10 11  1  0  0  0  0
 10 12  1  0  0  0  0
 11 13  2  0  0  0  0
 11 17  1  0  0  0  0
 12 15  2  0  0  0  0
 12 16  1  0  0  0  0
 14 18  1  0  0  0  0
 18 22  1  0  0  0  0
 19 20  1  0  0  0  0
 20 26  2  0  0  0  0
 20 27  1  0  0  0  0
 21 24  1  0  0  0  0
 22 24  1  0  0  0  0
 23 28  1  0  0  0  0
 26 29  1  0  0  0  0
 27 30  2  0  0  0  0
 29 32  2  0  0  0  0
 30 32  1  0  0  0  0
 33 34  1  0  0  0  0
 33 35  1  0  0  0  0
 33 36  1  0  0  0  0
M  END
> <PUBCHEM_COMPOUND_ID_TYPE>
0

> <PUBCHEM_TOTAL_CHARGE>
0

> <PUBCHEM_SUBSTANCE_ID>
310946785

> <PUBCHEM_SUBSTANCE_VERSION>
1

> <PUBCHEM_EXT_DATASOURCE_NAME>
4488

> <PUBCHEM_EXT_DATASOURCE_REGID>
SCHEMBL16124909

> <PUBCHEM_SUBSTANCE_COMMENT>
InChI=1S/C27H38N6O3/c1-27(2,3)36-26(34)28-13-14-31(4)18-23-20-33(24-12-8-9-15-35-24)30-25(23)22-16-29-32(19-22)17-21-10-6-5-7-11-21/h5-7,10-11,16,19-20,24H,8-9,12-15,17-18H2,1-4H3,(H,28,34)
InChIKey=SBBYGBSLPXGIFL-UHFFFAOYSA-N

> <PUBCHEM_SUBSTANCE_SYNONYM>
SCHEMBL16124909

> <PUBCHEM_XREF_EXT_ID>
SCHEMBL16124909

> <PUBCHEM_EXT_DATASOURCE_URL>
https://www.surechembl.org/

> <PUBCHEM_EXT_SUBSTANCE_URL>
https://www.surechembl.org/chemical/SCHEMBL16124909

> <PUBCHEM_CID_ASSOCIATIONS>
117612646  1

> <PUBCHEM_COORDINATE_TYPE>
1
3

$$$$
