310930003
  -OEChem-07211613022D

 27 29  0     1  0  0  0  0  0999 V2000
    0.8766   -2.1656    0.0000 S   0  0  0  0  0  0  0  0  0  0  0  0
    0.8250   -9.4875    0.0000 S   0  0  0  0  0  0  0  0  0  0  0  0
    0.8250   -8.7141    0.0000 O   0  0  0  0  0  0  0  0  0  0  0  0
    1.6500   -9.4875    0.0000 O   0  0  0  0  0  0  0  0  0  0  0  0
    0.0000   -9.4875    0.0000 O   0  0  0  0  0  0  0  0  0  0  0  0
    0.8250  -10.3125    0.0000 O   0  0  0  0  0  0  0  0  0  0  0  0
    2.1656   -2.1656    0.0000 N   0  0  0  0  0  0  0  0  0  0  0  0
    1.4953   -3.4547    0.0000 N   0  0  0  0  0  0  0  0  0  0  0  0
    2.2172   -7.0641    0.0000 N   0  0  3  0  0  0  0  0  0  0  0  0
    2.2172   -3.8672    0.0000 N   0  0  0  0  0  0  0  0  0  0  0  0
    1.0828   -1.3922    0.0000 C   0  0  0  0  0  0  0  0  0  0  0  0
    1.9078   -1.3922    0.0000 C   0  0  0  0  0  0  0  0  0  0  0  0
    1.4953   -2.6297    0.0000 C   0  0  0  0  0  0  0  0  0  0  0  0
    2.2172   -6.2906    0.0000 C   0  0  0  0  0  0  0  0  0  0  0  0
    0.6703   -0.6703    0.0000 C   0  0  0  0  0  0  0  0  0  0  0  0
    2.3204   -0.6703    0.0000 C   0  0  0  0  0  0  0  0  0  0  0  0
    2.2172   -4.6406    0.0000 C   0  0  0  0  0  0  0  0  0  0  0  0
    1.4953   -5.8782    0.0000 C   0  0  0  0  0  0  0  0  0  0  0  0
    2.8875   -5.8782    0.0000 C   0  0  0  0  0  0  0  0  0  0  0  0
    1.4953   -5.0532    0.0000 C   0  0  0  0  0  0  0  0  0  0  0  0
    2.8875   -5.0532    0.0000 C   0  0  0  0  0  0  0  0  0  0  0  0
    1.0828    0.0000    0.0000 C   0  0  0  0  0  0  0  0  0  0  0  0
    1.9078    0.0000    0.0000 C   0  0  0  0  0  0  0  0  0  0  0  0
    1.5469   -7.4766    0.0000 C   0  0  0  0  0  0  0  0  0  0  0  0
    2.9391   -7.4766    0.0000 C   0  0  0  0  0  0  0  0  0  0  0  0
    1.5469   -8.3016    0.0000 C   0  0  0  0  0  0  0  0  0  0  0  0
    3.6094   -7.0641    0.0000 C   0  0  0  0  0  0  0  0  0  0  0  0
  1 11  1  0  0  0  0
  1 13  1  0  0  0  0
  2  3  1  0  0  0  0
  2  4  2  0  0  0  0
  2  5  2  0  0  0  0
  2  6  1  0  0  0  0
  3 26  1  0  0  0  0
  7 12  1  0  0  0  0
  7 13  2  0  0  0  0
  8 10  2  0  0  0  0
  8 13  1  0  0  0  0
  9 14  1  0  0  0  0
  9 24  1  0  0  0  0
  9 25  1  0  0  0  0
 10 17  1  0  0  0  0
 11 12  2  0  0  0  0
 11 15  1  0  0  0  0
 12 16  1  0  0  0  0
 14 18  2  0  0  0  0
 14 19  1  0  0  0  0
 15 22  2  0  0  0  0
 16 23  2  0  0  0  0
 17 20  2  0  0  0  0
 17 21  1  0  0  0  0
 18 20  1  0  0  0  0
 19 21  2  0  0  0  0
 22 23  1  0  0  0  0
 24 26  1  0  0  0  0
 25 27  1  0  0  0  0
M  END
> <PUBCHEM_COMPOUND_ID_TYPE>
0

> <PUBCHEM_TOTAL_CHARGE>
0

> <PUBCHEM_SUBSTANCE_ID>
310930003

> <PUBCHEM_SUBSTANCE_VERSION>
1

> <PUBCHEM_EXT_DATASOURCE_NAME>
4488

> <PUBCHEM_EXT_DATASOURCE_REGID>
SCHEMBL16107242

> <PUBCHEM_SUBSTANCE_COMMENT>
InChI=1S/C17H18N4O4S2/c1-2-21(11-12-25-27(22,23)24)14-9-7-13(8-10-14)19-20-17-18-15-5-3-4-6-16(15)26-17/h3-10H,2,11-12H2,1H3,(H,22,23,24)/b20-19+
InChIKey=BSLQXZVOYTVPSQ-FMQUCBEESA-N

> <PUBCHEM_SUBSTANCE_SYNONYM>
SCHEMBL16107242

> <PUBCHEM_XREF_EXT_ID>
SCHEMBL16107242

> <PUBCHEM_EXT_DATASOURCE_URL>
https://www.surechembl.org/

> <PUBCHEM_EXT_SUBSTANCE_URL>
https://www.surechembl.org/chemical/SCHEMBL16107242

> <PUBCHEM_CID_ASSOCIATIONS>
89559019  1

> <PUBCHEM_COORDINATE_TYPE>
1
3

$$$$
