310945260
  -OEChem-07211613022D

 19 19  0     1  0  0  0  0  0999 V2000
    1.6884   -0.7265    0.0000 O   0  0  0  0  0  0  0  0  0  0  0  0
   -1.8726    0.9107    0.0000 O   0  0  0  0  0  0  0  0  0  0  0  0
   -0.8698    1.9134    0.0000 O   0  0  0  0  0  0  0  0  0  0  0  0
    0.9516   -1.9134    0.0000 O   0  0  0  0  0  0  0  0  0  0  0  0
    0.2354   -0.6856    0.0000 N   0  0  0  0  0  0  0  0  0  0  0  0
    0.6651    1.6474    0.0000 N   0  0  0  0  0  0  0  0  0  0  0  0
   -0.5014    0.5423    0.0000 C   0  0  3  0  0  0  0  0  0  0  0  0
    0.2354    0.1330    0.0000 C   0  0  0  0  0  0  0  0  0  0  0  0
   -1.0949    1.1154    0.0000 C   0  0  0  0  0  0  0  0  0  0  0  0
   -1.1767    0.1330    0.0000 C   0  0  0  0  0  0  0  0  0  0  0  0
    0.9516   -1.1154    0.0000 C   0  0  0  0  0  0  0  0  0  0  0  0
    0.0921    1.1154    0.0000 C   0  0  0  0  0  0  0  0  0  0  0  0
   -0.4604   -1.1154    0.0000 C   0  0  0  0  0  0  0  0  0  0  0  0
   -1.1972   -0.7060    0.0000 C   0  0  0  0  0  0  0  0  0  0  0  0
    1.7088    0.1126    0.0000 C   0  0  0  0  0  0  0  0  0  0  0  0
    2.4661    0.1330    0.0000 C   0  0  0  0  0  0  0  0  0  0  0  0
    0.9516    0.1126    0.0000 C   0  0  0  0  0  0  0  0  0  0  0  0
    1.6884    0.9312    0.0000 C   0  0  0  0  0  0  0  0  0  0  0  0
   -2.4661    1.4632    0.0000 C   0  0  0  0  0  0  0  0  0  0  0  0
  1 11  1  0  0  0  0
  1 15  1  0  0  0  0
  2  9  1  0  0  0  0
  2 19  1  0  0  0  0
  3  9  2  0  0  0  0
  4 11  2  0  0  0  0
  5  8  1  0  0  0  0
  5 11  1  0  0  0  0
  5 13  1  0  0  0  0
  6 12  3  0  0  0  0
  7  8  1  0  0  0  0
  7  9  1  0  0  0  0
  7 10  1  0  0  0  0
  7 12  1  0  0  0  0
 10 14  1  0  0  0  0
 13 14  1  0  0  0  0
 15 16  1  0  0  0  0
 15 17  1  0  0  0  0
 15 18  1  0  0  0  0
M  END
> <PUBCHEM_COMPOUND_ID_TYPE>
0

> <PUBCHEM_TOTAL_CHARGE>
0

> <PUBCHEM_SUBSTANCE_ID>
310945260

> <PUBCHEM_SUBSTANCE_VERSION>
1

> <PUBCHEM_EXT_DATASOURCE_NAME>
4488

> <PUBCHEM_EXT_DATASOURCE_REGID>
SCHEMBL16123354

> <PUBCHEM_SUBSTANCE_COMMENT>
InChI=1S/C13H20N2O4/c1-12(2,3)19-11(17)15-7-5-6-13(8-14,9-15)10(16)18-4/h5-7,9H2,1-4H3
InChIKey=IZHHCWISMVEPOH-UHFFFAOYSA-N

> <PUBCHEM_SUBSTANCE_SYNONYM>
SCHEMBL16123354

> <PUBCHEM_XREF_EXT_ID>
SCHEMBL16123354

> <PUBCHEM_EXT_DATASOURCE_URL>
https://www.surechembl.org/

> <PUBCHEM_EXT_SUBSTANCE_URL>
https://www.surechembl.org/chemical/SCHEMBL16123354

> <PUBCHEM_CID_ASSOCIATIONS>
117611327  1

> <PUBCHEM_COORDINATE_TYPE>
1
3

$$$$
