310949377
  -OEChem-07211613022D

 29 30  0     1  0  0  0  0  0999 V2000
    1.9857    1.0983    0.0000 Cl  0  0  0  0  0  0  0  0  0  0  0  0
    2.7179   -1.6692    0.0000 F   0  0  0  0  0  0  0  0  0  0  0  0
    3.3632    0.7385    0.0000 F   0  0  0  0  0  0  0  0  0  0  0  0
    3.9465    0.1428    0.0000 F   0  0  0  0  0  0  0  0  0  0  0  0
    3.7356   -0.6515    0.0000 F   0  0  0  0  0  0  0  0  0  0  0  0
    0.3723    0.6764    0.0000 O   0  0  0  0  0  0  0  0  0  0  0  0
    0.2110    2.8606    0.0000 O   0  0  0  0  0  0  0  0  0  0  0  0
    1.6134   -2.7613    0.0000 N   0  0  0  0  0  0  0  0  0  0  0  0
    1.2534   -3.4314    0.0000 N   0  0  0  0  0  0  0  0  0  0  0  0
   -1.0921   -2.3518    0.0000 N   0  0  3  0  0  0  0  0  0  0  0  0
   -3.2391   -1.9298    0.0000 N   0  0  0  0  0  0  0  0  0  0  0  0
    2.3456   -0.2793    0.0000 C   0  0  0  0  0  0  0  0  0  0  0  0
    1.3403   -1.2845    0.0000 C   0  0  0  0  0  0  0  0  0  0  0  0
    2.1346   -1.0610    0.0000 C   0  0  0  0  0  0  0  0  0  0  0  0
    1.7622    0.3041    0.0000 C   0  0  0  0  0  0  0  0  0  0  0  0
    1.1169   -2.0912    0.0000 C   0  0  0  0  0  0  0  0  0  0  0  0
    3.1646   -0.0682    0.0000 C   0  0  0  0  0  0  0  0  0  0  0  0
    0.9681    0.0807    0.0000 C   0  0  0  0  0  0  0  0  0  0  0  0
    0.7694   -0.7136    0.0000 C   0  0  0  0  0  0  0  0  0  0  0  0
    0.3476   -2.3394    0.0000 C   0  0  0  0  0  0  0  0  0  0  0  0
    0.3351   -3.1708    0.0000 C   0  0  0  0  0  0  0  0  0  0  0  0
   -0.3723   -1.9298    0.0000 C   0  0  0  0  0  0  0  0  0  0  0  0
    0.5957    1.4830    0.0000 C   0  0  0  0  0  0  0  0  0  0  0  0
   -1.8118   -1.9422    0.0000 C   0  0  0  0  0  0  0  0  0  0  0  0
    0.0124    2.0664    0.0000 C   0  0  0  0  0  0  0  0  0  0  0  0
   -1.0797   -3.1708    0.0000 C   0  0  0  0  0  0  0  0  0  0  0  0
   -2.5192   -2.3518    0.0000 C   0  0  0  0  0  0  0  0  0  0  0  0
   -0.3598    3.4314    0.0000 C   0  0  0  0  0  0  0  0  0  0  0  0
   -3.9465   -2.3394    0.0000 C   0  0  0  0  0  0  0  0  0  0  0  0
  1 15  1  0  0  0  0
  2 14  1  0  0  0  0
  3 17  1  0  0  0  0
  4 17  1  0  0  0  0
  5 17  1  0  0  0  0
  6 18  1  0  0  0  0
  6 23  1  0  0  0  0
  7 25  1  0  0  0  0
  7 28  1  0  0  0  0
  8  9  1  0  0  0  0
  8 16  2  0  0  0  0
  9 21  1  0  0  0  0
 10 22  1  0  0  0  0
 10 24  1  0  0  0  0
 10 26  1  0  0  0  0
 11 27  1  0  0  0  0
 11 29  1  0  0  0  0
 12 14  2  0  0  0  0
 12 15  1  0  0  0  0
 12 17  1  0  0  0  0
 13 14  1  0  0  0  0
 13 16  1  0  0  0  0
 13 19  2  0  0  0  0
 15 18  2  0  0  0  0
 16 20  1  0  0  0  0
 18 19  1  0  0  0  0
 20 21  2  0  0  0  0
 20 22  1  0  0  0  0
 23 25  1  0  0  0  0
 24 27  1  0  0  0  0
M  END
> <PUBCHEM_COMPOUND_ID_TYPE>
0

> <PUBCHEM_TOTAL_CHARGE>
0

> <PUBCHEM_SUBSTANCE_ID>
310949377

> <PUBCHEM_SUBSTANCE_VERSION>
1

> <PUBCHEM_EXT_DATASOURCE_NAME>
4488

> <PUBCHEM_EXT_DATASOURCE_REGID>
SCHEMBL16127569

> <PUBCHEM_SUBSTANCE_COMMENT>
InChI=1S/C18H23ClF4N4O2/c1-24-4-5-27(2)10-11-9-25-26-17(11)12-8-13(29-7-6-28-3)15(19)14(16(12)20)18(21,22)23/h8-9,24H,4-7,10H2,1-3H3,(H,25,26)
InChIKey=CIOMHRMFELXLQU-UHFFFAOYSA-N

> <PUBCHEM_SUBSTANCE_SYNONYM>
SCHEMBL16127569

> <PUBCHEM_XREF_EXT_ID>
SCHEMBL16127569

> <PUBCHEM_EXT_DATASOURCE_URL>
https://www.surechembl.org/

> <PUBCHEM_EXT_SUBSTANCE_URL>
https://www.surechembl.org/chemical/SCHEMBL16127569

> <PUBCHEM_CID_ASSOCIATIONS>
85473406  1

> <PUBCHEM_COORDINATE_TYPE>
1
3

$$$$
