310935649
  -OEChem-07211613022D

 35 40  0     1  0  0  0  0  0999 V2000
    2.9004   -7.0742    0.0000 O   0  0  0  0  0  0  0  0  0  0  0  0
    0.7428   -3.3249    0.0000 N   0  0  3  0  0  0  0  0  0  0  0  0
    0.0000   -2.0869    0.0000 N   0  0  0  0  0  0  0  0  0  0  0  0
    0.7428   -0.8489    0.0000 N   0  0  0  0  0  0  0  0  0  0  0  0
    3.6078   -5.8008    0.0000 N   0  0  0  0  0  0  0  0  0  0  0  0
    3.6786   -3.3249    0.0000 N   0  0  0  0  0  0  0  0  0  0  0  0
    4.4921   -3.5017    0.0000 N   0  0  0  0  0  0  0  0  0  0  0  0
    5.0581   -4.9873    0.0000 N   0  0  0  0  0  0  0  0  0  0  0  0
    1.4502   -2.0869    0.0000 C   0  0  0  0  0  0  0  0  0  0  0  0
    0.7428   -2.5113    0.0000 C   0  0  0  0  0  0  0  0  0  0  0  0
    1.4502   -1.2380    0.0000 C   0  0  0  0  0  0  0  0  0  0  0  0
    2.8651   -2.0869    0.0000 C   0  0  0  0  0  0  0  0  0  0  0  0
    2.1577   -0.8489    0.0000 C   0  0  0  0  0  0  0  0  0  0  0  0
    2.1577   -2.5113    0.0000 C   0  0  0  0  0  0  0  0  0  0  0  0
    1.4502   -4.5982    0.0000 C   0  0  0  0  0  0  0  0  0  0  0  0
    0.7428   -5.0227    0.0000 C   0  0  0  0  0  0  0  0  0  0  0  0
    1.4502   -3.7493    0.0000 C   0  0  0  0  0  0  0  0  0  0  0  0
    2.8651   -1.2380    0.0000 C   0  0  0  0  0  0  0  0  0  0  0  0
    0.0353   -3.7493    0.0000 C   0  0  0  0  0  0  0  0  0  0  0  0
    3.6078   -2.5113    0.0000 C   0  0  0  0  0  0  0  0  0  0  0  0
    2.1930   -5.8008    0.0000 C   0  0  0  0  0  0  0  0  0  0  0  0
    2.1577   -4.9873    0.0000 C   0  0  0  0  0  0  0  0  0  0  0  0
    0.0353   -4.5982    0.0000 C   0  0  0  0  0  0  0  0  0  0  0  0
    0.0000   -1.2380    0.0000 C   0  0  0  0  0  0  0  0  0  0  0  0
    2.9004   -6.2253    0.0000 C   0  0  0  0  0  0  0  0  0  0  0  0
    0.7428   -5.8008    0.0000 C   0  0  0  0  0  0  0  0  0  0  0  0
    1.4502   -6.2253    0.0000 C   0  0  0  0  0  0  0  0  0  0  0  0
    2.1577    0.0000    0.0000 C   0  0  0  0  0  0  0  0  0  0  0  0
    4.3506   -2.1577    0.0000 C   0  0  0  0  0  0  0  0  0  0  0  0
    4.9166   -2.7943    0.0000 C   0  0  0  0  0  0  0  0  0  0  0  0
    4.3506   -6.2606    0.0000 C   0  0  0  0  0  0  0  0  0  0  0  0
    3.6078   -4.9873    0.0000 C   0  0  0  0  0  0  0  0  0  0  0  0
    4.3506   -4.5628    0.0000 C   0  0  0  0  0  0  0  0  0  0  0  0
    5.0581   -5.8362    0.0000 C   0  0  0  0  0  0  0  0  0  0  0  0
    5.8008   -4.5628    0.0000 C   0  0  0  0  0  0  0  0  0  0  0  0
  1 25  2  0  0  0  0
  2 10  1  0  0  0  0
  2 17  1  0  0  0  0
  2 19  1  0  0  0  0
  3 10  1  0  0  0  0
  3 24  2  0  0  0  0
  4 11  2  0  0  0  0
  4 24  1  0  0  0  0
  5 25  1  0  0  0  0
  5 31  1  0  0  0  0
  5 32  1  0  0  0  0
  6  7  1  0  0  0  0
  6 20  1  0  0  0  0
  7 30  2  0  0  0  0
  8 33  1  0  0  0  0
  8 34  1  0  0  0  0
  8 35  1  0  0  0  0
  9 10  2  0  0  0  0
  9 11  1  0  0  0  0
  9 14  1  0  0  0  0
 11 13  1  0  0  0  0
 12 14  2  0  0  0  0
 12 18  1  0  0  0  0
 12 20  1  0  0  0  0
 13 18  2  0  0  0  0
 13 28  1  0  0  0  0
 15 16  2  0  0  0  0
 15 17  1  0  0  0  0
 15 22  1  0  0  0  0
 16 23  1  0  0  0  0
 16 26  1  0  0  0  0
 19 23  1  0  0  0  0
 20 29  2  0  0  0  0
 21 22  2  0  0  0  0
 21 25  1  0  0  0  0
 21 27  1  0  0  0  0
 26 27  2  0  0  0  0
 29 30  1  0  0  0  0
 31 34  1  0  0  0  0
 32 33  1  0  0  0  0
M  END
> <PUBCHEM_COMPOUND_ID_TYPE>
0

> <PUBCHEM_TOTAL_CHARGE>
0

> <PUBCHEM_SUBSTANCE_ID>
310935649

> <PUBCHEM_SUBSTANCE_VERSION>
1

> <PUBCHEM_EXT_DATASOURCE_NAME>
4488

> <PUBCHEM_EXT_DATASOURCE_REGID>
SCHEMBL16113227

> <PUBCHEM_SUBSTANCE_COMMENT>
InChI=1S/C27H29N7O/c1-18-13-21(24-5-7-30-31-24)15-23-25(18)28-17-29-26(23)34-8-6-19-3-4-20(14-22(19)16-34)27(35)33-11-9-32(2)10-12-33/h3-5,7,13-15,17H,6,8-12,16H2,1-2H3,(H,30,31)
InChIKey=YSNSXEKCBYGNEJ-UHFFFAOYSA-N

> <PUBCHEM_SUBSTANCE_SYNONYM>
SCHEMBL16113227

> <PUBCHEM_XREF_EXT_ID>
SCHEMBL16113227

> <PUBCHEM_EXT_DATASOURCE_URL>
https://www.surechembl.org/

> <PUBCHEM_EXT_SUBSTANCE_URL>
https://www.surechembl.org/chemical/SCHEMBL16113227

> <PUBCHEM_CID_ASSOCIATIONS>
86301847  1

> <PUBCHEM_COORDINATE_TYPE>
1
3

$$$$
