310940324
  -OEChem-07211613022D

 12 12  0     1  0  0  0  0  0999 V2000
    1.4682   -0.1698    0.0000 Br  0  0  0  0  0  0  0  0  0  0  0  0
    0.7523   -1.4440    0.0000 Cl  0  0  0  0  0  0  0  0  0  0  0  0
   -0.7158    1.0314    0.0000 O   0  0  0  0  0  0  0  0  0  0  0  0
    0.0121   -0.1698    0.0000 C   0  0  0  0  0  0  0  0  0  0  0  0
   -0.7158    0.2184    0.0000 C   0  0  0  0  0  0  0  0  0  0  0  0
    0.0242   -1.0071    0.0000 C   0  0  0  0  0  0  0  0  0  0  0  0
    0.7158    0.2426    0.0000 C   0  0  3  0  0  0  0  0  0  0  0  0
   -1.4196   -0.2063    0.0000 C   0  0  0  0  0  0  0  0  0  0  0  0
   -0.6794   -1.4196    0.0000 C   0  0  0  0  0  0  0  0  0  0  0  0
   -1.4196   -1.0193    0.0000 C   0  0  0  0  0  0  0  0  0  0  0  0
    0.7158    1.0799    0.0000 C   0  0  0  0  0  0  0  0  0  0  0  0
   -1.4682    1.4440    0.0000 C   0  0  0  0  0  0  0  0  0  0  0  0
  1  7  1  0  0  0  0
  2  6  1  0  0  0  0
  3  5  1  0  0  0  0
  3 12  1  0  0  0  0
  4  5  1  0  0  0  0
  4  6  2  0  0  0  0
  4  7  1  0  0  0  0
  5  8  2  0  0  0  0
  6  9  1  0  0  0  0
  7 11  1  0  0  0  0
  8 10  1  0  0  0  0
  9 10  2  0  0  0  0
M  END
> <PUBCHEM_COMPOUND_ID_TYPE>
0

> <PUBCHEM_TOTAL_CHARGE>
0

> <PUBCHEM_SUBSTANCE_ID>
310940324

> <PUBCHEM_SUBSTANCE_VERSION>
1

> <PUBCHEM_EXT_DATASOURCE_NAME>
4488

> <PUBCHEM_EXT_DATASOURCE_REGID>
SCHEMBL16118268

> <PUBCHEM_SUBSTANCE_COMMENT>
InChI=1S/C9H10BrClO/c1-6(10)9-7(11)4-3-5-8(9)12-2/h3-6H,1-2H3
InChIKey=ZUXOSRGBGFMSBC-UHFFFAOYSA-N

> <PUBCHEM_SUBSTANCE_SYNONYM>
SCHEMBL16118268

> <PUBCHEM_XREF_EXT_ID>
SCHEMBL16118268

> <PUBCHEM_EXT_DATASOURCE_URL>
https://www.surechembl.org/

> <PUBCHEM_EXT_SUBSTANCE_URL>
https://www.surechembl.org/chemical/SCHEMBL16118268

> <PUBCHEM_CID_ASSOCIATIONS>
117607388  1

> <PUBCHEM_COORDINATE_TYPE>
1
3

$$$$
