310945862
  -OEChem-07211613022D

 35 37  0     1  0  0  0  0  0999 V2000
    3.6514    0.6860    0.0000 O   0  0  0  0  0  0  0  0  0  0  0  0
    2.5151   -1.2818    0.0000 O   0  0  0  0  0  0  0  0  0  0  0  0
    0.3672    0.7968    0.0000 O   0  0  0  0  0  0  0  0  0  0  0  0
   -1.7945   -1.2818    0.0000 O   0  0  0  0  0  0  0  0  0  0  0  0
    2.5151   -2.9447    0.0000 O   0  0  0  0  0  0  0  0  0  0  0  0
   -3.2357    1.2125    0.0000 O   0  0  0  0  0  0  0  0  0  0  0  0
    1.0739   -0.4504    0.0000 N   0  0  0  0  0  0  0  0  0  0  0  0
   -1.0878   -0.0346    0.0000 N   0  0  0  0  0  0  0  0  0  0  0  0
   -3.2496   -0.4504    0.0000 N   0  0  0  0  0  0  0  0  0  0  0  0
    3.2080   -0.0069    0.0000 C   0  0  3  0  0  0  0  0  0  0  0  0
    2.5013   -0.4227    0.0000 C   0  0  0  0  0  0  0  0  0  0  0  0
    2.8338    0.6860    0.0000 C   0  0  0  0  0  0  0  0  0  0  0  0
    1.7807   -0.0346    0.0000 C   0  0  3  0  0  0  0  0  0  0  0  0
    3.9701   -0.4365    0.0000 C   0  0  0  0  0  0  0  0  0  0  0  0
    1.7945    1.2957    0.0000 C   0  0  0  0  0  0  0  0  0  0  0  0
    0.3395   -0.0485    0.0000 C   0  0  0  0  0  0  0  0  0  0  0  0
   -0.3672   -0.4365    0.0000 C   0  0  3  0  0  0  0  0  0  0  0  0
    1.0601    1.7252    0.0000 C   0  0  0  0  0  0  0  0  0  0  0  0
   -0.3672   -1.2680    0.0000 C   0  0  0  0  0  0  0  0  0  0  0  0
    0.3534   -1.6975    0.0000 C   0  0  0  0  0  0  0  0  0  0  0  0
   -1.7945   -0.4227    0.0000 C   0  0  0  0  0  0  0  0  0  0  0  0
    0.3257    1.3095    0.0000 C   0  0  0  0  0  0  0  0  0  0  0  0
    1.0601    2.5429    0.0000 C   0  0  0  0  0  0  0  0  0  0  0  0
   -2.5290   -0.0346    0.0000 C   0  0  3  0  0  0  0  0  0  0  0  0
    1.0601   -1.2957    0.0000 C   0  0  0  0  0  0  0  0  0  0  0  0
    0.3534   -2.5151    0.0000 C   0  0  0  0  0  0  0  0  0  0  0  0
    1.7807   -2.5151    0.0000 C   0  0  0  0  0  0  0  0  0  0  0  0
    1.7807   -1.6975    0.0000 C   0  0  0  0  0  0  0  0  0  0  0  0
    1.0601   -2.9308    0.0000 C   0  0  0  0  0  0  0  0  0  0  0  0
   -0.3672    1.7252    0.0000 C   0  0  0  0  0  0  0  0  0  0  0  0
    0.3395    2.9447    0.0000 C   0  0  0  0  0  0  0  0  0  0  0  0
   -0.3672    2.5429    0.0000 C   0  0  0  0  0  0  0  0  0  0  0  0
   -2.5151    0.7968    0.0000 C   0  0  0  0  0  0  0  0  0  0  0  0
   -3.9701   -0.0485    0.0000 C   0  0  0  0  0  0  0  0  0  0  0  0
    3.2496   -2.5151    0.0000 C   0  0  0  0  0  0  0  0  0  0  0  0
  1 10  1  0  0  0  0
  1 12  1  0  0  0  0
  2 11  2  0  0  0  0
  3 16  2  0  0  0  0
  4 21  2  0  0  0  0
  5 27  1  0  0  0  0
  5 35  1  0  0  0  0
  6 33  1  0  0  0  0
  7 13  1  0  0  0  0
  7 16  1  0  0  0  0
  8 17  1  0  0  0  0
  8 21  1  0  0  0  0
  9 24  1  0  0  0  0
  9 34  1  0  0  0  0
 10 11  1  0  0  0  0
 10 12  1  0  0  0  0
 10 14  1  0  0  0  0
 11 13  1  0  0  0  0
 13 15  1  0  0  0  0
 15 18  1  0  0  0  0
 16 17  1  0  0  0  0
 17 19  1  0  0  0  0
 18 22  2  0  0  0  0
 18 23  1  0  0  0  0
 19 20  1  0  0  0  0
 20 25  2  0  0  0  0
 20 26  1  0  0  0  0
 21 24  1  0  0  0  0
 22 30  1  0  0  0  0
 23 31  2  0  0  0  0
 24 33  1  0  0  0  0
 25 28  1  0  0  0  0
 26 29  2  0  0  0  0
 27 28  2  0  0  0  0
 27 29  1  0  0  0  0
 30 32  2  0  0  0  0
 31 32  1  0  0  0  0
M  END
> <PUBCHEM_COMPOUND_ID_TYPE>
0

> <PUBCHEM_TOTAL_CHARGE>
0

> <PUBCHEM_SUBSTANCE_ID>
310945862

> <PUBCHEM_SUBSTANCE_VERSION>
1

> <PUBCHEM_EXT_DATASOURCE_NAME>
4488

> <PUBCHEM_EXT_DATASOURCE_REGID>
SCHEMBL16123967

> <PUBCHEM_SUBSTANCE_COMMENT>
InChI=1S/C26H33N3O6/c1-26(16-35-26)23(31)20(13-17-7-5-4-6-8-17)28-24(32)21(29-25(33)22(15-30)27-2)14-18-9-11-19(34-3)12-10-18/h4-12,20-22,27,30H,13-16H2,1-3H3,(H,28,32)(H,29,33)
InChIKey=YDPBVZXYMSCAHS-UHFFFAOYSA-N

> <PUBCHEM_SUBSTANCE_SYNONYM>
SCHEMBL16123967

> <PUBCHEM_XREF_EXT_ID>
SCHEMBL16123967

> <PUBCHEM_EXT_DATASOURCE_URL>
https://www.surechembl.org/

> <PUBCHEM_EXT_SUBSTANCE_URL>
https://www.surechembl.org/chemical/SCHEMBL16123967

> <PUBCHEM_CID_ASSOCIATIONS>
117611846  1

> <PUBCHEM_COORDINATE_TYPE>
1
3

$$$$
