310935281
  -OEChem-07211613022D

 37 42  0     1  0  0  0  0  0999 V2000
    0.6075   -4.8241    0.0000 S   0  0  0  0  0  0  0  0  0  0  0  0
    6.9324   -0.7862    0.0000 F   0  0  0  0  0  0  0  0  0  0  0  0
    5.7175   -3.0731    0.0000 O   0  0  0  0  0  0  0  0  0  0  0  0
    5.7175   -1.6438    0.0000 O   0  0  0  0  0  0  0  0  0  0  0  0
    1.1792   -0.5003    0.0000 O   0  0  0  0  0  0  0  0  0  0  0  0
    1.8224   -5.3959    0.0000 N   0  0  0  0  0  0  0  0  0  0  0  0
    4.4668   -2.3585    0.0000 C   0  0  3  0  0  0  0  0  0  0  0  0
    3.2161   -2.7873    0.0000 C   0  0  0  0  0  0  0  0  0  0  0  0
    4.8598   -1.6081    0.0000 C   0  0  0  0  0  0  0  0  0  0  0  0
    3.2161   -1.9297    0.0000 C   0  0  3  0  0  0  0  0  0  0  0  0
    4.0023   -3.0374    0.0000 C   0  0  0  0  0  0  0  0  0  0  0  0
    4.0023   -1.6795    0.0000 C   0  0  0  0  0  0  0  0  0  0  0  0
    2.5371   -3.2518    0.0000 C   0  0  0  0  0  0  0  0  0  0  0  0
    5.3244   -2.3585    0.0000 C   0  0  0  0  0  0  0  0  0  0  0  0
    5.8604   -1.7510    0.0000 C   0  0  0  0  0  0  0  0  0  0  0  0
    1.9297   -4.5740    0.0000 C   0  0  0  0  0  0  0  0  0  0  0  0
    2.6086   -4.0737    0.0000 C   0  0  0  0  0  0  0  0  0  0  0  0
    1.1435   -4.2166    0.0000 C   0  0  0  0  0  0  0  0  0  0  0  0
    2.5371   -1.4651    0.0000 C   0  0  0  0  0  0  0  0  0  0  0  0
    4.4311   -0.8933    0.0000 C   0  0  0  0  0  0  0  0  0  0  0  0
    1.0006   -5.5745    0.0000 C   0  0  0  0  0  0  0  0  0  0  0  0
    1.7510   -2.8945    0.0000 C   0  0  0  0  0  0  0  0  0  0  0  0
    6.0748   -0.8219    0.0000 C   0  0  0  0  0  0  0  0  0  0  0  0
    1.0720   -3.3590    0.0000 C   0  0  0  0  0  0  0  0  0  0  0  0
    0.6790   -6.3250    0.0000 C   0  0  0  0  0  0  0  0  0  0  0  0
    1.7510   -1.8224    0.0000 C   0  0  0  0  0  0  0  0  0  0  0  0
    4.7884   -0.1787    0.0000 C   0  0  0  0  0  0  0  0  0  0  0  0
    5.6460   -0.1429    0.0000 C   0  0  0  0  0  0  0  0  0  0  0  0
    0.7504   -7.1468    0.0000 C   0  0  0  0  0  0  0  0  0  0  0  0
    0.0000   -6.8253    0.0000 C   0  0  0  0  0  0  0  0  0  0  0  0
    6.1463   -2.2513    0.0000 C   0  0  0  0  0  0  0  0  0  0  0  0
    1.1078   -1.3222    0.0000 C   0  0  0  0  0  0  0  0  0  0  0  0
    1.6795   -2.6443    0.0000 C   0  0  0  0  0  0  0  0  0  0  0  0
    0.3216   -1.6795    0.0000 C   0  0  0  0  0  0  0  0  0  0  0  0
    0.9291   -2.9659    0.0000 C   0  0  0  0  0  0  0  0  0  0  0  0
    0.2501   -2.5014    0.0000 C   0  0  0  0  0  0  0  0  0  0  0  0
    0.5003    0.0000    0.0000 C   0  0  0  0  0  0  0  0  0  0  0  0
  1 18  1  0  0  0  0
  1 21  1  0  0  0  0
  2 23  1  0  0  0  0
  3 14  2  0  0  0  0
  4 14  1  0  0  0  0
  5 32  1  0  0  0  0
  5 37  1  0  0  0  0
  6 16  1  0  0  0  0
  6 21  2  0  0  0  0
  7  9  1  0  0  0  0
  7 11  1  0  0  0  0
  7 12  1  0  0  0  0
  7 14  1  0  0  0  0
  8 10  1  0  0  0  0
  8 11  2  0  0  0  0
  8 13  1  0  0  0  0
  9 15  1  0  0  0  0
  9 20  2  0  0  0  0
 10 12  1  0  0  0  0
 10 19  1  0  0  0  0
 13 17  2  0  0  0  0
 13 22  1  0  0  0  0
 15 23  2  0  0  0  0
 15 31  1  0  0  0  0
 16 17  1  0  0  0  0
 16 18  2  0  0  0  0
 18 24  1  0  0  0  0
 19 26  1  0  0  0  0
 20 27  1  0  0  0  0
 21 25  1  0  0  0  0
 22 24  2  0  0  0  0
 23 28  1  0  0  0  0
 25 29  1  0  0  0  0
 25 30  1  0  0  0  0
 26 32  2  0  0  0  0
 26 33  1  0  0  0  0
 27 28  2  0  0  0  0
 29 30  1  0  0  0  0
 32 34  1  0  0  0  0
 33 35  2  0  0  0  0
 34 36  2  0  0  0  0
 35 36  1  0  0  0  0
M  END
> <PUBCHEM_COMPOUND_ID_TYPE>
0

> <PUBCHEM_TOTAL_CHARGE>
0

> <PUBCHEM_SUBSTANCE_ID>
310935281

> <PUBCHEM_SUBSTANCE_VERSION>
1

> <PUBCHEM_EXT_DATASOURCE_NAME>
4488

> <PUBCHEM_EXT_DATASOURCE_REGID>
SCHEMBL16112813

> <PUBCHEM_SUBSTANCE_COMMENT>
InChI=1S/C31H28FNO3S/c1-18-24(7-5-8-25(18)32)31(30(34)35)16-22(14-21-6-3-4-9-27(21)36-2)23(17-31)20-12-13-28-26(15-20)33-29(37-28)19-10-11-19/h3-9,12-13,15,17,19,22H,10-11,14,16H2,1-2H3,(H,34,35)
InChIKey=FZHJJDHJSWTZKV-UHFFFAOYSA-N

> <PUBCHEM_SUBSTANCE_SYNONYM>
SCHEMBL16112813

> <PUBCHEM_XREF_EXT_ID>
SCHEMBL16112813

> <PUBCHEM_EXT_DATASOURCE_URL>
https://www.surechembl.org/

> <PUBCHEM_EXT_SUBSTANCE_URL>
https://www.surechembl.org/chemical/SCHEMBL16112813

> <PUBCHEM_CID_ASSOCIATIONS>
117603350  1

> <PUBCHEM_COORDINATE_TYPE>
1
3

$$$$
