310935641
  -OEChem-07211613022D

 21 25  0     1  0  0  0  0  0999 V2000
    3.6267   -2.7262    0.0000 O   0  0  0  0  0  0  0  0  0  0  0  0
    3.6267   -1.3506    0.0000 O   0  0  0  0  0  0  0  0  0  0  0  0
    0.0000   -1.5507    0.0000 O   0  0  0  0  0  0  0  0  0  0  0  0
    2.0759   -2.9013    0.0000 C   0  0  0  0  0  0  0  0  0  0  0  0
    1.3506   -2.4511    0.0000 C   0  0  0  0  0  0  0  0  0  0  0  0
    2.8013   -2.4511    0.0000 C   0  0  0  0  0  0  0  0  0  0  0  0
    1.3506   -1.6507    0.0000 C   0  0  0  0  0  0  0  0  0  0  0  0
    2.8013   -1.6507    0.0000 C   0  0  3  0  0  0  0  0  0  0  0  0
    2.0759   -1.1755    0.0000 C   0  0  0  0  0  0  0  0  0  0  0  0
    2.0759   -3.7267    0.0000 C   0  0  0  0  0  0  0  0  0  0  0  0
    1.3506   -4.1019    0.0000 C   0  0  0  0  0  0  0  0  0  0  0  0
    0.7254   -1.1755    0.0000 C   0  0  0  0  0  0  0  0  0  0  0  0
    0.7254   -2.9013    0.0000 C   0  0  0  0  0  0  0  0  0  0  0  0
    2.0759   -0.3502    0.0000 C   0  0  0  0  0  0  0  0  0  0  0  0
    0.7254   -3.7267    0.0000 C   0  0  0  0  0  0  0  0  0  0  0  0
    2.7262   -4.2769    0.0000 C   0  0  0  0  0  0  0  0  0  0  0  0
    4.0768   -2.0009    0.0000 C   0  0  0  0  0  0  0  0  0  0  0  0
    0.7254   -0.3502    0.0000 C   0  0  0  0  0  0  0  0  0  0  0  0
    1.5507   -4.9022    0.0000 C   0  0  0  0  0  0  0  0  0  0  0  0
    1.3506    0.0000    0.0000 C   0  0  0  0  0  0  0  0  0  0  0  0
    2.3511   -5.0023    0.0000 C   0  0  0  0  0  0  0  0  0  0  0  0
  1  6  1  0  0  0  0
  1 17  1  0  0  0  0
  2  8  1  0  0  0  0
  2 17  1  0  0  0  0
  3 12  2  0  0  0  0
  4  5  1  0  0  0  0
  4  6  2  0  0  0  0
  4 10  1  0  0  0  0
  5  7  2  0  0  0  0
  5 13  1  0  0  0  0
  6  8  1  0  0  0  0
  7  9  1  0  0  0  0
  7 12  1  0  0  0  0
  8  9  1  0  0  0  0
  9 14  2  0  0  0  0
 10 11  1  0  0  0  0
 10 16  2  0  0  0  0
 11 15  2  0  0  0  0
 11 19  1  0  0  0  0
 12 18  1  0  0  0  0
 13 15  1  0  0  0  0
 14 20  1  0  0  0  0
 16 21  1  0  0  0  0
 18 20  2  0  0  0  0
 19 21  2  0  0  0  0
M  END
> <PUBCHEM_COMPOUND_ID_TYPE>
0

> <PUBCHEM_TOTAL_CHARGE>
0

> <PUBCHEM_SUBSTANCE_ID>
310935641

> <PUBCHEM_SUBSTANCE_VERSION>
1

> <PUBCHEM_EXT_DATASOURCE_NAME>
4488

> <PUBCHEM_EXT_DATASOURCE_REGID>
SCHEMBL16113219

> <PUBCHEM_SUBSTANCE_COMMENT>
InChI=1S/C18H12O3/c19-14-6-2-5-13-15(14)12-8-7-10-3-1-4-11(10)16(12)18-17(13)20-9-21-18/h1-7,17H,8-9H2
InChIKey=WEXZVTLICLDFOH-UHFFFAOYSA-N

> <PUBCHEM_SUBSTANCE_SYNONYM>
SCHEMBL16113219

> <PUBCHEM_XREF_EXT_ID>
SCHEMBL16113219

> <PUBCHEM_EXT_DATASOURCE_URL>
https://www.surechembl.org/

> <PUBCHEM_EXT_SUBSTANCE_URL>
https://www.surechembl.org/chemical/SCHEMBL16113219

> <PUBCHEM_CID_ASSOCIATIONS>
117603654  1

> <PUBCHEM_COORDINATE_TYPE>
1
3

$$$$
