310947753
  -OEChem-07211613022D

 36 38  0     1  0  0  0  0  0999 V2000
   -0.2568   -2.9682    0.0000 O   0  0  0  0  0  0  0  0  0  0  0  0
    3.4996    2.3849    0.0000 O   0  0  0  0  0  0  0  0  0  0  0  0
    2.1193    2.0150    0.0000 O   0  0  0  0  0  0  0  0  0  0  0  0
   -0.6266   -1.5880    0.0000 N   0  0  0  0  0  0  0  0  0  0  0  0
   -1.2941   -1.1031    0.0000 N   0  0  0  0  0  0  0  0  0  0  0  0
   -1.4516    1.8250    0.0000 N   0  0  0  0  0  0  0  0  0  0  0  0
    1.1661    0.0514    0.0000 N   0  0  3  0  0  0  0  0  0  0  0  0
   -2.6891    2.5395    0.0000 N   0  0  3  0  0  0  0  0  0  0  0  0
    3.1297    1.0046    0.0000 N   0  0  0  0  0  0  0  0  0  0  0  0
   -1.0391   -0.3184    0.0000 C   0  0  0  0  0  0  0  0  0  0  0  0
   -0.2141   -0.3184    0.0000 C   0  0  0  0  0  0  0  0  0  0  0  0
   -1.4516    0.3960    0.0000 C   0  0  0  0  0  0  0  0  0  0  0  0
    0.0408   -1.1031    0.0000 C   0  0  0  0  0  0  0  0  0  0  0  0
   -0.8402   -2.3849    0.0000 C   0  0  3  0  0  0  0  0  0  0  0  0
    0.3692    0.2649    0.0000 C   0  0  0  0  0  0  0  0  0  0  0  0
   -1.0391    1.1105    0.0000 C   0  0  0  0  0  0  0  0  0  0  0  0
   -2.2766    0.3960    0.0000 C   0  0  0  0  0  0  0  0  0  0  0  0
   -2.2766    1.8250    0.0000 C   0  0  0  0  0  0  0  0  0  0  0  0
   -2.6891    1.1105    0.0000 C   0  0  0  0  0  0  0  0  0  0  0  0
   -1.6370   -2.5984    0.0000 C   0  0  0  0  0  0  0  0  0  0  0  0
    1.7495    0.6348    0.0000 C   0  0  0  0  0  0  0  0  0  0  0  0
   -0.4703   -3.7651    0.0000 C   0  0  0  0  0  0  0  0  0  0  0  0
   -1.8506   -3.3953    0.0000 C   0  0  0  0  0  0  0  0  0  0  0  0
   -3.5141    2.5395    0.0000 C   0  0  0  0  0  0  0  0  0  0  0  0
   -1.2672   -3.9786    0.0000 C   0  0  0  0  0  0  0  0  0  0  0  0
    1.3797   -0.7455    0.0000 C   0  0  0  0  0  0  0  0  0  0  0  0
    2.5464    0.4212    0.0000 C   0  0  0  0  0  0  0  0  0  0  0  0
    2.9162    1.8015    0.0000 C   0  0  0  0  0  0  0  0  0  0  0  0
   -2.2766    3.2539    0.0000 C   0  0  0  0  0  0  0  0  0  0  0  0
    3.2861    3.1818    0.0000 C   0  0  0  0  0  0  0  0  0  0  0  0
   -3.9266    3.2539    0.0000 C   0  0  0  0  0  0  0  0  0  0  0  0
   -3.9266    1.8250    0.0000 C   0  0  0  0  0  0  0  0  0  0  0  0
    3.9266    0.7911    0.0000 C   0  0  0  0  0  0  0  0  0  0  0  0
    3.0725    3.9786    0.0000 C   0  0  0  0  0  0  0  0  0  0  0  0
    2.4892    3.3953    0.0000 C   0  0  0  0  0  0  0  0  0  0  0  0
    3.8694    3.7651    0.0000 C   0  0  0  0  0  0  0  0  0  0  0  0
  1 14  1  0  0  0  0
  1 22  1  0  0  0  0
  2 28  1  0  0  0  0
  2 30  1  0  0  0  0
  3 28  2  0  0  0  0
  4  5  1  0  0  0  0
  4 13  1  0  0  0  0
  4 14  1  0  0  0  0
  5 10  2  0  0  0  0
  6 16  2  0  0  0  0
  6 18  1  0  0  0  0
  7 15  1  0  0  0  0
  7 21  1  0  0  0  0
  7 26  1  0  0  0  0
  8 18  1  0  0  0  0
  8 24  1  0  0  0  0
  8 29  1  0  0  0  0
  9 27  1  0  0  0  0
  9 28  1  0  0  0  0
  9 33  1  0  0  0  0
 10 11  1  0  0  0  0
 10 12  1  0  0  0  0
 11 13  2  0  0  0  0
 11 15  1  0  0  0  0
 12 16  1  0  0  0  0
 12 17  2  0  0  0  0
 14 20  1  0  0  0  0
 17 19  1  0  0  0  0
 18 19  2  0  0  0  0
 20 23  1  0  0  0  0
 21 27  1  0  0  0  0
 22 25  1  0  0  0  0
 23 25  1  0  0  0  0
 24 31  1  0  0  0  0
 24 32  1  0  0  0  0
 30 34  1  0  0  0  0
 30 35  1  0  0  0  0
 30 36  1  0  0  0  0
M  END
> <PUBCHEM_COMPOUND_ID_TYPE>
0

> <PUBCHEM_TOTAL_CHARGE>
0

> <PUBCHEM_SUBSTANCE_ID>
310947753

> <PUBCHEM_SUBSTANCE_VERSION>
1

> <PUBCHEM_EXT_DATASOURCE_NAME>
4488

> <PUBCHEM_EXT_DATASOURCE_REGID>
SCHEMBL16125925

> <PUBCHEM_SUBSTANCE_COMMENT>
InChI=1S/C27H44N6O3/c1-20(2)32(8)23-13-12-21(17-28-23)25-22(19-33(29-25)24-11-9-10-16-35-24)18-30(6)14-15-31(7)26(34)36-27(3,4)5/h12-13,17,19-20,24H,9-11,14-16,18H2,1-8H3
InChIKey=SIXPFQJJVCOLTB-UHFFFAOYSA-N

> <PUBCHEM_SUBSTANCE_SYNONYM>
SCHEMBL16125925

> <PUBCHEM_XREF_EXT_ID>
SCHEMBL16125925

> <PUBCHEM_EXT_DATASOURCE_URL>
https://www.surechembl.org/

> <PUBCHEM_EXT_SUBSTANCE_URL>
https://www.surechembl.org/chemical/SCHEMBL16125925

> <PUBCHEM_CID_ASSOCIATIONS>
117613430  1

> <PUBCHEM_COORDINATE_TYPE>
1
3

$$$$
