310945894
  -OEChem-07211613022D

 37 39  0     1  0  0  0  0  0999 V2000
    4.3313    0.6669    0.0000 O   0  0  0  0  0  0  0  0  0  0  0  0
    3.2038   -1.2719    0.0000 O   0  0  0  0  0  0  0  0  0  0  0  0
    1.0588    0.7769    0.0000 O   0  0  0  0  0  0  0  0  0  0  0  0
   -1.0725   -1.2719    0.0000 O   0  0  0  0  0  0  0  0  0  0  0  0
    3.2038   -2.9219    0.0000 O   0  0  0  0  0  0  0  0  0  0  0  0
   -3.2175    0.7769    0.0000 O   0  0  0  0  0  0  0  0  0  0  0  0
    1.7738   -0.4469    0.0000 N   0  0  0  0  0  0  0  0  0  0  0  0
   -0.3575   -0.0344    0.0000 N   0  0  0  0  0  0  0  0  0  0  0  0
   -2.5026   -0.4469    0.0000 N   0  0  0  0  0  0  0  0  0  0  0  0
   -3.9188   -0.4469    0.0000 N   0  0  0  0  0  0  0  0  0  0  0  0
    3.9188   -0.0069    0.0000 C   0  0  3  0  0  0  0  0  0  0  0  0
    3.2038   -0.4194    0.0000 C   0  0  0  0  0  0  0  0  0  0  0  0
    3.5200    0.6669    0.0000 C   0  0  0  0  0  0  0  0  0  0  0  0
    2.4888   -0.0207    0.0000 C   0  0  3  0  0  0  0  0  0  0  0  0
    4.6476   -0.4332    0.0000 C   0  0  0  0  0  0  0  0  0  0  0  0
    2.5026    1.2856    0.0000 C   0  0  0  0  0  0  0  0  0  0  0  0
    1.0588   -0.0481    0.0000 C   0  0  0  0  0  0  0  0  0  0  0  0
    0.3575   -0.4332    0.0000 C   0  0  3  0  0  0  0  0  0  0  0  0
    1.7738    1.7119    0.0000 C   0  0  0  0  0  0  0  0  0  0  0  0
    0.3575   -1.2582    0.0000 C   0  0  0  0  0  0  0  0  0  0  0  0
    1.0725   -1.6707    0.0000 C   0  0  0  0  0  0  0  0  0  0  0  0
   -1.0725   -0.4194    0.0000 C   0  0  0  0  0  0  0  0  0  0  0  0
    1.0588    1.2994    0.0000 C   0  0  0  0  0  0  0  0  0  0  0  0
    1.7738    2.5231    0.0000 C   0  0  0  0  0  0  0  0  0  0  0  0
   -1.7875   -0.0207    0.0000 C   0  0  3  0  0  0  0  0  0  0  0  0
    1.0725   -2.4957    0.0000 C   0  0  0  0  0  0  0  0  0  0  0  0
    1.7738   -1.2719    0.0000 C   0  0  0  0  0  0  0  0  0  0  0  0
    2.4751   -2.4957    0.0000 C   0  0  0  0  0  0  0  0  0  0  0  0
    0.3575    1.6981    0.0000 C   0  0  0  0  0  0  0  0  0  0  0  0
    1.0725    2.9219    0.0000 C   0  0  0  0  0  0  0  0  0  0  0  0
    1.7875   -2.9082    0.0000 C   0  0  0  0  0  0  0  0  0  0  0  0
    2.4888   -1.6844    0.0000 C   0  0  0  0  0  0  0  0  0  0  0  0
    0.3575    2.5231    0.0000 C   0  0  0  0  0  0  0  0  0  0  0  0
   -3.2175   -0.0481    0.0000 C   0  0  0  0  0  0  0  0  0  0  0  0
   -1.7875    0.8044    0.0000 C   0  0  0  0  0  0  0  0  0  0  0  0
    3.9325   -2.4819    0.0000 C   0  0  0  0  0  0  0  0  0  0  0  0
   -4.6476   -0.0481    0.0000 C   0  0  0  0  0  0  0  0  0  0  0  0
  1 11  1  0  0  0  0
  1 13  1  0  0  0  0
  2 12  2  0  0  0  0
  3 17  2  0  0  0  0
  4 22  2  0  0  0  0
  5 28  1  0  0  0  0
  5 36  1  0  0  0  0
  6 34  2  0  0  0  0
  7 14  1  0  0  0  0
  7 17  1  0  0  0  0
  8 18  1  0  0  0  0
  8 22  1  0  0  0  0
  9 25  1  0  0  0  0
  9 34  1  0  0  0  0
 10 34  1  0  0  0  0
 10 37  1  0  0  0  0
 11 12  1  0  0  0  0
 11 13  1  0  0  0  0
 11 15  1  0  0  0  0
 12 14  1  0  0  0  0
 14 16  1  0  0  0  0
 16 19  1  0  0  0  0
 17 18  1  0  0  0  0
 18 20  1  0  0  0  0
 19 23  2  0  0  0  0
 19 24  1  0  0  0  0
 20 21  1  0  0  0  0
 21 26  2  0  0  0  0
 21 27  1  0  0  0  0
 22 25  1  0  0  0  0
 23 29  1  0  0  0  0
 24 30  2  0  0  0  0
 25 35  1  0  0  0  0
 26 31  1  0  0  0  0
 27 32  2  0  0  0  0
 28 31  2  0  0  0  0
 28 32  1  0  0  0  0
 29 33  2  0  0  0  0
 30 33  1  0  0  0  0
M  END
> <PUBCHEM_COMPOUND_ID_TYPE>
0

> <PUBCHEM_TOTAL_CHARGE>
0

> <PUBCHEM_SUBSTANCE_ID>
310945894

> <PUBCHEM_SUBSTANCE_VERSION>
1

> <PUBCHEM_EXT_DATASOURCE_NAME>
4488

> <PUBCHEM_EXT_DATASOURCE_REGID>
SCHEMBL16123999

> <PUBCHEM_SUBSTANCE_COMMENT>
InChI=1S/C27H34N4O6/c1-17(29-26(35)28-3)24(33)31-22(15-19-10-12-20(36-4)13-11-19)25(34)30-21(23(32)27(2)16-37-27)14-18-8-6-5-7-9-18/h5-13,17,21-22H,14-16H2,1-4H3,(H,30,34)(H,31,33)(H2,28,29,35)
InChIKey=UGDVHVFKFCSVCS-UHFFFAOYSA-N

> <PUBCHEM_SUBSTANCE_SYNONYM>
SCHEMBL16123999

> <PUBCHEM_XREF_EXT_ID>
SCHEMBL16123999

> <PUBCHEM_EXT_DATASOURCE_URL>
https://www.surechembl.org/

> <PUBCHEM_EXT_SUBSTANCE_URL>
https://www.surechembl.org/chemical/SCHEMBL16123999

> <PUBCHEM_CID_ASSOCIATIONS>
117611878  1

> <PUBCHEM_COORDINATE_TYPE>
1
3

$$$$
