310945156
  -OEChem-07211613022D

 19 19  0     1  0  0  0  0  0999 V2000
   -2.3069   -1.8704    0.0000 O   0  0  0  0  0  0  0  0  0  0  0  0
    1.3786   -1.0807    0.0000 O   0  0  0  0  0  0  0  0  0  0  0  0
   -2.2238    0.9975    0.0000 O   0  0  0  0  0  0  0  0  0  0  0  0
   -1.0599   -1.1361    0.0000 N   0  0  0  0  0  0  0  0  0  0  0  0
    0.6581    0.1802    0.0000 N   0  0  0  0  0  0  0  0  0  0  0  0
   -0.7829    0.9975    0.0000 N   0  0  0  0  0  0  0  0  0  0  0  0
   -0.0623   -0.2355    0.0000 C   0  0  3  0  0  0  0  0  0  0  0  0
   -0.7829    0.1662    0.0000 C   0  0  3  0  0  0  0  0  0  0  0  0
   -0.2425   -1.0529    0.0000 C   0  0  0  0  0  0  0  0  0  0  0  0
   -1.4063   -0.3880    0.0000 C   0  0  0  0  0  0  0  0  0  0  0  0
   -1.4617   -1.8566    0.0000 C   0  0  0  0  0  0  0  0  0  0  0  0
    1.3786   -0.2217    0.0000 C   0  0  0  0  0  0  0  0  0  0  0  0
   -1.5032    1.4271    0.0000 C   0  0  0  0  0  0  0  0  0  0  0  0
    2.0298    0.1940    0.0000 C   0  0  0  0  0  0  0  0  0  0  0  0
   -1.0460   -2.5770    0.0000 C   0  0  0  0  0  0  0  0  0  0  0  0
   -1.5032    2.2446    0.0000 C   0  0  0  0  0  0  0  0  0  0  0  0
    1.7804    0.6235    0.0000 C   0  0  0  0  0  0  0  0  0  0  0  0
    2.3069   -0.2078    0.0000 C   0  0  0  0  0  0  0  0  0  0  0  0
   -2.2792    2.5770    0.0000 C   0  0  0  0  0  0  0  0  0  0  0  0
  1 11  2  0  0  0  0
  2 12  2  0  0  0  0
  3 13  2  0  0  0  0
  4  9  1  0  0  0  0
  4 10  1  0  0  0  0
  4 11  1  0  0  0  0
  5  7  1  0  0  0  0
  5 12  1  0  0  0  0
  6  8  1  0  0  0  0
  6 13  1  0  0  0  0
  7  8  1  0  0  0  0
  7  9  1  0  0  0  0
  8 10  1  0  0  0  0
 11 15  1  0  0  0  0
 12 14  1  0  0  0  0
 13 16  1  0  0  0  0
 14 17  1  0  0  0  0
 14 18  1  0  0  0  0
 16 19  2  0  0  0  0
M  END
> <PUBCHEM_COMPOUND_ID_TYPE>
0

> <PUBCHEM_TOTAL_CHARGE>
0

> <PUBCHEM_SUBSTANCE_ID>
310945156

> <PUBCHEM_SUBSTANCE_VERSION>
1

> <PUBCHEM_EXT_DATASOURCE_NAME>
4488

> <PUBCHEM_EXT_DATASOURCE_REGID>
SCHEMBL16123246

> <PUBCHEM_SUBSTANCE_COMMENT>
InChI=1S/C13H21N3O3/c1-5-12(18)14-10-6-16(9(4)17)7-11(10)15-13(19)8(2)3/h5,8,10-11H,1,6-7H2,2-4H3,(H,14,18)(H,15,19)
InChIKey=YDKUTYWTNHUBRS-UHFFFAOYSA-N

> <PUBCHEM_SUBSTANCE_SYNONYM>
SCHEMBL16123246

> <PUBCHEM_XREF_EXT_ID>
SCHEMBL16123246

> <PUBCHEM_EXT_DATASOURCE_URL>
https://www.surechembl.org/

> <PUBCHEM_EXT_SUBSTANCE_URL>
https://www.surechembl.org/chemical/SCHEMBL16123246

> <PUBCHEM_CID_ASSOCIATIONS>
117611242  1

> <PUBCHEM_COORDINATE_TYPE>
1
3

$$$$
