310946642
  -OEChem-07211613022D

 32 34  0     1  0  0  0  0  0999 V2000
   -2.1431    0.1811    0.0000 S   0  0  0  0  0  0  0  0  0  0  0  0
   -5.0911    1.1872    0.0000 O   0  5  0  0  0  0  0  0  0  0  0  0
   -5.7953   -0.0603    0.0000 O   0  0  0  0  0  0  0  0  0  0  0  0
    4.5477    0.2213    0.0000 O   0  0  0  0  0  0  0  0  0  0  0  0
    5.7953   -0.4930    0.0000 O   0  0  0  0  0  0  0  0  0  0  0  0
   -2.1531   -1.1671    0.0000 N   0  0  0  0  0  0  0  0  0  0  0  0
   -0.8351   -0.4930    0.0000 N   0  0  0  0  0  0  0  0  0  0  0  0
   -5.0911    0.3521    0.0000 N   0  3  0  0  0  0  0  0  0  0  0  0
   -0.4226    0.2314    0.0000 N   0  0  0  0  0  0  0  0  0  0  0  0
    2.8876    0.2213    0.0000 N   0  0  3  0  0  0  0  0  0  0  0  0
    5.3124   -1.6601    0.0000 N   0  0  0  0  0  0  0  0  0  0  0  0
   -2.9379   -0.0503    0.0000 C   0  0  0  0  0  0  0  0  0  0  0  0
   -2.9379   -0.8753    0.0000 C   0  0  0  0  0  0  0  0  0  0  0  0
   -1.6601   -0.4629    0.0000 C   0  0  0  0  0  0  0  0  0  0  0  0
   -3.6422    0.3521    0.0000 C   0  0  0  0  0  0  0  0  0  0  0  0
   -4.3566   -0.0503    0.0000 C   0  0  0  0  0  0  0  0  0  0  0  0
   -3.6523   -1.2979    0.0000 C   0  0  0  0  0  0  0  0  0  0  0  0
   -4.3566   -0.8854    0.0000 C   0  0  0  0  0  0  0  0  0  0  0  0
    0.4125    0.2516    0.0000 C   0  0  0  0  0  0  0  0  0  0  0  0
    2.0525    0.2516    0.0000 C   0  0  0  0  0  0  0  0  0  0  0  0
    0.8250   -0.4629    0.0000 C   0  0  0  0  0  0  0  0  0  0  0  0
    0.8250    0.9558    0.0000 C   0  0  0  0  0  0  0  0  0  0  0  0
    1.6400   -0.4629    0.0000 C   0  0  0  0  0  0  0  0  0  0  0  0
    1.6400    0.9558    0.0000 C   0  0  0  0  0  0  0  0  0  0  0  0
    3.3002    0.9659    0.0000 C   0  0  0  0  0  0  0  0  0  0  0  0
    3.3002   -0.4729    0.0000 C   0  0  0  0  0  0  0  0  0  0  0  0
    4.1352    0.9558    0.0000 C   0  0  0  0  0  0  0  0  0  0  0  0
    4.1453   -0.4829    0.0000 C   0  0  0  0  0  0  0  0  0  0  0  0
    5.3627    0.2716    0.0000 C   0  0  0  0  0  0  0  0  0  0  0  0
    4.7288   -1.0766    0.0000 C   0  0  0  0  0  0  0  0  0  0  0  0
    5.7853    0.9860    0.0000 C   0  0  0  0  0  0  0  0  0  0  0  0
    5.2922    1.6601    0.0000 C   0  0  0  0  0  0  0  0  0  0  0  0
  1 12  1  0  0  0  0
  1 14  1  0  0  0  0
  2  8  1  0  0  0  0
  3  8  2  0  0  0  0
  4 27  1  0  0  0  0
  4 29  1  0  0  0  0
  5 29  2  0  0  0  0
  6 13  1  0  0  0  0
  6 14  2  0  0  0  0
  7  9  2  0  0  0  0
  7 14  1  0  0  0  0
  8 16  1  0  0  0  0
  9 19  1  0  0  0  0
 10 20  1  0  0  0  0
 10 25  1  0  0  0  0
 10 26  1  0  0  0  0
 11 30  3  0  0  0  0
 12 13  1  0  0  0  0
 12 15  2  0  0  0  0
 13 17  2  0  0  0  0
 15 16  1  0  0  0  0
 16 18  2  0  0  0  0
 17 18  1  0  0  0  0
 19 21  2  0  0  0  0
 19 22  1  0  0  0  0
 20 23  2  0  0  0  0
 20 24  1  0  0  0  0
 21 23  1  0  0  0  0
 22 24  2  0  0  0  0
 25 27  1  0  0  0  0
 26 28  1  0  0  0  0
 28 30  1  0  0  0  0
 29 31  1  0  0  0  0
 31 32  2  0  0  0  0
M  CHG  2   2  -1   8   1
M  END
> <PUBCHEM_COMPOUND_ID_TYPE>
0

> <PUBCHEM_TOTAL_CHARGE>
0

> <PUBCHEM_SUBSTANCE_ID>
310946642

> <PUBCHEM_SUBSTANCE_VERSION>
1

> <PUBCHEM_EXT_DATASOURCE_NAME>
4488

> <PUBCHEM_EXT_DATASOURCE_REGID>
SCHEMBL16124763

> <PUBCHEM_SUBSTANCE_COMMENT>
InChI=1S/C21H18N6O4S/c1-2-20(28)31-13-12-26(11-3-10-22)16-6-4-15(5-7-16)24-25-21-23-18-9-8-17(27(29)30)14-19(18)32-21/h2,4-9,14H,1,3,11-13H2/b25-24+
InChIKey=ALSRTYWDWQUGNN-OCOZRVBESA-N

> <PUBCHEM_SUBSTANCE_SYNONYM>
SCHEMBL16124763

> <PUBCHEM_XREF_EXT_ID>
SCHEMBL16124763

> <PUBCHEM_EXT_DATASOURCE_URL>
https://www.surechembl.org/

> <PUBCHEM_EXT_SUBSTANCE_URL>
https://www.surechembl.org/chemical/SCHEMBL16124763

> <PUBCHEM_CID_ASSOCIATIONS>
117612542  1

> <PUBCHEM_COORDINATE_TYPE>
1
3

$$$$
