310945233
  -OEChem-07211613022D

 29 32  0     1  0  0  0  0  0999 V2000
   -3.8828   -0.5935    0.0000 Cl  0  0  0  0  0  0  0  0  0  0  0  0
    0.8853    2.4847    0.0000 O   0  0  0  0  0  0  0  0  0  0  0  0
    3.0983   -1.2574    0.0000 O   0  0  0  0  0  0  0  0  0  0  0  0
    2.3136   -2.4847    0.0000 O   0  0  0  0  0  0  0  0  0  0  0  0
   -0.6437    0.1509    0.0000 N   0  0  0  0  0  0  0  0  0  0  0  0
    1.5894   -1.2373    0.0000 N   0  0  0  0  0  0  0  0  0  0  0  0
    1.5894    1.2373    0.0000 N   0  0  0  0  0  0  0  0  0  0  0  0
   -3.6214    0.8349    0.0000 N   0  0  0  0  0  0  0  0  0  0  0  0
    0.8853    0.0101    0.0000 C   0  0  3  0  0  0  0  0  0  0  0  0
    0.1408    0.4326    0.0000 C   0  0  0  0  0  0  0  0  0  0  0  0
    0.1609    1.2373    0.0000 C   0  0  0  0  0  0  0  0  0  0  0  0
   -1.1066    0.8349    0.0000 C   0  0  0  0  0  0  0  0  0  0  0  0
    1.5894   -0.3923    0.0000 C   0  0  0  0  0  0  0  0  0  0  0  0
    0.8651    1.6397    0.0000 C   0  0  0  0  0  0  0  0  0  0  0  0
    1.5894    0.4124    0.0000 C   0  0  0  0  0  0  0  0  0  0  0  0
   -0.6236    1.4989    0.0000 C   0  0  0  0  0  0  0  0  0  0  0  0
    0.1811   -0.3923    0.0000 C   0  0  0  0  0  0  0  0  0  0  0  0
   -1.9515    0.8551    0.0000 C   0  0  0  0  0  0  0  0  0  0  0  0
    0.1609   -1.2373    0.0000 C   0  0  0  0  0  0  0  0  0  0  0  0
    0.9054   -1.6397    0.0000 C   0  0  0  0  0  0  0  0  0  0  0  0
    2.3136   -1.6598    0.0000 C   0  0  0  0  0  0  0  0  0  0  0  0
   -2.3540    0.1106    0.0000 C   0  0  0  0  0  0  0  0  0  0  0  0
   -2.3540    1.5390    0.0000 C   0  0  0  0  0  0  0  0  0  0  0  0
   -3.1989    0.1307    0.0000 C   0  0  0  0  0  0  0  0  0  0  0  0
    3.1184   -0.3923    0.0000 C   0  0  0  0  0  0  0  0  0  0  0  0
   -3.1787    1.5592    0.0000 C   0  0  0  0  0  0  0  0  0  0  0  0
    3.8828   -0.3521    0.0000 C   0  0  0  0  0  0  0  0  0  0  0  0
    2.3136   -0.3923    0.0000 C   0  0  0  0  0  0  0  0  0  0  0  0
    3.0983    0.4526    0.0000 C   0  0  0  0  0  0  0  0  0  0  0  0
  1 24  1  0  0  0  0
  2 14  2  0  0  0  0
  3 21  1  0  0  0  0
  3 25  1  0  0  0  0
  4 21  2  0  0  0  0
  5 10  1  0  0  0  0
  5 12  1  0  0  0  0
  6 13  1  0  0  0  0
  6 20  1  0  0  0  0
  6 21  1  0  0  0  0
  7 14  1  0  0  0  0
  7 15  1  0  0  0  0
  8 24  1  0  0  0  0
  8 26  2  0  0  0  0
  9 10  1  0  0  0  0
  9 13  1  0  0  0  0
  9 15  1  0  0  0  0
  9 17  1  0  0  0  0
 10 11  2  0  0  0  0
 11 14  1  0  0  0  0
 11 16  1  0  0  0  0
 12 16  2  0  0  0  0
 12 18  1  0  0  0  0
 17 19  1  0  0  0  0
 18 22  1  0  0  0  0
 18 23  2  0  0  0  0
 19 20  1  0  0  0  0
 22 24  2  0  0  0  0
 23 26  1  0  0  0  0
 25 27  1  0  0  0  0
 25 28  1  0  0  0  0
 25 29  1  0  0  0  0
M  END
> <PUBCHEM_COMPOUND_ID_TYPE>
0

> <PUBCHEM_TOTAL_CHARGE>
0

> <PUBCHEM_SUBSTANCE_ID>
310945233

> <PUBCHEM_SUBSTANCE_VERSION>
1

> <PUBCHEM_EXT_DATASOURCE_NAME>
4488

> <PUBCHEM_EXT_DATASOURCE_REGID>
SCHEMBL16123323

> <PUBCHEM_SUBSTANCE_COMMENT>
InChI=1S/C21H25ClN4O3/c1-20(2,3)29-19(28)26-8-4-6-21(12-26)11-24-18(27)14-10-15(25-17(14)21)13-5-7-23-16(22)9-13/h5,7,9-10,25H,4,6,8,11-12H2,1-3H3,(H,24,27)
InChIKey=DOMYHJMGSONSTM-UHFFFAOYSA-N

> <PUBCHEM_SUBSTANCE_SYNONYM>
SCHEMBL16123323

> <PUBCHEM_XREF_EXT_ID>
SCHEMBL16123323

> <PUBCHEM_EXT_DATASOURCE_URL>
https://www.surechembl.org/

> <PUBCHEM_EXT_SUBSTANCE_URL>
https://www.surechembl.org/chemical/SCHEMBL16123323

> <PUBCHEM_CID_ASSOCIATIONS>
117611305  1

> <PUBCHEM_COORDINATE_TYPE>
1
3

$$$$
