310944146
  -OEChem-07211613022D

 33 37  0     1  0  0  0  0  0999 V2000
    0.8384   -2.3496    0.0000 F   0  0  0  0  0  0  0  0  0  0  0  0
    2.4709    0.0221    0.0000 O   0  0  0  0  0  0  0  0  0  0  0  0
    4.9860   -1.5333    0.0000 O   0  0  0  0  0  0  0  0  0  0  0  0
    5.4603   -0.1434    0.0000 O   0  0  0  0  0  0  0  0  0  0  0  0
    2.8570   -1.3899    0.0000 N   0  0  0  0  0  0  0  0  0  0  0  0
    0.1214   -0.2868    0.0000 N   0  0  3  0  0  0  0  0  0  0  0  0
   -4.1586    1.3568    0.0000 N   0  0  0  0  0  0  0  0  0  0  0  0
   -2.0076    0.9487    0.0000 N   0  0  0  0  0  0  0  0  0  0  0  0
   -2.7247    1.3568    0.0000 N   0  0  0  0  0  0  0  0  0  0  0  0
   -4.2359    2.1731    0.0000 N   0  0  0  0  0  0  0  0  0  0  0  0
   -5.0522    2.3496    0.0000 N   0  0  0  0  0  0  0  0  0  0  0  0
   -5.4603    1.6326    0.0000 N   0  0  0  0  0  0  0  0  0  0  0  0
    1.5553   -1.1031    0.0000 C   0  0  3  0  0  0  0  0  0  0  0  0
    2.2945   -0.7942    0.0000 C   0  0  0  0  0  0  0  0  0  0  0  0
    0.8384   -1.5112    0.0000 C   0  0  3  0  0  0  0  0  0  0  0  0
    1.6436   -1.9194    0.0000 C   0  0  0  0  0  0  0  0  0  0  0  0
    3.6733   -1.2906    0.0000 C   0  0  0  0  0  0  0  0  0  0  0  0
    1.5553   -0.2758    0.0000 C   0  0  0  0  0  0  0  0  0  0  0  0
    2.4489   -2.0959    0.0000 C   0  0  0  0  0  0  0  0  0  0  0  0
    4.0594   -0.5516    0.0000 C   0  0  0  0  0  0  0  0  0  0  0  0
    0.1214   -1.1031    0.0000 C   0  0  0  0  0  0  0  0  0  0  0  0
    0.8163    0.1214    0.0000 C   0  0  0  0  0  0  0  0  0  0  0  0
    4.2579   -1.8863    0.0000 C   0  0  0  0  0  0  0  0  0  0  0  0
    4.8537   -0.7170    0.0000 C   0  0  0  0  0  0  0  0  0  0  0  0
   -0.6067    0.1214    0.0000 C   0  0  0  0  0  0  0  0  0  0  0  0
    3.7064    0.1876    0.0000 C   0  0  0  0  0  0  0  0  0  0  0  0
   -2.0297    0.1324    0.0000 C   0  0  0  0  0  0  0  0  0  0  0  0
   -1.2906   -0.2758    0.0000 C   0  0  0  0  0  0  0  0  0  0  0  0
   -3.4417    0.9597    0.0000 C   0  0  0  0  0  0  0  0  0  0  0  0
   -2.7247   -0.2758    0.0000 C   0  0  0  0  0  0  0  0  0  0  0  0
   -3.4417    0.1324    0.0000 C   0  0  0  0  0  0  0  0  0  0  0  0
   -4.8978    1.0369    0.0000 C   0  0  0  0  0  0  0  0  0  0  0  0
   -2.7136   -1.1141    0.0000 C   0  0  0  0  0  0  0  0  0  0  0  0
  1 15  1  0  0  0  0
  2 14  2  0  0  0  0
  3 23  1  0  0  0  0
  3 24  1  0  0  0  0
  4 24  2  0  0  0  0
  5 14  1  0  0  0  0
  5 17  1  0  0  0  0
  5 19  1  0  0  0  0
  6 21  1  0  0  0  0
  6 22  1  0  0  0  0
  6 25  1  0  0  0  0
  7 10  1  0  0  0  0
  7 29  1  0  0  0  0
  7 32  1  0  0  0  0
  8  9  1  0  0  0  0
  8 27  2  0  0  0  0
  9 29  2  0  0  0  0
 10 11  2  0  0  0  0
 11 12  1  0  0  0  0
 12 32  2  0  0  0  0
 13 14  1  0  0  0  0
 13 15  1  0  0  0  0
 13 16  1  0  0  0  0
 13 18  1  0  0  0  0
 15 21  1  0  0  0  0
 16 19  1  0  0  0  0
 17 20  2  0  0  0  0
 17 23  1  0  0  0  0
 18 22  1  0  0  0  0
 20 24  1  0  0  0  0
 20 26  1  0  0  0  0
 25 28  1  0  0  0  0
 27 28  1  0  0  0  0
 27 30  1  0  0  0  0
 29 31  1  0  0  0  0
 30 31  2  0  0  0  0
 30 33  1  0  0  0  0
M  END
> <PUBCHEM_COMPOUND_ID_TYPE>
0

> <PUBCHEM_TOTAL_CHARGE>
0

> <PUBCHEM_SUBSTANCE_ID>
310944146

> <PUBCHEM_SUBSTANCE_VERSION>
1

> <PUBCHEM_EXT_DATASOURCE_NAME>
4488

> <PUBCHEM_EXT_DATASOURCE_REGID>
SCHEMBL16122221

> <PUBCHEM_SUBSTANCE_COMMENT>
InChI=1S/C21H25FN8O3/c1-13-9-18(30-12-23-26-27-30)25-24-15(13)3-6-28-7-4-21(17(22)10-28)5-8-29(20(21)32)16-11-33-19(31)14(16)2/h9,12,17H,3-8,10-11H2,1-2H3
InChIKey=YWCWENKCXSCTFD-UHFFFAOYSA-N

> <PUBCHEM_SUBSTANCE_SYNONYM>
SCHEMBL16122221

> <PUBCHEM_XREF_EXT_ID>
SCHEMBL16122221

> <PUBCHEM_EXT_DATASOURCE_URL>
https://www.surechembl.org/

> <PUBCHEM_EXT_SUBSTANCE_URL>
https://www.surechembl.org/chemical/SCHEMBL16122221

> <PUBCHEM_CID_ASSOCIATIONS>
117610427  1

> <PUBCHEM_COORDINATE_TYPE>
1
3

$$$$
