310934498
  -OEChem-07211613022D

 29 32  0     1  0  0  0  0  0999 V2000
    6.3915   -1.6957    0.0000 S   0  0  0  0  0  0  0  0  0  0  0  0
    4.5654    0.0000    0.0000 O   0  0  0  0  0  0  0  0  0  0  0  0
    3.0523   -0.6783    0.0000 O   0  0  0  0  0  0  0  0  0  0  0  0
    2.2436   -1.8262    0.0000 O   0  0  0  0  0  0  0  0  0  0  0  0
    4.4089   -1.6696    0.0000 N   0  0  0  0  0  0  0  0  0  0  0  0
    3.7306   -1.1740    0.0000 N   0  0  0  0  0  0  0  0  0  0  0  0
    5.1393   -1.3044    0.0000 C   0  0  3  0  0  0  0  0  0  0  0  0
    4.4871   -0.8348    0.0000 C   0  0  0  0  0  0  0  0  0  0  0  0
    5.9220   -1.0435    0.0000 C   0  0  0  0  0  0  0  0  0  0  0  0
    5.1393   -2.1131    0.0000 C   0  0  0  0  0  0  0  0  0  0  0  0
    5.9220   -2.3740    0.0000 C   0  0  0  0  0  0  0  0  0  0  0  0
    4.3828   -2.5044    0.0000 C   0  0  0  0  0  0  0  0  0  0  0  0
    3.6523   -2.8697    0.0000 C   0  0  0  0  0  0  0  0  0  0  0  0
    2.1653   -3.6263    0.0000 C   0  0  0  0  0  0  0  0  0  0  0  0
    2.9479   -2.4262    0.0000 C   0  0  0  0  0  0  0  0  0  0  0  0
    3.6002   -3.7045    0.0000 C   0  0  0  0  0  0  0  0  0  0  0  0
    1.4609   -4.0176    0.0000 C   0  0  0  0  0  0  0  0  0  0  0  0
    2.2175   -2.8175    0.0000 C   0  0  0  0  0  0  0  0  0  0  0  0
    2.8697   -4.0697    0.0000 C   0  0  0  0  0  0  0  0  0  0  0  0
    2.3218   -1.0174    0.0000 C   0  0  3  0  0  0  0  0  0  0  0  0
    1.4088   -4.8524    0.0000 C   0  0  0  0  0  0  0  0  0  0  0  0
    0.7566   -3.5741    0.0000 C   0  0  0  0  0  0  0  0  0  0  0  0
    1.6696   -0.5479    0.0000 C   0  0  0  0  0  0  0  0  0  0  0  0
    0.7043   -5.2176    0.0000 C   0  0  0  0  0  0  0  0  0  0  0  0
    0.0261   -3.9654    0.0000 C   0  0  0  0  0  0  0  0  0  0  0  0
    1.4609   -2.1392    0.0000 C   0  0  0  0  0  0  0  0  0  0  0  0
    0.8870   -0.8348    0.0000 C   0  0  0  0  0  0  0  0  0  0  0  0
    0.0000   -4.7741    0.0000 C   0  0  0  0  0  0  0  0  0  0  0  0
    0.8087   -1.6696    0.0000 C   0  0  0  0  0  0  0  0  0  0  0  0
  1  9  1  0  0  0  0
  1 11  1  0  0  0  0
  2  8  2  0  0  0  0
  3  6  1  0  0  0  0
  3 20  1  0  0  0  0
  4 20  1  0  0  0  0
  4 26  1  0  0  0  0
  5  7  1  0  0  0  0
  5 12  1  0  0  0  0
  6  8  1  0  0  0  0
  7  8  1  0  0  0  0
  7  9  1  0  0  0  0
  7 10  1  0  0  0  0
 10 11  1  0  0  0  0
 12 13  1  0  0  0  0
 13 15  2  0  0  0  0
 13 16  1  0  0  0  0
 14 17  1  0  0  0  0
 14 18  2  0  0  0  0
 14 19  1  0  0  0  0
 15 18  1  0  0  0  0
 16 19  2  0  0  0  0
 17 21  2  0  0  0  0
 17 22  1  0  0  0  0
 20 23  1  0  0  0  0
 21 24  1  0  0  0  0
 22 25  2  0  0  0  0
 23 27  1  0  0  0  0
 24 28  2  0  0  0  0
 25 28  1  0  0  0  0
 26 29  1  0  0  0  0
 27 29  1  0  0  0  0
M  END
> <PUBCHEM_COMPOUND_ID_TYPE>
0

> <PUBCHEM_TOTAL_CHARGE>
0

> <PUBCHEM_SUBSTANCE_ID>
310934498

> <PUBCHEM_SUBSTANCE_VERSION>
1

> <PUBCHEM_EXT_DATASOURCE_NAME>
4488

> <PUBCHEM_EXT_DATASOURCE_REGID>
SCHEMBL16111983

> <PUBCHEM_SUBSTANCE_COMMENT>
InChI=1S/C23H28N2O3S/c26-22(25-28-21-8-4-5-14-27-21)23(13-15-29-17-23)24-16-18-9-11-20(12-10-18)19-6-2-1-3-7-19/h1-3,6-7,9-12,21,24H,4-5,8,13-17H2,(H,25,26)
InChIKey=SYOPEYIDZSPDLC-UHFFFAOYSA-N

> <PUBCHEM_SUBSTANCE_SYNONYM>
SCHEMBL16111983

> <PUBCHEM_XREF_EXT_ID>
SCHEMBL16111983

> <PUBCHEM_EXT_DATASOURCE_URL>
https://www.surechembl.org/

> <PUBCHEM_EXT_SUBSTANCE_URL>
https://www.surechembl.org/chemical/SCHEMBL16111983

> <PUBCHEM_CID_ASSOCIATIONS>
117602697  1

> <PUBCHEM_COORDINATE_TYPE>
1
3

$$$$
