310939581
  -OEChem-07211613022D

 38 42  0     1  0  0  0  0  0999 V2000
   -0.5571    3.0938    0.0000 Cl  0  0  0  0  0  0  0  0  0  0  0  0
   -1.9861    0.6187    0.0000 O   0  0  0  0  0  0  0  0  0  0  0  0
    3.7297   -2.6812    0.0000 O   0  0  0  0  0  0  0  0  0  0  0  0
   -3.4150   -0.2062    0.0000 O   0  0  0  0  0  0  0  0  0  0  0  0
    1.5863    1.0313    0.0000 N   0  0  0  0  0  0  0  0  0  0  0  0
    0.8718   -0.2062    0.0000 N   0  0  0  0  0  0  0  0  0  0  0  0
    1.5863   -1.4437    0.0000 N   0  0  0  0  0  0  0  0  0  0  0  0
    3.9084    2.0233    0.0000 N   0  0  0  0  0  0  0  0  0  0  0  0
    3.7689    0.6957    0.0000 N   0  0  0  0  0  0  0  0  0  0  0  0
   -4.8440    0.6187    0.0000 N   0  0  0  0  0  0  0  0  0  0  0  0
    2.3008    0.6187    0.0000 C   0  0  0  0  0  0  0  0  0  0  0  0
    2.3008   -0.2062    0.0000 C   0  0  0  0  0  0  0  0  0  0  0  0
    1.5863   -0.6187    0.0000 C   0  0  0  0  0  0  0  0  0  0  0  0
    3.0152    1.0313    0.0000 C   0  0  0  0  0  0  0  0  0  0  0  0
    0.8718    0.6187    0.0000 C   0  0  0  0  0  0  0  0  0  0  0  0
    0.1573    1.0313    0.0000 C   0  0  0  0  0  0  0  0  0  0  0  0
    4.3209    1.3088    0.0000 C   0  0  0  0  0  0  0  0  0  0  0  0
    3.1015    1.8517    0.0000 C   0  0  0  0  0  0  0  0  0  0  0  0
    2.3008   -1.8563    0.0000 C   0  0  0  0  0  0  0  0  0  0  0  0
   -0.5571    0.6187    0.0000 C   0  0  0  0  0  0  0  0  0  0  0  0
    0.1573    1.8563    0.0000 C   0  0  0  0  0  0  0  0  0  0  0  0
    3.0152   -0.6187    0.0000 C   0  0  0  0  0  0  0  0  0  0  0  0
    4.3209    2.7377    0.0000 C   0  0  0  0  0  0  0  0  0  0  0  0
    5.1459    1.3088    0.0000 C   0  0  0  0  0  0  0  0  0  0  0  0
   -1.2716    1.0313    0.0000 C   0  0  0  0  0  0  0  0  0  0  0  0
   -0.5571    2.2687    0.0000 C   0  0  0  0  0  0  0  0  0  0  0  0
   -1.2716    1.8563    0.0000 C   0  0  0  0  0  0  0  0  0  0  0  0
    0.8718   -1.8562    0.0000 C   0  0  0  0  0  0  0  0  0  0  0  0
    2.3008   -2.6812    0.0000 C   0  0  0  0  0  0  0  0  0  0  0  0
    3.0152   -1.4437    0.0000 C   0  0  0  0  0  0  0  0  0  0  0  0
    5.1459    2.7377    0.0000 C   0  0  0  0  0  0  0  0  0  0  0  0
    5.5584    2.0233    0.0000 C   0  0  0  0  0  0  0  0  0  0  0  0
    3.0152   -3.0938    0.0000 C   0  0  0  0  0  0  0  0  0  0  0  0
    3.7297   -1.8563    0.0000 C   0  0  0  0  0  0  0  0  0  0  0  0
   -2.7005    1.0313    0.0000 C   0  0  0  0  0  0  0  0  0  0  0  0
   -3.4150    0.6187    0.0000 C   0  0  3  0  0  0  0  0  0  0  0  0
   -4.1295    1.0313    0.0000 C   0  0  0  0  0  0  0  0  0  0  0  0
   -5.5584    1.0313    0.0000 C   0  0  0  0  0  0  0  0  0  0  0  0
  1 26  1  0  0  0  0
  2 25  1  0  0  0  0
  2 35  1  0  0  0  0
  3 33  1  0  0  0  0
  3 34  1  0  0  0  0
  4 36  1  0  0  0  0
  5 11  1  0  0  0  0
  5 15  2  0  0  0  0
  6 13  2  0  0  0  0
  6 15  1  0  0  0  0
  7 13  1  0  0  0  0
  7 19  1  0  0  0  0
  7 28  1  0  0  0  0
  8 17  1  0  0  0  0
  8 18  1  0  0  0  0
  8 23  1  0  0  0  0
  9 14  1  0  0  0  0
  9 17  2  0  0  0  0
 10 37  1  0  0  0  0
 10 38  1  0  0  0  0
 11 12  2  0  0  0  0
 11 14  1  0  0  0  0
 12 13  1  0  0  0  0
 12 22  1  0  0  0  0
 14 18  2  0  0  0  0
 15 16  1  0  0  0  0
 16 20  2  0  0  0  0
 16 21  1  0  0  0  0
 17 24  1  0  0  0  0
 19 29  1  0  0  0  0
 19 30  1  0  0  0  0
 20 25  1  0  0  0  0
 21 26  2  0  0  0  0
 23 31  2  0  0  0  0
 24 32  2  0  0  0  0
 25 27  2  0  0  0  0
 26 27  1  0  0  0  0
 29 33  1  0  0  0  0
 30 34  1  0  0  0  0
 31 32  1  0  0  0  0
 35 36  1  0  0  0  0
 36 37  1  0  0  0  0
M  END
> <PUBCHEM_COMPOUND_ID_TYPE>
0

> <PUBCHEM_TOTAL_CHARGE>
0

> <PUBCHEM_SUBSTANCE_ID>
310939581

> <PUBCHEM_SUBSTANCE_VERSION>
1

> <PUBCHEM_EXT_DATASOURCE_NAME>
4488

> <PUBCHEM_EXT_DATASOURCE_REGID>
SCHEMBL16117510

> <PUBCHEM_SUBSTANCE_COMMENT>
InChI=1S/C28H33ClN6O3/c1-18-26(24-16-35-9-5-4-6-25(35)31-24)32-27(33-28(18)34(3)21-7-10-37-11-8-21)19-12-20(29)14-23(13-19)38-17-22(36)15-30-2/h4-6,9,12-14,16,21-22,30,36H,7-8,10-11,15,17H2,1-3H3
InChIKey=LNOZSCXBECJCFA-UHFFFAOYSA-N

> <PUBCHEM_SUBSTANCE_SYNONYM>
SCHEMBL16117510

> <PUBCHEM_XREF_EXT_ID>
SCHEMBL16117510

> <PUBCHEM_EXT_DATASOURCE_URL>
https://www.surechembl.org/

> <PUBCHEM_EXT_SUBSTANCE_URL>
https://www.surechembl.org/chemical/SCHEMBL16117510

> <PUBCHEM_CID_ASSOCIATIONS>
85473054  1

> <PUBCHEM_COORDINATE_TYPE>
1
3

$$$$
