310947498
  -OEChem-07211613022D

 19 18  0     1  0  0  0  0  0999 V2000
   -1.7862    3.2871    0.0000 O   0  0  0  0  0  0  0  0  0  0  0  0
   -2.5006    2.8746    0.0000 O   0  0  0  0  0  0  0  0  0  0  0  0
   -1.7862    4.1121    0.0000 O   0  0  0  0  0  0  0  0  0  0  0  0
   -3.9296    2.8746    0.0000 O   0  0  0  0  0  0  0  0  0  0  0  0
   -3.2151    4.1121    0.0000 O   0  0  0  0  0  0  0  0  0  0  0  0
    0.3572    2.8746    0.0000 N   0  0  0  0  0  0  0  0  0  0  0  0
    2.5006    3.2871    0.0000 N   0  0  0  0  0  0  0  0  0  0  0  0
   -0.3572    3.2871    0.0000 C   0  0  3  0  0  0  0  0  0  0  0  0
   -1.0717    2.8746    0.0000 C   0  0  0  0  0  0  0  0  0  0  0  0
   -0.3572    4.1121    0.0000 C   0  0  0  0  0  0  0  0  0  0  0  0
    1.0717    3.2871    0.0000 C   0  0  0  0  0  0  0  0  0  0  0  0
   -1.0717    4.5246    0.0000 C   0  0  0  0  0  0  0  0  0  0  0  0
    1.7862    2.8746    0.0000 C   0  0  0  0  0  0  0  0  0  0  0  0
    3.2151    2.8746    0.0000 C   0  0  3  0  0  0  0  0  0  0  0  0
    3.2151    2.0496    0.0000 C   0  0  0  0  0  0  0  0  0  0  0  0
   -3.2151    3.2871    0.0000 C   0  0  0  0  0  0  0  0  0  0  0  0
   -2.5006    4.5246    0.0000 C   0  0  0  0  0  0  0  0  0  0  0  0
    3.9296    3.2871    0.0000 C   0  0  0  0  0  0  0  0  0  0  0  0
    3.9296    1.6371    0.0000 C   0  0  0  0  0  0  0  0  0  0  0  0
  1  2  1  0  0  0  0
  1  9  1  0  0  0  0
  2 16  1  0  0  0  0
  3 12  1  0  0  0  0
  3 17  1  0  0  0  0
  4 16  2  0  0  0  0
  5 17  2  0  0  0  0
  6  8  1  0  0  0  0
  6 11  1  0  0  0  0
  7 13  1  0  0  0  0
  7 14  1  0  0  0  0
  8  9  1  0  0  0  0
  8 10  1  0  0  0  0
 10 12  1  0  0  0  0
 11 13  1  0  0  0  0
 14 15  1  0  0  0  0
 14 18  1  0  0  0  0
 15 19  1  0  0  0  0
M  END
> <PUBCHEM_COMPOUND_ID_TYPE>
0

> <PUBCHEM_TOTAL_CHARGE>
0

> <PUBCHEM_SUBSTANCE_ID>
310947498

> <PUBCHEM_SUBSTANCE_VERSION>
1

> <PUBCHEM_EXT_DATASOURCE_NAME>
4488

> <PUBCHEM_EXT_DATASOURCE_REGID>
SCHEMBL16125660

> <PUBCHEM_SUBSTANCE_COMMENT>
InChI=1S/C12H24N2O5/c1-3-11(2)13-5-6-14-12(4-7-17-9-15)8-18-19-10-16/h9-14H,3-8H2,1-2H3
InChIKey=GHKMSIPOXGTZAA-UHFFFAOYSA-N

> <PUBCHEM_SUBSTANCE_SYNONYM>
SCHEMBL16125660

> <PUBCHEM_XREF_EXT_ID>
SCHEMBL16125660

> <PUBCHEM_EXT_DATASOURCE_URL>
https://www.surechembl.org/

> <PUBCHEM_EXT_SUBSTANCE_URL>
https://www.surechembl.org/chemical/SCHEMBL16125660

> <PUBCHEM_CID_ASSOCIATIONS>
117613223  1

> <PUBCHEM_COORDINATE_TYPE>
1
3

$$$$
