310934149
  -OEChem-07211613022D

 43 48  0     1  0  0  0  0  0999 V2000
    3.7154    0.0000    0.0000 Cl  0  0  0  0  0  0  0  0  0  0  0  0
    2.5237   -6.4494    0.0000 O   0  0  0  0  0  0  0  0  0  0  0  0
    4.1360   -5.0123    0.0000 O   0  0  0  0  0  0  0  0  0  0  0  0
    6.2040   -2.8392    0.0000 O   0  5  0  0  0  0  0  0  0  0  0  0
    4.9772   -3.5752    0.0000 O   0  0  0  0  0  0  0  0  0  0  0  0
    2.9092   -4.2762    0.0000 N   0  0  0  0  0  0  0  0  0  0  0  0
    3.7855   -5.7133    0.0000 N   0  0  0  0  0  0  0  0  0  0  0  0
    6.2391   -5.8535    0.0000 N   0  0  0  0  0  0  0  0  0  0  0  0
    6.3442   -6.6947    0.0000 N   0  0  0  0  0  0  0  0  0  0  0  0
    5.3978   -2.8392    0.0000 N   0  3  0  0  0  0  0  0  0  0  0  0
    7.2906   -3.9257    0.0000 N   0  0  0  0  0  0  0  0  0  0  0  0
    2.5237   -5.0123    0.0000 C   0  0  3  0  0  0  0  0  0  0  0  0
    5.4329   -5.6783    0.0000 C   0  0  0  0  0  0  0  0  0  0  0  0
    2.9443   -5.7133    0.0000 C   0  0  0  0  0  0  0  0  0  0  0  0
    5.0123   -6.4144    0.0000 C   0  0  0  0  0  0  0  0  0  0  0  0
    3.7505   -2.8742    0.0000 C   0  0  0  0  0  0  0  0  0  0  0  0
    3.7505   -4.2762    0.0000 C   0  0  0  0  0  0  0  0  0  0  0  0
    4.1360   -2.1381    0.0000 C   0  0  0  0  0  0  0  0  0  0  0  0
    4.1711   -6.4144    0.0000 C   0  0  0  0  0  0  0  0  0  0  0  0
    4.1711   -3.5752    0.0000 C   0  0  0  0  0  0  0  0  0  0  0  0
    5.0123   -4.9772    0.0000 C   0  0  0  0  0  0  0  0  0  0  0  0
    4.3814   -5.1174    0.0000 C   0  0  0  0  0  0  0  0  0  0  0  0
    2.4886   -3.5752    0.0000 C   0  0  0  0  0  0  0  0  0  0  0  0
    4.9772   -2.1381    0.0000 C   0  0  0  0  0  0  0  0  0  0  0  0
    5.5731   -7.0102    0.0000 C   0  0  0  0  0  0  0  0  0  0  0  0
    2.9092   -2.8742    0.0000 C   0  0  0  0  0  0  0  0  0  0  0  0
    1.6824   -5.0123    0.0000 C   0  0  0  0  0  0  0  0  0  0  0  0
    3.7154   -1.4371    0.0000 C   0  0  0  0  0  0  0  0  0  0  0  0
    6.8349   -5.2927    0.0000 C   0  0  0  0  0  0  0  0  0  0  0  0
    1.2618   -4.3113    0.0000 C   0  0  0  0  0  0  0  0  0  0  0  0
    5.3628   -1.4020    0.0000 C   0  0  0  0  0  0  0  0  0  0  0  0
    4.1360   -0.7010    0.0000 C   0  0  0  0  0  0  0  0  0  0  0  0
    4.9422   -0.7010    0.0000 C   0  0  0  0  0  0  0  0  0  0  0  0
    6.6597   -4.4865    0.0000 C   0  0  0  0  0  0  0  0  0  0  0  0
    0.4206   -4.3113    0.0000 C   0  0  0  0  0  0  0  0  0  0  0  0
    1.6474   -3.5752    0.0000 C   0  0  0  0  0  0  0  0  0  0  0  0
    0.0000   -3.6103    0.0000 C   0  0  0  0  0  0  0  0  0  0  0  0
    1.2618   -2.8742    0.0000 C   0  0  0  0  0  0  0  0  0  0  0  0
    0.4206   -2.8742    0.0000 C   0  0  0  0  0  0  0  0  0  0  0  0
    7.1855   -3.1195    0.0000 C   0  0  0  0  0  0  0  0  0  0  0  0
    8.0968   -4.1010    0.0000 C   0  0  0  0  0  0  0  0  0  0  0  0
    7.9566   -2.7690    0.0000 C   0  0  0  0  0  0  0  0  0  0  0  0
    8.4824   -3.3999    0.0000 C   0  0  0  0  0  0  0  0  0  0  0  0
  1 32  1  0  0  0  0
  2 14  2  0  0  0  0
  3 17  2  0  0  0  0
  4 10  1  0  0  0  0
  5 10  2  0  0  0  0
  6 12  1  0  0  0  0
  6 17  1  0  0  0  0
  6 23  1  0  0  0  0
  7 14  1  0  0  0  0
  7 19  1  0  0  0  0
  7 22  1  0  0  0  0
  8  9  1  0  0  0  0
  8 13  1  0  0  0  0
  8 29  1  0  0  0  0
  9 25  2  0  0  0  0
 10 24  1  0  0  0  0
 11 34  1  0  0  0  0
 11 40  1  0  0  0  0
 11 41  1  0  0  0  0
 12 14  1  0  0  0  0
 12 27  1  0  0  0  0
 13 15  2  0  0  0  0
 13 21  1  0  0  0  0
 15 19  1  0  0  0  0
 15 25  1  0  0  0  0
 16 18  1  0  0  0  0
 16 20  2  0  0  0  0
 16 26  1  0  0  0  0
 17 20  1  0  0  0  0
 18 24  1  0  0  0  0
 18 28  2  0  0  0  0
 21 22  1  0  0  0  0
 23 26  2  0  0  0  0
 24 31  2  0  0  0  0
 27 30  1  0  0  0  0
 28 32  1  0  0  0  0
 29 34  1  0  0  0  0
 30 35  2  0  0  0  0
 30 36  1  0  0  0  0
 31 33  1  0  0  0  0
 32 33  2  0  0  0  0
 35 37  1  0  0  0  0
 36 38  2  0  0  0  0
 37 39  2  0  0  0  0
 38 39  1  0  0  0  0
 40 42  1  0  0  0  0
 41 43  1  0  0  0  0
 42 43  1  0  0  0  0
M  CHG  2   4  -1  10   1
M  END
> <PUBCHEM_COMPOUND_ID_TYPE>
0

> <PUBCHEM_TOTAL_CHARGE>
0

> <PUBCHEM_SUBSTANCE_ID>
310934149

> <PUBCHEM_SUBSTANCE_VERSION>
1

> <PUBCHEM_EXT_DATASOURCE_NAME>
4488

> <PUBCHEM_EXT_DATASOURCE_REGID>
SCHEMBL16111599

> <PUBCHEM_SUBSTANCE_COMMENT>
InChI=1S/C32H33ClN6O4/c33-26-8-9-29(39(42)43)27(20-26)24-10-15-37(31(40)19-24)30(18-23-6-2-1-3-7-23)32(41)36-14-11-28-25(22-36)21-34-38(28)17-16-35-12-4-5-13-35/h1-3,6-10,15,19-21,30H,4-5,11-14,16-18,22H2
InChIKey=WONAORUXOYNUGM-UHFFFAOYSA-N

> <PUBCHEM_SUBSTANCE_SYNONYM>
SCHEMBL16111599

> <PUBCHEM_XREF_EXT_ID>
SCHEMBL16111599

> <PUBCHEM_EXT_DATASOURCE_URL>
https://www.surechembl.org/

> <PUBCHEM_EXT_SUBSTANCE_URL>
https://www.surechembl.org/chemical/SCHEMBL16111599

> <PUBCHEM_CID_ASSOCIATIONS>
117602425  1

> <PUBCHEM_COORDINATE_TYPE>
1
3

$$$$
