310948596
  -OEChem-07211613022D

 22 23  0     1  0  0  0  0  0999 V2000
   -1.7523    2.8311    0.0000 Br  0  0  0  0  0  0  0  0  0  0  0  0
   -1.5873   -0.4535    0.0000 S   0  0  0  0  0  0  0  0  0  0  0  0
   -1.9035   -1.2094    0.0000 O   0  0  0  0  0  0  0  0  0  0  0  0
   -2.4120   -0.4261    0.0000 O   0  0  0  0  0  0  0  0  0  0  0  0
    1.0513   -1.4980    0.0000 O   0  0  0  0  0  0  0  0  0  0  0  0
    0.1306   -2.5837    0.0000 O   0  0  0  0  0  0  0  0  0  0  0  0
   -0.7627   -0.5360    0.0000 N   0  0  3  0  0  0  0  0  0  0  0  0
   -1.7385    0.3711    0.0000 C   0  0  0  0  0  0  0  0  0  0  0  0
   -0.3504   -1.2232    0.0000 C   0  0  0  0  0  0  0  0  0  0  0  0
   -1.0513    0.7834    0.0000 C   0  0  0  0  0  0  0  0  0  0  0  0
   -0.4329    0.2199    0.0000 C   0  0  0  0  0  0  0  0  0  0  0  0
    0.2955   -1.7454    0.0000 C   0  0  0  0  0  0  0  0  0  0  0  0
   -2.4669    0.7834    0.0000 C   0  0  0  0  0  0  0  0  0  0  0  0
   -1.0513    1.5942    0.0000 C   0  0  0  0  0  0  0  0  0  0  0  0
   -1.7523    2.0065    0.0000 C   0  0  0  0  0  0  0  0  0  0  0  0
   -1.1338   -1.5392    0.0000 C   0  0  0  0  0  0  0  0  0  0  0  0
    0.2955   -0.7284    0.0000 C   0  0  0  0  0  0  0  0  0  0  0  0
   -2.4669    1.5942    0.0000 C   0  0  0  0  0  0  0  0  0  0  0  0
    1.6836   -1.9928    0.0000 C   0  0  0  0  0  0  0  0  0  0  0  0
    1.5461   -2.8311    0.0000 C   0  0  0  0  0  0  0  0  0  0  0  0
    1.8072   -1.1957    0.0000 C   0  0  0  0  0  0  0  0  0  0  0  0
    2.4669   -1.7179    0.0000 C   0  0  0  0  0  0  0  0  0  0  0  0
  1 15  1  0  0  0  0
  2  3  2  0  0  0  0
  2  4  2  0  0  0  0
  2  7  1  0  0  0  0
  2  8  1  0  0  0  0
  5 12  1  0  0  0  0
  5 19  1  0  0  0  0
  6 12  2  0  0  0  0
  7  9  1  0  0  0  0
  7 11  1  0  0  0  0
  8 10  2  0  0  0  0
  8 13  1  0  0  0  0
  9 12  1  0  0  0  0
  9 16  1  0  0  0  0
  9 17  1  0  0  0  0
 10 11  1  0  0  0  0
 10 14  1  0  0  0  0
 13 18  2  0  0  0  0
 14 15  2  0  0  0  0
 15 18  1  0  0  0  0
 19 20  1  0  0  0  0
 19 21  1  0  0  0  0
 19 22  1  0  0  0  0
M  END
> <PUBCHEM_COMPOUND_ID_TYPE>
0

> <PUBCHEM_TOTAL_CHARGE>
0

> <PUBCHEM_SUBSTANCE_ID>
310948596

> <PUBCHEM_SUBSTANCE_VERSION>
1

> <PUBCHEM_EXT_DATASOURCE_NAME>
4488

> <PUBCHEM_EXT_DATASOURCE_REGID>
SCHEMBL16126779

> <PUBCHEM_SUBSTANCE_COMMENT>
InChI=1S/C15H20BrNO4S/c1-14(2,3)21-13(18)15(4,5)17-9-10-8-11(16)6-7-12(10)22(17,19)20/h6-8H,9H2,1-5H3
InChIKey=BEPQCDVVPOGIIQ-UHFFFAOYSA-N

> <PUBCHEM_SUBSTANCE_SYNONYM>
SCHEMBL16126779

> <PUBCHEM_XREF_EXT_ID>
SCHEMBL16126779

> <PUBCHEM_EXT_DATASOURCE_URL>
https://www.surechembl.org/

> <PUBCHEM_EXT_SUBSTANCE_URL>
https://www.surechembl.org/chemical/SCHEMBL16126779

> <PUBCHEM_CID_ASSOCIATIONS>
117614143  1

> <PUBCHEM_COORDINATE_TYPE>
1
3

$$$$
