310937992
  -OEChem-07211613022D

 20 22  0     1  0  0  0  0  0999 V2000
   -2.5484   -2.8066    0.0000 O   0  0  0  0  0  0  0  0  0  0  0  0
   -0.6548   -0.5465    0.0000 O   0  0  0  0  0  0  0  0  0  0  0  0
   -3.6910   -3.7318    0.0000 O   0  0  0  0  0  0  0  0  0  0  0  0
   -3.7679   -2.2637    0.0000 N   0  0  0  0  0  0  0  0  0  0  0  0
   -4.1720   -0.5887    0.0000 N   0  0  0  0  0  0  0  0  0  0  0  0
   -2.9458    0.5154    0.0000 N   0  0  0  0  0  0  0  0  0  0  0  0
   -0.9097   -1.3312    0.0000 N   0  0  0  0  0  0  0  0  0  0  0  0
   -3.3874   -0.8436    0.0000 C   0  0  0  0  0  0  0  0  0  0  0  0
   -2.7743   -0.2916    0.0000 C   0  0  0  0  0  0  0  0  0  0  0  0
   -3.2159   -1.6506    0.0000 C   0  0  3  0  0  0  0  0  0  0  0  0
   -1.9897   -0.5465    0.0000 C   0  0  0  0  0  0  0  0  0  0  0  0
   -1.3222   -0.0616    0.0000 C   0  0  0  0  0  0  0  0  0  0  0  0
   -1.7347   -1.3312    0.0000 C   0  0  0  0  0  0  0  0  0  0  0  0
   -3.3554   -2.9782    0.0000 C   0  0  0  0  0  0  0  0  0  0  0  0
   -2.4622   -1.9862    0.0000 C   0  0  0  0  0  0  0  0  0  0  0  0
   -4.3435    0.2183    0.0000 C   0  0  0  0  0  0  0  0  0  0  0  0
   -3.7304    0.7703    0.0000 C   0  0  0  0  0  0  0  0  0  0  0  0
   -4.5884   -2.1775    0.0000 C   0  0  0  0  0  0  0  0  0  0  0  0
   -1.3222    0.7634    0.0000 C   0  0  0  0  0  0  0  0  0  0  0  0
   -1.9897   -2.1158    0.0000 C   0  0  0  0  0  0  0  0  0  0  0  0
  1 14  1  0  0  0  0
  1 15  1  0  0  0  0
  2  7  1  0  0  0  0
  2 12  1  0  0  0  0
  3 14  2  0  0  0  0
  4 10  1  0  0  0  0
  4 14  1  0  0  0  0
  4 18  1  0  0  0  0
  5  8  2  0  0  0  0
  5 16  1  0  0  0  0
  6  9  2  0  0  0  0
  6 17  1  0  0  0  0
  7 13  2  0  0  0  0
  8  9  1  0  0  0  0
  8 10  1  0  0  0  0
  9 11  1  0  0  0  0
 10 15  1  0  0  0  0
 11 12  2  0  0  0  0
 11 13  1  0  0  0  0
 12 19  1  0  0  0  0
 13 20  1  0  0  0  0
 16 17  2  0  0  0  0
M  END
> <PUBCHEM_COMPOUND_ID_TYPE>
0

> <PUBCHEM_TOTAL_CHARGE>
0

> <PUBCHEM_SUBSTANCE_ID>
310937992

> <PUBCHEM_SUBSTANCE_VERSION>
1

> <PUBCHEM_EXT_DATASOURCE_NAME>
4488

> <PUBCHEM_EXT_DATASOURCE_REGID>
SCHEMBL16115829

> <PUBCHEM_SUBSTANCE_COMMENT>
InChI=1S/C13H14N4O3/c1-7-10(8(2)20-16-7)12-11(14-4-5-15-12)9-6-19-13(18)17(9)3/h4-5,9H,6H2,1-3H3
InChIKey=QWCYHFANVBPMLE-UHFFFAOYSA-N

> <PUBCHEM_SUBSTANCE_SYNONYM>
SCHEMBL16115829

> <PUBCHEM_XREF_EXT_ID>
SCHEMBL16115829

> <PUBCHEM_EXT_DATASOURCE_URL>
https://www.surechembl.org/

> <PUBCHEM_EXT_SUBSTANCE_URL>
https://www.surechembl.org/chemical/SCHEMBL16115829

> <PUBCHEM_CID_ASSOCIATIONS>
117605589  1

> <PUBCHEM_COORDINATE_TYPE>
1
3

$$$$
