310934749
  -OEChem-07211613022D

 27 30  0     1  0  0  0  0  0999 V2000
   -0.7145   -1.6500    0.0000 Cl  0  0  0  0  0  0  0  0  0  0  0  0
    1.0396    1.4521    0.0000 S   0  0  0  0  0  0  0  0  0  0  0  0
    1.8242    1.1971    0.0000 O   0  0  0  0  0  0  0  0  0  0  0  0
    0.2549    1.7070    0.0000 O   0  0  0  0  0  0  0  0  0  0  0  0
    0.7846    0.6674    0.0000 N   0  0  0  0  0  0  0  0  0  0  0  0
   -0.7145    0.8250    0.0000 N   0  0  0  0  0  0  0  0  0  0  0  0
   -1.4290   -0.4125    0.0000 N   0  0  0  0  0  0  0  0  0  0  0  0
    3.7446    0.0000    0.0000 N   0  3  0  0  0  0  0  0  0  0  0  0
    0.0000    0.4125    0.0000 C   0  0  0  0  0  0  0  0  0  0  0  0
    1.2696    0.0000    0.0000 C   0  0  0  0  0  0  0  0  0  0  0  0
    0.0000   -0.4125    0.0000 C   0  0  0  0  0  0  0  0  0  0  0  0
    0.7846   -0.6674    0.0000 C   0  0  0  0  0  0  0  0  0  0  0  0
    2.0946    0.0000    0.0000 C   0  0  3  0  0  0  0  0  0  0  0  0
    1.2945    2.2367    0.0000 C   0  0  0  0  0  0  0  0  0  0  0  0
   -0.7145   -0.8250    0.0000 C   0  0  0  0  0  0  0  0  0  0  0  0
    2.5071   -0.7145    0.0000 C   0  0  0  0  0  0  0  0  0  0  0  0
    2.5071    0.7145    0.0000 C   0  0  0  0  0  0  0  0  0  0  0  0
   -1.4290    0.4125    0.0000 C   0  0  0  0  0  0  0  0  0  0  0  0
    2.1015    2.4082    0.0000 C   0  0  0  0  0  0  0  0  0  0  0  0
    0.7424    2.8498    0.0000 C   0  0  0  0  0  0  0  0  0  0  0  0
    3.3321   -0.7145    0.0000 C   0  0  0  0  0  0  0  0  0  0  0  0
    3.3321    0.7145    0.0000 C   0  0  0  0  0  0  0  0  0  0  0  0
    2.3564    3.1928    0.0000 C   0  0  0  0  0  0  0  0  0  0  0  0
    0.9974    3.6344    0.0000 C   0  0  0  0  0  0  0  0  0  0  0  0
    1.8044    3.8059    0.0000 C   0  0  0  0  0  0  0  0  0  0  0  0
    4.4590   -0.4125    0.0000 C   0  0  0  0  0  0  0  0  0  0  0  0
    4.4590    0.4125    0.0000 C   0  0  0  0  0  0  0  0  0  0  0  0
  1 15  1  0  0  0  0
  2  3  2  0  0  0  0
  2  4  2  0  0  0  0
  2  5  1  0  0  0  0
  2 14  1  0  0  0  0
  5  9  1  0  0  0  0
  5 10  1  0  0  0  0
  6  9  2  0  0  0  0
  6 18  1  0  0  0  0
  7 15  1  0  0  0  0
  7 18  2  0  0  0  0
  8 21  1  0  0  0  0
  8 22  1  0  0  0  0
  8 26  1  0  0  0  0
  8 27  1  0  0  0  0
  9 11  1  0  0  0  0
 10 12  2  0  0  0  0
 10 13  1  0  0  0  0
 11 12  1  0  0  0  0
 11 15  2  0  0  0  0
 13 16  1  0  0  0  0
 13 17  1  0  0  0  0
 14 19  2  0  0  0  0
 14 20  1  0  0  0  0
 16 21  2  0  0  0  0
 17 22  1  0  0  0  0
 19 23  1  0  0  0  0
 20 24  2  0  0  0  0
 23 25  2  0  0  0  0
 24 25  1  0  0  0  0
M  CHG  1   8   1
M  END
> <PUBCHEM_COMPOUND_ID_TYPE>
0

> <PUBCHEM_TOTAL_CHARGE>
1

> <PUBCHEM_SUBSTANCE_ID>
310934749

> <PUBCHEM_SUBSTANCE_VERSION>
1

> <PUBCHEM_EXT_DATASOURCE_NAME>
4488

> <PUBCHEM_EXT_DATASOURCE_REGID>
SCHEMBL16112250

> <PUBCHEM_SUBSTANCE_COMMENT>
InChI=1S/C19H20ClN4O2S/c1-24(2)10-8-14(9-11-24)17-12-16-18(20)21-13-22-19(16)23(17)27(25,26)15-6-4-3-5-7-15/h3-8,10,12-14H,9,11H2,1-2H3/q+1
InChIKey=KOEXJGIRJXEBSX-UHFFFAOYSA-N

> <PUBCHEM_SUBSTANCE_SYNONYM>
SCHEMBL16112250

> <PUBCHEM_XREF_EXT_ID>
SCHEMBL16112250

> <PUBCHEM_EXT_DATASOURCE_URL>
https://www.surechembl.org/

> <PUBCHEM_EXT_SUBSTANCE_URL>
https://www.surechembl.org/chemical/SCHEMBL16112250

> <PUBCHEM_CID_ASSOCIATIONS>
117602901  1

> <PUBCHEM_COORDINATE_TYPE>
1
3

$$$$
