310932308
  -OEChem-07211613022D

 26 28  0     1  0  0  0  0  0999 V2000
    3.5457   -1.6281    0.0000 O   0  0  0  0  0  0  0  0  0  0  0  0
    4.6311   -3.5457    0.0000 O   0  0  0  0  0  0  0  0  0  0  0  0
    5.3547   -2.3155    0.0000 O   0  0  0  0  0  0  0  0  0  0  0  0
    0.7960    0.0000    0.0000 O   0  0  0  0  0  0  0  0  0  0  0  0
    3.1115   -2.3155    0.0000 C   0  0  3  0  0  0  0  0  0  0  0  0
    3.9436   -2.3155    0.0000 C   0  0  3  0  0  0  0  0  0  0  0  0
    2.5326   -1.7367    0.0000 C   0  0  0  0  0  0  0  0  0  0  0  0
    2.4241   -2.7497    0.0000 C   0  0  0  0  0  0  0  0  0  0  0  0
    4.6311   -2.7497    0.0000 C   0  0  0  0  0  0  0  0  0  0  0  0
    1.7367   -1.9538    0.0000 C   0  0  0  0  0  0  0  0  0  0  0  0
    2.7497   -0.9407    0.0000 C   0  0  0  0  0  0  0  0  0  0  0  0
    2.3879   -3.5457    0.0000 C   0  0  0  0  0  0  0  0  0  0  0  0
    1.7005   -2.3155    0.0000 C   0  0  0  0  0  0  0  0  0  0  0  0
    1.1578   -1.3748    0.0000 C   0  0  0  0  0  0  0  0  0  0  0  0
    2.1708   -0.3618    0.0000 C   0  0  0  0  0  0  0  0  0  0  0  0
    1.3748   -0.5789    0.0000 C   0  0  0  0  0  0  0  0  0  0  0  0
    1.7005   -3.9798    0.0000 C   0  0  0  0  0  0  0  0  0  0  0  0
    0.9769   -2.7497    0.0000 C   0  0  0  0  0  0  0  0  0  0  0  0
    0.9769   -3.5457    0.0000 C   0  0  0  0  0  0  0  0  0  0  0  0
    5.3547   -3.9798    0.0000 C   0  0  0  0  0  0  0  0  0  0  0  0
    5.3547   -4.7758    0.0000 C   0  0  0  0  0  0  0  0  0  0  0  0
    0.0000   -0.2171    0.0000 C   0  0  0  0  0  0  0  0  0  0  0  0
    6.0783   -5.1738    0.0000 C   0  0  0  0  0  0  0  0  0  0  0  0
    6.0783   -6.0059    0.0000 C   0  0  0  0  0  0  0  0  0  0  0  0
    6.8019   -6.4039    0.0000 C   0  0  0  0  0  0  0  0  0  0  0  0
    6.8019   -7.2360    0.0000 C   0  0  0  0  0  0  0  0  0  0  0  0
  1  5  1  0  0  0  0
  1  6  1  0  0  0  0
  2  9  1  0  0  0  0
  2 20  1  0  0  0  0
  3  9  2  0  0  0  0
  4 16  1  0  0  0  0
  4 22  1  0  0  0  0
  5  6  1  0  0  0  0
  5  7  1  0  0  0  0
  5  8  1  0  0  0  0
  6  9  1  0  0  0  0
  7 10  2  0  0  0  0
  7 11  1  0  0  0  0
  8 12  2  0  0  0  0
  8 13  1  0  0  0  0
 10 14  1  0  0  0  0
 11 15  2  0  0  0  0
 12 17  1  0  0  0  0
 13 18  2  0  0  0  0
 14 16  2  0  0  0  0
 15 16  1  0  0  0  0
 17 19  2  0  0  0  0
 18 19  1  0  0  0  0
 20 21  1  0  0  0  0
 21 23  1  0  0  0  0
 23 24  1  0  0  0  0
 24 25  1  0  0  0  0
 25 26  1  0  0  0  0
M  END
> <PUBCHEM_COMPOUND_ID_TYPE>
0

> <PUBCHEM_TOTAL_CHARGE>
0

> <PUBCHEM_SUBSTANCE_ID>
310932308

> <PUBCHEM_SUBSTANCE_VERSION>
1

> <PUBCHEM_EXT_DATASOURCE_NAME>
4488

> <PUBCHEM_EXT_DATASOURCE_REGID>
SCHEMBL16109672

> <PUBCHEM_SUBSTANCE_COMMENT>
InChI=1S/C22H26O4/c1-3-4-5-9-16-25-21(23)20-22(26-20,17-10-7-6-8-11-17)18-12-14-19(24-2)15-13-18/h6-8,10-15,20H,3-5,9,16H2,1-2H3
InChIKey=YHUQGGUHSMLOMQ-UHFFFAOYSA-N

> <PUBCHEM_SUBSTANCE_SYNONYM>
SCHEMBL16109672

> <PUBCHEM_XREF_EXT_ID>
SCHEMBL16109672

> <PUBCHEM_EXT_DATASOURCE_URL>
https://www.surechembl.org/

> <PUBCHEM_EXT_SUBSTANCE_URL>
https://www.surechembl.org/chemical/SCHEMBL16109672

> <PUBCHEM_CID_ASSOCIATIONS>
117600866  1

> <PUBCHEM_COORDINATE_TYPE>
1
3

$$$$
