310946529
  -OEChem-07211613022D

 25 24  0     1  0  0  0  0  0999 V2000
    3.1712  -12.3507    0.0000 O   0  0  0  0  0  0  0  0  0  0  0  0
    6.7436  -13.5882    0.0000 O   0  0  0  0  0  0  0  0  0  0  0  0
    2.4568  -14.4132    0.0000 O   0  0  0  0  0  0  0  0  0  0  0  0
    9.6015  -14.4132    0.0000 O   0  0  0  0  0  0  0  0  0  0  0  0
    9.6015  -11.9382    0.0000 O   0  0  0  0  0  0  0  0  0  0  0  0
    7.4581  -12.3507    0.0000 O   0  0  0  0  0  0  0  0  0  0  0  0
    2.4568  -11.1132    0.0000 O   0  5  0  0  0  0  0  0  0  0  0  0
    1.7423  -12.3507    0.0000 O   0  0  0  0  0  0  0  0  0  0  0  0
    3.1712  -15.6507    0.0000 O   0  5  0  0  0  0  0  0  0  0  0  0
    3.8857  -14.4132    0.0000 O   0  0  0  0  0  0  0  0  0  0  0  0
    8.1725  -13.5882    0.0000 N   0  0  0  0  0  0  0  0  0  0  0  0
    2.4568  -11.9382    0.0000 N   0  3  0  0  0  0  0  0  0  0  0  0
    3.1712  -14.8257    0.0000 N   0  3  0  0  0  0  0  0  0  0  0  0
    8.8870  -13.1757    0.0000 C   0  0  3  0  0  0  0  0  0  0  0  0
    3.1712  -13.1757    0.0000 C   0  0  3  0  0  0  0  0  0  0  0  0
    9.6015  -13.5882    0.0000 C   0  0  0  0  0  0  0  0  0  0  0  0
    8.8870  -12.3507    0.0000 C   0  0  3  0  0  0  0  0  0  0  0  0
    7.4581  -13.1757    0.0000 C   0  0  0  0  0  0  0  0  0  0  0  0
    2.4568  -13.5882    0.0000 C   0  0  0  0  0  0  0  0  0  0  0  0
    3.8857  -13.5882    0.0000 C   0  0  0  0  0  0  0  0  0  0  0  0
    4.6002  -13.1757    0.0000 C   0  0  0  0  0  0  0  0  0  0  0  0
    6.0291  -13.1757    0.0000 C   0  0  0  0  0  0  0  0  0  0  0  0
    5.3146  -13.5882    0.0000 C   0  0  0  0  0  0  0  0  0  0  0  0
   10.3159  -13.1757    0.0000 C   0  0  0  0  0  0  0  0  0  0  0  0
    8.1725  -11.9382    0.0000 C   0  0  0  0  0  0  0  0  0  0  0  0
  1 12  1  0  0  0  0
  1 15  1  0  0  0  0
  2 18  1  0  0  0  0
  2 22  1  0  0  0  0
  3 13  1  0  0  0  0
  3 19  1  0  0  0  0
  4 16  2  0  0  0  0
  5 17  1  0  0  0  0
  6 18  2  0  0  0  0
  7 12  1  0  0  0  0
  8 12  2  0  0  0  0
  9 13  1  0  0  0  0
 10 13  2  0  0  0  0
 11 14  1  0  0  0  0
 11 18  1  0  0  0  0
 14 16  1  0  0  0  0
 14 17  1  0  0  0  0
 15 19  1  0  0  0  0
 15 20  1  0  0  0  0
 16 24  1  0  0  0  0
 17 25  1  0  0  0  0
 20 21  1  0  0  0  0
 21 23  1  0  0  0  0
 22 23  1  0  0  0  0
M  CHG  4   7  -1   9  -1  12   1  13   1
M  END
> <PUBCHEM_COMPOUND_ID_TYPE>
0

> <PUBCHEM_TOTAL_CHARGE>
0

> <PUBCHEM_SUBSTANCE_ID>
310946529

> <PUBCHEM_SUBSTANCE_VERSION>
1

> <PUBCHEM_EXT_DATASOURCE_NAME>
4488

> <PUBCHEM_EXT_DATASOURCE_REGID>
SCHEMBL16124650

> <PUBCHEM_SUBSTANCE_COMMENT>
InChI=1S/C12H21N3O10/c1-8(16)11(9(2)17)13-12(18)23-6-4-3-5-10(25-15(21)22)7-24-14(19)20/h8,10-11,16H,3-7H2,1-2H3,(H,13,18)
InChIKey=KDTUOCRGSGBNMP-UHFFFAOYSA-N

> <PUBCHEM_SUBSTANCE_SYNONYM>
SCHEMBL16124650

> <PUBCHEM_XREF_EXT_ID>
SCHEMBL16124650

> <PUBCHEM_EXT_DATASOURCE_URL>
https://www.surechembl.org/

> <PUBCHEM_EXT_SUBSTANCE_URL>
https://www.surechembl.org/chemical/SCHEMBL16124650

> <PUBCHEM_CID_ASSOCIATIONS>
117612434  1

> <PUBCHEM_COORDINATE_TYPE>
1
3

$$$$
