310940219
  -OEChem-07211613022D

 38 41  0     1  0  0  0  0  0999 V2000
    3.2018   -0.3471    0.0000 Cl  0  0  0  0  0  0  0  0  0  0  0  0
    0.5293   -1.7701    0.0000 Cl  0  0  0  0  0  0  0  0  0  0  0  0
    4.0175   -1.7874    0.0000 F   0  0  0  0  0  0  0  0  0  0  0  0
   -2.3341   -1.8222    0.0000 O   0  0  0  0  0  0  0  0  0  0  0  0
    1.9523    0.3818    0.0000 O   0  0  0  0  0  0  0  0  0  0  0  0
   -3.7398   -1.4403    0.0000 O   0  0  0  0  0  0  0  0  0  0  0  0
   -1.7962    1.3016    0.0000 N   0  0  0  0  0  0  0  0  0  0  0  0
   -2.6985   -0.4339    0.0000 N   0  0  0  0  0  0  0  0  0  0  0  0
   -1.8829    2.1172    0.0000 N   0  0  0  0  0  0  0  0  0  0  0  0
    1.5532    2.5337    0.0000 N   0  0  0  0  0  0  0  0  0  0  0  0
   -4.0175    2.3601    0.0000 N   0  0  0  0  0  0  0  0  0  0  0  0
    2.8026    1.8048    0.0000 N   0  0  0  0  0  0  0  0  0  0  0  0
   -2.3862    0.7115    0.0000 C   0  0  0  0  0  0  0  0  0  0  0  0
   -1.9697   -0.0173    0.0000 C   0  0  0  0  0  0  0  0  0  0  0  0
   -3.0803    0.2950    0.0000 C   0  0  0  0  0  0  0  0  0  0  0  0
   -0.9805    1.0933    0.0000 C   0  0  0  0  0  0  0  0  0  0  0  0
   -2.5944    1.4924    0.0000 C   0  0  0  0  0  0  0  0  0  0  0  0
   -0.5640    1.8048    0.0000 C   0  0  0  0  0  0  0  0  0  0  0  0
   -2.9241   -1.2322    0.0000 C   0  0  0  0  0  0  0  0  0  0  0  0
    0.3037    1.7874    0.0000 C   0  0  0  0  0  0  0  0  0  0  0  0
   -1.0846    2.3775    0.0000 C   0  0  0  0  0  0  0  0  0  0  0  0
    1.5532    1.0586    0.0000 C   0  0  0  0  0  0  0  0  0  0  0  0
    0.7028    1.0933    0.0000 C   0  0  0  0  0  0  0  0  0  0  0  0
   -3.3407    1.9610    0.0000 C   0  0  0  0  0  0  0  0  0  0  0  0
    1.9350   -1.0759    0.0000 C   0  0  0  0  0  0  0  0  0  0  0  0
    0.7028    2.4990    0.0000 C   0  0  0  0  0  0  0  0  0  0  0  0
    1.9523    1.8048    0.0000 C   0  0  0  0  0  0  0  0  0  0  0  0
    1.5358   -0.3644    0.0000 C   0  0  3  0  0  0  0  0  0  0  0  0
   -1.5185   -1.6139    0.0000 C   0  0  0  0  0  0  0  0  0  0  0  0
    2.7680   -1.1107    0.0000 C   0  0  0  0  0  0  0  0  0  0  0  0
    1.5358   -1.7874    0.0000 C   0  0  0  0  0  0  0  0  0  0  0  0
    3.1671   -1.8222    0.0000 C   0  0  0  0  0  0  0  0  0  0  0  0
    1.9523   -2.4990    0.0000 C   0  0  0  0  0  0  0  0  0  0  0  0
    2.7506   -2.5337    0.0000 C   0  0  0  0  0  0  0  0  0  0  0  0
    0.7028   -0.3644    0.0000 C   0  0  0  0  0  0  0  0  0  0  0  0
   -0.9284   -2.2040    0.0000 C   0  0  0  0  0  0  0  0  0  0  0  0
   -1.3102   -0.8156    0.0000 C   0  0  0  0  0  0  0  0  0  0  0  0
   -0.7028   -1.4057    0.0000 C   0  0  0  0  0  0  0  0  0  0  0  0
  1 30  1  0  0  0  0
  2 31  1  0  0  0  0
  3 32  1  0  0  0  0
  4 19  1  0  0  0  0
  4 29  1  0  0  0  0
  5 22  1  0  0  0  0
  5 28  1  0  0  0  0
  6 19  2  0  0  0  0
  7  9  1  0  0  0  0
  7 13  1  0  0  0  0
  7 16  1  0  0  0  0
  8 14  1  0  0  0  0
  8 15  1  0  0  0  0
  8 19  1  0  0  0  0
  9 21  2  0  0  0  0
 10 26  2  0  0  0  0
 10 27  1  0  0  0  0
 11 24  3  0  0  0  0
 12 27  1  0  0  0  0
 13 14  1  0  0  0  0
 13 15  1  0  0  0  0
 13 17  1  0  0  0  0
 16 18  2  0  0  0  0
 17 24  1  0  0  0  0
 18 20  1  0  0  0  0
 18 21  1  0  0  0  0
 20 23  2  0  0  0  0
 20 26  1  0  0  0  0
 22 23  1  0  0  0  0
 22 27  2  0  0  0  0
 25 28  1  0  0  0  0
 25 30  2  0  0  0  0
 25 31  1  0  0  0  0
 28 35  1  0  0  0  0
 29 36  1  0  0  0  0
 29 37  1  0  0  0  0
 29 38  1  0  0  0  0
 30 32  1  0  0  0  0
 31 33  2  0  0  0  0
 32 34  2  0  0  0  0
 33 34  1  0  0  0  0
M  END
> <PUBCHEM_COMPOUND_ID_TYPE>
0

> <PUBCHEM_TOTAL_CHARGE>
0

> <PUBCHEM_SUBSTANCE_ID>
310940219

> <PUBCHEM_SUBSTANCE_VERSION>
1

> <PUBCHEM_EXT_DATASOURCE_NAME>
4488

> <PUBCHEM_EXT_DATASOURCE_REGID>
SCHEMBL16118153

> <PUBCHEM_SUBSTANCE_COMMENT>
InChI=1S/C26H27Cl2FN6O3/c1-15(21-18(27)5-6-19(29)22(21)28)37-20-9-16(10-32-23(20)31)17-11-33-35(12-17)26(7-8-30)13-34(14-26)24(36)38-25(2,3)4/h5-6,9-12,15H,7,13-14H2,1-4H3,(H2,31,32)
InChIKey=JLWCOKPHMMYWDQ-UHFFFAOYSA-N

> <PUBCHEM_SUBSTANCE_SYNONYM>
SCHEMBL16118153

> <PUBCHEM_XREF_EXT_ID>
SCHEMBL16118153

> <PUBCHEM_EXT_DATASOURCE_URL>
https://www.surechembl.org/

> <PUBCHEM_EXT_SUBSTANCE_URL>
https://www.surechembl.org/chemical/SCHEMBL16118153

> <PUBCHEM_CID_ASSOCIATIONS>
117607313  1

> <PUBCHEM_COORDINATE_TYPE>
1
3

$$$$
