310936385
  -OEChem-07211613022D

 28 33  0     1  0  0  0  0  0999 V2000
    1.6004   -1.6320    0.0000 O   0  0  0  0  0  0  0  0  0  0  0  0
    2.7565   -0.9645    0.0000 O   0  0  0  0  0  0  0  0  0  0  0  0
   -1.4991   -0.6674    0.0000 N   0  0  0  0  0  0  0  0  0  0  0  0
   -1.9840    0.0000    0.0000 N   0  0  0  0  0  0  0  0  0  0  0  0
    0.7144    0.4125    0.0000 C   0  0  3  0  0  0  0  0  0  0  0  0
    0.7144   -0.4125    0.0000 C   0  0  3  0  0  0  0  0  0  0  0  0
    1.4290    0.8250    0.0000 C   0  0  3  0  0  0  0  0  0  0  0  0
    2.1434    0.4125    0.0000 C   0  0  3  0  0  0  0  0  0  0  0  0
    0.0000    0.8250    0.0000 C   0  0  3  0  0  0  0  0  0  0  0  0
    1.4290   -0.8250    0.0000 C   0  0  3  0  0  0  0  0  0  0  0  0
    2.1434   -0.4125    0.0000 C   0  0  3  0  0  0  0  0  0  0  0  0
   -0.7144    0.4125    0.0000 C   0  0  0  0  0  0  0  0  0  0  0  0
   -0.7144   -0.4125    0.0000 C   0  0  0  0  0  0  0  0  0  0  0  0
    2.8579    0.8250    0.0000 C   0  0  3  0  0  0  0  0  0  0  0  0
    0.0000   -0.8250    0.0000 C   0  0  0  0  0  0  0  0  0  0  0  0
    1.4290    1.6500    0.0000 C   0  0  0  0  0  0  0  0  0  0  0  0
    2.8579    1.6500    0.0000 C   0  0  3  0  0  0  0  0  0  0  0  0
   -1.4991    0.6674    0.0000 C   0  0  0  0  0  0  0  0  0  0  0  0
    0.7144    1.2375    0.0000 C   0  0  0  0  0  0  0  0  0  0  0  0
    2.1434    2.0625    0.0000 C   0  0  0  0  0  0  0  0  0  0  0  0
    3.6425    0.5701    0.0000 C   0  0  0  0  0  0  0  0  0  0  0  0
    0.0000    1.6500    0.0000 C   0  0  0  0  0  0  0  0  0  0  0  0
    3.6425    1.9049    0.0000 C   0  0  0  0  0  0  0  0  0  0  0  0
    2.4210   -1.7182    0.0000 C   0  0  0  0  0  0  0  0  0  0  0  0
    4.1274    1.2375    0.0000 C   0  0  0  0  0  0  0  0  0  0  0  0
   -1.7540    1.4521    0.0000 C   0  0  0  0  0  0  0  0  0  0  0  0
   -1.7540   -1.4521    0.0000 C   0  0  0  0  0  0  0  0  0  0  0  0
    3.8974    2.6896    0.0000 C   0  0  0  0  0  0  0  0  0  0  0  0
  1 10  1  0  0  0  0
  1 24  1  0  0  0  0
  2 11  1  0  0  0  0
  2 24  1  0  0  0  0
  3  4  1  0  0  0  0
  3 13  1  0  0  0  0
  3 27  1  0  0  0  0
  4 18  2  0  0  0  0
  5  6  1  0  0  0  0
  5  7  1  0  0  0  0
  5  9  1  0  0  0  0
  5 19  1  0  0  0  0
  6 10  1  0  0  0  0
  6 15  1  0  0  0  0
  7  8  1  0  0  0  0
  7 16  1  0  0  0  0
  8 11  1  0  0  0  0
  8 14  1  0  0  0  0
  9 12  1  0  0  0  0
  9 22  1  0  0  0  0
 10 11  1  0  0  0  0
 12 13  2  0  0  0  0
 12 18  1  0  0  0  0
 13 15  1  0  0  0  0
 14 17  1  0  0  0  0
 14 21  1  0  0  0  0
 16 20  1  0  0  0  0
 17 20  1  0  0  0  0
 17 23  1  0  0  0  0
 18 26  1  0  0  0  0
 21 25  1  0  0  0  0
 23 25  1  0  0  0  0
 23 28  2  0  0  0  0
M  END
> <PUBCHEM_COMPOUND_ID_TYPE>
0

> <PUBCHEM_TOTAL_CHARGE>
0

> <PUBCHEM_SUBSTANCE_ID>
310936385

> <PUBCHEM_SUBSTANCE_VERSION>
1

> <PUBCHEM_EXT_DATASOURCE_NAME>
4488

> <PUBCHEM_EXT_DATASOURCE_REGID>
SCHEMBL16114023

> <PUBCHEM_SUBSTANCE_COMMENT>
InChI=1S/C24H34N2O2/c1-12-6-7-16-15(12)8-9-17-21(16)23-22(27-11-28-23)18-10-19-20(13(2)24(17,18)4)14(3)25-26(19)5/h13,15-18,21-23H,1,6-11H2,2-5H3
InChIKey=UEITVCAVSUMHBR-UHFFFAOYSA-N

> <PUBCHEM_SUBSTANCE_SYNONYM>
SCHEMBL16114023

> <PUBCHEM_XREF_EXT_ID>
SCHEMBL16114023

> <PUBCHEM_EXT_DATASOURCE_URL>
https://www.surechembl.org/

> <PUBCHEM_EXT_SUBSTANCE_URL>
https://www.surechembl.org/chemical/SCHEMBL16114023

> <PUBCHEM_CID_ASSOCIATIONS>
117604326  1

> <PUBCHEM_COORDINATE_TYPE>
1
3

$$$$
