310946799
  -OEChem-07211613022D

 21 23  0     1  0  0  0  0  0999 V2000
    2.2423   -9.6663    0.0000 N   0  0  0  0  0  0  0  0  0  0  0  0
   -1.4704   -9.7637    0.0000 N   0  0  0  0  0  0  0  0  0  0  0  0
   -1.9553   -9.0962    0.0000 N   0  0  0  0  0  0  0  0  0  0  0  0
   -0.3159   -7.3035    0.0000 N   0  0  3  0  0  0  0  0  0  0  0  0
    0.6373   -5.3399    0.0000 N   0  0  0  0  0  0  0  0  0  0  0  0
    0.0287   -9.9212    0.0000 C   0  0  0  0  0  0  0  0  0  0  0  0
   -0.6858   -9.5087    0.0000 C   0  0  0  0  0  0  0  0  0  0  0  0
    1.4577   -9.9212    0.0000 C   0  0  0  0  0  0  0  0  0  0  0  0
    1.4577  -10.7462    0.0000 C   0  0  0  0  0  0  0  0  0  0  0  0
   -0.6858   -8.6837    0.0000 C   0  0  0  0  0  0  0  0  0  0  0  0
    0.7432   -9.5087    0.0000 C   0  0  0  0  0  0  0  0  0  0  0  0
    0.0287  -10.7462    0.0000 C   0  0  0  0  0  0  0  0  0  0  0  0
    0.7432  -11.1587    0.0000 C   0  0  0  0  0  0  0  0  0  0  0  0
    2.2423  -11.0012    0.0000 C   0  0  0  0  0  0  0  0  0  0  0  0
    2.7272  -10.3337    0.0000 C   0  0  0  0  0  0  0  0  0  0  0  0
   -1.4704   -8.4288    0.0000 C   0  0  0  0  0  0  0  0  0  0  0  0
   -0.1024   -8.1004    0.0000 C   0  0  0  0  0  0  0  0  0  0  0  0
    2.4558   -8.8694    0.0000 C   0  0  0  0  0  0  0  0  0  0  0  0
    0.2674   -6.7201    0.0000 C   0  0  0  0  0  0  0  0  0  0  0  0
   -1.1128   -7.0899    0.0000 C   0  0  0  0  0  0  0  0  0  0  0  0
    0.0539   -5.9232    0.0000 C   0  0  0  0  0  0  0  0  0  0  0  0
  1  8  1  0  0  0  0
  1 15  1  0  0  0  0
  1 18  1  0  0  0  0
  2  3  1  0  0  0  0
  2  7  2  0  0  0  0
  3 16  1  0  0  0  0
  4 17  1  0  0  0  0
  4 19  1  0  0  0  0
  4 20  1  0  0  0  0
  5 21  1  0  0  0  0
  6  7  1  0  0  0  0
  6 11  2  0  0  0  0
  6 12  1  0  0  0  0
  7 10  1  0  0  0  0
  8  9  2  0  0  0  0
  8 11  1  0  0  0  0
  9 13  1  0  0  0  0
  9 14  1  0  0  0  0
 10 16  2  0  0  0  0
 10 17  1  0  0  0  0
 12 13  2  0  0  0  0
 14 15  2  0  0  0  0
 19 21  1  0  0  0  0
M  END
> <PUBCHEM_COMPOUND_ID_TYPE>
0

> <PUBCHEM_TOTAL_CHARGE>
0

> <PUBCHEM_SUBSTANCE_ID>
310946799

> <PUBCHEM_SUBSTANCE_VERSION>
1

> <PUBCHEM_EXT_DATASOURCE_NAME>
4488

> <PUBCHEM_EXT_DATASOURCE_REGID>
SCHEMBL16124923

> <PUBCHEM_SUBSTANCE_COMMENT>
InChI=1S/C16H21N5/c1-20(8-6-17)11-14-10-18-19-16(14)13-4-3-12-5-7-21(2)15(12)9-13/h3-5,7,9-10H,6,8,11,17H2,1-2H3,(H,18,19)
InChIKey=HROFRYGPAYSWEI-UHFFFAOYSA-N

> <PUBCHEM_SUBSTANCE_SYNONYM>
SCHEMBL16124923

> <PUBCHEM_XREF_EXT_ID>
SCHEMBL16124923

> <PUBCHEM_EXT_DATASOURCE_URL>
https://www.surechembl.org/

> <PUBCHEM_EXT_SUBSTANCE_URL>
https://www.surechembl.org/chemical/SCHEMBL16124923

> <PUBCHEM_CID_ASSOCIATIONS>
117612660  1

> <PUBCHEM_COORDINATE_TYPE>
1
3

$$$$
