310934468
  -OEChem-07211613022D

 26 28  0     1  0  0  0  0  0999 V2000
   -2.4731   -0.1741    0.0000 F   0  0  0  0  0  0  0  0  0  0  0  0
    3.3050    0.1067    0.0000 F   0  0  0  0  0  0  0  0  0  0  0  0
    0.5420    0.3405    0.0000 O   0  0  0  0  0  0  0  0  0  0  0  0
    1.1423   -2.9942    0.0000 O   0  0  0  0  0  0  0  0  0  0  0  0
    1.6039   -0.6157    0.0000 O   0  0  0  0  0  0  0  0  0  0  0  0
    0.2449   -1.0572    0.0000 C   0  0  3  0  0  0  0  0  0  0  0  0
   -0.3071   -0.4441    0.0000 C   0  0  0  0  0  0  0  0  0  0  0  0
    0.7969   -0.4441    0.0000 C   0  0  0  0  0  0  0  0  0  0  0  0
    0.9123   -1.5422    0.0000 C   0  0  0  0  0  0  0  0  0  0  0  0
   -0.4226   -1.5422    0.0000 C   0  0  0  0  0  0  0  0  0  0  0  0
   -1.1141   -0.6157    0.0000 C   0  0  0  0  0  0  0  0  0  0  0  0
    0.6574   -2.3268    0.0000 C   0  0  3  0  0  0  0  0  0  0  0  0
   -0.1676   -2.3268    0.0000 C   0  0  0  0  0  0  0  0  0  0  0  0
   -0.0522    0.3405    0.0000 C   0  0  0  0  0  0  0  0  0  0  0  0
   -1.6662   -0.0026    0.0000 C   0  0  0  0  0  0  0  0  0  0  0  0
   -0.6042    0.9536    0.0000 C   0  0  0  0  0  0  0  0  0  0  0  0
   -1.4112    0.7820    0.0000 C   0  0  0  0  0  0  0  0  0  0  0  0
   -1.3691   -1.4003    0.0000 C   0  0  0  0  0  0  0  0  0  0  0  0
    1.9628   -2.9080    0.0000 C   0  0  0  0  0  0  0  0  0  0  0  0
    2.2983   -2.1543    0.0000 C   0  0  0  0  0  0  0  0  0  0  0  0
    1.0940    0.9536    0.0000 C   0  0  0  0  0  0  0  0  0  0  0  0
    1.8134   -1.4869    0.0000 C   0  0  0  0  0  0  0  0  0  0  0  0
    3.1188   -2.0681    0.0000 C   0  0  0  0  0  0  0  0  0  0  0  0
    2.9695   -0.6470    0.0000 C   0  0  0  0  0  0  0  0  0  0  0  0
    2.1490   -0.7332    0.0000 C   0  0  0  0  0  0  0  0  0  0  0  0
    3.4544   -1.3144    0.0000 C   0  0  0  0  0  0  0  0  0  0  0  0
  1 15  1  0  0  0  0
  2 24  1  0  0  0  0
  3  8  1  0  0  0  0
  3 21  1  0  0  0  0
  4 12  1  0  0  0  0
  4 19  1  0  0  0  0
  5  8  2  0  0  0  0
  6  7  1  0  0  0  0
  6  8  1  0  0  0  0
  6  9  1  0  0  0  0
  6 10  1  0  0  0  0
  7 11  2  0  0  0  0
  7 14  1  0  0  0  0
  9 12  1  0  0  0  0
 10 13  1  0  0  0  0
 11 15  1  0  0  0  0
 11 18  1  0  0  0  0
 12 13  1  0  0  0  0
 14 16  2  0  0  0  0
 15 17  2  0  0  0  0
 16 17  1  0  0  0  0
 19 20  1  0  0  0  0
 20 22  2  0  0  0  0
 20 23  1  0  0  0  0
 22 25  1  0  0  0  0
 23 26  2  0  0  0  0
 24 25  2  0  0  0  0
 24 26  1  0  0  0  0
M  END
> <PUBCHEM_COMPOUND_ID_TYPE>
0

> <PUBCHEM_TOTAL_CHARGE>
0

> <PUBCHEM_SUBSTANCE_ID>
310934468

> <PUBCHEM_SUBSTANCE_VERSION>
1

> <PUBCHEM_EXT_DATASOURCE_NAME>
4488

> <PUBCHEM_EXT_DATASOURCE_REGID>
SCHEMBL16111948

> <PUBCHEM_SUBSTANCE_COMMENT>
InChI=1S/C21H22F2O3/c1-14-18(4-3-5-19(14)23)21(20(24)25-2)11-10-17(12-21)26-13-15-6-8-16(22)9-7-15/h3-9,17H,10-13H2,1-2H3
InChIKey=ABCNJAGOXLNQEE-UHFFFAOYSA-N

> <PUBCHEM_SUBSTANCE_SYNONYM>
SCHEMBL16111948

> <PUBCHEM_XREF_EXT_ID>
SCHEMBL16111948

> <PUBCHEM_EXT_DATASOURCE_URL>
https://www.surechembl.org/

> <PUBCHEM_EXT_SUBSTANCE_URL>
https://www.surechembl.org/chemical/SCHEMBL16111948

> <PUBCHEM_CID_ASSOCIATIONS>
117602673  1

> <PUBCHEM_COORDINATE_TYPE>
1
3

$$$$
