310939186
  -OEChem-07211613022D

 22 23  0     1  0  0  0  0  0999 V2000
    1.0313   -0.7145    0.0000 Cl  0  0  0  0  0  0  0  0  0  0  0  0
   -1.4437    0.7145    0.0000 F   0  0  0  0  0  0  0  0  0  0  0  0
    0.2062    0.7145    0.0000 O   0  0  0  0  0  0  0  0  0  0  0  0
    2.2687   -1.4289    0.0000 O   0  0  0  0  0  0  0  0  0  0  0  0
   -2.6812    0.0000    0.0000 N   0  0  0  0  0  0  0  0  0  0  0  0
   -0.2062    0.0000    0.0000 C   0  0  0  0  0  0  0  0  0  0  0  0
   -1.0313    0.0000    0.0000 C   0  0  0  0  0  0  0  0  0  0  0  0
   -1.4437   -0.7145    0.0000 C   0  0  0  0  0  0  0  0  0  0  0  0
    0.2062   -0.7145    0.0000 C   0  0  0  0  0  0  0  0  0  0  0  0
    1.0313    0.7145    0.0000 C   0  0  0  0  0  0  0  0  0  0  0  0
   -1.0313   -1.4289    0.0000 C   0  0  0  0  0  0  0  0  0  0  0  0
   -2.2687   -0.7145    0.0000 C   0  0  3  0  0  0  0  0  0  0  0  0
   -0.2062   -1.4289    0.0000 C   0  0  0  0  0  0  0  0  0  0  0  0
    1.4437    0.0000    0.0000 C   0  0  0  0  0  0  0  0  0  0  0  0
    2.2687    0.0000    0.0000 C   0  0  0  0  0  0  0  0  0  0  0  0
    1.4437    1.4289    0.0000 C   0  0  0  0  0  0  0  0  0  0  0  0
    2.6812    0.7145    0.0000 C   0  0  0  0  0  0  0  0  0  0  0  0
   -2.6812   -1.4289    0.0000 C   0  0  0  0  0  0  0  0  0  0  0  0
    2.2687    1.4289    0.0000 C   0  0  0  0  0  0  0  0  0  0  0  0
    2.6812   -0.7145    0.0000 C   0  0  3  0  0  0  0  0  0  0  0  0
    3.5062   -0.7145    0.0000 C   0  0  0  0  0  0  0  0  0  0  0  0
   -3.5062   -1.4289    0.0000 C   0  0  0  0  0  0  0  0  0  0  0  0
  1  9  1  0  0  0  0
  2  7  1  0  0  0  0
  3  6  1  0  0  0  0
  3 10  1  0  0  0  0
  4 20  1  0  0  0  0
  5 12  1  0  0  0  0
  6  7  1  0  0  0  0
  6  9  2  0  0  0  0
  7  8  2  0  0  0  0
  8 11  1  0  0  0  0
  8 12  1  0  0  0  0
  9 13  1  0  0  0  0
 10 14  1  0  0  0  0
 10 16  2  0  0  0  0
 11 13  2  0  0  0  0
 12 18  1  0  0  0  0
 14 15  2  0  0  0  0
 15 17  1  0  0  0  0
 15 20  1  0  0  0  0
 16 19  1  0  0  0  0
 17 19  2  0  0  0  0
 18 22  1  0  0  0  0
 20 21  1  0  0  0  0
M  END
> <PUBCHEM_COMPOUND_ID_TYPE>
0

> <PUBCHEM_TOTAL_CHARGE>
0

> <PUBCHEM_SUBSTANCE_ID>
310939186

> <PUBCHEM_SUBSTANCE_VERSION>
1

> <PUBCHEM_EXT_DATASOURCE_NAME>
4488

> <PUBCHEM_EXT_DATASOURCE_REGID>
SCHEMBL16117107

> <PUBCHEM_SUBSTANCE_COMMENT>
InChI=1S/C17H19ClFNO2/c1-3-15(20)13-7-8-14(18)17(16(13)19)22-12-6-4-5-11(9-12)10(2)21/h4-10,15,21H,3,20H2,1-2H3
InChIKey=FYXPMTWLVIEUME-UHFFFAOYSA-N

> <PUBCHEM_SUBSTANCE_SYNONYM>
SCHEMBL16117107

> <PUBCHEM_XREF_EXT_ID>
SCHEMBL16117107

> <PUBCHEM_EXT_DATASOURCE_URL>
https://www.surechembl.org/

> <PUBCHEM_EXT_SUBSTANCE_URL>
https://www.surechembl.org/chemical/SCHEMBL16117107

> <PUBCHEM_CID_ASSOCIATIONS>
117606535  1

> <PUBCHEM_COORDINATE_TYPE>
1
3

$$$$
