310947196
  -OEChem-07211613022D

 32 38  0     1  0  0  0  0  0999 V2000
   -2.3229   -1.8583    0.0000 O   0  0  0  0  0  0  0  0  0  0  0  0
   -3.5129   -1.1900    0.0000 O   0  0  0  0  0  0  0  0  0  0  0  0
    3.0565    0.3749    0.0000 O   0  0  0  0  0  0  0  0  0  0  0  0
    3.0565    1.7442    0.0000 O   0  0  0  0  0  0  0  0  0  0  0  0
    0.0408   -0.6032    0.0000 N   0  0  3  0  0  0  0  0  0  0  0  0
    0.0408    0.2608    0.0000 C   0  0  0  0  0  0  0  0  0  0  0  0
   -0.7091    0.6683    0.0000 C   0  0  0  0  0  0  0  0  0  0  0  0
   -1.4590   -0.5868    0.0000 C   0  0  0  0  0  0  0  0  0  0  0  0
   -1.4427    0.2445    0.0000 C   0  0  0  0  0  0  0  0  0  0  0  0
    0.7743    0.6683    0.0000 C   0  0  0  0  0  0  0  0  0  0  0  0
   -0.7091   -1.0106    0.0000 C   0  0  3  0  0  0  0  0  0  0  0  0
   -2.1436   -1.0106    0.0000 C   0  0  0  0  0  0  0  0  0  0  0  0
    0.7743    1.4997    0.0000 C   0  0  0  0  0  0  0  0  0  0  0  0
   -2.8772   -0.6032    0.0000 C   0  0  0  0  0  0  0  0  0  0  0  0
   -0.6765    1.5160    0.0000 C   0  0  0  0  0  0  0  0  0  0  0  0
   -2.1599    0.6521    0.0000 C   0  0  0  0  0  0  0  0  0  0  0  0
    1.5241    0.2445    0.0000 C   0  0  0  0  0  0  0  0  0  0  0  0
    0.0245    1.9072    0.0000 C   0  0  0  0  0  0  0  0  0  0  0  0
    2.2088    0.6846    0.0000 C   0  0  0  0  0  0  0  0  0  0  0  0
    0.7906   -1.0106    0.0000 C   0  0  0  0  0  0  0  0  0  0  0  0
    2.2251    1.4997    0.0000 C   0  0  0  0  0  0  0  0  0  0  0  0
    1.5079    1.9072    0.0000 C   0  0  0  0  0  0  0  0  0  0  0  0
   -2.8772    0.2445    0.0000 C   0  0  0  0  0  0  0  0  0  0  0  0
   -0.3342   -0.6194    0.0000 C   0  0  0  0  0  0  0  0  0  0  0  0
   -3.1706   -1.9072    0.0000 C   0  0  0  0  0  0  0  0  0  0  0  0
    1.5079   -0.6032    0.0000 C   0  0  0  0  0  0  0  0  0  0  0  0
    3.5129    1.0595    0.0000 C   0  0  0  0  0  0  0  0  0  0  0  0
    2.2088   -1.0106    0.0000 C   0  0  0  0  0  0  0  0  0  0  0  0
    1.5405    0.2119    0.0000 C   0  0  0  0  0  0  0  0  0  0  0  0
    2.9261   -0.6357    0.0000 C   0  0  0  0  0  0  0  0  0  0  0  0
    2.2740    0.5868    0.0000 C   0  0  0  0  0  0  0  0  0  0  0  0
    2.9750    0.1630    0.0000 C   0  0  0  0  0  0  0  0  0  0  0  0
  1 12  1  0  0  0  0
  1 25  1  0  0  0  0
  2 14  1  0  0  0  0
  2 25  1  0  0  0  0
  3 19  1  0  0  0  0
  3 27  1  0  0  0  0
  4 21  1  0  0  0  0
  4 27  1  0  0  0  0
  5  6  1  0  0  0  0
  5 11  1  0  0  0  0
  5 20  1  0  0  0  0
  6  7  2  0  0  0  0
  6 10  1  0  0  0  0
  7  9  1  0  0  0  0
  7 15  1  0  0  0  0
  8  9  1  0  0  0  0
  8 11  1  0  0  0  0
  8 12  2  0  0  0  0
  9 16  2  0  0  0  0
 10 13  2  0  0  0  0
 10 17  1  0  0  0  0
 11 24  1  0  0  0  0
 12 14  1  0  0  0  0
 13 18  1  0  0  0  0
 13 22  1  0  0  0  0
 14 23  2  0  0  0  0
 15 18  2  0  0  0  0
 16 23  1  0  0  0  0
 17 19  2  0  0  0  0
 19 21  1  0  0  0  0
 20 26  1  0  0  0  0
 21 22  2  0  0  0  0
 26 28  2  0  0  0  0
 26 29  1  0  0  0  0
 28 30  1  0  0  0  0
 29 31  2  0  0  0  0
 30 32  2  0  0  0  0
 31 32  1  0  0  0  0
M  END
> <PUBCHEM_COMPOUND_ID_TYPE>
0

> <PUBCHEM_TOTAL_CHARGE>
0

> <PUBCHEM_SUBSTANCE_ID>
310947196

> <PUBCHEM_SUBSTANCE_VERSION>
1

> <PUBCHEM_EXT_DATASOURCE_NAME>
4488

> <PUBCHEM_EXT_DATASOURCE_REGID>
SCHEMBL16125350

> <PUBCHEM_SUBSTANCE_COMMENT>
InChI=1S/C27H21NO4/c1-16-25-19(9-10-22-27(25)32-15-29-22)20-8-7-18-11-23-24(31-14-30-23)12-21(18)26(20)28(16)13-17-5-3-2-4-6-17/h2-12,16H,13-15H2,1H3
InChIKey=FVIBCILJNPAUOK-UHFFFAOYSA-N

> <PUBCHEM_SUBSTANCE_SYNONYM>
SCHEMBL16125350

> <PUBCHEM_XREF_EXT_ID>
SCHEMBL16125350

> <PUBCHEM_EXT_DATASOURCE_URL>
https://www.surechembl.org/

> <PUBCHEM_EXT_SUBSTANCE_URL>
https://www.surechembl.org/chemical/SCHEMBL16125350

> <PUBCHEM_CID_ASSOCIATIONS>
117613019  1

> <PUBCHEM_COORDINATE_TYPE>
1
3

$$$$
