310935639
  -OEChem-07211613022D

 41 46  0     1  0  0  0  0  0999 V2000
    6.3730   -4.4734    0.0000 S   0  0  0  0  0  0  0  0  0  0  0  0
    0.7047   -2.0222    0.0000 O   0  0  0  0  0  0  0  0  0  0  0  0
    6.8326   -5.2700    0.0000 O   0  0  0  0  0  0  0  0  0  0  0  0
    5.9747   -3.7993    0.0000 O   0  0  0  0  0  0  0  0  0  0  0  0
    2.8188   -4.9024    0.0000 N   0  0  3  0  0  0  0  0  0  0  0  0
    1.4094   -4.9024    0.0000 N   0  0  0  0  0  0  0  0  0  0  0  0
    0.7047   -3.6461    0.0000 N   0  0  0  0  0  0  0  0  0  0  0  0
    7.0778   -4.1057    0.0000 N   0  0  3  0  0  0  0  0  0  0  0  0
    4.9636   -1.2256    0.0000 N   0  0  0  0  0  0  0  0  0  0  0  0
    5.1168   -2.2060    0.0000 N   0  0  0  0  0  0  0  0  0  0  0  0
    2.1448   -3.6768    0.0000 C   0  0  0  0  0  0  0  0  0  0  0  0
    2.1142   -4.4734    0.0000 C   0  0  0  0  0  0  0  0  0  0  0  0
    1.4094   -3.2478    0.0000 C   0  0  0  0  0  0  0  0  0  0  0  0
    4.2589   -4.9024    0.0000 C   0  0  0  0  0  0  0  0  0  0  0  0
    1.4094   -2.4512    0.0000 C   0  0  0  0  0  0  0  0  0  0  0  0
    2.8188   -2.4512    0.0000 C   0  0  0  0  0  0  0  0  0  0  0  0
    2.8188   -3.2784    0.0000 C   0  0  0  0  0  0  0  0  0  0  0  0
    5.6683   -4.9024    0.0000 C   0  0  0  0  0  0  0  0  0  0  0  0
    4.2589   -5.7296    0.0000 C   0  0  0  0  0  0  0  0  0  0  0  0
    3.5542   -4.4734    0.0000 C   0  0  0  0  0  0  0  0  0  0  0  0
    4.9636   -4.4734    0.0000 C   0  0  0  0  0  0  0  0  0  0  0  0
    2.1142   -2.0222    0.0000 C   0  0  0  0  0  0  0  0  0  0  0  0
    2.8188   -5.7296    0.0000 C   0  0  0  0  0  0  0  0  0  0  0  0
    3.5542   -2.0222    0.0000 C   0  0  0  0  0  0  0  0  0  0  0  0
    3.5542   -6.1280    0.0000 C   0  0  0  0  0  0  0  0  0  0  0  0
    5.6683   -5.7296    0.0000 C   0  0  0  0  0  0  0  0  0  0  0  0
    4.9636   -6.1280    0.0000 C   0  0  0  0  0  0  0  0  0  0  0  0
    0.7047   -4.5040    0.0000 C   0  0  0  0  0  0  0  0  0  0  0  0
    3.5235   -1.1950    0.0000 C   0  0  0  0  0  0  0  0  0  0  0  0
    4.2283   -2.4512    0.0000 C   0  0  0  0  0  0  0  0  0  0  0  0
    7.0778   -3.2784    0.0000 C   0  0  0  0  0  0  0  0  0  0  0  0
    4.2589   -0.8273    0.0000 C   0  0  0  0  0  0  0  0  0  0  0  0
    6.3424   -2.8495    0.0000 C   0  0  0  0  0  0  0  0  0  0  0  0
    7.7825   -4.5040    0.0000 C   0  0  0  0  0  0  0  0  0  0  0  0
    4.9636   -2.0529    0.0000 C   0  0  0  0  0  0  0  0  0  0  0  0
    0.0000   -2.4512    0.0000 C   0  0  0  0  0  0  0  0  0  0  0  0
    6.3730   -2.0222    0.0000 C   0  0  0  0  0  0  0  0  0  0  0  0
    5.6377   -3.2478    0.0000 C   0  0  0  0  0  0  0  0  0  0  0  0
    4.2896    0.0000    0.0000 C   0  0  0  0  0  0  0  0  0  0  0  0
    5.6683   -1.6239    0.0000 C   0  0  0  0  0  0  0  0  0  0  0  0
    4.9330   -2.8495    0.0000 C   0  0  0  0  0  0  0  0  0  0  0  0
  1  3  2  0  0  0  0
  1  4  2  0  0  0  0
  1  8  1  0  0  0  0
  1 18  1  0  0  0  0
  2 15  1  0  0  0  0
  2 36  1  0  0  0  0
  5 12  1  0  0  0  0
  5 20  1  0  0  0  0
  5 23  1  0  0  0  0
  6 12  1  0  0  0  0
  6 28  2  0  0  0  0
  7 13  2  0  0  0  0
  7 28  1  0  0  0  0
  8 31  1  0  0  0  0
  8 34  1  0  0  0  0
  9 32  1  0  0  0  0
  9 35  2  0  0  0  0
 10 40  1  0  0  0  0
 10 41  1  0  0  0  0
 11 12  2  0  0  0  0
 11 13  1  0  0  0  0
 11 17  1  0  0  0  0
 13 15  1  0  0  0  0
 14 19  2  0  0  0  0
 14 20  1  0  0  0  0
 14 21  1  0  0  0  0
 15 22  2  0  0  0  0
 16 17  2  0  0  0  0
 16 22  1  0  0  0  0
 16 24  1  0  0  0  0
 18 21  2  0  0  0  0
 18 26  1  0  0  0  0
 19 25  1  0  0  0  0
 19 27  1  0  0  0  0
 23 25  1  0  0  0  0
 24 29  1  0  0  0  0
 24 30  2  0  0  0  0
 26 27  2  0  0  0  0
 29 32  2  0  0  0  0
 30 35  1  0  0  0  0
 31 33  1  0  0  0  0
 32 39  1  0  0  0  0
 33 37  1  0  0  0  0
 33 38  1  0  0  0  0
 37 40  1  0  0  0  0
 38 41  1  0  0  0  0
M  END
> <PUBCHEM_COMPOUND_ID_TYPE>
0

> <PUBCHEM_TOTAL_CHARGE>
0

> <PUBCHEM_SUBSTANCE_ID>
310935639

> <PUBCHEM_SUBSTANCE_VERSION>
1

> <PUBCHEM_EXT_DATASOURCE_NAME>
4488

> <PUBCHEM_EXT_DATASOURCE_REGID>
SCHEMBL16113217

> <PUBCHEM_SUBSTANCE_COMMENT>
InChI=1S/C31H36N6O3S/c1-21-14-24(8-12-33-21)25-16-28-30(29(17-25)40-3)34-20-35-31(28)37-13-9-23-4-5-27(15-26(23)19-37)41(38,39)36(2)18-22-6-10-32-11-7-22/h4-5,8,12,14-17,20,22,32H,6-7,9-11,13,18-19H2,1-3H3
InChIKey=IUMIKPWQMBRSJF-UHFFFAOYSA-N

> <PUBCHEM_SUBSTANCE_SYNONYM>
SCHEMBL16113217

> <PUBCHEM_XREF_EXT_ID>
SCHEMBL16113217

> <PUBCHEM_EXT_DATASOURCE_URL>
https://www.surechembl.org/

> <PUBCHEM_EXT_SUBSTANCE_URL>
https://www.surechembl.org/chemical/SCHEMBL16113217

> <PUBCHEM_CID_ASSOCIATIONS>
86301212  1

> <PUBCHEM_COORDINATE_TYPE>
1
3

$$$$
