310947739
  -OEChem-07211613022D

 19 20  0     1  0  0  0  0  0999 V2000
   -0.9259    1.6728    0.0000 O   0  0  0  0  0  0  0  0  0  0  0  0
   -2.0050   -1.7900    0.0000 N   0  0  0  0  0  0  0  0  0  0  0  0
   -1.5201   -2.4575    0.0000 N   0  0  0  0  0  0  0  0  0  0  0  0
    0.6935   -1.3775    0.0000 N   0  0  3  0  0  0  0  0  0  0  0  0
   -2.2849    1.2313    0.0000 N   0  0  0  0  0  0  0  0  0  0  0  0
    2.8369   -0.9650    0.0000 N   0  0  0  0  0  0  0  0  0  0  0  0
   -1.5201   -1.1226    0.0000 C   0  0  0  0  0  0  0  0  0  0  0  0
   -1.7750   -0.3380    0.0000 C   0  0  0  0  0  0  0  0  0  0  0  0
   -0.7354   -1.3775    0.0000 C   0  0  0  0  0  0  0  0  0  0  0  0
   -1.2230    0.2751    0.0000 C   0  0  0  0  0  0  0  0  0  0  0  0
   -0.7354   -2.2025    0.0000 C   0  0  0  0  0  0  0  0  0  0  0  0
   -0.0210   -0.9650    0.0000 C   0  0  0  0  0  0  0  0  0  0  0  0
   -2.5820   -0.1664    0.0000 C   0  0  0  0  0  0  0  0  0  0  0  0
   -1.4779    1.0597    0.0000 C   0  0  0  0  0  0  0  0  0  0  0  0
   -2.8369    0.6182    0.0000 C   0  0  0  0  0  0  0  0  0  0  0  0
    1.4080   -0.9650    0.0000 C   0  0  0  0  0  0  0  0  0  0  0  0
    0.6935   -2.2025    0.0000 C   0  0  0  0  0  0  0  0  0  0  0  0
    2.1224   -1.3775    0.0000 C   0  0  0  0  0  0  0  0  0  0  0  0
   -1.1808    2.4575    0.0000 C   0  0  0  0  0  0  0  0  0  0  0  0
  1 14  1  0  0  0  0
  1 19  1  0  0  0  0
  2  3  1  0  0  0  0
  2  7  2  0  0  0  0
  3 11  1  0  0  0  0
  4 12  1  0  0  0  0
  4 16  1  0  0  0  0
  4 17  1  0  0  0  0
  5 14  1  0  0  0  0
  5 15  2  0  0  0  0
  6 18  1  0  0  0  0
  7  8  1  0  0  0  0
  7  9  1  0  0  0  0
  8 10  1  0  0  0  0
  8 13  2  0  0  0  0
  9 11  2  0  0  0  0
  9 12  1  0  0  0  0
 10 14  2  0  0  0  0
 13 15  1  0  0  0  0
 16 18  1  0  0  0  0
M  END
> <PUBCHEM_COMPOUND_ID_TYPE>
0

> <PUBCHEM_TOTAL_CHARGE>
0

> <PUBCHEM_SUBSTANCE_ID>
310947739

> <PUBCHEM_SUBSTANCE_VERSION>
1

> <PUBCHEM_EXT_DATASOURCE_NAME>
4488

> <PUBCHEM_EXT_DATASOURCE_REGID>
SCHEMBL16125911

> <PUBCHEM_SUBSTANCE_COMMENT>
InChI=1S/C13H19N5O/c1-18(6-4-14)9-11-8-16-17-13(11)10-3-5-15-12(7-10)19-2/h3,5,7-8H,4,6,9,14H2,1-2H3,(H,16,17)
InChIKey=QBLCBWKVKIRNLF-UHFFFAOYSA-N

> <PUBCHEM_SUBSTANCE_SYNONYM>
SCHEMBL16125911

> <PUBCHEM_XREF_EXT_ID>
SCHEMBL16125911

> <PUBCHEM_EXT_DATASOURCE_URL>
https://www.surechembl.org/

> <PUBCHEM_EXT_SUBSTANCE_URL>
https://www.surechembl.org/chemical/SCHEMBL16125911

> <PUBCHEM_CID_ASSOCIATIONS>
86301524  1

> <PUBCHEM_COORDINATE_TYPE>
1
3

$$$$
