310944379
  -OEChem-07211613022D

 33 38  0     1  0  0  0  0  0999 V2000
    0.8416    0.0281    0.0000 F   0  0  0  0  0  0  0  0  0  0  0  0
   -0.6452   -0.7715    0.0000 N   0  0  0  0  0  0  0  0  0  0  0  0
    3.0297   -0.4488    0.0000 N   0  0  0  0  0  0  0  0  0  0  0  0
    0.8276   -4.0256    0.0000 N   0  0  0  0  0  0  0  0  0  0  0  0
   -0.7434    0.0421    0.0000 C   0  0  0  0  0  0  0  0  0  0  0  0
   -0.4208    1.4166    0.0000 C   0  0  0  0  0  0  0  0  0  0  0  0
   -1.5288    0.2244    0.0000 C   0  0  0  0  0  0  0  0  0  0  0  0
   -1.2343    1.5850    0.0000 C   0  0  0  0  0  0  0  0  0  0  0  0
    0.0140    2.1320    0.0000 C   0  0  0  0  0  0  0  0  0  0  0  0
   -1.9497   -0.4909    0.0000 C   0  0  0  0  0  0  0  0  0  0  0  0
   -1.3886   -1.0800    0.0000 C   0  0  0  0  0  0  0  0  0  0  0  0
   -1.3185    2.4125    0.0000 C   0  0  0  0  0  0  0  0  0  0  0  0
   -0.5471    2.7352    0.0000 C   0  0  0  0  0  0  0  0  0  0  0  0
   -0.1683    0.6312    0.0000 C   0  0  0  0  0  0  0  0  0  0  0  0
   -1.7814    0.9819    0.0000 C   0  0  0  0  0  0  0  0  0  0  0  0
    0.0982   -1.1782    0.0000 C   0  0  3  0  0  0  0  0  0  0  0  0
    0.8136   -0.7855    0.0000 C   0  0  0  0  0  0  0  0  0  0  0  0
   -2.7632   -0.6593    0.0000 C   0  0  0  0  0  0  0  0  0  0  0  0
   -1.6552   -1.8515    0.0000 C   0  0  0  0  0  0  0  0  0  0  0  0
   -1.9918    2.8895    0.0000 C   0  0  0  0  0  0  0  0  0  0  0  0
   -0.4628    3.5487    0.0000 C   0  0  0  0  0  0  0  0  0  0  0  0
    0.6172    2.7071    0.0000 C   0  0  0  0  0  0  0  0  0  0  0  0
    0.6312    1.5569    0.0000 C   0  0  0  0  0  0  0  0  0  0  0  0
    0.0982   -1.9777    0.0000 C   0  0  0  0  0  0  0  0  0  0  0  0
    1.5709   -1.1782    0.0000 C   0  0  0  0  0  0  0  0  0  0  0  0
    0.8276   -2.3985    0.0000 C   0  0  0  0  0  0  0  0  0  0  0  0
   -3.0297   -1.4166    0.0000 C   0  0  0  0  0  0  0  0  0  0  0  0
   -2.4686   -2.0058    0.0000 C   0  0  0  0  0  0  0  0  0  0  0  0
   -1.9076    3.6889    0.0000 C   0  0  0  0  0  0  0  0  0  0  0  0
   -1.1361    4.0256    0.0000 C   0  0  0  0  0  0  0  0  0  0  0  0
    1.5569   -2.0058    0.0000 C   0  0  0  0  0  0  0  0  0  0  0  0
    2.3003   -0.7995    0.0000 C   0  0  0  0  0  0  0  0  0  0  0  0
    0.8276   -3.2121    0.0000 C   0  0  0  0  0  0  0  0  0  0  0  0
  1 17  1  0  0  0  0
  2  5  1  0  0  0  0
  2 11  1  0  0  0  0
  2 16  1  0  0  0  0
  3 32  3  0  0  0  0
  4 33  3  0  0  0  0
  5  7  2  0  0  0  0
  5 14  1  0  0  0  0
  6  8  1  0  0  0  0
  6  9  1  0  0  0  0
  6 14  2  0  0  0  0
  7 10  1  0  0  0  0
  7 15  1  0  0  0  0
  8 12  1  0  0  0  0
  8 15  2  0  0  0  0
  9 13  1  0  0  0  0
  9 22  1  0  0  0  0
  9 23  1  0  0  0  0
 10 11  2  0  0  0  0
 10 18  1  0  0  0  0
 11 19  1  0  0  0  0
 12 13  2  0  0  0  0
 12 20  1  0  0  0  0
 13 21  1  0  0  0  0
 16 17  1  0  0  0  0
 16 24  1  0  0  0  0
 17 25  2  0  0  0  0
 18 27  2  0  0  0  0
 19 28  2  0  0  0  0
 20 29  2  0  0  0  0
 21 30  2  0  0  0  0
 24 26  1  0  0  0  0
 25 31  1  0  0  0  0
 25 32  1  0  0  0  0
 26 31  2  0  0  0  0
 26 33  1  0  0  0  0
 27 28  1  0  0  0  0
 29 30  1  0  0  0  0
M  END
> <PUBCHEM_COMPOUND_ID_TYPE>
0

> <PUBCHEM_TOTAL_CHARGE>
0

> <PUBCHEM_SUBSTANCE_ID>
310944379

> <PUBCHEM_SUBSTANCE_VERSION>
1

> <PUBCHEM_EXT_DATASOURCE_NAME>
4488

> <PUBCHEM_EXT_DATASOURCE_REGID>
SCHEMBL16122454

> <PUBCHEM_SUBSTANCE_COMMENT>
InChI=1S/C29H20FN3/c1-29(2)23-9-5-3-7-19(23)21-13-22-20-8-4-6-10-25(20)33(26(22)14-24(21)29)27-12-17(15-31)11-18(16-32)28(27)30/h3-11,13-14,27H,12H2,1-2H3
InChIKey=VZLYGBHWXURWEA-UHFFFAOYSA-N

> <PUBCHEM_SUBSTANCE_SYNONYM>
SCHEMBL16122454

> <PUBCHEM_XREF_EXT_ID>
SCHEMBL16122454

> <PUBCHEM_EXT_DATASOURCE_URL>
https://www.surechembl.org/

> <PUBCHEM_EXT_SUBSTANCE_URL>
https://www.surechembl.org/chemical/SCHEMBL16122454

> <PUBCHEM_CID_ASSOCIATIONS>
117610636  1

> <PUBCHEM_COORDINATE_TYPE>
1
3

$$$$
