310947094
  -OEChem-07211613022D

 38 39  0     1  0  0  0  0  0999 V2000
   -5.0013   -0.0724    0.0000 O   0  0  0  0  0  0  0  0  0  0  0  0
   -7.0977    1.2375    0.0000 O   0  0  0  0  0  0  0  0  0  0  0  0
   -2.9049    0.4125    0.0000 O   0  0  0  0  0  0  0  0  0  0  0  0
   -2.1904   -0.8250    0.0000 O   0  0  0  0  0  0  0  0  0  0  0  0
   -6.3832    0.0000    0.0000 N   0  0  0  0  0  0  0  0  0  0  0  0
   -7.8121    0.0000    0.0000 N   0  0  0  0  0  0  0  0  0  0  0  0
   -8.5266   -1.2375    0.0000 N   0  0  0  0  0  0  0  0  0  0  0  0
   -5.6687    0.4125    0.0000 C   0  0  3  0  0  0  0  0  0  0  0  0
   -7.0977    0.4125    0.0000 C   0  0  0  0  0  0  0  0  0  0  0  0
   -4.3339    0.4125    0.0000 C   0  0  3  0  0  0  0  0  0  0  0  0
   -5.4138    1.1971    0.0000 C   0  0  0  0  0  0  0  0  0  0  0  0
   -6.3832   -0.8250    0.0000 C   0  0  0  0  0  0  0  0  0  0  0  0
   -4.5888    1.1971    0.0000 C   0  0  0  0  0  0  0  0  0  0  0  0
   -7.8121   -0.8250    0.0000 C   0  0  0  0  0  0  0  0  0  0  0  0
   -7.0977   -1.2375    0.0000 C   0  0  0  0  0  0  0  0  0  0  0  0
   -3.6194    0.0000    0.0000 C   0  0  0  0  0  0  0  0  0  0  0  0
   -2.1904    0.0000    0.0000 C   0  0  0  0  0  0  0  0  0  0  0  0
   -1.4760    0.4125    0.0000 C   0  0  0  0  0  0  0  0  0  0  0  0
   -0.7615    0.0000    0.0000 C   0  0  0  0  0  0  0  0  0  0  0  0
   -0.0470    0.4125    0.0000 C   0  0  0  0  0  0  0  0  0  0  0  0
    0.6674    0.0000    0.0000 C   0  0  0  0  0  0  0  0  0  0  0  0
    0.6674   -0.8250    0.0000 C   0  0  0  0  0  0  0  0  0  0  0  0
    1.3819   -1.2375    0.0000 C   0  0  0  0  0  0  0  0  0  0  0  0
    2.0964   -0.8250    0.0000 C   0  0  0  0  0  0  0  0  0  0  0  0
    2.0964    0.0000    0.0000 C   0  0  0  0  0  0  0  0  0  0  0  0
    2.8109    0.4125    0.0000 C   0  0  0  0  0  0  0  0  0  0  0  0
    3.5253    0.0000    0.0000 C   0  0  0  0  0  0  0  0  0  0  0  0
    3.5253   -0.8250    0.0000 C   0  0  0  0  0  0  0  0  0  0  0  0
    4.2398   -1.2375    0.0000 C   0  0  0  0  0  0  0  0  0  0  0  0
    4.9543   -0.8250    0.0000 C   0  0  0  0  0  0  0  0  0  0  0  0
    4.9543    0.0000    0.0000 C   0  0  0  0  0  0  0  0  0  0  0  0
    5.6687    0.4125    0.0000 C   0  0  0  0  0  0  0  0  0  0  0  0
    6.3832    0.0000    0.0000 C   0  0  0  0  0  0  0  0  0  0  0  0
    6.3832   -0.8250    0.0000 C   0  0  0  0  0  0  0  0  0  0  0  0
    7.0977   -1.2375    0.0000 C   0  0  0  0  0  0  0  0  0  0  0  0
    7.8121   -0.8250    0.0000 C   0  0  0  0  0  0  0  0  0  0  0  0
    7.8121    0.0000    0.0000 C   0  0  0  0  0  0  0  0  0  0  0  0
    8.5266    0.4125    0.0000 C   0  0  0  0  0  0  0  0  0  0  0  0
  1  8  1  0  0  0  0
  1 10  1  0  0  0  0
  2  9  2  0  0  0  0
  3 16  1  0  0  0  0
  3 17  1  0  0  0  0
  4 17  2  0  0  0  0
  5  8  1  0  0  0  0
  5  9  1  0  0  0  0
  5 12  1  0  0  0  0
  6  9  1  0  0  0  0
  6 14  2  0  0  0  0
  7 14  1  0  0  0  0
  8 11  1  0  0  0  0
 10 13  1  0  0  0  0
 10 16  1  0  0  0  0
 11 13  1  0  0  0  0
 12 15  2  0  0  0  0
 14 15  1  0  0  0  0
 17 18  1  0  0  0  0
 18 19  1  0  0  0  0
 19 20  1  0  0  0  0
 20 21  1  0  0  0  0
 21 22  1  0  0  0  0
 22 23  1  0  0  0  0
 23 24  2  0  0  0  0
 24 25  1  0  0  0  0
 25 26  1  0  0  0  0
 26 27  2  0  0  0  0
 27 28  1  0  0  0  0
 28 29  1  0  0  0  0
 29 30  2  0  0  0  0
 30 31  1  0  0  0  0
 31 32  1  0  0  0  0
 32 33  2  0  0  0  0
 33 34  1  0  0  0  0
 34 35  1  0  0  0  0
 35 36  2  0  0  0  0
 36 37  1  0  0  0  0
 37 38  1  0  0  0  0
M  END
> <PUBCHEM_COMPOUND_ID_TYPE>
0

> <PUBCHEM_TOTAL_CHARGE>
0

> <PUBCHEM_SUBSTANCE_ID>
310947094

> <PUBCHEM_SUBSTANCE_VERSION>
1

> <PUBCHEM_EXT_DATASOURCE_NAME>
4488

> <PUBCHEM_EXT_DATASOURCE_REGID>
SCHEMBL16125248

> <PUBCHEM_SUBSTANCE_COMMENT>
InChI=1S/C31H45N3O4/c1-2-3-4-5-6-7-8-9-10-11-12-13-14-15-16-17-18-19-20-21-30(35)37-26-27-22-23-29(38-27)34-25-24-28(32)33-31(34)36/h3-4,6-7,9-10,12-13,15-16,24-25,27,29H,2,5,8,11,14,17-23,26H2,1H3,(H2,32,33,36)/b4-3-,7-6-,10-9-,13-12-,16-15-
InChIKey=KTZQOQZKYXRSSY-JLNKQSITSA-N

> <PUBCHEM_SUBSTANCE_SYNONYM>
SCHEMBL16125248

> <PUBCHEM_XREF_EXT_ID>
SCHEMBL16125248

> <PUBCHEM_EXT_DATASOURCE_URL>
https://www.surechembl.org/

> <PUBCHEM_EXT_SUBSTANCE_URL>
https://www.surechembl.org/chemical/SCHEMBL16125248

> <PUBCHEM_CID_ASSOCIATIONS>
117612946  1

> <PUBCHEM_COORDINATE_TYPE>
1
3

$$$$
