310934543
  -OEChem-07211613022D

 28 30  0     1  0  0  0  0  0999 V2000
    0.8449   -4.3330    0.0000 Br  0  0  0  0  0  0  0  0  0  0  0  0
    5.3946   -0.7149    0.0000 S   0  0  0  0  0  0  0  0  0  0  0  0
    0.0000   -2.9248    0.0000 F   0  0  0  0  0  0  0  0  0  0  0  0
    2.4698    0.0000    0.0000 O   0  0  0  0  0  0  0  0  0  0  0  0
    6.2395   -0.7149    0.0000 O   0  0  0  0  0  0  0  0  0  0  0  0
    5.8062    0.0000    0.0000 O   0  0  0  0  0  0  0  0  0  0  0  0
    1.6465   -1.4299    0.0000 O   0  0  0  0  0  0  0  0  0  0  0  0
    1.6682   -2.8815    0.0000 O   0  0  0  0  0  0  0  0  0  0  0  0
    3.3148   -1.4516    0.0000 N   0  0  0  0  0  0  0  0  0  0  0  0
    2.4698   -1.4299    0.0000 N   0  0  0  0  0  0  0  0  0  0  0  0
    3.7047   -0.7149    0.0000 C   0  0  0  0  0  0  0  0  0  0  0  0
    2.8815   -0.7149    0.0000 C   0  0  0  0  0  0  0  0  0  0  0  0
    4.1597   -1.4299    0.0000 C   0  0  0  0  0  0  0  0  0  0  0  0
    4.1597   -0.0217    0.0000 C   0  0  0  0  0  0  0  0  0  0  0  0
    4.9613   -1.4299    0.0000 C   0  0  0  0  0  0  0  0  0  0  0  0
    4.9613   -0.0217    0.0000 C   0  0  0  0  0  0  0  0  0  0  0  0
    2.6431   -1.6249    0.0000 C   0  0  0  0  0  0  0  0  0  0  0  0
    2.0799   -2.1665    0.0000 C   0  0  0  0  0  0  0  0  0  0  0  0
    1.2349   -2.1881    0.0000 C   0  0  0  0  0  0  0  0  0  0  0  0
    0.8449   -2.9031    0.0000 C   0  0  0  0  0  0  0  0  0  0  0  0
    2.4915   -2.8815    0.0000 C   0  0  0  0  0  0  0  0  0  0  0  0
    1.2565   -3.6181    0.0000 C   0  0  0  0  0  0  0  0  0  0  0  0
    1.3865   -2.3181    0.0000 C   0  0  3  0  0  0  0  0  0  0  0  0
    2.0799   -3.6181    0.0000 C   0  0  0  0  0  0  0  0  0  0  0  0
    0.4116   -2.1448    0.0000 C   0  0  0  0  0  0  0  0  0  0  0  0
    1.3865   -3.7480    0.0000 C   0  0  0  0  0  0  0  0  0  0  0  0
    0.1516   -3.0331    0.0000 C   0  0  0  0  0  0  0  0  0  0  0  0
    0.4116   -3.5747    0.0000 C   0  0  0  0  0  0  0  0  0  0  0  0
  1 22  1  0  0  0  0
  2  5  2  0  0  0  0
  2  6  2  0  0  0  0
  2 15  1  0  0  0  0
  2 16  1  0  0  0  0
  3 20  1  0  0  0  0
  4 12  2  0  0  0  0
  7 10  1  0  0  0  0
  7 23  1  0  0  0  0
  8 23  1  0  0  0  0
  8 26  1  0  0  0  0
  9 11  1  0  0  0  0
  9 17  1  0  0  0  0
 10 12  1  0  0  0  0
 11 12  1  0  0  0  0
 11 13  1  0  0  0  0
 11 14  1  0  0  0  0
 13 15  1  0  0  0  0
 14 16  1  0  0  0  0
 17 18  1  0  0  0  0
 18 19  2  0  0  0  0
 18 21  1  0  0  0  0
 19 20  1  0  0  0  0
 20 22  2  0  0  0  0
 21 24  2  0  0  0  0
 22 24  1  0  0  0  0
 23 25  1  0  0  0  0
 25 27  1  0  0  0  0
 26 28  1  0  0  0  0
 27 28  1  0  0  0  0
M  END
> <PUBCHEM_COMPOUND_ID_TYPE>
0

> <PUBCHEM_TOTAL_CHARGE>
0

> <PUBCHEM_SUBSTANCE_ID>
310934543

> <PUBCHEM_SUBSTANCE_VERSION>
1

> <PUBCHEM_EXT_DATASOURCE_NAME>
4488

> <PUBCHEM_EXT_DATASOURCE_REGID>
SCHEMBL16112034

> <PUBCHEM_SUBSTANCE_COMMENT>
InChI=1S/C18H24BrFN2O5S/c19-14-5-4-13(11-15(14)20)12-21-18(6-9-28(24,25)10-7-18)17(23)22-27-16-3-1-2-8-26-16/h4-5,11,16,21H,1-3,6-10,12H2,(H,22,23)
InChIKey=FDYFWQVFDMUAHA-UHFFFAOYSA-N

> <PUBCHEM_SUBSTANCE_SYNONYM>
SCHEMBL16112034

> <PUBCHEM_XREF_EXT_ID>
SCHEMBL16112034

> <PUBCHEM_EXT_DATASOURCE_URL>
https://www.surechembl.org/

> <PUBCHEM_EXT_SUBSTANCE_URL>
https://www.surechembl.org/chemical/SCHEMBL16112034

> <PUBCHEM_CID_ASSOCIATIONS>
117602738  1

> <PUBCHEM_COORDINATE_TYPE>
1
3

$$$$
