310928747
  -OEChem-07211613022D

 14 15  0     1  0  0  0  0  0999 V2000
    1.0589    0.1944    0.0000 O   0  0  0  0  0  0  0  0  0  0  0  0
    0.3444    1.4319    0.0000 O   0  0  0  0  0  0  0  0  0  0  0  0
   -1.7990   -0.6306    0.0000 N   0  0  0  0  0  0  0  0  0  0  0  0
   -0.3701    0.1944    0.0000 C   0  0  0  0  0  0  0  0  0  0  0  0
   -1.0845   -1.0431    0.0000 C   0  0  3  0  0  0  0  0  0  0  0  0
   -1.7990    0.1944    0.0000 C   0  0  3  0  0  0  0  0  0  0  0  0
   -0.3701   -0.6306    0.0000 C   0  0  0  0  0  0  0  0  0  0  0  0
   -1.0845    0.6069    0.0000 C   0  0  0  0  0  0  0  0  0  0  0  0
    0.3444    0.6069    0.0000 C   0  0  0  0  0  0  0  0  0  0  0  0
   -1.7887   -1.4319    0.0000 C   0  0  0  0  0  0  0  0  0  0  0  0
   -2.4878   -0.2210    0.0000 C   0  0  0  0  0  0  0  0  0  0  0  0
   -2.4827   -1.0253    0.0000 C   0  0  0  0  0  0  0  0  0  0  0  0
    1.7734    0.6069    0.0000 C   0  0  0  0  0  0  0  0  0  0  0  0
    2.4878    0.1944    0.0000 C   0  0  0  0  0  0  0  0  0  0  0  0
  1  9  1  0  0  0  0
  1 13  1  0  0  0  0
  2  9  2  0  0  0  0
  3  5  1  0  0  0  0
  3  6  1  0  0  0  0
  4  7  1  0  0  0  0
  4  8  1  0  0  0  0
  4  9  1  0  0  0  0
  5  7  1  0  0  0  0
  5 10  1  0  0  0  0
  6  8  1  0  0  0  0
  6 11  1  0  0  0  0
 10 12  1  0  0  0  0
 11 12  1  0  0  0  0
 13 14  1  0  0  0  0
M  END
> <PUBCHEM_COMPOUND_ID_TYPE>
0

> <PUBCHEM_TOTAL_CHARGE>
0

> <PUBCHEM_SUBSTANCE_ID>
310928747

> <PUBCHEM_SUBSTANCE_VERSION>
1

> <PUBCHEM_EXT_DATASOURCE_NAME>
11752

> <PUBCHEM_EXT_DATASOURCE_REGID>
BD220081

> <PUBCHEM_SUBSTANCE_SYNONYM>
141379-91-1
Ethyl 9-azabicyclo[3.3.1]nonane-3-carboxylate

> <PUBCHEM_GENERIC_REGISTRY_NAME>
141379-91-1

> <PUBCHEM_XREF_EXT_ID>
BD220081

> <PUBCHEM_EXT_DATASOURCE_URL>
http://www.bidepharmatech.com/en/index.html

> <PUBCHEM_EXT_SUBSTANCE_URL>
http://www.bidepharmatech.com/en/goodsview_goodscode_BD220081.html

> <PUBCHEM_CID_ASSOCIATIONS>
15639097  1

> <PUBCHEM_COORDINATE_TYPE>
1
3

$$$$
