310933854
  -OEChem-07211613022D

 38 42  0     1  0  0  0  0  0999 V2000
    8.1247   -3.7455    0.0000 Cl  0  0  0  0  0  0  0  0  0  0  0  0
    0.0000   -3.0540    0.0000 Cl  0  0  0  0  0  0  0  0  0  0  0  0
    1.6422   -2.9099    0.0000 F   0  0  0  0  0  0  0  0  0  0  0  0
    4.5810   -5.7623    0.0000 O   0  0  0  0  0  0  0  0  0  0  0  0
    3.8895   -3.6878    0.0000 O   0  0  0  0  0  0  0  0  0  0  0  0
    7.4333    0.0000    0.0000 O   0  0  0  0  0  0  0  0  0  0  0  0
    8.1535   -1.2389    0.0000 O   0  0  0  0  0  0  0  0  0  0  0  0
    5.2725   -4.5233    0.0000 N   0  0  0  0  0  0  0  0  0  0  0  0
    2.5930   -4.2352    0.0000 N   0  0  0  0  0  0  0  0  0  0  0  0
    3.9760   -3.8607    0.0000 N   0  0  0  0  0  0  0  0  0  0  0  0
    2.9964   -3.5150    0.0000 N   0  0  0  0  0  0  0  0  0  0  0  0
    4.6098   -2.4778    0.0000 N   0  0  0  0  0  0  0  0  0  0  0  0
    5.3013   -3.6878    0.0000 C   0  0  3  0  0  0  0  0  0  0  0  0
    6.0216   -3.2845    0.0000 C   0  0  0  0  0  0  0  0  0  0  0  0
    6.7130   -3.7167    0.0000 C   0  0  0  0  0  0  0  0  0  0  0  0
    4.5810   -4.9267    0.0000 C   0  0  0  0  0  0  0  0  0  0  0  0
    3.8607   -4.5233    0.0000 C   0  0  0  0  0  0  0  0  0  0  0  0
    4.6098   -3.2845    0.0000 C   0  0  0  0  0  0  0  0  0  0  0  0
    5.9927   -4.9267    0.0000 C   0  0  0  0  0  0  0  0  0  0  0  0
    6.7130   -4.5233    0.0000 C   0  0  0  0  0  0  0  0  0  0  0  0
    7.4333   -3.3133    0.0000 C   0  0  0  0  0  0  0  0  0  0  0  0
    3.1116   -4.8691    0.0000 C   0  0  0  0  0  0  0  0  0  0  0  0
    6.1656   -2.6506    0.0000 C   0  0  0  0  0  0  0  0  0  0  0  0
    1.7575   -4.3217    0.0000 C   0  0  0  0  0  0  0  0  0  0  0  0
    1.2965   -3.6590    0.0000 C   0  0  0  0  0  0  0  0  0  0  0  0
    7.4333   -2.4778    0.0000 C   0  0  0  0  0  0  0  0  0  0  0  0
    6.8859   -2.2184    0.0000 C   0  0  0  0  0  0  0  0  0  0  0  0
    5.3013   -2.0456    0.0000 C   0  0  0  0  0  0  0  0  0  0  0  0
    1.4118   -5.0708    0.0000 C   0  0  0  0  0  0  0  0  0  0  0  0
    0.4610   -3.7167    0.0000 C   0  0  0  0  0  0  0  0  0  0  0  0
    0.6050   -5.1284    0.0000 C   0  0  0  0  0  0  0  0  0  0  0  0
    0.1152   -4.4657    0.0000 C   0  0  0  0  0  0  0  0  0  0  0  0
    5.3013   -1.2389    0.0000 C   0  0  0  0  0  0  0  0  0  0  0  0
    6.0216   -2.4778    0.0000 C   0  0  0  0  0  0  0  0  0  0  0  0
    6.7130   -1.2389    0.0000 C   0  0  0  0  0  0  0  0  0  0  0  0
    6.0216   -0.8355    0.0000 C   0  0  0  0  0  0  0  0  0  0  0  0
    6.7130   -2.0456    0.0000 C   0  0  0  0  0  0  0  0  0  0  0  0
    7.4333   -0.8355    0.0000 C   0  0  0  0  0  0  0  0  0  0  0  0
  1 21  1  0  0  0  0
  2 30  1  0  0  0  0
  3 25  1  0  0  0  0
  4 16  2  0  0  0  0
  5 18  2  0  0  0  0
  6 38  2  0  0  0  0
  7 38  1  0  0  0  0
  8 13  1  0  0  0  0
  8 16  1  0  0  0  0
  8 19  1  0  0  0  0
  9 11  1  0  0  0  0
  9 22  1  0  0  0  0
  9 24  1  0  0  0  0
 10 11  2  0  0  0  0
 10 17  1  0  0  0  0
 12 18  1  0  0  0  0
 12 28  1  0  0  0  0
 13 14  1  0  0  0  0
 13 18  1  0  0  0  0
 14 15  2  0  0  0  0
 14 23  1  0  0  0  0
 15 20  1  0  0  0  0
 15 21  1  0  0  0  0
 16 17  1  0  0  0  0
 17 22  2  0  0  0  0
 19 20  1  0  0  0  0
 21 26  2  0  0  0  0
 23 27  2  0  0  0  0
 24 25  1  0  0  0  0
 24 29  2  0  0  0  0
 25 30  2  0  0  0  0
 26 27  1  0  0  0  0
 28 33  2  0  0  0  0
 28 34  1  0  0  0  0
 29 31  1  0  0  0  0
 30 32  1  0  0  0  0
 31 32  2  0  0  0  0
 33 36  1  0  0  0  0
 34 37  2  0  0  0  0
 35 36  2  0  0  0  0
 35 37  1  0  0  0  0
 35 38  1  0  0  0  0
M  END
> <PUBCHEM_COMPOUND_ID_TYPE>
0

> <PUBCHEM_TOTAL_CHARGE>
0

> <PUBCHEM_SUBSTANCE_ID>
310933854

> <PUBCHEM_SUBSTANCE_VERSION>
1

> <PUBCHEM_EXT_DATASOURCE_NAME>
4488

> <PUBCHEM_EXT_DATASOURCE_REGID>
SCHEMBL16111292

> <PUBCHEM_SUBSTANCE_COMMENT>
InChI=1S/C26H18Cl2FN5O4/c27-18-4-1-3-17-16(18)11-12-33(23(17)24(35)30-15-9-7-14(8-10-15)26(37)38)25(36)20-13-34(32-31-20)21-6-2-5-19(28)22(21)29/h1-10,13,23H,11-12H2,(H,30,35)(H,37,38)
InChIKey=RQIAZUZZDXQKHU-UHFFFAOYSA-N

> <PUBCHEM_SUBSTANCE_SYNONYM>
SCHEMBL16111292

> <PUBCHEM_XREF_EXT_ID>
SCHEMBL16111292

> <PUBCHEM_EXT_DATASOURCE_URL>
https://www.surechembl.org/

> <PUBCHEM_EXT_SUBSTANCE_URL>
https://www.surechembl.org/chemical/SCHEMBL16111292

> <PUBCHEM_CID_ASSOCIATIONS>
117602197  1

> <PUBCHEM_COORDINATE_TYPE>
1
3

$$$$
