310933811
  -OEChem-07211613022D

 46 51  0     1  0  0  0  0  0999 V2000
    0.0000   -1.2737    0.0000 Cl  0  0  0  0  0  0  0  0  0  0  0  0
    1.4235   -0.4495    0.0000 F   0  0  0  0  0  0  0  0  0  0  0  0
    5.7690   -1.2737    0.0000 O   0  0  0  0  0  0  0  0  0  0  0  0
    6.5183   -1.6858    0.0000 O   0  0  0  0  0  0  0  0  0  0  0  0
    2.1353   -6.6681    0.0000 O   0  0  0  0  0  0  0  0  0  0  0  0
   10.1520   -0.4495    0.0000 O   0  0  0  0  0  0  0  0  0  0  0  0
   10.8638   -1.6858    0.0000 O   0  0  0  0  0  0  0  0  0  0  0  0
    5.0573   -2.5099    0.0000 N   0  0  0  0  0  0  0  0  0  0  0  0
    4.3081   -5.4319    0.0000 N   0  0  0  0  0  0  0  0  0  0  0  0
    7.2301   -2.9595    0.0000 N   0  0  0  0  0  0  0  0  0  0  0  0
    2.8846   -0.4121    0.0000 N   0  0  0  0  0  0  0  0  0  0  0  0
    5.8065   -2.9595    0.0000 C   0  0  3  0  0  0  0  0  0  0  0  0
    5.8065   -3.7836    0.0000 C   0  0  0  0  0  0  0  0  0  0  0  0
    5.0573   -4.1957    0.0000 C   0  0  0  0  0  0  0  0  0  0  0  0
    5.0198   -5.0198    0.0000 C   0  0  0  0  0  0  0  0  0  0  0  0
    5.0573   -1.6858    0.0000 C   0  0  0  0  0  0  0  0  0  0  0  0
    6.5183   -2.5474    0.0000 C   0  0  0  0  0  0  0  0  0  0  0  0
    4.3081   -3.7836    0.0000 C   0  0  0  0  0  0  0  0  0  0  0  0
    4.3455   -2.9595    0.0000 C   0  0  0  0  0  0  0  0  0  0  0  0
    6.5183   -4.1957    0.0000 C   0  0  0  0  0  0  0  0  0  0  0  0
    4.3455   -1.2737    0.0000 C   0  0  0  0  0  0  0  0  0  0  0  0
    5.7690   -5.4694    0.0000 C   0  0  0  0  0  0  0  0  0  0  0  0
    6.5183   -5.0573    0.0000 C   0  0  0  0  0  0  0  0  0  0  0  0
    2.8846   -1.2737    0.0000 C   0  0  0  0  0  0  0  0  0  0  0  0
    3.5963   -1.6858    0.0000 C   0  0  0  0  0  0  0  0  0  0  0  0
    2.1727   -1.6858    0.0000 C   0  0  0  0  0  0  0  0  0  0  0  0
    4.3455   -0.4495    0.0000 C   0  0  0  0  0  0  0  0  0  0  0  0
    4.3081   -6.2935    0.0000 C   0  0  0  0  0  0  0  0  0  0  0  0
    3.5963   -5.0198    0.0000 C   0  0  0  0  0  0  0  0  0  0  0  0
    7.9418   -2.5474    0.0000 C   0  0  0  0  0  0  0  0  0  0  0  0
    1.4235   -1.2737    0.0000 C   0  0  0  0  0  0  0  0  0  0  0  0
    3.6338    0.0000    0.0000 C   0  0  0  0  0  0  0  0  0  0  0  0
    3.5963   -6.6681    0.0000 C   0  0  0  0  0  0  0  0  0  0  0  0
    2.8846   -5.4319    0.0000 C   0  0  0  0  0  0  0  0  0  0  0  0
    2.8471   -6.2561    0.0000 C   0  0  0  0  0  0  0  0  0  0  0  0
    2.1353   -2.5474    0.0000 C   0  0  0  0  0  0  0  0  0  0  0  0
    0.7118   -1.6858    0.0000 C   0  0  0  0  0  0  0  0  0  0  0  0
    7.9418   -1.6858    0.0000 C   0  0  0  0  0  0  0  0  0  0  0  0
    8.6911   -2.9595    0.0000 C   0  0  0  0  0  0  0  0  0  0  0  0
    1.4235   -2.9595    0.0000 C   0  0  0  0  0  0  0  0  0  0  0  0
    0.7118   -2.5099    0.0000 C   0  0  0  0  0  0  0  0  0  0  0  0
    9.4028   -1.6858    0.0000 C   0  0  0  0  0  0  0  0  0  0  0  0
    8.6911   -1.2737    0.0000 C   0  0  0  0  0  0  0  0  0  0  0  0
    9.4028   -2.5474    0.0000 C   0  0  0  0  0  0  0  0  0  0  0  0
   10.1520   -1.2737    0.0000 C   0  0  0  0  0  0  0  0  0  0  0  0
    2.0979   -7.4923    0.0000 C   0  0  0  0  0  0  0  0  0  0  0  0
  1 37  1  0  0  0  0
  2 31  1  0  0  0  0
  3 16  2  0  0  0  0
  4 17  2  0  0  0  0
  5 35  1  0  0  0  0
  5 46  1  0  0  0  0
  6 45  2  0  0  0  0
  7 45  1  0  0  0  0
  8 12  1  0  0  0  0
  8 16  1  0  0  0  0
  8 19  1  0  0  0  0
  9 15  1  0  0  0  0
  9 28  1  0  0  0  0
  9 29  1  0  0  0  0
 10 17  1  0  0  0  0
 10 30  1  0  0  0  0
 11 24  1  0  0  0  0
 11 32  2  0  0  0  0
 12 13  1  0  0  0  0
 12 17  1  0  0  0  0
 13 14  2  0  0  0  0
 13 20  1  0  0  0  0
 14 15  1  0  0  0  0
 14 18  1  0  0  0  0
 15 22  2  0  0  0  0
 16 21  1  0  0  0  0
 18 19  1  0  0  0  0
 20 23  2  0  0  0  0
 21 25  1  0  0  0  0
 21 27  2  0  0  0  0
 22 23  1  0  0  0  0
 24 25  2  0  0  0  0
 24 26  1  0  0  0  0
 26 31  1  0  0  0  0
 26 36  2  0  0  0  0
 27 32  1  0  0  0  0
 28 33  1  0  0  0  0
 29 34  1  0  0  0  0
 30 38  2  0  0  0  0
 30 39  1  0  0  0  0
 31 37  2  0  0  0  0
 33 35  1  0  0  0  0
 34 35  1  0  0  0  0
 36 40  1  0  0  0  0
 37 41  1  0  0  0  0
 38 43  1  0  0  0  0
 39 44  2  0  0  0  0
 40 41  2  0  0  0  0
 42 43  2  0  0  0  0
 42 44  1  0  0  0  0
 42 45  1  0  0  0  0
M  END
> <PUBCHEM_COMPOUND_ID_TYPE>
0

> <PUBCHEM_TOTAL_CHARGE>
0

> <PUBCHEM_SUBSTANCE_ID>
310933811

> <PUBCHEM_SUBSTANCE_VERSION>
1

> <PUBCHEM_EXT_DATASOURCE_NAME>
4488

> <PUBCHEM_EXT_DATASOURCE_REGID>
SCHEMBL16111249

> <PUBCHEM_SUBSTANCE_COMMENT>
InChI=1S/C35H32ClFN4O5/c1-46-24-13-17-40(18-14-24)30-7-3-4-26-25(30)15-19-41(32(26)33(42)39-23-10-8-21(9-11-23)35(44)45)34(43)22-12-16-38-29(20-22)27-5-2-6-28(36)31(27)37/h2-12,16,20,24,32H,13-15,17-19H2,1H3,(H,39,42)(H,44,45)
InChIKey=IDTDQUJKOQHEEX-UHFFFAOYSA-N

> <PUBCHEM_SUBSTANCE_SYNONYM>
SCHEMBL16111249

> <PUBCHEM_XREF_EXT_ID>
SCHEMBL16111249

> <PUBCHEM_EXT_DATASOURCE_URL>
https://www.surechembl.org/

> <PUBCHEM_EXT_SUBSTANCE_URL>
https://www.surechembl.org/chemical/SCHEMBL16111249

> <PUBCHEM_CID_ASSOCIATIONS>
117602159  1

> <PUBCHEM_COORDINATE_TYPE>
1
3

$$$$
