310931087
  -OEChem-07211613022D

 30 34  0     1  0  0  0  0  0999 V2000
    0.2075   -2.7322    0.0000 O   0  0  0  0  0  0  0  0  0  0  0  0
    1.6601    0.0000    0.0000 O   0  0  0  0  0  0  0  0  0  0  0  0
    1.6601   -2.5247    0.0000 N   0  0  0  0  0  0  0  0  0  0  0  0
    2.0751   -3.8043    0.0000 N   0  0  0  0  0  0  0  0  0  0  0  0
    3.1126   -2.7322    0.0000 N   0  0  0  0  0  0  0  0  0  0  0  0
    1.2451   -3.8043    0.0000 C   0  0  3  0  0  0  0  0  0  0  0  0
    1.0030   -3.0089    0.0000 C   0  0  0  0  0  0  0  0  0  0  0  0
    0.7609   -4.4614    0.0000 C   0  0  0  0  0  0  0  0  0  0  0  0
    1.6255   -4.5306    0.0000 C   0  0  0  0  0  0  0  0  0  0  0  0
    2.3518   -3.0089    0.0000 C   0  0  0  0  0  0  0  0  0  0  0  0
    0.6917   -5.2915    0.0000 C   0  0  0  0  0  0  0  0  0  0  0  0
    0.0000   -4.8073    0.0000 C   0  0  0  0  0  0  0  0  0  0  0  0
    1.6601   -1.6947    0.0000 C   0  0  0  0  0  0  0  0  0  0  0  0
    2.4555   -4.5652    0.0000 C   0  0  0  0  0  0  0  0  0  0  0  0
    1.1759   -5.2223    0.0000 C   0  0  0  0  0  0  0  0  0  0  0  0
    2.8359   -5.2915    0.0000 C   0  0  0  0  0  0  0  0  0  0  0  0
    1.5563   -5.9486    0.0000 C   0  0  0  0  0  0  0  0  0  0  0  0
    2.3864   -1.2451    0.0000 C   0  0  0  0  0  0  0  0  0  0  0  0
    0.9684   -1.2451    0.0000 C   0  0  0  0  0  0  0  0  0  0  0  0
    2.3864   -6.0177    0.0000 C   0  0  0  0  0  0  0  0  0  0  0  0
    3.6314   -5.3606    0.0000 C   0  0  0  0  0  0  0  0  0  0  0  0
    2.3864   -0.4496    0.0000 C   0  0  0  0  0  0  0  0  0  0  0  0
    0.9684   -0.4496    0.0000 C   0  0  0  0  0  0  0  0  0  0  0  0
    4.0119   -6.0870    0.0000 C   0  0  0  0  0  0  0  0  0  0  0  0
    4.1156   -4.6343    0.0000 C   0  0  0  0  0  0  0  0  0  0  0  0
    4.8419   -6.1215    0.0000 C   0  0  0  0  0  0  0  0  0  0  0  0
    4.9110   -4.7036    0.0000 C   0  0  0  0  0  0  0  0  0  0  0  0
    5.2915   -5.4298    0.0000 C   0  0  0  0  0  0  0  0  0  0  0  0
    5.2223   -6.8824    0.0000 C   0  0  0  0  0  0  0  0  0  0  0  0
    6.0523   -6.9170    0.0000 C   0  0  0  0  0  0  0  0  0  0  0  0
  1  7  2  0  0  0  0
  2 22  1  0  0  0  0
  2 23  1  0  0  0  0
  3  7  1  0  0  0  0
  3 10  1  0  0  0  0
  3 13  1  0  0  0  0
  4  6  1  0  0  0  0
  4 10  1  0  0  0  0
  5 10  2  3  0  0  0
  6  7  1  0  0  0  0
  6  8  1  0  0  0  0
  6  9  1  0  0  0  0
  8 11  1  0  0  0  0
  8 12  1  0  0  0  0
  9 14  2  0  0  0  0
  9 15  1  0  0  0  0
 11 12  1  0  0  0  0
 13 18  1  0  0  0  0
 13 19  1  0  0  0  0
 14 16  1  0  0  0  0
 15 17  2  0  0  0  0
 16 20  2  0  0  0  0
 16 21  1  0  0  0  0
 17 20  1  0  0  0  0
 18 22  1  0  0  0  0
 19 23  1  0  0  0  0
 21 24  1  0  0  0  0
 21 25  2  0  0  0  0
 24 26  2  0  0  0  0
 25 27  1  0  0  0  0
 26 28  1  0  0  0  0
 26 29  1  0  0  0  0
 27 28  2  0  0  0  0
 29 30  3  0  0  0  0
M  END
> <PUBCHEM_COMPOUND_ID_TYPE>
0

> <PUBCHEM_TOTAL_CHARGE>
0

> <PUBCHEM_SUBSTANCE_ID>
310931087

> <PUBCHEM_SUBSTANCE_VERSION>
1

> <PUBCHEM_EXT_DATASOURCE_NAME>
4488

> <PUBCHEM_EXT_DATASOURCE_REGID>
SCHEMBL16108391

> <PUBCHEM_SUBSTANCE_COMMENT>
InChI=1S/C25H25N3O2/c1-2-17-5-3-6-18(15-17)19-7-4-8-21(16-19)25(20-9-10-20)23(29)28(24(26)27-25)22-11-13-30-14-12-22/h1,3-8,15-16,20,22H,9-14H2,(H2,26,27)
InChIKey=JUNHDFFPNXVPHL-UHFFFAOYSA-N

> <PUBCHEM_SUBSTANCE_SYNONYM>
SCHEMBL16108391

> <PUBCHEM_XREF_EXT_ID>
SCHEMBL16108391

> <PUBCHEM_EXT_DATASOURCE_URL>
https://www.surechembl.org/

> <PUBCHEM_EXT_SUBSTANCE_URL>
https://www.surechembl.org/chemical/SCHEMBL16108391

> <PUBCHEM_CID_ASSOCIATIONS>
86274084  1

> <PUBCHEM_COORDINATE_TYPE>
1
3

$$$$
