310940453
  -OEChem-07211613022D

 31 35  0     1  0  0  0  0  0999 V2000
   -0.6388    0.9542    0.0000 F   0  0  0  0  0  0  0  0  0  0  0  0
   -0.9461    2.0217    0.0000 F   0  0  0  0  0  0  0  0  0  0  0  0
    0.1537    2.3128    0.0000 F   0  0  0  0  0  0  0  0  0  0  0  0
   -2.3855   -2.0701    0.0000 O   0  0  0  0  0  0  0  0  0  0  0  0
    2.3855   -0.0970    0.0000 O   0  0  0  0  0  0  0  0  0  0  0  0
    1.1564   -1.3586    0.0000 N   0  0  3  0  0  0  0  0  0  0  0  0
   -1.6577   -0.8248    0.0000 N   0  0  0  0  0  0  0  0  0  0  0  0
   -1.1079   -2.8788    0.0000 N   0  0  0  0  0  0  0  0  0  0  0  0
   -0.4124   -3.2831    0.0000 N   0  0  0  0  0  0  0  0  0  0  0  0
   -0.1698   -1.9731    0.0000 C   0  0  0  0  0  0  0  0  0  0  0  0
   -1.0108   -2.0378    0.0000 C   0  0  0  0  0  0  0  0  0  0  0  0
    0.1860   -2.7009    0.0000 C   0  0  0  0  0  0  0  0  0  0  0  0
   -1.6901   -1.6011    0.0000 C   0  0  0  0  0  0  0  0  0  0  0  0
    0.3477   -1.2938    0.0000 C   0  0  0  0  0  0  0  0  0  0  0  0
   -1.6577    1.6658    0.0000 C   0  0  0  0  0  0  0  0  0  0  0  0
    1.0270   -2.7818    0.0000 C   0  0  0  0  0  0  0  0  0  0  0  0
   -1.6740    0.8410    0.0000 C   0  0  0  0  0  0  0  0  0  0  0  0
    1.5445   -0.9219    0.0000 C   0  0  0  0  0  0  0  0  0  0  0  0
   -0.9623    2.0701    0.0000 C   0  0  0  0  0  0  0  0  0  0  0  0
    1.4798   -2.1348    0.0000 C   0  0  0  0  0  0  0  0  0  0  0  0
   -0.2507    1.6497    0.0000 C   0  0  0  0  0  0  0  0  0  0  0  0
   -0.9623   -0.4205    0.0000 C   0  0  0  0  0  0  0  0  0  0  0  0
   -2.3694   -0.4043    0.0000 C   0  0  0  0  0  0  0  0  0  0  0  0
   -0.9461    0.4205    0.0000 C   0  0  0  0  0  0  0  0  0  0  0  0
   -2.3855    0.4043    0.0000 C   0  0  0  0  0  0  0  0  0  0  0  0
    1.5769   -0.0970    0.0000 C   0  0  0  0  0  0  0  0  0  0  0  0
    2.3855   -0.9219    0.0000 C   0  0  0  0  0  0  0  0  0  0  0  0
   -2.3370    2.0540    0.0000 C   0  0  0  0  0  0  0  0  0  0  0  0
   -0.9461    2.8950    0.0000 C   0  0  0  0  0  0  0  0  0  0  0  0
   -2.3532    2.8788    0.0000 C   0  0  0  0  0  0  0  0  0  0  0  0
   -1.6577    3.2831    0.0000 C   0  0  0  0  0  0  0  0  0  0  0  0
  1 21  1  0  0  0  0
  2 21  1  0  0  0  0
  3 21  1  0  0  0  0
  4 13  2  0  0  0  0
  5 26  1  0  0  0  0
  5 27  1  0  0  0  0
  6 14  1  0  0  0  0
  6 18  1  0  0  0  0
  6 20  1  0  0  0  0
  7 13  1  0  0  0  0
  7 22  1  0  0  0  0
  7 23  1  0  0  0  0
  8  9  1  0  0  0  0
  8 11  2  0  0  0  0
  9 12  1  0  0  0  0
 10 11  1  0  0  0  0
 10 12  2  0  0  0  0
 10 14  1  0  0  0  0
 11 13  1  0  0  0  0
 12 16  1  0  0  0  0
 15 17  1  0  0  0  0
 15 19  2  0  0  0  0
 15 28  1  0  0  0  0
 16 20  1  0  0  0  0
 17 24  1  0  0  0  0
 17 25  1  0  0  0  0
 18 26  1  0  0  0  0
 18 27  1  0  0  0  0
 19 21  1  0  0  0  0
 19 29  1  0  0  0  0
 22 24  1  0  0  0  0
 23 25  1  0  0  0  0
 28 30  2  0  0  0  0
 29 31  2  0  0  0  0
 30 31  1  0  0  0  0
M  END
> <PUBCHEM_COMPOUND_ID_TYPE>
0

> <PUBCHEM_TOTAL_CHARGE>
0

> <PUBCHEM_SUBSTANCE_ID>
310940453

> <PUBCHEM_SUBSTANCE_VERSION>
1

> <PUBCHEM_EXT_DATASOURCE_NAME>
4488

> <PUBCHEM_EXT_DATASOURCE_REGID>
SCHEMBL16118406

> <PUBCHEM_SUBSTANCE_COMMENT>
InChI=1S/C22H25F3N4O2/c23-22(24,25)18-4-2-1-3-16(18)14-5-8-28(9-6-14)21(30)20-17-11-29(15-12-31-13-15)10-7-19(17)26-27-20/h1-4,14-15H,5-13H2,(H,26,27)
InChIKey=IVDCXSZIPNKYHF-UHFFFAOYSA-N

> <PUBCHEM_SUBSTANCE_SYNONYM>
SCHEMBL16118406

> <PUBCHEM_XREF_EXT_ID>
SCHEMBL16118406

> <PUBCHEM_EXT_DATASOURCE_URL>
https://www.surechembl.org/

> <PUBCHEM_EXT_SUBSTANCE_URL>
https://www.surechembl.org/chemical/SCHEMBL16118406

> <PUBCHEM_CID_ASSOCIATIONS>
86267312  1

> <PUBCHEM_COORDINATE_TYPE>
1
3

$$$$
