310937673
  -OEChem-07211613022D

 37 41  0     1  0  0  0  0  0999 V2000
    4.3020   -5.3189    0.0000 O   0  0  0  0  0  0  0  0  0  0  0  0
    7.1961   -5.3580    0.0000 O   0  0  0  0  0  0  0  0  0  0  0  0
    6.5313   -2.5812    0.0000 N   0  0  3  0  0  0  0  0  0  0  0  0
    5.7490   -5.3189    0.0000 N   0  0  0  0  0  0  0  0  0  0  0  0
    2.1902   -2.4639    0.0000 N   0  0  0  0  0  0  0  0  0  0  0  0
    1.4470   -1.2124    0.0000 N   0  0  0  0  0  0  0  0  0  0  0  0
    7.9001   -6.5704    0.0000 N   0  0  0  0  0  0  0  0  0  0  0  0
    0.0000   -0.4302    0.0000 N   0  0  0  0  0  0  0  0  0  0  0  0
    5.7490   -3.6763    0.0000 C   0  0  0  0  0  0  0  0  0  0  0  0
    5.7490   -2.8550    0.0000 C   0  0  0  0  0  0  0  0  0  0  0  0
    5.0451   -4.0674    0.0000 C   0  0  0  0  0  0  0  0  0  0  0  0
    4.3411   -2.8550    0.0000 C   0  0  0  0  0  0  0  0  0  0  0  0
    5.0451   -2.4248    0.0000 C   0  0  0  0  0  0  0  0  0  0  0  0
    4.3411   -3.6763    0.0000 C   0  0  0  0  0  0  0  0  0  0  0  0
    6.5313   -3.9109    0.0000 C   0  0  0  0  0  0  0  0  0  0  0  0
    5.0451   -4.8887    0.0000 C   0  0  0  0  0  0  0  0  0  0  0  0
    3.5981   -2.4639    0.0000 C   0  0  0  0  0  0  0  0  0  0  0  0
    7.0006   -3.2461    0.0000 C   0  0  0  0  0  0  0  0  0  0  0  0
    6.8050   -1.7990    0.0000 C   0  0  0  0  0  0  0  0  0  0  0  0
    2.8941   -2.8550    0.0000 C   0  0  0  0  0  0  0  0  0  0  0  0
    3.5981   -1.6426    0.0000 C   0  0  0  0  0  0  0  0  0  0  0  0
    2.1510   -1.6426    0.0000 C   0  0  0  0  0  0  0  0  0  0  0  0
    6.4531   -6.5704    0.0000 C   0  0  0  0  0  0  0  0  0  0  0  0
    2.8941   -1.2124    0.0000 C   0  0  0  0  0  0  0  0  0  0  0  0
    5.7490   -6.1402    0.0000 C   0  0  0  0  0  0  0  0  0  0  0  0
    7.1961   -6.1793    0.0000 C   0  0  0  0  0  0  0  0  0  0  0  0
    6.4922   -7.3917    0.0000 C   0  0  0  0  0  0  0  0  0  0  0  0
    6.2184   -1.2124    0.0000 C   0  0  0  0  0  0  0  0  0  0  0  0
    7.9001   -7.3917    0.0000 C   0  0  0  0  0  0  0  0  0  0  0  0
    7.1570   -7.7828    0.0000 C   0  0  0  0  0  0  0  0  0  0  0  0
    1.4470   -0.3911    0.0000 C   0  0  0  0  0  0  0  0  0  0  0  0
    0.7431   -1.6426    0.0000 C   0  0  0  0  0  0  0  0  0  0  0  0
    5.7490   -7.7828    0.0000 C   0  0  0  0  0  0  0  0  0  0  0  0
    0.0000   -1.2515    0.0000 C   0  0  0  0  0  0  0  0  0  0  0  0
    0.7040    0.0000    0.0000 C   0  0  0  0  0  0  0  0  0  0  0  0
    5.4362   -1.3688    0.0000 C   0  0  0  0  0  0  0  0  0  0  0  0
    8.6040   -7.8219    0.0000 C   0  0  0  0  0  0  0  0  0  0  0  0
  1 16  2  0  0  0  0
  2 26  2  0  0  0  0
  3 10  1  0  0  0  0
  3 18  1  0  0  0  0
  3 19  1  0  0  0  0
  4 16  1  0  0  0  0
  4 25  1  0  0  0  0
  5 20  1  0  0  0  0
  5 22  2  0  0  0  0
  6 22  1  0  0  0  0
  6 31  1  0  0  0  0
  6 32  1  0  0  0  0
  7 26  1  0  0  0  0
  7 29  1  0  0  0  0
  8 34  1  0  0  0  0
  8 35  1  0  0  0  0
  9 10  2  0  0  0  0
  9 11  1  0  0  0  0
  9 15  1  0  0  0  0
 10 13  1  0  0  0  0
 11 14  2  0  0  0  0
 11 16  1  0  0  0  0
 12 13  2  0  0  0  0
 12 14  1  0  0  0  0
 12 17  1  0  0  0  0
 15 18  1  0  0  0  0
 17 20  2  0  0  0  0
 17 21  1  0  0  0  0
 19 28  1  0  0  0  0
 21 24  2  0  0  0  0
 22 24  1  0  0  0  0
 23 25  1  0  0  0  0
 23 26  1  0  0  0  0
 23 27  2  0  0  0  0
 27 30  1  0  0  0  0
 27 33  1  0  0  0  0
 28 36  1  0  0  0  0
 29 30  2  0  0  0  0
 29 37  1  0  0  0  0
 31 35  1  0  0  0  0
 32 34  1  0  0  0  0
M  END
> <PUBCHEM_COMPOUND_ID_TYPE>
0

> <PUBCHEM_TOTAL_CHARGE>
0

> <PUBCHEM_SUBSTANCE_ID>
310937673

> <PUBCHEM_SUBSTANCE_VERSION>
1

> <PUBCHEM_EXT_DATASOURCE_NAME>
4488

> <PUBCHEM_EXT_DATASOURCE_REGID>
SCHEMBL16115465

> <PUBCHEM_SUBSTANCE_COMMENT>
InChI=1S/C29H36N6O2/c1-4-10-34-11-7-23-24(28(36)32-18-25-19(2)14-20(3)33-29(25)37)15-22(16-26(23)34)21-5-6-27(31-17-21)35-12-8-30-9-13-35/h5-6,14-17,30H,4,7-13,18H2,1-3H3,(H,32,36)(H,33,37)
InChIKey=LQBOFZBHTLJSDY-UHFFFAOYSA-N

> <PUBCHEM_SUBSTANCE_SYNONYM>
SCHEMBL16115465

> <PUBCHEM_XREF_EXT_ID>
SCHEMBL16115465

> <PUBCHEM_EXT_DATASOURCE_URL>
https://www.surechembl.org/

> <PUBCHEM_EXT_SUBSTANCE_URL>
https://www.surechembl.org/chemical/SCHEMBL16115465

> <PUBCHEM_CID_ASSOCIATIONS>
86272919  1

> <PUBCHEM_COORDINATE_TYPE>
1
3

$$$$
