310938865
  -OEChem-07211613022D

 28 27  0     1  0  0  0  0  0999 V2000
    6.1006    0.4047    0.0000 O   0  0  0  0  0  0  0  0  0  0  0  0
    3.9347    1.6456    0.0000 O   0  0  0  0  0  0  0  0  0  0  0  0
    5.3837    1.6456    0.0000 O   0  0  0  0  0  0  0  0  0  0  0  0
    3.2179   -0.4124    0.0000 O   0  0  0  0  0  0  0  0  0  0  0  0
    3.9347   -1.6456    0.0000 O   0  0  0  0  0  0  0  0  0  0  0  0
    4.6592   -0.4124    0.0000 N   0  0  0  0  0  0  0  0  0  0  0  0
    4.6592    0.4355    0.0000 C   0  0  3  0  0  0  0  0  0  0  0  0
    3.9347    0.8285    0.0000 C   0  0  0  0  0  0  0  0  0  0  0  0
    5.3761    0.8285    0.0000 C   0  0  0  0  0  0  0  0  0  0  0  0
    3.9347   -0.7901    0.0000 C   0  0  0  0  0  0  0  0  0  0  0  0
    3.2256    0.4355    0.0000 C   0  0  0  0  0  0  0  0  0  0  0  0
    2.5011    0.8439    0.0000 C   0  0  0  0  0  0  0  0  0  0  0  0
    1.7920    0.4355    0.0000 C   0  0  0  0  0  0  0  0  0  0  0  0
    6.8174    0.8517    0.0000 C   0  0  0  0  0  0  0  0  0  0  0  0
    2.5088   -0.8055    0.0000 C   0  0  0  0  0  0  0  0  0  0  0  0
    1.0675    0.8439    0.0000 C   0  0  0  0  0  0  0  0  0  0  0  0
    0.3584    0.4432    0.0000 C   0  0  0  0  0  0  0  0  0  0  0  0
    1.6687   -0.8285    0.0000 C   0  0  0  0  0  0  0  0  0  0  0  0
   -0.3738    0.8439    0.0000 C   0  0  0  0  0  0  0  0  0  0  0  0
   -1.0906    0.4432    0.0000 C   0  0  0  0  0  0  0  0  0  0  0  0
   -1.8074    0.8517    0.0000 C   0  0  0  0  0  0  0  0  0  0  0  0
   -2.5011    0.4432    0.0000 C   0  0  0  0  0  0  0  0  0  0  0  0
   -3.2410    0.8517    0.0000 C   0  0  0  0  0  0  0  0  0  0  0  0
   -3.9347    0.4432    0.0000 C   0  0  0  0  0  0  0  0  0  0  0  0
   -4.6592    0.8517    0.0000 C   0  0  0  0  0  0  0  0  0  0  0  0
   -5.3837    0.4432    0.0000 C   0  0  0  0  0  0  0  0  0  0  0  0
   -6.1006    0.8517    0.0000 C   0  0  0  0  0  0  0  0  0  0  0  0
   -6.8174    0.4278    0.0000 C   0  0  0  0  0  0  0  0  0  0  0  0
  1  9  1  0  0  0  0
  1 14  1  0  0  0  0
  2  8  2  0  0  0  0
  3  9  2  0  0  0  0
  4 10  1  0  0  0  0
  4 15  1  0  0  0  0
  5 10  2  0  0  0  0
  6  7  1  0  0  0  0
  6 10  1  0  0  0  0
  7  8  1  0  0  0  0
  7  9  1  0  0  0  0
  8 11  1  0  0  0  0
 11 12  2  0  0  0  0
 12 13  1  0  0  0  0
 13 16  1  0  0  0  0
 15 18  1  0  0  0  0
 16 17  1  0  0  0  0
 17 19  1  0  0  0  0
 19 20  1  0  0  0  0
 20 21  1  0  0  0  0
 21 22  1  0  0  0  0
 22 23  1  0  0  0  0
 23 24  1  0  0  0  0
 24 25  1  0  0  0  0
 25 26  1  0  0  0  0
 26 27  1  0  0  0  0
 27 28  1  0  0  0  0
M  END
> <PUBCHEM_COMPOUND_ID_TYPE>
0

> <PUBCHEM_TOTAL_CHARGE>
0

> <PUBCHEM_SUBSTANCE_ID>
310938865

> <PUBCHEM_SUBSTANCE_VERSION>
1

> <PUBCHEM_EXT_DATASOURCE_NAME>
4488

> <PUBCHEM_EXT_DATASOURCE_REGID>
SCHEMBL16116784

> <PUBCHEM_SUBSTANCE_COMMENT>
InChI=1S/C22H39NO5/c1-4-6-7-8-9-10-11-12-13-14-15-16-17-18-19(24)20(21(25)27-3)23-22(26)28-5-2/h17-18,20H,4-16H2,1-3H3,(H,23,26)/b18-17+
InChIKey=NHMGPFNKIHLCQR-ISLYRVAYSA-N

> <PUBCHEM_SUBSTANCE_SYNONYM>
SCHEMBL16116784

> <PUBCHEM_XREF_EXT_ID>
SCHEMBL16116784

> <PUBCHEM_EXT_DATASOURCE_URL>
https://www.surechembl.org/

> <PUBCHEM_EXT_SUBSTANCE_URL>
https://www.surechembl.org/chemical/SCHEMBL16116784

> <PUBCHEM_CID_ASSOCIATIONS>
117606262  1

> <PUBCHEM_COORDINATE_TYPE>
1
3

$$$$
