310946744
  -OEChem-07211613022D

 17 18  0     1  0  0  0  0  0999 V2000
   -2.0649   -1.3819    0.0000 N   0  0  0  0  0  0  0  0  0  0  0  0
   -1.9924    1.3349    0.0000 N   0  0  0  0  0  0  0  0  0  0  0  0
   -1.5799   -2.0493    0.0000 N   0  0  0  0  0  0  0  0  0  0  0  0
   -2.7770    1.0799    0.0000 N   0  0  0  0  0  0  0  0  0  0  0  0
    0.6336   -0.9694    0.0000 N   0  0  3  0  0  0  0  0  0  0  0  0
    2.7770   -0.5569    0.0000 N   0  0  0  0  0  0  0  0  0  0  0  0
   -1.5799   -0.7145    0.0000 C   0  0  0  0  0  0  0  0  0  0  0  0
   -1.9924    0.0000    0.0000 C   0  0  0  0  0  0  0  0  0  0  0  0
   -0.7953   -0.9694    0.0000 C   0  0  0  0  0  0  0  0  0  0  0  0
   -1.5075    0.6674    0.0000 C   0  0  0  0  0  0  0  0  0  0  0  0
   -2.7770    0.2549    0.0000 C   0  0  0  0  0  0  0  0  0  0  0  0
   -0.7953   -1.7944    0.0000 C   0  0  0  0  0  0  0  0  0  0  0  0
   -0.0808   -0.5569    0.0000 C   0  0  0  0  0  0  0  0  0  0  0  0
   -1.5799    2.0493    0.0000 C   0  0  0  0  0  0  0  0  0  0  0  0
    1.3481   -0.5569    0.0000 C   0  0  0  0  0  0  0  0  0  0  0  0
    0.6336   -1.7944    0.0000 C   0  0  0  0  0  0  0  0  0  0  0  0
    2.0626   -0.9694    0.0000 C   0  0  0  0  0  0  0  0  0  0  0  0
  1  3  1  0  0  0  0
  1  7  2  0  0  0  0
  2  4  1  0  0  0  0
  2 10  1  0  0  0  0
  2 14  1  0  0  0  0
  3 12  1  0  0  0  0
  4 11  2  0  0  0  0
  5 13  1  0  0  0  0
  5 15  1  0  0  0  0
  5 16  1  0  0  0  0
  6 17  1  0  0  0  0
  7  8  1  0  0  0  0
  7  9  1  0  0  0  0
  8 10  2  0  0  0  0
  8 11  1  0  0  0  0
  9 12  2  0  0  0  0
  9 13  1  0  0  0  0
 15 17  1  0  0  0  0
M  END
> <PUBCHEM_COMPOUND_ID_TYPE>
0

> <PUBCHEM_TOTAL_CHARGE>
0

> <PUBCHEM_SUBSTANCE_ID>
310946744

> <PUBCHEM_SUBSTANCE_VERSION>
1

> <PUBCHEM_EXT_DATASOURCE_NAME>
4488

> <PUBCHEM_EXT_DATASOURCE_REGID>
SCHEMBL16124868

> <PUBCHEM_SUBSTANCE_COMMENT>
InChI=1S/C11H18N6/c1-16(4-3-12)7-9-5-13-15-11(9)10-6-14-17(2)8-10/h5-6,8H,3-4,7,12H2,1-2H3,(H,13,15)
InChIKey=CBUWSYDJBQXMEB-UHFFFAOYSA-N

> <PUBCHEM_SUBSTANCE_SYNONYM>
SCHEMBL16124868

> <PUBCHEM_XREF_EXT_ID>
SCHEMBL16124868

> <PUBCHEM_EXT_DATASOURCE_URL>
https://www.surechembl.org/

> <PUBCHEM_EXT_SUBSTANCE_URL>
https://www.surechembl.org/chemical/SCHEMBL16124868

> <PUBCHEM_CID_ASSOCIATIONS>
86295916  1

> <PUBCHEM_COORDINATE_TYPE>
1
3

$$$$
