310939670
  -OEChem-07211613022D

 34 37  0     1  0  0  0  0  0999 V2000
   -2.1434    5.0452    0.0000 O   0  0  0  0  0  0  0  0  0  0  0  0
    3.5724    1.7452    0.0000 O   0  0  0  0  0  0  0  0  0  0  0  0
   -3.5724    4.2202    0.0000 O   0  0  0  0  0  0  0  0  0  0  0  0
    1.4289    5.4577    0.0000 N   0  0  0  0  0  0  0  0  0  0  0  0
    0.7144    4.2202    0.0000 N   0  0  0  0  0  0  0  0  0  0  0  0
    1.4289    2.9826    0.0000 N   0  0  0  0  0  0  0  0  0  0  0  0
   -5.0014    5.0452    0.0000 N   0  0  0  0  0  0  0  0  0  0  0  0
    0.7144    5.0452    0.0000 C   0  0  0  0  0  0  0  0  0  0  0  0
    2.1434    5.0452    0.0000 C   0  0  0  0  0  0  0  0  0  0  0  0
    0.0000    5.4577    0.0000 C   0  0  0  0  0  0  0  0  0  0  0  0
    1.4289    3.8078    0.0000 C   0  0  0  0  0  0  0  0  0  0  0  0
    2.8580    5.4577    0.0000 C   0  0  0  0  0  0  0  0  0  0  0  0
    2.1434    4.2202    0.0000 C   0  0  0  0  0  0  0  0  0  0  0  0
   -0.7144    5.0452    0.0000 C   0  0  0  0  0  0  0  0  0  0  0  0
    0.0000    6.2827    0.0000 C   0  0  0  0  0  0  0  0  0  0  0  0
    3.5724    5.0452    0.0000 C   0  0  0  0  0  0  0  0  0  0  0  0
   -1.4289    5.4577    0.0000 C   0  0  0  0  0  0  0  0  0  0  0  0
    2.8580    6.2827    0.0000 C   0  0  0  0  0  0  0  0  0  0  0  0
    2.1434    2.5702    0.0000 C   0  0  0  0  0  0  0  0  0  0  0  0
    4.2869    5.4577    0.0000 C   0  0  0  0  0  0  0  0  0  0  0  0
   -0.7144    6.6953    0.0000 C   0  0  0  0  0  0  0  0  0  0  0  0
   -1.4289    6.2827    0.0000 C   0  0  0  0  0  0  0  0  0  0  0  0
    3.5724    6.6953    0.0000 C   0  0  0  0  0  0  0  0  0  0  0  0
    4.2869    6.2827    0.0000 C   0  0  0  0  0  0  0  0  0  0  0  0
    2.1434    1.7452    0.0000 C   0  0  0  0  0  0  0  0  0  0  0  0
    2.8580    2.9826    0.0000 C   0  0  0  0  0  0  0  0  0  0  0  0
    5.0014    5.0452    0.0000 C   0  0  0  0  0  0  0  0  0  0  0  0
   -2.8580    5.4577    0.0000 C   0  0  0  0  0  0  0  0  0  0  0  0
    2.8580    1.3327    0.0000 C   0  0  0  0  0  0  0  0  0  0  0  0
    3.5724    2.5702    0.0000 C   0  0  0  0  0  0  0  0  0  0  0  0
   -3.5724    5.0452    0.0000 C   0  0  3  0  0  0  0  0  0  0  0  0
    5.7159    4.6327    0.0000 C   0  0  0  0  0  0  0  0  0  0  0  0
   -4.2869    5.4577    0.0000 C   0  0  0  0  0  0  0  0  0  0  0  0
   -5.7159    5.4577    0.0000 C   0  0  0  0  0  0  0  0  0  0  0  0
  1 17  1  0  0  0  0
  1 28  1  0  0  0  0
  2 29  1  0  0  0  0
  2 30  1  0  0  0  0
  3 31  1  0  0  0  0
  4  8  2  0  0  0  0
  4  9  1  0  0  0  0
  5  8  1  0  0  0  0
  5 11  2  0  0  0  0
  6 11  1  0  0  0  0
  6 19  1  0  0  0  0
  7 33  1  0  0  0  0
  7 34  1  0  0  0  0
  8 10  1  0  0  0  0
  9 12  1  0  0  0  0
  9 13  2  0  0  0  0
 10 14  2  0  0  0  0
 10 15  1  0  0  0  0
 11 13  1  0  0  0  0
 12 16  1  0  0  0  0
 12 18  2  0  0  0  0
 14 17  1  0  0  0  0
 15 21  2  0  0  0  0
 16 20  2  0  0  0  0
 17 22  2  0  0  0  0
 18 23  1  0  0  0  0
 19 25  1  0  0  0  0
 19 26  1  0  0  0  0
 20 24  1  0  0  0  0
 20 27  1  0  0  0  0
 21 22  1  0  0  0  0
 23 24  2  0  0  0  0
 25 29  1  0  0  0  0
 26 30  1  0  0  0  0
 27 32  3  0  0  0  0
 28 31  1  0  0  0  0
 31 33  1  0  0  0  0
M  END
> <PUBCHEM_COMPOUND_ID_TYPE>
0

> <PUBCHEM_TOTAL_CHARGE>
0

> <PUBCHEM_SUBSTANCE_ID>
310939670

> <PUBCHEM_SUBSTANCE_VERSION>
1

> <PUBCHEM_EXT_DATASOURCE_NAME>
4488

> <PUBCHEM_EXT_DATASOURCE_REGID>
SCHEMBL16117600

> <PUBCHEM_SUBSTANCE_COMMENT>
InChI=1S/C27H30N4O3/c1-3-19-6-4-7-20(14-19)25-16-26(29-22-10-12-33-13-11-22)31-27(30-25)21-8-5-9-24(15-21)34-18-23(32)17-28-2/h1,4-9,14-16,22-23,28,32H,10-13,17-18H2,2H3,(H,29,30,31)
InChIKey=IDNHSYBXOUAHEI-UHFFFAOYSA-N

> <PUBCHEM_SUBSTANCE_SYNONYM>
SCHEMBL16117600

> <PUBCHEM_XREF_EXT_ID>
SCHEMBL16117600

> <PUBCHEM_EXT_DATASOURCE_URL>
https://www.surechembl.org/

> <PUBCHEM_EXT_SUBSTANCE_URL>
https://www.surechembl.org/chemical/SCHEMBL16117600

> <PUBCHEM_CID_ASSOCIATIONS>
117606903  1

> <PUBCHEM_COORDINATE_TYPE>
1
3

$$$$
