310943707
  -OEChem-07211613022D

 31 34  0     1  0  0  0  0  0999 V2000
    6.1668    1.4907    0.0000 O   0  0  0  0  0  0  0  0  0  0  0  0
    2.8338    1.2516    0.0000 N   0  0  3  0  0  0  0  0  0  0  0  0
   -3.5650   -0.8439    0.0000 N   0  0  3  0  0  0  0  0  0  0  0  0
    0.7383   -1.6454    0.0000 N   0  0  0  0  0  0  0  0  0  0  0  0
   -5.3230   -0.3094    0.0000 N   0  0  3  0  0  0  0  0  0  0  0  0
   -0.7101    0.0141    0.0000 C   0  0  0  0  0  0  0  0  0  0  0  0
    0.0070    0.4219    0.0000 C   0  0  0  0  0  0  0  0  0  0  0  0
   -0.7243   -0.8016    0.0000 C   0  0  0  0  0  0  0  0  0  0  0  0
   -2.1446   -0.8157    0.0000 C   0  0  0  0  0  0  0  0  0  0  0  0
   -1.4415   -1.2095    0.0000 C   0  0  0  0  0  0  0  0  0  0  0  0
   -1.4134    0.3796    0.0000 C   0  0  0  0  0  0  0  0  0  0  0  0
    1.3993    1.2235    0.0000 C   0  0  0  0  0  0  0  0  0  0  0  0
    0.7101    0.0281    0.0000 C   0  0  0  0  0  0  0  0  0  0  0  0
   -0.0070    1.2376    0.0000 C   0  0  0  0  0  0  0  0  0  0  0  0
   -2.1305    0.0000    0.0000 C   0  0  0  0  0  0  0  0  0  0  0  0
    1.4134    0.4640    0.0000 C   0  0  0  0  0  0  0  0  0  0  0  0
    0.6820    1.6314    0.0000 C   0  0  0  0  0  0  0  0  0  0  0  0
   -2.8197   -1.2235    0.0000 C   0  0  0  0  0  0  0  0  0  0  0  0
    2.1024    1.6454    0.0000 C   0  0  0  0  0  0  0  0  0  0  0  0
    0.0070   -1.2235    0.0000 C   0  0  0  0  0  0  0  0  0  0  0  0
    3.8183    1.5610    0.0000 C   0  0  0  0  0  0  0  0  0  0  0  0
    4.4229    0.7313    0.0000 C   0  0  3  0  0  0  0  0  0  0  0  0
    2.8619    0.2390    0.0000 C   0  0  0  0  0  0  0  0  0  0  0  0
    3.8464   -0.0703    0.0000 C   0  0  0  0  0  0  0  0  0  0  0  0
   -4.2401   -1.3079    0.0000 C   0  0  0  0  0  0  0  0  0  0  0  0
   -3.4947   -0.0422    0.0000 C   0  0  0  0  0  0  0  0  0  0  0  0
    5.4496    0.7876    0.0000 C   0  0  0  0  0  0  0  0  0  0  0  0
   -5.0276   -1.0548    0.0000 C   0  0  0  0  0  0  0  0  0  0  0  0
   -4.1416    0.5203    0.0000 C   0  0  0  0  0  0  0  0  0  0  0  0
   -4.9151    0.4078    0.0000 C   0  0  0  0  0  0  0  0  0  0  0  0
   -6.1668   -0.3375    0.0000 C   0  0  0  0  0  0  0  0  0  0  0  0
  1 27  1  0  0  0  0
  2 19  1  0  0  0  0
  2 21  1  0  0  0  0
  2 23  1  0  0  0  0
  3 18  1  0  0  0  0
  3 25  1  0  0  0  0
  3 26  1  0  0  0  0
  4 20  3  0  0  0  0
  5 28  1  0  0  0  0
  5 30  1  0  0  0  0
  5 31  1  0  0  0  0
  6  7  1  0  0  0  0
  6  8  1  0  0  0  0
  6 11  2  0  0  0  0
  7 13  2  0  0  0  0
  7 14  1  0  0  0  0
  8 10  2  0  0  0  0
  8 20  1  0  0  0  0
  9 10  1  0  0  0  0
  9 15  2  0  0  0  0
  9 18  1  0  0  0  0
 11 15  1  0  0  0  0
 12 16  2  0  0  0  0
 12 17  1  0  0  0  0
 12 19  1  0  0  0  0
 13 16  1  0  0  0  0
 14 17  2  0  0  0  0
 21 22  1  0  0  0  0
 22 24  1  0  0  0  0
 22 27  1  0  0  0  0
 23 24  1  0  0  0  0
 25 28  1  0  0  0  0
 26 29  1  0  0  0  0
 29 30  1  0  0  0  0
M  END
> <PUBCHEM_COMPOUND_ID_TYPE>
0

> <PUBCHEM_TOTAL_CHARGE>
0

> <PUBCHEM_SUBSTANCE_ID>
310943707

> <PUBCHEM_SUBSTANCE_VERSION>
1

> <PUBCHEM_EXT_DATASOURCE_NAME>
4488

> <PUBCHEM_EXT_DATASOURCE_REGID>
SCHEMBL16121775

> <PUBCHEM_SUBSTANCE_COMMENT>
InChI=1S/C26H34N4O/c1-28-10-2-11-29(14-13-28)18-22-5-8-26(25(15-22)16-27)24-6-3-21(4-7-24)17-30-12-9-23(19-30)20-31/h3-8,15,23,31H,2,9-14,17-20H2,1H3
InChIKey=OTEPCUXJZXZJGR-UHFFFAOYSA-N

> <PUBCHEM_SUBSTANCE_SYNONYM>
SCHEMBL16121775

> <PUBCHEM_XREF_EXT_ID>
SCHEMBL16121775

> <PUBCHEM_EXT_DATASOURCE_URL>
https://www.surechembl.org/

> <PUBCHEM_EXT_SUBSTANCE_URL>
https://www.surechembl.org/chemical/SCHEMBL16121775

> <PUBCHEM_CID_ASSOCIATIONS>
86301047  1

> <PUBCHEM_COORDINATE_TYPE>
1
3

> <PUBCHEM_BONDANNOTATIONS>
22  27  3

$$$$
