310937706
  -OEChem-07211613022D

 34 37  0     1  0  0  0  0  0999 V2000
    2.4573   -0.4273    0.0000 O   0  0  0  0  0  0  0  0  0  0  0  0
    4.5941   -4.9413    0.0000 O   0  0  0  0  0  0  0  0  0  0  0  0
    6.0098   -2.4841    0.0000 O   0  0  0  0  0  0  0  0  0  0  0  0
    1.7629   -1.6560    0.0000 N   0  0  0  0  0  0  0  0  0  0  0  0
    3.1785   -2.4841    0.0000 N   0  0  0  0  0  0  0  0  0  0  0  0
    3.1785   -1.6560    0.0000 C   0  0  3  0  0  0  0  0  0  0  0  0
    2.4573   -1.2554    0.0000 C   0  0  0  0  0  0  0  0  0  0  0  0
    1.8163   -2.4841    0.0000 C   0  0  3  0  0  0  0  0  0  0  0  0
    3.8730   -1.2554    0.0000 C   0  0  0  0  0  0  0  0  0  0  0  0
    3.8730   -2.8847    0.0000 C   0  0  0  0  0  0  0  0  0  0  0  0
    2.5909   -2.7778    0.0000 C   0  0  0  0  0  0  0  0  0  0  0  0
    1.0951   -1.1752    0.0000 C   0  0  0  0  0  0  0  0  0  0  0  0
    1.2554   -3.0182    0.0000 C   0  0  0  0  0  0  0  0  0  0  0  0
    4.5941   -1.6560    0.0000 C   0  0  0  0  0  0  0  0  0  0  0  0
    3.8997   -0.4273    0.0000 C   0  0  0  0  0  0  0  0  0  0  0  0
    4.5941   -2.4573    0.0000 C   0  0  0  0  0  0  0  0  0  0  0  0
    3.8730   -3.7127    0.0000 C   0  0  0  0  0  0  0  0  0  0  0  0
    4.5941   -4.1134    0.0000 C   0  0  0  0  0  0  0  0  0  0  0  0
    5.3153   -2.8847    0.0000 C   0  0  0  0  0  0  0  0  0  0  0  0
    5.3153   -3.6860    0.0000 C   0  0  0  0  0  0  0  0  0  0  0  0
    3.2319   -2.2437    0.0000 C   0  0  0  0  0  0  0  0  0  0  0  0
    2.7244   -3.5791    0.0000 C   0  0  0  0  0  0  0  0  0  0  0  0
    0.3205   -1.4156    0.0000 C   0  0  0  0  0  0  0  0  0  0  0  0
    5.3153   -1.2554    0.0000 C   0  0  0  0  0  0  0  0  0  0  0  0
    4.5941    0.0000    0.0000 C   0  0  0  0  0  0  0  0  0  0  0  0
    5.3153   -0.4273    0.0000 C   0  0  0  0  0  0  0  0  0  0  0  0
    0.4541   -2.9381    0.0000 C   0  0  0  0  0  0  0  0  0  0  0  0
    0.0000   -2.2170    0.0000 C   0  0  0  0  0  0  0  0  0  0  0  0
    3.9798   -2.5374    0.0000 C   0  0  0  0  0  0  0  0  0  0  0  0
    3.4723   -3.8730    0.0000 C   0  0  0  0  0  0  0  0  0  0  0  0
    4.1134   -3.3655    0.0000 C   0  0  0  0  0  0  0  0  0  0  0  0
    6.0098    0.0000    0.0000 C   0  0  0  0  0  0  0  0  0  0  0  0
    5.3153   -5.3420    0.0000 C   0  0  0  0  0  0  0  0  0  0  0  0
    6.0098   -1.6560    0.0000 C   0  0  0  0  0  0  0  0  0  0  0  0
  1  7  2  0  0  0  0
  2 18  1  0  0  0  0
  2 33  1  0  0  0  0
  3 19  1  0  0  0  0
  3 34  1  0  0  0  0
  4  7  1  0  0  0  0
  4  8  1  0  0  0  0
  4 12  1  0  0  0  0
  5  6  1  0  0  0  0
  5 10  1  0  0  0  0
  6  7  1  0  0  0  0
  6  9  1  0  0  0  0
  8 11  1  0  0  0  0
  8 13  1  0  0  0  0
  9 14  2  0  0  0  0
  9 15  1  0  0  0  0
 10 16  2  0  0  0  0
 10 17  1  0  0  0  0
 11 21  2  0  0  0  0
 11 22  1  0  0  0  0
 12 23  1  0  0  0  0
 13 27  1  0  0  0  0
 14 24  1  0  0  0  0
 15 25  2  0  0  0  0
 16 19  1  0  0  0  0
 17 18  2  0  0  0  0
 18 20  1  0  0  0  0
 19 20  2  0  0  0  0
 21 29  1  0  0  0  0
 22 30  2  0  0  0  0
 23 28  1  0  0  0  0
 24 26  2  0  0  0  0
 25 26  1  0  0  0  0
 26 32  1  0  0  0  0
 27 28  1  0  0  0  0
 29 31  2  0  0  0  0
 30 31  1  0  0  0  0
M  END
> <PUBCHEM_COMPOUND_ID_TYPE>
0

> <PUBCHEM_TOTAL_CHARGE>
0

> <PUBCHEM_SUBSTANCE_ID>
310937706

> <PUBCHEM_SUBSTANCE_VERSION>
1

> <PUBCHEM_EXT_DATASOURCE_NAME>
4488

> <PUBCHEM_EXT_DATASOURCE_REGID>
SCHEMBL16115500

> <PUBCHEM_SUBSTANCE_COMMENT>
InChI=1S/C29H34N2O3/c1-21-13-15-23(16-14-21)28(30-24-18-25(33-2)20-26(19-24)34-3)29(32)31-17-9-5-8-12-27(31)22-10-6-4-7-11-22/h4,6-7,10-11,13-16,18-20,27-28,30H,5,8-9,12,17H2,1-3H3
InChIKey=CHHLYACQNZIVFB-UHFFFAOYSA-N

> <PUBCHEM_SUBSTANCE_SYNONYM>
SCHEMBL16115500

> <PUBCHEM_XREF_EXT_ID>
SCHEMBL16115500

> <PUBCHEM_EXT_DATASOURCE_URL>
https://www.surechembl.org/

> <PUBCHEM_EXT_SUBSTANCE_URL>
https://www.surechembl.org/chemical/SCHEMBL16115500

> <PUBCHEM_CID_ASSOCIATIONS>
117605384  1

> <PUBCHEM_COORDINATE_TYPE>
1
3

$$$$
