310938472
  -OEChem-07211613022D

 22 23  0     1  0  0  0  0  0999 V2000
    1.4423   -0.4006    0.0000 O   0  0  0  0  0  0  0  0  0  0  0  0
    0.0000   -2.8579    0.0000 O   0  0  0  0  0  0  0  0  0  0  0  0
    3.5524   -4.9146    0.0000 O   0  0  0  0  0  0  0  0  0  0  0  0
    4.2736   -3.6859    0.0000 O   0  0  0  0  0  0  0  0  0  0  0  0
    2.8579   -2.8579    0.0000 N   0  0  0  0  0  0  0  0  0  0  0  0
    2.8579   -3.6859    0.0000 C   0  0  3  0  0  0  0  0  0  0  0  0
    2.1368   -2.4572    0.0000 C   0  0  0  0  0  0  0  0  0  0  0  0
    2.1368   -4.0865    0.0000 C   0  0  0  0  0  0  0  0  0  0  0  0
    1.4423   -1.2287    0.0000 C   0  0  0  0  0  0  0  0  0  0  0  0
    0.7212   -2.4572    0.0000 C   0  0  0  0  0  0  0  0  0  0  0  0
    1.4423   -2.8846    0.0000 C   0  0  0  0  0  0  0  0  0  0  0  0
    2.1368   -1.6293    0.0000 C   0  0  0  0  0  0  0  0  0  0  0  0
    3.5524   -4.0865    0.0000 C   0  0  0  0  0  0  0  0  0  0  0  0
    0.7212   -1.6560    0.0000 C   0  0  0  0  0  0  0  0  0  0  0  0
    1.4423   -3.6859    0.0000 C   0  0  0  0  0  0  0  0  0  0  0  0
    2.1368   -4.9146    0.0000 C   0  0  0  0  0  0  0  0  0  0  0  0
    0.7212   -4.9146    0.0000 C   0  0  0  0  0  0  0  0  0  0  0  0
    0.7212   -4.0865    0.0000 C   0  0  0  0  0  0  0  0  0  0  0  0
    1.4423   -5.3419    0.0000 C   0  0  0  0  0  0  0  0  0  0  0  0
    0.0000   -5.3419    0.0000 C   0  0  0  0  0  0  0  0  0  0  0  0
    0.7212    0.0000    0.0000 C   0  0  0  0  0  0  0  0  0  0  0  0
    0.0000   -3.6859    0.0000 C   0  0  0  0  0  0  0  0  0  0  0  0
  1  9  1  0  0  0  0
  1 21  1  0  0  0  0
  2 10  1  0  0  0  0
  2 22  1  0  0  0  0
  3 13  2  0  0  0  0
  4 13  1  0  0  0  0
  5  6  1  0  0  0  0
  5  7  1  0  0  0  0
  6  8  1  0  0  0  0
  6 13  1  0  0  0  0
  7 11  2  0  0  0  0
  7 12  1  0  0  0  0
  8 15  2  0  0  0  0
  8 16  1  0  0  0  0
  9 12  2  0  0  0  0
  9 14  1  0  0  0  0
 10 11  1  0  0  0  0
 10 14  2  0  0  0  0
 15 18  1  0  0  0  0
 16 19  2  0  0  0  0
 17 18  2  0  0  0  0
 17 19  1  0  0  0  0
 17 20  1  0  0  0  0
M  END
> <PUBCHEM_COMPOUND_ID_TYPE>
0

> <PUBCHEM_TOTAL_CHARGE>
0

> <PUBCHEM_SUBSTANCE_ID>
310938472

> <PUBCHEM_SUBSTANCE_VERSION>
1

> <PUBCHEM_EXT_DATASOURCE_NAME>
4488

> <PUBCHEM_EXT_DATASOURCE_REGID>
SCHEMBL16116373

> <PUBCHEM_SUBSTANCE_COMMENT>
InChI=1S/C17H19NO4/c1-11-4-6-12(7-5-11)16(17(19)20)18-13-8-14(21-2)10-15(9-13)22-3/h4-10,16,18H,1-3H3,(H,19,20)
InChIKey=MRGCNFXDGCQXHK-UHFFFAOYSA-N

> <PUBCHEM_SUBSTANCE_SYNONYM>
SCHEMBL16116373

> <PUBCHEM_XREF_EXT_ID>
SCHEMBL16116373

> <PUBCHEM_EXT_DATASOURCE_URL>
https://www.surechembl.org/

> <PUBCHEM_EXT_SUBSTANCE_URL>
https://www.surechembl.org/chemical/SCHEMBL16116373

> <PUBCHEM_CID_ASSOCIATIONS>
117605930  1

> <PUBCHEM_COORDINATE_TYPE>
1
3

$$$$
