310942302
  -OEChem-07211613022D

 11 12  0     1  0  0  0  0  0999 V2000
    0.2473    1.0327    0.0000 O   0  0  0  0  0  0  0  0  0  0  0  0
    1.0513   -0.0433    0.0000 N   0  0  0  0  0  0  0  0  0  0  0  0
   -0.2226    0.3649    0.0000 C   0  0  3  0  0  0  0  0  0  0  0  0
    0.2721   -0.2907    0.0000 C   0  0  3  0  0  0  0  0  0  0  0  0
   -1.0513    0.2907    0.0000 C   0  0  3  0  0  0  0  0  0  0  0  0
    1.0389    0.7853    0.0000 C   0  0  0  0  0  0  0  0  0  0  0  0
   -0.0742   -1.0450    0.0000 C   0  0  0  0  0  0  0  0  0  0  0  0
   -1.3728   -0.4761    0.0000 C   0  0  0  0  0  0  0  0  0  0  0  0
   -0.9029   -1.1193    0.0000 C   0  0  0  0  0  0  0  0  0  0  0  0
    1.6325    1.1193    0.0000 C   0  0  0  0  0  0  0  0  0  0  0  0
   -1.6325    0.8596    0.0000 C   0  0  0  0  0  0  0  0  0  0  0  0
  1  3  1  0  0  0  0
  1  6  1  0  0  0  0
  2  4  1  0  0  0  0
  2  6  2  0  0  0  0
  3  4  1  0  0  0  0
  3  5  1  0  0  0  0
  4  7  1  0  0  0  0
  5  8  1  0  0  0  0
  5 11  1  0  0  0  0
  6 10  1  0  0  0  0
  7  9  1  0  0  0  0
  8  9  1  0  0  0  0
M  END
> <PUBCHEM_COMPOUND_ID_TYPE>
0

> <PUBCHEM_TOTAL_CHARGE>
0

> <PUBCHEM_SUBSTANCE_ID>
310942302

> <PUBCHEM_SUBSTANCE_VERSION>
1

> <PUBCHEM_EXT_DATASOURCE_NAME>
4488

> <PUBCHEM_EXT_DATASOURCE_REGID>
SCHEMBL16120338

> <PUBCHEM_SUBSTANCE_COMMENT>
InChI=1S/C9H15NO/c1-6-4-3-5-8-9(6)11-7(2)10-8/h6,8-9H,3-5H2,1-2H3
InChIKey=WHNOARRPZOSEAE-UHFFFAOYSA-N

> <PUBCHEM_SUBSTANCE_SYNONYM>
SCHEMBL16120338

> <PUBCHEM_XREF_EXT_ID>
SCHEMBL16120338

> <PUBCHEM_EXT_DATASOURCE_URL>
https://www.surechembl.org/

> <PUBCHEM_EXT_SUBSTANCE_URL>
https://www.surechembl.org/chemical/SCHEMBL16120338

> <PUBCHEM_CID_ASSOCIATIONS>
117608949  1

> <PUBCHEM_COORDINATE_TYPE>
1
3

$$$$
