310934912
  -OEChem-07211613022D

 19 20  0     1  0  0  0  0  0999 V2000
   -1.1432    2.3100    0.0000 F   0  0  0  0  0  0  0  0  0  0  0  0
    0.4664    0.9947    0.0000 O   0  0  0  0  0  0  0  0  0  0  0  0
    1.8091    0.5060    0.0000 O   0  0  0  0  0  0  0  0  0  0  0  0
    0.7144   -0.4125    0.0000 C   0  0  3  0  0  0  0  0  0  0  0  0
   -0.4287    0.2475    0.0000 C   0  0  0  0  0  0  0  0  0  0  0  0
    0.1384   -1.0031    0.0000 C   0  0  3  0  0  0  0  0  0  0  0  0
    0.9967    0.3628    0.0000 C   0  0  0  0  0  0  0  0  0  0  0  0
   -0.4287    1.0725    0.0000 C   0  0  0  0  0  0  0  0  0  0  0  0
    1.5354   -0.4946    0.0000 C   0  0  0  0  0  0  0  0  0  0  0  0
   -1.1432   -0.1650    0.0000 C   0  0  0  0  0  0  0  0  0  0  0  0
   -1.1432    1.4850    0.0000 C   0  0  0  0  0  0  0  0  0  0  0  0
    0.2410   -1.8217    0.0000 C   0  0  0  0  0  0  0  0  0  0  0  0
   -1.8576    0.2475    0.0000 C   0  0  0  0  0  0  0  0  0  0  0  0
    1.9829   -1.1876    0.0000 C   0  0  0  0  0  0  0  0  0  0  0  0
   -1.8576    1.0725    0.0000 C   0  0  0  0  0  0  0  0  0  0  0  0
   -0.6436   -0.7403    0.0000 C   0  0  0  0  0  0  0  0  0  0  0  0
    0.2858    1.4850    0.0000 C   0  0  0  0  0  0  0  0  0  0  0  0
    0.9450   -2.2519    0.0000 C   0  0  0  0  0  0  0  0  0  0  0  0
    1.7202   -1.9697    0.0000 C   0  0  0  0  0  0  0  0  0  0  0  0
  1 11  1  0  0  0  0
  2  7  2  0  0  0  0
  3  7  1  0  0  0  0
  4  5  1  0  0  0  0
  4  6  1  0  0  0  0
  4  7  1  0  0  0  0
  4  9  1  0  0  0  0
  5  8  1  0  0  0  0
  5 10  2  0  0  0  0
  6 12  1  0  0  0  0
  6 16  1  0  0  0  0
  8 11  2  0  0  0  0
  8 17  1  0  0  0  0
  9 14  1  0  0  0  0
 10 13  1  0  0  0  0
 11 15  1  0  0  0  0
 12 18  1  0  0  0  0
 13 15  2  0  0  0  0
 14 19  1  0  0  0  0
 18 19  1  0  0  0  0
M  END
> <PUBCHEM_COMPOUND_ID_TYPE>
0

> <PUBCHEM_TOTAL_CHARGE>
0

> <PUBCHEM_SUBSTANCE_ID>
310934912

> <PUBCHEM_SUBSTANCE_VERSION>
1

> <PUBCHEM_EXT_DATASOURCE_NAME>
4488

> <PUBCHEM_EXT_DATASOURCE_REGID>
SCHEMBL16112425

> <PUBCHEM_SUBSTANCE_COMMENT>
InChI=1S/C16H21FO2/c1-11-7-4-3-5-10-16(11,15(18)19)13-8-6-9-14(17)12(13)2/h6,8-9,11H,3-5,7,10H2,1-2H3,(H,18,19)
InChIKey=JJMMMAOEAYTPPI-UHFFFAOYSA-N

> <PUBCHEM_SUBSTANCE_SYNONYM>
SCHEMBL16112425

> <PUBCHEM_XREF_EXT_ID>
SCHEMBL16112425

> <PUBCHEM_EXT_DATASOURCE_URL>
https://www.surechembl.org/

> <PUBCHEM_EXT_SUBSTANCE_URL>
https://www.surechembl.org/chemical/SCHEMBL16112425

> <PUBCHEM_CID_ASSOCIATIONS>
117603038  1

> <PUBCHEM_COORDINATE_TYPE>
1
3

$$$$
