310932865
  -OEChem-07211613022D

 22 24  0     1  0  0  0  0  0999 V2000
    3.2567    0.0000    0.0000 O   0  0  0  0  0  0  0  0  0  0  0  0
    4.3639   -1.9323    0.0000 O   0  0  0  0  0  0  0  0  0  0  0  0
    5.0804   -0.6947    0.0000 O   0  0  0  0  0  0  0  0  0  0  0  0
    0.0000   -2.3448    0.0000 O   0  0  0  0  0  0  0  0  0  0  0  0
    3.6692   -0.6947    0.0000 C   0  0  3  0  0  0  0  0  0  0  0  0
    2.8442   -0.6947    0.0000 C   0  0  3  0  0  0  0  0  0  0  0  0
    4.3639   -1.1073    0.0000 C   0  0  0  0  0  0  0  0  0  0  0  0
    2.1494   -1.1073    0.0000 C   0  0  0  0  0  0  0  0  0  0  0  0
    3.4521   -1.4981    0.0000 C   0  0  0  0  0  0  0  0  0  0  0  0
    2.1277   -1.9323    0.0000 C   0  0  0  0  0  0  0  0  0  0  0  0
    1.4329   -0.7164    0.0000 C   0  0  0  0  0  0  0  0  0  0  0  0
    5.0804   -2.3448    0.0000 C   0  0  0  0  0  0  0  0  0  0  0  0
    4.0383   -2.0843    0.0000 C   0  0  0  0  0  0  0  0  0  0  0  0
    1.4329   -2.3448    0.0000 C   0  0  0  0  0  0  0  0  0  0  0  0
    0.7164   -1.1073    0.0000 C   0  0  0  0  0  0  0  0  0  0  0  0
    0.7164   -1.9323    0.0000 C   0  0  0  0  0  0  0  0  0  0  0  0
    5.8186   -1.9540    0.0000 C   0  0  0  0  0  0  0  0  0  0  0  0
    5.1021   -3.1699    0.0000 C   0  0  0  0  0  0  0  0  0  0  0  0
    6.4917   -2.3448    0.0000 C   0  0  0  0  0  0  0  0  0  0  0  0
    5.7969   -3.5606    0.0000 C   0  0  0  0  0  0  0  0  0  0  0  0
    6.5134   -3.1699    0.0000 C   0  0  0  0  0  0  0  0  0  0  0  0
    0.0000   -3.1481    0.0000 C   0  0  0  0  0  0  0  0  0  0  0  0
  1  5  1  0  0  0  0
  1  6  1  0  0  0  0
  2  7  1  0  0  0  0
  2 12  1  0  0  0  0
  3  7  2  0  0  0  0
  4 16  1  0  0  0  0
  4 22  1  0  0  0  0
  5  6  1  0  0  0  0
  5  7  1  0  0  0  0
  5  9  1  0  0  0  0
  6  8  1  0  0  0  0
  8 10  2  0  0  0  0
  8 11  1  0  0  0  0
  9 13  1  0  0  0  0
 10 14  1  0  0  0  0
 11 15  2  0  0  0  0
 12 17  1  0  0  0  0
 12 18  1  0  0  0  0
 14 16  2  0  0  0  0
 15 16  1  0  0  0  0
 17 19  1  0  0  0  0
 18 20  1  0  0  0  0
 19 21  1  0  0  0  0
 20 21  1  0  0  0  0
M  END
> <PUBCHEM_COMPOUND_ID_TYPE>
0

> <PUBCHEM_TOTAL_CHARGE>
0

> <PUBCHEM_SUBSTANCE_ID>
310932865

> <PUBCHEM_SUBSTANCE_VERSION>
1

> <PUBCHEM_EXT_DATASOURCE_NAME>
4488

> <PUBCHEM_EXT_DATASOURCE_REGID>
SCHEMBL16110257

> <PUBCHEM_SUBSTANCE_COMMENT>
InChI=1S/C18H24O4/c1-3-18(17(19)21-15-7-5-4-6-8-15)16(22-18)13-9-11-14(20-2)12-10-13/h9-12,15-16H,3-8H2,1-2H3
InChIKey=ISXGZZMJQUXWDZ-UHFFFAOYSA-N

> <PUBCHEM_SUBSTANCE_SYNONYM>
SCHEMBL16110257

> <PUBCHEM_XREF_EXT_ID>
SCHEMBL16110257

> <PUBCHEM_EXT_DATASOURCE_URL>
https://www.surechembl.org/

> <PUBCHEM_EXT_SUBSTANCE_URL>
https://www.surechembl.org/chemical/SCHEMBL16110257

> <PUBCHEM_CID_ASSOCIATIONS>
117601349  1

> <PUBCHEM_COORDINATE_TYPE>
1
3

$$$$
