310947749
  -OEChem-07211613022D

 26 27  0     1  0  0  0  0  0999 V2000
   -0.6348   -2.0704    0.0000 O   0  0  0  0  0  0  0  0  0  0  0  0
   -3.4927   -2.8954    0.0000 O   0  0  0  0  0  0  0  0  0  0  0  0
    3.7222   -1.9128    0.0000 N   0  0  0  0  0  0  0  0  0  0  0  0
    4.2071   -1.2454    0.0000 N   0  0  0  0  0  0  0  0  0  0  0  0
    1.5086   -3.3079    0.0000 N   0  0  0  0  0  0  0  0  0  0  0  0
    2.5677    0.5474    0.0000 N   0  0  3  0  0  0  0  0  0  0  0  0
    0.0797   -3.3079    0.0000 N   0  0  0  0  0  0  0  0  0  0  0  0
    1.6145    2.5110    0.0000 N   0  0  0  0  0  0  0  0  0  0  0  0
    2.9376   -1.6579    0.0000 C   0  0  0  0  0  0  0  0  0  0  0  0
    2.2231   -2.0704    0.0000 C   0  0  0  0  0  0  0  0  0  0  0  0
    2.9376   -0.8329    0.0000 C   0  0  0  0  0  0  0  0  0  0  0  0
    3.7222   -0.5779    0.0000 C   0  0  0  0  0  0  0  0  0  0  0  0
    2.2231   -2.8954    0.0000 C   0  0  0  0  0  0  0  0  0  0  0  0
    1.5086   -1.6579    0.0000 C   0  0  0  0  0  0  0  0  0  0  0  0
    0.7942   -2.8954    0.0000 C   0  0  0  0  0  0  0  0  0  0  0  0
    2.3542   -0.2495    0.0000 C   0  0  0  0  0  0  0  0  0  0  0  0
    0.7942   -2.0704    0.0000 C   0  0  0  0  0  0  0  0  0  0  0  0
   -0.6348   -2.8954    0.0000 C   0  0  0  0  0  0  0  0  0  0  0  0
    1.9844    1.1307    0.0000 C   0  0  0  0  0  0  0  0  0  0  0  0
    3.3646    0.7609    0.0000 C   0  0  0  0  0  0  0  0  0  0  0  0
   -1.3492   -3.3079    0.0000 C   0  0  0  0  0  0  0  0  0  0  0  0
    2.1979    1.9276    0.0000 C   0  0  0  0  0  0  0  0  0  0  0  0
   -2.0637   -2.8954    0.0000 C   0  0  0  0  0  0  0  0  0  0  0  0
   -2.7782   -3.3079    0.0000 C   0  0  0  0  0  0  0  0  0  0  0  0
    1.8281    3.3079    0.0000 C   0  0  0  0  0  0  0  0  0  0  0  0
   -4.2071   -3.3079    0.0000 C   0  0  0  0  0  0  0  0  0  0  0  0
  1 18  2  0  0  0  0
  2 24  1  0  0  0  0
  2 26  1  0  0  0  0
  3  4  1  0  0  0  0
  3  9  2  0  0  0  0
  4 12  1  0  0  0  0
  5 13  1  0  0  0  0
  5 15  2  0  0  0  0
  6 16  1  0  0  0  0
  6 19  1  0  0  0  0
  6 20  1  0  0  0  0
  7 15  1  0  0  0  0
  7 18  1  0  0  0  0
  8 22  1  0  0  0  0
  8 25  1  0  0  0  0
  9 10  1  0  0  0  0
  9 11  1  0  0  0  0
 10 13  2  0  0  0  0
 10 14  1  0  0  0  0
 11 12  2  0  0  0  0
 11 16  1  0  0  0  0
 14 17  2  0  0  0  0
 15 17  1  0  0  0  0
 18 21  1  0  0  0  0
 19 22  1  0  0  0  0
 21 23  1  0  0  0  0
 23 24  1  0  0  0  0
M  END
> <PUBCHEM_COMPOUND_ID_TYPE>
0

> <PUBCHEM_TOTAL_CHARGE>
0

> <PUBCHEM_SUBSTANCE_ID>
310947749

> <PUBCHEM_SUBSTANCE_VERSION>
1

> <PUBCHEM_EXT_DATASOURCE_NAME>
4488

> <PUBCHEM_EXT_DATASOURCE_REGID>
SCHEMBL16125921

> <PUBCHEM_SUBSTANCE_COMMENT>
InChI=1S/C18H28N6O2/c1-19-8-9-24(2)13-15-12-21-23-18(15)14-6-7-16(20-11-14)22-17(25)5-4-10-26-3/h6-7,11-12,19H,4-5,8-10,13H2,1-3H3,(H,21,23)(H,20,22,25)
InChIKey=WCIXXCVLGRLZMU-UHFFFAOYSA-N

> <PUBCHEM_SUBSTANCE_SYNONYM>
SCHEMBL16125921

> <PUBCHEM_XREF_EXT_ID>
SCHEMBL16125921

> <PUBCHEM_EXT_DATASOURCE_URL>
https://www.surechembl.org/

> <PUBCHEM_EXT_SUBSTANCE_URL>
https://www.surechembl.org/chemical/SCHEMBL16125921

> <PUBCHEM_CID_ASSOCIATIONS>
86299891  1

> <PUBCHEM_COORDINATE_TYPE>
1
3

$$$$
