310943775
  -OEChem-07211613022D

 33 36  0     1  0  0  0  0  0999 V2000
    1.0148   -1.5195    0.0000 F   0  0  0  0  0  0  0  0  0  0  0  0
   -3.2831   -1.3242    0.0000 N   0  0  3  0  0  0  0  0  0  0  0  0
    3.2289    0.7380    0.0000 N   0  0  3  0  0  0  0  0  0  0  0  0
   -1.1342    1.7799    0.0000 N   0  0  0  0  0  0  0  0  0  0  0  0
   -5.0740   -0.7705    0.0000 N   0  0  3  0  0  0  0  0  0  0  0  0
    4.9871    0.2063    0.0000 N   0  0  3  0  0  0  0  0  0  0  0  0
   -0.4179   -0.4776    0.0000 C   0  0  0  0  0  0  0  0  0  0  0  0
    0.2985   -0.0652    0.0000 C   0  0  0  0  0  0  0  0  0  0  0  0
   -1.1233   -0.0759    0.0000 C   0  0  0  0  0  0  0  0  0  0  0  0
    1.0256   -0.4559    0.0000 C   0  0  0  0  0  0  0  0  0  0  0  0
   -1.8504   -1.2915    0.0000 C   0  0  0  0  0  0  0  0  0  0  0  0
   -0.4288   -1.3133    0.0000 C   0  0  0  0  0  0  0  0  0  0  0  0
    0.3093    0.7597    0.0000 C   0  0  0  0  0  0  0  0  0  0  0  0
    1.7312    0.7814    0.0000 C   0  0  0  0  0  0  0  0  0  0  0  0
   -1.8396   -0.4776    0.0000 C   0  0  0  0  0  0  0  0  0  0  0  0
    1.7203   -0.0652    0.0000 C   0  0  0  0  0  0  0  0  0  0  0  0
   -1.1233   -1.7257    0.0000 C   0  0  0  0  0  0  0  0  0  0  0  0
    1.0039    1.1722    0.0000 C   0  0  0  0  0  0  0  0  0  0  0  0
   -1.1342    0.9659    0.0000 C   0  0  0  0  0  0  0  0  0  0  0  0
   -2.5560   -1.7257    0.0000 C   0  0  0  0  0  0  0  0  0  0  0  0
    2.4257    1.1831    0.0000 C   0  0  0  0  0  0  0  0  0  0  0  0
   -3.9778   -1.7799    0.0000 C   0  0  0  0  0  0  0  0  0  0  0  0
    3.5327   -0.0217    0.0000 C   0  0  0  0  0  0  0  0  0  0  0  0
   -3.2397   -0.4776    0.0000 C   0  0  0  0  0  0  0  0  0  0  0  0
    3.6413    1.4652    0.0000 C   0  0  0  0  0  0  0  0  0  0  0  0
   -4.7483   -1.5412    0.0000 C   0  0  0  0  0  0  0  0  0  0  0  0
    4.3141   -0.2605    0.0000 C   0  0  0  0  0  0  0  0  0  0  0  0
   -3.8258    0.0759    0.0000 C   0  0  0  0  0  0  0  0  0  0  0  0
    4.4661    1.5846    0.0000 C   0  0  0  0  0  0  0  0  0  0  0  0
   -4.6506   -0.0434    0.0000 C   0  0  0  0  0  0  0  0  0  0  0  0
    5.0631    1.0311    0.0000 C   0  0  0  0  0  0  0  0  0  0  0  0
   -5.8988   -0.7814    0.0000 C   0  0  0  0  0  0  0  0  0  0  0  0
    5.8988   -0.3256    0.0000 C   0  0  0  0  0  0  0  0  0  0  0  0
  1 10  1  0  0  0  0
  2 20  1  0  0  0  0
  2 22  1  0  0  0  0
  2 24  1  0  0  0  0
  3 21  1  0  0  0  0
  3 23  1  0  0  0  0
  3 25  1  0  0  0  0
  4 19  3  0  0  0  0
  5 26  1  0  0  0  0
  5 30  1  0  0  0  0
  5 32  1  0  0  0  0
  6 27  1  0  0  0  0
  6 31  1  0  0  0  0
  6 33  1  0  0  0  0
  7  8  1  0  0  0  0
  7  9  2  0  0  0  0
  7 12  1  0  0  0  0
  8 10  2  0  0  0  0
  8 13  1  0  0  0  0
  9 15  1  0  0  0  0
  9 19  1  0  0  0  0
 10 16  1  0  0  0  0
 11 15  2  0  0  0  0
 11 17  1  0  0  0  0
 11 20  1  0  0  0  0
 12 17  2  0  0  0  0
 13 18  2  0  0  0  0
 14 16  2  0  0  0  0
 14 18  1  0  0  0  0
 14 21  1  0  0  0  0
 22 26  1  0  0  0  0
 23 27  1  0  0  0  0
 24 28  1  0  0  0  0
 25 29  1  0  0  0  0
 28 30  1  0  0  0  0
 29 31  1  0  0  0  0
M  END
> <PUBCHEM_COMPOUND_ID_TYPE>
0

> <PUBCHEM_TOTAL_CHARGE>
0

> <PUBCHEM_SUBSTANCE_ID>
310943775

> <PUBCHEM_SUBSTANCE_VERSION>
1

> <PUBCHEM_EXT_DATASOURCE_NAME>
4488

> <PUBCHEM_EXT_DATASOURCE_REGID>
SCHEMBL16121844

> <PUBCHEM_SUBSTANCE_COMMENT>
InChI=1S/C27H36FN5/c1-30-9-3-11-32(15-13-30)20-22-5-7-25(24(17-22)19-29)26-8-6-23(18-27(26)28)21-33-12-4-10-31(2)14-16-33/h5-8,17-18H,3-4,9-16,20-21H2,1-2H3
InChIKey=IIVUZDODNKDQAS-UHFFFAOYSA-N

> <PUBCHEM_SUBSTANCE_SYNONYM>
SCHEMBL16121844

> <PUBCHEM_XREF_EXT_ID>
SCHEMBL16121844

> <PUBCHEM_EXT_DATASOURCE_URL>
https://www.surechembl.org/

> <PUBCHEM_EXT_SUBSTANCE_URL>
https://www.surechembl.org/chemical/SCHEMBL16121844

> <PUBCHEM_CID_ASSOCIATIONS>
117610137  1

> <PUBCHEM_COORDINATE_TYPE>
1
3

$$$$
