310931753
  -OEChem-07211613022D

 20 22  0     1  0  0  0  0  0999 V2000
    3.3138    0.0000    0.0000 O   0  0  0  0  0  0  0  0  0  0  0  0
    4.4330   -1.9532    0.0000 O   0  0  0  0  0  0  0  0  0  0  0  0
    5.1573   -0.7242    0.0000 O   0  0  0  0  0  0  0  0  0  0  0  0
    3.7308   -0.7242    0.0000 C   0  0  3  0  0  0  0  0  0  0  0  0
    2.8968   -0.7242    0.0000 C   0  0  3  0  0  0  0  0  0  0  0  0
    4.4330   -1.1193    0.0000 C   0  0  0  0  0  0  0  0  0  0  0  0
    2.1726   -1.1193    0.0000 C   0  0  0  0  0  0  0  0  0  0  0  0
    3.5113   -1.5143    0.0000 C   0  0  0  0  0  0  0  0  0  0  0  0
    2.1726   -1.9751    0.0000 C   0  0  0  0  0  0  0  0  0  0  0  0
    1.4485   -0.7242    0.0000 C   0  0  0  0  0  0  0  0  0  0  0  0
    5.1573   -2.3701    0.0000 C   0  0  0  0  0  0  0  0  0  0  0  0
    1.4485   -2.3701    0.0000 C   0  0  0  0  0  0  0  0  0  0  0  0
    0.7462   -1.1193    0.0000 C   0  0  0  0  0  0  0  0  0  0  0  0
    0.7242   -1.9532    0.0000 C   0  0  0  0  0  0  0  0  0  0  0  0
    5.8815   -1.9532    0.0000 C   0  0  0  0  0  0  0  0  0  0  0  0
    5.1573   -3.2041    0.0000 C   0  0  0  0  0  0  0  0  0  0  0  0
    6.5838   -2.3701    0.0000 C   0  0  0  0  0  0  0  0  0  0  0  0
    5.8815   -3.5991    0.0000 C   0  0  0  0  0  0  0  0  0  0  0  0
    0.0000   -2.3701    0.0000 C   0  0  0  0  0  0  0  0  0  0  0  0
    6.5838   -3.2041    0.0000 C   0  0  0  0  0  0  0  0  0  0  0  0
  1  4  1  0  0  0  0
  1  5  1  0  0  0  0
  2  6  1  0  0  0  0
  2 11  1  0  0  0  0
  3  6  2  0  0  0  0
  4  5  1  0  0  0  0
  4  6  1  0  0  0  0
  4  8  1  0  0  0  0
  5  7  1  0  0  0  0
  7  9  2  0  0  0  0
  7 10  1  0  0  0  0
  9 12  1  0  0  0  0
 10 13  2  0  0  0  0
 11 15  2  0  0  0  0
 11 16  1  0  0  0  0
 12 14  2  0  0  0  0
 13 14  1  0  0  0  0
 14 19  1  0  0  0  0
 15 17  1  0  0  0  0
 16 18  2  0  0  0  0
 17 20  2  0  0  0  0
 18 20  1  0  0  0  0
M  END
> <PUBCHEM_COMPOUND_ID_TYPE>
0

> <PUBCHEM_TOTAL_CHARGE>
0

> <PUBCHEM_SUBSTANCE_ID>
310931753

> <PUBCHEM_SUBSTANCE_VERSION>
1

> <PUBCHEM_EXT_DATASOURCE_NAME>
4488

> <PUBCHEM_EXT_DATASOURCE_REGID>
SCHEMBL16109082

> <PUBCHEM_SUBSTANCE_COMMENT>
InChI=1S/C17H16O3/c1-12-8-10-13(11-9-12)15-17(2,20-15)16(18)19-14-6-4-3-5-7-14/h3-11,15H,1-2H3
InChIKey=UYNXDGWSAOPMNB-UHFFFAOYSA-N

> <PUBCHEM_SUBSTANCE_SYNONYM>
SCHEMBL16109082

> <PUBCHEM_XREF_EXT_ID>
SCHEMBL16109082

> <PUBCHEM_EXT_DATASOURCE_URL>
https://www.surechembl.org/

> <PUBCHEM_EXT_SUBSTANCE_URL>
https://www.surechembl.org/chemical/SCHEMBL16109082

> <PUBCHEM_CID_ASSOCIATIONS>
117600443  1

> <PUBCHEM_COORDINATE_TYPE>
1
3

$$$$
