310949842
  -OEChem-07211613022D

 24 25  0     1  0  0  0  0  0999 V2000
   -0.7148   -0.4164    0.0000 O   0  0  0  0  0  0  0  0  0  0  0  0
    3.5861   -0.4164    0.0000 O   0  0  0  0  0  0  0  0  0  0  0  0
    3.5861   -2.0696    0.0000 O   0  0  0  0  0  0  0  0  0  0  0  0
   -3.5861    2.0696    0.0000 O   0  0  0  0  0  0  0  0  0  0  0  0
   -2.1318    0.4164    0.0000 N   0  0  3  0  0  0  0  0  0  0  0  0
    0.0186    0.8266    0.0000 N   0  0  0  0  0  0  0  0  0  0  0  0
    2.8900   -1.6594    0.0000 N   0  0  0  0  0  0  0  0  0  0  0  0
    0.7272    0.4164    0.0000 C   0  0  0  0  0  0  0  0  0  0  0  0
    2.1566   -0.4040    0.0000 C   0  0  0  0  0  0  0  0  0  0  0  0
   -2.1442   -0.4164    0.0000 C   0  0  0  0  0  0  0  0  0  0  0  0
   -0.7023    0.4288    0.0000 C   0  0  0  0  0  0  0  0  0  0  0  0
   -1.4356    0.8266    0.0000 C   0  0  0  0  0  0  0  0  0  0  0  0
    1.4356    0.8141    0.0000 C   0  0  0  0  0  0  0  0  0  0  0  0
    0.7396   -0.4040    0.0000 C   0  0  0  0  0  0  0  0  0  0  0  0
    2.1690    0.4164    0.0000 C   0  0  0  0  0  0  0  0  0  0  0  0
    1.4481   -0.8266    0.0000 C   0  0  0  0  0  0  0  0  0  0  0  0
    2.8775   -0.8266    0.0000 C   0  0  0  0  0  0  0  0  0  0  0  0
   -2.8402   -0.8266    0.0000 C   0  0  0  0  0  0  0  0  0  0  0  0
   -1.4232   -0.8266    0.0000 C   0  0  0  0  0  0  0  0  0  0  0  0
   -2.8527    0.8266    0.0000 C   0  0  0  0  0  0  0  0  0  0  0  0
   -2.8402   -1.6594    0.0000 C   0  0  0  0  0  0  0  0  0  0  0  0
   -1.4232   -1.6594    0.0000 C   0  0  0  0  0  0  0  0  0  0  0  0
   -2.1318   -2.0696    0.0000 C   0  0  0  0  0  0  0  0  0  0  0  0
   -2.8527    1.6594    0.0000 C   0  0  0  0  0  0  0  0  0  0  0  0
  1 11  2  0  0  0  0
  2 17  2  0  0  0  0
  3  7  1  0  0  0  0
  4 24  1  0  0  0  0
  5 10  1  0  0  0  0
  5 12  1  0  0  0  0
  5 20  1  0  0  0  0
  6  8  1  0  0  0  0
  6 11  1  0  0  0  0
  7 17  1  0  0  0  0
  8 13  2  0  0  0  0
  8 14  1  0  0  0  0
  9 15  2  0  0  0  0
  9 16  1  0  0  0  0
  9 17  1  0  0  0  0
 10 18  2  0  0  0  0
 10 19  1  0  0  0  0
 11 12  1  0  0  0  0
 13 15  1  0  0  0  0
 14 16  2  0  0  0  0
 18 21  1  0  0  0  0
 19 22  2  0  0  0  0
 20 24  1  0  0  0  0
 21 23  2  0  0  0  0
 22 23  1  0  0  0  0
M  END
> <PUBCHEM_COMPOUND_ID_TYPE>
0

> <PUBCHEM_TOTAL_CHARGE>
0

> <PUBCHEM_SUBSTANCE_ID>
310949842

> <PUBCHEM_SUBSTANCE_VERSION>
1

> <PUBCHEM_EXT_DATASOURCE_NAME>
4488

> <PUBCHEM_EXT_DATASOURCE_REGID>
SCHEMBL16128046

> <PUBCHEM_SUBSTANCE_COMMENT>
InChI=1S/C17H19N3O4/c21-11-10-20(15-4-2-1-3-5-15)12-16(22)18-14-8-6-13(7-9-14)17(23)19-24/h1-9,21,24H,10-12H2,(H,18,22)(H,19,23)
InChIKey=WTMIOTBZOWMBCD-UHFFFAOYSA-N

> <PUBCHEM_SUBSTANCE_SYNONYM>
SCHEMBL16128046

> <PUBCHEM_XREF_EXT_ID>
SCHEMBL16128046

> <PUBCHEM_EXT_DATASOURCE_URL>
https://www.surechembl.org/

> <PUBCHEM_EXT_SUBSTANCE_URL>
https://www.surechembl.org/chemical/SCHEMBL16128046

> <PUBCHEM_CID_ASSOCIATIONS>
71523616  1

> <PUBCHEM_COORDINATE_TYPE>
1
3

$$$$
