310943778
  -OEChem-07211613022D

 28 30  0     1  0  0  0  0  0999 V2000
    4.1657    0.6810    0.0000 S   0  0  0  0  0  0  0  0  0  0  0  0
    3.4418   -0.0552    0.0000 O   0  0  0  0  0  0  0  0  0  0  0  0
    4.8896   -0.0430    0.0000 O   0  0  0  0  0  0  0  0  0  0  0  0
   -2.4479   -1.3190    0.0000 N   0  0  3  0  0  0  0  0  0  0  0  0
   -4.2148   -0.7668    0.0000 N   0  0  3  0  0  0  0  0  0  0  0  0
   -0.3007    1.7731    0.0000 N   0  0  0  0  0  0  0  0  0  0  0  0
    0.4111   -0.4724    0.0000 C   0  0  0  0  0  0  0  0  0  0  0  0
    1.1350   -0.0430    0.0000 C   0  0  0  0  0  0  0  0  0  0  0  0
   -0.3007   -0.0552    0.0000 C   0  0  0  0  0  0  0  0  0  0  0  0
   -0.9999   -1.3068    0.0000 C   0  0  0  0  0  0  0  0  0  0  0  0
   -1.0122   -0.4847    0.0000 C   0  0  0  0  0  0  0  0  0  0  0  0
    0.4233   -1.2945    0.0000 C   0  0  0  0  0  0  0  0  0  0  0  0
    1.1350    0.7668    0.0000 C   0  0  0  0  0  0  0  0  0  0  0  0
    1.8222   -0.4602    0.0000 C   0  0  0  0  0  0  0  0  0  0  0  0
    2.5460    0.7668    0.0000 C   0  0  0  0  0  0  0  0  0  0  0  0
   -0.2761   -1.7117    0.0000 C   0  0  0  0  0  0  0  0  0  0  0  0
    1.8466    1.1718    0.0000 C   0  0  0  0  0  0  0  0  0  0  0  0
    2.5460   -0.0675    0.0000 C   0  0  0  0  0  0  0  0  0  0  0  0
   -1.7117   -1.7240    0.0000 C   0  0  0  0  0  0  0  0  0  0  0  0
   -0.3007    0.9509    0.0000 C   0  0  0  0  0  0  0  0  0  0  0  0
    3.2823    1.2454    0.0000 C   0  0  0  0  0  0  0  0  0  0  0  0
   -3.1105   -1.7731    0.0000 C   0  0  0  0  0  0  0  0  0  0  0  0
   -2.3865   -0.4847    0.0000 C   0  0  0  0  0  0  0  0  0  0  0  0
   -3.9080   -1.5399    0.0000 C   0  0  0  0  0  0  0  0  0  0  0  0
   -2.9632    0.0552    0.0000 C   0  0  0  0  0  0  0  0  0  0  0  0
    5.0492    1.1963    0.0000 C   0  0  0  0  0  0  0  0  0  0  0  0
   -3.7975   -0.0552    0.0000 C   0  0  0  0  0  0  0  0  0  0  0  0
   -5.0492   -0.7791    0.0000 C   0  0  0  0  0  0  0  0  0  0  0  0
  1  2  2  0  0  0  0
  1  3  2  0  0  0  0
  1 21  1  0  0  0  0
  1 26  1  0  0  0  0
  4 19  1  0  0  0  0
  4 22  1  0  0  0  0
  4 23  1  0  0  0  0
  5 24  1  0  0  0  0
  5 27  1  0  0  0  0
  5 28  1  0  0  0  0
  6 20  3  0  0  0  0
  7  8  1  0  0  0  0
  7  9  2  0  0  0  0
  7 12  1  0  0  0  0
  8 13  2  0  0  0  0
  8 14  1  0  0  0  0
  9 11  1  0  0  0  0
  9 20  1  0  0  0  0
 10 11  2  0  0  0  0
 10 16  1  0  0  0  0
 10 19  1  0  0  0  0
 12 16  2  0  0  0  0
 13 17  1  0  0  0  0
 14 18  2  0  0  0  0
 15 17  2  0  0  0  0
 15 18  1  0  0  0  0
 15 21  1  0  0  0  0
 22 24  1  0  0  0  0
 23 25  1  0  0  0  0
 25 27  1  0  0  0  0
M  END
> <PUBCHEM_COMPOUND_ID_TYPE>
0

> <PUBCHEM_TOTAL_CHARGE>
0

> <PUBCHEM_SUBSTANCE_ID>
310943778

> <PUBCHEM_SUBSTANCE_VERSION>
1

> <PUBCHEM_EXT_DATASOURCE_NAME>
4488

> <PUBCHEM_EXT_DATASOURCE_REGID>
SCHEMBL16121848

> <PUBCHEM_SUBSTANCE_COMMENT>
InChI=1S/C22H27N3O2S/c1-24-10-3-11-25(13-12-24)16-19-6-9-22(21(14-19)15-23)20-7-4-18(5-8-20)17-28(2,26)27/h4-9,14H,3,10-13,16-17H2,1-2H3
InChIKey=XPFBFZPXUYTLAH-UHFFFAOYSA-N

> <PUBCHEM_SUBSTANCE_SYNONYM>
SCHEMBL16121848

> <PUBCHEM_XREF_EXT_ID>
SCHEMBL16121848

> <PUBCHEM_EXT_DATASOURCE_URL>
https://www.surechembl.org/

> <PUBCHEM_EXT_SUBSTANCE_URL>
https://www.surechembl.org/chemical/SCHEMBL16121848

> <PUBCHEM_CID_ASSOCIATIONS>
117610139  1

> <PUBCHEM_COORDINATE_TYPE>
1
3

$$$$
