310938866
  -OEChem-07211613022D

 33 33  0     1  0  0  0  0  0999 V2000
    3.2290   -0.4164    0.0000 O   0  0  0  0  0  0  0  0  0  0  0  0
    6.1045    0.4085    0.0000 O   0  0  0  0  0  0  0  0  0  0  0  0
    3.9440    1.6577    0.0000 O   0  0  0  0  0  0  0  0  0  0  0  0
    5.3895    1.6498    0.0000 O   0  0  0  0  0  0  0  0  0  0  0  0
    3.9361   -1.6577    0.0000 O   0  0  0  0  0  0  0  0  0  0  0  0
    4.6589   -0.4164    0.0000 N   0  0  0  0  0  0  0  0  0  0  0  0
    4.6667    0.4321    0.0000 C   0  0  3  0  0  0  0  0  0  0  0  0
    3.9361    0.8328    0.0000 C   0  0  0  0  0  0  0  0  0  0  0  0
    5.3817    0.8406    0.0000 C   0  0  0  0  0  0  0  0  0  0  0  0
    3.9361   -0.7935    0.0000 C   0  0  0  0  0  0  0  0  0  0  0  0
    3.2290    0.4321    0.0000 C   0  0  0  0  0  0  0  0  0  0  0  0
    1.6734   -0.8014    0.0000 C   0  0  0  0  0  0  0  0  0  0  0  0
    2.5141   -0.8092    0.0000 C   0  0  0  0  0  0  0  0  0  0  0  0
    2.5062    0.8485    0.0000 C   0  0  0  0  0  0  0  0  0  0  0  0
    1.2649   -0.0943    0.0000 C   0  0  0  0  0  0  0  0  0  0  0  0
    1.2571   -1.5163    0.0000 C   0  0  0  0  0  0  0  0  0  0  0  0
    0.4321   -0.0943    0.0000 C   0  0  0  0  0  0  0  0  0  0  0  0
    0.4321   -1.5163    0.0000 C   0  0  0  0  0  0  0  0  0  0  0  0
    0.0236   -0.8014    0.0000 C   0  0  0  0  0  0  0  0  0  0  0  0
    6.8273    0.8485    0.0000 C   0  0  0  0  0  0  0  0  0  0  0  0
    1.7913    0.4400    0.0000 C   0  0  0  0  0  0  0  0  0  0  0  0
    1.0606    0.8485    0.0000 C   0  0  0  0  0  0  0  0  0  0  0  0
    0.3614    0.4400    0.0000 C   0  0  0  0  0  0  0  0  0  0  0  0
   -0.3693    0.8485    0.0000 C   0  0  0  0  0  0  0  0  0  0  0  0
   -1.0763    0.4400    0.0000 C   0  0  0  0  0  0  0  0  0  0  0  0
   -1.8070    0.8563    0.0000 C   0  0  0  0  0  0  0  0  0  0  0  0
   -2.5141    0.4400    0.0000 C   0  0  0  0  0  0  0  0  0  0  0  0
   -3.2369    0.8563    0.0000 C   0  0  0  0  0  0  0  0  0  0  0  0
   -3.9440    0.4400    0.0000 C   0  0  0  0  0  0  0  0  0  0  0  0
   -4.6667    0.8563    0.0000 C   0  0  0  0  0  0  0  0  0  0  0  0
   -5.3895    0.4478    0.0000 C   0  0  0  0  0  0  0  0  0  0  0  0
   -6.1123    0.8563    0.0000 C   0  0  0  0  0  0  0  0  0  0  0  0
   -6.8273    0.4478    0.0000 C   0  0  0  0  0  0  0  0  0  0  0  0
  1 10  1  0  0  0  0
  1 13  1  0  0  0  0
  2  9  1  0  0  0  0
  2 20  1  0  0  0  0
  3  8  2  0  0  0  0
  4  9  2  0  0  0  0
  5 10  2  0  0  0  0
  6  7  1  0  0  0  0
  6 10  1  0  0  0  0
  7  8  1  0  0  0  0
  7  9  1  0  0  0  0
  8 11  1  0  0  0  0
 11 14  2  0  0  0  0
 12 13  1  0  0  0  0
 12 15  2  0  0  0  0
 12 16  1  0  0  0  0
 14 21  1  0  0  0  0
 15 17  1  0  0  0  0
 16 18  2  0  0  0  0
 17 19  2  0  0  0  0
 18 19  1  0  0  0  0
 21 22  1  0  0  0  0
 22 23  1  0  0  0  0
 23 24  1  0  0  0  0
 24 25  1  0  0  0  0
 25 26  1  0  0  0  0
 26 27  1  0  0  0  0
 27 28  1  0  0  0  0
 28 29  1  0  0  0  0
 29 30  1  0  0  0  0
 30 31  1  0  0  0  0
 31 32  1  0  0  0  0
 32 33  1  0  0  0  0
M  END
> <PUBCHEM_COMPOUND_ID_TYPE>
0

> <PUBCHEM_TOTAL_CHARGE>
0

> <PUBCHEM_SUBSTANCE_ID>
310938866

> <PUBCHEM_SUBSTANCE_VERSION>
1

> <PUBCHEM_EXT_DATASOURCE_NAME>
4488

> <PUBCHEM_EXT_DATASOURCE_REGID>
SCHEMBL16116785

> <PUBCHEM_SUBSTANCE_COMMENT>
InChI=1S/C27H41NO5/c1-3-4-5-6-7-8-9-10-11-12-13-14-18-21-24(29)25(26(30)32-2)28-27(31)33-22-23-19-16-15-17-20-23/h15-21,25H,3-14,22H2,1-2H3,(H,28,31)/b21-18+
InChIKey=YXVCSDHKUVUGLS-DYTRJAOYSA-N

> <PUBCHEM_SUBSTANCE_SYNONYM>
SCHEMBL16116785

> <PUBCHEM_XREF_EXT_ID>
SCHEMBL16116785

> <PUBCHEM_EXT_DATASOURCE_URL>
https://www.surechembl.org/

> <PUBCHEM_EXT_SUBSTANCE_URL>
https://www.surechembl.org/chemical/SCHEMBL16116785

> <PUBCHEM_CID_ASSOCIATIONS>
117606263  1

> <PUBCHEM_COORDINATE_TYPE>
1
3

$$$$
