310940243
  -OEChem-07211613022D

 18 19  0     1  0  0  0  0  0999 V2000
   -2.1421    0.9762    0.0000 O   0  0  0  0  0  0  0  0  0  0  0  0
   -0.2305   -1.2307    0.0000 O   0  0  0  0  0  0  0  0  0  0  0  0
   -0.9449    0.0068    0.0000 N   0  0  0  0  0  0  0  0  0  0  0  0
   -1.7296    0.2617    0.0000 C   0  0  0  0  0  0  0  0  0  0  0  0
   -2.2145   -0.4057    0.0000 C   0  0  3  0  0  0  0  0  0  0  0  0
   -0.9449   -0.8182    0.0000 C   0  0  0  0  0  0  0  0  0  0  0  0
   -0.1481    0.2203    0.0000 C   0  0  0  0  0  0  0  0  0  0  0  0
   -1.7296   -1.0732    0.0000 C   0  0  0  0  0  0  0  0  0  0  0  0
   -3.0395   -0.4057    0.0000 C   0  0  0  0  0  0  0  0  0  0  0  0
    0.4353   -0.3631    0.0000 C   0  0  0  0  0  0  0  0  0  0  0  0
    0.0655    1.0172    0.0000 C   0  0  0  0  0  0  0  0  0  0  0  0
    1.4457    0.6474    0.0000 C   0  0  0  0  0  0  0  0  0  0  0  0
    1.2322   -0.1495    0.0000 C   0  0  0  0  0  0  0  0  0  0  0  0
    0.8624    1.2307    0.0000 C   0  0  0  0  0  0  0  0  0  0  0  0
   -3.0395    0.4193    0.0000 C   0  0  0  0  0  0  0  0  0  0  0  0
   -3.0395   -1.2307    0.0000 C   0  0  0  0  0  0  0  0  0  0  0  0
    2.2426    0.8609    0.0000 C   0  0  0  0  0  0  0  0  0  0  0  0
    3.0395    0.6474    0.0000 C   0  0  0  0  0  0  0  0  0  0  0  0
  1  4  2  0  0  0  0
  2  6  2  0  0  0  0
  3  4  1  0  0  0  0
  3  6  1  0  0  0  0
  3  7  1  0  0  0  0
  4  5  1  0  0  0  0
  5  8  1  0  0  0  0
  5  9  1  0  0  0  0
  6  8  1  0  0  0  0
  7 10  2  0  0  0  0
  7 11  1  0  0  0  0
  9 15  1  0  0  0  0
  9 16  1  0  0  0  0
 10 13  1  0  0  0  0
 11 14  2  0  0  0  0
 12 13  2  0  0  0  0
 12 14  1  0  0  0  0
 12 17  1  0  0  0  0
 17 18  1  0  0  0  0
M  END
> <PUBCHEM_COMPOUND_ID_TYPE>
0

> <PUBCHEM_TOTAL_CHARGE>
0

> <PUBCHEM_SUBSTANCE_ID>
310940243

> <PUBCHEM_SUBSTANCE_VERSION>
1

> <PUBCHEM_EXT_DATASOURCE_NAME>
4488

> <PUBCHEM_EXT_DATASOURCE_REGID>
SCHEMBL16118177

> <PUBCHEM_SUBSTANCE_COMMENT>
InChI=1S/C15H19NO2/c1-4-11-5-7-12(8-6-11)16-14(17)9-13(10(2)3)15(16)18/h5-8,10,13H,4,9H2,1-3H3
InChIKey=BWJGIKVTQUUIDU-UHFFFAOYSA-N

> <PUBCHEM_SUBSTANCE_SYNONYM>
SCHEMBL16118177

> <PUBCHEM_XREF_EXT_ID>
SCHEMBL16118177

> <PUBCHEM_EXT_DATASOURCE_URL>
https://www.surechembl.org/

> <PUBCHEM_EXT_SUBSTANCE_URL>
https://www.surechembl.org/chemical/SCHEMBL16118177

> <PUBCHEM_CID_ASSOCIATIONS>
117607334  1

> <PUBCHEM_COORDINATE_TYPE>
1
3

> <PUBCHEM_BONDANNOTATIONS>
9  15  3
9  16  3

$$$$
