310933324
  -OEChem-07211613022D

 26 29  0     1  0  0  0  0  0999 V2000
    2.6549   -0.5783    0.0000 O   0  0  0  0  0  0  0  0  0  0  0  0
    0.0000   -4.1796    0.0000 O   0  0  0  0  0  0  0  0  0  0  0  0
    5.4939   -3.0493    0.0000 O   0  0  0  0  0  0  0  0  0  0  0  0
    4.1796   -2.3921    0.0000 N   0  0  0  0  0  0  0  0  0  0  0  0
    4.1796   -3.7064    0.0000 N   0  0  0  0  0  0  0  0  0  0  0  0
    0.3943   -4.8893    0.0000 N   0  0  0  0  0  0  0  0  0  0  0  0
    2.6812   -2.2343    0.0000 C   0  0  0  0  0  0  0  0  0  0  0  0
    2.6812   -1.4195    0.0000 C   0  0  3  0  0  0  0  0  0  0  0  0
    3.4173   -2.6287    0.0000 C   0  0  0  0  0  0  0  0  0  0  0  0
    3.4173   -3.4961    0.0000 C   0  0  0  0  0  0  0  0  0  0  0  0
    1.9978   -3.4961    0.0000 C   0  0  0  0  0  0  0  0  0  0  0  0
    1.9978   -2.6287    0.0000 C   0  0  0  0  0  0  0  0  0  0  0  0
    1.2881   -3.8904    0.0000 C   0  0  0  0  0  0  0  0  0  0  0  0
    3.3910   -0.9989    0.0000 C   0  0  0  0  0  0  0  0  0  0  0  0
    2.6812   -3.8904    0.0000 C   0  0  0  0  0  0  0  0  0  0  0  0
    4.6790   -3.0493    0.0000 C   0  0  0  0  0  0  0  0  0  0  0  0
    1.9715   -0.9989    0.0000 C   0  0  0  0  0  0  0  0  0  0  0  0
    0.5258   -3.5750    0.0000 C   0  0  0  0  0  0  0  0  0  0  0  0
    1.1829   -4.7053    0.0000 C   0  0  0  0  0  0  0  0  0  0  0  0
    3.4435   -0.1840    0.0000 C   0  0  0  0  0  0  0  0  0  0  0  0
    4.1270   -1.3143    0.0000 C   0  0  0  0  0  0  0  0  0  0  0  0
    4.2585    0.0000    0.0000 C   0  0  0  0  0  0  0  0  0  0  0  0
    4.6790   -0.7097    0.0000 C   0  0  0  0  0  0  0  0  0  0  0  0
    0.3417   -2.7601    0.0000 C   0  0  0  0  0  0  0  0  0  0  0  0
    1.8138   -5.2574    0.0000 C   0  0  0  0  0  0  0  0  0  0  0  0
    1.2618   -1.4195    0.0000 C   0  0  0  0  0  0  0  0  0  0  0  0
  1  8  1  0  0  0  0
  2  6  1  0  0  0  0
  2 18  1  0  0  0  0
  3 16  2  0  0  0  0
  4  9  1  0  0  0  0
  4 16  1  0  0  0  0
  5 10  1  0  0  0  0
  5 16  1  0  0  0  0
  6 19  2  0  0  0  0
  7  8  1  0  0  0  0
  7  9  1  0  0  0  0
  7 12  2  0  0  0  0
  8 14  1  0  0  0  0
  8 17  1  0  0  0  0
  9 10  2  0  0  0  0
 10 15  1  0  0  0  0
 11 12  1  0  0  0  0
 11 13  1  0  0  0  0
 11 15  2  0  0  0  0
 13 18  2  0  0  0  0
 13 19  1  0  0  0  0
 14 20  1  0  0  0  0
 14 21  1  0  0  0  0
 17 26  1  0  0  0  0
 18 24  1  0  0  0  0
 19 25  1  0  0  0  0
 20 22  1  0  0  0  0
 21 23  1  0  0  0  0
 22 23  1  0  0  0  0
M  END
> <PUBCHEM_COMPOUND_ID_TYPE>
0

> <PUBCHEM_TOTAL_CHARGE>
0

> <PUBCHEM_SUBSTANCE_ID>
310933324

> <PUBCHEM_SUBSTANCE_VERSION>
1

> <PUBCHEM_EXT_DATASOURCE_NAME>
4488

> <PUBCHEM_EXT_DATASOURCE_REGID>
SCHEMBL16110736

> <PUBCHEM_SUBSTANCE_COMMENT>
InChI=1S/C20H25N3O3/c1-4-20(25,14-7-5-6-8-14)15-9-13(17-11(2)23-26-12(17)3)10-16-18(15)22-19(24)21-16/h9-10,14,25H,4-8H2,1-3H3,(H2,21,22,24)
InChIKey=AFZZVOYDUJQWCW-UHFFFAOYSA-N

> <PUBCHEM_SUBSTANCE_SYNONYM>
SCHEMBL16110736

> <PUBCHEM_XREF_EXT_ID>
SCHEMBL16110736

> <PUBCHEM_EXT_DATASOURCE_URL>
https://www.surechembl.org/

> <PUBCHEM_EXT_SUBSTANCE_URL>
https://www.surechembl.org/chemical/SCHEMBL16110736

> <PUBCHEM_CID_ASSOCIATIONS>
117601738  1

> <PUBCHEM_COORDINATE_TYPE>
1
3

$$$$
