310941805
  -OEChem-07211613022D

 33 33  0     1  0  0  0  0  0999 V2000
   -5.5932   -0.1522    0.0000 S   0  0  0  0  0  0  0  0  0  0  0  0
    4.5934    0.0507    0.0000 S   0  0  0  0  0  0  0  0  0  0  0  0
   -6.6366   -0.6303    0.0000 F   0  0  0  0  0  0  0  0  0  0  0  0
   -6.0715    0.9201    0.0000 F   0  0  0  0  0  0  0  0  0  0  0  0
   -7.1292    0.4999    0.0000 F   0  0  0  0  0  0  0  0  0  0  0  0
   -5.2601    0.6014    0.0000 O   0  0  0  0  0  0  0  0  0  0  0  0
   -5.8541   -0.8912    0.0000 O   0  0  0  0  0  0  0  0  0  0  0  0
    3.3183   -1.3693    0.0000 O   0  0  0  0  0  0  0  0  0  0  0  0
    1.7968    1.2969    0.0000 O   0  0  0  0  0  0  0  0  0  0  0  0
   -3.7819    0.7172    0.0000 O   0  0  0  0  0  0  0  0  0  0  0  0
   -1.9417   -0.5144    0.0000 O   0  0  0  0  0  0  0  0  0  0  0  0
    0.5072   -1.2244    0.0000 O   0  0  0  0  0  0  0  0  0  0  0  0
    6.3033   -0.1376    0.0000 O   0  0  0  0  0  0  0  0  0  0  0  0
    2.3620   -0.1522    0.0000 N   0  0  0  0  0  0  0  0  0  0  0  0
   -4.5355   -0.5869    0.0000 N   0  0  0  0  0  0  0  0  0  0  0  0
   -0.1014   -0.1522    0.0000 N   0  0  0  0  0  0  0  0  0  0  0  0
    6.4771    1.3693    0.0000 N   0  0  0  0  0  0  0  0  0  0  0  0
   -6.3613    0.1956    0.0000 C   0  0  0  0  0  0  0  0  0  0  0  0
    3.1444   -0.4420    0.0000 C   0  0  0  0  0  0  0  0  0  0  0  0
    3.7239    0.1812    0.0000 C   0  0  3  0  0  0  0  0  0  0  0  0
    2.4778    0.7318    0.0000 C   0  0  0  0  0  0  0  0  0  0  0  0
    3.3183    0.9056    0.0000 C   0  0  0  0  0  0  0  0  0  0  0  0
    1.7678   -0.4709    0.0000 C   0  0  0  0  0  0  0  0  0  0  0  0
   -3.7964   -0.1376    0.0000 C   0  0  0  0  0  0  0  0  0  0  0  0
    1.1157   -0.1232    0.0000 C   0  0  0  0  0  0  0  0  0  0  0  0
   -3.1444   -0.4709    0.0000 C   0  0  0  0  0  0  0  0  0  0  0  0
    5.1151    0.7897    0.0000 C   0  0  0  0  0  0  0  0  0  0  0  0
    0.5217   -0.4709    0.0000 C   0  0  0  0  0  0  0  0  0  0  0  0
    5.9555    0.7172    0.0000 C   0  0  0  0  0  0  0  0  0  0  0  0
   -2.5648   -0.1232    0.0000 C   0  0  0  0  0  0  0  0  0  0  0  0
   -0.7245   -0.4709    0.0000 C   0  0  0  0  0  0  0  0  0  0  0  0
   -1.3476   -0.1232    0.0000 C   0  0  0  0  0  0  0  0  0  0  0  0
    7.1292    1.3114    0.0000 C   0  0  0  0  0  0  0  0  0  0  0  0
  1  6  2  0  0  0  0
  1  7  2  0  0  0  0
  1 15  1  0  0  0  0
  1 18  1  0  0  0  0
  2 20  1  0  0  0  0
  2 27  1  0  0  0  0
  3 18  1  0  0  0  0
  4 18  1  0  0  0  0
  5 18  1  0  0  0  0
  8 19  2  0  0  0  0
  9 21  2  0  0  0  0
 10 24  2  0  0  0  0
 11 30  1  0  0  0  0
 11 32  1  0  0  0  0
 12 28  2  0  0  0  0
 13 29  2  0  0  0  0
 14 19  1  0  0  0  0
 14 21  1  0  0  0  0
 14 23  1  0  0  0  0
 15 24  1  0  0  0  0
 16 28  1  0  0  0  0
 16 31  1  0  0  0  0
 17 29  1  0  0  0  0
 17 33  1  0  0  0  0
 19 20  1  0  0  0  0
 20 22  1  0  0  0  0
 21 22  1  0  0  0  0
 23 25  1  0  0  0  0
 24 26  1  0  0  0  0
 25 28  1  0  0  0  0
 26 30  1  0  0  0  0
 27 29  1  0  0  0  0
 31 32  1  0  0  0  0
M  END
> <PUBCHEM_COMPOUND_ID_TYPE>
0

> <PUBCHEM_TOTAL_CHARGE>
0

> <PUBCHEM_SUBSTANCE_ID>
310941805

> <PUBCHEM_SUBSTANCE_VERSION>
1

> <PUBCHEM_EXT_DATASOURCE_NAME>
4488

> <PUBCHEM_EXT_DATASOURCE_REGID>
SCHEMBL16119836

> <PUBCHEM_SUBSTANCE_COMMENT>
InChI=1S/C16H23F3N4O8S2/c1-20-13(26)9-32-10-8-14(27)23(15(10)28)5-2-11(24)21-4-7-31-6-3-12(25)22-33(29,30)16(17,18)19/h10H,2-9H2,1H3,(H,20,26)(H,21,24)(H,22,25)
InChIKey=LZRZYKGQNZPIOL-UHFFFAOYSA-N

> <PUBCHEM_SUBSTANCE_SYNONYM>
SCHEMBL16119836

> <PUBCHEM_XREF_EXT_ID>
SCHEMBL16119836

> <PUBCHEM_EXT_DATASOURCE_URL>
https://www.surechembl.org/

> <PUBCHEM_EXT_SUBSTANCE_URL>
https://www.surechembl.org/chemical/SCHEMBL16119836

> <PUBCHEM_CID_ASSOCIATIONS>
117608552  1

> <PUBCHEM_COORDINATE_TYPE>
1
3

$$$$
