310933719
  -OEChem-07211613022D

 16 17  0     1  0  0  0  0  0999 V2000
    0.0000   -2.1410    0.0000 Br  0  0  0  0  0  0  0  0  0  0  0  0
    2.0638   -2.8547    0.0000 O   0  0  0  0  0  0  0  0  0  0  0  0
    0.8294   -0.6944    0.0000 O   0  0  0  0  0  0  0  0  0  0  0  0
    4.5327    0.0000    0.0000 O   0  0  0  0  0  0  0  0  0  0  0  0
    5.7865   -0.7136    0.0000 O   0  0  0  0  0  0  0  0  0  0  0  0
    4.5327   -1.4274    0.0000 N   0  0  0  0  0  0  0  0  0  0  0  0
    2.0638   -1.4274    0.0000 C   0  0  0  0  0  0  0  0  0  0  0  0
    2.4689   -2.1410    0.0000 C   0  0  0  0  0  0  0  0  0  0  0  0
    1.2345   -1.4274    0.0000 C   0  0  0  0  0  0  0  0  0  0  0  0
    0.8294   -2.1410    0.0000 C   0  0  3  0  0  0  0  0  0  0  0  0
    3.2983   -2.1410    0.0000 C   0  0  0  0  0  0  0  0  0  0  0  0
    3.7227   -1.4274    0.0000 C   0  0  0  0  0  0  0  0  0  0  0  0
    2.4689   -0.7136    0.0000 C   0  0  0  0  0  0  0  0  0  0  0  0
    1.2345   -2.8547    0.0000 C   0  0  0  0  0  0  0  0  0  0  0  0
    3.3176   -0.7136    0.0000 C   0  0  0  0  0  0  0  0  0  0  0  0
    4.9571   -0.7136    0.0000 C   0  0  0  0  0  0  0  0  0  0  0  0
  1 10  1  0  0  0  0
  2  8  1  0  0  0  0
  2 14  1  0  0  0  0
  3  9  2  0  0  0  0
  4 16  2  0  0  0  0
  5 16  1  0  0  0  0
  6 12  1  0  0  0  0
  6 16  1  0  0  0  0
  7  8  2  0  0  0  0
  7  9  1  0  0  0  0
  7 13  1  0  0  0  0
  8 11  1  0  0  0  0
  9 10  1  0  0  0  0
 10 14  1  0  0  0  0
 11 12  2  0  0  0  0
 12 15  1  0  0  0  0
 13 15  2  0  0  0  0
M  END
> <PUBCHEM_COMPOUND_ID_TYPE>
0

> <PUBCHEM_TOTAL_CHARGE>
0

> <PUBCHEM_SUBSTANCE_ID>
310933719

> <PUBCHEM_SUBSTANCE_VERSION>
1

> <PUBCHEM_EXT_DATASOURCE_NAME>
4488

> <PUBCHEM_EXT_DATASOURCE_REGID>
SCHEMBL16111154

> <PUBCHEM_SUBSTANCE_COMMENT>
InChI=1S/C10H8BrNO4/c11-7-4-16-8-3-5(12-10(14)15)1-2-6(8)9(7)13/h1-3,7,12H,4H2,(H,14,15)
InChIKey=OEAFDGZHLJRLRC-UHFFFAOYSA-N

> <PUBCHEM_SUBSTANCE_SYNONYM>
SCHEMBL16111154

> <PUBCHEM_XREF_EXT_ID>
SCHEMBL16111154

> <PUBCHEM_EXT_DATASOURCE_URL>
https://www.surechembl.org/

> <PUBCHEM_EXT_SUBSTANCE_URL>
https://www.surechembl.org/chemical/SCHEMBL16111154

> <PUBCHEM_CID_ASSOCIATIONS>
117602083  1

> <PUBCHEM_COORDINATE_TYPE>
1
3

$$$$
