310939624
  -OEChem-07211613022D

 31 34  0     1  0  0  0  0  0999 V2000
    0.3020    3.0938    0.0000 Cl  0  0  0  0  0  0  0  0  0  0  0  0
   -1.1270    0.6187    0.0000 O   0  0  0  0  0  0  0  0  0  0  0  0
    4.5888   -2.6812    0.0000 O   0  0  0  0  0  0  0  0  0  0  0  0
   -2.5559   -0.2062    0.0000 O   0  0  0  0  0  0  0  0  0  0  0  0
    2.4454    1.0313    0.0000 N   0  0  0  0  0  0  0  0  0  0  0  0
    1.7309   -0.2062    0.0000 N   0  0  0  0  0  0  0  0  0  0  0  0
    2.4454   -1.4437    0.0000 N   0  0  0  0  0  0  0  0  0  0  0  0
   -3.9849    0.6187    0.0000 N   0  0  0  0  0  0  0  0  0  0  0  0
    3.1599    0.6187    0.0000 C   0  0  0  0  0  0  0  0  0  0  0  0
    1.7309    0.6187    0.0000 C   0  0  0  0  0  0  0  0  0  0  0  0
    2.4454   -0.6187    0.0000 C   0  0  0  0  0  0  0  0  0  0  0  0
    3.8743    1.0313    0.0000 C   0  0  0  0  0  0  0  0  0  0  0  0
    1.0164    1.0313    0.0000 C   0  0  0  0  0  0  0  0  0  0  0  0
    3.1599   -0.2062    0.0000 C   0  0  0  0  0  0  0  0  0  0  0  0
    4.6993    1.0313    0.0000 C   0  0  0  0  0  0  0  0  0  0  0  0
    4.2868    1.7457    0.0000 C   0  0  0  0  0  0  0  0  0  0  0  0
    0.3020    0.6187    0.0000 C   0  0  0  0  0  0  0  0  0  0  0  0
    1.0164    1.8563    0.0000 C   0  0  0  0  0  0  0  0  0  0  0  0
    3.1599   -1.8563    0.0000 C   0  0  0  0  0  0  0  0  0  0  0  0
   -0.4125    1.0313    0.0000 C   0  0  0  0  0  0  0  0  0  0  0  0
    0.3020    2.2687    0.0000 C   0  0  0  0  0  0  0  0  0  0  0  0
   -0.4125    1.8563    0.0000 C   0  0  0  0  0  0  0  0  0  0  0  0
    1.7309   -1.8563    0.0000 C   0  0  0  0  0  0  0  0  0  0  0  0
    3.1599   -2.6812    0.0000 C   0  0  0  0  0  0  0  0  0  0  0  0
    3.8743   -1.4437    0.0000 C   0  0  0  0  0  0  0  0  0  0  0  0
    3.8743   -3.0938    0.0000 C   0  0  0  0  0  0  0  0  0  0  0  0
    4.5888   -1.8563    0.0000 C   0  0  0  0  0  0  0  0  0  0  0  0
   -1.8414    1.0313    0.0000 C   0  0  0  0  0  0  0  0  0  0  0  0
   -2.5559    0.6187    0.0000 C   0  0  3  0  0  0  0  0  0  0  0  0
   -3.2704    1.0313    0.0000 C   0  0  0  0  0  0  0  0  0  0  0  0
   -4.6993    1.0313    0.0000 C   0  0  0  0  0  0  0  0  0  0  0  0
  1 21  1  0  0  0  0
  2 20  1  0  0  0  0
  2 28  1  0  0  0  0
  3 26  1  0  0  0  0
  3 27  1  0  0  0  0
  4 29  1  0  0  0  0
  5  9  1  0  0  0  0
  5 10  2  0  0  0  0
  6 10  1  0  0  0  0
  6 11  2  0  0  0  0
  7 11  1  0  0  0  0
  7 19  1  0  0  0  0
  7 23  1  0  0  0  0
  8 30  1  0  0  0  0
  8 31  1  0  0  0  0
  9 12  1  0  0  0  0
  9 14  2  0  0  0  0
 10 13  1  0  0  0  0
 11 14  1  0  0  0  0
 12 15  1  0  0  0  0
 12 16  1  0  0  0  0
 13 17  2  0  0  0  0
 13 18  1  0  0  0  0
 15 16  1  0  0  0  0
 17 20  1  0  0  0  0
 18 21  2  0  0  0  0
 19 24  1  0  0  0  0
 19 25  1  0  0  0  0
 20 22  2  0  0  0  0
 21 22  1  0  0  0  0
 24 26  1  0  0  0  0
 25 27  1  0  0  0  0
 28 29  1  0  0  0  0
 29 30  1  0  0  0  0
M  END
> <PUBCHEM_COMPOUND_ID_TYPE>
0

> <PUBCHEM_TOTAL_CHARGE>
0

> <PUBCHEM_SUBSTANCE_ID>
310939624

> <PUBCHEM_SUBSTANCE_VERSION>
1

> <PUBCHEM_EXT_DATASOURCE_NAME>
4488

> <PUBCHEM_EXT_DATASOURCE_REGID>
SCHEMBL16117554

> <PUBCHEM_SUBSTANCE_COMMENT>
InChI=1S/C23H31ClN4O3/c1-25-13-19(29)14-31-20-10-16(9-17(24)11-20)23-26-21(15-3-4-15)12-22(27-23)28(2)18-5-7-30-8-6-18/h9-12,15,18-19,25,29H,3-8,13-14H2,1-2H3
InChIKey=HOLHMSDJGPEUTA-UHFFFAOYSA-N

> <PUBCHEM_SUBSTANCE_SYNONYM>
SCHEMBL16117554

> <PUBCHEM_XREF_EXT_ID>
SCHEMBL16117554

> <PUBCHEM_EXT_DATASOURCE_URL>
https://www.surechembl.org/

> <PUBCHEM_EXT_SUBSTANCE_URL>
https://www.surechembl.org/chemical/SCHEMBL16117554

> <PUBCHEM_CID_ASSOCIATIONS>
85472023  1

> <PUBCHEM_COORDINATE_TYPE>
1
3

$$$$
