310946060
  -OEChem-07211613022D

 36 39  0     1  0  0  0  0  0999 V2000
    3.9158    0.6675    0.0000 O   0  0  0  0  0  0  0  0  0  0  0  0
    2.7872   -1.2869    0.0000 O   0  0  0  0  0  0  0  0  0  0  0  0
    0.6400    0.7777    0.0000 O   0  0  0  0  0  0  0  0  0  0  0  0
   -1.5071   -1.2869    0.0000 O   0  0  0  0  0  0  0  0  0  0  0  0
    2.7872   -2.9248    0.0000 O   0  0  0  0  0  0  0  0  0  0  0  0
    1.3557   -0.4473    0.0000 N   0  0  0  0  0  0  0  0  0  0  0  0
   -0.7914   -0.0344    0.0000 N   0  0  0  0  0  0  0  0  0  0  0  0
   -2.9385   -0.4473    0.0000 N   0  0  3  0  0  0  0  0  0  0  0  0
   -3.6955   -0.1170    0.0000 N   0  0  0  0  0  0  0  0  0  0  0  0
   -4.2461   -0.7226    0.0000 N   0  0  0  0  0  0  0  0  0  0  0  0
    3.5029   -0.0069    0.0000 C   0  0  3  0  0  0  0  0  0  0  0  0
    2.8009   -0.4061    0.0000 C   0  0  0  0  0  0  0  0  0  0  0  0
    3.1175    0.6813    0.0000 C   0  0  0  0  0  0  0  0  0  0  0  0
    2.0715   -0.0207    0.0000 C   0  0  3  0  0  0  0  0  0  0  0  0
    4.2461   -0.4336    0.0000 C   0  0  0  0  0  0  0  0  0  0  0  0
    2.0715    1.2869    0.0000 C   0  0  0  0  0  0  0  0  0  0  0  0
    0.6400   -0.0344    0.0000 C   0  0  0  0  0  0  0  0  0  0  0  0
   -0.0620   -0.4198    0.0000 C   0  0  3  0  0  0  0  0  0  0  0  0
    1.3419    1.7135    0.0000 C   0  0  0  0  0  0  0  0  0  0  0  0
   -0.0757   -1.2594    0.0000 C   0  0  0  0  0  0  0  0  0  0  0  0
    0.6537   -1.6585    0.0000 C   0  0  0  0  0  0  0  0  0  0  0  0
   -1.4934   -0.4061    0.0000 C   0  0  0  0  0  0  0  0  0  0  0  0
    1.3557    2.5256    0.0000 C   0  0  0  0  0  0  0  0  0  0  0  0
    0.6537    1.3006    0.0000 C   0  0  0  0  0  0  0  0  0  0  0  0
   -2.2228   -0.0207    0.0000 C   0  0  0  0  0  0  0  0  0  0  0  0
    0.6537   -2.4844    0.0000 C   0  0  0  0  0  0  0  0  0  0  0  0
    1.3419   -1.2731    0.0000 C   0  0  0  0  0  0  0  0  0  0  0  0
    2.0576   -2.4844    0.0000 C   0  0  0  0  0  0  0  0  0  0  0  0
    0.6262    2.9248    0.0000 C   0  0  0  0  0  0  0  0  0  0  0  0
   -0.0620    1.7135    0.0000 C   0  0  0  0  0  0  0  0  0  0  0  0
    1.3694   -2.8972    0.0000 C   0  0  0  0  0  0  0  0  0  0  0  0
    2.0715   -1.6722    0.0000 C   0  0  0  0  0  0  0  0  0  0  0  0
   -0.0620    2.5256    0.0000 C   0  0  0  0  0  0  0  0  0  0  0  0
   -3.0348   -1.2594    0.0000 C   0  0  0  0  0  0  0  0  0  0  0  0
   -3.8194   -1.4246    0.0000 C   0  0  0  0  0  0  0  0  0  0  0  0
    3.5304   -2.4844    0.0000 C   0  0  0  0  0  0  0  0  0  0  0  0
  1 11  1  0  0  0  0
  1 13  1  0  0  0  0
  2 12  2  0  0  0  0
  3 17  2  0  0  0  0
  4 22  2  0  0  0  0
  5 28  1  0  0  0  0
  5 36  1  0  0  0  0
  6 14  1  0  0  0  0
  6 17  1  0  0  0  0
  7 18  1  0  0  0  0
  7 22  1  0  0  0  0
  8  9  1  0  0  0  0
  8 25  1  0  0  0  0
  8 34  1  0  0  0  0
  9 10  1  0  0  0  0
 10 35  1  0  0  0  0
 11 12  1  0  0  0  0
 11 13  1  0  0  0  0
 11 15  1  0  0  0  0
 12 14  1  0  0  0  0
 14 16  1  0  0  0  0
 16 19  1  0  0  0  0
 17 18  1  0  0  0  0
 18 20  1  0  0  0  0
 19 23  2  0  0  0  0
 19 24  1  0  0  0  0
 20 21  1  0  0  0  0
 21 26  2  0  0  0  0
 21 27  1  0  0  0  0
 22 25  1  0  0  0  0
 23 29  1  0  0  0  0
 24 30  2  0  0  0  0
 26 31  1  0  0  0  0
 27 32  2  0  0  0  0
 28 31  2  0  0  0  0
 28 32  1  0  0  0  0
 29 33  2  0  0  0  0
 30 33  1  0  0  0  0
 34 35  2  0  0  0  0
M  END
> <PUBCHEM_COMPOUND_ID_TYPE>
0

> <PUBCHEM_TOTAL_CHARGE>
0

> <PUBCHEM_SUBSTANCE_ID>
310946060

> <PUBCHEM_SUBSTANCE_VERSION>
1

> <PUBCHEM_EXT_DATASOURCE_NAME>
4488

> <PUBCHEM_EXT_DATASOURCE_REGID>
SCHEMBL16124166

> <PUBCHEM_SUBSTANCE_COMMENT>
InChI=1S/C26H31N5O5/c1-26(17-36-26)24(33)21(14-18-6-4-3-5-7-18)29-25(34)22(15-19-8-10-20(35-2)11-9-19)28-23(32)16-31-13-12-27-30-31/h3-13,21-22,27,30H,14-17H2,1-2H3,(H,28,32)(H,29,34)
InChIKey=HQOGAFHNOAJWBI-UHFFFAOYSA-N

> <PUBCHEM_SUBSTANCE_SYNONYM>
SCHEMBL16124166

> <PUBCHEM_XREF_EXT_ID>
SCHEMBL16124166

> <PUBCHEM_EXT_DATASOURCE_URL>
https://www.surechembl.org/

> <PUBCHEM_EXT_SUBSTANCE_URL>
https://www.surechembl.org/chemical/SCHEMBL16124166

> <PUBCHEM_CID_ASSOCIATIONS>
117612031  1

> <PUBCHEM_COORDINATE_TYPE>
1
3

$$$$
