310941406
  -OEChem-07211613022D

 42 46  0     1  0  0  0  0  0999 V2000
    5.1615   -0.9946    0.0000 O   0  0  0  0  0  0  0  0  0  0  0  0
    4.0290    0.9510    0.0000 O   0  0  0  0  0  0  0  0  0  0  0  0
    1.6624   -0.9801    0.0000 O   0  0  0  0  0  0  0  0  0  0  0  0
   -0.4864    1.0817    0.0000 O   0  0  0  0  0  0  0  0  0  0  0  0
    3.8113    2.7368    0.0000 O   0  0  0  0  0  0  0  0  0  0  0  0
   -2.6352   -0.9801    0.0000 O   0  0  0  0  0  0  0  0  0  0  0  0
   -5.4954   -0.9801    0.0000 O   0  0  0  0  0  0  0  0  0  0  0  0
    2.3884    0.2541    0.0000 N   0  0  0  0  0  0  0  0  0  0  0  0
    0.2395   -0.1670    0.0000 N   0  0  0  0  0  0  0  0  0  0  0  0
   -1.9093    0.2541    0.0000 N   0  0  0  0  0  0  0  0  0  0  0  0
   -4.0580   -0.1670    0.0000 N   0  0  0  0  0  0  0  0  0  0  0  0
    4.7550   -0.2686    0.0000 C   0  0  3  0  0  0  0  0  0  0  0  0
    4.0290    0.1379    0.0000 C   0  0  0  0  0  0  0  0  0  0  0  0
    3.3466   -0.2541    0.0000 C   0  0  3  0  0  0  0  0  0  0  0  0
    1.3285   -2.0254    0.0000 C   0  0  3  0  0  0  0  0  0  0  0  0
    1.7060   -2.7223    0.0000 C   0  0  3  0  0  0  0  0  0  0  0  0
    4.3629   -0.9655    0.0000 C   0  0  0  0  0  0  0  0  0  0  0  0
    2.6062   -1.7350    0.0000 C   0  0  0  0  0  0  0  0  0  0  0  0
    0.9074   -2.7368    0.0000 C   0  0  0  0  0  0  0  0  0  0  0  0
    3.3321   -1.3285    0.0000 C   0  0  0  0  0  0  0  0  0  0  0  0
    1.8657   -1.4156    0.0000 C   0  0  0  0  0  0  0  0  0  0  0  0
    2.5191   -2.5626    0.0000 C   0  0  0  0  0  0  0  0  0  0  0  0
    5.4954    0.1379    0.0000 C   0  0  0  0  0  0  0  0  0  0  0  0
    1.6770   -0.1089    0.0000 C   0  0  0  0  0  0  0  0  0  0  0  0
    0.9655    0.2831    0.0000 C   0  0  3  0  0  0  0  0  0  0  0  0
    0.9801    1.1107    0.0000 C   0  0  0  0  0  0  0  0  0  0  0  0
    1.6770    1.5172    0.0000 C   0  0  0  0  0  0  0  0  0  0  0  0
   -0.4864    0.2541    0.0000 C   0  0  0  0  0  0  0  0  0  0  0  0
   -1.1833   -0.1234    0.0000 C   0  0  3  0  0  0  0  0  0  0  0  0
    2.4029    1.1107    0.0000 C   0  0  0  0  0  0  0  0  0  0  0  0
    1.6915    2.3448    0.0000 C   0  0  0  0  0  0  0  0  0  0  0  0
    3.1143    2.3448    0.0000 C   0  0  0  0  0  0  0  0  0  0  0  0
    3.1143    1.5172    0.0000 C   0  0  0  0  0  0  0  0  0  0  0  0
    2.3884    2.7368    0.0000 C   0  0  0  0  0  0  0  0  0  0  0  0
   -2.6207   -0.1089    0.0000 C   0  0  0  0  0  0  0  0  0  0  0  0
   -1.1833   -0.9655    0.0000 C   0  0  0  0  0  0  0  0  0  0  0  0
   -3.3466    0.2686    0.0000 C   0  0  0  0  0  0  0  0  0  0  0  0
   -4.0580   -0.9510    0.0000 C   0  0  0  0  0  0  0  0  0  0  0  0
   -4.7985    0.2686    0.0000 C   0  0  0  0  0  0  0  0  0  0  0  0
   -4.7405   -1.3575    0.0000 C   0  0  0  0  0  0  0  0  0  0  0  0
   -5.4664   -0.1234    0.0000 C   0  0  0  0  0  0  0  0  0  0  0  0
    4.5662    2.3303    0.0000 C   0  0  0  0  0  0  0  0  0  0  0  0
  1 12  1  0  0  0  0
  1 17  1  0  0  0  0
  2 13  2  0  0  0  0
  3 24  2  0  0  0  0
  4 28  2  0  0  0  0
  5 32  1  0  0  0  0
  5 42  1  0  0  0  0
  6 35  2  0  0  0  0
  7 40  1  0  0  0  0
  7 41  1  0  0  0  0
  8 14  1  0  0  0  0
  8 24  1  0  0  0  0
  9 25  1  0  0  0  0
  9 28  1  0  0  0  0
 10 29  1  0  0  0  0
 10 35  1  0  0  0  0
 11 37  1  0  0  0  0
 11 38  1  0  0  0  0
 11 39  1  0  0  0  0
 12 13  1  0  0  0  0
 12 17  1  0  0  0  0
 12 23  1  0  0  0  0
 13 14  1  0  0  0  0
 14 20  1  0  0  0  0
 15 16  1  0  0  0  0
 15 19  1  0  0  0  0
 15 21  1  0  0  0  0
 16 19  1  0  0  0  0
 16 22  1  0  0  0  0
 18 20  1  0  0  0  0
 18 21  1  0  0  0  0
 18 22  1  0  0  0  0
 24 25  1  0  0  0  0
 25 26  1  0  0  0  0
 26 27  1  0  0  0  0
 27 30  2  0  0  0  0
 27 31  1  0  0  0  0
 28 29  1  0  0  0  0
 29 36  1  0  0  0  0
 30 33  1  0  0  0  0
 31 34  2  0  0  0  0
 32 33  2  0  0  0  0
 32 34  1  0  0  0  0
 35 37  1  0  0  0  0
 38 40  1  0  0  0  0
 39 41  1  0  0  0  0
M  END
> <PUBCHEM_COMPOUND_ID_TYPE>
0

> <PUBCHEM_TOTAL_CHARGE>
0

> <PUBCHEM_SUBSTANCE_ID>
310941406

> <PUBCHEM_SUBSTANCE_VERSION>
1

> <PUBCHEM_EXT_DATASOURCE_NAME>
4488

> <PUBCHEM_EXT_DATASOURCE_REGID>
SCHEMBL16119366

> <PUBCHEM_SUBSTANCE_COMMENT>
InChI=1S/C31H44N4O7/c1-19(32-27(36)17-35-8-10-41-11-9-35)29(38)34-26(14-20-4-6-24(40-3)7-5-20)30(39)33-25(28(37)31(2)18-42-31)15-21-12-22-16-23(22)13-21/h4-7,19,21-23,25-26H,8-18H2,1-3H3,(H,32,36)(H,33,39)(H,34,38)
InChIKey=DENUQWMZZWLATQ-UHFFFAOYSA-N

> <PUBCHEM_SUBSTANCE_SYNONYM>
SCHEMBL16119366

> <PUBCHEM_XREF_EXT_ID>
SCHEMBL16119366

> <PUBCHEM_EXT_DATASOURCE_URL>
https://www.surechembl.org/

> <PUBCHEM_EXT_SUBSTANCE_URL>
https://www.surechembl.org/chemical/SCHEMBL16119366

> <PUBCHEM_CID_ASSOCIATIONS>
86295705  1

> <PUBCHEM_COORDINATE_TYPE>
1
3

$$$$
