310936153
  -OEChem-07211613022D

 31 33  0     1  0  0  0  0  0999 V2000
    2.7845    3.1729    0.0000 O   0  0  0  0  0  0  0  0  0  0  0  0
    1.8859    5.4549    0.0000 O   0  0  0  0  0  0  0  0  0  0  0  0
    3.4990    1.1104    0.0000 O   0  0  0  0  0  0  0  0  0  0  0  0
    4.2135    2.3479    0.0000 O   0  0  0  0  0  0  0  0  0  0  0  0
    0.6411    1.9354    0.0000 N   0  0  0  0  0  0  0  0  0  0  0  0
    1.3556    3.1729    0.0000 N   0  0  0  0  0  0  0  0  0  0  0  0
    1.3556    0.6979    0.0000 N   0  0  0  0  0  0  0  0  0  0  0  0
   -0.1435    2.1904    0.0000 N   0  0  0  0  0  0  0  0  0  0  0  0
   -1.4534    1.5229    0.0000 N   0  0  0  0  0  0  0  0  0  0  0  0
    1.3556    2.3479    0.0000 C   0  0  0  0  0  0  0  0  0  0  0  0
    2.0701    1.9354    0.0000 C   0  0  0  0  0  0  0  0  0  0  0  0
    0.6411    1.1104    0.0000 C   0  0  0  0  0  0  0  0  0  0  0  0
    2.0701    1.1104    0.0000 C   0  0  0  0  0  0  0  0  0  0  0  0
    2.7845    2.3479    0.0000 C   0  0  3  0  0  0  0  0  0  0  0  0
   -0.1435    0.8555    0.0000 C   0  0  0  0  0  0  0  0  0  0  0  0
   -0.6284    1.5229    0.0000 C   0  0  0  0  0  0  0  0  0  0  0  0
    0.6411    3.5854    0.0000 C   0  0  0  0  0  0  0  0  0  0  0  0
    2.0701    3.5854    0.0000 C   0  0  0  0  0  0  0  0  0  0  0  0
    3.4990    1.9354    0.0000 C   0  0  0  0  0  0  0  0  0  0  0  0
    1.3556    4.8229    0.0000 C   0  0  0  0  0  0  0  0  0  0  0  0
    0.6411    4.4104    0.0000 C   0  0  0  0  0  0  0  0  0  0  0  0
    2.0701    4.4104    0.0000 C   0  0  0  0  0  0  0  0  0  0  0  0
    2.7845    0.6979    0.0000 C   0  0  0  0  0  0  0  0  0  0  0  0
    3.4990    3.5854    0.0000 C   0  0  0  0  0  0  0  0  0  0  0  0
    0.8253    5.4549    0.0000 C   0  0  0  0  0  0  0  0  0  0  0  0
    4.2135    3.9979    0.0000 C   0  0  0  0  0  0  0  0  0  0  0  0
    3.9115    2.8710    0.0000 C   0  0  0  0  0  0  0  0  0  0  0  0
    3.0865    4.2999    0.0000 C   0  0  0  0  0  0  0  0  0  0  0  0
    1.6037    6.2302    0.0000 C   0  0  0  0  0  0  0  0  0  0  0  0
    2.1340    6.8622    0.0000 C   0  0  0  0  0  0  0  0  0  0  0  0
    1.8519    7.6374    0.0000 C   0  0  0  0  0  0  0  0  0  0  0  0
  1 14  1  0  0  0  0
  1 24  1  0  0  0  0
  2 20  1  0  0  0  0
  2 29  1  0  0  0  0
  3 19  2  0  0  0  0
  4 19  1  0  0  0  0
  5  8  1  0  0  0  0
  5 10  1  0  0  0  0
  5 12  1  0  0  0  0
  6 10  1  0  0  0  0
  6 17  1  0  0  0  0
  6 18  1  0  0  0  0
  7 12  1  0  0  0  0
  7 13  2  0  0  0  0
  8 16  2  0  0  0  0
  9 16  1  0  0  0  0
 10 11  2  0  0  0  0
 11 13  1  0  0  0  0
 11 14  1  0  0  0  0
 12 15  2  0  0  0  0
 13 23  1  0  0  0  0
 14 19  1  0  0  0  0
 15 16  1  0  0  0  0
 17 21  1  0  0  0  0
 18 22  1  0  0  0  0
 20 21  1  0  0  0  0
 20 22  1  0  0  0  0
 20 25  1  0  0  0  0
 24 26  1  0  0  0  0
 24 27  1  0  0  0  0
 24 28  1  0  0  0  0
 29 30  1  0  0  0  0
 30 31  2  0  0  0  0
M  END
> <PUBCHEM_COMPOUND_ID_TYPE>
0

> <PUBCHEM_TOTAL_CHARGE>
0

> <PUBCHEM_SUBSTANCE_ID>
310936153

> <PUBCHEM_SUBSTANCE_VERSION>
1

> <PUBCHEM_EXT_DATASOURCE_NAME>
4488

> <PUBCHEM_EXT_DATASOURCE_REGID>
SCHEMBL16113763

> <PUBCHEM_SUBSTANCE_COMMENT>
InChI=1S/C22H33N5O4/c1-7-12-30-22(6)8-10-26(11-9-22)19-17(18(20(28)29)31-21(3,4)5)14(2)24-16-13-15(23)25-27(16)19/h7,13,18H,1,8-12H2,2-6H3,(H2,23,25)(H,28,29)
InChIKey=BSXJDMJYFQCEDX-UHFFFAOYSA-N

> <PUBCHEM_SUBSTANCE_SYNONYM>
SCHEMBL16113763

> <PUBCHEM_XREF_EXT_ID>
SCHEMBL16113763

> <PUBCHEM_EXT_DATASOURCE_URL>
https://www.surechembl.org/

> <PUBCHEM_EXT_SUBSTANCE_URL>
https://www.surechembl.org/chemical/SCHEMBL16113763

> <PUBCHEM_CID_ASSOCIATIONS>
117604115  1

> <PUBCHEM_COORDINATE_TYPE>
1
3

$$$$
