310931982
  -OEChem-07211613022D

 19 21  0     1  0  0  0  0  0999 V2000
    4.2775   -1.6373    0.0000 Br  0  0  0  0  0  0  0  0  0  0  0  0
    0.0000    0.0000    0.0000 O   0  0  0  0  0  0  0  0  0  0  0  0
    0.7163   -1.2280    0.0000 N   0  0  0  0  0  0  0  0  0  0  0  0
    1.4326    0.0000    0.0000 N   0  0  0  0  0  0  0  0  0  0  0  0
    2.1490   -2.8653    0.0000 N   0  0  0  0  0  0  0  0  0  0  0  0
    1.4326   -1.6373    0.0000 C   0  0  3  0  0  0  0  0  0  0  0  0
    2.1694   -1.2280    0.0000 C   0  0  0  0  0  0  0  0  0  0  0  0
    2.1694   -0.4093    0.0000 C   0  0  0  0  0  0  0  0  0  0  0  0
    1.4326   -2.4559    0.0000 C   0  0  0  0  0  0  0  0  0  0  0  0
    0.7163   -0.4093    0.0000 C   0  0  0  0  0  0  0  0  0  0  0  0
    2.8448   -1.6373    0.0000 C   0  0  0  0  0  0  0  0  0  0  0  0
    2.8448    0.0000    0.0000 C   0  0  0  0  0  0  0  0  0  0  0  0
    3.5611   -1.2280    0.0000 C   0  0  0  0  0  0  0  0  0  0  0  0
    3.5611   -0.4093    0.0000 C   0  0  0  0  0  0  0  0  0  0  0  0
    0.7163   -2.8653    0.0000 C   0  0  0  0  0  0  0  0  0  0  0  0
    0.0000   -1.6373    0.0000 C   0  0  0  0  0  0  0  0  0  0  0  0
    2.1694   -3.6839    0.0000 C   0  0  0  0  0  0  0  0  0  0  0  0
    0.7368   -3.7044    0.0000 C   0  0  0  0  0  0  0  0  0  0  0  0
    1.4531   -4.0933    0.0000 C   0  0  0  0  0  0  0  0  0  0  0  0
  1 13  1  0  0  0  0
  2 10  2  0  0  0  0
  3  6  1  0  0  0  0
  3 10  1  0  0  0  0
  3 16  1  0  0  0  0
  4  8  1  0  0  0  0
  4 10  1  0  0  0  0
  5  9  1  0  0  0  0
  5 17  2  0  0  0  0
  6  7  1  0  0  0  0
  6  9  1  0  0  0  0
  7  8  2  0  0  0  0
  7 11  1  0  0  0  0
  8 12  1  0  0  0  0
  9 15  2  0  0  0  0
 11 13  2  0  0  0  0
 12 14  2  0  0  0  0
 13 14  1  0  0  0  0
 15 18  1  0  0  0  0
 17 19  1  0  0  0  0
 18 19  2  0  0  0  0
M  END
> <PUBCHEM_COMPOUND_ID_TYPE>
0

> <PUBCHEM_TOTAL_CHARGE>
0

> <PUBCHEM_SUBSTANCE_ID>
310931982

> <PUBCHEM_SUBSTANCE_VERSION>
1

> <PUBCHEM_EXT_DATASOURCE_NAME>
4488

> <PUBCHEM_EXT_DATASOURCE_REGID>
SCHEMBL16109322

> <PUBCHEM_SUBSTANCE_COMMENT>
InChI=1S/C14H12BrN3O/c1-18-13(12-4-2-3-7-16-12)10-8-9(15)5-6-11(10)17-14(18)19/h2-8,13H,1H3,(H,17,19)
InChIKey=QGLWNBMDYUVDCN-UHFFFAOYSA-N

> <PUBCHEM_SUBSTANCE_SYNONYM>
SCHEMBL16109322

> <PUBCHEM_XREF_EXT_ID>
SCHEMBL16109322

> <PUBCHEM_EXT_DATASOURCE_URL>
https://www.surechembl.org/

> <PUBCHEM_EXT_SUBSTANCE_URL>
https://www.surechembl.org/chemical/SCHEMBL16109322

> <PUBCHEM_CID_ASSOCIATIONS>
117600626  1

> <PUBCHEM_COORDINATE_TYPE>
1
3

$$$$
