310944660
  -OEChem-07211613022D

 34 36  0     1  0  0  0  0  0999 V2000
   -2.9363   -0.8531    0.0000 Cl  0  0  0  0  0  0  0  0  0  0  0  0
   -2.0461    2.0276    0.0000 Cl  0  0  0  0  0  0  0  0  0  0  0  0
   -5.0751    0.3833    0.0000 Cl  0  0  0  0  0  0  0  0  0  0  0  0
    0.0803   -0.8531    0.0000 O   0  0  0  0  0  0  0  0  0  0  0  0
    1.5021    1.6196    0.0000 O   0  0  0  0  0  0  0  0  0  0  0  0
    2.2192    2.0399    0.0000 O   0  0  0  0  0  0  0  0  0  0  0  0
    5.0751   -0.4327    0.0000 O   0  0  0  0  0  0  0  0  0  0  0  0
    2.2439    0.3833    0.0000 N   0  0  0  0  0  0  0  0  0  0  0  0
    3.6657   -0.4327    0.0000 N   0  0  0  0  0  0  0  0  0  0  0  0
    0.0927    0.8036    0.0000 N   0  0  0  0  0  0  0  0  0  0  0  0
    3.7894    2.0399    0.0000 N   0  0  0  0  0  0  0  0  0  0  0  0
   -2.0461    0.3956    0.0000 C   0  0  0  0  0  0  0  0  0  0  0  0
   -2.7755    0.8036    0.0000 C   0  0  0  0  0  0  0  0  0  0  0  0
   -0.6243    0.3956    0.0000 C   0  0  0  0  0  0  0  0  0  0  0  0
   -2.0461   -0.4327    0.0000 C   0  0  0  0  0  0  0  0  0  0  0  0
   -0.6243   -0.4327    0.0000 C   0  0  0  0  0  0  0  0  0  0  0  0
   -1.3414    0.7912    0.0000 C   0  0  0  0  0  0  0  0  0  0  0  0
    2.9363    0.8036    0.0000 C   0  0  3  0  0  0  0  0  0  0  0  0
   -1.3290   -0.8407    0.0000 C   0  0  0  0  0  0  0  0  0  0  0  0
   -2.7632    1.6320    0.0000 C   0  0  0  0  0  0  0  0  0  0  0  0
    1.5145    0.7912    0.0000 C   0  0  0  0  0  0  0  0  0  0  0  0
   -3.4679    0.3956    0.0000 C   0  0  0  0  0  0  0  0  0  0  0  0
    3.6657    0.3833    0.0000 C   0  0  0  0  0  0  0  0  0  0  0  0
    2.2315   -0.4327    0.0000 C   0  0  0  0  0  0  0  0  0  0  0  0
    0.8222    0.3956    0.0000 C   0  0  0  0  0  0  0  0  0  0  0  0
    2.9610    1.6196    0.0000 C   0  0  0  0  0  0  0  0  0  0  0  0
    2.9610   -0.8407    0.0000 C   0  0  0  0  0  0  0  0  0  0  0  0
   -4.1973    0.8036    0.0000 C   0  0  0  0  0  0  0  0  0  0  0  0
   -3.4679    2.0276    0.0000 C   0  0  0  0  0  0  0  0  0  0  0  0
    4.3581   -0.8531    0.0000 C   0  0  0  0  0  0  0  0  0  0  0  0
   -4.1850    1.6196    0.0000 C   0  0  0  0  0  0  0  0  0  0  0  0
    4.3704   -1.6814    0.0000 C   0  0  0  0  0  0  0  0  0  0  0  0
    0.7974   -0.4327    0.0000 C   0  0  0  0  0  0  0  0  0  0  0  0
    3.6410   -2.0399    0.0000 C   0  0  0  0  0  0  0  0  0  0  0  0
  1 15  1  0  0  0  0
  2 20  1  0  0  0  0
  3 28  1  0  0  0  0
  4 16  1  0  0  0  0
  4 33  1  0  0  0  0
  5 21  2  0  0  0  0
  6 26  2  0  0  0  0
  7 30  2  0  0  0  0
  8 18  1  0  0  0  0
  8 21  1  0  0  0  0
  8 24  1  0  0  0  0
  9 23  1  0  0  0  0
  9 27  1  0  0  0  0
  9 30  1  0  0  0  0
 10 14  1  0  0  0  0
 10 25  1  0  0  0  0
 11 26  1  0  0  0  0
 12 13  1  0  0  0  0
 12 15  2  0  0  0  0
 12 17  1  0  0  0  0
 13 20  1  0  0  0  0
 13 22  2  0  0  0  0
 14 16  1  0  0  0  0
 14 17  2  0  0  0  0
 15 19  1  0  0  0  0
 16 19  2  0  0  0  0
 18 23  1  0  0  0  0
 18 26  1  0  0  0  0
 20 29  2  0  0  0  0
 21 25  1  0  0  0  0
 22 28  1  0  0  0  0
 24 27  1  0  0  0  0
 28 31  2  0  0  0  0
 29 31  1  0  0  0  0
 30 32  1  0  0  0  0
 32 34  2  0  0  0  0
M  END
> <PUBCHEM_COMPOUND_ID_TYPE>
0

> <PUBCHEM_TOTAL_CHARGE>
0

> <PUBCHEM_SUBSTANCE_ID>
310944660

> <PUBCHEM_SUBSTANCE_VERSION>
1

> <PUBCHEM_EXT_DATASOURCE_NAME>
4488

> <PUBCHEM_EXT_DATASOURCE_REGID>
SCHEMBL16122738

> <PUBCHEM_SUBSTANCE_COMMENT>
InChI=1S/C23H23Cl3N4O4/c1-3-21(31)29-6-7-30(19(12-29)23(27)33)22(32)11-28-18-9-15(17(26)10-20(18)34-2)14-8-13(24)4-5-16(14)25/h3-5,8-10,19,28H,1,6-7,11-12H2,2H3,(H2,27,33)
InChIKey=HMDRTSQPGMQZMG-UHFFFAOYSA-N

> <PUBCHEM_SUBSTANCE_SYNONYM>
SCHEMBL16122738

> <PUBCHEM_XREF_EXT_ID>
SCHEMBL16122738

> <PUBCHEM_EXT_DATASOURCE_URL>
https://www.surechembl.org/

> <PUBCHEM_EXT_SUBSTANCE_URL>
https://www.surechembl.org/chemical/SCHEMBL16122738

> <PUBCHEM_CID_ASSOCIATIONS>
117610890  1

> <PUBCHEM_COORDINATE_TYPE>
1
3

$$$$
