310947007
  -OEChem-07211613022D

 34 37  0     1  0  0  0  0  0999 V2000
   -3.0358   -3.5099    0.0000 F   0  0  0  0  0  0  0  0  0  0  0  0
   -4.4647   -4.3349    0.0000 O   0  0  0  0  0  0  0  0  0  0  0  0
   -3.0358   -6.8099    0.0000 O   0  0  0  0  0  0  0  0  0  0  0  0
    1.2511   -3.5099    0.0000 O   0  0  0  0  0  0  0  0  0  0  0  0
    1.2511   -1.8599    0.0000 O   0  0  0  0  0  0  0  0  0  0  0  0
   -0.1779   -4.3349    0.0000 N   0  0  0  0  0  0  0  0  0  0  0  0
    1.2511   -4.3349    0.0000 N   0  0  0  0  0  0  0  0  0  0  0  0
   -1.6068   -4.3349    0.0000 N   0  0  0  0  0  0  0  0  0  0  0  0
    1.2511   -5.9849    0.0000 N   0  0  0  0  0  0  0  0  0  0  0  0
    3.4646   -3.2550    0.0000 N   0  0  0  0  0  0  0  0  0  0  0  0
    3.9496   -3.9224    0.0000 N   0  0  0  0  0  0  0  0  0  0  0  0
    0.5366   -4.7474    0.0000 C   0  0  0  0  0  0  0  0  0  0  0  0
   -0.8923   -4.7474    0.0000 C   0  0  0  0  0  0  0  0  0  0  0  0
    0.5366   -5.5724    0.0000 C   0  0  0  0  0  0  0  0  0  0  0  0
    1.9655   -4.7474    0.0000 C   0  0  0  0  0  0  0  0  0  0  0  0
   -2.3213   -4.7474    0.0000 C   0  0  0  0  0  0  0  0  0  0  0  0
   -0.8923   -5.5724    0.0000 C   0  0  0  0  0  0  0  0  0  0  0  0
   -0.1779   -5.9849    0.0000 C   0  0  0  0  0  0  0  0  0  0  0  0
    2.6800   -4.3349    0.0000 C   0  0  0  0  0  0  0  0  0  0  0  0
   -0.1779   -3.5099    0.0000 C   0  0  0  0  0  0  0  0  0  0  0  0
   -3.0358   -4.3349    0.0000 C   0  0  0  0  0  0  0  0  0  0  0  0
    1.9655   -5.5724    0.0000 C   0  0  0  0  0  0  0  0  0  0  0  0
   -3.7502   -4.7474    0.0000 C   0  0  0  0  0  0  0  0  0  0  0  0
   -2.3213   -5.5724    0.0000 C   0  0  0  0  0  0  0  0  0  0  0  0
   -3.0358   -5.9849    0.0000 C   0  0  0  0  0  0  0  0  0  0  0  0
    2.6800   -3.5099    0.0000 C   0  0  0  0  0  0  0  0  0  0  0  0
   -3.7502   -5.5724    0.0000 C   0  0  0  0  0  0  0  0  0  0  0  0
    0.5366   -3.0974    0.0000 C   0  0  3  0  0  0  0  0  0  0  0  0
    3.4646   -4.5898    0.0000 C   0  0  0  0  0  0  0  0  0  0  0  0
    0.5366   -2.2724    0.0000 C   0  0  0  0  0  0  0  0  0  0  0  0
    3.8771   -2.5405    0.0000 C   0  0  0  0  0  0  0  0  0  0  0  0
   -4.4647   -3.5099    0.0000 C   0  0  0  0  0  0  0  0  0  0  0  0
   -3.7502   -7.2224    0.0000 C   0  0  0  0  0  0  0  0  0  0  0  0
    1.2511   -1.0349    0.0000 C   0  0  0  0  0  0  0  0  0  0  0  0
  1 21  1  0  0  0  0
  2 23  1  0  0  0  0
  2 32  1  0  0  0  0
  3 25  1  0  0  0  0
  3 33  1  0  0  0  0
  4 28  1  0  0  0  0
  5 30  1  0  0  0  0
  5 34  1  0  0  0  0
  6 12  1  0  0  0  0
  6 13  1  0  0  0  0
  6 20  1  0  0  0  0
  7 12  1  0  0  0  0
  7 15  2  0  0  0  0
  8 13  2  0  0  0  0
  8 16  1  0  0  0  0
  9 14  1  0  0  0  0
  9 22  2  0  0  0  0
 10 11  1  0  0  0  0
 10 26  1  0  0  0  0
 10 31  1  0  0  0  0
 11 29  2  0  0  0  0
 12 14  2  0  0  0  0
 13 17  1  0  0  0  0
 14 18  1  0  0  0  0
 15 19  1  0  0  0  0
 15 22  1  0  0  0  0
 16 21  2  0  0  0  0
 16 24  1  0  0  0  0
 17 18  2  0  0  0  0
 19 26  2  0  0  0  0
 19 29  1  0  0  0  0
 20 28  1  0  0  0  0
 21 23  1  0  0  0  0
 23 27  2  0  0  0  0
 24 25  2  0  0  0  0
 25 27  1  0  0  0  0
 28 30  1  0  0  0  0
M  END
> <PUBCHEM_COMPOUND_ID_TYPE>
0

> <PUBCHEM_TOTAL_CHARGE>
0

> <PUBCHEM_SUBSTANCE_ID>
310947007

> <PUBCHEM_SUBSTANCE_VERSION>
1

> <PUBCHEM_EXT_DATASOURCE_NAME>
4488

> <PUBCHEM_EXT_DATASOURCE_REGID>
SCHEMBL16125159

> <PUBCHEM_SUBSTANCE_COMMENT>
InChI=1S/C23H25FN6O4/c1-29-11-14(9-26-29)19-10-25-17-5-6-21(30(23(17)28-19)12-15(31)13-32-2)27-18-7-16(33-3)8-20(34-4)22(18)24/h5-11,15,31H,12-13H2,1-4H3/b27-21+
InChIKey=RKJDBALGNXSDFP-SZXQPVLSSA-N

> <PUBCHEM_SUBSTANCE_SYNONYM>
SCHEMBL16125159

> <PUBCHEM_XREF_EXT_ID>
SCHEMBL16125159

> <PUBCHEM_EXT_DATASOURCE_URL>
https://www.surechembl.org/

> <PUBCHEM_EXT_SUBSTANCE_URL>
https://www.surechembl.org/chemical/SCHEMBL16125159

> <PUBCHEM_CID_ASSOCIATIONS>
117612861  1

> <PUBCHEM_COORDINATE_TYPE>
1
3

> <PUBCHEM_BONDANNOTATIONS>
28  4  3

$$$$
