310944544
  -OEChem-07211613022D

 30 33  0     1  0  0  0  0  0999 V2000
   -3.7193   -0.5163    0.0000 Cl  0  0  0  0  0  0  0  0  0  0  0  0
    0.7463    1.9716    0.0000 O   0  0  0  0  0  0  0  0  0  0  0  0
    4.9757   -0.7650    0.0000 O   0  0  0  0  0  0  0  0  0  0  0  0
   -0.6842   -0.5163    0.0000 O   0  0  0  0  0  0  0  0  0  0  0  0
    1.4927    0.7401    0.0000 N   0  0  0  0  0  0  0  0  0  0  0  0
    3.5576   -0.7650    0.0000 N   0  0  0  0  0  0  0  0  0  0  0  0
   -0.6717    1.1507    0.0000 N   0  0  0  0  0  0  0  0  0  0  0  0
    2.2764   -0.3421    0.0000 C   0  0  3  0  0  0  0  0  0  0  0  0
    2.7615    0.3296    0.0000 C   0  0  3  0  0  0  0  0  0  0  0  0
    1.5051   -0.0933    0.0000 C   0  0  0  0  0  0  0  0  0  0  0  0
    2.2640    0.9889    0.0000 C   0  0  0  0  0  0  0  0  0  0  0  0
    2.7740   -1.0138    0.0000 C   0  0  0  0  0  0  0  0  0  0  0  0
    3.5576    0.0684    0.0000 C   0  0  0  0  0  0  0  0  0  0  0  0
    0.7463    1.1382    0.0000 C   0  0  0  0  0  0  0  0  0  0  0  0
   -2.8237    0.7401    0.0000 C   0  0  0  0  0  0  0  0  0  0  0  0
   -1.3932    0.7401    0.0000 C   0  0  0  0  0  0  0  0  0  0  0  0
    4.2667   -1.1755    0.0000 C   0  0  0  0  0  0  0  0  0  0  0  0
   -2.8237   -0.0933    0.0000 C   0  0  0  0  0  0  0  0  0  0  0  0
   -1.4057   -0.0809    0.0000 C   0  0  0  0  0  0  0  0  0  0  0  0
   -2.1147    1.1382    0.0000 C   0  0  0  0  0  0  0  0  0  0  0  0
   -3.5576    1.1631    0.0000 C   0  0  0  0  0  0  0  0  0  0  0  0
    0.0498    0.7401    0.0000 C   0  0  0  0  0  0  0  0  0  0  0  0
   -2.1022   -0.5038    0.0000 C   0  0  0  0  0  0  0  0  0  0  0  0
    4.2667   -2.0214    0.0000 C   0  0  0  0  0  0  0  0  0  0  0  0
   -4.2542    0.7401    0.0000 C   0  0  0  0  0  0  0  0  0  0  0  0
   -3.5452    1.9716    0.0000 C   0  0  0  0  0  0  0  0  0  0  0  0
   -4.9757    1.1507    0.0000 C   0  0  0  0  0  0  0  0  0  0  0  0
   -4.2667    2.3821    0.0000 C   0  0  0  0  0  0  0  0  0  0  0  0
   -4.9757    1.9716    0.0000 C   0  0  0  0  0  0  0  0  0  0  0  0
    3.5327   -2.3821    0.0000 C   0  0  0  0  0  0  0  0  0  0  0  0
  1 18  1  0  0  0  0
  2 14  2  0  0  0  0
  3 17  2  0  0  0  0
  4 19  1  0  0  0  0
  5 10  1  0  0  0  0
  5 11  1  0  0  0  0
  5 14  1  0  0  0  0
  6 12  1  0  0  0  0
  6 13  1  0  0  0  0
  6 17  1  0  0  0  0
  7 16  1  0  0  0  0
  7 22  1  0  0  0  0
  8  9  1  0  0  0  0
  8 10  1  0  0  0  0
  8 12  1  0  0  0  0
  9 11  1  0  0  0  0
  9 13  1  0  0  0  0
 14 22  1  0  0  0  0
 15 18  2  0  0  0  0
 15 20  1  0  0  0  0
 15 21  1  0  0  0  0
 16 19  1  0  0  0  0
 16 20  2  0  0  0  0
 17 24  1  0  0  0  0
 18 23  1  0  0  0  0
 19 23  2  0  0  0  0
 21 25  2  0  0  0  0
 21 26  1  0  0  0  0
 24 30  2  0  0  0  0
 25 27  1  0  0  0  0
 26 28  2  0  0  0  0
 27 29  2  0  0  0  0
 28 29  1  0  0  0  0
M  END
> <PUBCHEM_COMPOUND_ID_TYPE>
0

> <PUBCHEM_TOTAL_CHARGE>
0

> <PUBCHEM_SUBSTANCE_ID>
310944544

> <PUBCHEM_SUBSTANCE_VERSION>
1

> <PUBCHEM_EXT_DATASOURCE_NAME>
4488

> <PUBCHEM_EXT_DATASOURCE_REGID>
SCHEMBL16122621

> <PUBCHEM_SUBSTANCE_COMMENT>
InChI=1S/C23H24ClN3O3/c1-2-22(29)26-11-16-13-27(14-17(16)12-26)23(30)10-25-20-8-18(19(24)9-21(20)28)15-6-4-3-5-7-15/h2-9,16-17,25,28H,1,10-14H2
InChIKey=IWRNLHDUARBUDD-UHFFFAOYSA-N

> <PUBCHEM_SUBSTANCE_SYNONYM>
SCHEMBL16122621

> <PUBCHEM_XREF_EXT_ID>
SCHEMBL16122621

> <PUBCHEM_EXT_DATASOURCE_URL>
https://www.surechembl.org/

> <PUBCHEM_EXT_SUBSTANCE_URL>
https://www.surechembl.org/chemical/SCHEMBL16122621

> <PUBCHEM_CID_ASSOCIATIONS>
117610779  1

> <PUBCHEM_COORDINATE_TYPE>
1
3

$$$$
