310942494
  -OEChem-07211613022D

 10 10  0     1  0  0  0  0  0999 V2000
    0.3628   -1.0187    0.0000 N   0  0  3  0  0  0  0  0  0  0  0  0
   -0.3628   -0.6113    0.0000 C   0  0  3  0  0  0  0  0  0  0  0  0
    0.3628    0.6411    0.0000 C   0  0  3  0  0  0  0  0  0  0  0  0
   -0.3528    0.2137    0.0000 C   0  0  0  0  0  0  0  0  0  0  0  0
    1.0685   -0.6212    0.0000 C   0  0  0  0  0  0  0  0  0  0  0  0
    1.0685    0.2038    0.0000 C   0  0  0  0  0  0  0  0  0  0  0  0
    0.3528    1.4660    0.0000 C   0  0  0  0  0  0  0  0  0  0  0  0
   -1.0685   -1.0287    0.0000 C   0  0  0  0  0  0  0  0  0  0  0  0
    0.3528   -1.8536    0.0000 C   0  0  0  0  0  0  0  0  0  0  0  0
   -0.3429    1.8536    0.0000 C   0  0  0  0  0  0  0  0  0  0  0  0
  1  2  1  0  0  0  0
  1  5  1  0  0  0  0
  1  9  1  0  0  0  0
  2  4  1  0  0  0  0
  2  8  1  0  0  0  0
  3  4  1  0  0  0  0
  3  6  1  0  0  0  0
  3  7  1  0  0  0  0
  5  6  1  0  0  0  0
  7 10  1  0  0  0  0
M  END
> <PUBCHEM_COMPOUND_ID_TYPE>
0

> <PUBCHEM_TOTAL_CHARGE>
0

> <PUBCHEM_SUBSTANCE_ID>
310942494

> <PUBCHEM_SUBSTANCE_VERSION>
1

> <PUBCHEM_EXT_DATASOURCE_NAME>
4488

> <PUBCHEM_EXT_DATASOURCE_REGID>
SCHEMBL16120530

> <PUBCHEM_SUBSTANCE_COMMENT>
InChI=1S/C9H19N/c1-4-9-5-6-10(3)8(2)7-9/h8-9H,4-7H2,1-3H3
InChIKey=OJXLKQKOGFELQS-UHFFFAOYSA-N

> <PUBCHEM_SUBSTANCE_SYNONYM>
SCHEMBL16120530

> <PUBCHEM_XREF_EXT_ID>
SCHEMBL16120530

> <PUBCHEM_EXT_DATASOURCE_URL>
https://www.surechembl.org/

> <PUBCHEM_EXT_SUBSTANCE_URL>
https://www.surechembl.org/chemical/SCHEMBL16120530

> <PUBCHEM_CID_ASSOCIATIONS>
58058782  1

> <PUBCHEM_COORDINATE_TYPE>
1
3

$$$$
