310941402
  -OEChem-07211613022D

 42 45  0     1  0  0  0  0  0999 V2000
    5.0683    0.6630    0.0000 O   0  0  0  0  0  0  0  0  0  0  0  0
    3.9339   -1.2966    0.0000 O   0  0  0  0  0  0  0  0  0  0  0  0
    1.7828    0.7661    0.0000 O   0  0  0  0  0  0  0  0  0  0  0  0
   -0.3683   -1.2966    0.0000 O   0  0  0  0  0  0  0  0  0  0  0  0
   -2.5195    0.7661    0.0000 O   0  0  0  0  0  0  0  0  0  0  0  0
    3.9339   -2.9467    0.0000 O   0  0  0  0  0  0  0  0  0  0  0  0
   -5.3925   -1.7091    0.0000 O   0  0  0  0  0  0  0  0  0  0  0  0
    2.5047   -0.4567    0.0000 N   0  0  0  0  0  0  0  0  0  0  0  0
    0.3389   -0.0442    0.0000 N   0  0  0  0  0  0  0  0  0  0  0  0
   -1.8123   -0.4567    0.0000 N   0  0  0  0  0  0  0  0  0  0  0  0
    4.6705    0.0000    0.0000 C   0  0  3  0  0  0  0  0  0  0  0  0
    3.9486   -0.4126    0.0000 C   0  0  0  0  0  0  0  0  0  0  0  0
    4.2580    0.6777    0.0000 C   0  0  0  0  0  0  0  0  0  0  0  0
    3.2119   -0.0147    0.0000 C   0  0  3  0  0  0  0  0  0  0  0  0
    5.3925   -0.4420    0.0000 C   0  0  0  0  0  0  0  0  0  0  0  0
    3.2267    1.2966    0.0000 C   0  0  0  0  0  0  0  0  0  0  0  0
    1.7975   -0.0442    0.0000 C   0  0  0  0  0  0  0  0  0  0  0  0
    1.0756   -0.4272    0.0000 C   0  0  3  0  0  0  0  0  0  0  0  0
    2.4900    1.7238    0.0000 C   0  0  0  0  0  0  0  0  0  0  0  0
    1.0756   -1.2671    0.0000 C   0  0  0  0  0  0  0  0  0  0  0  0
   -0.3536   -0.4126    0.0000 C   0  0  0  0  0  0  0  0  0  0  0  0
    1.8123   -1.6796    0.0000 C   0  0  0  0  0  0  0  0  0  0  0  0
    2.5047    2.5341    0.0000 C   0  0  0  0  0  0  0  0  0  0  0  0
    1.7975    1.3113    0.0000 C   0  0  0  0  0  0  0  0  0  0  0  0
   -1.0756   -0.0147    0.0000 C   0  0  3  0  0  0  0  0  0  0  0  0
   -2.5341   -0.0442    0.0000 C   0  0  0  0  0  0  0  0  0  0  0  0
   -3.2267   -0.4272    0.0000 C   0  0  0  0  0  0  0  0  0  0  0  0
    1.8123   -2.5047    0.0000 C   0  0  0  0  0  0  0  0  0  0  0  0
    2.4900   -1.2818    0.0000 C   0  0  0  0  0  0  0  0  0  0  0  0
    1.7828    2.9467    0.0000 C   0  0  0  0  0  0  0  0  0  0  0  0
    1.0903    1.7091    0.0000 C   0  0  0  0  0  0  0  0  0  0  0  0
    3.2267   -2.4900    0.0000 C   0  0  0  0  0  0  0  0  0  0  0  0
    2.5195   -2.9025    0.0000 C   0  0  0  0  0  0  0  0  0  0  0  0
    3.2267   -1.6796    0.0000 C   0  0  0  0  0  0  0  0  0  0  0  0
    1.0903    2.5341    0.0000 C   0  0  0  0  0  0  0  0  0  0  0  0
   -3.9633   -0.0295    0.0000 C   0  0  0  0  0  0  0  0  0  0  0  0
   -3.2267   -1.2671    0.0000 C   0  0  0  0  0  0  0  0  0  0  0  0
   -1.0608    0.8251    0.0000 C   0  0  0  0  0  0  0  0  0  0  0  0
   -4.6705   -1.2671    0.0000 C   0  0  0  0  0  0  0  0  0  0  0  0
   -4.6558   -0.4272    0.0000 C   0  0  0  0  0  0  0  0  0  0  0  0
   -3.9486   -1.6649    0.0000 C   0  0  0  0  0  0  0  0  0  0  0  0
    4.6853   -2.5195    0.0000 C   0  0  0  0  0  0  0  0  0  0  0  0
  1 11  1  0  0  0  0
  1 13  1  0  0  0  0
  2 12  2  0  0  0  0
  3 17  2  0  0  0  0
  4 21  2  0  0  0  0
  5 26  2  0  0  0  0
  6 32  1  0  0  0  0
  6 42  1  0  0  0  0
  7 39  1  0  0  0  0
  8 14  1  0  0  0  0
  8 17  1  0  0  0  0
  9 18  1  0  0  0  0
  9 21  1  0  0  0  0
 10 25  1  0  0  0  0
 10 26  1  0  0  0  0
 11 12  1  0  0  0  0
 11 13  1  0  0  0  0
 11 15  1  0  0  0  0
 12 14  1  0  0  0  0
 14 16  1  0  0  0  0
 16 19  1  0  0  0  0
 17 18  1  0  0  0  0
 18 20  1  0  0  0  0
 19 23  2  0  0  0  0
 19 24  1  0  0  0  0
 20 22  1  0  0  0  0
 21 25  1  0  0  0  0
 22 28  2  0  0  0  0
 22 29  1  0  0  0  0
 23 30  1  0  0  0  0
 24 31  1  0  0  0  0
 25 38  1  0  0  0  0
 26 27  1  0  0  0  0
 27 36  1  0  0  0  0
 27 37  1  0  0  0  0
 28 33  1  0  0  0  0
 29 34  2  0  0  0  0
 30 35  1  0  0  0  0
 31 35  1  0  0  0  0
 32 33  2  0  0  0  0
 32 34  1  0  0  0  0
 36 40  1  0  0  0  0
 37 41  1  0  0  0  0
 39 40  1  0  0  0  0
 39 41  1  0  0  0  0
M  END
> <PUBCHEM_COMPOUND_ID_TYPE>
0

> <PUBCHEM_TOTAL_CHARGE>
0

> <PUBCHEM_SUBSTANCE_ID>
310941402

> <PUBCHEM_SUBSTANCE_VERSION>
1

> <PUBCHEM_EXT_DATASOURCE_NAME>
4488

> <PUBCHEM_EXT_DATASOURCE_REGID>
SCHEMBL16119362

> <PUBCHEM_SUBSTANCE_COMMENT>
InChI=1S/C32H45N3O7/c1-20(33-30(39)23-11-13-24(36)14-12-23)29(38)35-27(18-22-9-15-25(41-3)16-10-22)31(40)34-26(28(37)32(2)19-42-32)17-21-7-5-4-6-8-21/h7,9-10,15-16,20,23-24,26-27,36H,4-6,8,11-14,17-19H2,1-3H3,(H,33,39)(H,34,40)(H,35,38)
InChIKey=MGKHPOKUGKWFFY-UHFFFAOYSA-N

> <PUBCHEM_SUBSTANCE_SYNONYM>
SCHEMBL16119362

> <PUBCHEM_XREF_EXT_ID>
SCHEMBL16119362

> <PUBCHEM_EXT_DATASOURCE_URL>
https://www.surechembl.org/

> <PUBCHEM_EXT_SUBSTANCE_URL>
https://www.surechembl.org/chemical/SCHEMBL16119362

> <PUBCHEM_CID_ASSOCIATIONS>
86295910  1

> <PUBCHEM_COORDINATE_TYPE>
1
3

$$$$
