310946437
  -OEChem-07211613022D

 27 26  0     1  0  0  0  0  0999 V2000
    1.0717    4.1477    0.0000 O   0  0  0  0  0  0  0  0  0  0  0  0
    2.5006    4.9727    0.0000 O   0  0  0  0  0  0  0  0  0  0  0  0
   -2.5006    5.3852    0.0000 O   0  0  0  0  0  0  0  0  0  0  0  0
    1.7862    2.9102    0.0000 O   0  5  0  0  0  0  0  0  0  0  0  0
    2.5006    4.1477    0.0000 O   0  0  0  0  0  0  0  0  0  0  0  0
    3.9296    4.9727    0.0000 O   0  5  0  0  0  0  0  0  0  0  0  0
    3.2151    6.2102    0.0000 O   0  0  0  0  0  0  0  0  0  0  0  0
   -0.7401    1.2898    0.0000 O   0  0  0  0  0  0  0  0  0  0  0  0
   -3.9296    5.3852    0.0000 O   0  0  0  0  0  0  0  0  0  0  0  0
   -0.7401   -0.1391    0.0000 O   0  0  0  0  0  0  0  0  0  0  0  0
    1.7862    3.7352    0.0000 N   0  3  0  0  0  0  0  0  0  0  0  0
    3.2151    5.3852    0.0000 N   0  3  0  0  0  0  0  0  0  0  0  0
   -3.2151    4.1477    0.0000 N   0  0  0  0  0  0  0  0  0  0  0  0
    0.4974    2.0043    0.0000 N   0  0  0  0  0  0  0  0  0  0  0  0
    1.0717    4.9727    0.0000 C   0  0  3  0  0  0  0  0  0  0  0  0
    1.7862    5.3852    0.0000 C   0  0  0  0  0  0  0  0  0  0  0  0
    0.3572    5.3852    0.0000 C   0  0  0  0  0  0  0  0  0  0  0  0
   -0.3572    4.9727    0.0000 C   0  0  0  0  0  0  0  0  0  0  0  0
   -3.2151    4.9727    0.0000 C   0  0  0  0  0  0  0  0  0  0  0  0
   -1.0717    5.3852    0.0000 C   0  0  0  0  0  0  0  0  0  0  0  0
   -1.7862    4.9727    0.0000 C   0  0  0  0  0  0  0  0  0  0  0  0
   -0.3276    2.0043    0.0000 C   0  0  3  0  0  0  0  0  0  0  0  0
   -2.8026    3.4333    0.0000 C   0  0  0  0  0  0  0  0  0  0  0  0
   -0.7401    2.7188    0.0000 C   0  0  0  0  0  0  0  0  0  0  0  0
   -1.9776    3.4333    0.0000 C   0  0  0  0  0  0  0  0  0  0  0  0
   -1.5651    2.7188    0.0000 C   0  0  0  0  0  0  0  0  0  0  0  0
   -0.3276    0.5754    0.0000 C   0  0  0  0  0  0  0  0  0  0  0  0
  1 11  1  0  0  0  0
  1 15  1  0  0  0  0
  2 12  1  0  0  0  0
  2 16  1  0  0  0  0
  3 19  1  0  0  0  0
  3 21  1  0  0  0  0
  4 11  1  0  0  0  0
  5 11  2  0  0  0  0
  6 12  1  0  0  0  0
  7 12  2  0  0  0  0
  8 22  1  0  0  0  0
  8 27  1  0  0  0  0
  9 19  2  0  0  0  0
 10 27  2  0  0  0  0
 13 19  1  0  0  0  0
 13 23  1  0  0  0  0
 14 22  1  0  0  0  0
 15 16  1  0  0  0  0
 15 17  1  0  0  0  0
 17 18  1  0  0  0  0
 18 20  1  0  0  0  0
 20 21  1  0  0  0  0
 22 24  1  0  0  0  0
 23 25  1  0  0  0  0
 24 26  1  0  0  0  0
 25 26  1  0  0  0  0
M  CHG  4   4  -1   6  -1  11   1  12   1
M  END
> <PUBCHEM_COMPOUND_ID_TYPE>
0

> <PUBCHEM_TOTAL_CHARGE>
0

> <PUBCHEM_SUBSTANCE_ID>
310946437

> <PUBCHEM_SUBSTANCE_VERSION>
1

> <PUBCHEM_EXT_DATASOURCE_NAME>
4488

> <PUBCHEM_EXT_DATASOURCE_REGID>
SCHEMBL16124558

> <PUBCHEM_SUBSTANCE_COMMENT>
InChI=1S/C13H24N4O10/c14-12(25-10-18)6-1-3-7-15-13(19)24-8-4-2-5-11(27-17(22)23)9-26-16(20)21/h10-12H,1-9,14H2,(H,15,19)
InChIKey=OCRIWUSYQOZRDT-UHFFFAOYSA-N

> <PUBCHEM_SUBSTANCE_SYNONYM>
SCHEMBL16124558

> <PUBCHEM_XREF_EXT_ID>
SCHEMBL16124558

> <PUBCHEM_EXT_DATASOURCE_URL>
https://www.surechembl.org/

> <PUBCHEM_EXT_SUBSTANCE_URL>
https://www.surechembl.org/chemical/SCHEMBL16124558

> <PUBCHEM_CID_ASSOCIATIONS>
117612349  1

> <PUBCHEM_COORDINATE_TYPE>
1
3

$$$$
