310931188
  -OEChem-07211613022D

 29 30  0     1  0  0  0  0  0999 V2000
    1.4093   -5.6372    0.0000 S   0  0  0  0  0  0  0  0  0  0  0  0
    1.4781   -1.4436    0.0000 S   0  0  0  0  0  0  0  0  0  0  0  0
    2.1311   -6.8746    0.0000 F   0  0  0  0  0  0  0  0  0  0  0  0
    2.8530   -5.6372    0.0000 F   0  0  0  0  0  0  0  0  0  0  0  0
    1.4093   -6.4622    0.0000 F   0  0  0  0  0  0  0  0  0  0  0  0
    0.7218   -5.2247    0.0000 O   0  0  0  0  0  0  0  0  0  0  0  0
    1.0312   -6.3590    0.0000 O   0  0  0  0  0  0  0  0  0  0  0  0
    1.8562   -4.9153    0.0000 O   0  0  0  0  0  0  0  0  0  0  0  0
    0.7218   -1.9249    0.0000 O   0  0  0  0  0  0  0  0  0  0  0  0
    4.2966   -3.1623    0.0000 O   0  0  0  0  0  0  0  0  0  0  0  0
    3.5748   -1.9249    0.0000 O   0  0  0  0  0  0  0  0  0  0  0  0
    2.8186   -1.4436    0.0000 N   0  0  0  0  0  0  0  0  0  0  0  0
    1.4436   -3.1623    0.0000 C   0  0  0  0  0  0  0  0  0  0  0  0
    2.1655   -2.7499    0.0000 C   0  0  3  0  0  0  0  0  0  0  0  0
    2.1311   -6.0497    0.0000 C   0  0  0  0  0  0  0  0  0  0  0  0
    0.7218   -4.3998    0.0000 C   0  0  0  0  0  0  0  0  0  0  0  0
    0.7218   -2.7499    0.0000 C   0  0  0  0  0  0  0  0  0  0  0  0
    1.4093   -3.9873    0.0000 C   0  0  0  0  0  0  0  0  0  0  0  0
    2.1655   -1.9249    0.0000 C   0  0  0  0  0  0  0  0  0  0  0  0
    0.0000   -3.9873    0.0000 C   0  0  0  0  0  0  0  0  0  0  0  0
    0.0000   -3.1623    0.0000 C   0  0  0  0  0  0  0  0  0  0  0  0
    2.8530   -3.1623    0.0000 C   0  0  0  0  0  0  0  0  0  0  0  0
    1.7531   -0.6531    0.0000 C   0  0  0  0  0  0  0  0  0  0  0  0
    2.5436   -0.6531    0.0000 C   0  0  0  0  0  0  0  0  0  0  0  0
    3.5748   -2.7499    0.0000 C   0  0  0  0  0  0  0  0  0  0  0  0
    1.2718    0.0000    0.0000 C   0  0  0  0  0  0  0  0  0  0  0  0
    0.0000   -1.5124    0.0000 C   0  0  0  0  0  0  0  0  0  0  0  0
    5.0185   -2.7499    0.0000 C   0  0  0  0  0  0  0  0  0  0  0  0
    5.0185   -1.9249    0.0000 C   0  0  0  0  0  0  0  0  0  0  0  0
  1  6  1  0  0  0  0
  1  7  2  0  0  0  0
  1  8  2  0  0  0  0
  1 15  1  0  0  0  0
  2 19  1  0  0  0  0
  2 23  1  0  0  0  0
  3 15  1  0  0  0  0
  4 15  1  0  0  0  0
  5 15  1  0  0  0  0
  6 16  1  0  0  0  0
  9 17  1  0  0  0  0
  9 27  1  0  0  0  0
 10 25  1  0  0  0  0
 10 28  1  0  0  0  0
 11 25  2  0  0  0  0
 12 19  2  0  0  0  0
 12 24  1  0  0  0  0
 13 14  1  0  0  0  0
 13 17  1  0  0  0  0
 13 18  2  0  0  0  0
 14 19  1  0  0  0  0
 14 22  1  0  0  0  0
 16 18  1  0  0  0  0
 16 20  2  0  0  0  0
 17 21  2  0  0  0  0
 20 21  1  0  0  0  0
 22 25  1  0  0  0  0
 23 24  2  0  0  0  0
 23 26  1  0  0  0  0
 28 29  1  0  0  0  0
M  END
> <PUBCHEM_COMPOUND_ID_TYPE>
0

> <PUBCHEM_TOTAL_CHARGE>
0

> <PUBCHEM_SUBSTANCE_ID>
310931188

> <PUBCHEM_SUBSTANCE_VERSION>
1

> <PUBCHEM_EXT_DATASOURCE_NAME>
4488

> <PUBCHEM_EXT_DATASOURCE_REGID>
SCHEMBL16108497

> <PUBCHEM_SUBSTANCE_COMMENT>
InChI=1S/C17H18F3NO6S2/c1-4-26-15(22)8-13(16-21-9-10(2)28-16)12-7-11(5-6-14(12)25-3)27-29(23,24)17(18,19)20/h5-7,9,13H,4,8H2,1-3H3
InChIKey=CAULBXXPXTWUCB-UHFFFAOYSA-N

> <PUBCHEM_SUBSTANCE_SYNONYM>
SCHEMBL16108497

> <PUBCHEM_XREF_EXT_ID>
SCHEMBL16108497

> <PUBCHEM_EXT_DATASOURCE_URL>
https://www.surechembl.org/

> <PUBCHEM_EXT_SUBSTANCE_URL>
https://www.surechembl.org/chemical/SCHEMBL16108497

> <PUBCHEM_CID_ASSOCIATIONS>
117600045  1

> <PUBCHEM_COORDINATE_TYPE>
1
3

$$$$
