310936630
  -OEChem-07211613022D

 21 21  0     1  0  0  0  0  0999 V2000
    2.4543   -2.4543    0.0000 P   0  0  3  0  0  0  0  0  0  0  0  0
    1.6444   -2.4543    0.0000 O   0  0  0  0  0  0  0  0  0  0  0  0
    3.2888   -2.4543    0.0000 O   0  0  0  0  0  0  0  0  0  0  0  0
    3.8779   -1.6444    0.0000 O   0  0  0  0  0  0  0  0  0  0  0  0
    3.1661   -0.4172    0.0000 O   0  0  0  0  0  0  0  0  0  0  0  0
    2.4543   -1.6444    0.0000 C   0  0  0  0  0  0  0  0  0  0  0  0
    2.4543   -3.2643    0.0000 C   0  0  0  0  0  0  0  0  0  0  0  0
    3.1661   -1.2272    0.0000 C   0  0  0  0  0  0  0  0  0  0  0  0
    1.7426   -1.2272    0.0000 C   0  0  0  0  0  0  0  0  0  0  0  0
    2.4543   -0.8099    0.0000 C   0  0  0  0  0  0  0  0  0  0  0  0
    3.1661   -3.6815    0.0000 C   0  0  0  0  0  0  0  0  0  0  0  0
    1.7426   -3.6815    0.0000 C   0  0  0  0  0  0  0  0  0  0  0  0
    1.2272   -1.7426    0.0000 C   0  0  0  0  0  0  0  0  0  0  0  0
    3.1661   -4.4915    0.0000 C   0  0  0  0  0  0  0  0  0  0  0  0
    1.7426   -4.4915    0.0000 C   0  0  0  0  0  0  0  0  0  0  0  0
    2.4543   -4.9087    0.0000 C   0  0  0  0  0  0  0  0  0  0  0  0
    4.5896   -1.2272    0.0000 C   0  0  0  0  0  0  0  0  0  0  0  0
    0.4172   -1.7426    0.0000 C   0  0  0  0  0  0  0  0  0  0  0  0
    4.5896   -0.4172    0.0000 C   0  0  0  0  0  0  0  0  0  0  0  0
    0.0000   -1.0308    0.0000 C   0  0  0  0  0  0  0  0  0  0  0  0
    3.8779    0.0000    0.0000 C   0  0  0  0  0  0  0  0  0  0  0  0
  1  2  1  0  0  0  0
  1  3  2  0  0  0  0
  1  6  1  0  0  0  0
  1  7  1  0  0  0  0
  2 13  1  0  0  0  0
  4  8  1  0  0  0  0
  4 17  1  0  0  0  0
  5  8  2  0  0  0  0
  6  8  1  0  0  0  0
  6  9  1  0  0  0  0
  6 10  1  0  0  0  0
  7 11  2  0  0  0  0
  7 12  1  0  0  0  0
 11 14  1  0  0  0  0
 12 15  2  0  0  0  0
 13 18  1  0  0  0  0
 14 16  2  0  0  0  0
 15 16  1  0  0  0  0
 17 19  1  0  0  0  0
 18 20  1  0  0  0  0
 19 21  1  0  0  0  0
M  END
> <PUBCHEM_COMPOUND_ID_TYPE>
0

> <PUBCHEM_TOTAL_CHARGE>
0

> <PUBCHEM_SUBSTANCE_ID>
310936630

> <PUBCHEM_SUBSTANCE_VERSION>
1

> <PUBCHEM_EXT_DATASOURCE_NAME>
4488

> <PUBCHEM_EXT_DATASOURCE_REGID>
SCHEMBL16114290

> <PUBCHEM_SUBSTANCE_COMMENT>
InChI=1S/C16H25O4P/c1-5-12-19-15(17)16(3,4)21(18,20-13-6-2)14-10-8-7-9-11-14/h7-11H,5-6,12-13H2,1-4H3
InChIKey=YGBJDFUVJASOCC-UHFFFAOYSA-N

> <PUBCHEM_SUBSTANCE_SYNONYM>
SCHEMBL16114290

> <PUBCHEM_XREF_EXT_ID>
SCHEMBL16114290

> <PUBCHEM_EXT_DATASOURCE_URL>
https://www.surechembl.org/

> <PUBCHEM_EXT_SUBSTANCE_URL>
https://www.surechembl.org/chemical/SCHEMBL16114290

> <PUBCHEM_CID_ASSOCIATIONS>
117604545  1

> <PUBCHEM_COORDINATE_TYPE>
1
3

$$$$
