310931109
  -OEChem-07211613022D

 19 21  0     1  0  0  0  0  0999 V2000
    0.0000   -2.1924    0.0000 Br  0  0  0  0  0  0  0  0  0  0  0  0
    3.4228   -3.0201    0.0000 O   0  0  0  0  0  0  0  0  0  0  0  0
    1.3870   -1.3870    0.0000 O   0  0  0  0  0  0  0  0  0  0  0  0
    3.1767   -4.4743    0.0000 O   0  0  0  0  0  0  0  0  0  0  0  0
    2.1252   -2.5950    0.0000 C   0  0  0  0  0  0  0  0  0  0  0  0
    2.1252   -3.4675    0.0000 C   0  0  0  0  0  0  0  0  0  0  0  0
    2.9083   -2.3713    0.0000 C   0  0  3  0  0  0  0  0  0  0  0  0
    1.4094   -2.2148    0.0000 C   0  0  0  0  0  0  0  0  0  0  0  0
    2.9083   -3.6913    0.0000 C   0  0  0  0  0  0  0  0  0  0  0  0
    3.1767   -1.5884    0.0000 C   0  0  0  0  0  0  0  0  0  0  0  0
    0.7158   -2.5950    0.0000 C   0  0  0  0  0  0  0  0  0  0  0  0
    1.4094   -3.8479    0.0000 C   0  0  0  0  0  0  0  0  0  0  0  0
    0.7158   -3.4675    0.0000 C   0  0  0  0  0  0  0  0  0  0  0  0
    2.6175   -0.9620    0.0000 C   0  0  0  0  0  0  0  0  0  0  0  0
    3.9821   -1.4094    0.0000 C   0  0  0  0  0  0  0  0  0  0  0  0
    2.8859   -0.1790    0.0000 C   0  0  0  0  0  0  0  0  0  0  0  0
    4.2281   -0.6264    0.0000 C   0  0  0  0  0  0  0  0  0  0  0  0
    0.6711   -0.9620    0.0000 C   0  0  0  0  0  0  0  0  0  0  0  0
    3.6913    0.0000    0.0000 C   0  0  0  0  0  0  0  0  0  0  0  0
  1 11  1  0  0  0  0
  2  7  1  0  0  0  0
  2  9  1  0  0  0  0
  3  8  1  0  0  0  0
  3 18  1  0  0  0  0
  4  9  2  0  0  0  0
  5  6  2  0  0  0  0
  5  7  1  0  0  0  0
  5  8  1  0  0  0  0
  6  9  1  0  0  0  0
  6 12  1  0  0  0  0
  7 10  1  0  0  0  0
  8 11  2  0  0  0  0
 10 14  2  0  0  0  0
 10 15  1  0  0  0  0
 11 13  1  0  0  0  0
 12 13  2  0  0  0  0
 14 16  1  0  0  0  0
 15 17  2  0  0  0  0
 16 19  2  0  0  0  0
 17 19  1  0  0  0  0
M  END
> <PUBCHEM_COMPOUND_ID_TYPE>
0

> <PUBCHEM_TOTAL_CHARGE>
0

> <PUBCHEM_SUBSTANCE_ID>
310931109

> <PUBCHEM_SUBSTANCE_VERSION>
1

> <PUBCHEM_EXT_DATASOURCE_NAME>
4488

> <PUBCHEM_EXT_DATASOURCE_REGID>
SCHEMBL16108413

> <PUBCHEM_SUBSTANCE_COMMENT>
InChI=1S/C15H11BrO3/c1-18-14-11(16)8-7-10-12(14)13(19-15(10)17)9-5-3-2-4-6-9/h2-8,13H,1H3
InChIKey=CLRNRGATYDEPAP-UHFFFAOYSA-N

> <PUBCHEM_SUBSTANCE_SYNONYM>
SCHEMBL16108413

> <PUBCHEM_XREF_EXT_ID>
SCHEMBL16108413

> <PUBCHEM_EXT_DATASOURCE_URL>
https://www.surechembl.org/

> <PUBCHEM_EXT_SUBSTANCE_URL>
https://www.surechembl.org/chemical/SCHEMBL16108413

> <PUBCHEM_CID_ASSOCIATIONS>
117600001  1

> <PUBCHEM_COORDINATE_TYPE>
1
3

$$$$
