310936942
  -OEChem-07211613022D

 27 30  0     1  0  0  0  0  0999 V2000
    2.5571   -4.5358    0.0000 O   0  0  0  0  0  0  0  0  0  0  0  0
    4.1705   -1.9787    0.0000 O   0  0  0  0  0  0  0  0  0  0  0  0
    1.3090   -4.1400    0.0000 N   0  0  0  0  0  0  0  0  0  0  0  0
    1.7960   -2.5266    0.0000 N   0  0  0  0  0  0  0  0  0  0  0  0
    2.0700   -5.2055    0.0000 N   0  0  0  0  0  0  0  0  0  0  0  0
    5.7535   -1.6134    0.0000 N   0  0  3  0  0  0  0  0  0  0  0  0
    2.8311   -1.5830    0.0000 C   0  0  0  0  0  0  0  0  0  0  0  0
    2.3440   -3.1050    0.0000 C   0  0  0  0  0  0  0  0  0  0  0  0
    3.3790   -2.1614    0.0000 C   0  0  0  0  0  0  0  0  0  0  0  0
    2.0700   -3.8965    0.0000 C   0  0  0  0  0  0  0  0  0  0  0  0
    3.0746   -0.7915    0.0000 C   0  0  0  0  0  0  0  0  0  0  0  0
    1.3090   -4.9619    0.0000 C   0  0  0  0  0  0  0  0  0  0  0  0
    3.1354   -2.9528    0.0000 C   0  0  0  0  0  0  0  0  0  0  0  0
    2.0091   -1.7352    0.0000 C   0  0  0  0  0  0  0  0  0  0  0  0
    0.6393   -5.4186    0.0000 C   0  0  0  0  0  0  0  0  0  0  0  0
    2.9224    0.0000    0.0000 C   0  0  0  0  0  0  0  0  0  0  0  0
    3.7138   -0.2435    0.0000 C   0  0  0  0  0  0  0  0  0  0  0  0
    4.4140   -1.1872    0.0000 C   0  0  0  0  0  0  0  0  0  0  0  0
    5.2055   -1.0046    0.0000 C   0  0  3  0  0  0  0  0  0  0  0  0
    0.1522   -4.7489    0.0000 C   0  0  0  0  0  0  0  0  0  0  0  0
    0.0000   -5.9056    0.0000 C   0  0  0  0  0  0  0  0  0  0  0  0
    1.1263   -6.0883    0.0000 C   0  0  0  0  0  0  0  0  0  0  0  0
    5.4490   -0.2131    0.0000 C   0  0  0  0  0  0  0  0  0  0  0  0
    6.5449   -1.4307    0.0000 C   0  0  0  0  0  0  0  0  0  0  0  0
    6.2405   -0.0609    0.0000 C   0  0  0  0  0  0  0  0  0  0  0  0
    6.8189   -0.6393    0.0000 C   0  0  0  0  0  0  0  0  0  0  0  0
    5.5099   -2.3744    0.0000 C   0  0  0  0  0  0  0  0  0  0  0  0
  1  5  1  0  0  0  0
  1 10  1  0  0  0  0
  2  9  1  0  0  0  0
  2 18  1  0  0  0  0
  3 10  2  0  0  0  0
  3 12  1  0  0  0  0
  4  8  1  0  0  0  0
  4 14  2  0  0  0  0
  5 12  2  0  0  0  0
  6 19  1  0  0  0  0
  6 24  1  0  0  0  0
  6 27  1  0  0  0  0
  7  9  2  0  0  0  0
  7 11  1  0  0  0  0
  7 14  1  0  0  0  0
  8 10  1  0  0  0  0
  8 13  2  0  0  0  0
  9 13  1  0  0  0  0
 11 16  1  0  0  0  0
 11 17  1  0  0  0  0
 12 15  1  0  0  0  0
 15 20  1  0  0  0  0
 15 21  1  0  0  0  0
 15 22  1  0  0  0  0
 16 17  1  0  0  0  0
 18 19  1  0  0  0  0
 19 23  1  0  0  0  0
 23 25  1  0  0  0  0
 24 26  1  0  0  0  0
 25 26  1  0  0  0  0
M  END
> <PUBCHEM_COMPOUND_ID_TYPE>
0

> <PUBCHEM_TOTAL_CHARGE>
0

> <PUBCHEM_SUBSTANCE_ID>
310936942

> <PUBCHEM_SUBSTANCE_VERSION>
1

> <PUBCHEM_EXT_DATASOURCE_NAME>
4488

> <PUBCHEM_EXT_DATASOURCE_REGID>
SCHEMBL16114643

> <PUBCHEM_SUBSTANCE_COMMENT>
InChI=1S/C21H30N4O2/c1-21(2,3)20-23-19(27-24-20)17-11-18(16(12-22-17)14-8-9-14)26-13-15-7-5-6-10-25(15)4/h11-12,14-15H,5-10,13H2,1-4H3
InChIKey=PNZXOSVKEBTQHD-UHFFFAOYSA-N

> <PUBCHEM_SUBSTANCE_SYNONYM>
SCHEMBL16114643

> <PUBCHEM_XREF_EXT_ID>
SCHEMBL16114643

> <PUBCHEM_EXT_DATASOURCE_URL>
https://www.surechembl.org/

> <PUBCHEM_EXT_SUBSTANCE_URL>
https://www.surechembl.org/chemical/SCHEMBL16114643

> <PUBCHEM_CID_ASSOCIATIONS>
117604811  1

> <PUBCHEM_COORDINATE_TYPE>
1
3

$$$$
