310940443
  -OEChem-07211613022D

 18 20  0     1  0  0  0  0  0999 V2000
    0.1837   -0.1102    0.0000 N   0  0  0  0  0  0  0  0  0  0  0  0
    0.1837   -1.4330    0.0000 N   0  0  3  0  0  0  0  0  0  0  0  0
   -1.3044    0.0551    0.0000 N   0  0  0  0  0  0  0  0  0  0  0  0
   -2.0026   -1.1758    0.0000 N   0  0  0  0  0  0  0  0  0  0  0  0
   -0.5878   -0.3306    0.0000 C   0  0  0  0  0  0  0  0  0  0  0  0
   -0.6063   -1.1575    0.0000 C   0  0  0  0  0  0  0  0  0  0  0  0
    0.6798   -0.7533    0.0000 C   0  0  3  0  0  0  0  0  0  0  0  0
    0.4409    0.6981    0.0000 C   0  0  0  0  0  0  0  0  0  0  0  0
   -1.2677   -1.5616    0.0000 C   0  0  0  0  0  0  0  0  0  0  0  0
    1.2309    0.8635    0.0000 C   0  0  0  0  0  0  0  0  0  0  0  0
   -0.0551    1.2493    0.0000 C   0  0  0  0  0  0  0  0  0  0  0  0
    2.0026   -0.7901    0.0000 C   0  0  0  0  0  0  0  0  0  0  0  0
   -1.9842   -0.3490    0.0000 C   0  0  0  0  0  0  0  0  0  0  0  0
    0.4592   -2.2230    0.0000 C   0  0  0  0  0  0  0  0  0  0  0  0
    1.4881    1.6351    0.0000 C   0  0  0  0  0  0  0  0  0  0  0  0
    0.1470    2.0577    0.0000 C   0  0  0  0  0  0  0  0  0  0  0  0
    0.9553    2.2230    0.0000 C   0  0  0  0  0  0  0  0  0  0  0  0
    1.9842   -0.5144    0.0000 C   0  0  0  0  0  0  0  0  0  0  0  0
  1  5  1  0  0  0  0
  1  7  1  0  0  0  0
  1  8  1  0  0  0  0
  2  6  1  0  0  0  0
  2  7  1  0  0  0  0
  2 14  1  0  0  0  0
  3  5  2  0  0  0  0
  3 13  1  0  0  0  0
  4  9  1  0  0  0  0
  4 13  2  0  0  0  0
  5  6  1  0  0  0  0
  6  9  2  0  0  0  0
  7 12  1  0  0  0  0
  8 10  2  0  0  0  0
  8 11  1  0  0  0  0
 10 15  1  0  0  0  0
 10 18  1  0  0  0  0
 11 16  2  0  0  0  0
 15 17  2  0  0  0  0
 16 17  1  0  0  0  0
M  END
> <PUBCHEM_COMPOUND_ID_TYPE>
0

> <PUBCHEM_TOTAL_CHARGE>
0

> <PUBCHEM_SUBSTANCE_ID>
310940443

> <PUBCHEM_SUBSTANCE_VERSION>
1

> <PUBCHEM_EXT_DATASOURCE_NAME>
4488

> <PUBCHEM_EXT_DATASOURCE_REGID>
SCHEMBL16118396

> <PUBCHEM_SUBSTANCE_COMMENT>
InChI=1S/C14H16N4/c1-10-6-4-5-7-12(10)18-11(2)17(3)13-8-15-9-16-14(13)18/h4-9,11H,1-3H3
InChIKey=FVYWZHNDWMDENF-UHFFFAOYSA-N

> <PUBCHEM_SUBSTANCE_SYNONYM>
SCHEMBL16118396

> <PUBCHEM_XREF_EXT_ID>
SCHEMBL16118396

> <PUBCHEM_EXT_DATASOURCE_URL>
https://www.surechembl.org/

> <PUBCHEM_EXT_SUBSTANCE_URL>
https://www.surechembl.org/chemical/SCHEMBL16118396

> <PUBCHEM_CID_ASSOCIATIONS>
77421266  1

> <PUBCHEM_COORDINATE_TYPE>
1
3

$$$$
