310945690
  -OEChem-07211613022D

 38 41  0     1  0  0  0  0  0999 V2000
   -6.1534   -0.6884    0.0000 P   0  0  0  0  0  0  0  0  0  0  0  0
    5.3273    0.8155    0.0000 O   0  0  0  0  0  0  0  0  0  0  0  0
   -3.2938   -0.6884    0.0000 O   0  0  0  0  0  0  0  0  0  0  0  0
    6.9371   -0.8579    0.0000 O   0  0  0  0  0  0  0  0  0  0  0  0
    6.6406   -2.2559    0.0000 O   0  0  0  0  0  0  0  0  0  0  0  0
   -6.1534   -1.5145    0.0000 O   0  0  0  0  0  0  0  0  0  0  0  0
    2.3830    0.9637    0.0000 N   0  0  0  0  0  0  0  0  0  0  0  0
    4.4376   -0.1801    0.0000 C   0  0  0  0  0  0  0  0  0  0  0  0
    4.4588    0.6249    0.0000 C   0  0  0  0  0  0  0  0  0  0  0  0
    5.2426   -0.4766    0.0000 C   0  0  3  0  0  0  0  0  0  0  0  0
   -1.2391    0.6461    0.0000 C   0  0  0  0  0  0  0  0  0  0  0  0
   -0.5189    1.0485    0.0000 C   0  0  0  0  0  0  0  0  0  0  0  0
    3.0396    0.6249    0.0000 C   0  0  0  0  0  0  0  0  0  0  0  0
   -1.9593    1.0485    0.0000 C   0  0  0  0  0  0  0  0  0  0  0  0
   -1.2603   -0.1801    0.0000 C   0  0  0  0  0  0  0  0  0  0  0  0
    3.7386    1.0273    0.0000 C   0  0  0  0  0  0  0  0  0  0  0  0
    3.7598   -0.5825    0.0000 C   0  0  0  0  0  0  0  0  0  0  0  0
    5.7298    0.2013    0.0000 C   0  0  0  0  0  0  0  0  0  0  0  0
    3.0608   -0.2013    0.0000 C   0  0  0  0  0  0  0  0  0  0  0  0
    0.2013    0.6461    0.0000 C   0  0  0  0  0  0  0  0  0  0  0  0
   -2.6583   -0.2013    0.0000 C   0  0  0  0  0  0  0  0  0  0  0  0
    0.9003    1.0485    0.0000 C   0  0  0  0  0  0  0  0  0  0  0  0
   -2.6372    0.6249    0.0000 C   0  0  0  0  0  0  0  0  0  0  0  0
   -1.9381   -0.5825    0.0000 C   0  0  0  0  0  0  0  0  0  0  0  0
    5.4968   -1.2179    0.0000 C   0  0  0  0  0  0  0  0  0  0  0  0
   -0.4977    1.8534    0.0000 C   0  0  0  0  0  0  0  0  0  0  0  0
    1.6204    0.6249    0.0000 C   0  0  0  0  0  0  0  0  0  0  0  0
    0.8791    1.8534    0.0000 C   0  0  0  0  0  0  0  0  0  0  0  0
    0.1589    2.2559    0.0000 C   0  0  0  0  0  0  0  0  0  0  0  0
    6.3016   -1.4086    0.0000 C   0  0  0  0  0  0  0  0  0  0  0  0
   -1.9381    1.8746    0.0000 C   0  0  0  0  0  0  0  0  0  0  0  0
   -0.4977   -0.6037    0.0000 C   0  0  0  0  0  0  0  0  0  0  0  0
   -4.0776   -0.2013    0.0000 C   0  0  0  0  0  0  0  0  0  0  0  0
   -4.7766   -0.6037    0.0000 C   0  0  0  0  0  0  0  0  0  0  0  0
   -5.5180   -0.2013    0.0000 C   0  0  0  0  0  0  0  0  0  0  0  0
    6.6194   -0.0106    0.0000 C   0  0  0  0  0  0  0  0  0  0  0  0
   -6.2381    0.2224    0.0000 C   0  0  0  0  0  0  0  0  0  0  0  0
   -6.9371   -0.2224    0.0000 C   0  0  0  0  0  0  0  0  0  0  0  0
  1  6  2  0  0  0  0
  1 35  1  0  0  0  0
  1 37  1  0  0  0  0
  1 38  1  0  0  0  0
  2  9  1  0  0  0  0
  2 18  1  0  0  0  0
  3 21  1  0  0  0  0
  3 33  1  0  0  0  0
  4 30  1  0  0  0  0
  4 36  1  0  0  0  0
  5 30  2  0  0  0  0
  7 13  1  0  0  0  0
  7 27  1  0  0  0  0
  8  9  1  0  0  0  0
  8 10  1  0  0  0  0
  8 17  2  0  0  0  0
  9 16  2  0  0  0  0
 10 18  1  0  0  0  0
 10 25  1  0  0  0  0
 11 12  1  0  0  0  0
 11 14  2  0  0  0  0
 11 15  1  0  0  0  0
 12 20  2  0  0  0  0
 12 26  1  0  0  0  0
 13 16  1  0  0  0  0
 13 19  2  0  0  0  0
 14 23  1  0  0  0  0
 14 31  1  0  0  0  0
 15 24  2  0  0  0  0
 15 32  1  0  0  0  0
 17 19  1  0  0  0  0
 20 22  1  0  0  0  0
 21 23  2  0  0  0  0
 21 24  1  0  0  0  0
 22 27  1  0  0  0  0
 22 28  2  0  0  0  0
 25 30  1  0  0  0  0
 26 29  2  0  0  0  0
 28 29  1  0  0  0  0
 33 34  1  0  0  0  0
 34 35  1  0  0  0  0
M  END
> <PUBCHEM_COMPOUND_ID_TYPE>
0

> <PUBCHEM_TOTAL_CHARGE>
0

> <PUBCHEM_SUBSTANCE_ID>
310945690

> <PUBCHEM_SUBSTANCE_VERSION>
1

> <PUBCHEM_EXT_DATASOURCE_NAME>
4488

> <PUBCHEM_EXT_DATASOURCE_REGID>
SCHEMBL16123791

> <PUBCHEM_SUBSTANCE_COMMENT>
InChI=1S/C31H38NO5P/c1-21-14-27(36-12-7-13-38(4,5)34)15-22(2)31(21)24-9-6-8-23(16-24)19-32-26-10-11-28-25(17-30(33)35-3)20-37-29(28)18-26/h6,8-11,14-16,18,25,32H,7,12-13,17,19-20H2,1-5H3
InChIKey=XRHNCHFXFDZXCJ-UHFFFAOYSA-N

> <PUBCHEM_SUBSTANCE_SYNONYM>
SCHEMBL16123791

> <PUBCHEM_XREF_EXT_ID>
SCHEMBL16123791

> <PUBCHEM_EXT_DATASOURCE_URL>
https://www.surechembl.org/

> <PUBCHEM_EXT_SUBSTANCE_URL>
https://www.surechembl.org/chemical/SCHEMBL16123791

> <PUBCHEM_CID_ASSOCIATIONS>
117611687  1

> <PUBCHEM_COORDINATE_TYPE>
1
3

$$$$
