310936447
  -OEChem-07211613022D

 41 43  0     1  0  0  0  0  0999 V2000
    0.6978   -3.9374    0.0000 F   0  0  0  0  0  0  0  0  0  0  0  0
    0.0000   -5.1835    0.0000 F   0  0  0  0  0  0  0  0  0  0  0  0
    0.0000   -4.3860    0.0000 F   0  0  0  0  0  0  0  0  0  0  0  0
    8.2238   -5.9810    0.0000 O   0  0  0  0  0  0  0  0  0  0  0  0
    7.5758   -8.0244    0.0000 O   0  0  0  0  0  0  0  0  0  0  0  0
    6.2302   -6.8282    0.0000 O   0  0  0  0  0  0  0  0  0  0  0  0
   11.2641   -8.8717    0.0000 O   0  0  0  0  0  0  0  0  0  0  0  0
    4.1866   -4.6851    0.0000 O   0  0  0  0  0  0  0  0  0  0  0  0
    4.6851   -2.7412    0.0000 O   0  0  0  0  0  0  0  0  0  0  0  0
    5.1835    0.0000    0.0000 O   0  0  0  0  0  0  0  0  0  0  0  0
    1.4454   -6.0308    0.0000 O   0  0  0  0  0  0  0  0  0  0  0  0
    2.1432   -4.7848    0.0000 O   0  0  0  0  0  0  0  0  0  0  0  0
    9.1209   -7.1273    0.0000 N   0  0  0  0  0  0  0  0  0  0  0  0
   10.4168   -7.2270    0.0000 N   0  0  0  0  0  0  0  0  0  0  0  0
    8.8219   -8.5727    0.0000 N   0  0  0  0  0  0  0  0  0  0  0  0
    6.1305   -5.1835    0.0000 N   0  0  0  0  0  0  0  0  0  0  0  0
    9.9682   -9.3701    0.0000 N   0  0  0  0  0  0  0  0  0  0  0  0
    6.6289   -3.2895    0.0000 N   0  0  0  0  0  0  0  0  0  0  0  0
    8.6225   -9.9682    0.0000 N   0  0  0  0  0  0  0  0  0  0  0  0
    5.9311   -1.2461    0.0000 N   0  0  0  0  0  0  0  0  0  0  0  0
    8.3733   -6.7784    0.0000 C   0  0  3  0  0  0  0  0  0  0  0  0
    9.2206   -7.9247    0.0000 C   0  0  0  0  0  0  0  0  0  0  0  0
   10.1178   -8.0244    0.0000 C   0  0  0  0  0  0  0  0  0  0  0  0
    7.6755   -7.1771    0.0000 C   0  0  3  0  0  0  0  0  0  0  0  0
    7.3765   -5.8813    0.0000 C   0  0  3  0  0  0  0  0  0  0  0  0
    7.0276   -6.6289    0.0000 C   0  0  3  0  0  0  0  0  0  0  0  0
    9.8187   -6.6787    0.0000 C   0  0  0  0  0  0  0  0  0  0  0  0
    5.7318   -4.4857    0.0000 C   0  0  0  0  0  0  0  0  0  0  0  0
   10.4168   -8.7720    0.0000 C   0  0  0  0  0  0  0  0  0  0  0  0
    5.9311   -3.6882    0.0000 C   0  0  0  0  0  0  0  0  0  0  0  0
    4.8844   -4.2863    0.0000 C   0  0  0  0  0  0  0  0  0  0  0  0
    5.0838   -3.4889    0.0000 C   0  0  0  0  0  0  0  0  0  0  0  0
    6.9778   -5.1835    0.0000 C   0  0  0  0  0  0  0  0  0  0  0  0
    9.1209   -9.3203    0.0000 C   0  0  0  0  0  0  0  0  0  0  0  0
    6.6289   -2.4920    0.0000 C   0  0  0  0  0  0  0  0  0  0  0  0
    5.9311   -2.0435    0.0000 C   0  0  0  0  0  0  0  0  0  0  0  0
    0.6978   -4.7848    0.0000 C   0  0  0  0  0  0  0  0  0  0  0  0
    5.1835   -0.8473    0.0000 C   0  0  0  0  0  0  0  0  0  0  0  0
    1.4454   -5.1835    0.0000 C   0  0  0  0  0  0  0  0  0  0  0  0
    4.4857   -1.2461    0.0000 C   0  0  0  0  0  0  0  0  0  0  0  0
    3.7879   -0.7975    0.0000 C   0  0  0  0  0  0  0  0  0  0  0  0
  1 37  1  0  0  0  0
  2 37  1  0  0  0  0
  3 37  1  0  0  0  0
 21  4  1  1  0  0  0
  4 25  1  0  0  0  0
 24  5  1  6  0  0  0
 26  6  1  6  0  0  0
  7 29  2  0  0  0  0
  8 31  2  0  0  0  0
  9 32  2  0  0  0  0
 10 38  2  0  0  0  0
 11 39  2  0  0  0  0
 12 39  1  0  0  0  0
 13 21  1  0  0  0  0
 13 22  1  0  0  0  0
 13 27  1  0  0  0  0
 14 23  1  0  0  0  0
 14 27  2  0  0  0  0
 15 22  1  0  0  0  0
 15 34  2  0  0  0  0
 16 28  1  0  0  0  0
 16 33  1  0  0  0  0
 17 29  1  0  0  0  0
 17 34  1  0  0  0  0
 18 30  1  0  0  0  0
 18 35  1  0  0  0  0
 19 34  1  0  0  0  0
 20 36  1  0  0  0  0
 20 38  1  0  0  0  0
 21 24  1  0  0  0  0
 22 23  2  0  0  0  0
 23 29  1  0  0  0  0
 24 26  1  0  0  0  0
 25 26  1  0  0  0  0
 25 33  1  1  0  0  0
 28 30  2  0  0  0  0
 28 31  1  0  0  0  0
 30 32  1  0  0  0  0
 31 32  1  0  0  0  0
 35 36  1  0  0  0  0
 37 39  1  0  0  0  0
 38 40  1  0  0  0  0
 40 41  2  0  0  0  0
M  END
> <PUBCHEM_COMPOUND_ID_TYPE>
0

> <PUBCHEM_TOTAL_CHARGE>
0

> <PUBCHEM_SUBSTANCE_ID>
310936447

> <PUBCHEM_SUBSTANCE_VERSION>
1

> <PUBCHEM_EXT_DATASOURCE_NAME>
4488

> <PUBCHEM_EXT_DATASOURCE_REGID>
SCHEMBL16114089

> <PUBCHEM_SUBSTANCE_COMMENT>
InChI=1S/C19H22N8O7.C2HF3O2/c1-2-8(28)21-3-4-22-9-10(14(31)13(9)30)23-5-7-12(29)15(32)18(34-7)27-6-24-11-16(27)25-19(20)26-17(11)33;3-2(4,5)1(6)7/h2,6-7,12,15,18,22-23,29,32H,1,3-5H2,(H,21,28)(H3,20,25,26,33);(H,6,7)/t7-,12-,15-,18-;/m1./s1
InChIKey=GYEREGIGWSTTPN-OCFOYSFASA-N

> <PUBCHEM_SUBSTANCE_SYNONYM>
SCHEMBL16114089

> <PUBCHEM_XREF_EXT_ID>
SCHEMBL16114089

> <PUBCHEM_EXT_DATASOURCE_URL>
https://www.surechembl.org/

> <PUBCHEM_EXT_SUBSTANCE_URL>
https://www.surechembl.org/chemical/SCHEMBL16114089

> <PUBCHEM_CID_ASSOCIATIONS>
117604380  1
6422  2
86300484  2

> <PUBCHEM_COORDINATE_TYPE>
1
3

> <PUBCHEM_BONDANNOTATIONS>
25  33  5
21  4  5
24  5  6
26  6  6

$$$$
