310930858
  -OEChem-07211613022D

 33 36  0     1  0  0  0  0  0999 V2000
   12.1460    1.8161    0.0000 Cl  0  0  0  0  0  0  0  0  0  0  0  0
    7.1447    3.8786    0.0000 S   0  0  0  0  0  0  0  0  0  0  0  0
    5.7628    2.1562    0.0000 S   0  0  0  0  0  0  0  0  0  0  0  0
    7.1447    5.5286    0.0000 F   0  0  0  0  0  0  0  0  0  0  0  0
   10.0026    3.8786    0.0000 F   0  0  0  0  0  0  0  0  0  0  0  0
    7.5572    3.1641    0.0000 O   0  0  0  0  0  0  0  0  0  0  0  0
    6.7322    4.5930    0.0000 O   0  0  0  0  0  0  0  0  0  0  0  0
   10.0026    5.5286    0.0000 O   0  0  0  0  0  0  0  0  0  0  0  0
    6.4302    3.4661    0.0000 N   0  0  0  0  0  0  0  0  0  0  0  0
    7.0977    2.1562    0.0000 N   0  0  0  0  0  0  0  0  0  0  0  0
    6.0177    1.3715    0.0000 N   0  0  0  0  0  0  0  0  0  0  0  0
   12.1460    6.7661    0.0000 N   0  0  0  0  0  0  0  0  0  0  0  0
    7.8592    4.2911    0.0000 C   0  0  0  0  0  0  0  0  0  0  0  0
    7.8592    5.1161    0.0000 C   0  0  0  0  0  0  0  0  0  0  0  0
    8.5737    3.8786    0.0000 C   0  0  0  0  0  0  0  0  0  0  0  0
    6.4302    2.6411    0.0000 C   0  0  0  0  0  0  0  0  0  0  0  0
    9.2881    5.1161    0.0000 C   0  0  0  0  0  0  0  0  0  0  0  0
    9.2881    4.2911    0.0000 C   0  0  0  0  0  0  0  0  0  0  0  0
    8.5737    5.5286    0.0000 C   0  0  0  0  0  0  0  0  0  0  0  0
    5.7158    3.8786    0.0000 C   0  0  0  0  0  0  0  0  0  0  0  0
   11.4315    5.5286    0.0000 C   0  0  3  0  0  0  0  0  0  0  0  0
   12.1460    5.1161    0.0000 C   0  0  3  0  0  0  0  0  0  0  0  0
   10.7171    5.1161    0.0000 C   0  0  0  0  0  0  0  0  0  0  0  0
    6.8427    1.3715    0.0000 C   0  0  0  0  0  0  0  0  0  0  0  0
   12.1460    4.2911    0.0000 C   0  0  0  0  0  0  0  0  0  0  0  0
   11.4315    6.3536    0.0000 C   0  0  0  0  0  0  0  0  0  0  0  0
   12.8605    5.5286    0.0000 C   0  0  0  0  0  0  0  0  0  0  0  0
   12.8605    3.8786    0.0000 C   0  0  0  0  0  0  0  0  0  0  0  0
   11.4315    3.8786    0.0000 C   0  0  0  0  0  0  0  0  0  0  0  0
   12.8605    6.3536    0.0000 C   0  0  0  0  0  0  0  0  0  0  0  0
   12.1460    2.6411    0.0000 C   0  0  0  0  0  0  0  0  0  0  0  0
   12.8605    3.0536    0.0000 C   0  0  0  0  0  0  0  0  0  0  0  0
   11.4315    3.0536    0.0000 C   0  0  0  0  0  0  0  0  0  0  0  0
  1 31  1  0  0  0  0
  2  6  2  0  0  0  0
  2  7  2  0  0  0  0
  2  9  1  0  0  0  0
  2 13  1  0  0  0  0
  3 11  1  0  0  0  0
  3 16  1  0  0  0  0
  4 14  1  0  0  0  0
  5 18  1  0  0  0  0
  8 17  1  0  0  0  0
  8 23  1  0  0  0  0
  9 16  1  0  0  0  0
  9 20  1  0  0  0  0
 10 16  2  0  0  0  0
 10 24  1  0  0  0  0
 11 24  2  0  0  0  0
 12 26  1  0  0  0  0
 12 30  1  0  0  0  0
 13 14  2  0  0  0  0
 13 15  1  0  0  0  0
 14 19  1  0  0  0  0
 15 18  2  0  0  0  0
 17 18  1  0  0  0  0
 17 19  2  0  0  0  0
 21 22  1  0  0  0  0
 21 23  1  0  0  0  0
 21 26  1  0  0  0  0
 22 25  1  0  0  0  0
 22 27  1  0  0  0  0
 25 28  2  0  0  0  0
 25 29  1  0  0  0  0
 27 30  1  0  0  0  0
 28 32  1  0  0  0  0
 29 33  2  0  0  0  0
 31 32  2  0  0  0  0
 31 33  1  0  0  0  0
M  END
> <PUBCHEM_COMPOUND_ID_TYPE>
0

> <PUBCHEM_TOTAL_CHARGE>
0

> <PUBCHEM_SUBSTANCE_ID>
310930858

> <PUBCHEM_SUBSTANCE_VERSION>
1

> <PUBCHEM_EXT_DATASOURCE_NAME>
4488

> <PUBCHEM_EXT_DATASOURCE_REGID>
SCHEMBL16108156

> <PUBCHEM_SUBSTANCE_COMMENT>
InChI=1S/C21H21ClF2N4O3S2/c1-28(21-26-12-27-32-21)33(29,30)20-9-17(23)19(8-18(20)24)31-11-14-10-25-7-6-16(14)13-2-4-15(22)5-3-13/h2-5,8-9,12,14,16,25H,6-7,10-11H2,1H3
InChIKey=RNYFDCRWQGEXOU-UHFFFAOYSA-N

> <PUBCHEM_SUBSTANCE_SYNONYM>
SCHEMBL16108156

> <PUBCHEM_XREF_EXT_ID>
SCHEMBL16108156

> <PUBCHEM_EXT_DATASOURCE_URL>
https://www.surechembl.org/

> <PUBCHEM_EXT_SUBSTANCE_URL>
https://www.surechembl.org/chemical/SCHEMBL16108156

> <PUBCHEM_CID_ASSOCIATIONS>
78111367  1

> <PUBCHEM_COORDINATE_TYPE>
1
3

$$$$
