310944949
  -OEChem-07211613022D

 16 16  0     1  0  0  0  0  0999 V2000
   -1.0729   -1.8758    0.0000 O   0  0  0  0  0  0  0  0  0  0  0  0
    1.3636   -1.8066    0.0000 O   0  0  0  0  0  0  0  0  0  0  0  0
   -2.2358    0.2700    0.0000 O   0  0  0  0  0  0  0  0  0  0  0  0
    0.6299   -0.5468    0.0000 N   0  0  0  0  0  0  0  0  0  0  0  0
   -0.8099    0.2838    0.0000 N   0  0  0  0  0  0  0  0  0  0  0  0
   -0.0761   -0.9622    0.0000 C   0  0  3  0  0  0  0  0  0  0  0  0
   -0.7960   -0.5468    0.0000 C   0  0  3  0  0  0  0  0  0  0  0  0
   -0.2700   -1.7928    0.0000 C   0  0  0  0  0  0  0  0  0  0  0  0
   -1.4190   -1.1283    0.0000 C   0  0  0  0  0  0  0  0  0  0  0  0
    1.3498   -0.9345    0.0000 C   0  0  0  0  0  0  0  0  0  0  0  0
   -1.5159    0.7129    0.0000 C   0  0  0  0  0  0  0  0  0  0  0  0
    2.0143   -0.5330    0.0000 C   0  0  0  0  0  0  0  0  0  0  0  0
   -1.5159    1.5298    0.0000 C   0  0  0  0  0  0  0  0  0  0  0  0
    1.7512   -0.1038    0.0000 C   0  0  0  0  0  0  0  0  0  0  0  0
    2.2911   -0.9345    0.0000 C   0  0  0  0  0  0  0  0  0  0  0  0
   -2.2911    1.8758    0.0000 C   0  0  0  0  0  0  0  0  0  0  0  0
  1  8  1  0  0  0  0
  1  9  1  0  0  0  0
  2 10  2  0  0  0  0
  3 11  2  0  0  0  0
  4  6  1  0  0  0  0
  4 10  1  0  0  0  0
  5  7  1  0  0  0  0
  5 11  1  0  0  0  0
  6  7  1  0  0  0  0
  6  8  1  0  0  0  0
  7  9  1  0  0  0  0
 10 12  1  0  0  0  0
 11 13  1  0  0  0  0
 12 14  1  0  0  0  0
 12 15  1  0  0  0  0
 13 16  2  0  0  0  0
M  END
> <PUBCHEM_COMPOUND_ID_TYPE>
0

> <PUBCHEM_TOTAL_CHARGE>
0

> <PUBCHEM_SUBSTANCE_ID>
310944949

> <PUBCHEM_SUBSTANCE_VERSION>
1

> <PUBCHEM_EXT_DATASOURCE_NAME>
4488

> <PUBCHEM_EXT_DATASOURCE_REGID>
SCHEMBL16123034

> <PUBCHEM_SUBSTANCE_COMMENT>
InChI=1S/C11H18N2O3/c1-4-10(14)12-8-5-16-6-9(8)13-11(15)7(2)3/h4,7-9H,1,5-6H2,2-3H3,(H,12,14)(H,13,15)
InChIKey=ANHJKRKQYGBCAI-UHFFFAOYSA-N

> <PUBCHEM_SUBSTANCE_SYNONYM>
SCHEMBL16123034

> <PUBCHEM_XREF_EXT_ID>
SCHEMBL16123034

> <PUBCHEM_EXT_DATASOURCE_URL>
https://www.surechembl.org/

> <PUBCHEM_EXT_SUBSTANCE_URL>
https://www.surechembl.org/chemical/SCHEMBL16123034

> <PUBCHEM_CID_ASSOCIATIONS>
117611102  1

> <PUBCHEM_COORDINATE_TYPE>
1
3

$$$$
