310944750
  -OEChem-07211613022D

 14 15  0     1  0  0  0  0  0999 V2000
   -2.6613    0.0000    0.0000 Cl  0  0  0  0  0  0  0  0  0  0  0  0
    1.4619    0.0000    0.0000 S   0  0  0  0  0  0  0  0  0  0  0  0
    1.4619   -0.8371    0.0000 O   0  0  0  0  0  0  0  0  0  0  0  0
    1.4619    0.8371    0.0000 O   0  0  0  0  0  0  0  0  0  0  0  0
    0.6497    0.0000    0.0000 N   0  0  0  0  0  0  0  0  0  0  0  0
   -1.9116    0.0000    0.0000 N   0  0  0  0  0  0  0  0  0  0  0  0
   -0.6497   -0.3998    0.0000 C   0  0  3  0  0  0  0  0  0  0  0  0
   -0.6247    0.4248    0.0000 C   0  0  3  0  0  0  0  0  0  0  0  0
    0.1499    0.6747    0.0000 C   0  0  0  0  0  0  0  0  0  0  0  0
    0.1499   -0.6747    0.0000 C   0  0  0  0  0  0  0  0  0  0  0  0
   -1.4119   -0.6747    0.0000 C   0  0  0  0  0  0  0  0  0  0  0  0
   -1.4369    0.6622    0.0000 C   0  0  0  0  0  0  0  0  0  0  0  0
    2.2990    0.0000    0.0000 C   0  0  0  0  0  0  0  0  0  0  0  0
    2.6613    0.7372    0.0000 C   0  0  0  0  0  0  0  0  0  0  0  0
  1  6  1  0  0  0  0
  2  3  2  0  0  0  0
  2  4  2  0  0  0  0
  2  5  1  0  0  0  0
  2 13  1  0  0  0  0
  5  9  1  0  0  0  0
  5 10  1  0  0  0  0
  6 11  1  0  0  0  0
  6 12  1  0  0  0  0
  7  8  1  0  0  0  0
  7 10  1  0  0  0  0
  7 11  1  0  0  0  0
  8  9  1  0  0  0  0
  8 12  1  0  0  0  0
 13 14  2  0  0  0  0
M  END
> <PUBCHEM_COMPOUND_ID_TYPE>
0

> <PUBCHEM_TOTAL_CHARGE>
0

> <PUBCHEM_SUBSTANCE_ID>
310944750

> <PUBCHEM_SUBSTANCE_VERSION>
1

> <PUBCHEM_EXT_DATASOURCE_NAME>
4488

> <PUBCHEM_EXT_DATASOURCE_REGID>
SCHEMBL16122829

> <PUBCHEM_SUBSTANCE_COMMENT>
InChI=1S/C8H13ClN2O2S/c1-2-14(12,13)11-5-7-3-10(9)4-8(7)6-11/h2,7-8H,1,3-6H2
InChIKey=HBZBNLFVLIKETO-UHFFFAOYSA-N

> <PUBCHEM_SUBSTANCE_SYNONYM>
SCHEMBL16122829

> <PUBCHEM_XREF_EXT_ID>
SCHEMBL16122829

> <PUBCHEM_EXT_DATASOURCE_URL>
https://www.surechembl.org/

> <PUBCHEM_EXT_SUBSTANCE_URL>
https://www.surechembl.org/chemical/SCHEMBL16122829

> <PUBCHEM_CID_ASSOCIATIONS>
117610966  1

> <PUBCHEM_COORDINATE_TYPE>
1
3

$$$$
