310929944
  -OEChem-07211613022D

 26 27  0     1  0  0  0  0  0999 V2000
    4.2768    0.3968    0.0000 O   0  0  0  0  0  0  0  0  0  0  0  0
    5.1446   -2.4484    0.0000 O   0  0  0  0  0  0  0  0  0  0  0  0
    6.5950   -2.5866    0.0000 O   0  0  0  0  0  0  0  0  0  0  0  0
    4.9259   -1.2416    0.0000 O   0  0  0  0  0  0  0  0  0  0  0  0
    5.2803   -0.8259    0.0000 O   0  0  0  0  0  0  0  0  0  0  0  0
    5.4738    1.1978    0.0000 O   0  0  0  0  0  0  0  0  0  0  0  0
    2.0452   -1.0181    0.0000 N   0  0  3  0  0  0  0  0  0  0  0  0
    6.3712   -1.7155    0.0000 C   0  0  3  0  0  0  0  0  0  0  0  0
    6.7730   -0.9949    0.0000 C   0  0  3  0  0  0  0  0  0  0  0  0
    5.5463   -1.7278    0.0000 C   0  0  0  0  0  0  0  0  0  0  0  0
    4.2983   -1.0320    0.0000 C   0  0  0  0  0  0  0  0  0  0  0  0
    3.8751   -0.3238    0.0000 C   0  0  3  0  0  0  0  0  0  0  0  0
    3.8965   -1.7526    0.0000 C   0  0  0  0  0  0  0  0  0  0  0  0
    5.5249   -0.2991    0.0000 C   0  0  0  0  0  0  0  0  0  0  0  0
    6.3498   -0.2867    0.0000 C   0  0  0  0  0  0  0  0  0  0  0  0
    5.1017    0.4091    0.0000 C   0  0  0  0  0  0  0  0  0  0  0  0
    4.3197   -2.4608    0.0000 C   0  0  0  0  0  0  0  0  0  0  0  0
    3.1068    0.0759    0.0000 C   0  0  0  0  0  0  0  0  0  0  0  0
    7.2250   -2.0069    0.0000 C   0  0  0  0  0  0  0  0  0  0  0  0
    3.1392   -2.0797    0.0000 C   0  0  0  0  0  0  0  0  0  0  0  0
    7.6406   -0.8368    0.0000 C   0  0  0  0  0  0  0  0  0  0  0  0
    4.7068   -0.7847    0.0000 C   0  0  0  0  0  0  0  0  0  0  0  0
    2.3494   -0.2512    0.0000 C   0  0  0  0  0  0  0  0  0  0  0  0
    2.3723   -1.7755    0.0000 C   0  0  0  0  0  0  0  0  0  0  0  0
    1.1831   -1.0310    0.0000 C   0  0  0  0  0  0  0  0  0  0  0  0
    4.9483   -1.8533    0.0000 C   0  0  0  0  0  0  0  0  0  0  0  0
  1 12  1  0  0  0  0
  1 16  1  0  0  0  0
  2 10  1  0  0  0  0
  2 17  1  0  0  0  0
  3  8  1  0  0  0  0
  4 10  2  0  0  0  0
  5 11  2  0  0  0  0
  6 16  2  0  0  0  0
  7 23  1  0  0  0  0
  7 24  1  0  0  0  0
  7 25  1  0  0  0  0
  8  9  1  0  0  0  0
  8 10  1  0  0  0  0
  8 19  1  0  0  0  0
  9 15  1  0  0  0  0
  9 21  1  0  0  0  0
 11 12  1  0  0  0  0
 11 13  1  0  0  0  0
 12 18  1  0  0  0  0
 13 17  1  0  0  0  0
 13 20  2  0  0  0  0
 14 15  1  0  0  0  0
 14 16  1  0  0  0  0
 14 22  2  0  0  0  0
 18 23  1  0  0  0  0
 20 24  1  0  0  0  0
 22 26  1  0  0  0  0
M  END
> <PUBCHEM_COMPOUND_ID_TYPE>
0

> <PUBCHEM_TOTAL_CHARGE>
0

> <PUBCHEM_SUBSTANCE_ID>
310929944

> <PUBCHEM_SUBSTANCE_VERSION>
1

> <PUBCHEM_EXT_DATASOURCE_NAME>
4488

> <PUBCHEM_EXT_DATASOURCE_REGID>
SCHEMBL16107166

> <PUBCHEM_SUBSTANCE_COMMENT>
InChI=1S/C19H27NO6/c1-5-13-10-12(2)19(3,24)18(23)25-11-14-6-8-20(4)9-7-15(16(14)21)26-17(13)22/h5-6,12,15,24H,7-11H2,1-4H3/b13-5+,14-6-
InChIKey=HPDHKHMHQGCNPE-LSMSNJBFSA-N

> <PUBCHEM_SUBSTANCE_SYNONYM>
SCHEMBL16107166

> <PUBCHEM_XREF_EXT_ID>
SCHEMBL16107166

> <PUBCHEM_EXT_DATASOURCE_URL>
https://www.surechembl.org/

> <PUBCHEM_EXT_SUBSTANCE_URL>
https://www.surechembl.org/chemical/SCHEMBL16107166

> <PUBCHEM_CID_ASSOCIATIONS>
6305177  1

> <PUBCHEM_COORDINATE_TYPE>
1
3

$$$$
