310943734
  -OEChem-07211613022D

 23 25  0     1  0  0  0  0  0999 V2000
    3.4815    0.8259    0.0000 S   0  0  0  0  0  0  0  0  0  0  0  0
    3.7519    1.8226    0.0000 O   0  0  0  0  0  0  0  0  0  0  0  0
    4.3927    0.3132    0.0000 O   0  0  0  0  0  0  0  0  0  0  0  0
    2.0433    0.0142    0.0000 N   0  0  0  0  0  0  0  0  0  0  0  0
   -1.7585   -1.3527    0.0000 N   0  0  3  0  0  0  0  0  0  0  0  0
   -3.5526   -0.8116    0.0000 N   0  0  3  0  0  0  0  0  0  0  0  0
    1.1178   -0.5268    0.0000 C   0  0  0  0  0  0  0  0  0  0  0  0
    2.7695   -0.4129    0.0000 C   0  0  0  0  0  0  0  0  0  0  0  0
    2.0575    0.8401    0.0000 C   0  0  0  0  0  0  0  0  0  0  0  0
    3.4815    0.0000    0.0000 C   0  0  0  0  0  0  0  0  0  0  0  0
    2.7410    1.2246    0.0000 C   0  0  0  0  0  0  0  0  0  0  0  0
   -0.3204   -1.3527    0.0000 C   0  0  0  0  0  0  0  0  0  0  0  0
    0.3916   -0.1139    0.0000 C   0  0  0  0  0  0  0  0  0  0  0  0
    1.1178   -1.3385    0.0000 C   0  0  0  0  0  0  0  0  0  0  0  0
   -0.3062   -0.5126    0.0000 C   0  0  0  0  0  0  0  0  0  0  0  0
    0.4201   -1.7372    0.0000 C   0  0  0  0  0  0  0  0  0  0  0  0
   -1.0181   -1.7656    0.0000 C   0  0  0  0  0  0  0  0  0  0  0  0
   -2.4278   -1.8226    0.0000 C   0  0  0  0  0  0  0  0  0  0  0  0
   -1.7015   -0.5268    0.0000 C   0  0  0  0  0  0  0  0  0  0  0  0
   -3.2536   -1.5805    0.0000 C   0  0  0  0  0  0  0  0  0  0  0  0
   -2.2996    0.0285    0.0000 C   0  0  0  0  0  0  0  0  0  0  0  0
   -3.1397   -0.0997    0.0000 C   0  0  0  0  0  0  0  0  0  0  0  0
   -4.3927   -0.8259    0.0000 C   0  0  0  0  0  0  0  0  0  0  0  0
  1  2  2  0  0  0  0
  1  3  2  0  0  0  0
  1 10  1  0  0  0  0
  1 11  1  0  0  0  0
  4  7  1  0  0  0  0
  4  8  1  0  0  0  0
  4  9  1  0  0  0  0
  5 17  1  0  0  0  0
  5 18  1  0  0  0  0
  5 19  1  0  0  0  0
  6 20  1  0  0  0  0
  6 22  1  0  0  0  0
  6 23  1  0  0  0  0
  7 13  2  0  0  0  0
  7 14  1  0  0  0  0
  8 10  1  0  0  0  0
  9 11  1  0  0  0  0
 12 15  2  0  0  0  0
 12 16  1  0  0  0  0
 12 17  1  0  0  0  0
 13 15  1  0  0  0  0
 14 16  2  0  0  0  0
 18 20  1  0  0  0  0
 19 21  1  0  0  0  0
 21 22  1  0  0  0  0
M  END
> <PUBCHEM_COMPOUND_ID_TYPE>
0

> <PUBCHEM_TOTAL_CHARGE>
0

> <PUBCHEM_SUBSTANCE_ID>
310943734

> <PUBCHEM_SUBSTANCE_VERSION>
1

> <PUBCHEM_EXT_DATASOURCE_NAME>
4488

> <PUBCHEM_EXT_DATASOURCE_REGID>
SCHEMBL16121802

> <PUBCHEM_SUBSTANCE_COMMENT>
InChI=1S/C17H27N3O2S/c1-18-7-2-8-19(10-9-18)15-16-3-5-17(6-4-16)20-11-13-23(21,22)14-12-20/h3-6H,2,7-15H2,1H3
InChIKey=SRPAUXAVCPCLIE-UHFFFAOYSA-N

> <PUBCHEM_SUBSTANCE_SYNONYM>
SCHEMBL16121802

> <PUBCHEM_XREF_EXT_ID>
SCHEMBL16121802

> <PUBCHEM_EXT_DATASOURCE_URL>
https://www.surechembl.org/

> <PUBCHEM_EXT_SUBSTANCE_URL>
https://www.surechembl.org/chemical/SCHEMBL16121802

> <PUBCHEM_CID_ASSOCIATIONS>
86300184  1

> <PUBCHEM_COORDINATE_TYPE>
1
3

$$$$
