310933848
  -OEChem-07211613022D

 15 16  0     1  0  0  0  0  0999 V2000
    2.1122   -4.4941    0.0000 Br  0  0  0  0  0  0  0  0  0  0  0  0
    0.0225   -0.8314    0.0000 O   0  0  0  0  0  0  0  0  0  0  0  0
    1.4381   -0.8314    0.0000 O   0  0  0  0  0  0  0  0  0  0  0  0
    0.0000   -2.4493    0.0000 N   0  0  0  0  0  0  0  0  0  0  0  0
    1.4381   -2.4493    0.0000 C   0  0  0  0  0  0  0  0  0  0  0  0
    1.4381   -3.2807    0.0000 C   0  0  0  0  0  0  0  0  0  0  0  0
    0.7190   -2.0448    0.0000 C   0  0  3  0  0  0  0  0  0  0  0  0
    2.1122   -3.6852    0.0000 C   0  0  0  0  0  0  0  0  0  0  0  0
    0.7190   -1.2134    0.0000 C   0  0  0  0  0  0  0  0  0  0  0  0
    2.1122   -2.0448    0.0000 C   0  0  0  0  0  0  0  0  0  0  0  0
    0.7190   -3.6852    0.0000 C   0  0  0  0  0  0  0  0  0  0  0  0
    0.0000   -3.2807    0.0000 C   0  0  0  0  0  0  0  0  0  0  0  0
    2.8313   -3.2807    0.0000 C   0  0  0  0  0  0  0  0  0  0  0  0
    2.8313   -2.4493    0.0000 C   0  0  0  0  0  0  0  0  0  0  0  0
    0.0225    0.0000    0.0000 C   0  0  0  0  0  0  0  0  0  0  0  0
  1  8  1  0  0  0  0
  2  9  1  0  0  0  0
  2 15  1  0  0  0  0
  3  9  2  0  0  0  0
  4  7  1  0  0  0  0
  4 12  1  0  0  0  0
  5  6  2  0  0  0  0
  5  7  1  0  0  0  0
  5 10  1  0  0  0  0
  6  8  1  0  0  0  0
  6 11  1  0  0  0  0
  7  9  1  0  0  0  0
  8 13  2  0  0  0  0
 10 14  2  0  0  0  0
 11 12  1  0  0  0  0
 13 14  1  0  0  0  0
M  END
> <PUBCHEM_COMPOUND_ID_TYPE>
0

> <PUBCHEM_TOTAL_CHARGE>
0

> <PUBCHEM_SUBSTANCE_ID>
310933848

> <PUBCHEM_SUBSTANCE_VERSION>
1

> <PUBCHEM_EXT_DATASOURCE_NAME>
4488

> <PUBCHEM_EXT_DATASOURCE_REGID>
SCHEMBL16111286

> <PUBCHEM_SUBSTANCE_COMMENT>
InChI=1S/C11H12BrNO2/c1-15-11(14)10-8-3-2-4-9(12)7(8)5-6-13-10/h2-4,10,13H,5-6H2,1H3
InChIKey=ANELNHZPLJVXGC-UHFFFAOYSA-N

> <PUBCHEM_SUBSTANCE_SYNONYM>
SCHEMBL16111286

> <PUBCHEM_XREF_EXT_ID>
SCHEMBL16111286

> <PUBCHEM_EXT_DATASOURCE_URL>
https://www.surechembl.org/

> <PUBCHEM_EXT_SUBSTANCE_URL>
https://www.surechembl.org/chemical/SCHEMBL16111286

> <PUBCHEM_CID_ASSOCIATIONS>
82579807  1

> <PUBCHEM_COORDINATE_TYPE>
1
3

$$$$
