310934800
  -OEChem-07211613022D

 32 35  0     1  0  0  0  0  0999 V2000
    5.4957   -1.5229    0.0000 Cl  0  0  0  0  0  0  0  0  0  0  0  0
    1.4743   -2.1191    0.0000 O   0  0  0  0  0  0  0  0  0  0  0  0
   -0.0136   -0.2130    0.0000 O   0  0  0  0  0  0  0  0  0  0  0  0
    0.1689   -2.7003    0.0000 O   0  0  0  0  0  0  0  0  0  0  0  0
   -1.0047   -2.6029    0.0000 O   0  0  0  0  0  0  0  0  0  0  0  0
   -2.4336   -1.7779    0.0000 O   0  0  0  0  0  0  0  0  0  0  0  0
    1.1387   -0.0305    0.0000 N   0  0  0  0  0  0  0  0  0  0  0  0
    1.1387   -1.3654    0.0000 C   0  0  3  0  0  0  0  0  0  0  0  0
    1.9233   -1.1104    0.0000 C   0  0  0  0  0  0  0  0  0  0  0  0
    0.6538   -0.6979    0.0000 C   0  0  0  0  0  0  0  0  0  0  0  0
    1.9233   -0.2854    0.0000 C   0  0  0  0  0  0  0  0  0  0  0  0
    0.4243   -1.7779    0.0000 C   0  0  0  0  0  0  0  0  0  0  0  0
    2.6378   -1.5229    0.0000 C   0  0  0  0  0  0  0  0  0  0  0  0
   -0.2902   -1.3654    0.0000 C   0  0  0  0  0  0  0  0  0  0  0  0
    2.6378    0.1271    0.0000 C   0  0  0  0  0  0  0  0  0  0  0  0
    3.3523   -1.1104    0.0000 C   0  0  0  0  0  0  0  0  0  0  0  0
    0.9894   -2.7865    0.0000 C   0  0  0  0  0  0  0  0  0  0  0  0
   -1.0047   -1.7779    0.0000 C   0  0  0  0  0  0  0  0  0  0  0  0
    3.3523   -0.2854    0.0000 C   0  0  0  0  0  0  0  0  0  0  0  0
    1.3249   -3.5402    0.0000 C   0  0  0  0  0  0  0  0  0  0  0  0
   -0.2902   -0.5404    0.0000 C   0  0  0  0  0  0  0  0  0  0  0  0
   -1.7192   -1.3654    0.0000 C   0  0  0  0  0  0  0  0  0  0  0  0
    4.0668   -1.5229    0.0000 C   0  0  0  0  0  0  0  0  0  0  0  0
   -1.0047   -0.1279    0.0000 C   0  0  0  0  0  0  0  0  0  0  0  0
   -1.7192   -0.5404    0.0000 C   0  0  0  0  0  0  0  0  0  0  0  0
    2.1454   -3.6264    0.0000 C   0  0  0  0  0  0  0  0  0  0  0  0
    0.8400   -4.2076    0.0000 C   0  0  0  0  0  0  0  0  0  0  0  0
    4.7812   -1.1104    0.0000 C   0  0  0  0  0  0  0  0  0  0  0  0
    2.4810   -4.3801    0.0000 C   0  0  0  0  0  0  0  0  0  0  0  0
    1.1755   -4.9613    0.0000 C   0  0  0  0  0  0  0  0  0  0  0  0
    1.9960   -5.0475    0.0000 C   0  0  0  0  0  0  0  0  0  0  0  0
   -3.1481   -1.3654    0.0000 C   0  0  0  0  0  0  0  0  0  0  0  0
  1 28  1  0  0  0  0
  2  8  1  0  0  0  0
  2 17  1  0  0  0  0
  3 10  2  0  0  0  0
  4 17  2  0  0  0  0
  5 18  1  0  0  0  0
  6 22  1  0  0  0  0
  6 32  1  0  0  0  0
  7 10  1  0  0  0  0
  7 11  1  0  0  0  0
  8  9  1  0  0  0  0
  8 10  1  0  0  0  0
  8 12  1  0  0  0  0
  9 11  1  0  0  0  0
  9 13  2  0  0  0  0
 11 15  2  0  0  0  0
 12 14  1  0  0  0  0
 13 16  1  0  0  0  0
 14 18  2  0  0  0  0
 14 21  1  0  0  0  0
 15 19  1  0  0  0  0
 16 19  2  0  0  0  0
 16 23  1  0  0  0  0
 17 20  1  0  0  0  0
 18 22  1  0  0  0  0
 20 26  2  0  0  0  0
 20 27  1  0  0  0  0
 21 24  2  0  0  0  0
 22 25  2  0  0  0  0
 23 28  1  0  0  0  0
 24 25  1  0  0  0  0
 26 29  1  0  0  0  0
 27 30  2  0  0  0  0
 29 31  2  0  0  0  0
 30 31  1  0  0  0  0
M  END
> <PUBCHEM_COMPOUND_ID_TYPE>
0

> <PUBCHEM_TOTAL_CHARGE>
0

> <PUBCHEM_SUBSTANCE_ID>
310934800

> <PUBCHEM_SUBSTANCE_VERSION>
1

> <PUBCHEM_EXT_DATASOURCE_NAME>
4488

> <PUBCHEM_EXT_DATASOURCE_REGID>
SCHEMBL16112304

> <PUBCHEM_SUBSTANCE_COMMENT>
InChI=1S/C25H22ClNO5/c1-31-21-9-5-8-18(22(21)28)15-25(32-23(29)17-6-3-2-4-7-17)19-14-16(12-13-26)10-11-20(19)27-24(25)30/h2-11,14,28H,12-13,15H2,1H3,(H,27,30)
InChIKey=UXHCBDSGTZBXAY-UHFFFAOYSA-N

> <PUBCHEM_SUBSTANCE_SYNONYM>
SCHEMBL16112304

> <PUBCHEM_XREF_EXT_ID>
SCHEMBL16112304

> <PUBCHEM_EXT_DATASOURCE_URL>
https://www.surechembl.org/

> <PUBCHEM_EXT_SUBSTANCE_URL>
https://www.surechembl.org/chemical/SCHEMBL16112304

> <PUBCHEM_CID_ASSOCIATIONS>
117602946  1

> <PUBCHEM_COORDINATE_TYPE>
1
3

$$$$
