310945512
  -OEChem-07211613022D

 24 26  0     1  0  0  0  0  0999 V2000
    2.6798    0.0364    0.0000 F   0  0  0  0  0  0  0  0  0  0  0  0
    2.1992   -0.9831    0.0000 F   0  0  0  0  0  0  0  0  0  0  0  0
    1.1652   -0.4878    0.0000 F   0  0  0  0  0  0  0  0  0  0  0  0
   -2.6798    1.0996    0.0000 O   0  0  0  0  0  0  0  0  0  0  0  0
    0.1311    0.3423    0.0000 N   0  0  0  0  0  0  0  0  0  0  0  0
    2.1555    1.2598    0.0000 N   0  0  0  0  0  0  0  0  0  0  0  0
   -0.5680   -1.7841    0.0000 N   0  0  0  0  0  0  0  0  0  0  0  0
    0.7864    0.8374    0.0000 C   0  0  0  0  0  0  0  0  0  0  0  0
    0.5388    1.5947    0.0000 C   0  0  0  0  0  0  0  0  0  0  0  0
   -0.5534    0.8229    0.0000 C   0  0  0  0  0  0  0  0  0  0  0  0
   -0.2913    1.6093    0.0000 C   0  0  0  0  0  0  0  0  0  0  0  0
    1.6020    0.6481    0.0000 C   0  0  0  0  0  0  0  0  0  0  0  0
    1.9079   -0.2257    0.0000 C   0  0  0  0  0  0  0  0  0  0  0  0
    1.0924    2.2065    0.0000 C   0  0  0  0  0  0  0  0  0  0  0  0
   -1.3399    0.6626    0.0000 C   0  0  0  0  0  0  0  0  0  0  0  0
    0.1311   -0.4878    0.0000 C   0  0  0  0  0  0  0  0  0  0  0  0
   -0.8302    2.1919    0.0000 C   0  0  0  0  0  0  0  0  0  0  0  0
    1.9079    2.0317    0.0000 C   0  0  0  0  0  0  0  0  0  0  0  0
   -1.8788    1.2744    0.0000 C   0  0  0  0  0  0  0  0  0  0  0  0
   -1.6312    2.0462    0.0000 C   0  0  0  0  0  0  0  0  0  0  0  0
   -0.5534   -0.9540    0.0000 C   0  0  3  0  0  0  0  0  0  0  0  0
   -1.2817   -0.5607    0.0000 C   0  0  0  0  0  0  0  0  0  0  0  0
    0.1602   -2.2065    0.0000 C   0  0  0  0  0  0  0  0  0  0  0  0
   -1.2963   -2.2065    0.0000 C   0  0  0  0  0  0  0  0  0  0  0  0
  1 13  1  0  0  0  0
  2 13  1  0  0  0  0
  3 13  1  0  0  0  0
  4 19  1  0  0  0  0
  5  8  1  0  0  0  0
  5 10  1  0  0  0  0
  5 16  1  0  0  0  0
  6 12  2  0  0  0  0
  6 18  1  0  0  0  0
  7 21  1  0  0  0  0
  7 23  1  0  0  0  0
  7 24  1  0  0  0  0
  8  9  2  0  0  0  0
  8 12  1  0  0  0  0
  9 11  1  0  0  0  0
  9 14  1  0  0  0  0
 10 11  2  0  0  0  0
 10 15  1  0  0  0  0
 11 17  1  0  0  0  0
 12 13  1  0  0  0  0
 14 18  2  0  0  0  0
 15 19  2  0  0  0  0
 16 21  1  0  0  0  0
 17 20  2  0  0  0  0
 19 20  1  0  0  0  0
 21 22  1  0  0  0  0
M  END
> <PUBCHEM_COMPOUND_ID_TYPE>
0

> <PUBCHEM_TOTAL_CHARGE>
0

> <PUBCHEM_SUBSTANCE_ID>
310945512

> <PUBCHEM_SUBSTANCE_VERSION>
1

> <PUBCHEM_EXT_DATASOURCE_NAME>
4488

> <PUBCHEM_EXT_DATASOURCE_REGID>
SCHEMBL16123610

> <PUBCHEM_SUBSTANCE_COMMENT>
InChI=1S/C17H18F3N3O/c1-10(22(2)3)9-23-14-8-11(24)4-5-12(14)13-6-7-21-16(15(13)23)17(18,19)20/h4-8,10,24H,9H2,1-3H3
InChIKey=GYAJMJRHVZAGQB-UHFFFAOYSA-N

> <PUBCHEM_SUBSTANCE_SYNONYM>
SCHEMBL16123610

> <PUBCHEM_XREF_EXT_ID>
SCHEMBL16123610

> <PUBCHEM_EXT_DATASOURCE_URL>
https://www.surechembl.org/

> <PUBCHEM_EXT_SUBSTANCE_URL>
https://www.surechembl.org/chemical/SCHEMBL16123610

> <PUBCHEM_CID_ASSOCIATIONS>
117611553  1

> <PUBCHEM_COORDINATE_TYPE>
1
3

$$$$
