310933584
  -OEChem-07211613022D

 34 38  0     1  0  0  0  0  0999 V2000
    3.5312   -4.1912    0.0000 F   0  0  0  0  0  0  0  0  0  0  0  0
    5.1153   -1.3531    0.0000 F   0  0  0  0  0  0  0  0  0  0  0  0
    1.0230    0.0000    0.0000 F   0  0  0  0  0  0  0  0  0  0  0  0
    1.8481   -2.8051    0.0000 O   0  0  0  0  0  0  0  0  0  0  0  0
    0.0000   -5.5113    0.0000 O   0  0  0  0  0  0  0  0  0  0  0  0
    5.4783   -4.4222    0.0000 O   0  0  0  0  0  0  0  0  0  0  0  0
    4.1912   -3.7622    0.0000 N   0  0  0  0  0  0  0  0  0  0  0  0
    4.1912   -5.0822    0.0000 N   0  0  0  0  0  0  0  0  0  0  0  0
    1.4521   -2.1121    0.0000 N   0  0  0  0  0  0  0  0  0  0  0  0
    0.3960   -6.2373    0.0000 N   0  0  0  0  0  0  0  0  0  0  0  0
    2.6731   -2.7721    0.0000 C   0  0  3  0  0  0  0  0  0  0  0  0
    2.6731   -3.5972    0.0000 C   0  0  0  0  0  0  0  0  0  0  0  0
    3.3992   -3.9932    0.0000 C   0  0  0  0  0  0  0  0  0  0  0  0
    3.4981   -2.7721    0.0000 C   0  0  0  0  0  0  0  0  0  0  0  0
    2.2771   -2.0791    0.0000 C   0  0  0  0  0  0  0  0  0  0  0  0
    3.3992   -4.8513    0.0000 C   0  0  0  0  0  0  0  0  0  0  0  0
    2.0131   -3.9932    0.0000 C   0  0  0  0  0  0  0  0  0  0  0  0
    2.0131   -4.8513    0.0000 C   0  0  0  0  0  0  0  0  0  0  0  0
    2.6731   -5.2473    0.0000 C   0  0  0  0  0  0  0  0  0  0  0  0
    1.2871   -5.2473    0.0000 C   0  0  0  0  0  0  0  0  0  0  0  0
    3.9272   -3.4652    0.0000 C   0  0  0  0  0  0  0  0  0  0  0  0
    3.8942   -2.0461    0.0000 C   0  0  0  0  0  0  0  0  0  0  0  0
    4.6532   -4.4222    0.0000 C   0  0  0  0  0  0  0  0  0  0  0  0
    2.6731   -1.3861    0.0000 C   0  0  0  0  0  0  0  0  0  0  0  0
    0.5610   -4.9172    0.0000 C   0  0  0  0  0  0  0  0  0  0  0  0
    1.2211   -6.0393    0.0000 C   0  0  0  0  0  0  0  0  0  0  0  0
    4.7192   -2.0461    0.0000 C   0  0  0  0  0  0  0  0  0  0  0  0
    4.7192   -3.4652    0.0000 C   0  0  0  0  0  0  0  0  0  0  0  0
    1.0230   -1.4191    0.0000 C   0  0  0  0  0  0  0  0  0  0  0  0
    2.2111   -0.6931    0.0000 C   0  0  0  0  0  0  0  0  0  0  0  0
    5.1153   -2.7721    0.0000 C   0  0  0  0  0  0  0  0  0  0  0  0
    1.4191   -0.6931    0.0000 C   0  0  0  0  0  0  0  0  0  0  0  0
    0.3630   -4.1252    0.0000 C   0  0  0  0  0  0  0  0  0  0  0  0
    1.8151   -6.6003    0.0000 C   0  0  0  0  0  0  0  0  0  0  0  0
  1 21  1  0  0  0  0
  2 27  1  0  0  0  0
  3 32  1  0  0  0  0
  4 11  1  0  0  0  0
  5 10  1  0  0  0  0
  5 25  1  0  0  0  0
  6 23  2  0  0  0  0
  7 13  1  0  0  0  0
  7 23  1  0  0  0  0
  8 16  1  0  0  0  0
  8 23  1  0  0  0  0
  9 15  1  0  0  0  0
  9 29  2  0  0  0  0
 10 26  2  0  0  0  0
 11 12  1  0  0  0  0
 11 14  1  0  0  0  0
 11 15  1  0  0  0  0
 12 13  1  0  0  0  0
 12 17  2  0  0  0  0
 13 16  2  0  0  0  0
 14 21  1  0  0  0  0
 14 22  2  0  0  0  0
 15 24  2  0  0  0  0
 16 19  1  0  0  0  0
 17 18  1  0  0  0  0
 18 19  2  0  0  0  0
 18 20  1  0  0  0  0
 20 25  2  0  0  0  0
 20 26  1  0  0  0  0
 21 28  2  0  0  0  0
 22 27  1  0  0  0  0
 24 30  1  0  0  0  0
 25 33  1  0  0  0  0
 26 34  1  0  0  0  0
 27 31  2  0  0  0  0
 28 31  1  0  0  0  0
 29 32  1  0  0  0  0
 30 32  2  0  0  0  0
M  END
> <PUBCHEM_COMPOUND_ID_TYPE>
0

> <PUBCHEM_TOTAL_CHARGE>
0

> <PUBCHEM_SUBSTANCE_ID>
310933584

> <PUBCHEM_SUBSTANCE_VERSION>
1

> <PUBCHEM_EXT_DATASOURCE_NAME>
4488

> <PUBCHEM_EXT_DATASOURCE_REGID>
SCHEMBL16111011

> <PUBCHEM_SUBSTANCE_COMMENT>
InChI=1S/C24H17F3N4O3/c1-11-21(12(2)34-31-11)13-7-17(22-19(8-13)29-23(32)30-22)24(33,20-6-4-15(26)10-28-20)16-9-14(25)3-5-18(16)27/h3-10,33H,1-2H3,(H2,29,30,32)
InChIKey=WIUFLAQDCAJDPY-UHFFFAOYSA-N

> <PUBCHEM_SUBSTANCE_SYNONYM>
SCHEMBL16111011

> <PUBCHEM_XREF_EXT_ID>
SCHEMBL16111011

> <PUBCHEM_EXT_DATASOURCE_URL>
https://www.surechembl.org/

> <PUBCHEM_EXT_SUBSTANCE_URL>
https://www.surechembl.org/chemical/SCHEMBL16111011

> <PUBCHEM_CID_ASSOCIATIONS>
86296773  1

> <PUBCHEM_COORDINATE_TYPE>
1
3

$$$$
