310933091
  -OEChem-07211613022D

 30 33  0     1  0  0  0  0  0999 V2000
    3.9723   -2.1084    0.0000 O   0  0  0  0  0  0  0  0  0  0  0  0
    8.4335   -2.2000    0.0000 O   0  0  0  0  0  0  0  0  0  0  0  0
    9.1058   -5.1335    0.0000 O   0  0  0  0  0  0  0  0  0  0  0  0
    4.8890   -0.9778    0.0000 N   0  0  0  0  0  0  0  0  0  0  0  0
    4.7973   -0.1528    0.0000 N   0  0  0  0  0  0  0  0  0  0  0  0
    6.2946   -0.9778    0.0000 N   0  0  0  0  0  0  0  0  0  0  0  0
    7.7307   -3.4223    0.0000 N   0  0  0  0  0  0  0  0  0  0  0  0
    0.0000   -1.8334    0.0000 N   0  0  0  0  0  0  0  0  0  0  0  0
    4.1556   -1.3139    0.0000 C   0  0  0  0  0  0  0  0  0  0  0  0
    3.5751   -0.7028    0.0000 C   0  0  0  0  0  0  0  0  0  0  0  0
    5.5918   -1.3750    0.0000 C   0  0  0  0  0  0  0  0  0  0  0  0
    2.7806   -0.7945    0.0000 C   0  0  0  0  0  0  0  0  0  0  0  0
    3.9723    0.0000    0.0000 C   0  0  0  0  0  0  0  0  0  0  0  0
    6.9974   -2.2000    0.0000 C   0  0  0  0  0  0  0  0  0  0  0  0
    5.5918   -2.2000    0.0000 C   0  0  0  0  0  0  0  0  0  0  0  0
    6.9974   -1.3750    0.0000 C   0  0  0  0  0  0  0  0  0  0  0  0
    6.2946   -2.5973    0.0000 C   0  0  0  0  0  0  0  0  0  0  0  0
    2.4445   -1.5584    0.0000 C   0  0  0  0  0  0  0  0  0  0  0  0
    2.2611   -0.1528    0.0000 C   0  0  0  0  0  0  0  0  0  0  0  0
    7.7307   -2.5973    0.0000 C   0  0  0  0  0  0  0  0  0  0  0  0
    1.1306   -0.9778    0.0000 C   0  0  0  0  0  0  0  0  0  0  0  0
    1.6195   -1.6501    0.0000 C   0  0  0  0  0  0  0  0  0  0  0  0
    1.4667   -0.2445    0.0000 C   0  0  0  0  0  0  0  0  0  0  0  0
    8.4335   -3.8501    0.0000 C   0  0  3  0  0  0  0  0  0  0  0  0
    8.4335   -4.6446    0.0000 C   0  0  3  0  0  0  0  0  0  0  0  0
    7.7918   -5.1335    0.0000 C   0  0  0  0  0  0  0  0  0  0  0  0
    0.3056   -1.0695    0.0000 C   0  0  0  0  0  0  0  0  0  0  0  0
    8.8613   -5.9279    0.0000 C   0  0  0  0  0  0  0  0  0  0  0  0
    8.0363   -5.9279    0.0000 C   0  0  0  0  0  0  0  0  0  0  0  0
    9.1669   -3.4223    0.0000 C   0  0  0  0  0  0  0  0  0  0  0  0
  1  9  1  0  0  0  0
  2 20  2  0  0  0  0
  3 25  1  0  0  0  0
  3 28  1  0  0  0  0
  4  5  1  0  0  0  0
  4  9  1  0  0  0  0
  4 11  1  0  0  0  0
  5 13  2  0  0  0  0
  6 11  2  0  0  0  0
  6 16  1  0  0  0  0
  7 20  1  0  0  0  0
  7 24  1  0  0  0  0
  8 27  3  0  0  0  0
  9 10  2  0  0  0  0
 10 12  1  0  0  0  0
 10 13  1  0  0  0  0
 11 15  1  0  0  0  0
 12 18  2  0  0  0  0
 12 19  1  0  0  0  0
 14 16  2  0  0  0  0
 14 17  1  0  0  0  0
 14 20  1  0  0  0  0
 15 17  2  0  0  0  0
 18 22  1  0  0  0  0
 19 23  2  0  0  0  0
 21 22  2  0  0  0  0
 21 23  1  0  0  0  0
 21 27  1  0  0  0  0
 24 25  1  0  0  0  0
 24 30  1  0  0  0  0
 25 26  1  0  0  0  0
 26 29  1  0  0  0  0
 28 29  1  0  0  0  0
M  END
> <PUBCHEM_COMPOUND_ID_TYPE>
0

> <PUBCHEM_TOTAL_CHARGE>
0

> <PUBCHEM_SUBSTANCE_ID>
310933091

> <PUBCHEM_SUBSTANCE_VERSION>
1

> <PUBCHEM_EXT_DATASOURCE_NAME>
4488

> <PUBCHEM_EXT_DATASOURCE_REGID>
SCHEMBL16110493

> <PUBCHEM_SUBSTANCE_COMMENT>
InChI=1S/C22H21N5O3/c1-14(19-3-2-10-30-19)26-21(28)17-8-9-20(24-12-17)27-22(29)18(13-25-27)16-6-4-15(11-23)5-7-16/h4-9,12-14,19,29H,2-3,10H2,1H3,(H,26,28)
InChIKey=UUHOLPNEEGVKAI-UHFFFAOYSA-N

> <PUBCHEM_SUBSTANCE_SYNONYM>
SCHEMBL16110493

> <PUBCHEM_XREF_EXT_ID>
SCHEMBL16110493

> <PUBCHEM_EXT_DATASOURCE_URL>
https://www.surechembl.org/

> <PUBCHEM_EXT_SUBSTANCE_URL>
https://www.surechembl.org/chemical/SCHEMBL16110493

> <PUBCHEM_CID_ASSOCIATIONS>
117601548  1

> <PUBCHEM_COORDINATE_TYPE>
1
3

$$$$
