310943162
  -OEChem-07211613022D

 18 18  0     1  0  0  0  0  0999 V2000
   -0.4029   -0.1550    0.0000 N   0  0  0  0  0  0  0  0  0  0  0  0
   -1.7977   -0.1085    0.0000 N   0  0  0  0  0  0  0  0  0  0  0  0
    2.5261   -1.0228    0.0000 N   0  0  0  0  0  0  0  0  0  0  0  0
    0.3565    1.1468    0.0000 N   0  0  0  0  0  0  0  0  0  0  0  0
   -1.1003    0.2015    0.0000 C   0  0  0  0  0  0  0  0  0  0  0  0
   -1.0848    1.0693    0.0000 C   0  0  3  0  0  0  0  0  0  0  0  0
    1.0848   -0.1550    0.0000 C   0  0  0  0  0  0  0  0  0  0  0  0
    0.3565    0.2169    0.0000 C   0  0  0  0  0  0  0  0  0  0  0  0
   -0.3875    1.4103    0.0000 C   0  0  0  0  0  0  0  0  0  0  0  0
    1.0848   -1.0538    0.0000 C   0  0  0  0  0  0  0  0  0  0  0  0
    1.7977    0.2169    0.0000 C   0  0  0  0  0  0  0  0  0  0  0  0
    1.8287   -1.4413    0.0000 C   0  0  0  0  0  0  0  0  0  0  0  0
    2.5261   -0.1704    0.0000 C   0  0  0  0  0  0  0  0  0  0  0  0
   -1.8132    1.4413    0.0000 C   0  0  0  0  0  0  0  0  0  0  0  0
   -2.5261    0.2015    0.0000 C   0  0  0  0  0  0  0  0  0  0  0  0
    1.0384    1.4257    0.0000 C   0  0  0  0  0  0  0  0  0  0  0  0
   -2.5261    1.0693    0.0000 C   0  0  0  0  0  0  0  0  0  0  0  0
    1.8132    1.0538    0.0000 C   0  0  0  0  0  0  0  0  0  0  0  0
  1  5  1  0  0  0  0
  1  8  1  0  0  0  0
  2  5  2  0  0  0  0
  2 15  1  0  0  0  0
  3 12  2  0  0  0  0
  3 13  1  0  0  0  0
  4  9  1  0  0  0  0
  4 16  1  0  0  0  0
  5  6  1  0  0  0  0
  6  9  1  0  0  0  0
  6 14  1  0  0  0  0
  7  8  1  0  0  0  0
  7 10  2  0  0  0  0
  7 11  1  0  0  0  0
 10 12  1  0  0  0  0
 11 13  2  0  0  0  0
 15 17  2  0  0  0  0
 16 18  2  0  0  0  0
M  END
> <PUBCHEM_COMPOUND_ID_TYPE>
0

> <PUBCHEM_TOTAL_CHARGE>
0

> <PUBCHEM_SUBSTANCE_ID>
310943162

> <PUBCHEM_SUBSTANCE_VERSION>
1

> <PUBCHEM_EXT_DATASOURCE_NAME>
4488

> <PUBCHEM_EXT_DATASOURCE_REGID>
SCHEMBL16121222

> <PUBCHEM_SUBSTANCE_COMMENT>
InChI=1S/C14H20N4/c1-4-15-10-12(3)14(17-5-2)18-11-13-6-8-16-9-7-13/h4-9,12,15H,1-2,10-11H2,3H3,(H,17,18)
InChIKey=MRAWRNQTGMXOFJ-UHFFFAOYSA-N

> <PUBCHEM_SUBSTANCE_SYNONYM>
SCHEMBL16121222

> <PUBCHEM_XREF_EXT_ID>
SCHEMBL16121222

> <PUBCHEM_EXT_DATASOURCE_URL>
https://www.surechembl.org/

> <PUBCHEM_EXT_SUBSTANCE_URL>
https://www.surechembl.org/chemical/SCHEMBL16121222

> <PUBCHEM_CID_ASSOCIATIONS>
117609590  1

> <PUBCHEM_COORDINATE_TYPE>
1
3

$$$$
