310934294
  -OEChem-07211613022D

 16 16  0     1  0  0  0  0  0999 V2000
    1.4290   -2.5856    0.0000 S   0  0  0  0  0  0  0  0  0  0  0  0
    0.7145   -2.9981    0.0000 O   0  0  0  0  0  0  0  0  0  0  0  0
    1.8415   -3.3001    0.0000 O   0  0  0  0  0  0  0  0  0  0  0  0
    1.0165   -1.8711    0.0000 O   0  0  0  0  0  0  0  0  0  0  0  0
    2.1435   -2.1731    0.0000 O   0  0  0  0  0  0  0  0  0  0  0  0
    0.0000   -2.5856    0.0000 C   0  0  3  0  0  0  0  0  0  0  0  0
    0.0000   -1.7606    0.0000 C   0  0  0  0  0  0  0  0  0  0  0  0
    0.7145   -1.3481    0.0000 C   0  0  0  0  0  0  0  0  0  0  0  0
   -0.7145   -1.3481    0.0000 C   0  0  0  0  0  0  0  0  0  0  0  0
   -0.7145   -2.9981    0.0000 C   0  0  0  0  0  0  0  0  0  0  0  0
    0.0000   -0.1106    0.0000 C   0  0  0  0  0  0  0  0  0  0  0  0
    0.7145   -0.5231    0.0000 C   0  0  0  0  0  0  0  0  0  0  0  0
   -0.7145   -0.5231    0.0000 C   0  0  0  0  0  0  0  0  0  0  0  0
   -1.4290   -2.5856    0.0000 C   0  0  0  0  0  0  0  0  0  0  0  0
    0.0000    0.7145    0.0000 C   0  0  0  0  0  0  0  0  0  0  0  0
   -2.1435   -2.9981    0.0000 C   0  0  0  0  0  0  0  0  0  0  0  0
  1  2  1  0  0  0  0
  1  3  2  0  0  0  0
  1  4  2  0  0  0  0
  1  5  1  0  0  0  0
  2  6  1  0  0  0  0
  6  7  1  0  0  0  0
  6 10  1  0  0  0  0
  7  8  2  0  0  0  0
  7  9  1  0  0  0  0
  8 12  1  0  0  0  0
  9 13  2  0  0  0  0
 10 14  1  0  0  0  0
 11 12  2  0  0  0  0
 11 13  1  0  0  0  0
 11 15  1  0  0  0  0
 14 16  1  0  0  0  0
M  END
> <PUBCHEM_COMPOUND_ID_TYPE>
0

> <PUBCHEM_TOTAL_CHARGE>
0

> <PUBCHEM_SUBSTANCE_ID>
310934294

> <PUBCHEM_SUBSTANCE_VERSION>
1

> <PUBCHEM_EXT_DATASOURCE_NAME>
4488

> <PUBCHEM_EXT_DATASOURCE_REGID>
SCHEMBL16111752

> <PUBCHEM_SUBSTANCE_COMMENT>
InChI=1S/C11H16O4S/c1-3-4-11(15-16(12,13)14)10-7-5-9(2)6-8-10/h5-8,11H,3-4H2,1-2H3,(H,12,13,14)
InChIKey=MFTLZGQFMCZJQA-UHFFFAOYSA-N

> <PUBCHEM_SUBSTANCE_SYNONYM>
SCHEMBL16111752

> <PUBCHEM_XREF_EXT_ID>
SCHEMBL16111752

> <PUBCHEM_EXT_DATASOURCE_URL>
https://www.surechembl.org/

> <PUBCHEM_EXT_SUBSTANCE_URL>
https://www.surechembl.org/chemical/SCHEMBL16111752

> <PUBCHEM_CID_ASSOCIATIONS>
117602539  1

> <PUBCHEM_COORDINATE_TYPE>
1
3

$$$$
