310944512
  -OEChem-07211613022D

 19 20  0     1  0  0  0  0  0999 V2000
   -2.2739   -1.1432    0.0000 Cl  0  0  0  0  0  0  0  0  0  0  0  0
   -2.9361    1.9678    0.0000 F   0  0  0  0  0  0  0  0  0  0  0  0
   -2.0990    1.9678    0.0000 F   0  0  0  0  0  0  0  0  0  0  0  0
    0.7746   -1.1432    0.0000 O   0  0  0  0  0  0  0  0  0  0  0  0
    2.2240    1.3556    0.0000 O   0  0  0  0  0  0  0  0  0  0  0  0
    2.9361    0.1062    0.0000 O   0  0  0  0  0  0  0  0  0  0  0  0
    0.7871    0.5310    0.0000 N   0  0  0  0  0  0  0  0  0  0  0  0
   -2.0990    0.5310    0.0000 C   0  0  3  0  0  0  0  0  0  0  0  0
   -2.5113    1.2557    0.0000 C   0  0  0  0  0  0  0  0  0  0  0  0
   -1.3743    0.1062    0.0000 C   0  0  0  0  0  0  0  0  0  0  0  0
   -2.9111    0.5310    0.0000 C   0  0  0  0  0  0  0  0  0  0  0  0
   -1.3743   -0.7184    0.0000 C   0  0  0  0  0  0  0  0  0  0  0  0
   -0.6497    0.5185    0.0000 C   0  0  0  0  0  0  0  0  0  0  0  0
    0.0625    0.1187    0.0000 C   0  0  0  0  0  0  0  0  0  0  0  0
    0.0625   -0.7059    0.0000 C   0  0  0  0  0  0  0  0  0  0  0  0
   -0.6372   -1.1307    0.0000 C   0  0  0  0  0  0  0  0  0  0  0  0
    1.5243    0.1187    0.0000 C   0  0  0  0  0  0  0  0  0  0  0  0
    2.2240    0.5185    0.0000 C   0  0  0  0  0  0  0  0  0  0  0  0
    0.7996   -1.9678    0.0000 C   0  0  0  0  0  0  0  0  0  0  0  0
  1 12  1  0  0  0  0
  2  9  1  0  0  0  0
  3  9  1  0  0  0  0
  4 15  1  0  0  0  0
  4 19  1  0  0  0  0
  5 18  2  0  0  0  0
  6 18  1  0  0  0  0
  7 14  1  0  0  0  0
  7 17  1  0  0  0  0
  8  9  1  0  0  0  0
  8 10  1  0  0  0  0
  8 11  1  0  0  0  0
  9 11  1  0  0  0  0
 10 12  2  0  0  0  0
 10 13  1  0  0  0  0
 12 16  1  0  0  0  0
 13 14  2  0  0  0  0
 14 15  1  0  0  0  0
 15 16  2  0  0  0  0
 17 18  1  0  0  0  0
M  END
> <PUBCHEM_COMPOUND_ID_TYPE>
0

> <PUBCHEM_TOTAL_CHARGE>
0

> <PUBCHEM_SUBSTANCE_ID>
310944512

> <PUBCHEM_SUBSTANCE_VERSION>
1

> <PUBCHEM_EXT_DATASOURCE_NAME>
4488

> <PUBCHEM_EXT_DATASOURCE_REGID>
SCHEMBL16122587

> <PUBCHEM_SUBSTANCE_COMMENT>
InChI=1S/C12H12ClF2NO3/c1-19-10-3-8(13)6(7-4-12(7,14)15)2-9(10)16-5-11(17)18/h2-3,7,16H,4-5H2,1H3,(H,17,18)
InChIKey=COJYIQKOOFSZFX-UHFFFAOYSA-N

> <PUBCHEM_SUBSTANCE_SYNONYM>
SCHEMBL16122587

> <PUBCHEM_XREF_EXT_ID>
SCHEMBL16122587

> <PUBCHEM_EXT_DATASOURCE_URL>
https://www.surechembl.org/

> <PUBCHEM_EXT_SUBSTANCE_URL>
https://www.surechembl.org/chemical/SCHEMBL16122587

> <PUBCHEM_CID_ASSOCIATIONS>
117610748  1

> <PUBCHEM_COORDINATE_TYPE>
1
3

$$$$
