310945636
  -OEChem-07211613022D

 38 41  0     1  0  0  0  0  0999 V2000
   -6.1548   -0.6742    0.0000 S   0  0  0  0  0  0  0  0  0  0  0  0
    5.3284    0.8265    0.0000 O   0  0  0  0  0  0  0  0  0  0  0  0
    2.4141    0.9787    0.0000 O   0  0  0  0  0  0  0  0  0  0  0  0
   -3.2840   -0.6742    0.0000 O   0  0  0  0  0  0  0  0  0  0  0  0
    6.9378   -0.8482    0.0000 O   0  0  0  0  0  0  0  0  0  0  0  0
    6.6551   -2.2619    0.0000 O   0  0  0  0  0  0  0  0  0  0  0  0
   -5.5459   -1.2614    0.0000 O   0  0  0  0  0  0  0  0  0  0  0  0
   -6.7203   -1.2614    0.0000 O   0  0  0  0  0  0  0  0  0  0  0  0
   -5.4372   -0.2610    0.0000 N   0  0  0  0  0  0  0  0  0  0  0  0
    4.4585   -0.1740    0.0000 C   0  0  0  0  0  0  0  0  0  0  0  0
    4.4802    0.6524    0.0000 C   0  0  0  0  0  0  0  0  0  0  0  0
    5.2631   -0.4567    0.0000 C   0  0  3  0  0  0  0  0  0  0  0  0
   -1.2179    0.6524    0.0000 C   0  0  0  0  0  0  0  0  0  0  0  0
   -0.5002    1.0439    0.0000 C   0  0  0  0  0  0  0  0  0  0  0  0
    3.0665    0.6524    0.0000 C   0  0  0  0  0  0  0  0  0  0  0  0
    3.7843    1.0222    0.0000 C   0  0  0  0  0  0  0  0  0  0  0  0
   -1.9574    1.0439    0.0000 C   0  0  0  0  0  0  0  0  0  0  0  0
   -1.2397   -0.1740    0.0000 C   0  0  0  0  0  0  0  0  0  0  0  0
    3.7843   -0.5872    0.0000 C   0  0  0  0  0  0  0  0  0  0  0  0
    5.7416    0.2392    0.0000 C   0  0  0  0  0  0  0  0  0  0  0  0
    3.0665   -0.1957    0.0000 C   0  0  0  0  0  0  0  0  0  0  0  0
   -2.6533   -0.1740    0.0000 C   0  0  0  0  0  0  0  0  0  0  0  0
    0.1957    0.6524    0.0000 C   0  0  0  0  0  0  0  0  0  0  0  0
    0.8917    1.0657    0.0000 C   0  0  0  0  0  0  0  0  0  0  0  0
    5.5024   -1.2179    0.0000 C   0  0  0  0  0  0  0  0  0  0  0  0
   -2.6316    0.6524    0.0000 C   0  0  0  0  0  0  0  0  0  0  0  0
   -1.9356   -0.5872    0.0000 C   0  0  0  0  0  0  0  0  0  0  0  0
   -0.4785    1.8704    0.0000 C   0  0  0  0  0  0  0  0  0  0  0  0
    1.6311    0.6307    0.0000 C   0  0  0  0  0  0  0  0  0  0  0  0
    0.9135    1.8704    0.0000 C   0  0  0  0  0  0  0  0  0  0  0  0
    0.2175    2.2619    0.0000 C   0  0  0  0  0  0  0  0  0  0  0  0
    6.3071   -1.3919    0.0000 C   0  0  0  0  0  0  0  0  0  0  0  0
   -1.9356    1.8922    0.0000 C   0  0  0  0  0  0  0  0  0  0  0  0
   -0.5002   -0.6089    0.0000 C   0  0  0  0  0  0  0  0  0  0  0  0
   -4.0670   -0.1957    0.0000 C   0  0  0  0  0  0  0  0  0  0  0  0
   -4.7847   -0.6089    0.0000 C   0  0  0  0  0  0  0  0  0  0  0  0
    6.6116    0.0000    0.0000 C   0  0  0  0  0  0  0  0  0  0  0  0
   -6.9378   -0.1957    0.0000 C   0  0  0  0  0  0  0  0  0  0  0  0
  1  7  2  0  0  0  0
  1  8  2  0  0  0  0
  1  9  1  0  0  0  0
  1 38  1  0  0  0  0
  2 11  1  0  0  0  0
  2 20  1  0  0  0  0
  3 15  1  0  0  0  0
  3 29  1  0  0  0  0
  4 22  1  0  0  0  0
  4 35  1  0  0  0  0
  5 32  1  0  0  0  0
  5 37  1  0  0  0  0
  6 32  2  0  0  0  0
  9 36  1  0  0  0  0
 10 11  1  0  0  0  0
 10 12  1  0  0  0  0
 10 19  2  0  0  0  0
 11 16  2  0  0  0  0
 12 20  1  0  0  0  0
 12 25  1  0  0  0  0
 13 14  1  0  0  0  0
 13 17  2  0  0  0  0
 13 18  1  0  0  0  0
 14 23  2  0  0  0  0
 14 28  1  0  0  0  0
 15 16  1  0  0  0  0
 15 21  2  0  0  0  0
 17 26  1  0  0  0  0
 17 33  1  0  0  0  0
 18 27  2  0  0  0  0
 18 34  1  0  0  0  0
 19 21  1  0  0  0  0
 22 26  2  0  0  0  0
 22 27  1  0  0  0  0
 23 24  1  0  0  0  0
 24 29  1  0  0  0  0
 24 30  2  0  0  0  0
 25 32  1  0  0  0  0
 28 31  2  0  0  0  0
 30 31  1  0  0  0  0
 35 36  1  0  0  0  0
M  END
> <PUBCHEM_COMPOUND_ID_TYPE>
0

> <PUBCHEM_TOTAL_CHARGE>
0

> <PUBCHEM_SUBSTANCE_ID>
310945636

> <PUBCHEM_SUBSTANCE_VERSION>
1

> <PUBCHEM_EXT_DATASOURCE_NAME>
4488

> <PUBCHEM_EXT_DATASOURCE_REGID>
SCHEMBL16123735

> <PUBCHEM_SUBSTANCE_COMMENT>
InChI=1S/C29H33NO7S/c1-19-12-25(35-11-10-30-38(4,32)33)13-20(2)29(19)22-7-5-6-21(14-22)17-36-24-8-9-26-23(15-28(31)34-3)18-37-27(26)16-24/h5-9,12-14,16,23,30H,10-11,15,17-18H2,1-4H3
InChIKey=YUAOXNAYFWHEPX-UHFFFAOYSA-N

> <PUBCHEM_SUBSTANCE_SYNONYM>
SCHEMBL16123735

> <PUBCHEM_XREF_EXT_ID>
SCHEMBL16123735

> <PUBCHEM_EXT_DATASOURCE_URL>
https://www.surechembl.org/

> <PUBCHEM_EXT_SUBSTANCE_URL>
https://www.surechembl.org/chemical/SCHEMBL16123735

> <PUBCHEM_CID_ASSOCIATIONS>
117611649  1

> <PUBCHEM_COORDINATE_TYPE>
1
3

$$$$
