310934215
  -OEChem-07211613022D

 31 35  0     1  0  0  0  0  0999 V2000
    4.1252    0.0000    0.0000 F   0  0  0  0  0  0  0  0  0  0  0  0
    3.7127   -3.5890    0.0000 O   0  0  0  0  0  0  0  0  0  0  0  0
    6.8479   -8.2505    0.0000 O   0  0  0  0  0  0  0  0  0  0  0  0
    8.0855   -7.5492    0.0000 O   0  0  0  0  0  0  0  0  0  0  0  0
    1.6501   -1.4438    0.0000 O   0  0  0  0  0  0  0  0  0  0  0  0
    4.9503   -5.6928    0.0000 C   0  0  0  0  0  0  0  0  0  0  0  0
    6.8891   -6.8479    0.0000 C   0  0  3  0  0  0  0  0  0  0  0  0
    6.1879   -6.3941    0.0000 C   0  0  3  0  0  0  0  0  0  0  0  0
    4.1252   -4.2902    0.0000 C   0  0  0  0  0  0  0  0  0  0  0  0
    5.3628   -6.3941    0.0000 C   0  0  0  0  0  0  0  0  0  0  0  0
    4.1252   -5.2391    0.0000 C   0  0  0  0  0  0  0  0  0  0  0  0
    6.8891   -5.9816    0.0000 C   0  0  0  0  0  0  0  0  0  0  0  0
    4.1252   -5.6928    0.0000 C   0  0  0  0  0  0  0  0  0  0  0  0
    5.3216   -4.9916    0.0000 C   0  0  0  0  0  0  0  0  0  0  0  0
    3.7540   -4.9916    0.0000 C   0  0  0  0  0  0  0  0  0  0  0  0
    4.9503   -4.3315    0.0000 C   0  0  0  0  0  0  0  0  0  0  0  0
    7.3016   -7.5492    0.0000 C   0  0  0  0  0  0  0  0  0  0  0  0
    6.2704   -7.4254    0.0000 C   0  0  0  0  0  0  0  0  0  0  0  0
    4.1665   -2.8877    0.0000 C   0  0  0  0  0  0  0  0  0  0  0  0
    3.7127   -2.1451    0.0000 C   0  0  0  0  0  0  0  0  0  0  0  0
    2.8877   -2.1451    0.0000 C   0  0  0  0  0  0  0  0  0  0  0  0
    4.1252   -1.4438    0.0000 C   0  0  0  0  0  0  0  0  0  0  0  0
    2.4751   -1.4438    0.0000 C   0  0  0  0  0  0  0  0  0  0  0  0
    3.7127   -0.7013    0.0000 C   0  0  0  0  0  0  0  0  0  0  0  0
    2.8877   -0.7013    0.0000 C   0  0  0  0  0  0  0  0  0  0  0  0
    1.2376   -2.1451    0.0000 C   0  0  0  0  0  0  0  0  0  0  0  0
    0.4125   -2.1864    0.0000 C   0  0  0  0  0  0  0  0  0  0  0  0
    1.6501   -2.8877    0.0000 C   0  0  0  0  0  0  0  0  0  0  0  0
    0.0000   -2.8877    0.0000 C   0  0  0  0  0  0  0  0  0  0  0  0
    1.2376   -3.5890    0.0000 C   0  0  0  0  0  0  0  0  0  0  0  0
    0.4125   -3.5890    0.0000 C   0  0  0  0  0  0  0  0  0  0  0  0
  1 24  1  0  0  0  0
  2  9  1  0  0  0  0
  2 19  1  0  0  0  0
  3 17  2  0  0  0  0
  4 17  1  0  0  0  0
  5 23  1  0  0  0  0
  5 26  1  0  0  0  0
  6 10  1  0  0  0  0
  6 11  1  0  0  0  0
  6 13  1  0  0  0  0
  6 14  1  0  0  0  0
  7  8  1  0  0  0  0
  7 12  1  0  0  0  0
  7 17  1  0  0  0  0
  7 18  1  0  0  0  0
  8 10  1  0  0  0  0
  8 12  1  0  0  0  0
  9 11  1  0  0  0  0
  9 15  1  0  0  0  0
  9 16  1  0  0  0  0
 13 15  1  0  0  0  0
 14 16  1  0  0  0  0
 19 20  1  0  0  0  0
 20 21  1  0  0  0  0
 20 22  2  0  0  0  0
 21 23  2  0  0  0  0
 22 24  1  0  0  0  0
 23 25  1  0  0  0  0
 24 25  2  0  0  0  0
 26 27  2  0  0  0  0
 26 28  1  0  0  0  0
 27 29  1  0  0  0  0
 28 30  2  0  0  0  0
 29 31  2  0  0  0  0
 30 31  1  0  0  0  0
M  END
> <PUBCHEM_COMPOUND_ID_TYPE>
0

> <PUBCHEM_TOTAL_CHARGE>
0

> <PUBCHEM_SUBSTANCE_ID>
310934215

> <PUBCHEM_SUBSTANCE_VERSION>
1

> <PUBCHEM_EXT_DATASOURCE_NAME>
4488

> <PUBCHEM_EXT_DATASOURCE_REGID>
SCHEMBL16111670

> <PUBCHEM_SUBSTANCE_COMMENT>
InChI=1S/C26H29FO4/c1-24(23(28)29)14-19(24)15-25-7-9-26(17-25,10-8-25)30-16-18-11-20(27)13-22(12-18)31-21-5-3-2-4-6-21/h2-6,11-13,19H,7-10,14-17H2,1H3,(H,28,29)
InChIKey=JBMSSAQTDAVPAY-UHFFFAOYSA-N

> <PUBCHEM_SUBSTANCE_SYNONYM>
SCHEMBL16111670

> <PUBCHEM_XREF_EXT_ID>
SCHEMBL16111670

> <PUBCHEM_EXT_DATASOURCE_URL>
https://www.surechembl.org/

> <PUBCHEM_EXT_SUBSTANCE_URL>
https://www.surechembl.org/chemical/SCHEMBL16111670

> <PUBCHEM_CID_ASSOCIATIONS>
117602478  1

> <PUBCHEM_COORDINATE_TYPE>
1
3

$$$$
