310946588
  -OEChem-07211613022D

 27 27  0     1  0  0  0  0  0999 V2000
   -7.9485   -4.2295    0.0000 O   0  0  0  0  0  0  0  0  0  0  0  0
   -8.3610   -5.4990    0.0000 O   0  0  0  0  0  0  0  0  0  0  0  0
   -5.8521   -4.7144    0.0000 O   0  0  0  0  0  0  0  0  0  0  0  0
   -9.3304   -4.3019    0.0000 O   0  0  0  0  0  0  0  0  0  0  0  0
   -4.4718   -5.0843    0.0000 O   0  0  0  0  0  0  0  0  0  0  0  0
   -4.8713   -0.7356    0.0000 O   0  0  0  0  0  0  0  0  0  0  0  0
   -8.4436   -0.3231    0.0000 O   0  0  0  0  0  0  0  0  0  0  0  0
   -3.4423   -0.7356    0.0000 O   0  5  0  0  0  0  0  0  0  0  0  0
   -4.1568    0.5019    0.0000 O   0  0  0  0  0  0  0  0  0  0  0  0
   -7.7292   -1.5606    0.0000 N   0  0  0  0  0  0  0  0  0  0  0  0
   -4.1568   -0.3231    0.0000 N   0  3  0  0  0  0  0  0  0  0  0  0
   -7.2810   -4.7144    0.0000 C   0  0  0  0  0  0  0  0  0  0  0  0
   -7.5360   -5.4990    0.0000 C   0  0  0  0  0  0  0  0  0  0  0  0
   -8.6159   -4.7144    0.0000 C   0  0  0  0  0  0  0  0  0  0  0  0
   -6.5665   -4.3019    0.0000 C   0  0  0  0  0  0  0  0  0  0  0  0
   -5.0552   -4.5009    0.0000 C   0  0  0  0  0  0  0  0  0  0  0  0
   -7.1235   -6.2135    0.0000 C   0  0  0  0  0  0  0  0  0  0  0  0
   -4.8417   -3.7040    0.0000 C   0  0  3  0  0  0  0  0  0  0  0  0
   -5.2542   -2.9895    0.0000 C   0  0  0  0  0  0  0  0  0  0  0  0
   -4.0167   -3.7040    0.0000 C   0  0  0  0  0  0  0  0  0  0  0  0
   -6.0792   -2.9895    0.0000 C   0  0  0  0  0  0  0  0  0  0  0  0
   -7.7292   -0.7356    0.0000 C   0  0  0  0  0  0  0  0  0  0  0  0
   -6.4917   -2.2751    0.0000 C   0  0  0  0  0  0  0  0  0  0  0  0
   -7.3167   -2.2751    0.0000 C   0  0  0  0  0  0  0  0  0  0  0  0
   -7.0147   -0.3231    0.0000 C   0  0  0  0  0  0  0  0  0  0  0  0
   -6.3002   -0.7356    0.0000 C   0  0  0  0  0  0  0  0  0  0  0  0
   -5.5857   -0.3231    0.0000 C   0  0  0  0  0  0  0  0  0  0  0  0
  1 12  1  0  0  0  0
  1 14  1  0  0  0  0
  2 13  1  0  0  0  0
  2 14  1  0  0  0  0
  3 15  1  0  0  0  0
  3 16  1  0  0  0  0
  4 14  2  0  0  0  0
  5 16  2  0  0  0  0
  6 11  1  0  0  0  0
  6 27  1  0  0  0  0
  7 22  2  0  0  0  0
  8 11  1  0  0  0  0
  9 11  2  0  0  0  0
 10 22  1  0  0  0  0
 10 24  1  0  0  0  0
 12 13  2  0  0  0  0
 12 15  1  0  0  0  0
 13 17  1  0  0  0  0
 16 18  1  0  0  0  0
 18 19  1  0  0  0  0
 18 20  1  0  0  0  0
 19 21  1  0  0  0  0
 21 23  1  0  0  0  0
 22 25  1  0  0  0  0
 23 24  1  0  0  0  0
 25 26  1  0  0  0  0
 26 27  1  0  0  0  0
M  CHG  2   8  -1  11   1
M  END
> <PUBCHEM_COMPOUND_ID_TYPE>
0

> <PUBCHEM_TOTAL_CHARGE>
0

> <PUBCHEM_SUBSTANCE_ID>
310946588

> <PUBCHEM_SUBSTANCE_VERSION>
1

> <PUBCHEM_EXT_DATASOURCE_NAME>
4488

> <PUBCHEM_EXT_DATASOURCE_REGID>
SCHEMBL16124709

> <PUBCHEM_SUBSTANCE_COMMENT>
InChI=1S/C16H24N2O9/c1-11(15(20)24-10-13-12(2)26-16(21)27-13)6-3-4-8-17-14(19)7-5-9-25-18(22)23/h11H,3-10H2,1-2H3,(H,17,19)
InChIKey=NTMCJSQDKMZNMU-UHFFFAOYSA-N

> <PUBCHEM_SUBSTANCE_SYNONYM>
SCHEMBL16124709

> <PUBCHEM_XREF_EXT_ID>
SCHEMBL16124709

> <PUBCHEM_EXT_DATASOURCE_URL>
https://www.surechembl.org/

> <PUBCHEM_EXT_SUBSTANCE_URL>
https://www.surechembl.org/chemical/SCHEMBL16124709

> <PUBCHEM_CID_ASSOCIATIONS>
117612488  1

> <PUBCHEM_COORDINATE_TYPE>
1
3

$$$$
