310938001
  -OEChem-07211613022D

 26 29  0     1  0  0  0  0  0999 V2000
    4.6394   -1.8839    0.0000 Cl  0  0  0  0  0  0  0  0  0  0  0  0
    1.6417    1.5965    0.0000 F   0  0  0  0  0  0  0  0  0  0  0  0
    2.7776    1.3299    0.0000 F   0  0  0  0  0  0  0  0  0  0  0  0
    1.3751    0.4607    0.0000 F   0  0  0  0  0  0  0  0  0  0  0  0
    0.8618    0.1425    0.0000 O   0  0  0  0  0  0  0  0  0  0  0  0
    0.4095   -3.9891    0.0000 O   0  0  0  0  0  0  0  0  0  0  0  0
    2.1210   -0.5330    0.0000 N   0  0  0  0  0  0  0  0  0  0  0  0
    0.8084   -2.6170    0.0000 N   0  0  0  0  0  0  0  0  0  0  0  0
    0.0446   -2.3051    0.0000 N   0  0  0  0  0  0  0  0  0  0  0  0
    3.4248   -2.6367    0.0000 N   0  0  0  0  0  0  0  0  0  0  0  0
    1.3410   -1.9870    0.0000 C   0  0  0  0  0  0  0  0  0  0  0  0
    0.9064   -1.2857    0.0000 C   0  0  0  0  0  0  0  0  0  0  0  0
    2.1656   -1.9612    0.0000 C   0  0  0  0  0  0  0  0  0  0  0  0
    2.5556   -1.2342    0.0000 C   0  0  0  0  0  0  0  0  0  0  0  0
    1.2964   -0.5587    0.0000 C   0  0  0  0  0  0  0  0  0  0  0  0
    0.1052   -1.4824    0.0000 C   0  0  0  0  0  0  0  0  0  0  0  0
    1.0050   -3.4182    0.0000 C   0  0  3  0  0  0  0  0  0  0  0  0
    2.6002   -2.6624    0.0000 C   0  0  0  0  0  0  0  0  0  0  0  0
    3.3802   -1.2084    0.0000 C   0  0  0  0  0  0  0  0  0  0  0  0
    2.5110    0.1940    0.0000 C   0  0  0  0  0  0  0  0  0  0  0  0
    3.8148   -1.9097    0.0000 C   0  0  0  0  0  0  0  0  0  0  0  0
    2.0764    0.8953    0.0000 C   0  0  0  0  0  0  0  0  0  0  0  0
    1.7972   -3.6485    0.0000 C   0  0  0  0  0  0  0  0  0  0  0  0
    0.6061   -4.7904    0.0000 C   0  0  0  0  0  0  0  0  0  0  0  0
    1.9939   -4.4498    0.0000 C   0  0  0  0  0  0  0  0  0  0  0  0
    1.3983   -5.0207    0.0000 C   0  0  0  0  0  0  0  0  0  0  0  0
  1 21  1  0  0  0  0
  2 22  1  0  0  0  0
  3 22  1  0  0  0  0
  4 22  1  0  0  0  0
  5 15  2  0  0  0  0
  6 17  1  0  0  0  0
  6 24  1  0  0  0  0
  7 14  1  0  0  0  0
  7 15  1  0  0  0  0
  7 20  1  0  0  0  0
  8  9  1  0  0  0  0
  8 11  1  0  0  0  0
  8 17  1  0  0  0  0
  9 16  2  0  0  0  0
 10 18  2  0  0  0  0
 10 21  1  0  0  0  0
 11 12  2  0  0  0  0
 11 13  1  0  0  0  0
 12 15  1  0  0  0  0
 12 16  1  0  0  0  0
 13 14  2  0  0  0  0
 13 18  1  0  0  0  0
 14 19  1  0  0  0  0
 17 23  1  0  0  0  0
 19 21  2  0  0  0  0
 20 22  1  0  0  0  0
 23 25  1  0  0  0  0
 24 26  1  0  0  0  0
 25 26  1  0  0  0  0
M  END
> <PUBCHEM_COMPOUND_ID_TYPE>
0

> <PUBCHEM_TOTAL_CHARGE>
0

> <PUBCHEM_SUBSTANCE_ID>
310938001

> <PUBCHEM_SUBSTANCE_VERSION>
1

> <PUBCHEM_EXT_DATASOURCE_NAME>
4488

> <PUBCHEM_EXT_DATASOURCE_REGID>
SCHEMBL16115839

> <PUBCHEM_SUBSTANCE_COMMENT>
InChI=1S/C16H14ClF3N4O2/c17-12-5-11-9(6-21-12)14-10(15(25)23(11)8-16(18,19)20)7-22-24(14)13-3-1-2-4-26-13/h5-7,13H,1-4,8H2
InChIKey=PQYKALSEJCEYME-UHFFFAOYSA-N

> <PUBCHEM_SUBSTANCE_SYNONYM>
SCHEMBL16115839

> <PUBCHEM_XREF_EXT_ID>
SCHEMBL16115839

> <PUBCHEM_EXT_DATASOURCE_URL>
https://www.surechembl.org/

> <PUBCHEM_EXT_SUBSTANCE_URL>
https://www.surechembl.org/chemical/SCHEMBL16115839

> <PUBCHEM_CID_ASSOCIATIONS>
117605597  1

> <PUBCHEM_COORDINATE_TYPE>
1
3

$$$$
