310934501
  -OEChem-07211613022D

 32 34  0     1  0  0  0  0  0999 V2000
    0.0000    0.0000    0.0000 S   0  0  0  0  0  0  0  0  0  0  0  0
   -3.2704    5.4435    0.0000 F   0  0  0  0  0  0  0  0  0  0  0  0
   -1.0165    2.9684    0.0000 O   0  0  0  0  0  0  0  0  0  0  0  0
    0.4125   -0.7145    0.0000 O   0  0  0  0  0  0  0  0  0  0  0  0
    0.8250    0.0000    0.0000 O   0  0  0  0  0  0  0  0  0  0  0  0
   -2.6665    1.5395    0.0000 O   0  0  0  0  0  0  0  0  0  0  0  0
    0.7145    1.2375    0.0000 O   0  0  0  0  0  0  0  0  0  0  0  0
   -2.2540   -0.6040    0.0000 O   0  0  0  0  0  0  0  0  0  0  0  0
   -3.4915    0.1106    0.0000 O   0  0  0  0  0  0  0  0  0  0  0  0
   -1.8415    1.5395    0.0000 N   0  0  0  0  0  0  0  0  0  0  0  0
   -2.6665    0.1106    0.0000 N   0  0  0  0  0  0  0  0  0  0  0  0
   -1.4290    0.8250    0.0000 C   0  0  3  0  0  0  0  0  0  0  0  0
   -2.2540    0.8250    0.0000 C   0  0  0  0  0  0  0  0  0  0  0  0
   -0.7145    1.2375    0.0000 C   0  0  0  0  0  0  0  0  0  0  0  0
   -1.8415    2.9684    0.0000 C   0  0  3  0  0  0  0  0  0  0  0  0
    0.0000    0.8250    0.0000 C   0  0  0  0  0  0  0  0  0  0  0  0
   -1.4290    0.0000    0.0000 C   0  0  0  0  0  0  0  0  0  0  0  0
   -0.7145   -0.4125    0.0000 C   0  0  0  0  0  0  0  0  0  0  0  0
   -1.4290    2.2540    0.0000 C   0  0  0  0  0  0  0  0  0  0  0  0
   -3.2704    3.7935    0.0000 C   0  0  0  0  0  0  0  0  0  0  0  0
   -1.8415    3.7935    0.0000 C   0  0  0  0  0  0  0  0  0  0  0  0
   -2.5559    4.2060    0.0000 C   0  0  0  0  0  0  0  0  0  0  0  0
   -2.5559    2.5559    0.0000 C   0  0  0  0  0  0  0  0  0  0  0  0
   -3.9849    4.2060    0.0000 C   0  0  0  0  0  0  0  0  0  0  0  0
   -3.2704    2.9684    0.0000 C   0  0  0  0  0  0  0  0  0  0  0  0
   -3.9849    5.0310    0.0000 C   0  0  0  0  0  0  0  0  0  0  0  0
   -4.6994    3.7935    0.0000 C   0  0  0  0  0  0  0  0  0  0  0  0
   -2.5559    5.0310    0.0000 C   0  0  0  0  0  0  0  0  0  0  0  0
   -4.6994    5.4435    0.0000 C   0  0  0  0  0  0  0  0  0  0  0  0
   -0.6040    2.2540    0.0000 C   0  0  0  0  0  0  0  0  0  0  0  0
   -5.4138    4.2060    0.0000 C   0  0  0  0  0  0  0  0  0  0  0  0
   -5.4138    5.0310    0.0000 C   0  0  0  0  0  0  0  0  0  0  0  0
  1  4  2  0  0  0  0
  1  5  2  0  0  0  0
  1 16  1  0  0  0  0
  1 18  1  0  0  0  0
  2 26  1  0  0  0  0
  3 15  1  0  0  0  0
  3 30  1  0  0  0  0
  6 13  2  0  0  0  0
  7 16  2  0  0  0  0
  8 11  1  0  0  0  0
  9 11  1  0  0  0  0
 10 12  1  0  0  0  0
 10 19  1  0  0  0  0
 11 13  1  0  0  0  0
 12 13  1  0  0  0  0
 12 14  1  0  0  0  0
 12 17  1  0  0  0  0
 14 16  1  0  0  0  0
 15 19  1  0  0  0  0
 15 21  1  0  0  0  0
 15 23  1  0  0  0  0
 17 18  1  0  0  0  0
 20 22  1  0  0  0  0
 20 24  1  0  0  0  0
 20 25  2  0  0  0  0
 21 22  2  0  0  0  0
 22 28  1  0  0  0  0
 23 25  1  0  0  0  0
 24 26  1  0  0  0  0
 24 27  2  0  0  0  0
 26 29  2  0  0  0  0
 27 31  1  0  0  0  0
 29 32  1  0  0  0  0
 31 32  2  0  0  0  0
M  END
> <PUBCHEM_COMPOUND_ID_TYPE>
0

> <PUBCHEM_TOTAL_CHARGE>
0

> <PUBCHEM_SUBSTANCE_ID>
310934501

> <PUBCHEM_SUBSTANCE_VERSION>
1

> <PUBCHEM_EXT_DATASOURCE_NAME>
4488

> <PUBCHEM_EXT_DATASOURCE_REGID>
SCHEMBL16111986

> <PUBCHEM_SUBSTANCE_COMMENT>
InChI=1S/C21H25FN2O7S/c1-14-11-20(31-2,8-7-15(14)16-5-3-4-6-17(16)22)13-23-21(19(26)24(27)28)9-10-32(29,30)18(25)12-21/h3-7,11,23,27-28H,8-10,12-13H2,1-2H3
InChIKey=JBWFLVTXRNWGRG-UHFFFAOYSA-N

> <PUBCHEM_SUBSTANCE_SYNONYM>
SCHEMBL16111986

> <PUBCHEM_XREF_EXT_ID>
SCHEMBL16111986

> <PUBCHEM_EXT_DATASOURCE_URL>
https://www.surechembl.org/

> <PUBCHEM_EXT_SUBSTANCE_URL>
https://www.surechembl.org/chemical/SCHEMBL16111986

> <PUBCHEM_CID_ASSOCIATIONS>
117602700  1

> <PUBCHEM_COORDINATE_TYPE>
1
3

$$$$
