310936931
  -OEChem-07211613022D

 22 22  0     1  0  0  0  0  0999 V2000
    2.1595   -1.2381    0.0000 O   0  0  0  0  0  0  0  0  0  0  0  0
    1.4397   -3.2824    0.0000 O   0  0  0  0  0  0  0  0  0  0  0  0
    0.7486   -2.0443    0.0000 O   0  0  0  0  0  0  0  0  0  0  0  0
    4.2902   -1.6413    0.0000 O   0  0  0  0  0  0  0  0  0  0  0  0
    5.0101   -2.8793    0.0000 O   0  0  0  0  0  0  0  0  0  0  0  0
    2.8793   -2.4763    0.0000 C   0  0  3  0  0  0  0  0  0  0  0  0
    3.5704   -2.8793    0.0000 C   0  0  3  0  0  0  0  0  0  0  0  0
    2.1595   -2.0732    0.0000 C   0  0  0  0  0  0  0  0  0  0  0  0
    2.1595   -2.8793    0.0000 C   0  0  0  0  0  0  0  0  0  0  0  0
    2.8793   -1.6413    0.0000 C   0  0  0  0  0  0  0  0  0  0  0  0
    1.4397   -2.4763    0.0000 C   0  0  0  0  0  0  0  0  0  0  0  0
    4.2902   -2.4763    0.0000 C   0  0  0  0  0  0  0  0  0  0  0  0
    3.5704   -3.7144    0.0000 C   0  0  0  0  0  0  0  0  0  0  0  0
    2.1595   -3.7144    0.0000 C   0  0  0  0  0  0  0  0  0  0  0  0
    2.8793   -4.1175    0.0000 C   0  0  0  0  0  0  0  0  0  0  0  0
    3.5992   -1.2381    0.0000 C   0  0  0  0  0  0  0  0  0  0  0  0
    0.7198   -3.7144    0.0000 C   0  0  0  0  0  0  0  0  0  0  0  0
    3.5704   -0.4031    0.0000 C   0  0  0  0  0  0  0  0  0  0  0  0
    0.7198   -4.5206    0.0000 C   0  0  0  0  0  0  0  0  0  0  0  0
    4.2902    0.0000    0.0000 C   0  0  0  0  0  0  0  0  0  0  0  0
    0.0000   -4.9237    0.0000 C   0  0  0  0  0  0  0  0  0  0  0  0
    0.0576   -5.7587    0.0000 C   0  0  0  0  0  0  0  0  0  0  0  0
  1  8  2  0  0  0  0
  2 11  1  0  0  0  0
  2 17  1  0  0  0  0
  3 11  2  0  0  0  0
  4 12  2  0  0  0  0
  5 12  1  0  0  0  0
  6  7  1  0  0  0  0
  6  8  1  0  0  0  0
  6  9  1  0  0  0  0
  6 10  1  0  0  0  0
  7 12  1  0  0  0  0
  7 13  1  0  0  0  0
  8 11  1  0  0  0  0
  9 14  2  0  0  0  0
 10 16  1  0  0  0  0
 13 15  2  0  0  0  0
 14 15  1  0  0  0  0
 16 18  1  0  0  0  0
 17 19  1  0  0  0  0
 18 20  1  0  0  0  0
 19 21  1  0  0  0  0
 21 22  1  0  0  0  0
M  END
> <PUBCHEM_COMPOUND_ID_TYPE>
0

> <PUBCHEM_TOTAL_CHARGE>
0

> <PUBCHEM_SUBSTANCE_ID>
310936931

> <PUBCHEM_SUBSTANCE_VERSION>
1

> <PUBCHEM_EXT_DATASOURCE_NAME>
4488

> <PUBCHEM_EXT_DATASOURCE_REGID>
SCHEMBL16114632

> <PUBCHEM_SUBSTANCE_COMMENT>
InChI=1S/C17H24O5/c1-3-5-10-17(11-8-7-9-13(17)15(19)20)14(18)16(21)22-12-6-4-2/h7-9,11,13H,3-6,10,12H2,1-2H3,(H,19,20)
InChIKey=DLPDMPJMHRYQJT-UHFFFAOYSA-N

> <PUBCHEM_SUBSTANCE_SYNONYM>
SCHEMBL16114632

> <PUBCHEM_XREF_EXT_ID>
SCHEMBL16114632

> <PUBCHEM_EXT_DATASOURCE_URL>
https://www.surechembl.org/

> <PUBCHEM_EXT_SUBSTANCE_URL>
https://www.surechembl.org/chemical/SCHEMBL16114632

> <PUBCHEM_CID_ASSOCIATIONS>
117604803  1

> <PUBCHEM_COORDINATE_TYPE>
1
3

$$$$
