310934196
  -OEChem-07211613022D

 25 26  0     1  0  0  0  0  0999 V2000
   -0.8258   -0.8250    0.0000 F   0  0  0  0  0  0  0  0  0  0  0  0
   -1.4736    2.0683    0.0000 O   0  0  0  0  0  0  0  0  0  0  0  0
   -0.6394    3.2286    0.0000 O   0  0  0  0  0  0  0  0  0  0  0  0
    2.5493    1.3483    0.0000 O   0  0  0  0  0  0  0  0  0  0  0  0
    3.1486    2.4725    0.0000 O   0  0  0  0  0  0  0  0  0  0  0  0
    2.4342    3.7100    0.0000 O   0  0  0  0  0  0  0  0  0  0  0  0
   -0.0517    1.9261    0.0000 C   0  0  3  0  0  0  0  0  0  0  0  0
   -0.6423    1.3500    0.0000 C   0  0  0  0  0  0  0  0  0  0  0  0
   -0.7216    2.4076    0.0000 C   0  0  0  0  0  0  0  0  0  0  0  0
   -0.4387    0.5505    0.0000 C   0  0  0  0  0  0  0  0  0  0  0  0
    0.2497    2.6940    0.0000 C   0  0  0  0  0  0  0  0  0  0  0  0
    0.3608    1.2116    0.0000 C   0  0  0  0  0  0  0  0  0  0  0  0
    1.7197    2.4725    0.0000 C   0  0  3  0  0  0  0  0  0  0  0  0
   -1.4365    1.5734    0.0000 C   0  0  0  0  0  0  0  0  0  0  0  0
    1.0380    2.9372    0.0000 C   0  0  0  0  0  0  0  0  0  0  0  0
   -1.0293   -0.0255    0.0000 C   0  0  0  0  0  0  0  0  0  0  0  0
    1.7813    1.6498    0.0000 C   0  0  0  0  0  0  0  0  0  0  0  0
    1.1766    1.0886    0.0000 C   0  0  0  0  0  0  0  0  0  0  0  0
   -2.0271    0.9974    0.0000 C   0  0  0  0  0  0  0  0  0  0  0  0
    2.4342    2.8850    0.0000 C   0  0  0  0  0  0  0  0  0  0  0  0
   -1.8235    0.1979    0.0000 C   0  0  0  0  0  0  0  0  0  0  0  0
    0.3554    0.3271    0.0000 C   0  0  0  0  0  0  0  0  0  0  0  0
   -2.1434    2.5500    0.0000 C   0  0  0  0  0  0  0  0  0  0  0  0
    3.8631    2.8850    0.0000 C   0  0  0  0  0  0  0  0  0  0  0  0
    4.5776    2.4725    0.0000 C   0  0  0  0  0  0  0  0  0  0  0  0
  1 16  1  0  0  0  0
  2  9  1  0  0  0  0
  2 23  1  0  0  0  0
  3  9  2  0  0  0  0
  4 17  2  0  0  0  0
  5 20  1  0  0  0  0
  5 24  1  0  0  0  0
  6 20  2  0  0  0  0
  7  8  1  0  0  0  0
  7  9  1  0  0  0  0
  7 11  1  0  0  0  0
  7 12  1  0  0  0  0
  8 10  1  0  0  0  0
  8 14  2  0  0  0  0
 10 16  2  0  0  0  0
 10 22  1  0  0  0  0
 11 15  1  0  0  0  0
 12 18  1  0  0  0  0
 13 15  1  0  0  0  0
 13 17  1  0  0  0  0
 13 20  1  0  0  0  0
 14 19  1  0  0  0  0
 16 21  1  0  0  0  0
 17 18  1  0  0  0  0
 19 21  2  0  0  0  0
 24 25  1  0  0  0  0
M  END
> <PUBCHEM_COMPOUND_ID_TYPE>
0

> <PUBCHEM_TOTAL_CHARGE>
0

> <PUBCHEM_SUBSTANCE_ID>
310934196

> <PUBCHEM_SUBSTANCE_VERSION>
1

> <PUBCHEM_EXT_DATASOURCE_NAME>
4488

> <PUBCHEM_EXT_DATASOURCE_REGID>
SCHEMBL16111651

> <PUBCHEM_SUBSTANCE_COMMENT>
InChI=1S/C19H23FO5/c1-4-25-17(22)13-8-10-19(18(23)24-3,11-9-16(13)21)14-6-5-7-15(20)12(14)2/h5-7,13H,4,8-11H2,1-3H3
InChIKey=VZTLAQSUHLYVTQ-UHFFFAOYSA-N

> <PUBCHEM_SUBSTANCE_SYNONYM>
SCHEMBL16111651

> <PUBCHEM_XREF_EXT_ID>
SCHEMBL16111651

> <PUBCHEM_EXT_DATASOURCE_URL>
https://www.surechembl.org/

> <PUBCHEM_EXT_SUBSTANCE_URL>
https://www.surechembl.org/chemical/SCHEMBL16111651

> <PUBCHEM_CID_ASSOCIATIONS>
117602466  1

> <PUBCHEM_COORDINATE_TYPE>
1
3

$$$$
