310943601
  -OEChem-07211613022D

 22 24  0     1  0  0  0  0  0999 V2000
    0.9644    1.0311    0.0000 F   0  0  0  0  0  0  0  0  0  0  0  0
   -1.1949   -1.0190    0.0000 N   0  0  3  0  0  0  0  0  0  0  0  0
   -2.9781   -0.4610    0.0000 N   0  0  3  0  0  0  0  0  0  0  0  0
    1.6923   -0.1698    0.0000 C   0  0  0  0  0  0  0  0  0  0  0  0
    0.9644    0.2305    0.0000 C   0  0  0  0  0  0  0  0  0  0  0  0
    0.2366   -1.0069    0.0000 C   0  0  0  0  0  0  0  0  0  0  0  0
    2.3959    0.2426    0.0000 C   0  0  0  0  0  0  0  0  0  0  0  0
    0.2487   -0.1820    0.0000 C   0  0  0  0  0  0  0  0  0  0  0  0
    1.6801   -1.0190    0.0000 C   0  0  0  0  0  0  0  0  0  0  0  0
    0.9765   -1.4193    0.0000 C   0  0  0  0  0  0  0  0  0  0  0  0
   -0.4670   -1.4315    0.0000 C   0  0  0  0  0  0  0  0  0  0  0  0
    2.4080    1.0797    0.0000 C   0  0  0  0  0  0  0  0  0  0  0  0
    3.1237   -0.1577    0.0000 C   0  0  0  0  0  0  0  0  0  0  0  0
   -1.8864   -1.4800    0.0000 C   0  0  0  0  0  0  0  0  0  0  0  0
   -1.1464   -0.1698    0.0000 C   0  0  0  0  0  0  0  0  0  0  0  0
    3.1237    1.4800    0.0000 C   0  0  0  0  0  0  0  0  0  0  0  0
    3.8273    0.2426    0.0000 C   0  0  0  0  0  0  0  0  0  0  0  0
   -2.6870   -1.2374    0.0000 C   0  0  0  0  0  0  0  0  0  0  0  0
   -1.7408    0.3639    0.0000 C   0  0  0  0  0  0  0  0  0  0  0  0
    3.8273    1.0675    0.0000 C   0  0  0  0  0  0  0  0  0  0  0  0
   -2.5778    0.2426    0.0000 C   0  0  0  0  0  0  0  0  0  0  0  0
   -3.8273   -0.4731    0.0000 C   0  0  0  0  0  0  0  0  0  0  0  0
  1  5  1  0  0  0  0
  2 11  1  0  0  0  0
  2 14  1  0  0  0  0
  2 15  1  0  0  0  0
  3 18  1  0  0  0  0
  3 21  1  0  0  0  0
  3 22  1  0  0  0  0
  4  5  2  0  0  0  0
  4  7  1  0  0  0  0
  4  9  1  0  0  0  0
  5  8  1  0  0  0  0
  6  8  2  0  0  0  0
  6 10  1  0  0  0  0
  6 11  1  0  0  0  0
  7 12  2  0  0  0  0
  7 13  1  0  0  0  0
  9 10  2  0  0  0  0
 12 16  1  0  0  0  0
 13 17  2  0  0  0  0
 14 18  1  0  0  0  0
 15 19  1  0  0  0  0
 16 20  2  0  0  0  0
 17 20  1  0  0  0  0
 19 21  1  0  0  0  0
M  END
> <PUBCHEM_COMPOUND_ID_TYPE>
0

> <PUBCHEM_TOTAL_CHARGE>
0

> <PUBCHEM_SUBSTANCE_ID>
310943601

> <PUBCHEM_SUBSTANCE_VERSION>
1

> <PUBCHEM_EXT_DATASOURCE_NAME>
4488

> <PUBCHEM_EXT_DATASOURCE_REGID>
SCHEMBL16121668

> <PUBCHEM_SUBSTANCE_COMMENT>
InChI=1S/C19H23FN2/c1-21-10-5-11-22(13-12-21)15-16-8-9-18(19(20)14-16)17-6-3-2-4-7-17/h2-4,6-9,14H,5,10-13,15H2,1H3
InChIKey=BOEJHWFKBXFLFR-UHFFFAOYSA-N

> <PUBCHEM_SUBSTANCE_SYNONYM>
SCHEMBL16121668

> <PUBCHEM_XREF_EXT_ID>
SCHEMBL16121668

> <PUBCHEM_EXT_DATASOURCE_URL>
https://www.surechembl.org/

> <PUBCHEM_EXT_SUBSTANCE_URL>
https://www.surechembl.org/chemical/SCHEMBL16121668

> <PUBCHEM_CID_ASSOCIATIONS>
86300474  1

> <PUBCHEM_COORDINATE_TYPE>
1
3

$$$$
