310941261
  -OEChem-07211613022D

 47 50  0     1  0  0  0  0  0999 V2000
    4.6247    0.6813    0.0000 O   0  0  0  0  0  0  0  0  0  0  0  0
    3.4960   -1.2732    0.0000 O   0  0  0  0  0  0  0  0  0  0  0  0
   -2.3536   -1.5622    0.0000 O   0  0  0  0  0  0  0  0  0  0  0  0
    1.3488    0.7914    0.0000 O   0  0  0  0  0  0  0  0  0  0  0  0
   -2.9455    0.7914    0.0000 O   0  0  0  0  0  0  0  0  0  0  0  0
   -3.3034   -2.6221    0.0000 O   0  0  0  0  0  0  0  0  0  0  0  0
   -0.7983   -1.2732    0.0000 O   0  0  0  0  0  0  0  0  0  0  0  0
    3.4960   -2.9249    0.0000 O   0  0  0  0  0  0  0  0  0  0  0  0
    2.0646   -0.4335    0.0000 N   0  0  0  0  0  0  0  0  0  0  0  0
   -3.7438   -1.2594    0.0000 N   0  0  0  0  0  0  0  0  0  0  0  0
   -0.0825   -0.0206    0.0000 N   0  0  0  0  0  0  0  0  0  0  0  0
   -2.2298   -0.4335    0.0000 N   0  0  0  0  0  0  0  0  0  0  0  0
    4.2118   -0.0069    0.0000 C   0  0  3  0  0  0  0  0  0  0  0  0
    3.4960   -0.4061    0.0000 C   0  0  0  0  0  0  0  0  0  0  0  0
    3.8126    0.6675    0.0000 C   0  0  0  0  0  0  0  0  0  0  0  0
    2.7666   -0.0206    0.0000 C   0  0  3  0  0  0  0  0  0  0  0  0
    4.9413   -0.4473    0.0000 C   0  0  0  0  0  0  0  0  0  0  0  0
    2.7941    1.2869    0.0000 C   0  0  0  0  0  0  0  0  0  0  0  0
    1.3351   -0.0482    0.0000 C   0  0  0  0  0  0  0  0  0  0  0  0
   -3.6475   -0.4335    0.0000 C   0  0  3  0  0  0  0  0  0  0  0  0
    0.6469   -0.4335    0.0000 C   0  0  3  0  0  0  0  0  0  0  0  0
    2.0508    1.7136    0.0000 C   0  0  0  0  0  0  0  0  0  0  0  0
   -2.9592   -0.0482    0.0000 C   0  0  0  0  0  0  0  0  0  0  0  0
   -3.1244   -1.7962    0.0000 C   0  0  0  0  0  0  0  0  0  0  0  0
   -4.4045   -0.1033    0.0000 C   0  0  0  0  0  0  0  0  0  0  0  0
   -4.5283   -1.4246    0.0000 C   0  0  0  0  0  0  0  0  0  0  0  0
   -0.7983   -0.4061    0.0000 C   0  0  0  0  0  0  0  0  0  0  0  0
   -1.5278   -0.0206    0.0000 C   0  0  3  0  0  0  0  0  0  0  0  0
    0.6332   -1.2594    0.0000 C   0  0  0  0  0  0  0  0  0  0  0  0
   -4.9413   -0.7226    0.0000 C   0  0  0  0  0  0  0  0  0  0  0  0
    1.3627   -1.6723    0.0000 C   0  0  0  0  0  0  0  0  0  0  0  0
    2.0646    2.5257    0.0000 C   0  0  0  0  0  0  0  0  0  0  0  0
    1.3488    1.3007    0.0000 C   0  0  0  0  0  0  0  0  0  0  0  0
   -1.7067   -2.1128    0.0000 C   0  0  0  0  0  0  0  0  0  0  0  0
    1.3627   -2.4982    0.0000 C   0  0  0  0  0  0  0  0  0  0  0  0
    2.0784   -1.2732    0.0000 C   0  0  0  0  0  0  0  0  0  0  0  0
    1.3351    2.9249    0.0000 C   0  0  0  0  0  0  0  0  0  0  0  0
    0.6469    1.7136    0.0000 C   0  0  0  0  0  0  0  0  0  0  0  0
   -1.5003    0.8190    0.0000 C   0  0  0  0  0  0  0  0  0  0  0  0
    2.7803   -2.4844    0.0000 C   0  0  0  0  0  0  0  0  0  0  0  0
    0.6469    2.5394    0.0000 C   0  0  0  0  0  0  0  0  0  0  0  0
    2.0646   -2.8973    0.0000 C   0  0  0  0  0  0  0  0  0  0  0  0
    2.7803   -1.6861    0.0000 C   0  0  0  0  0  0  0  0  0  0  0  0
   -0.9222   -1.8375    0.0000 C   0  0  0  0  0  0  0  0  0  0  0  0
   -1.1011   -2.6496    0.0000 C   0  0  0  0  0  0  0  0  0  0  0  0
   -1.8995   -2.9249    0.0000 C   0  0  0  0  0  0  0  0  0  0  0  0
    4.2255   -2.4844    0.0000 C   0  0  0  0  0  0  0  0  0  0  0  0
  1 13  1  0  0  0  0
  1 15  1  0  0  0  0
  2 14  2  0  0  0  0
  3 24  1  0  0  0  0
  3 34  1  0  0  0  0
  4 19  2  0  0  0  0
  5 23  2  0  0  0  0
  6 24  2  0  0  0  0
  7 27  2  0  0  0  0
  8 40  1  0  0  0  0
  8 47  1  0  0  0  0
  9 16  1  0  0  0  0
  9 19  1  0  0  0  0
 10 20  1  0  0  0  0
 10 24  1  0  0  0  0
 10 26  1  0  0  0  0
 11 21  1  0  0  0  0
 11 27  1  0  0  0  0
 12 23  1  0  0  0  0
 12 28  1  0  0  0  0
 13 14  1  0  0  0  0
 13 15  1  0  0  0  0
 13 17  1  0  0  0  0
 14 16  1  0  0  0  0
 16 18  1  0  0  0  0
 18 22  1  0  0  0  0
 19 21  1  0  0  0  0
 20 23  1  0  0  0  0
 20 25  1  0  0  0  0
 21 29  1  0  0  0  0
 22 32  2  0  0  0  0
 22 33  1  0  0  0  0
 25 30  1  0  0  0  0
 26 30  1  0  0  0  0
 27 28  1  0  0  0  0
 28 39  1  0  0  0  0
 29 31  1  0  0  0  0
 31 35  2  0  0  0  0
 31 36  1  0  0  0  0
 32 37  1  0  0  0  0
 33 38  2  0  0  0  0
 34 44  1  0  0  0  0
 34 45  1  0  0  0  0
 34 46  1  0  0  0  0
 35 42  1  0  0  0  0
 36 43  2  0  0  0  0
 37 41  2  0  0  0  0
 38 41  1  0  0  0  0
 40 42  2  0  0  0  0
 40 43  1  0  0  0  0
M  END
> <PUBCHEM_COMPOUND_ID_TYPE>
0

> <PUBCHEM_TOTAL_CHARGE>
0

> <PUBCHEM_SUBSTANCE_ID>
310941261

> <PUBCHEM_SUBSTANCE_VERSION>
1

> <PUBCHEM_EXT_DATASOURCE_NAME>
4488

> <PUBCHEM_EXT_DATASOURCE_REGID>
SCHEMBL16119221

> <PUBCHEM_SUBSTANCE_COMMENT>
InChI=1S/C35H46N4O8/c1-22(36-32(43)28-13-10-18-39(28)33(44)47-34(2,3)4)30(41)38-27(20-24-14-16-25(45-6)17-15-24)31(42)37-26(29(40)35(5)21-46-35)19-23-11-8-7-9-12-23/h7-9,11-12,14-17,22,26-28H,10,13,18-21H2,1-6H3,(H,36,43)(H,37,42)(H,38,41)
InChIKey=ZVITTYWSZOFAEA-UHFFFAOYSA-N

> <PUBCHEM_SUBSTANCE_SYNONYM>
SCHEMBL16119221

> <PUBCHEM_XREF_EXT_ID>
SCHEMBL16119221

> <PUBCHEM_EXT_DATASOURCE_URL>
https://www.surechembl.org/

> <PUBCHEM_EXT_SUBSTANCE_URL>
https://www.surechembl.org/chemical/SCHEMBL16119221

> <PUBCHEM_CID_ASSOCIATIONS>
117608120  1

> <PUBCHEM_COORDINATE_TYPE>
1
3

$$$$
