310935957
  -OEChem-07211613022D

 20 22  0     1  0  0  0  0  0999 V2000
   -0.7145    5.4901    0.0000 F   0  0  0  0  0  0  0  0  0  0  0  0
    1.9940    4.0690    0.0000 O   0  0  0  0  0  0  0  0  0  0  0  0
    3.7844    5.3177    0.0000 O   0  0  0  0  0  0  0  0  0  0  0  0
    3.2995    4.6502    0.0000 N   0  0  0  0  0  0  0  0  0  0  0  0
    2.1434    5.4901    0.0000 C   0  0  3  0  0  0  0  0  0  0  0  0
    1.4289    5.0776    0.0000 C   0  0  0  0  0  0  0  0  0  0  0  0
    0.7145    5.4901    0.0000 C   0  0  0  0  0  0  0  0  0  0  0  0
    2.4790    4.7365    0.0000 C   0  0  0  0  0  0  0  0  0  0  0  0
    0.7145    3.8401    0.0000 C   0  0  0  0  0  0  0  0  0  0  0  0
    1.4289    4.2526    0.0000 C   0  0  0  0  0  0  0  0  0  0  0  0
    1.6585    6.1576    0.0000 C   0  0  0  0  0  0  0  0  0  0  0  0
    2.9280    5.7451    0.0000 C   0  0  0  0  0  0  0  0  0  0  0  0
    0.0000    5.0776    0.0000 C   0  0  0  0  0  0  0  0  0  0  0  0
    0.7145    3.0151    0.0000 C   0  0  0  0  0  0  0  0  0  0  0  0
    0.0000    4.2526    0.0000 C   0  0  0  0  0  0  0  0  0  0  0  0
    2.1434    6.8250    0.0000 C   0  0  0  0  0  0  0  0  0  0  0  0
    2.9280    6.5701    0.0000 C   0  0  0  0  0  0  0  0  0  0  0  0
    1.1270    2.3007    0.0000 C   0  0  0  0  0  0  0  0  0  0  0  0
    0.3020    2.3007    0.0000 C   0  0  0  0  0  0  0  0  0  0  0  0
    0.7145    6.3151    0.0000 C   0  0  0  0  0  0  0  0  0  0  0  0
  1 13  1  0  0  0  0
  2  8  2  0  0  0  0
  3  4  1  0  0  0  0
  4  8  1  0  0  0  0
  5  6  1  0  0  0  0
  5  8  1  0  0  0  0
  5 11  1  0  0  0  0
  5 12  1  0  0  0  0
  6  7  2  0  0  0  0
  6 10  1  0  0  0  0
  7 13  1  0  0  0  0
  7 20  1  0  0  0  0
  9 10  2  0  0  0  0
  9 14  1  0  0  0  0
  9 15  1  0  0  0  0
 11 16  2  0  0  0  0
 12 17  1  0  0  0  0
 13 15  2  0  0  0  0
 14 18  1  0  0  0  0
 14 19  1  0  0  0  0
 16 17  1  0  0  0  0
 18 19  1  0  0  0  0
M  END
> <PUBCHEM_COMPOUND_ID_TYPE>
0

> <PUBCHEM_TOTAL_CHARGE>
0

> <PUBCHEM_SUBSTANCE_ID>
310935957

> <PUBCHEM_SUBSTANCE_VERSION>
1

> <PUBCHEM_EXT_DATASOURCE_NAME>
4488

> <PUBCHEM_EXT_DATASOURCE_REGID>
SCHEMBL16113556

> <PUBCHEM_SUBSTANCE_COMMENT>
InChI=1S/C16H18FNO2/c1-10-13(8-12(9-14(10)17)11-4-5-11)16(15(19)18-20)6-2-3-7-16/h2,6,8-9,11,20H,3-5,7H2,1H3,(H,18,19)
InChIKey=DNURRFDTPJUHDU-UHFFFAOYSA-N

> <PUBCHEM_SUBSTANCE_SYNONYM>
SCHEMBL16113556

> <PUBCHEM_XREF_EXT_ID>
SCHEMBL16113556

> <PUBCHEM_EXT_DATASOURCE_URL>
https://www.surechembl.org/

> <PUBCHEM_EXT_SUBSTANCE_URL>
https://www.surechembl.org/chemical/SCHEMBL16113556

> <PUBCHEM_CID_ASSOCIATIONS>
117603934  1

> <PUBCHEM_COORDINATE_TYPE>
1
3

$$$$
