310947826
  -OEChem-07211613022D

  9 11  0     1  0  0  0  0  0999 V2000
   -0.0061    0.1331    0.0000 O   0  0  0  0  0  0  0  0  0  0  0  0
    1.1672    1.0765    0.0000 O   0  0  0  0  0  0  0  0  0  0  0  0
    1.3849   -0.2661    0.0000 N   0  0  0  0  0  0  0  0  0  0  0  0
   -0.0061   -0.6652    0.0000 C   0  0  0  0  0  0  0  0  0  0  0  0
    0.7801   -0.9192    0.0000 C   0  0  3  0  0  0  0  0  0  0  0  0
    0.7801   -0.9192    0.0000 C   0  0  3  0  0  0  0  0  0  0  0  0
    0.7559    0.3628    0.0000 C   0  0  0  0  0  0  0  0  0  0  0  0
   -0.6834   -1.0765    0.0000 C   0  0  0  0  0  0  0  0  0  0  0  0
   -1.3849   -0.6773    0.0000 C   0  0  0  0  0  0  0  0  0  0  0  0
  1  4  1  0  0  0  0
  1  7  1  0  0  0  0
  2  7  2  0  0  0  0
  3  5  1  0  0  0  0
  3  6  1  0  0  0  0
  3  7  1  0  0  0  0
  4  5  1  0  0  0  0
  4  6  1  0  0  0  0
  4  8  1  0  0  0  0
  5  6  1  0  0  0  0
  8  9  1  0  0  0  0
M  END
> <PUBCHEM_COMPOUND_ID_TYPE>
0

> <PUBCHEM_TOTAL_CHARGE>
0

> <PUBCHEM_SUBSTANCE_ID>
310947826

> <PUBCHEM_SUBSTANCE_VERSION>
1

> <PUBCHEM_EXT_DATASOURCE_NAME>
4488

> <PUBCHEM_EXT_DATASOURCE_REGID>
SCHEMBL16125998

> <PUBCHEM_SUBSTANCE_COMMENT>
InChI=1S/C6H7NO2/c1-2-6-3-4(6)7(3)5(8)9-6/h3-4H,2H2,1H3
InChIKey=PHDXYCBPYKXCJW-UHFFFAOYSA-N

> <PUBCHEM_SUBSTANCE_SYNONYM>
SCHEMBL16125998

> <PUBCHEM_XREF_EXT_ID>
SCHEMBL16125998

> <PUBCHEM_EXT_DATASOURCE_URL>
https://www.surechembl.org/

> <PUBCHEM_EXT_SUBSTANCE_URL>
https://www.surechembl.org/chemical/SCHEMBL16125998

> <PUBCHEM_CID_ASSOCIATIONS>
117613493  1

> <PUBCHEM_COORDINATE_TYPE>
1
3

$$$$
