310947259
  -OEChem-07211613022D

 38 42  0     1  0  0  0  0  0999 V2000
    0.9814    1.3989    0.0000 Br  0  0  0  0  0  0  0  0  0  0  0  0
   -2.3591    1.6669    0.0000 O   0  0  0  0  0  0  0  0  0  0  0  0
    3.4564    0.0640    0.0000 O   0  0  0  0  0  0  0  0  0  0  0  0
    4.6939    0.7784    0.0000 O   0  0  0  0  0  0  0  0  0  0  0  0
    0.5689   -0.6505    0.0000 N   0  0  0  0  0  0  0  0  0  0  0  0
    1.0539    0.0169    0.0000 N   0  0  0  0  0  0  0  0  0  0  0  0
   -3.0736    0.4294    0.0000 N   0  0  0  0  0  0  0  0  0  0  0  0
   -0.2157   -0.3956    0.0000 C   0  0  0  0  0  0  0  0  0  0  0  0
   -0.2157    0.4294    0.0000 C   0  0  0  0  0  0  0  0  0  0  0  0
    0.5689    0.6844    0.0000 C   0  0  0  0  0  0  0  0  0  0  0  0
   -0.9301    0.8419    0.0000 C   0  0  0  0  0  0  0  0  0  0  0  0
   -1.6446    0.4294    0.0000 C   0  0  0  0  0  0  0  0  0  0  0  0
   -0.9301   -0.8081    0.0000 C   0  0  0  0  0  0  0  0  0  0  0  0
    0.9814   -1.3650    0.0000 C   0  0  0  0  0  0  0  0  0  0  0  0
   -1.6446   -0.3956    0.0000 C   0  0  0  0  0  0  0  0  0  0  0  0
    1.8064   -1.3650    0.0000 C   0  0  0  0  0  0  0  0  0  0  0  0
   -2.3591    0.8419    0.0000 C   0  0  0  0  0  0  0  0  0  0  0  0
    3.4564   -1.3650    0.0000 C   0  0  0  0  0  0  0  0  0  0  0  0
    4.2814   -1.3650    0.0000 C   0  0  0  0  0  0  0  0  0  0  0  0
    2.2189   -2.0794    0.0000 C   0  0  0  0  0  0  0  0  0  0  0  0
    2.2189   -0.6505    0.0000 C   0  0  0  0  0  0  0  0  0  0  0  0
    4.6939   -0.6505    0.0000 C   0  0  0  0  0  0  0  0  0  0  0  0
    3.0439   -2.0794    0.0000 C   0  0  0  0  0  0  0  0  0  0  0  0
    3.0439   -0.6505    0.0000 C   0  0  0  0  0  0  0  0  0  0  0  0
   -3.7880    0.8419    0.0000 C   0  0  3  0  0  0  0  0  0  0  0  0
    4.6939   -2.0794    0.0000 C   0  0  0  0  0  0  0  0  0  0  0  0
    4.2814    0.0640    0.0000 C   0  0  0  0  0  0  0  0  0  0  0  0
   -4.5025    0.4294    0.0000 C   0  0  0  0  0  0  0  0  0  0  0  0
    5.5189   -0.6505    0.0000 C   0  0  0  0  0  0  0  0  0  0  0  0
    5.5189   -2.0794    0.0000 C   0  0  0  0  0  0  0  0  0  0  0  0
    5.9314   -1.3650    0.0000 C   0  0  0  0  0  0  0  0  0  0  0  0
   -3.7880    1.6669    0.0000 C   0  0  0  0  0  0  0  0  0  0  0  0
   -5.2170    0.8419    0.0000 C   0  0  0  0  0  0  0  0  0  0  0  0
   -4.5025   -0.3956    0.0000 C   0  0  0  0  0  0  0  0  0  0  0  0
   -5.9314    0.4294    0.0000 C   0  0  0  0  0  0  0  0  0  0  0  0
   -5.2170   -0.8081    0.0000 C   0  0  0  0  0  0  0  0  0  0  0  0
   -5.9314   -0.3956    0.0000 C   0  0  0  0  0  0  0  0  0  0  0  0
   -3.0736    2.0794    0.0000 C   0  0  0  0  0  0  0  0  0  0  0  0
  1 10  1  0  0  0  0
  2 17  2  0  0  0  0
  3 27  2  0  0  0  0
  4 27  1  0  0  0  0
  5  6  1  0  0  0  0
  5  8  1  0  0  0  0
  5 14  1  0  0  0  0
  6 10  2  0  0  0  0
  7 17  1  0  0  0  0
  7 25  1  0  0  0  0
  8  9  1  0  0  0  0
  8 13  2  0  0  0  0
  9 10  1  0  0  0  0
  9 11  2  0  0  0  0
 11 12  1  0  0  0  0
 12 15  2  0  0  0  0
 12 17  1  0  0  0  0
 13 15  1  0  0  0  0
 14 16  1  0  0  0  0
 16 20  2  0  0  0  0
 16 21  1  0  0  0  0
 18 19  1  0  0  0  0
 18 23  2  0  0  0  0
 18 24  1  0  0  0  0
 19 22  1  0  0  0  0
 19 26  2  0  0  0  0
 20 23  1  0  0  0  0
 21 24  2  0  0  0  0
 22 27  1  0  0  0  0
 22 29  2  0  0  0  0
 25 28  1  0  0  0  0
 25 32  1  0  0  0  0
 26 30  1  0  0  0  0
 28 33  2  0  0  0  0
 28 34  1  0  0  0  0
 29 31  1  0  0  0  0
 30 31  2  0  0  0  0
 32 38  1  0  0  0  0
 33 35  1  0  0  0  0
 34 36  2  0  0  0  0
 35 37  2  0  0  0  0
 36 37  1  0  0  0  0
M  END
> <PUBCHEM_COMPOUND_ID_TYPE>
0

> <PUBCHEM_TOTAL_CHARGE>
0

> <PUBCHEM_SUBSTANCE_ID>
310947259

> <PUBCHEM_SUBSTANCE_VERSION>
1

> <PUBCHEM_EXT_DATASOURCE_NAME>
4488

> <PUBCHEM_EXT_DATASOURCE_REGID>
SCHEMBL16125414

> <PUBCHEM_SUBSTANCE_COMMENT>
InChI=1S/C31H26BrN3O3/c1-2-27(22-8-4-3-5-9-22)33-30(36)23-16-17-28-26(18-23)29(32)34-35(28)19-20-12-14-21(15-13-20)24-10-6-7-11-25(24)31(37)38/h3-18,27H,2,19H2,1H3,(H,33,36)(H,37,38)
InChIKey=ORCBWFITEIGCJI-UHFFFAOYSA-N

> <PUBCHEM_SUBSTANCE_SYNONYM>
SCHEMBL16125414

> <PUBCHEM_XREF_EXT_ID>
SCHEMBL16125414

> <PUBCHEM_EXT_DATASOURCE_URL>
https://www.surechembl.org/

> <PUBCHEM_EXT_SUBSTANCE_URL>
https://www.surechembl.org/chemical/SCHEMBL16125414

> <PUBCHEM_CID_ASSOCIATIONS>
71577740  1

> <PUBCHEM_COORDINATE_TYPE>
1
3

$$$$
