310934601
  -OEChem-07211613022D

 27 30  0     1  0  0  0  0  0999 V2000
    6.0448   -2.7682    0.0000 O   0  0  0  0  0  0  0  0  0  0  0  0
    7.1182   -1.2993    0.0000 O   0  0  0  0  0  0  0  0  0  0  0  0
    5.7906   -0.6215    0.0000 N   0  0  0  0  0  0  0  0  0  0  0  0
    6.8357   -0.7062    0.0000 N   0  0  0  0  0  0  0  0  0  0  0  0
    5.7906   -1.9773    0.0000 C   0  0  3  0  0  0  0  0  0  0  0  0
    4.9996   -1.7230    0.0000 C   0  0  0  0  0  0  0  0  0  0  0  0
    4.9996   -0.9039    0.0000 C   0  0  0  0  0  0  0  0  0  0  0  0
    6.2708   -1.2993    0.0000 C   0  0  0  0  0  0  0  0  0  0  0  0
    6.6097   -2.0903    0.0000 C   0  0  0  0  0  0  0  0  0  0  0  0
    4.2935   -2.1185    0.0000 C   0  0  0  0  0  0  0  0  0  0  0  0
    4.2935   -0.4519    0.0000 C   0  0  0  0  0  0  0  0  0  0  0  0
    3.5873   -1.7230    0.0000 C   0  0  0  0  0  0  0  0  0  0  0  0
    7.1464   -1.4406    0.0000 C   0  0  0  0  0  0  0  0  0  0  0  0
    3.5873   -0.9039    0.0000 C   0  0  0  0  0  0  0  0  0  0  0  0
    2.8529   -2.1185    0.0000 C   0  0  0  0  0  0  0  0  0  0  0  0
    7.9656   -1.5818    0.0000 C   0  0  0  0  0  0  0  0  0  0  0  0
    2.1467   -1.7230    0.0000 C   0  0  0  0  0  0  0  0  0  0  0  0
    1.4406   -2.1185    0.0000 C   0  0  0  0  0  0  0  0  0  0  0  0
    7.3441    0.0000    0.0000 C   0  0  0  0  0  0  0  0  0  0  0  0
    8.4740   -0.9321    0.0000 C   0  0  0  0  0  0  0  0  0  0  0  0
    8.1633   -0.1695    0.0000 C   0  0  0  0  0  0  0  0  0  0  0  0
    0.7062   -1.6948    0.0000 C   0  0  0  0  0  0  0  0  0  0  0  0
    1.4406   -2.9377    0.0000 C   0  0  0  0  0  0  0  0  0  0  0  0
    0.0000   -2.1185    0.0000 C   0  0  0  0  0  0  0  0  0  0  0  0
    0.7062   -3.3614    0.0000 C   0  0  0  0  0  0  0  0  0  0  0  0
    0.0000   -2.9377    0.0000 C   0  0  0  0  0  0  0  0  0  0  0  0
    0.7062   -0.8756    0.0000 C   0  0  0  0  0  0  0  0  0  0  0  0
  1  5  1  0  0  0  0
  2  8  2  0  0  0  0
  3  7  1  0  0  0  0
  3  8  1  0  0  0  0
  4 13  1  0  0  0  0
  4 19  2  0  0  0  0
  5  6  1  0  0  0  0
  5  8  1  0  0  0  0
  5  9  1  0  0  0  0
  6  7  2  0  0  0  0
  6 10  1  0  0  0  0
  7 11  1  0  0  0  0
  9 13  1  0  0  0  0
 10 12  2  0  0  0  0
 11 14  2  0  0  0  0
 12 14  1  0  0  0  0
 12 15  1  0  0  0  0
 13 16  2  0  0  0  0
 15 17  1  0  0  0  0
 16 20  1  0  0  0  0
 17 18  1  0  0  0  0
 18 22  1  0  0  0  0
 18 23  2  0  0  0  0
 19 21  1  0  0  0  0
 20 21  2  0  0  0  0
 22 24  2  0  0  0  0
 22 27  1  0  0  0  0
 23 25  1  0  0  0  0
 24 26  1  0  0  0  0
 25 26  2  0  0  0  0
M  END
> <PUBCHEM_COMPOUND_ID_TYPE>
0

> <PUBCHEM_TOTAL_CHARGE>
0

> <PUBCHEM_SUBSTANCE_ID>
310934601

> <PUBCHEM_SUBSTANCE_VERSION>
1

> <PUBCHEM_EXT_DATASOURCE_NAME>
4488

> <PUBCHEM_EXT_DATASOURCE_REGID>
SCHEMBL16112096

> <PUBCHEM_SUBSTANCE_COMMENT>
InChI=1S/C23H22N2O2/c1-16-6-2-3-7-18(16)11-9-17-10-12-21-20(14-17)23(27,22(26)25-21)15-19-8-4-5-13-24-19/h2-8,10,12-14,27H,9,11,15H2,1H3,(H,25,26)
InChIKey=XTBORPAKYMCCFD-UHFFFAOYSA-N

> <PUBCHEM_SUBSTANCE_SYNONYM>
SCHEMBL16112096

> <PUBCHEM_XREF_EXT_ID>
SCHEMBL16112096

> <PUBCHEM_EXT_DATASOURCE_URL>
https://www.surechembl.org/

> <PUBCHEM_EXT_SUBSTANCE_URL>
https://www.surechembl.org/chemical/SCHEMBL16112096

> <PUBCHEM_CID_ASSOCIATIONS>
117602781  1

> <PUBCHEM_COORDINATE_TYPE>
1
3

$$$$
