310945845
  -OEChem-07211613022D

 29 29  0     1  0  0  0  0  0999 V2000
    4.4001    0.7333    0.0000 O   0  0  0  0  0  0  0  0  0  0  0  0
    3.2547   -1.2502    0.0000 O   0  0  0  0  0  0  0  0  0  0  0  0
    1.0896    0.8451    0.0000 O   0  0  0  0  0  0  0  0  0  0  0  0
   -1.0896   -1.2502    0.0000 O   0  0  0  0  0  0  0  0  0  0  0  0
   -3.2547    0.8451    0.0000 O   0  0  0  0  0  0  0  0  0  0  0  0
    1.8159   -0.3981    0.0000 N   0  0  0  0  0  0  0  0  0  0  0  0
   -0.3632    0.0209    0.0000 N   0  0  0  0  0  0  0  0  0  0  0  0
   -2.5283   -0.3981    0.0000 N   0  0  0  0  0  0  0  0  0  0  0  0
   -4.7074   -0.8172    0.0000 N   0  0  0  0  0  0  0  0  0  0  0  0
    3.9811    0.0349    0.0000 C   0  0  3  0  0  0  0  0  0  0  0  0
    3.2687   -0.3701    0.0000 C   0  0  0  0  0  0  0  0  0  0  0  0
    3.5900    0.7473    0.0000 C   0  0  0  0  0  0  0  0  0  0  0  0
    2.5283    0.0209    0.0000 C   0  0  3  0  0  0  0  0  0  0  0  0
    4.7214   -0.4260    0.0000 C   0  0  0  0  0  0  0  0  0  0  0  0
    1.0896   -0.0070    0.0000 C   0  0  0  0  0  0  0  0  0  0  0  0
    0.3772   -0.3981    0.0000 C   0  0  3  0  0  0  0  0  0  0  0  0
    2.5423    1.3619    0.0000 C   0  0  0  0  0  0  0  0  0  0  0  0
   -1.0896   -0.3701    0.0000 C   0  0  0  0  0  0  0  0  0  0  0  0
   -1.8159    0.0209    0.0000 C   0  0  3  0  0  0  0  0  0  0  0  0
   -3.2547   -0.0070    0.0000 C   0  0  0  0  0  0  0  0  0  0  0  0
   -3.9811   -0.3981    0.0000 C   0  0  0  0  0  0  0  0  0  0  0  0
    0.3772   -1.2362    0.0000 C   0  0  0  0  0  0  0  0  0  0  0  0
    2.0255    1.6274    0.0000 C   0  0  0  0  0  0  0  0  0  0  0  0
   -1.8159    0.8730    0.0000 C   0  0  0  0  0  0  0  0  0  0  0  0
    1.0896   -1.6134    0.0000 C   0  0  0  0  0  0  0  0  0  0  0  0
   -4.7214    0.0070    0.0000 C   0  0  0  0  0  0  0  0  0  0  0  0
   -3.9532   -1.2502    0.0000 C   0  0  0  0  0  0  0  0  0  0  0  0
    1.8159   -1.2362    0.0000 C   0  0  0  0  0  0  0  0  0  0  0  0
    2.3887   -1.6274    0.0000 C   0  0  0  0  0  0  0  0  0  0  0  0
  1 10  1  0  0  0  0
  1 12  1  0  0  0  0
  2 11  2  0  0  0  0
  3 15  2  0  0  0  0
  4 18  2  0  0  0  0
  5 20  2  0  0  0  0
  6 13  1  0  0  0  0
  6 15  1  0  0  0  0
  7 16  1  0  0  0  0
  7 18  1  0  0  0  0
  8 19  1  0  0  0  0
  8 20  1  0  0  0  0
  9 21  1  0  0  0  0
 10 11  1  0  0  0  0
 10 12  1  0  0  0  0
 10 14  1  0  0  0  0
 11 13  1  0  0  0  0
 13 17  1  0  0  0  0
 15 16  1  0  0  0  0
 16 22  1  0  0  0  0
 17 23  1  0  0  0  0
 18 19  1  0  0  0  0
 19 24  1  0  0  0  0
 20 21  1  0  0  0  0
 21 26  1  0  0  0  0
 21 27  1  0  0  0  0
 22 25  1  0  0  0  0
 25 28  1  0  0  0  0
 28 29  2  0  0  0  0
M  END
> <PUBCHEM_COMPOUND_ID_TYPE>
0

> <PUBCHEM_TOTAL_CHARGE>
0

> <PUBCHEM_SUBSTANCE_ID>
310945845

> <PUBCHEM_SUBSTANCE_VERSION>
1

> <PUBCHEM_EXT_DATASOURCE_NAME>
4488

> <PUBCHEM_EXT_DATASOURCE_REGID>
SCHEMBL16123950

> <PUBCHEM_SUBSTANCE_COMMENT>
InChI=1S/C20H34N4O5/c1-7-9-10-14(24-16(26)12(3)22-18(28)19(4,5)21)17(27)23-13(8-2)15(25)20(6)11-29-20/h7,12-14H,1,8-11,21H2,2-6H3,(H,22,28)(H,23,27)(H,24,26)
InChIKey=MDMCIRAZANKCND-UHFFFAOYSA-N

> <PUBCHEM_SUBSTANCE_SYNONYM>
SCHEMBL16123950

> <PUBCHEM_XREF_EXT_ID>
SCHEMBL16123950

> <PUBCHEM_EXT_DATASOURCE_URL>
https://www.surechembl.org/

> <PUBCHEM_EXT_SUBSTANCE_URL>
https://www.surechembl.org/chemical/SCHEMBL16123950

> <PUBCHEM_CID_ASSOCIATIONS>
117611831  1

> <PUBCHEM_COORDINATE_TYPE>
1
3

$$$$
