310934523
  -OEChem-07211613022D

 23 25  0     1  0  0  0  0  0999 V2000
   -2.4731   -0.1741    0.0000 F   0  0  0  0  0  0  0  0  0  0  0  0
    0.5420    0.3405    0.0000 O   0  0  0  0  0  0  0  0  0  0  0  0
    1.6039   -0.6157    0.0000 O   0  0  0  0  0  0  0  0  0  0  0  0
    2.4477   -3.5754    0.0000 N   0  0  0  0  0  0  0  0  0  0  0  0
    0.2449   -1.0572    0.0000 C   0  0  3  0  0  0  0  0  0  0  0  0
   -0.3071   -0.4441    0.0000 C   0  0  0  0  0  0  0  0  0  0  0  0
    0.9123   -1.5422    0.0000 C   0  0  0  0  0  0  0  0  0  0  0  0
    0.7969   -0.4441    0.0000 C   0  0  0  0  0  0  0  0  0  0  0  0
    0.6574   -2.3268    0.0000 C   0  0  3  0  0  0  0  0  0  0  0  0
   -0.4226   -1.5422    0.0000 C   0  0  0  0  0  0  0  0  0  0  0  0
   -1.1141   -0.6157    0.0000 C   0  0  0  0  0  0  0  0  0  0  0  0
   -0.1676   -2.3268    0.0000 C   0  0  0  0  0  0  0  0  0  0  0  0
   -0.0522    0.3405    0.0000 C   0  0  0  0  0  0  0  0  0  0  0  0
    1.1423   -2.9942    0.0000 C   0  0  0  0  0  0  0  0  0  0  0  0
   -1.6662   -0.0026    0.0000 C   0  0  0  0  0  0  0  0  0  0  0  0
   -0.6042    0.9536    0.0000 C   0  0  0  0  0  0  0  0  0  0  0  0
   -1.4112    0.7820    0.0000 C   0  0  0  0  0  0  0  0  0  0  0  0
   -1.3691   -1.4003    0.0000 C   0  0  0  0  0  0  0  0  0  0  0  0
    1.9628   -2.9080    0.0000 C   0  0  0  0  0  0  0  0  0  0  0  0
    0.8067   -3.7479    0.0000 C   0  0  0  0  0  0  0  0  0  0  0  0
    1.2917   -4.4153    0.0000 C   0  0  0  0  0  0  0  0  0  0  0  0
    1.0940    0.9536    0.0000 C   0  0  0  0  0  0  0  0  0  0  0  0
    2.1122   -4.3291    0.0000 C   0  0  0  0  0  0  0  0  0  0  0  0
  1 15  1  0  0  0  0
  2  8  1  0  0  0  0
  2 22  1  0  0  0  0
  3  8  2  0  0  0  0
  4 19  2  0  0  0  0
  4 23  1  0  0  0  0
  5  6  1  0  0  0  0
  5  7  1  0  0  0  0
  5  8  1  0  0  0  0
  5 10  1  0  0  0  0
  6 11  2  0  0  0  0
  6 13  1  0  0  0  0
  7  9  1  0  0  0  0
  9 12  1  0  0  0  0
  9 14  1  0  0  0  0
 10 12  1  0  0  0  0
 11 15  1  0  0  0  0
 11 18  1  0  0  0  0
 13 16  2  0  0  0  0
 14 19  1  0  0  0  0
 14 20  2  0  0  0  0
 15 17  2  0  0  0  0
 16 17  1  0  0  0  0
 20 21  1  0  0  0  0
 21 23  2  0  0  0  0
M  END
> <PUBCHEM_COMPOUND_ID_TYPE>
0

> <PUBCHEM_TOTAL_CHARGE>
0

> <PUBCHEM_SUBSTANCE_ID>
310934523

> <PUBCHEM_SUBSTANCE_VERSION>
1

> <PUBCHEM_EXT_DATASOURCE_NAME>
4488

> <PUBCHEM_EXT_DATASOURCE_REGID>
SCHEMBL16112012

> <PUBCHEM_SUBSTANCE_COMMENT>
InChI=1S/C19H20FNO2/c1-13-16(6-3-7-17(13)20)19(18(22)23-2)9-8-14(11-19)15-5-4-10-21-12-15/h3-7,10,12,14H,8-9,11H2,1-2H3
InChIKey=BWSDHCGHEVLCFH-UHFFFAOYSA-N

> <PUBCHEM_SUBSTANCE_SYNONYM>
SCHEMBL16112012

> <PUBCHEM_XREF_EXT_ID>
SCHEMBL16112012

> <PUBCHEM_EXT_DATASOURCE_URL>
https://www.surechembl.org/

> <PUBCHEM_EXT_SUBSTANCE_URL>
https://www.surechembl.org/chemical/SCHEMBL16112012

> <PUBCHEM_CID_ASSOCIATIONS>
117602721  1

> <PUBCHEM_COORDINATE_TYPE>
1
3

$$$$
