310937309
  -OEChem-07211613022D

  9  9  0     1  0  0  0  0  0999 V2000
   -2.0202    0.6901    0.0000 O   0  0  0  0  0  0  0  0  0  0  0  0
    0.0000    0.0000    0.0000 O   0  0  0  0  0  0  0  0  0  0  0  0
   -0.1876    1.7850    0.0000 N   0  0  0  0  0  0  0  0  0  0  0  0
   -0.7145    0.4125    0.0000 C   0  0  3  0  0  0  0  0  0  0  0  0
   -0.8007    1.2330    0.0000 C   0  0  3  0  0  0  0  0  0  0  0  0
   -1.4681    0.0770    0.0000 C   0  0  0  0  0  0  0  0  0  0  0  0
   -1.6077    1.4045    0.0000 C   0  0  0  0  0  0  0  0  0  0  0  0
    0.7145    0.4125    0.0000 C   0  0  0  0  0  0  0  0  0  0  0  0
    1.4290    0.0000    0.0000 C   0  0  0  0  0  0  0  0  0  0  0  0
  1  6  1  0  0  0  0
  1  7  1  0  0  0  0
  2  4  1  0  0  0  0
  2  8  1  0  0  0  0
  3  5  1  0  0  0  0
  4  5  1  0  0  0  0
  4  6  1  0  0  0  0
  5  7  1  0  0  0  0
  8  9  1  0  0  0  0
M  END
> <PUBCHEM_COMPOUND_ID_TYPE>
0

> <PUBCHEM_TOTAL_CHARGE>
0

> <PUBCHEM_SUBSTANCE_ID>
310937309

> <PUBCHEM_SUBSTANCE_VERSION>
1

> <PUBCHEM_EXT_DATASOURCE_NAME>
4488

> <PUBCHEM_EXT_DATASOURCE_REGID>
SCHEMBL16115057

> <PUBCHEM_SUBSTANCE_COMMENT>
InChI=1S/C6H13NO2/c1-2-9-6-4-8-3-5(6)7/h5-6H,2-4,7H2,1H3
InChIKey=DHKFYFFNUUVCHK-UHFFFAOYSA-N

> <PUBCHEM_SUBSTANCE_SYNONYM>
SCHEMBL16115057

> <PUBCHEM_XREF_EXT_ID>
SCHEMBL16115057

> <PUBCHEM_EXT_DATASOURCE_URL>
https://www.surechembl.org/

> <PUBCHEM_EXT_SUBSTANCE_URL>
https://www.surechembl.org/chemical/SCHEMBL16115057

> <PUBCHEM_CID_ASSOCIATIONS>
53398901  1

> <PUBCHEM_COORDINATE_TYPE>
1
3

$$$$
