310945856
  -OEChem-07211613022D

 35 37  0     1  0  0  0  0  0999 V2000
    3.9975    0.6789    0.0000 O   0  0  0  0  0  0  0  0  0  0  0  0
    2.8613   -1.2886    0.0000 O   0  0  0  0  0  0  0  0  0  0  0  0
    0.6998    0.7898    0.0000 O   0  0  0  0  0  0  0  0  0  0  0  0
   -1.4618   -1.2886    0.0000 O   0  0  0  0  0  0  0  0  0  0  0  0
    2.8613   -2.9375    0.0000 O   0  0  0  0  0  0  0  0  0  0  0  0
    1.4341   -0.4434    0.0000 N   0  0  0  0  0  0  0  0  0  0  0  0
   -0.7274   -0.0277    0.0000 N   0  0  0  0  0  0  0  0  0  0  0  0
   -2.8890   -0.4434    0.0000 N   0  0  0  0  0  0  0  0  0  0  0  0
    3.5818   -0.0139    0.0000 C   0  0  3  0  0  0  0  0  0  0  0  0
    2.8751   -0.4157    0.0000 C   0  0  0  0  0  0  0  0  0  0  0  0
    3.1938    0.6789    0.0000 C   0  0  0  0  0  0  0  0  0  0  0  0
    2.1407   -0.0277    0.0000 C   0  0  3  0  0  0  0  0  0  0  0  0
    4.3300   -0.4434    0.0000 C   0  0  0  0  0  0  0  0  0  0  0  0
    2.1546    1.3024    0.0000 C   0  0  0  0  0  0  0  0  0  0  0  0
    0.6998   -0.0415    0.0000 C   0  0  0  0  0  0  0  0  0  0  0  0
   -0.0069   -0.4434    0.0000 C   0  0  3  0  0  0  0  0  0  0  0  0
    1.4202    1.7320    0.0000 C   0  0  0  0  0  0  0  0  0  0  0  0
   -0.0069   -1.2748    0.0000 C   0  0  0  0  0  0  0  0  0  0  0  0
    0.7135   -1.6905    0.0000 C   0  0  0  0  0  0  0  0  0  0  0  0
   -1.4618   -0.4157    0.0000 C   0  0  0  0  0  0  0  0  0  0  0  0
    1.4202    2.5357    0.0000 C   0  0  0  0  0  0  0  0  0  0  0  0
    0.7274    1.3024    0.0000 C   0  0  0  0  0  0  0  0  0  0  0  0
    1.4202   -1.2886    0.0000 C   0  0  0  0  0  0  0  0  0  0  0  0
    0.7135   -2.5079    0.0000 C   0  0  0  0  0  0  0  0  0  0  0  0
   -2.1823   -0.0277    0.0000 C   0  0  3  0  0  0  0  0  0  0  0  0
    2.1407   -2.5079    0.0000 C   0  0  0  0  0  0  0  0  0  0  0  0
    2.1407   -1.6905    0.0000 C   0  0  0  0  0  0  0  0  0  0  0  0
    1.4479   -2.9236    0.0000 C   0  0  0  0  0  0  0  0  0  0  0  0
    0.6859    2.9375    0.0000 C   0  0  0  0  0  0  0  0  0  0  0  0
   -0.0069    1.7181    0.0000 C   0  0  0  0  0  0  0  0  0  0  0  0
   -0.0069    2.5357    0.0000 C   0  0  0  0  0  0  0  0  0  0  0  0
   -2.1823    0.8175    0.0000 C   0  0  0  0  0  0  0  0  0  0  0  0
   -3.6233   -0.0277    0.0000 C   0  0  0  0  0  0  0  0  0  0  0  0
    3.5818   -2.5079    0.0000 C   0  0  0  0  0  0  0  0  0  0  0  0
   -4.3300   -0.4711    0.0000 C   0  0  0  0  0  0  0  0  0  0  0  0
  1  9  1  0  0  0  0
  1 11  1  0  0  0  0
  2 10  2  0  0  0  0
  3 15  2  0  0  0  0
  4 20  2  0  0  0  0
  5 26  1  0  0  0  0
  5 34  1  0  0  0  0
  6 12  1  0  0  0  0
  6 15  1  0  0  0  0
  7 16  1  0  0  0  0
  7 20  1  0  0  0  0
  8 25  1  0  0  0  0
  8 33  1  0  0  0  0
  9 10  1  0  0  0  0
  9 11  1  0  0  0  0
  9 13  1  0  0  0  0
 10 12  1  0  0  0  0
 12 14  1  0  0  0  0
 14 17  1  0  0  0  0
 15 16  1  0  0  0  0
 16 18  1  0  0  0  0
 17 21  2  0  0  0  0
 17 22  1  0  0  0  0
 18 19  1  0  0  0  0
 19 23  2  0  0  0  0
 19 24  1  0  0  0  0
 20 25  1  0  0  0  0
 21 29  1  0  0  0  0
 22 30  2  0  0  0  0
 23 27  1  0  0  0  0
 24 28  2  0  0  0  0
 25 32  1  0  0  0  0
 26 27  2  0  0  0  0
 26 28  1  0  0  0  0
 29 31  2  0  0  0  0
 30 31  1  0  0  0  0
 33 35  1  0  0  0  0
M  END
> <PUBCHEM_COMPOUND_ID_TYPE>
0

> <PUBCHEM_TOTAL_CHARGE>
0

> <PUBCHEM_SUBSTANCE_ID>
310945856

> <PUBCHEM_SUBSTANCE_VERSION>
1

> <PUBCHEM_EXT_DATASOURCE_NAME>
4488

> <PUBCHEM_EXT_DATASOURCE_REGID>
SCHEMBL16123961

> <PUBCHEM_SUBSTANCE_COMMENT>
InChI=1S/C27H35N3O5/c1-5-28-18(2)25(32)30-23(16-20-11-13-21(34-4)14-12-20)26(33)29-22(24(31)27(3)17-35-27)15-19-9-7-6-8-10-19/h6-14,18,22-23,28H,5,15-17H2,1-4H3,(H,29,33)(H,30,32)
InChIKey=KCHMSCDEWRSBLX-UHFFFAOYSA-N

> <PUBCHEM_SUBSTANCE_SYNONYM>
SCHEMBL16123961

> <PUBCHEM_XREF_EXT_ID>
SCHEMBL16123961

> <PUBCHEM_EXT_DATASOURCE_URL>
https://www.surechembl.org/

> <PUBCHEM_EXT_SUBSTANCE_URL>
https://www.surechembl.org/chemical/SCHEMBL16123961

> <PUBCHEM_CID_ASSOCIATIONS>
117611840  1

> <PUBCHEM_COORDINATE_TYPE>
1
3

$$$$
