310946735
  -OEChem-07211613022D

 16 17  0     1  0  0  0  0  0999 V2000
   -2.7770    0.6122    0.0000 O   0  0  0  0  0  0  0  0  0  0  0  0
   -2.0649   -1.0247    0.0000 N   0  0  0  0  0  0  0  0  0  0  0  0
   -1.5799   -1.6921    0.0000 N   0  0  0  0  0  0  0  0  0  0  0  0
    0.6336   -0.6122    0.0000 N   0  0  3  0  0  0  0  0  0  0  0  0
    2.7770   -0.1997    0.0000 N   0  0  0  0  0  0  0  0  0  0  0  0
   -1.5799   -0.3572    0.0000 C   0  0  0  0  0  0  0  0  0  0  0  0
   -0.7953   -0.6122    0.0000 C   0  0  0  0  0  0  0  0  0  0  0  0
   -1.9924    0.3572    0.0000 C   0  0  0  0  0  0  0  0  0  0  0  0
   -0.7953   -1.4372    0.0000 C   0  0  0  0  0  0  0  0  0  0  0  0
   -0.0808   -0.1997    0.0000 C   0  0  0  0  0  0  0  0  0  0  0  0
   -1.5075    1.0247    0.0000 C   0  0  0  0  0  0  0  0  0  0  0  0
   -2.7770    1.4372    0.0000 C   0  0  0  0  0  0  0  0  0  0  0  0
   -1.9924    1.6921    0.0000 C   0  0  0  0  0  0  0  0  0  0  0  0
    1.3481   -0.1997    0.0000 C   0  0  0  0  0  0  0  0  0  0  0  0
    0.6336   -1.4372    0.0000 C   0  0  0  0  0  0  0  0  0  0  0  0
    2.0626   -0.6122    0.0000 C   0  0  0  0  0  0  0  0  0  0  0  0
  1  8  1  0  0  0  0
  1 12  1  0  0  0  0
  2  3  1  0  0  0  0
  2  6  2  0  0  0  0
  3  9  1  0  0  0  0
  4 10  1  0  0  0  0
  4 14  1  0  0  0  0
  4 15  1  0  0  0  0
  5 16  1  0  0  0  0
  6  7  1  0  0  0  0
  6  8  1  0  0  0  0
  7  9  2  0  0  0  0
  7 10  1  0  0  0  0
  8 11  2  0  0  0  0
 11 13  1  0  0  0  0
 12 13  2  0  0  0  0
 14 16  1  0  0  0  0
M  END
> <PUBCHEM_COMPOUND_ID_TYPE>
0

> <PUBCHEM_TOTAL_CHARGE>
0

> <PUBCHEM_SUBSTANCE_ID>
310946735

> <PUBCHEM_SUBSTANCE_VERSION>
1

> <PUBCHEM_EXT_DATASOURCE_NAME>
4488

> <PUBCHEM_EXT_DATASOURCE_REGID>
SCHEMBL16124859

> <PUBCHEM_SUBSTANCE_COMMENT>
InChI=1S/C11H16N4O/c1-15(5-4-12)8-9-7-13-14-11(9)10-3-2-6-16-10/h2-3,6-7H,4-5,8,12H2,1H3,(H,13,14)
InChIKey=LQQIXYCGWRGHRC-UHFFFAOYSA-N

> <PUBCHEM_SUBSTANCE_SYNONYM>
SCHEMBL16124859

> <PUBCHEM_XREF_EXT_ID>
SCHEMBL16124859

> <PUBCHEM_EXT_DATASOURCE_URL>
https://www.surechembl.org/

> <PUBCHEM_EXT_SUBSTANCE_URL>
https://www.surechembl.org/chemical/SCHEMBL16124859

> <PUBCHEM_CID_ASSOCIATIONS>
86295917  1

> <PUBCHEM_COORDINATE_TYPE>
1
3

$$$$
