310949359
  -OEChem-07211613022D

 28 29  0     1  0  0  0  0  0999 V2000
   -1.0051    1.4394    0.0000 F   0  0  0  0  0  0  0  0  0  0  0  0
   -0.7818    2.2336    0.0000 F   0  0  0  0  0  0  0  0  0  0  0  0
    0.0124    2.4570    0.0000 F   0  0  0  0  0  0  0  0  0  0  0  0
    2.5563    0.9058    0.0000 O   0  0  0  0  0  0  0  0  0  0  0  0
   -0.2358   -2.1964    0.0000 N   0  0  0  0  0  0  0  0  0  0  0  0
    0.6701   -2.4570    0.0000 N   0  0  0  0  0  0  0  0  0  0  0  0
   -1.6752   -1.3650    0.0000 N   0  0  3  0  0  0  0  0  0  0  0  0
   -3.8220   -0.9555    0.0000 N   0  0  0  0  0  0  0  0  0  0  0  0
    0.7570   -0.3102    0.0000 C   0  0  0  0  0  0  0  0  0  0  0  0
    0.5336   -1.1168    0.0000 C   0  0  0  0  0  0  0  0  0  0  0  0
    1.5512   -0.0869    0.0000 C   0  0  0  0  0  0  0  0  0  0  0  0
    0.3847    1.0672    0.0000 C   0  0  0  0  0  0  0  0  0  0  0  0
    1.7745    0.7073    0.0000 C   0  0  0  0  0  0  0  0  0  0  0  0
    0.1862    0.2730    0.0000 C   0  0  0  0  0  0  0  0  0  0  0  0
   -0.2358   -1.3650    0.0000 C   0  0  0  0  0  0  0  0  0  0  0  0
   -0.2109    1.6628    0.0000 C   0  0  0  0  0  0  0  0  0  0  0  0
    1.1913    1.2781    0.0000 C   0  0  0  0  0  0  0  0  0  0  0  0
    1.0300   -1.7745    0.0000 C   0  0  0  0  0  0  0  0  0  0  0  0
   -0.9679   -0.9555    0.0000 C   0  0  0  0  0  0  0  0  0  0  0  0
    2.1468   -0.6825    0.0000 C   0  0  0  0  0  0  0  0  0  0  0  0
    3.1519    0.3350    0.0000 C   0  0  0  0  0  0  0  0  0  0  0  0
   -2.3949   -0.9555    0.0000 C   0  0  0  0  0  0  0  0  0  0  0  0
    3.9585    0.5336    0.0000 C   0  0  0  0  0  0  0  0  0  0  0  0
   -1.6628   -2.1964    0.0000 C   0  0  0  0  0  0  0  0  0  0  0  0
   -3.1022   -1.3650    0.0000 C   0  0  0  0  0  0  0  0  0  0  0  0
    4.5293   -0.0372    0.0000 C   0  0  0  0  0  0  0  0  0  0  0  0
    4.1570    1.3278    0.0000 C   0  0  0  0  0  0  0  0  0  0  0  0
   -4.5293   -1.3650    0.0000 C   0  0  0  0  0  0  0  0  0  0  0  0
  1 16  1  0  0  0  0
  2 16  1  0  0  0  0
  3 16  1  0  0  0  0
  4 13  1  0  0  0  0
  4 21  1  0  0  0  0
  5  6  1  0  0  0  0
  5 15  2  0  0  0  0
  6 18  1  0  0  0  0
  7 19  1  0  0  0  0
  7 22  1  0  0  0  0
  7 24  1  0  0  0  0
  8 25  1  0  0  0  0
  8 28  1  0  0  0  0
  9 10  1  0  0  0  0
  9 11  2  0  0  0  0
  9 14  1  0  0  0  0
 10 15  1  0  0  0  0
 10 18  2  0  0  0  0
 11 13  1  0  0  0  0
 11 20  1  0  0  0  0
 12 14  2  0  0  0  0
 12 16  1  0  0  0  0
 12 17  1  0  0  0  0
 13 17  2  0  0  0  0
 15 19  1  0  0  0  0
 21 23  1  0  0  0  0
 22 25  1  0  0  0  0
 23 26  1  0  0  0  0
 23 27  1  0  0  0  0
M  END
> <PUBCHEM_COMPOUND_ID_TYPE>
0

> <PUBCHEM_TOTAL_CHARGE>
0

> <PUBCHEM_SUBSTANCE_ID>
310949359

> <PUBCHEM_SUBSTANCE_VERSION>
1

> <PUBCHEM_EXT_DATASOURCE_NAME>
4488

> <PUBCHEM_EXT_DATASOURCE_REGID>
SCHEMBL16127551

> <PUBCHEM_SUBSTANCE_COMMENT>
InChI=1S/C20H29F3N4O/c1-13(2)12-28-19-9-15(20(21,22)23)8-16(14(19)3)17-10-25-26-18(17)11-27(5)7-6-24-4/h8-10,13,24H,6-7,11-12H2,1-5H3,(H,25,26)
InChIKey=HRJPMGJAPGJAPO-UHFFFAOYSA-N

> <PUBCHEM_SUBSTANCE_SYNONYM>
SCHEMBL16127551

> <PUBCHEM_XREF_EXT_ID>
SCHEMBL16127551

> <PUBCHEM_EXT_DATASOURCE_URL>
https://www.surechembl.org/

> <PUBCHEM_EXT_SUBSTANCE_URL>
https://www.surechembl.org/chemical/SCHEMBL16127551

> <PUBCHEM_CID_ASSOCIATIONS>
85473270  1

> <PUBCHEM_COORDINATE_TYPE>
1
3

$$$$
