310945124
  -OEChem-07211613022D

 27 30  0     1  0  0  0  0  0999 V2000
    3.6764    0.8092    0.0000 O   0  0  0  0  0  0  0  0  0  0  0  0
   -3.1618   -1.7727    0.0000 O   0  0  0  0  0  0  0  0  0  0  0  0
   -1.0009   -1.4827    0.0000 O   0  0  0  0  0  0  0  0  0  0  0  0
   -2.8625    1.7727    0.0000 O   0  0  0  0  0  0  0  0  0  0  0  0
    1.9551   -0.4911    0.0000 N   0  0  0  0  0  0  0  0  0  0  0  0
    3.6015   -0.6689    0.0000 N   0  0  0  0  0  0  0  0  0  0  0  0
   -1.7119   -0.2386    0.0000 N   0  0  0  0  0  0  0  0  0  0  0  0
   -3.4519    0.3602    0.0000 N   0  0  0  0  0  0  0  0  0  0  0  0
    1.1599   -0.2292    0.0000 C   0  0  0  0  0  0  0  0  0  0  0  0
    2.4416    0.1824    0.0000 C   0  0  0  0  0  0  0  0  0  0  0  0
    1.1693    0.5847    0.0000 C   0  0  0  0  0  0  0  0  0  0  0  0
    1.9551    0.8372    0.0000 C   0  0  0  0  0  0  0  0  0  0  0  0
    0.4584   -0.6502    0.0000 C   0  0  0  0  0  0  0  0  0  0  0  0
   -0.2807   -0.2386    0.0000 C   0  0  0  0  0  0  0  0  0  0  0  0
    3.2555    0.0795    0.0000 C   0  0  0  0  0  0  0  0  0  0  0  0
    0.4584    0.9963    0.0000 C   0  0  0  0  0  0  0  0  0  0  0  0
    2.2919   -1.2488    0.0000 C   0  0  0  0  0  0  0  0  0  0  0  0
   -0.9916   -0.6408    0.0000 C   0  0  0  0  0  0  0  0  0  0  0  0
   -0.2619    0.5940    0.0000 C   0  0  0  0  0  0  0  0  0  0  0  0
   -2.4229   -0.6595    0.0000 C   0  0  3  0  0  0  0  0  0  0  0  0
    3.1245   -1.3330    0.0000 C   0  0  0  0  0  0  0  0  0  0  0  0
   -3.2367   -0.4256    0.0000 C   0  0  3  0  0  0  0  0  0  0  0  0
   -2.3854   -1.4827    0.0000 C   0  0  0  0  0  0  0  0  0  0  0  0
   -3.6764   -1.1366    0.0000 C   0  0  0  0  0  0  0  0  0  0  0  0
   -2.8625    0.9215    0.0000 C   0  0  0  0  0  0  0  0  0  0  0  0
   -2.1422    0.5286    0.0000 C   0  0  0  0  0  0  0  0  0  0  0  0
   -1.5716    1.1460    0.0000 C   0  0  0  0  0  0  0  0  0  0  0  0
  1 15  2  0  0  0  0
  2 23  1  0  0  0  0
  2 24  1  0  0  0  0
  3 18  2  0  0  0  0
  4 25  2  0  0  0  0
  5  9  1  0  0  0  0
  5 10  1  0  0  0  0
  5 17  1  0  0  0  0
  6 15  1  0  0  0  0
  6 21  1  0  0  0  0
  7 18  1  0  0  0  0
  7 20  1  0  0  0  0
  8 22  1  0  0  0  0
  8 25  1  0  0  0  0
  9 11  1  0  0  0  0
  9 13  2  0  0  0  0
 10 12  2  0  0  0  0
 10 15  1  0  0  0  0
 11 12  1  0  0  0  0
 11 16  2  0  0  0  0
 13 14  1  0  0  0  0
 14 18  1  0  0  0  0
 14 19  2  0  0  0  0
 16 19  1  0  0  0  0
 17 21  1  0  0  0  0
 20 22  1  0  0  0  0
 20 23  1  0  0  0  0
 22 24  1  0  0  0  0
 25 26  1  0  0  0  0
 26 27  2  0  0  0  0
M  END
> <PUBCHEM_COMPOUND_ID_TYPE>
0

> <PUBCHEM_TOTAL_CHARGE>
0

> <PUBCHEM_SUBSTANCE_ID>
310945124

> <PUBCHEM_SUBSTANCE_VERSION>
1

> <PUBCHEM_EXT_DATASOURCE_NAME>
4488

> <PUBCHEM_EXT_DATASOURCE_REGID>
SCHEMBL16123214

> <PUBCHEM_SUBSTANCE_COMMENT>
InChI=1S/C19H20N4O4/c1-2-17(24)21-13-9-27-10-14(13)22-18(25)12-4-3-11-7-16-19(26)20-5-6-23(16)15(11)8-12/h2-4,7-8,13-14H,1,5-6,9-10H2,(H,20,26)(H,21,24)(H,22,25)
InChIKey=DWRCZKWAMVYKPK-UHFFFAOYSA-N

> <PUBCHEM_SUBSTANCE_SYNONYM>
SCHEMBL16123214

> <PUBCHEM_XREF_EXT_ID>
SCHEMBL16123214

> <PUBCHEM_EXT_DATASOURCE_URL>
https://www.surechembl.org/

> <PUBCHEM_EXT_SUBSTANCE_URL>
https://www.surechembl.org/chemical/SCHEMBL16123214

> <PUBCHEM_CID_ASSOCIATIONS>
117611219  1

> <PUBCHEM_COORDINATE_TYPE>
1
3

$$$$
