310941277
  -OEChem-07211613022D

 42 45  0     1  0  0  0  0  0999 V2000
   -6.0122   -1.4105    0.0000 Cl  0  0  0  0  0  0  0  0  0  0  0  0
    5.6812   -1.0165    0.0000 O   0  0  0  0  0  0  0  0  0  0  0  0
    4.5465    0.9534    0.0000 O   0  0  0  0  0  0  0  0  0  0  0  0
    2.1826   -1.0007    0.0000 O   0  0  0  0  0  0  0  0  0  0  0  0
    0.0236    1.0795    0.0000 O   0  0  0  0  0  0  0  0  0  0  0  0
    4.3416    2.7184    0.0000 O   0  0  0  0  0  0  0  0  0  0  0  0
   -2.1354   -1.0007    0.0000 O   0  0  0  0  0  0  0  0  0  0  0  0
    2.9076    0.2442    0.0000 N   0  0  0  0  0  0  0  0  0  0  0  0
    0.7485   -0.1654    0.0000 N   0  0  0  0  0  0  0  0  0  0  0  0
   -1.4105    0.2442    0.0000 N   0  0  0  0  0  0  0  0  0  0  0  0
   -3.5695   -0.1654    0.0000 N   0  0  0  0  0  0  0  0  0  0  0  0
    5.2872   -0.2758    0.0000 C   0  0  3  0  0  0  0  0  0  0  0  0
    4.5465    0.1339    0.0000 C   0  0  0  0  0  0  0  0  0  0  0  0
    4.8775   -0.9692    0.0000 C   0  0  0  0  0  0  0  0  0  0  0  0
    3.8374   -0.2600    0.0000 C   0  0  3  0  0  0  0  0  0  0  0  0
    6.0122    0.1182    0.0000 C   0  0  0  0  0  0  0  0  0  0  0  0
    3.8216   -1.3474    0.0000 C   0  0  0  0  0  0  0  0  0  0  0  0
    2.1984   -0.1182    0.0000 C   0  0  0  0  0  0  0  0  0  0  0  0
    1.4577    0.2757    0.0000 C   0  0  3  0  0  0  0  0  0  0  0  0
    3.1282   -1.7572    0.0000 C   0  0  0  0  0  0  0  0  0  0  0  0
    1.4735    1.1110    0.0000 C   0  0  0  0  0  0  0  0  0  0  0  0
    2.1826    1.5050    0.0000 C   0  0  0  0  0  0  0  0  0  0  0  0
    2.3560   -1.4420    0.0000 C   0  0  0  0  0  0  0  0  0  0  0  0
    3.0336   -2.5766    0.0000 C   0  0  0  0  0  0  0  0  0  0  0  0
    0.0236    0.2442    0.0000 C   0  0  0  0  0  0  0  0  0  0  0  0
   -0.6855   -0.1339    0.0000 C   0  0  3  0  0  0  0  0  0  0  0  0
    1.8202   -2.0566    0.0000 C   0  0  0  0  0  0  0  0  0  0  0  0
    2.2299   -2.7342    0.0000 C   0  0  0  0  0  0  0  0  0  0  0  0
    2.9076    1.1110    0.0000 C   0  0  0  0  0  0  0  0  0  0  0  0
    2.2141    2.3402    0.0000 C   0  0  0  0  0  0  0  0  0  0  0  0
    3.6325    2.3402    0.0000 C   0  0  0  0  0  0  0  0  0  0  0  0
   -2.1196   -0.1182    0.0000 C   0  0  0  0  0  0  0  0  0  0  0  0
    3.6168    1.5050    0.0000 C   0  0  0  0  0  0  0  0  0  0  0  0
    2.9233    2.7342    0.0000 C   0  0  0  0  0  0  0  0  0  0  0  0
   -2.8603    0.2600    0.0000 C   0  0  0  0  0  0  0  0  0  0  0  0
   -0.6697   -0.9849    0.0000 C   0  0  0  0  0  0  0  0  0  0  0  0
   -4.3101    0.2600    0.0000 C   0  0  0  0  0  0  0  0  0  0  0  0
   -3.5695   -0.9692    0.0000 C   0  0  0  0  0  0  0  0  0  0  0  0
   -5.0193   -0.9692    0.0000 C   0  0  0  0  0  0  0  0  0  0  0  0
   -4.2786   -1.3789    0.0000 C   0  0  0  0  0  0  0  0  0  0  0  0
   -5.0035   -0.1339    0.0000 C   0  0  0  0  0  0  0  0  0  0  0  0
    5.0666    2.3087    0.0000 C   0  0  0  0  0  0  0  0  0  0  0  0
  1 39  1  0  0  0  0
  2 12  1  0  0  0  0
  2 14  1  0  0  0  0
  3 13  2  0  0  0  0
  4 18  2  0  0  0  0
  5 25  2  0  0  0  0
  6 31  1  0  0  0  0
  6 42  1  0  0  0  0
  7 32  2  0  0  0  0
  8 15  1  0  0  0  0
  8 18  1  0  0  0  0
  9 19  1  0  0  0  0
  9 25  1  0  0  0  0
 10 26  1  0  0  0  0
 10 32  1  0  0  0  0
 11 35  1  0  0  0  0
 11 37  1  0  0  0  0
 11 38  1  0  0  0  0
 12 13  1  0  0  0  0
 12 14  1  0  0  0  0
 12 16  1  0  0  0  0
 13 15  1  0  0  0  0
 15 17  1  0  0  0  0
 17 20  1  0  0  0  0
 18 19  1  0  0  0  0
 19 21  1  0  0  0  0
 20 23  1  0  0  0  0
 20 24  1  0  0  0  0
 21 22  1  0  0  0  0
 22 29  2  0  0  0  0
 22 30  1  0  0  0  0
 23 27  1  0  0  0  0
 24 28  1  0  0  0  0
 25 26  1  0  0  0  0
 26 36  1  0  0  0  0
 27 28  1  0  0  0  0
 29 33  1  0  0  0  0
 30 34  2  0  0  0  0
 31 33  2  0  0  0  0
 31 34  1  0  0  0  0
 32 35  1  0  0  0  0
 37 41  1  0  0  0  0
 38 40  1  0  0  0  0
 39 40  1  0  0  0  0
 39 41  1  0  0  0  0
M  END
> <PUBCHEM_COMPOUND_ID_TYPE>
0

> <PUBCHEM_TOTAL_CHARGE>
0

> <PUBCHEM_SUBSTANCE_ID>
310941277

> <PUBCHEM_SUBSTANCE_VERSION>
1

> <PUBCHEM_EXT_DATASOURCE_NAME>
4488

> <PUBCHEM_EXT_DATASOURCE_REGID>
SCHEMBL16119237

> <PUBCHEM_SUBSTANCE_COMMENT>
InChI=1S/C31H45ClN4O6/c1-20(33-27(37)18-36-14-12-23(32)13-15-36)29(39)35-26(17-22-8-10-24(41-3)11-9-22)30(40)34-25(16-21-6-4-5-7-21)28(38)31(2)19-42-31/h8-11,20-21,23,25-26H,4-7,12-19H2,1-3H3,(H,33,37)(H,34,40)(H,35,39)
InChIKey=UZUYDRILVNCKKY-UHFFFAOYSA-N

> <PUBCHEM_SUBSTANCE_SYNONYM>
SCHEMBL16119237

> <PUBCHEM_XREF_EXT_ID>
SCHEMBL16119237

> <PUBCHEM_EXT_DATASOURCE_URL>
https://www.surechembl.org/

> <PUBCHEM_EXT_SUBSTANCE_URL>
https://www.surechembl.org/chemical/SCHEMBL16119237

> <PUBCHEM_CID_ASSOCIATIONS>
86297714  1

> <PUBCHEM_COORDINATE_TYPE>
1
3

$$$$
