310944032
  -OEChem-07211613022D

 26 28  0     1  0  0  0  0  0999 V2000
   -0.3346    2.9018    0.0000 O   0  0  0  0  0  0  0  0  0  0  0  0
   -0.3072   -2.9018    0.0000 O   0  5  0  0  0  0  0  0  0  0  0  0
    0.3892   -1.7001    0.0000 O   0  0  0  0  0  0  0  0  0  0  0  0
    0.3892    1.6592    0.0000 N   0  0  0  0  0  0  0  0  0  0  0  0
   -0.3072   -2.0825    0.0000 N   0  3  0  0  0  0  0  0  0  0  0  0
    2.2054    1.2495    0.0000 N   0  0  3  0  0  0  0  0  0  0  0  0
   -1.7411    0.4165    0.0000 C   0  0  0  0  0  0  0  0  0  0  0  0
   -1.0447    1.6728    0.0000 C   0  0  0  0  0  0  0  0  0  0  0  0
   -1.7547   -0.4165    0.0000 C   0  0  0  0  0  0  0  0  0  0  0  0
   -1.0583    0.8261    0.0000 C   0  0  0  0  0  0  0  0  0  0  0  0
   -2.4648    0.8398    0.0000 C   0  0  0  0  0  0  0  0  0  0  0  0
   -0.3346    2.0551    0.0000 C   0  0  0  0  0  0  0  0  0  0  0  0
   -1.7411    2.0551    0.0000 C   0  0  0  0  0  0  0  0  0  0  0  0
   -1.0447   -0.8261    0.0000 C   0  0  0  0  0  0  0  0  0  0  0  0
   -2.4648    1.6455    0.0000 C   0  0  0  0  0  0  0  0  0  0  0  0
   -1.0447   -1.6592    0.0000 C   0  0  0  0  0  0  0  0  0  0  0  0
   -2.4512   -0.8398    0.0000 C   0  0  0  0  0  0  0  0  0  0  0  0
   -1.7138   -2.0688    0.0000 C   0  0  0  0  0  0  0  0  0  0  0  0
    1.0310    2.1781    0.0000 C   0  0  0  0  0  0  0  0  0  0  0  0
   -2.4376   -1.6728    0.0000 C   0  0  0  0  0  0  0  0  0  0  0  0
    0.4029    0.8398    0.0000 C   0  0  0  0  0  0  0  0  0  0  0  0
   -2.9974    0.4984    0.0000 C   0  0  0  0  0  0  0  0  0  0  0  0
    1.8504    2.0005    0.0000 C   0  0  0  0  0  0  0  0  0  0  0  0
    1.0583    0.3209    0.0000 C   0  0  0  0  0  0  0  0  0  0  0  0
    1.8367    0.4984    0.0000 C   0  0  0  0  0  0  0  0  0  0  0  0
    2.9974    1.0310    0.0000 C   0  0  0  0  0  0  0  0  0  0  0  0
  1 12  2  0  0  0  0
  2  5  1  0  0  0  0
  3  5  2  0  0  0  0
  4 12  1  0  0  0  0
  4 19  1  0  0  0  0
  4 21  1  0  0  0  0
  5 16  1  0  0  0  0
  6 23  1  0  0  0  0
  6 25  1  0  0  0  0
  6 26  1  0  0  0  0
  7  9  1  0  0  0  0
  7 10  2  0  0  0  0
  7 11  1  0  0  0  0
  8 10  1  0  0  0  0
  8 12  1  0  0  0  0
  8 13  2  0  0  0  0
  9 14  1  0  0  0  0
  9 17  2  0  0  0  0
 11 15  2  0  0  0  0
 11 22  1  0  0  0  0
 13 15  1  0  0  0  0
 14 16  2  0  0  0  0
 16 18  1  0  0  0  0
 17 20  1  0  0  0  0
 18 20  2  0  0  0  0
 19 23  1  0  0  0  0
 21 24  1  0  0  0  0
 24 25  1  0  0  0  0
M  CHG  2   2  -1   5   1
M  END
> <PUBCHEM_COMPOUND_ID_TYPE>
0

> <PUBCHEM_TOTAL_CHARGE>
0

> <PUBCHEM_SUBSTANCE_ID>
310944032

> <PUBCHEM_SUBSTANCE_VERSION>
1

> <PUBCHEM_EXT_DATASOURCE_NAME>
4488

> <PUBCHEM_EXT_DATASOURCE_REGID>
SCHEMBL16122105

> <PUBCHEM_SUBSTANCE_COMMENT>
InChI=1S/C20H23N3O3/c1-15-7-8-17(20(24)22-10-4-9-21(2)11-12-22)14-19(15)16-5-3-6-18(13-16)23(25)26/h3,5-8,13-14H,4,9-12H2,1-2H3
InChIKey=KOUHIOARLZSZIN-UHFFFAOYSA-N

> <PUBCHEM_SUBSTANCE_SYNONYM>
SCHEMBL16122105

> <PUBCHEM_XREF_EXT_ID>
SCHEMBL16122105

> <PUBCHEM_EXT_DATASOURCE_URL>
https://www.surechembl.org/

> <PUBCHEM_EXT_SUBSTANCE_URL>
https://www.surechembl.org/chemical/SCHEMBL16122105

> <PUBCHEM_CID_ASSOCIATIONS>
117610331  1

> <PUBCHEM_COORDINATE_TYPE>
1
3

$$$$
