310932496
  -OEChem-07211613022D

 29 31  0     1  0  0  0  0  0999 V2000
    3.9928   -2.0789    0.0000 O   0  0  0  0  0  0  0  0  0  0  0  0
    8.4476   -2.1779    0.0000 O   0  0  0  0  0  0  0  0  0  0  0  0
    9.1736   -5.8737    0.0000 O   0  0  0  0  0  0  0  0  0  0  0  0
    4.8838   -0.9570    0.0000 N   0  0  0  0  0  0  0  0  0  0  0  0
    4.7848   -0.1320    0.0000 N   0  0  0  0  0  0  0  0  0  0  0  0
    6.3027   -0.9570    0.0000 N   0  0  0  0  0  0  0  0  0  0  0  0
    7.7216   -3.3988    0.0000 N   0  0  0  0  0  0  0  0  0  0  0  0
    0.0000   -1.8149    0.0000 N   0  0  0  0  0  0  0  0  0  0  0  0
    3.5638   -0.6930    0.0000 C   0  0  0  0  0  0  0  0  0  0  0  0
    4.1578   -1.2870    0.0000 C   0  0  0  0  0  0  0  0  0  0  0  0
    5.6098   -1.3529    0.0000 C   0  0  0  0  0  0  0  0  0  0  0  0
    2.7719   -0.7920    0.0000 C   0  0  0  0  0  0  0  0  0  0  0  0
    3.9928    0.0000    0.0000 C   0  0  0  0  0  0  0  0  0  0  0  0
    5.6098   -2.1779    0.0000 C   0  0  0  0  0  0  0  0  0  0  0  0
    7.0287   -2.1779    0.0000 C   0  0  0  0  0  0  0  0  0  0  0  0
    2.4419   -1.5509    0.0000 C   0  0  0  0  0  0  0  0  0  0  0  0
    2.2769   -0.1320    0.0000 C   0  0  0  0  0  0  0  0  0  0  0  0
    7.0287   -1.3529    0.0000 C   0  0  0  0  0  0  0  0  0  0  0  0
    6.3027   -2.5739    0.0000 C   0  0  0  0  0  0  0  0  0  0  0  0
    7.7216   -2.5739    0.0000 C   0  0  0  0  0  0  0  0  0  0  0  0
    1.1220   -0.9570    0.0000 C   0  0  0  0  0  0  0  0  0  0  0  0
    1.6170   -1.6170    0.0000 C   0  0  0  0  0  0  0  0  0  0  0  0
    1.4520   -0.2310    0.0000 C   0  0  0  0  0  0  0  0  0  0  0  0
    0.3300   -1.0560    0.0000 C   0  0  0  0  0  0  0  0  0  0  0  0
    8.4476   -3.8278    0.0000 C   0  0  0  0  0  0  0  0  0  0  0  0
    8.4476   -4.6528    0.0000 C   0  0  3  0  0  0  0  0  0  0  0  0
    9.1736   -5.0488    0.0000 C   0  0  0  0  0  0  0  0  0  0  0  0
    7.7546   -5.0488    0.0000 C   0  0  0  0  0  0  0  0  0  0  0  0
    9.8996   -6.2697    0.0000 C   0  0  0  0  0  0  0  0  0  0  0  0
  1 10  1  0  0  0  0
  2 20  2  0  0  0  0
  3 27  1  0  0  0  0
  3 29  1  0  0  0  0
  4  5  1  0  0  0  0
  4 10  1  0  0  0  0
  4 11  1  0  0  0  0
  5 13  2  0  0  0  0
  6 11  2  0  0  0  0
  6 18  1  0  0  0  0
  7 20  1  0  0  0  0
  7 25  1  0  0  0  0
  8 24  3  0  0  0  0
  9 10  2  0  0  0  0
  9 12  1  0  0  0  0
  9 13  1  0  0  0  0
 11 14  1  0  0  0  0
 12 16  2  0  0  0  0
 12 17  1  0  0  0  0
 14 19  2  0  0  0  0
 15 18  2  0  0  0  0
 15 19  1  0  0  0  0
 15 20  1  0  0  0  0
 16 22  1  0  0  0  0
 17 23  2  0  0  0  0
 21 22  2  0  0  0  0
 21 23  1  0  0  0  0
 21 24  1  0  0  0  0
 25 26  1  0  0  0  0
 26 27  1  0  0  0  0
 26 28  1  0  0  0  0
M  END
> <PUBCHEM_COMPOUND_ID_TYPE>
0

> <PUBCHEM_TOTAL_CHARGE>
0

> <PUBCHEM_SUBSTANCE_ID>
310932496

> <PUBCHEM_SUBSTANCE_VERSION>
1

> <PUBCHEM_EXT_DATASOURCE_NAME>
4488

> <PUBCHEM_EXT_DATASOURCE_REGID>
SCHEMBL16109868

> <PUBCHEM_SUBSTANCE_COMMENT>
InChI=1S/C21H21N5O3/c1-14(13-29-2)10-24-20(27)17-7-8-19(23-11-17)26-21(28)18(12-25-26)16-5-3-15(9-22)4-6-16/h3-8,11-12,14,28H,10,13H2,1-2H3,(H,24,27)
InChIKey=FALKYGROERJEAD-UHFFFAOYSA-N

> <PUBCHEM_SUBSTANCE_SYNONYM>
SCHEMBL16109868

> <PUBCHEM_XREF_EXT_ID>
SCHEMBL16109868

> <PUBCHEM_EXT_DATASOURCE_URL>
https://www.surechembl.org/

> <PUBCHEM_EXT_SUBSTANCE_URL>
https://www.surechembl.org/chemical/SCHEMBL16109868

> <PUBCHEM_CID_ASSOCIATIONS>
117601032  1

> <PUBCHEM_COORDINATE_TYPE>
1
3

$$$$
