310936919
  -OEChem-07211613022D

 31 33  0     1  0  0  0  0  0999 V2000
    4.1148   -0.5878    0.0000 S   0  0  0  0  0  0  0  0  0  0  0  0
    0.7923   -1.9169    0.0000 S   0  0  0  0  0  0  0  0  0  0  0  0
    4.7793   -2.9903    0.0000 P   0  0  3  0  0  0  0  0  0  0  0  0
    5.6228   -2.9903    0.0000 O   0  0  0  0  0  0  0  0  0  0  0  0
    4.7793   -2.1469    0.0000 O   0  0  0  0  0  0  0  0  0  0  0  0
    4.7027   -1.1757    0.0000 O   0  0  0  0  0  0  0  0  0  0  0  0
    3.5270    0.0000    0.0000 O   0  0  0  0  0  0  0  0  0  0  0  0
    4.7027    0.0000    0.0000 O   0  0  0  0  0  0  0  0  0  0  0  0
    1.6101   -1.7124    0.0000 O   0  0  0  0  0  0  0  0  0  0  0  0
    0.0000   -2.1213    0.0000 O   0  0  0  0  0  0  0  0  0  0  0  0
    0.5878   -1.1245    0.0000 O   0  0  0  0  0  0  0  0  0  0  0  0
    3.3992   -3.3481    0.0000 C   0  0  0  0  0  0  0  0  0  0  0  0
    2.8114   -3.9359    0.0000 C   0  0  0  0  0  0  0  0  0  0  0  0
    3.1947   -2.5558    0.0000 C   0  0  0  0  0  0  0  0  0  0  0  0
    2.0190   -3.7315    0.0000 C   0  0  0  0  0  0  0  0  0  0  0  0
    4.1915   -3.5526    0.0000 C   0  0  0  0  0  0  0  0  0  0  0  0
    2.3769   -2.3513    0.0000 C   0  0  0  0  0  0  0  0  0  0  0  0
    3.7570   -1.9680    0.0000 C   0  0  0  0  0  0  0  0  0  0  0  0
    1.4313   -4.3192    0.0000 C   0  0  0  0  0  0  0  0  0  0  0  0
    3.5526   -1.1757    0.0000 C   0  0  0  0  0  0  0  0  0  0  0  0
    1.9680   -3.0925    0.0000 C   0  0  0  0  0  0  0  0  0  0  0  0
    3.0414   -4.7282    0.0000 C   0  0  0  0  0  0  0  0  0  0  0  0
    1.0223   -2.7091    0.0000 C   0  0  0  0  0  0  0  0  0  0  0  0
    4.4215   -4.3704    0.0000 C   0  0  0  0  0  0  0  0  0  0  0  0
    3.8337   -4.9582    0.0000 C   0  0  0  0  0  0  0  0  0  0  0  0
    2.1724   -1.5590    0.0000 C   0  0  0  0  0  0  0  0  0  0  0  0
    2.7347   -0.9712    0.0000 C   0  0  0  0  0  0  0  0  0  0  0  0
    0.6389   -4.1148    0.0000 C   0  0  0  0  0  0  0  0  0  0  0  0
    0.4345   -3.2970    0.0000 C   0  0  0  0  0  0  0  0  0  0  0  0
    1.7890   -2.9391    0.0000 C   0  0  0  0  0  0  0  0  0  0  0  0
    1.6357   -5.1116    0.0000 C   0  0  0  0  0  0  0  0  0  0  0  0
  1  6  2  0  0  0  0
  1  7  2  0  0  0  0
  1  8  1  0  0  0  0
  1 20  1  0  0  0  0
  2  9  2  0  0  0  0
  2 10  2  0  0  0  0
  2 11  1  0  0  0  0
  2 23  1  0  0  0  0
  3  4  2  0  0  0  0
  3  5  1  0  0  0  0
  3 16  1  0  0  0  0
 12 13  2  0  0  0  0
 12 14  1  0  0  0  0
 12 16  1  0  0  0  0
 13 15  1  0  0  0  0
 13 22  1  0  0  0  0
 14 17  2  0  0  0  0
 14 18  1  0  0  0  0
 15 19  2  0  0  0  0
 15 21  1  0  0  0  0
 16 24  2  0  0  0  0
 17 26  1  0  0  0  0
 17 30  1  0  0  0  0
 18 20  2  0  0  0  0
 19 28  1  0  0  0  0
 19 31  1  0  0  0  0
 20 27  1  0  0  0  0
 21 23  2  0  0  0  0
 22 25  2  0  0  0  0
 23 29  1  0  0  0  0
 24 25  1  0  0  0  0
 26 27  2  0  0  0  0
 28 29  2  0  0  0  0
M  END
> <PUBCHEM_COMPOUND_ID_TYPE>
0

> <PUBCHEM_TOTAL_CHARGE>
0

> <PUBCHEM_SUBSTANCE_ID>
310936919

> <PUBCHEM_SUBSTANCE_VERSION>
1

> <PUBCHEM_EXT_DATASOURCE_NAME>
4488

> <PUBCHEM_EXT_DATASOURCE_REGID>
SCHEMBL16114620

> <PUBCHEM_SUBSTANCE_COMMENT>
InChI=1S/C20H19O8PS2/c1-12-6-8-14(30(23,24)25)10-17(12)16-4-3-5-19(29(21)22)20(16)18-11-15(31(26,27)28)9-7-13(18)2/h3-11,29H,1-2H3,(H,21,22)(H,23,24,25)(H,26,27,28)
InChIKey=PCRLPNURZFZXLG-UHFFFAOYSA-N

> <PUBCHEM_SUBSTANCE_SYNONYM>
SCHEMBL16114620

> <PUBCHEM_XREF_EXT_ID>
SCHEMBL16114620

> <PUBCHEM_EXT_DATASOURCE_URL>
https://www.surechembl.org/

> <PUBCHEM_EXT_SUBSTANCE_URL>
https://www.surechembl.org/chemical/SCHEMBL16114620

> <PUBCHEM_CID_ASSOCIATIONS>
117604724  1

> <PUBCHEM_COORDINATE_TYPE>
1
3

$$$$
