310932269
  -OEChem-07211613022D

 14 15  0     1  0  0  0  0  0999 V2000
    0.4125    0.0000    0.0000 O   0  0  0  0  0  0  0  0  0  0  0  0
    1.5288   -1.9655    0.0000 O   0  0  0  0  0  0  0  0  0  0  0  0
    2.2567   -0.7280    0.0000 O   0  0  0  0  0  0  0  0  0  0  0  0
    0.0000   -0.7280    0.0000 C   0  0  0  0  0  0  0  0  0  0  0  0
    0.8251   -0.7280    0.0000 C   0  0  3  0  0  0  0  0  0  0  0  0
    0.7037   -1.1405    0.0000 C   0  0  0  0  0  0  0  0  0  0  0  0
    2.1354   -1.1405    0.0000 C   0  0  0  0  0  0  0  0  0  0  0  0
    1.5288   -1.1405    0.0000 C   0  0  0  0  0  0  0  0  0  0  0  0
    1.4317   -0.7280    0.0000 C   0  0  0  0  0  0  0  0  0  0  0  0
    2.2567   -2.3781    0.0000 C   0  0  0  0  0  0  0  0  0  0  0  0
    2.2567   -3.2031    0.0000 C   0  0  0  0  0  0  0  0  0  0  0  0
    2.9605   -3.5914    0.0000 C   0  0  0  0  0  0  0  0  0  0  0  0
    2.9847   -4.4407    0.0000 C   0  0  0  0  0  0  0  0  0  0  0  0
    3.6884   -4.8532    0.0000 C   0  0  0  0  0  0  0  0  0  0  0  0
  1  4  1  0  0  0  0
  1  5  1  0  0  0  0
  2  8  1  0  0  0  0
  2 10  1  0  0  0  0
  3  8  2  0  0  0  0
  4  5  1  0  0  0  0
  4  6  1  0  0  0  0
  4  7  1  0  0  0  0
  5  8  1  0  0  0  0
  6  9  1  0  0  0  0
  7  9  1  0  0  0  0
 10 11  1  0  0  0  0
 11 12  1  0  0  0  0
 12 13  1  0  0  0  0
 13 14  1  0  0  0  0
M  END
> <PUBCHEM_COMPOUND_ID_TYPE>
0

> <PUBCHEM_TOTAL_CHARGE>
0

> <PUBCHEM_SUBSTANCE_ID>
310932269

> <PUBCHEM_SUBSTANCE_VERSION>
1

> <PUBCHEM_EXT_DATASOURCE_NAME>
4488

> <PUBCHEM_EXT_DATASOURCE_REGID>
SCHEMBL16109629

> <PUBCHEM_SUBSTANCE_COMMENT>
InChI=1S/C11H18O3/c1-2-3-4-8-13-10(12)9-11(14-9)6-5-7-11/h9H,2-8H2,1H3
InChIKey=HWOZBAIKTILHPW-UHFFFAOYSA-N

> <PUBCHEM_SUBSTANCE_SYNONYM>
SCHEMBL16109629

> <PUBCHEM_XREF_EXT_ID>
SCHEMBL16109629

> <PUBCHEM_EXT_DATASOURCE_URL>
https://www.surechembl.org/

> <PUBCHEM_EXT_SUBSTANCE_URL>
https://www.surechembl.org/chemical/SCHEMBL16109629

> <PUBCHEM_CID_ASSOCIATIONS>
117600836  1

> <PUBCHEM_COORDINATE_TYPE>
1
3

$$$$
