310949304
  -OEChem-07211613022D

 16 18  0     1  0  0  0  0  0999 V2000
    0.7820   -1.5251    0.0000 O   0  0  0  0  0  0  0  0  0  0  0  0
   -0.4714   -0.7931    0.0000 O   0  0  0  0  0  0  0  0  0  0  0  0
   -1.6472   -1.1369    0.0000 O   0  0  0  0  0  0  0  0  0  0  0  0
   -2.1463    0.1054    0.0000 O   0  0  0  0  0  0  0  0  0  0  0  0
    0.8375   -0.0832    0.0000 C   0  0  3  0  0  0  0  0  0  0  0  0
   -0.0166    0.1497    0.0000 C   0  0  3  0  0  0  0  0  0  0  0  0
    1.2590    0.6267    0.0000 C   0  0  3  0  0  0  0  0  0  0  0  0
    0.4160    0.8707    0.0000 C   0  0  3  0  0  0  0  0  0  0  0  0
   -0.7709   -0.0499    0.0000 C   0  0  0  0  0  0  0  0  0  0  0  0
    0.0278    1.5251    0.0000 C   0  0  0  0  0  0  0  0  0  0  0  0
    0.3827   -0.7931    0.0000 C   0  0  0  0  0  0  0  0  0  0  0  0
    1.3809   -0.6821    0.0000 C   0  0  0  0  0  0  0  0  0  0  0  0
   -0.3716    0.6489    0.0000 C   0  0  0  0  0  0  0  0  0  0  0  0
    2.0686    0.4714    0.0000 C   0  0  0  0  0  0  0  0  0  0  0  0
    2.1463   -0.3605    0.0000 C   0  0  0  0  0  0  0  0  0  0  0  0
   -1.5251   -0.3383    0.0000 C   0  0  0  0  0  0  0  0  0  0  0  0
  1 11  2  0  0  0  0
  2 11  1  0  0  0  0
  3 16  2  0  0  0  0
  4 16  1  0  0  0  0
  5  6  1  0  0  0  0
  5  7  1  0  0  0  0
  5 11  1  0  0  0  0
  5 12  1  0  0  0  0
  6  9  1  0  0  0  0
  6 10  1  0  0  0  0
  7  8  1  0  0  0  0
  7 14  1  0  0  0  0
  8 10  1  0  0  0  0
  8 13  1  0  0  0  0
  9 13  2  0  0  0  0
  9 16  1  0  0  0  0
 12 15  1  0  0  0  0
 14 15  2  0  0  0  0
M  END
> <PUBCHEM_COMPOUND_ID_TYPE>
0

> <PUBCHEM_TOTAL_CHARGE>
0

> <PUBCHEM_SUBSTANCE_ID>
310949304

> <PUBCHEM_SUBSTANCE_VERSION>
1

> <PUBCHEM_EXT_DATASOURCE_NAME>
4488

> <PUBCHEM_EXT_DATASOURCE_REGID>
SCHEMBL16127494

> <PUBCHEM_SUBSTANCE_COMMENT>
InChI=1S/C12H12O4/c13-10(14)7-4-6-5-9(7)12(11(15)16)3-1-2-8(6)12/h1-2,4,6,8-9H,3,5H2,(H,13,14)(H,15,16)
InChIKey=CPNKCWYKJMGSAC-UHFFFAOYSA-N

> <PUBCHEM_SUBSTANCE_SYNONYM>
SCHEMBL16127494

> <PUBCHEM_XREF_EXT_ID>
SCHEMBL16127494

> <PUBCHEM_EXT_DATASOURCE_URL>
https://www.surechembl.org/

> <PUBCHEM_EXT_SUBSTANCE_URL>
https://www.surechembl.org/chemical/SCHEMBL16127494

> <PUBCHEM_CID_ASSOCIATIONS>
117614788  1

> <PUBCHEM_COORDINATE_TYPE>
1
3

$$$$
