310930961
  -OEChem-07211613022D

 27 31  0     1  0  0  0  0  0999 V2000
    4.4013   -5.4337    0.0000 O   0  0  0  0  0  0  0  0  0  0  0  0
    0.4075   -2.2007    0.0000 O   0  0  0  0  0  0  0  0  0  0  0  0
    4.6458   -4.0209    0.0000 N   0  0  0  0  0  0  0  0  0  0  0  0
    0.0000   -2.9070    0.0000 N   0  0  0  0  0  0  0  0  0  0  0  0
    3.3961   -3.5862    0.0000 C   0  0  0  0  0  0  0  0  0  0  0  0
    4.1568   -3.3689    0.0000 C   0  0  3  0  0  0  0  0  0  0  0  0
    3.3961   -4.4285    0.0000 C   0  0  0  0  0  0  0  0  0  0  0  0
    4.1568   -4.6730    0.0000 C   0  0  0  0  0  0  0  0  0  0  0  0
    4.4013   -2.5810    0.0000 C   0  0  0  0  0  0  0  0  0  0  0  0
    1.9833   -3.5862    0.0000 C   0  0  0  0  0  0  0  0  0  0  0  0
    2.6625   -3.2059    0.0000 C   0  0  0  0  0  0  0  0  0  0  0  0
    1.2770   -3.1787    0.0000 C   0  0  0  0  0  0  0  0  0  0  0  0
    4.9447   -0.9781    0.0000 C   0  0  0  0  0  0  0  0  0  0  0  0
    2.6625   -4.8360    0.0000 C   0  0  0  0  0  0  0  0  0  0  0  0
    1.9833   -4.4285    0.0000 C   0  0  0  0  0  0  0  0  0  0  0  0
    5.2164   -2.4180    0.0000 C   0  0  0  0  0  0  0  0  0  0  0  0
    3.8579   -1.9561    0.0000 C   0  0  0  0  0  0  0  0  0  0  0  0
    1.1954   -2.3636    0.0000 C   0  0  0  0  0  0  0  0  0  0  0  0
    0.5434   -3.5048    0.0000 C   0  0  0  0  0  0  0  0  0  0  0  0
    5.4881   -1.6029    0.0000 C   0  0  0  0  0  0  0  0  0  0  0  0
    4.1296   -1.1683    0.0000 C   0  0  0  0  0  0  0  0  0  0  0  0
    4.5100   -0.4075    0.0000 C   0  0  0  0  0  0  0  0  0  0  0  0
    5.6239   -0.7607    0.0000 C   0  0  0  0  0  0  0  0  0  0  0  0
    5.4609   -4.0209    0.0000 C   0  0  0  0  0  0  0  0  0  0  0  0
    5.2707    0.0000    0.0000 C   0  0  0  0  0  0  0  0  0  0  0  0
    1.7931   -1.8203    0.0000 C   0  0  0  0  0  0  0  0  0  0  0  0
    0.3804   -4.2926    0.0000 C   0  0  0  0  0  0  0  0  0  0  0  0
  1  8  2  0  0  0  0
  2  4  1  0  0  0  0
  2 18  1  0  0  0  0
  3  6  1  0  0  0  0
  3  8  1  0  0  0  0
  3 24  1  0  0  0  0
  4 19  2  0  0  0  0
  5  6  1  0  0  0  0
  5  7  2  0  0  0  0
  5 11  1  0  0  0  0
  6  9  1  0  0  0  0
  7  8  1  0  0  0  0
  7 14  1  0  0  0  0
  9 16  1  0  0  0  0
  9 17  1  0  0  0  0
 10 11  2  0  0  0  0
 10 12  1  0  0  0  0
 10 15  1  0  0  0  0
 12 18  2  0  0  0  0
 12 19  1  0  0  0  0
 13 20  1  0  0  0  0
 13 21  1  0  0  0  0
 13 22  1  0  0  0  0
 13 23  1  0  0  0  0
 14 15  2  0  0  0  0
 16 20  1  0  0  0  0
 17 21  1  0  0  0  0
 18 26  1  0  0  0  0
 19 27  1  0  0  0  0
 22 25  1  0  0  0  0
 23 25  1  0  0  0  0
M  END
> <PUBCHEM_COMPOUND_ID_TYPE>
0

> <PUBCHEM_TOTAL_CHARGE>
0

> <PUBCHEM_SUBSTANCE_ID>
310930961

> <PUBCHEM_SUBSTANCE_VERSION>
1

> <PUBCHEM_EXT_DATASOURCE_NAME>
4488

> <PUBCHEM_EXT_DATASOURCE_REGID>
SCHEMBL16108261

> <PUBCHEM_SUBSTANCE_COMMENT>
InChI=1S/C23H28N2O2/c1-14-20(15(2)27-24-14)17-5-6-18-19(13-17)21(25(3)22(18)26)16-7-11-23(12-8-16)9-4-10-23/h5-6,13,16,21H,4,7-12H2,1-3H3
InChIKey=FZVZGSJEYNSXQK-UHFFFAOYSA-N

> <PUBCHEM_SUBSTANCE_SYNONYM>
SCHEMBL16108261

> <PUBCHEM_XREF_EXT_ID>
SCHEMBL16108261

> <PUBCHEM_EXT_DATASOURCE_URL>
https://www.surechembl.org/

> <PUBCHEM_EXT_SUBSTANCE_URL>
https://www.surechembl.org/chemical/SCHEMBL16108261

> <PUBCHEM_CID_ASSOCIATIONS>
86295464  1

> <PUBCHEM_COORDINATE_TYPE>
1
3

$$$$
