310943498
  -OEChem-07211613022D

 29 31  0     1  0  0  0  0  0999 V2000
    3.0926    2.1881    0.0000 O   0  0  0  0  0  0  0  0  0  0  0  0
    4.5224    1.1482    0.0000 O   0  0  0  0  0  0  0  0  0  0  0  0
   -2.6160   -1.3432    0.0000 N   0  0  3  0  0  0  0  0  0  0  0  0
    3.8075    0.7366    0.0000 N   0  0  0  0  0  0  0  0  0  0  0  0
    1.6627   -2.1881    0.0000 N   0  0  0  0  0  0  0  0  0  0  0  0
   -4.3924   -0.7907    0.0000 N   0  0  3  0  0  0  0  0  0  0  0  0
    0.2438   -0.5091    0.0000 C   0  0  0  0  0  0  0  0  0  0  0  0
    0.9587   -0.0975    0.0000 C   0  0  0  0  0  0  0  0  0  0  0  0
    0.2329   -1.3323    0.0000 C   0  0  0  0  0  0  0  0  0  0  0  0
   -1.1862   -1.3432    0.0000 C   0  0  0  0  0  0  0  0  0  0  0  0
    2.3885    0.7474    0.0000 C   0  0  0  0  0  0  0  0  0  0  0  0
   -0.4929   -0.1084    0.0000 C   0  0  0  0  0  0  0  0  0  0  0  0
   -0.4712   -1.7548    0.0000 C   0  0  0  0  0  0  0  0  0  0  0  0
    1.6952   -0.4983    0.0000 C   0  0  0  0  0  0  0  0  0  0  0  0
    0.9695    0.7366    0.0000 C   0  0  0  0  0  0  0  0  0  0  0  0
   -1.1753   -0.5091    0.0000 C   0  0  0  0  0  0  0  0  0  0  0  0
    2.3777   -0.0975    0.0000 C   0  0  0  0  0  0  0  0  0  0  0  0
    1.6627    1.1374    0.0000 C   0  0  0  0  0  0  0  0  0  0  0  0
    3.0818    1.1374    0.0000 C   0  0  0  0  0  0  0  0  0  0  0  0
   -1.9011   -1.7657    0.0000 C   0  0  0  0  0  0  0  0  0  0  0  0
    0.9587   -1.7657    0.0000 C   0  0  0  0  0  0  0  0  0  0  0  0
   -3.2876   -1.8090    0.0000 C   0  0  0  0  0  0  0  0  0  0  0  0
   -2.5618   -0.5199    0.0000 C   0  0  0  0  0  0  0  0  0  0  0  0
   -4.0892   -1.5707    0.0000 C   0  0  0  0  0  0  0  0  0  0  0  0
   -3.1468    0.0433    0.0000 C   0  0  0  0  0  0  0  0  0  0  0  0
    3.8183   -0.0975    0.0000 C   0  0  0  0  0  0  0  0  0  0  0  0
   -3.9809   -0.0758    0.0000 C   0  0  0  0  0  0  0  0  0  0  0  0
    5.2374    0.7366    0.0000 C   0  0  0  0  0  0  0  0  0  0  0  0
   -5.2374   -0.8016    0.0000 C   0  0  0  0  0  0  0  0  0  0  0  0
  1 19  2  0  0  0  0
  2  4  1  0  0  0  0
  2 28  1  0  0  0  0
  3 20  1  0  0  0  0
  3 22  1  0  0  0  0
  3 23  1  0  0  0  0
  4 19  1  0  0  0  0
  4 26  1  0  0  0  0
  5 21  3  0  0  0  0
  6 24  1  0  0  0  0
  6 27  1  0  0  0  0
  6 29  1  0  0  0  0
  7  8  1  0  0  0  0
  7  9  1  0  0  0  0
  7 12  2  0  0  0  0
  8 14  2  0  0  0  0
  8 15  1  0  0  0  0
  9 13  2  0  0  0  0
  9 21  1  0  0  0  0
 10 13  1  0  0  0  0
 10 16  2  0  0  0  0
 10 20  1  0  0  0  0
 11 17  2  0  0  0  0
 11 18  1  0  0  0  0
 11 19  1  0  0  0  0
 12 16  1  0  0  0  0
 14 17  1  0  0  0  0
 15 18  2  0  0  0  0
 22 24  1  0  0  0  0
 23 25  1  0  0  0  0
 25 27  1  0  0  0  0
M  END
> <PUBCHEM_COMPOUND_ID_TYPE>
0

> <PUBCHEM_TOTAL_CHARGE>
0

> <PUBCHEM_SUBSTANCE_ID>
310943498

> <PUBCHEM_SUBSTANCE_VERSION>
1

> <PUBCHEM_EXT_DATASOURCE_NAME>
4488

> <PUBCHEM_EXT_DATASOURCE_REGID>
SCHEMBL16121564

> <PUBCHEM_SUBSTANCE_COMMENT>
InChI=1S/C23H28N4O2/c1-25-11-4-12-27(14-13-25)17-18-5-10-22(21(15-18)16-24)19-6-8-20(9-7-19)23(28)26(2)29-3/h5-10,15H,4,11-14,17H2,1-3H3
InChIKey=OUUDYRGMLGDVGL-UHFFFAOYSA-N

> <PUBCHEM_SUBSTANCE_SYNONYM>
SCHEMBL16121564

> <PUBCHEM_XREF_EXT_ID>
SCHEMBL16121564

> <PUBCHEM_EXT_DATASOURCE_URL>
https://www.surechembl.org/

> <PUBCHEM_EXT_SUBSTANCE_URL>
https://www.surechembl.org/chemical/SCHEMBL16121564

> <PUBCHEM_CID_ASSOCIATIONS>
117609917  1

> <PUBCHEM_COORDINATE_TYPE>
1
3

$$$$
