310940054
  -OEChem-07211613022D

 18 19  0     1  0  0  0  0  0999 V2000
   -3.5681    3.3359    0.0000 O   0  0  0  0  0  0  0  0  0  0  0  0
   -3.5681    1.9069    0.0000 O   0  0  0  0  0  0  0  0  0  0  0  0
   -0.6806    2.6214    0.0000 N   0  0  3  0  0  0  0  0  0  0  0  0
   -2.3306    2.6214    0.0000 N   0  0  0  0  0  0  0  0  0  0  0  0
    1.3111    2.6214    0.0000 N   0  0  0  0  0  0  0  0  0  0  0  0
   -1.0931    3.3359    0.0000 C   0  0  3  0  0  0  0  0  0  0  0  0
    0.1444    2.6214    0.0000 C   0  0  0  0  0  0  0  0  0  0  0  0
   -1.9181    3.3359    0.0000 C   0  0  0  0  0  0  0  0  0  0  0  0
   -3.1556    2.6214    0.0000 C   0  0  0  0  0  0  0  0  0  0  0  0
   -1.0931    1.9069    0.0000 C   0  0  0  0  0  0  0  0  0  0  0  0
   -1.9181    1.9069    0.0000 C   0  0  0  0  0  0  0  0  0  0  0  0
    0.7277    2.0381    0.0000 C   0  0  0  0  0  0  0  0  0  0  0  0
    0.7277    3.2048    0.0000 C   0  0  0  0  0  0  0  0  0  0  0  0
   -4.3931    3.3359    0.0000 C   0  0  0  0  0  0  0  0  0  0  0  0
   -0.6806    4.0504    0.0000 C   0  0  0  0  0  0  0  0  0  0  0  0
   -5.2181    3.3359    0.0000 C   0  0  0  0  0  0  0  0  0  0  0  0
   -4.8056    2.6214    0.0000 C   0  0  0  0  0  0  0  0  0  0  0  0
   -4.8056    4.0504    0.0000 C   0  0  0  0  0  0  0  0  0  0  0  0
  1  9  1  0  0  0  0
  1 14  1  0  0  0  0
  2  9  2  0  0  0  0
  3  6  1  0  0  0  0
  3  7  1  0  0  0  0
  3 10  1  0  0  0  0
  4  8  1  0  0  0  0
  4  9  1  0  0  0  0
  4 11  1  0  0  0  0
  5 12  1  0  0  0  0
  5 13  1  0  0  0  0
  6  8  1  0  0  0  0
  6 15  1  0  0  0  0
  7 12  1  0  0  0  0
  7 13  1  0  0  0  0
 10 11  1  0  0  0  0
 14 16  1  0  0  0  0
 14 17  1  0  0  0  0
 14 18  1  0  0  0  0
M  END
> <PUBCHEM_COMPOUND_ID_TYPE>
0

> <PUBCHEM_TOTAL_CHARGE>
0

> <PUBCHEM_SUBSTANCE_ID>
310940054

> <PUBCHEM_SUBSTANCE_VERSION>
1

> <PUBCHEM_EXT_DATASOURCE_NAME>
4488

> <PUBCHEM_EXT_DATASOURCE_REGID>
SCHEMBL16117984

> <PUBCHEM_SUBSTANCE_COMMENT>
InChI=1S/C13H25N3O2/c1-10-9-15(12(17)18-13(2,3)4)5-6-16(10)11-7-14-8-11/h10-11,14H,5-9H2,1-4H3
InChIKey=YDIOHJDWGPAQMC-UHFFFAOYSA-N

> <PUBCHEM_SUBSTANCE_SYNONYM>
SCHEMBL16117984

> <PUBCHEM_XREF_EXT_ID>
SCHEMBL16117984

> <PUBCHEM_EXT_DATASOURCE_URL>
https://www.surechembl.org/

> <PUBCHEM_EXT_SUBSTANCE_URL>
https://www.surechembl.org/chemical/SCHEMBL16117984

> <PUBCHEM_CID_ASSOCIATIONS>
117607203  1

> <PUBCHEM_COORDINATE_TYPE>
1
3

$$$$
