310936682
  -OEChem-07211613022D

 33 35  0     1  0  0  0  0  0999 V2000
    4.7119    4.9164    0.0000 Cl  0  0  0  0  0  0  0  0  0  0  0  0
    1.0401    2.1653    0.0000 S   0  0  0  0  0  0  0  0  0  0  0  0
    1.2490   -0.0618    0.0000 F   0  0  0  0  0  0  0  0  0  0  0  0
    0.6136    0.9167    0.0000 F   0  0  0  0  0  0  0  0  0  0  0  0
    2.2275    0.5737    0.0000 F   0  0  0  0  0  0  0  0  0  0  0  0
    3.0602   -0.9998    0.0000 F   0  0  0  0  0  0  0  0  0  0  0  0
    4.4892    1.4752    0.0000 F   0  0  0  0  0  0  0  0  0  0  0  0
    3.0602    0.6502    0.0000 O   0  0  0  0  0  0  0  0  0  0  0  0
    7.3471   -1.8248    0.0000 O   0  0  0  0  0  0  0  0  0  0  0  0
    8.0615   -0.5873    0.0000 O   0  0  0  0  0  0  0  0  0  0  0  0
    2.3458    1.8877    0.0000 C   0  0  0  0  0  0  0  0  0  0  0  0
    1.5921    1.5522    0.0000 C   0  0  0  0  0  0  0  0  0  0  0  0
    2.2595    2.7082    0.0000 C   0  0  0  0  0  0  0  0  0  0  0  0
    1.4206    0.7452    0.0000 C   0  0  0  0  0  0  0  0  0  0  0  0
    2.8726    3.2603    0.0000 C   0  0  0  0  0  0  0  0  0  0  0  0
    1.4526    2.8797    0.0000 C   0  0  0  0  0  0  0  0  0  0  0  0
    3.0602    1.4752    0.0000 C   0  0  0  0  0  0  0  0  0  0  0  0
    3.7747    0.2377    0.0000 C   0  0  0  0  0  0  0  0  0  0  0  0
    3.7747   -0.5873    0.0000 C   0  0  0  0  0  0  0  0  0  0  0  0
    4.4892    0.6502    0.0000 C   0  0  0  0  0  0  0  0  0  0  0  0
    5.2036   -0.5873    0.0000 C   0  0  0  0  0  0  0  0  0  0  0  0
    2.7011    4.0672    0.0000 C   0  0  0  0  0  0  0  0  0  0  0  0
    3.6572    3.0053    0.0000 C   0  0  0  0  0  0  0  0  0  0  0  0
    4.4892   -0.9998    0.0000 C   0  0  0  0  0  0  0  0  0  0  0  0
    5.2036    0.2377    0.0000 C   0  0  0  0  0  0  0  0  0  0  0  0
    5.9181   -0.9998    0.0000 C   0  0  3  0  0  0  0  0  0  0  0  0
    3.3142    4.6193    0.0000 C   0  0  0  0  0  0  0  0  0  0  0  0
    4.2703    3.5573    0.0000 C   0  0  0  0  0  0  0  0  0  0  0  0
    4.0988    4.3643    0.0000 C   0  0  0  0  0  0  0  0  0  0  0  0
    6.6326   -0.5873    0.0000 C   0  0  0  0  0  0  0  0  0  0  0  0
    5.9181   -1.8248    0.0000 C   0  0  0  0  0  0  0  0  0  0  0  0
    7.3471   -0.9998    0.0000 C   0  0  0  0  0  0  0  0  0  0  0  0
    5.2036   -2.2373    0.0000 C   0  0  0  0  0  0  0  0  0  0  0  0
  1 29  1  0  0  0  0
  2 12  1  0  0  0  0
  2 16  1  0  0  0  0
  3 14  1  0  0  0  0
  4 14  1  0  0  0  0
  5 14  1  0  0  0  0
  6 19  1  0  0  0  0
  7 20  1  0  0  0  0
  8 17  1  0  0  0  0
  8 18  1  0  0  0  0
  9 32  2  0  0  0  0
 10 32  1  0  0  0  0
 11 12  2  0  0  0  0
 11 13  1  0  0  0  0
 11 17  1  0  0  0  0
 12 14  1  0  0  0  0
 13 15  1  0  0  0  0
 13 16  2  0  0  0  0
 15 22  2  0  0  0  0
 15 23  1  0  0  0  0
 18 19  2  0  0  0  0
 18 20  1  0  0  0  0
 19 24  1  0  0  0  0
 20 25  2  0  0  0  0
 21 24  2  0  0  0  0
 21 25  1  0  0  0  0
 21 26  1  0  0  0  0
 22 27  1  0  0  0  0
 23 28  2  0  0  0  0
 26 30  1  0  0  0  0
 26 31  1  0  0  0  0
 27 29  2  0  0  0  0
 28 29  1  0  0  0  0
 30 32  1  0  0  0  0
 31 33  1  0  0  0  0
M  END
> <PUBCHEM_COMPOUND_ID_TYPE>
0

> <PUBCHEM_TOTAL_CHARGE>
0

> <PUBCHEM_SUBSTANCE_ID>
310936682

> <PUBCHEM_SUBSTANCE_VERSION>
1

> <PUBCHEM_EXT_DATASOURCE_NAME>
4488

> <PUBCHEM_EXT_DATASOURCE_REGID>
SCHEMBL16114355

> <PUBCHEM_SUBSTANCE_COMMENT>
InChI=1S/C23H18ClF5O3S/c1-2-12(9-20(30)31)14-7-18(25)21(19(26)8-14)32-10-16-17(11-33-22(16)23(27,28)29)13-3-5-15(24)6-4-13/h3-8,11-12H,2,9-10H2,1H3,(H,30,31)
InChIKey=DBJXDRASFKTSMN-UHFFFAOYSA-N

> <PUBCHEM_SUBSTANCE_SYNONYM>
SCHEMBL16114355

> <PUBCHEM_XREF_EXT_ID>
SCHEMBL16114355

> <PUBCHEM_EXT_DATASOURCE_URL>
https://www.surechembl.org/

> <PUBCHEM_EXT_SUBSTANCE_URL>
https://www.surechembl.org/chemical/SCHEMBL16114355

> <PUBCHEM_CID_ASSOCIATIONS>
117604588  1

> <PUBCHEM_COORDINATE_TYPE>
1
3

$$$$
