310939560
  -OEChem-07211613022D

 35 37  0     1  0  0  0  0  0999 V2000
    1.4289   -3.5062    0.0000 F   0  0  0  0  0  0  0  0  0  0  0  0
    2.2539   -2.6812    0.0000 F   0  0  0  0  0  0  0  0  0  0  0  0
    0.6039   -2.6812    0.0000 F   0  0  0  0  0  0  0  0  0  0  0  0
   -2.1434    1.8563    0.0000 O   0  0  0  0  0  0  0  0  0  0  0  0
   -3.5724    1.0313    0.0000 O   0  0  0  0  0  0  0  0  0  0  0  0
    0.7145    1.0313    0.0000 N   0  0  0  0  0  0  0  0  0  0  0  0
    1.4289    2.2687    0.0000 N   0  0  0  0  0  0  0  0  0  0  0  0
    2.8579    2.2687    0.0000 N   0  0  0  0  0  0  0  0  0  0  0  0
    2.1434   -1.4437    0.0000 N   0  0  0  0  0  0  0  0  0  0  0  0
    5.7158    1.4437    0.0000 N   0  0  0  0  0  0  0  0  0  0  0  0
   -5.0013    1.8563    0.0000 N   0  0  0  0  0  0  0  0  0  0  0  0
    1.4289    0.6187    0.0000 C   0  0  0  0  0  0  0  0  0  0  0  0
    0.7145    1.8563    0.0000 C   0  0  0  0  0  0  0  0  0  0  0  0
    1.4289   -0.2062    0.0000 C   0  0  0  0  0  0  0  0  0  0  0  0
    2.1434    1.8563    0.0000 C   0  0  0  0  0  0  0  0  0  0  0  0
    0.0000    2.2687    0.0000 C   0  0  0  0  0  0  0  0  0  0  0  0
    2.1434    1.0313    0.0000 C   0  0  0  0  0  0  0  0  0  0  0  0
    1.4289   -1.8563    0.0000 C   0  0  0  0  0  0  0  0  0  0  0  0
    2.1434   -0.6187    0.0000 C   0  0  0  0  0  0  0  0  0  0  0  0
    0.7145   -0.6187    0.0000 C   0  0  0  0  0  0  0  0  0  0  0  0
    1.4289   -2.6812    0.0000 C   0  0  0  0  0  0  0  0  0  0  0  0
    0.7145   -1.4437    0.0000 C   0  0  0  0  0  0  0  0  0  0  0  0
   -0.7145    1.8563    0.0000 C   0  0  0  0  0  0  0  0  0  0  0  0
    0.0000    3.0938    0.0000 C   0  0  0  0  0  0  0  0  0  0  0  0
   -1.4289    2.2687    0.0000 C   0  0  0  0  0  0  0  0  0  0  0  0
   -0.7145    3.5062    0.0000 C   0  0  0  0  0  0  0  0  0  0  0  0
   -1.4289    3.0938    0.0000 C   0  0  0  0  0  0  0  0  0  0  0  0
    3.5724    1.8563    0.0000 C   0  0  0  0  0  0  0  0  0  0  0  0
    2.8579    3.0938    0.0000 C   0  0  0  0  0  0  0  0  0  0  0  0
    4.2868    2.2687    0.0000 C   0  0  0  0  0  0  0  0  0  0  0  0
   -2.8579    2.2687    0.0000 C   0  0  0  0  0  0  0  0  0  0  0  0
   -3.5724    1.8563    0.0000 C   0  0  3  0  0  0  0  0  0  0  0  0
    5.0013    1.8563    0.0000 C   0  0  0  0  0  0  0  0  0  0  0  0
   -4.2868    2.2687    0.0000 C   0  0  0  0  0  0  0  0  0  0  0  0
   -5.7158    2.2687    0.0000 C   0  0  0  0  0  0  0  0  0  0  0  0
  1 21  1  0  0  0  0
  2 21  1  0  0  0  0
  3 21  1  0  0  0  0
  4 25  1  0  0  0  0
  4 31  1  0  0  0  0
  5 32  1  0  0  0  0
  6 12  1  0  0  0  0
  6 13  2  0  0  0  0
  7 13  1  0  0  0  0
  7 15  2  0  0  0  0
  8 15  1  0  0  0  0
  8 28  1  0  0  0  0
  8 29  1  0  0  0  0
  9 18  1  0  0  0  0
  9 19  2  0  0  0  0
 10 33  3  0  0  0  0
 11 34  1  0  0  0  0
 11 35  1  0  0  0  0
 12 14  1  0  0  0  0
 12 17  2  0  0  0  0
 13 16  1  0  0  0  0
 14 19  1  0  0  0  0
 14 20  2  0  0  0  0
 15 17  1  0  0  0  0
 16 23  2  0  0  0  0
 16 24  1  0  0  0  0
 18 21  1  0  0  0  0
 18 22  2  0  0  0  0
 20 22  1  0  0  0  0
 23 25  1  0  0  0  0
 24 26  2  0  0  0  0
 25 27  2  0  0  0  0
 26 27  1  0  0  0  0
 28 30  1  0  0  0  0
 30 33  1  0  0  0  0
 31 32  1  0  0  0  0
 32 34  1  0  0  0  0
M  END
> <PUBCHEM_COMPOUND_ID_TYPE>
0

> <PUBCHEM_TOTAL_CHARGE>
0

> <PUBCHEM_SUBSTANCE_ID>
310939560

> <PUBCHEM_SUBSTANCE_VERSION>
1

> <PUBCHEM_EXT_DATASOURCE_NAME>
4488

> <PUBCHEM_EXT_DATASOURCE_REGID>
SCHEMBL16117489

> <PUBCHEM_SUBSTANCE_COMMENT>
InChI=1S/C24H25F3N6O2/c1-29-14-18(34)15-35-19-6-3-5-16(11-19)23-31-20(12-22(32-23)33(2)10-4-9-28)17-7-8-21(30-13-17)24(25,26)27/h3,5-8,11-13,18,29,34H,4,10,14-15H2,1-2H3
InChIKey=OSIPLYQRFFACHA-UHFFFAOYSA-N

> <PUBCHEM_SUBSTANCE_SYNONYM>
SCHEMBL16117489

> <PUBCHEM_XREF_EXT_ID>
SCHEMBL16117489

> <PUBCHEM_EXT_DATASOURCE_URL>
https://www.surechembl.org/

> <PUBCHEM_EXT_SUBSTANCE_URL>
https://www.surechembl.org/chemical/SCHEMBL16117489

> <PUBCHEM_CID_ASSOCIATIONS>
85472562  1

> <PUBCHEM_COORDINATE_TYPE>
1
3

$$$$
