310947244
  -OEChem-07211613022D

110117  0     1  0  0  0  0  0999 V2000
    5.1748  -21.2758    0.0000 F   0  0  0  0  0  0  0  0  0  0  0  0
    6.0475  -20.7720    0.0000 F   0  0  0  0  0  0  0  0  0  0  0  0
    4.3021  -20.7720    0.0000 F   0  0  0  0  0  0  0  0  0  0  0  0
    9.4889  -14.8731    0.0000 O   0  0  0  0  0  0  0  0  0  0  0  0
   10.5733  -13.0803    0.0000 O   0  0  0  0  0  0  0  0  0  0  0  0
   12.9640  -13.7209    0.0000 O   0  0  0  0  0  0  0  0  0  0  0  0
    9.1930  -13.4501    0.0000 O   0  0  0  0  0  0  0  0  0  0  0  0
    8.1910  -15.0440    0.0000 O   0  0  0  0  0  0  0  0  0  0  0  0
    9.1191  -16.2534    0.0000 O   0  0  0  0  0  0  0  0  0  0  0  0
   14.2307  -19.6969    0.0000 O   0  0  0  0  0  0  0  0  0  0  0  0
    5.3330  -14.2190    0.0000 O   0  0  0  0  0  0  0  0  0  0  0  0
    3.1895  -16.2815    0.0000 O   0  0  0  0  0  0  0  0  0  0  0  0
    1.7604  -15.4566    0.0000 O   0  0  0  0  0  0  0  0  0  0  0  0
  -11.2808  -15.5350    0.0000 O   0  0  0  0  0  0  0  0  0  0  0  0
  -13.1924  -13.3280    0.0000 O   0  0  0  0  0  0  0  0  0  0  0  0
   -8.4227  -16.3601    0.0000 O   0  0  0  0  0  0  0  0  0  0  0  0
    0.3315  -16.2815    0.0000 O   0  0  0  0  0  0  0  0  0  0  0  0
    4.3021  -18.7566    0.0000 O   0  0  0  0  0  0  0  0  0  0  0  0
   -2.8007  -15.5350    0.0000 O   0  0  0  0  0  0  0  0  0  0  0  0
   -2.8007  -15.5350    0.0000 O   0  0  0  0  0  0  0  0  0  0  0  0
   -2.8007  -15.5350    0.0000 O   0  0  0  0  0  0  0  0  0  0  0  0
   -2.8007  -15.5350    0.0000 O   0  0  0  0  0  0  0  0  0  0  0  0
   -2.8007  -15.5350    0.0000 O   0  0  0  0  0  0  0  0  0  0  0  0
   -2.8007  -15.5350    0.0000 O   0  0  0  0  0  0  0  0  0  0  0  0
   -2.8007  -15.5350    0.0000 O   0  0  0  0  0  0  0  0  0  0  0  0
   -2.8007  -15.5350    0.0000 O   0  0  0  0  0  0  0  0  0  0  0  0
   12.5942  -15.1013    0.0000 N   0  0  0  0  0  0  0  0  0  0  0  0
   12.0897  -17.1900    0.0000 N   0  0  0  0  0  0  0  0  0  0  0  0
    6.0475  -15.4566    0.0000 N   0  0  0  0  0  0  0  0  0  0  0  0
    6.0475  -18.7566    0.0000 N   0  0  0  0  0  0  0  0  0  0  0  0
   -4.9442  -15.1225    0.0000 N   0  0  0  0  0  0  0  0  0  0  0  0
   -6.0242  -14.3379    0.0000 N   0  0  0  0  0  0  0  0  0  0  0  0
   -5.1991  -14.3379    0.0000 N   0  0  0  0  0  0  0  0  0  0  0  0
   12.0108  -15.6846    0.0000 C   0  0  0  0  0  0  0  0  0  0  0  0
   11.0003  -14.6741    0.0000 C   0  0  0  0  0  0  0  0  0  0  0  0
   12.3853  -16.4198    0.0000 C   0  0  0  0  0  0  0  0  0  0  0  0
   10.2035  -14.4606    0.0000 C   0  0  3  0  0  0  0  0  0  0  0  0
   13.2002  -16.2907    0.0000 C   0  0  0  0  0  0  0  0  0  0  0  0
   11.5837  -14.0908    0.0000 C   0  0  0  0  0  0  0  0  0  0  0  0
   12.3807  -14.3043    0.0000 C   0  0  0  0  0  0  0  0  0  0  0  0
   11.2138  -15.4711    0.0000 C   0  0  0  0  0  0  0  0  0  0  0  0
   13.3293  -15.4758    0.0000 C   0  0  0  0  0  0  0  0  0  0  0  0
   13.7195  -16.9318    0.0000 C   0  0  0  0  0  0  0  0  0  0  0  0
    9.9898  -13.6638    0.0000 C   0  0  0  0  0  0  0  0  0  0  0  0
   13.4238  -17.7021    0.0000 C   0  0  0  0  0  0  0  0  0  0  0  0
   12.6089  -17.8312    0.0000 C   0  0  0  0  0  0  0  0  0  0  0  0
   11.3702  -13.2939    0.0000 C   0  0  0  0  0  0  0  0  0  0  0  0
   10.4170  -15.2576    0.0000 C   0  0  0  0  0  0  0  0  0  0  0  0
   13.9430  -18.3433    0.0000 C   0  0  0  0  0  0  0  0  0  0  0  0
   14.5163  -16.7183    0.0000 C   0  0  0  0  0  0  0  0  0  0  0  0
   12.3132  -18.6014    0.0000 C   0  0  0  0  0  0  0  0  0  0  0  0
    8.9056  -15.4566    0.0000 C   0  0  0  0  0  0  0  0  0  0  0  0
   13.6473  -19.1135    0.0000 C   0  0  0  0  0  0  0  0  0  0  0  0
   12.8325  -19.2425    0.0000 C   0  0  0  0  0  0  0  0  0  0  0  0
    9.8336  -15.8410    0.0000 C   0  0  0  0  0  0  0  0  0  0  0  0
   14.7299  -15.9215    0.0000 C   0  0  0  0  0  0  0  0  0  0  0  0
    7.4765  -15.4566    0.0000 C   0  0  0  0  0  0  0  0  0  0  0  0
    6.7620  -15.0440    0.0000 C   0  0  3  0  0  0  0  0  0  0  0  0
    6.7620  -14.2190    0.0000 C   0  0  0  0  0  0  0  0  0  0  0  0
    5.3330  -15.0440    0.0000 C   0  0  0  0  0  0  0  0  0  0  0  0
    6.0475  -13.8064    0.0000 C   0  0  0  0  0  0  0  0  0  0  0  0
    7.4765  -13.8064    0.0000 C   0  0  0  0  0  0  0  0  0  0  0  0
    4.6185  -15.4566    0.0000 C   0  0  0  0  0  0  0  0  0  0  0  0
    4.6185  -16.2815    0.0000 C   0  0  0  0  0  0  0  0  0  0  0  0
    3.1895  -15.4566    0.0000 C   0  0  0  0  0  0  0  0  0  0  0  0
    5.3330  -16.6941    0.0000 C   0  0  0  0  0  0  0  0  0  0  0  0
    2.4750  -15.0440    0.0000 C   0  0  0  0  0  0  0  0  0  0  0  0
    5.3330  -17.5191    0.0000 C   0  0  0  0  0  0  0  0  0  0  0  0
    6.0475  -17.9317    0.0000 C   0  0  0  0  0  0  0  0  0  0  0  0
  -11.9952  -14.2974    0.0000 C   0  0  0  0  0  0  0  0  0  0  0  0
  -11.9952  -15.1225    0.0000 C   0  0  0  0  0  0  0  0  0  0  0  0
  -12.7798  -14.0425    0.0000 C   0  0  0  0  0  0  0  0  0  0  0  0
  -11.2808  -13.8850    0.0000 C   0  0  0  0  0  0  0  0  0  0  0  0
  -10.5662  -14.2974    0.0000 C   0  0  0  0  0  0  0  0  0  0  0  0
    1.0460  -15.0440    0.0000 C   0  0  0  0  0  0  0  0  0  0  0  0
  -13.2648  -14.7100    0.0000 C   0  0  0  0  0  0  0  0  0  0  0  0
  -12.7798  -15.3774    0.0000 C   0  0  0  0  0  0  0  0  0  0  0  0
   -9.1371  -15.1225    0.0000 C   0  0  0  0  0  0  0  0  0  0  0  0
  -10.5662  -15.1225    0.0000 C   0  0  0  0  0  0  0  0  0  0  0  0
   -9.8517  -13.8850    0.0000 C   0  0  0  0  0  0  0  0  0  0  0  0
   -9.8517  -15.5350    0.0000 C   0  0  0  0  0  0  0  0  0  0  0  0
   -9.1371  -14.2974    0.0000 C   0  0  0  0  0  0  0  0  0  0  0  0
   -8.4227  -15.5350    0.0000 C   0  0  0  0  0  0  0  0  0  0  0  0
    0.3315  -15.4566    0.0000 C   0  0  0  0  0  0  0  0  0  0  0  0
    5.1748  -19.2605    0.0000 C   0  0  0  0  0  0  0  0  0  0  0  0
    5.1748  -20.2682    0.0000 C   0  0  0  0  0  0  0  0  0  0  0  0
   -6.2792  -15.1225    0.0000 C   0  0  0  0  0  0  0  0  0  0  0  0
   -6.9937  -15.5350    0.0000 C   0  0  0  0  0  0  0  0  0  0  0  0
   -5.6117  -15.6074    0.0000 C   0  0  0  0  0  0  0  0  0  0  0  0
   -4.2297  -15.5350    0.0000 C   0  0  0  0  0  0  0  0  0  0  0  0
   -1.3718  -15.5350    0.0000 C   0  0  0  0  0  0  0  0  0  0  0  0
   -3.5153  -15.1225    0.0000 C   0  0  0  0  0  0  0  0  0  0  0  0
   -2.0862  -15.1225    0.0000 C   0  0  0  0  0  0  0  0  0  0  0  0
   -2.0862  -15.1225    0.0000 C   0  0  0  0  0  0  0  0  0  0  0  0
   -1.3718  -15.5350    0.0000 C   0  0  0  0  0  0  0  0  0  0  0  0
   -1.3718  -15.5350    0.0000 C   0  0  0  0  0  0  0  0  0  0  0  0
   -2.0862  -15.1225    0.0000 C   0  0  0  0  0  0  0  0  0  0  0  0
   -2.0862  -15.1225    0.0000 C   0  0  0  0  0  0  0  0  0  0  0  0
   -1.3718  -15.5350    0.0000 C   0  0  0  0  0  0  0  0  0  0  0  0
   -1.3718  -15.5350    0.0000 C   0  0  0  0  0  0  0  0  0  0  0  0
   -2.0862  -15.1225    0.0000 C   0  0  0  0  0  0  0  0  0  0  0  0
   -2.0862  -15.1225    0.0000 C   0  0  0  0  0  0  0  0  0  0  0  0
   -1.3718  -15.5350    0.0000 C   0  0  0  0  0  0  0  0  0  0  0  0
   -1.3718  -15.5350    0.0000 C   0  0  0  0  0  0  0  0  0  0  0  0
   -2.0862  -15.1225    0.0000 C   0  0  0  0  0  0  0  0  0  0  0  0
   -1.3718  -15.5350    0.0000 C   0  0  0  0  0  0  0  0  0  0  0  0
   -2.0862  -15.1225    0.0000 C   0  0  0  0  0  0  0  0  0  0  0  0
    3.9039  -15.0440    0.0000 H   0  0  0  0  0  0  0  0  0  0  0  0
   -7.7082  -15.1225    0.0000 H   0  0  0  0  0  0  0  0  0  0  0  0
   -0.3830  -15.0440    0.0000 H   0  0  0  0  0  0  0  0  0  0  0  0
  1 86  1  0  0  0  0
  2 86  1  0  0  0  0
  3 86  1  0  0  0  0
  4 37  1  0  0  0  0
  4 52  1  0  0  0  0
  5 44  1  0  0  0  0
  5 47  1  0  0  0  0
  6 40  2  0  0  0  0
  7 44  2  0  0  0  0
  8 52  1  0  0  0  0
  8 57  1  0  0  0  0
  9 52  2  0  0  0  0
 10 53  1  0  0  0  0
 11 60  2  0  0  0  0
 12 65  2  0  0  0  0
 13 67  1  0  0  0  0
 13 75  1  0  0  0  0
 14 71  2  0  0  0  0
 15 72  2  0  0  0  0
 16 83  2  0  0  0  0
 17 84  2  0  0  0  0
 18 85  2  0  0  0  0
 19 92  1  0  0  0  0
 19 94  1  0  0  0  0
 20 93  1  0  0  0  0
 20 96  1  0  0  0  0
 21 95  1  0  0  0  0
 21 98  1  0  0  0  0
 22 97  1  0  0  0  0
 22100  1  0  0  0  0
 23 99  1  0  0  0  0
 23101  1  0  0  0  0
 24102  1  0  0  0  0
 24104  1  0  0  0  0
 25103  1  0  0  0  0
 25105  1  0  0  0  0
 26106  1  0  0  0  0
 26107  1  0  0  0  0
 27 34  1  0  0  0  0
 27 40  1  0  0  0  0
 27 42  1  0  0  0  0
 28 36  2  0  0  0  0
 28 46  1  0  0  0  0
 29 58  1  0  0  0  0
 29 60  1  0  0  0  0
 30 69  1  0  0  0  0
 30 85  1  0  0  0  0
 31 33  1  0  0  0  0
 31 89  1  0  0  0  0
 31 90  1  0  0  0  0
 32 33  2  0  0  0  0
 32 87  1  0  0  0  0
 34 36  1  0  0  0  0
 34 41  2  0  0  0  0
 35 37  1  0  0  0  0
 35 39  2  0  0  0  0
 35 41  1  0  0  0  0
 36 38  1  0  0  0  0
 37 44  1  0  0  0  0
 37 48  1  0  0  0  0
 38 42  1  0  0  0  0
 38 43  2  0  0  0  0
 39 40  1  0  0  0  0
 39 47  1  0  0  0  0
 43 45  1  0  0  0  0
 43 50  1  0  0  0  0
 45 46  1  0  0  0  0
 45 49  2  0  0  0  0
 46 51  2  0  0  0  0
 48 55  1  0  0  0  0
 49 53  1  0  0  0  0
 50 56  1  0  0  0  0
 51 54  1  0  0  0  0
 53 54  2  0  0  0  0
 57 58  1  0  0  0  0
 58 59  1  0  0  0  0
 59 61  1  0  0  0  0
 59 62  1  0  0  0  0
 60 63  1  0  0  0  0
 63 64  1  0  0  0  0
 63108  1  0  0  0  0
 64 66  1  0  0  0  0
 65 67  1  0  0  0  0
 65108  1  0  0  0  0
 66 68  1  0  0  0  0
 68 69  1  0  0  0  0
 70 71  1  0  0  0  0
 70 72  1  0  0  0  0
 70 73  1  0  0  0  0
 71 77  1  0  0  0  0
 72 76  1  0  0  0  0
 73 74  1  0  0  0  0
 74 79  1  0  0  0  0
 74 80  1  0  0  0  0
 75 84  1  0  0  0  0
 76 77  2  0  0  0  0
 78 81  1  0  0  0  0
 78 82  1  0  0  0  0
 78 83  1  0  0  0  0
 79 81  1  0  0  0  0
 80 82  1  0  0  0  0
 83109  1  0  0  0  0
 84110  1  0  0  0  0
 85 86  1  0  0  0  0
 87 88  1  0  0  0  0
 87 89  2  0  0  0  0
 88109  1  0  0  0  0
 90 92  1  0  0  0  0
 91 93  1  0  0  0  0
 91110  1  0  0  0  0
 94 95  1  0  0  0  0
 96 97  1  0  0  0  0
 98 99  1  0  0  0  0
100102  1  0  0  0  0
101103  1  0  0  0  0
104107  1  0  0  0  0
105106  1  0  0  0  0
M  END
> <PUBCHEM_COMPOUND_ID_TYPE>
0

> <PUBCHEM_TOTAL_CHARGE>
0

> <PUBCHEM_SUBSTANCE_ID>
310947244

> <PUBCHEM_SUBSTANCE_VERSION>
1

> <PUBCHEM_EXT_DATASOURCE_NAME>
4488

> <PUBCHEM_EXT_DATASOURCE_REGID>
SCHEMBL16125399

> <PUBCHEM_SUBSTANCE_COMMENT>
InChI=1S/C74H107F3N7O23/c1-5-52-53-38-51(85)14-15-58(53)79-66-55(52)41-84-60(66)39-57-56(68(84)91)42-105-71(94)73(57,6-2)107-72(95)106-43-59(47(3)4)80-67(90)63(9-7-8-18-78-70(93)74(75,76)77)110-65(89)45-104-44-64(88)108-36-35-103-34-33-102-32-31-101-30-29-100-28-27-99-26-25-98-24-23-97-22-21-96-20-19-83-40-50(81-82-83)46-109-69(92)49-12-10-48(11-13-49)37-54-61(86)16-17-62(54)87/h14-17,38-40,47-49,54,59,63,85H,5-13,18-37,41-46,108-110H2,1-4H3,(H,78,93)(H,80,90)
InChIKey=XYIICBVLQCUBIS-UHFFFAOYSA-N

> <PUBCHEM_SUBSTANCE_SYNONYM>
SCHEMBL16125399

> <PUBCHEM_XREF_EXT_ID>
SCHEMBL16125399

> <PUBCHEM_EXT_DATASOURCE_URL>
https://www.surechembl.org/

> <PUBCHEM_EXT_SUBSTANCE_URL>
https://www.surechembl.org/chemical/SCHEMBL16125399

> <PUBCHEM_COORDINATE_TYPE>
1
3

$$$$
