310936943
  -OEChem-07211613022D

 27 30  0     1  0  0  0  0  0999 V2000
   -3.0367   -1.4045    0.0000 O   0  0  0  0  0  0  0  0  0  0  0  0
    0.7145   -0.4125    0.0000 O   0  0  0  0  0  0  0  0  0  0  0  0
   -2.8972   -0.0770    0.0000 N   0  0  0  0  0  0  0  0  0  0  0  0
   -1.4290    0.8250    0.0000 N   0  0  0  0  0  0  0  0  0  0  0  0
   -2.2297   -1.2330    0.0000 N   0  0  0  0  0  0  0  0  0  0  0  0
    2.1435   -1.2375    0.0000 N   0  0  3  0  0  0  0  0  0  0  0  0
    0.0000    0.8250    0.0000 C   0  0  0  0  0  0  0  0  0  0  0  0
   -1.4290    0.0000    0.0000 C   0  0  0  0  0  0  0  0  0  0  0  0
    0.0000    0.0000    0.0000 C   0  0  0  0  0  0  0  0  0  0  0  0
   -2.1435   -0.4125    0.0000 C   0  0  0  0  0  0  0  0  0  0  0  0
    0.7145    1.2375    0.0000 C   0  0  0  0  0  0  0  0  0  0  0  0
   -3.4492   -0.6901    0.0000 C   0  0  0  0  0  0  0  0  0  0  0  0
   -0.7145   -0.4125    0.0000 C   0  0  0  0  0  0  0  0  0  0  0  0
   -0.7145    1.2375    0.0000 C   0  0  0  0  0  0  0  0  0  0  0  0
   -4.2697   -0.6038    0.0000 C   0  0  0  0  0  0  0  0  0  0  0  0
    1.1270    1.9520    0.0000 C   0  0  0  0  0  0  0  0  0  0  0  0
    1.5395    1.2375    0.0000 C   0  0  0  0  0  0  0  0  0  0  0  0
    1.4290    0.0000    0.0000 C   0  0  0  0  0  0  0  0  0  0  0  0
    2.1435   -0.4125    0.0000 C   0  0  3  0  0  0  0  0  0  0  0  0
   -5.0902   -0.5176    0.0000 C   0  0  0  0  0  0  0  0  0  0  0  0
   -4.6053    0.1499    0.0000 C   0  0  0  0  0  0  0  0  0  0  0  0
   -4.7546   -1.2713    0.0000 C   0  0  0  0  0  0  0  0  0  0  0  0
    2.8579    0.0000    0.0000 C   0  0  0  0  0  0  0  0  0  0  0  0
    2.8579   -1.6500    0.0000 C   0  0  0  0  0  0  0  0  0  0  0  0
    3.5724   -0.4125    0.0000 C   0  0  0  0  0  0  0  0  0  0  0  0
    3.5724   -1.2375    0.0000 C   0  0  0  0  0  0  0  0  0  0  0  0
    1.4290   -1.6500    0.0000 C   0  0  0  0  0  0  0  0  0  0  0  0
  1  5  1  0  0  0  0
  1 12  1  0  0  0  0
  2  9  1  0  0  0  0
  2 18  1  0  0  0  0
  3 10  1  0  0  0  0
  3 12  2  0  0  0  0
  4  8  2  0  0  0  0
  4 14  1  0  0  0  0
  5 10  2  0  0  0  0
  6 19  1  0  0  0  0
  6 24  1  0  0  0  0
  6 27  1  0  0  0  0
  7  9  1  0  0  0  0
  7 11  1  0  0  0  0
  7 14  2  0  0  0  0
  8 10  1  0  0  0  0
  8 13  1  0  0  0  0
  9 13  2  0  0  0  0
 11 16  1  0  0  0  0
 11 17  1  0  0  0  0
 12 15  1  0  0  0  0
 15 20  1  0  0  0  0
 15 21  1  0  0  0  0
 15 22  1  0  0  0  0
 16 17  1  0  0  0  0
 18 19  1  0  0  0  0
 19 23  1  0  0  0  0
 23 25  1  0  0  0  0
 24 26  1  0  0  0  0
 25 26  1  0  0  0  0
M  END
> <PUBCHEM_COMPOUND_ID_TYPE>
0

> <PUBCHEM_TOTAL_CHARGE>
0

> <PUBCHEM_SUBSTANCE_ID>
310936943

> <PUBCHEM_SUBSTANCE_VERSION>
1

> <PUBCHEM_EXT_DATASOURCE_NAME>
4488

> <PUBCHEM_EXT_DATASOURCE_REGID>
SCHEMBL16114644

> <PUBCHEM_SUBSTANCE_COMMENT>
InChI=1S/C21H30N4O2/c1-21(2,3)20-23-19(24-27-20)17-11-18(16(12-22-17)14-8-9-14)26-13-15-7-5-6-10-25(15)4/h11-12,14-15H,5-10,13H2,1-4H3
InChIKey=TXOJENLBUSFFFP-UHFFFAOYSA-N

> <PUBCHEM_SUBSTANCE_SYNONYM>
SCHEMBL16114644

> <PUBCHEM_XREF_EXT_ID>
SCHEMBL16114644

> <PUBCHEM_EXT_DATASOURCE_URL>
https://www.surechembl.org/

> <PUBCHEM_EXT_SUBSTANCE_URL>
https://www.surechembl.org/chemical/SCHEMBL16114644

> <PUBCHEM_CID_ASSOCIATIONS>
86276090  1

> <PUBCHEM_COORDINATE_TYPE>
1
3

$$$$
