310948783
  -OEChem-07211613022D

 45 47  0     1  0  0  0  0  0999 V2000
   -4.5699    0.3570    0.0000 O   0  0  0  0  0  0  0  0  0  0  0  0
   -3.7180    1.7976    0.0000 O   0  0  0  0  0  0  0  0  0  0  0  0
   -1.2126    0.3570    0.0000 N   0  0  0  0  0  0  0  0  0  0  0  0
   -3.7180    1.7976    0.0000 N   0  0  0  0  0  0  0  0  0  0  0  0
    2.1321    0.3570    0.0000 N   0  0  0  0  0  0  0  0  0  0  0  0
   -2.4779   -0.3570    0.0000 C   0  0  0  0  0  0  0  0  0  0  0  0
   -3.3047   -0.3570    0.0000 C   0  0  0  0  0  0  0  0  0  0  0  0
   -2.0770    0.3570    0.0000 C   0  0  0  0  0  0  0  0  0  0  0  0
   -3.3172    1.0961    0.0000 C   0  0  0  0  0  0  0  0  0  0  0  0
   -3.7055    0.3570    0.0000 C   0  0  0  0  0  0  0  0  0  0  0  0
   -2.4653    1.0710    0.0000 C   0  0  0  0  0  0  0  0  0  0  0  0
   -0.3733    0.3570    0.0000 C   0  0  0  0  0  0  0  0  0  0  0  0
   -3.7180    1.7976    0.0000 C   0  0  0  0  0  0  0  0  0  0  0  0
   -2.0519   -1.0961    0.0000 C   0  0  0  0  0  0  0  0  0  0  0  0
    0.0401   -0.3445    0.0000 C   0  0  0  0  0  0  0  0  0  0  0  0
    0.0276    1.0961    0.0000 C   0  0  0  0  0  0  0  0  0  0  0  0
   -3.7055   -1.0961    0.0000 C   0  0  0  0  0  0  0  0  0  0  0  0
    1.2802    0.3570    0.0000 C   0  0  0  0  0  0  0  0  0  0  0  0
    0.8669   -0.3570    0.0000 C   0  0  0  0  0  0  0  0  0  0  0  0
    0.8794    1.0710    0.0000 C   0  0  0  0  0  0  0  0  0  0  0  0
   -2.4653   -1.8102    0.0000 C   0  0  0  0  0  0  0  0  0  0  0  0
   -3.3047   -1.8102    0.0000 C   0  0  0  0  0  0  0  0  0  0  0  0
   -0.6364   -1.0836    0.0000 C   0  0  0  0  0  0  0  0  0  0  0  0
   -0.6364    1.8102    0.0000 C   0  0  0  0  0  0  0  0  0  0  0  0
    2.5454   -0.3696    0.0000 C   0  0  0  0  0  0  0  0  0  0  0  0
    2.5454    1.0836    0.0000 C   0  0  0  0  0  0  0  0  0  0  0  0
   -1.3449    1.1951    0.0000 C   0  0  0  0  0  0  0  0  0  0  0  0
   -2.9311    0.9861    0.0000 C   0  0  0  0  0  0  0  0  0  0  0  0
    2.5454   -0.3696    0.0000 C   0  0  3  0  0  0  0  0  0  0  0  0
    2.5454    1.0836    0.0000 C   0  0  3  0  0  0  0  0  0  0  0  0
   -1.9843    1.6255    0.0000 C   0  0  0  0  0  0  0  0  0  0  0  0
    4.5699   -0.8835    0.0000 C   0  0  0  0  0  0  0  0  0  0  0  0
    4.5692    0.5698    0.0000 C   0  0  0  0  0  0  0  0  0  0  0  0
    3.5209   -1.5129    0.0000 C   0  0  0  0  0  0  0  0  0  0  0  0
    3.5206   -0.0594    0.0000 C   0  0  0  0  0  0  0  0  0  0  0  0
   -2.6483    1.2074    0.0000 C   0  0  0  0  0  0  0  0  0  0  0  0
    4.0244   -0.5164    0.0000 C   0  0  0  0  0  0  0  0  0  0  0  0
    4.0240    0.9368    0.0000 C   0  0  0  0  0  0  0  0  0  0  0  0
    3.8462   -1.5129    0.0000 C   0  0  0  0  0  0  0  0  0  0  0  0
    3.8457   -0.0594    0.0000 C   0  0  0  0  0  0  0  0  0  0  0  0
   -3.3368    1.6255    0.0000 C   0  0  0  0  0  0  0  0  0  0  0  0
    3.4580   -0.8730    0.0000 C   0  0  0  0  0  0  0  0  0  0  0  0
    3.4577    0.5803    0.0000 C   0  0  0  0  0  0  0  0  0  0  0  0
    2.8707   -0.5164    0.0000 C   0  0  0  0  0  0  0  0  0  0  0  0
    2.8705    0.9368    0.0000 C   0  0  0  0  0  0  0  0  0  0  0  0
  1 10  2  0  0  0  0
  2 13  2  0  0  0  0
  3  8  2  3  0  0  0
  3 12  1  0  0  0  0
  4 13  1  0  0  0  0
  4 27  1  0  0  0  0
  4 28  1  0  0  0  0
  5 18  1  0  0  0  0
  5 25  1  0  0  0  0
  5 26  1  0  0  0  0
  6  7  1  0  0  0  0
  6  8  1  0  0  0  0
  6 14  2  0  0  0  0
  7 10  1  0  0  0  0
  7 17  2  0  0  0  0
  8 11  1  0  0  0  0
  9 10  1  0  0  0  0
  9 11  2  0  0  0  0
  9 13  1  0  0  0  0
 12 15  2  0  0  0  0
 12 16  1  0  0  0  0
 14 21  1  0  0  0  0
 15 19  1  0  0  0  0
 15 23  1  0  0  0  0
 16 20  2  0  0  0  0
 16 24  1  0  0  0  0
 17 22  1  0  0  0  0
 18 19  2  0  0  0  0
 18 20  1  0  0  0  0
 21 22  2  0  0  0  0
 25 29  1  0  0  0  0
 26 30  1  0  0  0  0
 27 31  1  0  0  0  0
 29 32  1  0  0  0  0
 29 34  1  0  0  0  0
 30 33  1  0  0  0  0
 30 35  1  0  0  0  0
 31 36  1  0  0  0  0
 32 37  1  0  0  0  0
 33 38  1  0  0  0  0
 34 39  1  0  0  0  0
 35 40  1  0  0  0  0
 36 41  1  0  0  0  0
 37 42  1  0  0  0  0
 38 43  1  0  0  0  0
 42 44  1  0  0  0  0
 43 45  1  0  0  0  0
M  END
> <PUBCHEM_COMPOUND_ID_TYPE>
0

> <PUBCHEM_TOTAL_CHARGE>
0

> <PUBCHEM_SUBSTANCE_ID>
310948783

> <PUBCHEM_SUBSTANCE_VERSION>
1

> <PUBCHEM_EXT_DATASOURCE_NAME>
4488

> <PUBCHEM_EXT_DATASOURCE_REGID>
SCHEMBL16126967

> <PUBCHEM_SUBSTANCE_COMMENT>
InChI=1S/C40H59N3O2/c1-9-14-19-31(12-4)27-43(28-32(13-5)20-15-10-2)33-24-29(6)38(30(7)25-33)41-37-26-36(40(45)42(8)23-16-11-3)39(44)35-22-18-17-21-34(35)37/h17-18,21-22,24-26,31-32H,9-16,19-20,23,27-28H2,1-8H3
InChIKey=OJEDGADOIXTFBW-UHFFFAOYSA-N

> <PUBCHEM_SUBSTANCE_SYNONYM>
SCHEMBL16126967

> <PUBCHEM_XREF_EXT_ID>
SCHEMBL16126967

> <PUBCHEM_EXT_DATASOURCE_URL>
https://www.surechembl.org/

> <PUBCHEM_EXT_SUBSTANCE_URL>
https://www.surechembl.org/chemical/SCHEMBL16126967

> <PUBCHEM_CID_ASSOCIATIONS>
117614324  1

> <PUBCHEM_COORDINATE_TYPE>
1
3

$$$$
