310947874
  -OEChem-07211613022D

 28 31  0     1  0  0  0  0  0999 V2000
    1.2481    3.6410    0.0000 F   0  0  0  0  0  0  0  0  0  0  0  0
    2.2877    3.1113    0.0000 F   0  0  0  0  0  0  0  0  0  0  0  0
    2.8173    4.1509    0.0000 F   0  0  0  0  0  0  0  0  0  0  0  0
   -2.5300    5.1221    0.0000 O   0  0  0  0  0  0  0  0  0  0  0  0
   -0.4022    0.6392    0.0000 O   0  0  0  0  0  0  0  0  0  0  0  0
    0.3034    4.3672    0.0000 N   0  0  0  0  0  0  0  0  0  0  0  0
    2.3298    5.2937    0.0000 N   0  0  0  0  0  0  0  0  0  0  0  0
   -0.4111    2.3047    0.0000 N   0  0  3  0  0  0  0  0  0  0  0  0
    0.9708    4.8521    0.0000 C   0  0  0  0  0  0  0  0  0  0  0  0
    0.7159    5.6367    0.0000 C   0  0  0  0  0  0  0  0  0  0  0  0
   -0.3641    4.8521    0.0000 C   0  0  0  0  0  0  0  0  0  0  0  0
   -0.1091    5.6367    0.0000 C   0  0  0  0  0  0  0  0  0  0  0  0
    1.7778    4.6806    0.0000 C   0  0  0  0  0  0  0  0  0  0  0  0
    2.0327    3.8959    0.0000 C   0  0  0  0  0  0  0  0  0  0  0  0
    1.2679    6.2498    0.0000 C   0  0  0  0  0  0  0  0  0  0  0  0
   -1.1710    4.6806    0.0000 C   0  0  0  0  0  0  0  0  0  0  0  0
    0.3034    3.5422    0.0000 C   0  0  0  0  0  0  0  0  0  0  0  0
   -0.6612    6.2498    0.0000 C   0  0  0  0  0  0  0  0  0  0  0  0
    2.0749    6.0783    0.0000 C   0  0  0  0  0  0  0  0  0  0  0  0
   -1.7231    5.2937    0.0000 C   0  0  0  0  0  0  0  0  0  0  0  0
   -1.4681    6.0783    0.0000 C   0  0  0  0  0  0  0  0  0  0  0  0
   -0.4111    3.1297    0.0000 C   0  0  0  0  0  0  0  0  0  0  0  0
    0.3034    1.8922    0.0000 C   0  0  0  0  0  0  0  0  0  0  0  0
   -1.1256    1.8922    0.0000 C   0  0  0  0  0  0  0  0  0  0  0  0
    0.3034    1.0672    0.0000 C   0  0  0  0  0  0  0  0  0  0  0  0
   -1.1256    1.0672    0.0000 C   0  0  0  0  0  0  0  0  0  0  0  0
    1.0178    2.3047    0.0000 C   0  0  0  0  0  0  0  0  0  0  0  0
    1.0178    1.4797    0.0000 C   0  0  0  0  0  0  0  0  0  0  0  0
  1 14  1  0  0  0  0
  2 14  1  0  0  0  0
  3 14  1  0  0  0  0
  4 20  1  0  0  0  0
  5 25  1  0  0  0  0
  5 26  1  0  0  0  0
  6  9  1  0  0  0  0
  6 11  1  0  0  0  0
  6 17  1  0  0  0  0
  7 13  2  0  0  0  0
  7 19  1  0  0  0  0
  8 22  1  0  0  0  0
  8 23  1  0  0  0  0
  8 24  1  0  0  0  0
  9 10  2  0  0  0  0
  9 13  1  0  0  0  0
 10 12  1  0  0  0  0
 10 15  1  0  0  0  0
 11 12  1  0  0  0  0
 11 16  2  0  0  0  0
 12 18  2  0  0  0  0
 13 14  1  0  0  0  0
 15 19  2  0  0  0  0
 16 20  1  0  0  0  0
 17 22  1  0  0  0  0
 18 21  1  0  0  0  0
 20 21  2  0  0  0  0
 23 25  1  0  0  0  0
 23 27  1  0  0  0  0
 23 28  1  0  0  0  0
 24 26  1  0  0  0  0
M  END
> <PUBCHEM_COMPOUND_ID_TYPE>
0

> <PUBCHEM_TOTAL_CHARGE>
0

> <PUBCHEM_SUBSTANCE_ID>
310947874

> <PUBCHEM_SUBSTANCE_VERSION>
1

> <PUBCHEM_EXT_DATASOURCE_NAME>
4488

> <PUBCHEM_EXT_DATASOURCE_REGID>
SCHEMBL16126048

> <PUBCHEM_SUBSTANCE_COMMENT>
InChI=1S/C20H22F3N3O2/c1-19(2)12-28-10-9-25(19)7-8-26-16-11-13(27)3-4-14(16)15-5-6-24-18(17(15)26)20(21,22)23/h3-6,11,27H,7-10,12H2,1-2H3
InChIKey=JRFQXNJFXYGDBN-UHFFFAOYSA-N

> <PUBCHEM_SUBSTANCE_SYNONYM>
SCHEMBL16126048

> <PUBCHEM_XREF_EXT_ID>
SCHEMBL16126048

> <PUBCHEM_EXT_DATASOURCE_URL>
https://www.surechembl.org/

> <PUBCHEM_EXT_SUBSTANCE_URL>
https://www.surechembl.org/chemical/SCHEMBL16126048

> <PUBCHEM_CID_ASSOCIATIONS>
117613538  1

> <PUBCHEM_COORDINATE_TYPE>
1
3

$$$$
