310942028
  -OEChem-07211613022D

 40 44  0     1  0  0  0  0  0999 V2000
   -4.4868   -1.3741    0.0000 Cl  0  0  0  0  0  0  0  0  0  0  0  0
    1.4466   -0.6190    0.0000 O   0  0  0  0  0  0  0  0  0  0  0  0
    0.2511   -1.2224    0.0000 O   0  0  0  0  0  0  0  0  0  0  0  0
    4.3508    1.8381    0.0000 O   0  0  0  0  0  0  0  0  0  0  0  0
   -1.2746    1.3281    0.0000 N   0  0  0  0  0  0  0  0  0  0  0  0
   -1.2577   -1.3741    0.0000 N   0  0  0  0  0  0  0  0  0  0  0  0
    2.4133    1.7871    0.0000 N   0  0  3  0  0  0  0  0  0  0  0  0
    2.6765   -1.1996    0.0000 C   0  0  0  0  0  0  0  0  0  0  0  0
    3.1432   -1.8487    0.0000 C   0  0  0  0  0  0  0  0  0  0  0  0
    3.1432   -0.5620    0.0000 C   0  0  0  0  0  0  0  0  0  0  0  0
    3.8947   -1.6096    0.0000 C   0  0  0  0  0  0  0  0  0  0  0  0
    3.8947   -0.8125    0.0000 C   0  0  0  0  0  0  0  0  0  0  0  0
   -1.2746    0.4444    0.0000 C   0  0  0  0  0  0  0  0  0  0  0  0
   -2.0225    0.0025    0.0000 C   0  0  0  0  0  0  0  0  0  0  0  0
    1.9363   -1.1996    0.0000 C   0  0  0  0  0  0  0  0  0  0  0  0
    2.9838    0.2236    0.0000 C   0  0  0  0  0  0  0  0  0  0  0  0
    2.9724   -2.6115    0.0000 C   0  0  0  0  0  0  0  0  0  0  0  0
    4.4868   -0.2773    0.0000 C   0  0  0  0  0  0  0  0  0  0  0  0
    4.4754   -2.1333    0.0000 C   0  0  0  0  0  0  0  0  0  0  0  0
    0.7179   -0.6417    0.0000 C   0  0  0  0  0  0  0  0  0  0  0  0
   -2.0225   -0.8983    0.0000 C   0  0  0  0  0  0  0  0  0  0  0  0
   -0.5440    1.7871    0.0000 C   0  0  3  0  0  0  0  0  0  0  0  0
   -0.5440   -0.0144    0.0000 C   0  0  0  0  0  0  0  0  0  0  0  0
   -2.7703    0.4273    0.0000 C   0  0  0  0  0  0  0  0  0  0  0  0
    3.5759    0.7475    0.0000 C   0  0  0  0  0  0  0  0  0  0  0  0
    3.5532   -3.1466    0.0000 C   0  0  0  0  0  0  0  0  0  0  0  0
    4.3274    0.4969    0.0000 C   0  0  0  0  0  0  0  0  0  0  0  0
    4.3046   -2.9076    0.0000 C   0  0  0  0  0  0  0  0  0  0  0  0
   -2.7193   -1.3401    0.0000 C   0  0  0  0  0  0  0  0  0  0  0  0
   -0.5440   -0.9153    0.0000 C   0  0  0  0  0  0  0  0  0  0  0  0
   -3.4840   -0.9153    0.0000 C   0  0  0  0  0  0  0  0  0  0  0  0
   -3.4670   -0.0144    0.0000 C   0  0  0  0  0  0  0  0  0  0  0  0
    0.1869    1.3451    0.0000 C   0  0  0  0  0  0  0  0  0  0  0  0
   -0.5440    2.7049    0.0000 C   0  0  0  0  0  0  0  0  0  0  0  0
    0.9347    1.7871    0.0000 C   0  0  0  0  0  0  0  0  0  0  0  0
    1.6996    1.3451    0.0000 C   0  0  0  0  0  0  0  0  0  0  0  0
    3.0082    1.1582    0.0000 C   0  0  0  0  0  0  0  0  0  0  0  0
    2.4303    2.7049    0.0000 C   0  0  0  0  0  0  0  0  0  0  0  0
    3.9769    1.1752    0.0000 C   0  0  0  0  0  0  0  0  0  0  0  0
    3.1781    3.1466    0.0000 C   0  0  0  0  0  0  0  0  0  0  0  0
  1 31  1  0  0  0  0
  2 15  1  0  0  0  0
  2 20  1  0  0  0  0
  3 20  2  0  0  0  0
  4 39  1  0  0  0  0
  5 13  1  0  0  0  0
  5 20  1  0  0  0  0
  5 22  1  0  0  0  0
  6 21  1  0  0  0  0
  6 30  2  0  0  0  0
  7 36  1  0  0  0  0
  7 37  1  0  0  0  0
  7 38  1  0  0  0  0
  8  9  1  0  0  0  0
  8 10  1  0  0  0  0
  8 15  1  0  0  0  0
  9 11  2  0  0  0  0
  9 17  1  0  0  0  0
 10 12  2  0  0  0  0
 10 16  1  0  0  0  0
 11 12  1  0  0  0  0
 11 19  1  0  0  0  0
 12 18  1  0  0  0  0
 13 14  1  0  0  0  0
 13 23  2  0  0  0  0
 14 21  1  0  0  0  0
 14 24  2  0  0  0  0
 16 25  2  0  0  0  0
 17 26  2  0  0  0  0
 18 27  2  0  0  0  0
 19 28  2  0  0  0  0
 21 29  2  0  0  0  0
 22 33  1  0  0  0  0
 22 34  1  0  0  0  0
 23 30  1  0  0  0  0
 24 32  1  0  0  0  0
 25 27  1  0  0  0  0
 26 28  1  0  0  0  0
 29 31  1  0  0  0  0
 31 32  2  0  0  0  0
 33 35  1  0  0  0  0
 35 36  1  0  0  0  0
 37 39  1  0  0  0  0
 38 40  1  0  0  0  0
M  END
> <PUBCHEM_COMPOUND_ID_TYPE>
0

> <PUBCHEM_TOTAL_CHARGE>
0

> <PUBCHEM_SUBSTANCE_ID>
310942028

> <PUBCHEM_SUBSTANCE_VERSION>
1

> <PUBCHEM_EXT_DATASOURCE_NAME>
4488

> <PUBCHEM_EXT_DATASOURCE_REGID>
SCHEMBL16120062

> <PUBCHEM_SUBSTANCE_COMMENT>
InChI=1S/C33H36ClN3O3/c1-3-36(19-20-38)18-8-9-23(2)37(32-16-17-35-31-21-24(34)14-15-29(31)32)33(39)40-22-30-27-12-6-4-10-25(27)26-11-5-7-13-28(26)30/h4-7,10-17,21,23,30,38H,3,8-9,18-20,22H2,1-2H3
InChIKey=QNTGDQUTRLGLRE-UHFFFAOYSA-N

> <PUBCHEM_SUBSTANCE_SYNONYM>
SCHEMBL16120062

> <PUBCHEM_XREF_EXT_ID>
SCHEMBL16120062

> <PUBCHEM_EXT_DATASOURCE_URL>
https://www.surechembl.org/

> <PUBCHEM_EXT_SUBSTANCE_URL>
https://www.surechembl.org/chemical/SCHEMBL16120062

> <PUBCHEM_CID_ASSOCIATIONS>
117608715  1

> <PUBCHEM_COORDINATE_TYPE>
1
3

$$$$
