310945662
  -OEChem-07211613022D

 24 24  0     1  0  0  0  0  0999 V2000
   -3.7835   -2.6896    0.0000 Cl  0  0  0  0  0  0  0  0  0  0  0  0
    0.1793    0.2152    0.0000 N   0  0  0  0  0  0  0  0  0  0  0  0
    2.3670    1.4524    0.0000 N   0  0  0  0  0  0  0  0  0  0  0  0
   -0.5558   -2.6896    0.0000 N   0  0  0  0  0  0  0  0  0  0  0  0
   -1.3090   -1.4345    0.0000 C   0  0  3  0  0  0  0  0  0  0  0  0
    1.5780    1.0579    0.0000 C   0  0  0  0  0  0  0  0  0  0  0  0
   -0.6276   -1.0220    0.0000 C   0  0  3  0  0  0  0  0  0  0  0  0
   -0.5738   -0.1793    0.0000 C   0  0  0  0  0  0  0  0  0  0  0  0
    0.8428   -0.1793    0.0000 C   0  0  0  0  0  0  0  0  0  0  0  0
    0.1613    1.0579    0.0000 C   0  0  0  0  0  0  0  0  0  0  0  0
    1.5600    0.2152    0.0000 C   0  0  0  0  0  0  0  0  0  0  0  0
    0.8428    1.4704    0.0000 C   0  0  0  0  0  0  0  0  0  0  0  0
   -1.3269   -2.2414    0.0000 C   0  0  3  0  0  0  0  0  0  0  0  0
   -2.0621   -1.0400    0.0000 C   0  0  0  0  0  0  0  0  0  0  0  0
    0.0000   -1.5421    0.0000 C   0  0  0  0  0  0  0  0  0  0  0  0
    2.3131    2.2772    0.0000 C   0  0  0  0  0  0  0  0  0  0  0  0
    3.0483    1.0400    0.0000 C   0  0  0  0  0  0  0  0  0  0  0  0
   -2.0442   -2.4924    0.0000 C   0  0  0  0  0  0  0  0  0  0  0  0
   -2.7614   -1.4345    0.0000 C   0  0  0  0  0  0  0  0  0  0  0  0
    0.1076   -2.2593    0.0000 C   0  0  0  0  0  0  0  0  0  0  0  0
    1.5780    2.6896    0.0000 C   0  0  0  0  0  0  0  0  0  0  0  0
    3.7835    1.4524    0.0000 C   0  0  0  0  0  0  0  0  0  0  0  0
   -2.7794   -2.2593    0.0000 C   0  0  0  0  0  0  0  0  0  0  0  0
    0.1434   -1.4345    0.0000 C   0  0  0  0  0  0  0  0  0  0  0  0
  1 23  1  0  0  0  0
  2  8  1  0  0  0  0
  2  9  1  0  0  0  0
  2 10  1  0  0  0  0
  3  6  1  0  0  0  0
  3 16  1  0  0  0  0
  3 17  1  0  0  0  0
  4 13  1  0  0  0  0
  4 20  2  0  0  0  0
  5  7  1  0  0  0  0
  5 13  1  0  0  0  0
  5 14  1  0  0  0  0
  6 11  1  0  0  0  0
  6 12  1  0  0  0  0
  7  8  1  0  0  0  0
  7 15  1  0  0  0  0
  9 11  1  0  0  0  0
 10 12  1  0  0  0  0
 13 18  1  0  0  0  0
 14 19  1  0  0  0  0
 16 21  1  0  0  0  0
 17 22  1  0  0  0  0
 19 23  2  0  0  0  0
 20 24  1  0  0  0  0
M  END
> <PUBCHEM_COMPOUND_ID_TYPE>
0

> <PUBCHEM_TOTAL_CHARGE>
0

> <PUBCHEM_SUBSTANCE_ID>
310945662

> <PUBCHEM_SUBSTANCE_VERSION>
1

> <PUBCHEM_EXT_DATASOURCE_NAME>
4488

> <PUBCHEM_EXT_DATASOURCE_REGID>
SCHEMBL16123762

> <PUBCHEM_SUBSTANCE_COMMENT>
InChI=1S/C20H38ClN3/c1-6-22-18(5)20(10-9-13-21)17(4)16-23-14-11-19(12-15-23)24(7-2)8-3/h6,9,13,17-20H,7-8,10-12,14-16H2,1-5H3/b13-9+,22-6-
InChIKey=DCYADCKUIILWRX-ZXKYOYGTSA-N

> <PUBCHEM_SUBSTANCE_SYNONYM>
SCHEMBL16123762

> <PUBCHEM_XREF_EXT_ID>
SCHEMBL16123762

> <PUBCHEM_EXT_DATASOURCE_URL>
https://www.surechembl.org/

> <PUBCHEM_EXT_SUBSTANCE_URL>
https://www.surechembl.org/chemical/SCHEMBL16123762

> <PUBCHEM_CID_ASSOCIATIONS>
117611663  1

> <PUBCHEM_COORDINATE_TYPE>
1
3

$$$$
