310949998
  -OEChem-07211613022D

 15 17  0     1  0  0  0  0  0999 V2000
   -0.6800   -0.5257    0.0000 N   0  0  0  0  0  0  0  0  0  0  0  0
   -2.8390    0.7220    0.0000 N   0  0  0  0  0  0  0  0  0  0  0  0
    0.7780   -0.5117    0.0000 C   0  0  3  0  0  0  0  0  0  0  0  0
    1.5772   -0.3995    0.0000 C   0  0  3  0  0  0  0  0  0  0  0  0
    2.0819    0.2453    0.0000 C   0  0  3  0  0  0  0  0  0  0  0  0
    1.2828    0.1192    0.0000 C   0  0  0  0  0  0  0  0  0  0  0  0
    1.7875    0.9463    0.0000 C   0  0  0  0  0  0  0  0  0  0  0  0
    0.0631   -0.9463    0.0000 C   0  0  0  0  0  0  0  0  0  0  0  0
    2.3623   -0.7360    0.0000 C   0  0  0  0  0  0  0  0  0  0  0  0
    2.8390   -0.0771    0.0000 C   0  0  0  0  0  0  0  0  0  0  0  0
   -1.3950   -0.9463    0.0000 C   0  0  0  0  0  0  0  0  0  0  0  0
   -0.6660    0.3014    0.0000 C   0  0  0  0  0  0  0  0  0  0  0  0
   -2.1099    0.3014    0.0000 C   0  0  0  0  0  0  0  0  0  0  0  0
   -2.1099   -0.5257    0.0000 C   0  0  0  0  0  0  0  0  0  0  0  0
   -1.3950    0.7080    0.0000 C   0  0  0  0  0  0  0  0  0  0  0  0
  1  8  1  0  0  0  0
  1 11  1  0  0  0  0
  1 12  1  0  0  0  0
  2 13  1  0  0  0  0
  3  4  1  0  0  0  0
  3  6  1  0  0  0  0
  3  8  1  0  0  0  0
  4  7  1  0  0  0  0
  4  9  1  0  0  0  0
  5  6  1  0  0  0  0
  5  7  1  0  0  0  0
  5 10  1  0  0  0  0
  9 10  2  0  0  0  0
 11 14  1  0  0  0  0
 12 15  1  0  0  0  0
 13 14  1  0  0  0  0
 13 15  1  0  0  0  0
M  END
> <PUBCHEM_COMPOUND_ID_TYPE>
0

> <PUBCHEM_TOTAL_CHARGE>
0

> <PUBCHEM_SUBSTANCE_ID>
310949998

> <PUBCHEM_SUBSTANCE_VERSION>
1

> <PUBCHEM_EXT_DATASOURCE_NAME>
4488

> <PUBCHEM_EXT_DATASOURCE_REGID>
SCHEMBL16128227

> <PUBCHEM_SUBSTANCE_COMMENT>
InChI=1S/C13H22N2/c14-13-3-5-15(6-4-13)9-12-8-10-1-2-11(12)7-10/h1-2,10-13H,3-9,14H2
InChIKey=DYURMZHJOCILST-UHFFFAOYSA-N

> <PUBCHEM_SUBSTANCE_SYNONYM>
SCHEMBL16128227

> <PUBCHEM_XREF_EXT_ID>
SCHEMBL16128227

> <PUBCHEM_EXT_DATASOURCE_URL>
https://www.surechembl.org/

> <PUBCHEM_EXT_SUBSTANCE_URL>
https://www.surechembl.org/chemical/SCHEMBL16128227

> <PUBCHEM_CID_ASSOCIATIONS>
117615235  1

> <PUBCHEM_COORDINATE_TYPE>
1
3

$$$$
