310934613
  -OEChem-07211613022D

 24 26  0     1  0  0  0  0  0999 V2000
    4.6225   -0.8248    0.0000 O   0  0  0  0  0  0  0  0  0  0  0  0
    3.0305   -2.8963    0.0000 O   0  0  0  0  0  0  0  0  0  0  0  0
    1.7263   -1.0741    0.0000 O   0  0  0  0  0  0  0  0  0  0  0  0
    3.3182   -0.1726    0.0000 N   0  0  0  0  0  0  0  0  0  0  0  0
    1.5728   -3.2415    0.0000 N   0  0  0  0  0  0  0  0  0  0  0  0
    3.3182   -1.4960    0.0000 C   0  0  3  0  0  0  0  0  0  0  0  0
    2.5318   -1.2467    0.0000 C   0  0  0  0  0  0  0  0  0  0  0  0
    3.7978   -0.8248    0.0000 C   0  0  0  0  0  0  0  0  0  0  0  0
    2.5318   -0.4220    0.0000 C   0  0  0  0  0  0  0  0  0  0  0  0
    3.5675   -2.2825    0.0000 C   0  0  3  0  0  0  0  0  0  0  0  0
    2.7428   -2.0907    0.0000 C   0  0  0  0  0  0  0  0  0  0  0  0
    1.8222   -1.6495    0.0000 C   0  0  0  0  0  0  0  0  0  0  0  0
    1.9372   -1.8605    0.0000 C   0  0  0  0  0  0  0  0  0  0  0  0
    4.3731   -2.4359    0.0000 C   0  0  0  0  0  0  0  0  0  0  0  0
    1.8222    0.0000    0.0000 C   0  0  0  0  0  0  0  0  0  0  0  0
    1.3618   -2.4551    0.0000 C   0  0  0  0  0  0  0  0  0  0  0  0
    1.1125   -1.2467    0.0000 C   0  0  0  0  0  0  0  0  0  0  0  0
    1.1125   -0.4220    0.0000 C   0  0  0  0  0  0  0  0  0  0  0  0
    4.6417   -3.2223    0.0000 C   0  0  0  0  0  0  0  0  0  0  0  0
    4.9293   -1.8413    0.0000 C   0  0  0  0  0  0  0  0  0  0  0  0
    0.5562   -2.2249    0.0000 C   0  0  0  0  0  0  0  0  0  0  0  0
    1.0166   -3.8361    0.0000 C   0  0  0  0  0  0  0  0  0  0  0  0
    0.0000   -2.8387    0.0000 C   0  0  0  0  0  0  0  0  0  0  0  0
    0.2110   -3.6059    0.0000 C   0  0  0  0  0  0  0  0  0  0  0  0
  1  8  2  0  0  0  0
  2 10  1  0  0  0  0
  3 13  2  0  0  0  0
  4  8  1  0  0  0  0
  4  9  1  0  0  0  0
  5 16  1  0  0  0  0
  5 22  2  0  0  0  0
  6  7  1  0  0  0  0
  6  8  1  0  0  0  0
  6 10  1  0  0  0  0
  6 11  1  0  0  0  0
  7  9  2  0  0  0  0
  7 12  1  0  0  0  0
  9 15  1  0  0  0  0
 10 14  1  0  0  0  0
 11 13  1  0  0  0  0
 12 17  2  0  0  0  0
 13 16  1  0  0  0  0
 14 19  1  0  0  0  0
 14 20  1  0  0  0  0
 15 18  2  0  0  0  0
 16 21  2  0  0  0  0
 17 18  1  0  0  0  0
 21 23  1  0  0  0  0
 22 24  1  0  0  0  0
 23 24  2  0  0  0  0
M  END
> <PUBCHEM_COMPOUND_ID_TYPE>
0

> <PUBCHEM_TOTAL_CHARGE>
0

> <PUBCHEM_SUBSTANCE_ID>
310934613

> <PUBCHEM_SUBSTANCE_VERSION>
1

> <PUBCHEM_EXT_DATASOURCE_NAME>
4488

> <PUBCHEM_EXT_DATASOURCE_REGID>
SCHEMBL16112108

> <PUBCHEM_SUBSTANCE_COMMENT>
InChI=1S/C19H20N2O3/c1-12(2)17(23)19(11-16(22)15-9-5-6-10-20-15)13-7-3-4-8-14(13)21-18(19)24/h3-10,12,17,23H,11H2,1-2H3,(H,21,24)
InChIKey=DAXHLONQEHRHBR-UHFFFAOYSA-N

> <PUBCHEM_SUBSTANCE_SYNONYM>
SCHEMBL16112108

> <PUBCHEM_XREF_EXT_ID>
SCHEMBL16112108

> <PUBCHEM_EXT_DATASOURCE_URL>
https://www.surechembl.org/

> <PUBCHEM_EXT_SUBSTANCE_URL>
https://www.surechembl.org/chemical/SCHEMBL16112108

> <PUBCHEM_CID_ASSOCIATIONS>
117602788  1

> <PUBCHEM_COORDINATE_TYPE>
1
3

$$$$
