310931234
  -OEChem-07211613022D

 31 35  0     1  0  0  0  0  0999 V2000
   -2.0926   -0.2184    0.0000 O   0  0  0  0  0  0  0  0  0  0  0  0
   -3.3220    0.6108    0.0000 N   0  0  0  0  0  0  0  0  0  0  0  0
   -2.7369    1.8106    0.0000 N   0  0  0  0  0  0  0  0  0  0  0  0
   -4.1797    1.8358    0.0000 N   0  0  0  0  0  0  0  0  0  0  0  0
   -2.1434    1.2375    0.0000 C   0  0  3  0  0  0  0  0  0  0  0  0
   -2.5051    0.4960    0.0000 C   0  0  0  0  0  0  0  0  0  0  0  0
   -1.4290    0.8250    0.0000 C   0  0  0  0  0  0  0  0  0  0  0  0
   -1.6131    1.8695    0.0000 C   0  0  0  0  0  0  0  0  0  0  0  0
   -3.4653    1.4233    0.0000 C   0  0  0  0  0  0  0  0  0  0  0  0
   -3.8951    0.0174    0.0000 C   0  0  0  0  0  0  0  0  0  0  0  0
   -0.7145    1.2375    0.0000 C   0  0  0  0  0  0  0  0  0  0  0  0
   -1.4290    0.0000    0.0000 C   0  0  0  0  0  0  0  0  0  0  0  0
   -0.8007    1.7263    0.0000 C   0  0  0  0  0  0  0  0  0  0  0  0
   -1.8953    2.6447    0.0000 C   0  0  0  0  0  0  0  0  0  0  0  0
    0.0000    0.8250    0.0000 C   0  0  0  0  0  0  0  0  0  0  0  0
   -3.6677   -0.7757    0.0000 C   0  0  0  0  0  0  0  0  0  0  0  0
   -4.6956    0.2169    0.0000 C   0  0  0  0  0  0  0  0  0  0  0  0
   -0.7145   -0.4125    0.0000 C   0  0  0  0  0  0  0  0  0  0  0  0
    0.0000    0.0000    0.0000 C   0  0  0  0  0  0  0  0  0  0  0  0
    0.7145    1.2375    0.0000 C   0  0  0  0  0  0  0  0  0  0  0  0
   -0.2704    2.3582    0.0000 C   0  0  0  0  0  0  0  0  0  0  0  0
   -1.3650    3.2767    0.0000 C   0  0  0  0  0  0  0  0  0  0  0  0
   -0.5525    3.1335    0.0000 C   0  0  0  0  0  0  0  0  0  0  0  0
   -4.2409   -1.3691    0.0000 C   0  0  0  0  0  0  0  0  0  0  0  0
   -5.2687   -0.3765    0.0000 C   0  0  0  0  0  0  0  0  0  0  0  0
    1.4290    0.8250    0.0000 C   0  0  0  0  0  0  0  0  0  0  0  0
    0.7145    2.0625    0.0000 C   0  0  0  0  0  0  0  0  0  0  0  0
   -5.0413   -1.1696    0.0000 C   0  0  0  0  0  0  0  0  0  0  0  0
    2.1434    1.2375    0.0000 C   0  0  0  0  0  0  0  0  0  0  0  0
    1.4290    2.4750    0.0000 C   0  0  0  0  0  0  0  0  0  0  0  0
    2.1434    2.0625    0.0000 C   0  0  0  0  0  0  0  0  0  0  0  0
  1  6  2  0  0  0  0
  2  6  1  0  0  0  0
  2  9  1  0  0  0  0
  2 10  1  0  0  0  0
  3  5  1  0  0  0  0
  3  9  1  0  0  0  0
  4  9  2  3  0  0  0
  5  6  1  0  0  0  0
  5  7  1  0  0  0  0
  5  8  1  0  0  0  0
  7 11  1  0  0  0  0
  7 12  2  0  0  0  0
  8 13  2  0  0  0  0
  8 14  1  0  0  0  0
 10 16  1  0  0  0  0
 10 17  1  0  0  0  0
 11 15  2  0  0  0  0
 12 18  1  0  0  0  0
 13 21  1  0  0  0  0
 14 22  2  0  0  0  0
 15 19  1  0  0  0  0
 15 20  1  0  0  0  0
 16 24  1  0  0  0  0
 17 25  1  0  0  0  0
 18 19  2  0  0  0  0
 20 26  2  0  0  0  0
 20 27  1  0  0  0  0
 21 23  2  0  0  0  0
 22 23  1  0  0  0  0
 24 28  1  0  0  0  0
 25 28  1  0  0  0  0
 26 29  1  0  0  0  0
 27 30  2  0  0  0  0
 29 31  2  0  0  0  0
 30 31  1  0  0  0  0
M  END
> <PUBCHEM_COMPOUND_ID_TYPE>
0

> <PUBCHEM_TOTAL_CHARGE>
0

> <PUBCHEM_SUBSTANCE_ID>
310931234

> <PUBCHEM_SUBSTANCE_VERSION>
1

> <PUBCHEM_EXT_DATASOURCE_NAME>
4488

> <PUBCHEM_EXT_DATASOURCE_REGID>
SCHEMBL16108545

> <PUBCHEM_SUBSTANCE_COMMENT>
InChI=1S/C27H27N3O/c28-26-29-27(22-14-6-2-7-15-22,25(31)30(26)24-17-8-3-9-18-24)23-16-10-13-21(19-23)20-11-4-1-5-12-20/h1-2,4-7,10-16,19,24H,3,8-9,17-18H2,(H2,28,29)
InChIKey=RHABWWDRGMFEQE-UHFFFAOYSA-N

> <PUBCHEM_SUBSTANCE_SYNONYM>
SCHEMBL16108545

> <PUBCHEM_XREF_EXT_ID>
SCHEMBL16108545

> <PUBCHEM_EXT_DATASOURCE_URL>
https://www.surechembl.org/

> <PUBCHEM_EXT_SUBSTANCE_URL>
https://www.surechembl.org/chemical/SCHEMBL16108545

> <PUBCHEM_CID_ASSOCIATIONS>
86272881  1

> <PUBCHEM_COORDINATE_TYPE>
1
3

$$$$
