310938806
  -OEChem-07211613022D

 28 31  0     1  0  0  0  0  0999 V2000
    1.4391    2.2670    0.0000 O   0  0  0  0  0  0  0  0  0  0  0  0
   -0.4725    2.8239    0.0000 O   0  0  0  0  0  0  0  0  0  0  0  0
    3.4851    0.2898    0.0000 O   0  0  0  0  0  0  0  0  0  0  0  0
    1.4643   -1.7310    0.0000 O   0  0  0  0  0  0  0  0  0  0  0  0
    0.7246    1.0295    0.0000 N   0  0  0  0  0  0  0  0  0  0  0  0
   -1.8549    2.1094    0.0000 N   0  0  0  0  0  0  0  0  0  0  0  0
   -1.8549    0.7746    0.0000 N   0  0  0  0  0  0  0  0  0  0  0  0
   -0.4725    0.0601    0.0000 N   0  0  0  0  0  0  0  0  0  0  0  0
   -0.5450    1.4420    0.0000 C   0  0  0  0  0  0  0  0  0  0  0  0
   -0.0600    0.7746    0.0000 C   0  0  0  0  0  0  0  0  0  0  0  0
    0.7246    1.8545    0.0000 C   0  0  3  0  0  0  0  0  0  0  0  0
   -0.0600    2.1094    0.0000 C   0  0  0  0  0  0  0  0  0  0  0  0
   -1.3700    1.4420    0.0000 C   0  0  0  0  0  0  0  0  0  0  0  0
    1.3079    0.4461    0.0000 C   0  0  0  0  0  0  0  0  0  0  0  0
   -2.6395    1.8545    0.0000 C   0  0  0  0  0  0  0  0  0  0  0  0
   -2.6395    1.0295    0.0000 C   0  0  0  0  0  0  0  0  0  0  0  0
    1.0944   -0.3507    0.0000 C   0  0  0  0  0  0  0  0  0  0  0  0
    2.1048    0.6597    0.0000 C   0  0  0  0  0  0  0  0  0  0  0  0
    2.6882    0.0763    0.0000 C   0  0  0  0  0  0  0  0  0  0  0  0
    1.6778   -0.9341    0.0000 C   0  0  0  0  0  0  0  0  0  0  0  0
    2.4747   -0.7206    0.0000 C   0  0  0  0  0  0  0  0  0  0  0  0
   -3.3540    2.2670    0.0000 C   0  0  0  0  0  0  0  0  0  0  0  0
   -3.3540    0.6170    0.0000 C   0  0  0  0  0  0  0  0  0  0  0  0
   -4.0684    1.8545    0.0000 C   0  0  0  0  0  0  0  0  0  0  0  0
   -4.0684    1.0295    0.0000 C   0  0  0  0  0  0  0  0  0  0  0  0
    2.1535    1.8545    0.0000 C   0  0  0  0  0  0  0  0  0  0  0  0
    4.0684   -0.2935    0.0000 C   0  0  0  0  0  0  0  0  0  0  0  0
    2.0476   -2.3144    0.0000 C   0  0  0  0  0  0  0  0  0  0  0  0
  1 11  1  0  0  0  0
  1 26  1  0  0  0  0
  2 12  2  0  0  0  0
  3 19  1  0  0  0  0
  3 27  1  0  0  0  0
  4 20  1  0  0  0  0
  4 28  1  0  0  0  0
  5 10  1  0  0  0  0
  5 11  1  0  0  0  0
  5 14  1  0  0  0  0
  6 13  2  0  0  0  0
  6 15  1  0  0  0  0
  7 13  1  0  0  0  0
  7 16  1  0  0  0  0
  8 10  1  0  0  0  0
  9 10  2  0  0  0  0
  9 12  1  0  0  0  0
  9 13  1  0  0  0  0
 11 12  1  0  0  0  0
 14 17  2  0  0  0  0
 14 18  1  0  0  0  0
 15 16  1  0  0  0  0
 15 22  2  0  0  0  0
 16 23  2  0  0  0  0
 17 20  1  0  0  0  0
 18 19  2  0  0  0  0
 19 21  1  0  0  0  0
 20 21  2  0  0  0  0
 22 24  1  0  0  0  0
 23 25  1  0  0  0  0
 24 25  2  0  0  0  0
M  END
> <PUBCHEM_COMPOUND_ID_TYPE>
0

> <PUBCHEM_TOTAL_CHARGE>
0

> <PUBCHEM_SUBSTANCE_ID>
310938806

> <PUBCHEM_SUBSTANCE_VERSION>
1

> <PUBCHEM_EXT_DATASOURCE_NAME>
4488

> <PUBCHEM_EXT_DATASOURCE_REGID>
SCHEMBL16116723

> <PUBCHEM_SUBSTANCE_COMMENT>
InChI=1S/C20H20N4O4/c1-26-12-8-11(9-13(10-12)27-2)24-18(21)16(17(25)20(24)28-3)19-22-14-6-4-5-7-15(14)23-19/h4-10,20H,21H2,1-3H3,(H,22,23)
InChIKey=HXTXEHVAKISIEH-UHFFFAOYSA-N

> <PUBCHEM_SUBSTANCE_SYNONYM>
SCHEMBL16116723

> <PUBCHEM_XREF_EXT_ID>
SCHEMBL16116723

> <PUBCHEM_EXT_DATASOURCE_URL>
https://www.surechembl.org/

> <PUBCHEM_EXT_SUBSTANCE_URL>
https://www.surechembl.org/chemical/SCHEMBL16116723

> <PUBCHEM_CID_ASSOCIATIONS>
117606214  1

> <PUBCHEM_COORDINATE_TYPE>
1
3

$$$$
