310933492
  -OEChem-07211613022D

 29 32  0     1  0  0  0  0  0999 V2000
    2.2784   -0.0230    0.0000 O   0  0  0  0  0  0  0  0  0  0  0  0
    0.0000   -3.5212    0.0000 O   0  0  0  0  0  0  0  0  0  0  0  0
    3.9354   -1.4499    0.0000 O   0  0  0  0  0  0  0  0  0  0  0  0
    5.5464   -2.3934    0.0000 O   0  0  0  0  0  0  0  0  0  0  0  0
    4.2116   -1.7261    0.0000 N   0  0  0  0  0  0  0  0  0  0  0  0
    4.2116   -3.0608    0.0000 N   0  0  0  0  0  0  0  0  0  0  0  0
    1.4729   -1.4499    0.0000 N   0  0  0  0  0  0  0  0  0  0  0  0
    0.3912   -4.2346    0.0000 N   0  0  0  0  0  0  0  0  0  0  0  0
    2.6926   -0.7364    0.0000 C   0  0  3  0  0  0  0  0  0  0  0  0
    2.7156   -1.5650    0.0000 C   0  0  0  0  0  0  0  0  0  0  0  0
    3.4291   -1.9562    0.0000 C   0  0  0  0  0  0  0  0  0  0  0  0
    3.4291   -2.8307    0.0000 C   0  0  0  0  0  0  0  0  0  0  0  0
    2.0022   -2.8307    0.0000 C   0  0  0  0  0  0  0  0  0  0  0  0
    2.0022   -1.9562    0.0000 C   0  0  0  0  0  0  0  0  0  0  0  0
    1.8642   -0.7364    0.0000 C   0  0  0  0  0  0  0  0  0  0  0  0
    3.5212   -0.7364    0.0000 C   0  0  0  0  0  0  0  0  0  0  0  0
    1.3118   -3.2450    0.0000 C   0  0  0  0  0  0  0  0  0  0  0  0
    2.7156   -3.2219    0.0000 C   0  0  0  0  0  0  0  0  0  0  0  0
    4.7179   -2.3934    0.0000 C   0  0  0  0  0  0  0  0  0  0  0  0
    0.5523   -2.9227    0.0000 C   0  0  0  0  0  0  0  0  0  0  0  0
    1.2197   -4.0505    0.0000 C   0  0  0  0  0  0  0  0  0  0  0  0
    1.4499   -0.0230    0.0000 C   0  0  0  0  0  0  0  0  0  0  0  0
    3.9354   -0.0230    0.0000 C   0  0  0  0  0  0  0  0  0  0  0  0
    0.6444   -1.4959    0.0000 C   0  0  0  0  0  0  0  0  0  0  0  0
    0.6214   -0.0690    0.0000 C   0  0  0  0  0  0  0  0  0  0  0  0
    0.3682   -2.0943    0.0000 C   0  0  0  0  0  0  0  0  0  0  0  0
    1.8411   -4.6028    0.0000 C   0  0  0  0  0  0  0  0  0  0  0  0
    0.2301   -0.7825    0.0000 C   0  0  0  0  0  0  0  0  0  0  0  0
    4.7639    0.0000    0.0000 C   0  0  0  0  0  0  0  0  0  0  0  0
  1  9  1  0  0  0  0
  2  8  1  0  0  0  0
  2 20  1  0  0  0  0
  3 16  2  0  0  0  0
  4 19  2  0  0  0  0
  5 11  1  0  0  0  0
  5 19  1  0  0  0  0
  6 12  1  0  0  0  0
  6 19  1  0  0  0  0
  7 15  1  0  0  0  0
  7 24  2  0  0  0  0
  8 21  2  0  0  0  0
  9 10  1  0  0  0  0
  9 15  1  0  0  0  0
  9 16  1  0  0  0  0
 10 11  1  0  0  0  0
 10 14  2  0  0  0  0
 11 12  2  0  0  0  0
 12 18  1  0  0  0  0
 13 14  1  0  0  0  0
 13 17  1  0  0  0  0
 13 18  2  0  0  0  0
 15 22  2  0  0  0  0
 16 23  1  0  0  0  0
 17 20  2  0  0  0  0
 17 21  1  0  0  0  0
 20 26  1  0  0  0  0
 21 27  1  0  0  0  0
 22 25  1  0  0  0  0
 23 29  1  0  0  0  0
 24 28  1  0  0  0  0
 25 28  2  0  0  0  0
M  END
> <PUBCHEM_COMPOUND_ID_TYPE>
0

> <PUBCHEM_TOTAL_CHARGE>
0

> <PUBCHEM_SUBSTANCE_ID>
310933492

> <PUBCHEM_SUBSTANCE_VERSION>
1

> <PUBCHEM_EXT_DATASOURCE_NAME>
4488

> <PUBCHEM_EXT_DATASOURCE_REGID>
SCHEMBL16110912

> <PUBCHEM_SUBSTANCE_COMMENT>
InChI=1S/C21H20N4O4/c1-4-17(26)21(28,16-7-5-6-8-22-16)14-9-13(18-11(2)25-29-12(18)3)10-15-19(14)24-20(27)23-15/h5-10,28H,4H2,1-3H3,(H2,23,24,27)
InChIKey=LGACQOFKXRXSEM-UHFFFAOYSA-N

> <PUBCHEM_SUBSTANCE_SYNONYM>
SCHEMBL16110912

> <PUBCHEM_XREF_EXT_ID>
SCHEMBL16110912

> <PUBCHEM_EXT_DATASOURCE_URL>
https://www.surechembl.org/

> <PUBCHEM_EXT_SUBSTANCE_URL>
https://www.surechembl.org/chemical/SCHEMBL16110912

> <PUBCHEM_CID_ASSOCIATIONS>
117601886  1

> <PUBCHEM_COORDINATE_TYPE>
1
3

$$$$
