310935093
  -OEChem-07211613022D

 10  9  0     1  0  0  0  0  0999 V2000
    1.4371   -2.4689    0.0000 Br  0  0  0  0  0  0  0  0  0  0  0  0
    0.0000    0.0000    0.0000 O   0  0  0  0  0  0  0  0  0  0  0  0
    2.1372   -2.0451    0.0000 C   0  0  3  0  0  0  0  0  0  0  0  0
    2.1372   -1.2344    0.0000 C   0  0  0  0  0  0  0  0  0  0  0  0
    2.8558   -2.4505    0.0000 C   0  0  0  0  0  0  0  0  0  0  0  0
    1.4187   -0.8291    0.0000 C   0  0  0  0  0  0  0  0  0  0  0  0
    0.7186   -1.2344    0.0000 C   0  0  0  0  0  0  0  0  0  0  0  0
    2.8742   -3.2795    0.0000 C   0  0  0  0  0  0  0  0  0  0  0  0
    0.0000   -0.8291    0.0000 C   0  0  0  0  0  0  0  0  0  0  0  0
    3.5744   -3.6848    0.0000 C   0  0  0  0  0  0  0  0  0  0  0  0
  1  3  1  0  0  0  0
  2  9  2  0  0  0  0
  3  4  1  0  0  0  0
  3  5  1  0  0  0  0
  4  6  1  0  0  0  0
  5  8  1  0  0  0  0
  6  7  2  0  0  0  0
  7  9  1  0  0  0  0
  8 10  1  0  0  0  0
M  END
> <PUBCHEM_COMPOUND_ID_TYPE>
0

> <PUBCHEM_TOTAL_CHARGE>
0

> <PUBCHEM_SUBSTANCE_ID>
310935093

> <PUBCHEM_SUBSTANCE_VERSION>
1

> <PUBCHEM_EXT_DATASOURCE_NAME>
4488

> <PUBCHEM_EXT_DATASOURCE_REGID>
SCHEMBL16112619

> <PUBCHEM_SUBSTANCE_COMMENT>
InChI=1S/C8H13BrO/c1-2-5-8(9)6-3-4-7-10/h3-4,7-8H,2,5-6H2,1H3/b4-3+
InChIKey=GXUMGQBRKFOCJU-ONEGZZNKSA-N

> <PUBCHEM_SUBSTANCE_SYNONYM>
SCHEMBL16112619

> <PUBCHEM_XREF_EXT_ID>
SCHEMBL16112619

> <PUBCHEM_EXT_DATASOURCE_URL>
https://www.surechembl.org/

> <PUBCHEM_EXT_SUBSTANCE_URL>
https://www.surechembl.org/chemical/SCHEMBL16112619

> <PUBCHEM_CID_ASSOCIATIONS>
117603186  1

> <PUBCHEM_COORDINATE_TYPE>
1
3

$$$$
