310946007
  -OEChem-07211613022D

 29 31  0     1  0  0  0  0  0999 V2000
    3.9805   -1.6568    0.0000 O   0  0  0  0  0  0  0  0  0  0  0  0
    1.7255   -1.6568    0.0000 O   0  0  0  0  0  0  0  0  0  0  0  0
    1.0106   -1.2443    0.0000 O   0  0  0  0  0  0  0  0  0  0  0  0
   -1.1344    0.8044    0.0000 O   0  0  0  0  0  0  0  0  0  0  0  0
   -3.9805   -0.0206    0.0000 O   0  0  0  0  0  0  0  0  0  0  0  0
    1.7393   -0.0069    0.0000 N   0  0  0  0  0  0  0  0  0  0  0  0
   -0.4056   -0.4194    0.0000 N   0  0  0  0  0  0  0  0  0  0  0  0
   -2.5505   -0.0069    0.0000 N   0  0  0  0  0  0  0  0  0  0  0  0
    3.1830   -1.6293    0.0000 C   0  0  3  0  0  0  0  0  0  0  0  0
    2.4543   -1.2169    0.0000 C   0  0  0  0  0  0  0  0  0  0  0  0
    3.5680   -0.9418    0.0000 C   0  0  0  0  0  0  0  0  0  0  0  0
    2.4543   -0.3919    0.0000 C   0  0  3  0  0  0  0  0  0  0  0  0
    3.1693   -2.4680    0.0000 C   0  0  0  0  0  0  0  0  0  0  0  0
    3.1693    0.0206    0.0000 C   0  0  0  0  0  0  0  0  0  0  0  0
    1.0243   -0.3781    0.0000 C   0  0  0  0  0  0  0  0  0  0  0  0
    3.1830    0.8456    0.0000 C   0  0  0  0  0  0  0  0  0  0  0  0
    0.3094    0.0206    0.0000 C   0  0  3  0  0  0  0  0  0  0  0  0
   -1.1344   -0.0069    0.0000 C   0  0  0  0  0  0  0  0  0  0  0  0
   -1.8218   -0.3919    0.0000 C   0  0  0  0  0  0  0  0  0  0  0  0
    2.4680    1.2443    0.0000 C   0  0  0  0  0  0  0  0  0  0  0  0
    3.8842    1.2443    0.0000 C   0  0  0  0  0  0  0  0  0  0  0  0
   -1.8356   -1.2169    0.0000 C   0  0  0  0  0  0  0  0  0  0  0  0
   -3.2518   -0.4056    0.0000 C   0  0  0  0  0  0  0  0  0  0  0  0
    0.3231    0.8456    0.0000 C   0  0  0  0  0  0  0  0  0  0  0  0
   -2.5368   -1.6293    0.0000 C   0  0  0  0  0  0  0  0  0  0  0  0
   -3.2655   -1.2169    0.0000 C   0  0  0  0  0  0  0  0  0  0  0  0
    2.4680    2.0693    0.0000 C   0  0  0  0  0  0  0  0  0  0  0  0
    3.8842    2.0555    0.0000 C   0  0  0  0  0  0  0  0  0  0  0  0
    3.1555    2.4680    0.0000 C   0  0  0  0  0  0  0  0  0  0  0  0
  1  9  1  0  0  0  0
  1 11  1  0  0  0  0
  2 10  2  0  0  0  0
  3 15  2  0  0  0  0
  4 18  2  0  0  0  0
  5 23  2  0  0  0  0
  6 12  1  0  0  0  0
  6 15  1  0  0  0  0
  7 17  1  0  0  0  0
  7 18  1  0  0  0  0
  8 19  1  0  0  0  0
  8 23  1  0  0  0  0
  9 10  1  0  0  0  0
  9 11  1  0  0  0  0
  9 13  1  0  0  0  0
 10 12  1  0  0  0  0
 12 14  1  0  0  0  0
 14 16  1  0  0  0  0
 15 17  1  0  0  0  0
 16 20  2  0  0  0  0
 16 21  1  0  0  0  0
 17 24  1  0  0  0  0
 18 19  1  0  0  0  0
 19 22  2  0  0  0  0
 20 27  1  0  0  0  0
 21 28  2  0  0  0  0
 22 25  1  0  0  0  0
 23 26  1  0  0  0  0
 25 26  2  0  0  0  0
 27 29  2  0  0  0  0
 28 29  1  0  0  0  0
M  END
> <PUBCHEM_COMPOUND_ID_TYPE>
0

> <PUBCHEM_TOTAL_CHARGE>
0

> <PUBCHEM_SUBSTANCE_ID>
310946007

> <PUBCHEM_SUBSTANCE_VERSION>
1

> <PUBCHEM_EXT_DATASOURCE_NAME>
4488

> <PUBCHEM_EXT_DATASOURCE_REGID>
SCHEMBL16124113

> <PUBCHEM_SUBSTANCE_COMMENT>
InChI=1S/C21H23N3O5/c1-13(22-20(28)15-9-6-10-17(25)23-15)19(27)24-16(18(26)21(2)12-29-21)11-14-7-4-3-5-8-14/h3-10,13,16H,11-12H2,1-2H3,(H,22,28)(H,23,25)(H,24,27)
InChIKey=YNJMZRBUMATTLE-UHFFFAOYSA-N

> <PUBCHEM_SUBSTANCE_SYNONYM>
SCHEMBL16124113

> <PUBCHEM_XREF_EXT_ID>
SCHEMBL16124113

> <PUBCHEM_EXT_DATASOURCE_URL>
https://www.surechembl.org/

> <PUBCHEM_EXT_SUBSTANCE_URL>
https://www.surechembl.org/chemical/SCHEMBL16124113

> <PUBCHEM_CID_ASSOCIATIONS>
117611978  1

> <PUBCHEM_COORDINATE_TYPE>
1
3

$$$$
