310938666
  -OEChem-07211613022D

 30 32  0     1  0  0  0  0  0999 V2000
   -5.1457    4.5182    0.0000 Cl  0  0  0  0  0  0  0  0  0  0  0  0
   -0.1444    6.5807    0.0000 S   0  0  3  0  0  0  0  0  0  0  0  0
   -1.5733    4.1057    0.0000 O   0  0  0  0  0  0  0  0  0  0  0  0
   -0.8589    2.8682    0.0000 O   0  0  0  0  0  0  0  0  0  0  0  0
    0.5701    6.9932    0.0000 O   0  0  0  0  0  0  0  0  0  0  0  0
   -5.1457    2.0432    0.0000 O   0  0  0  0  0  0  0  0  0  0  0  0
   -0.8589    5.3432    0.0000 N   0  0  0  0  0  0  0  0  0  0  0  0
    0.5701    5.3432    0.0000 N   0  0  0  0  0  0  0  0  0  0  0  0
    0.5701    2.8682    0.0000 N   0  0  0  0  0  0  0  0  0  0  0  0
    1.9990    2.0432    0.0000 N   0  0  0  0  0  0  0  0  0  0  0  0
   -0.1444    4.1057    0.0000 C   0  0  0  0  0  0  0  0  0  0  0  0
   -0.8589    4.5182    0.0000 C   0  0  0  0  0  0  0  0  0  0  0  0
   -0.1444    5.7557    0.0000 C   0  0  0  0  0  0  0  0  0  0  0  0
   -0.1444    3.2807    0.0000 C   0  0  0  0  0  0  0  0  0  0  0  0
    0.5701    4.5182    0.0000 C   0  0  0  0  0  0  0  0  0  0  0  0
   -3.0023    4.1057    0.0000 C   0  0  0  0  0  0  0  0  0  0  0  0
   -2.2878    4.5182    0.0000 C   0  0  0  0  0  0  0  0  0  0  0  0
   -4.4312    4.1057    0.0000 C   0  0  0  0  0  0  0  0  0  0  0  0
   -4.4312    3.2807    0.0000 C   0  0  0  0  0  0  0  0  0  0  0  0
   -3.7168    4.5182    0.0000 C   0  0  0  0  0  0  0  0  0  0  0  0
   -3.0023    3.2807    0.0000 C   0  0  0  0  0  0  0  0  0  0  0  0
   -3.7168    2.8682    0.0000 C   0  0  0  0  0  0  0  0  0  0  0  0
    1.2845    3.2807    0.0000 C   0  0  0  0  0  0  0  0  0  0  0  0
    1.9990    2.8682    0.0000 C   0  0  0  0  0  0  0  0  0  0  0  0
   -0.8589    6.9932    0.0000 C   0  0  0  0  0  0  0  0  0  0  0  0
   -5.1457    2.8682    0.0000 C   0  0  0  0  0  0  0  0  0  0  0  0
    2.7135    3.2807    0.0000 C   0  0  0  0  0  0  0  0  0  0  0  0
    2.7135    1.6307    0.0000 C   0  0  0  0  0  0  0  0  0  0  0  0
    3.4280    2.8682    0.0000 C   0  0  0  0  0  0  0  0  0  0  0  0
    3.4280    2.0432    0.0000 C   0  0  0  0  0  0  0  0  0  0  0  0
  1 18  1  0  0  0  0
  2  5  2  0  0  0  0
  2 13  1  0  0  0  0
  2 25  1  0  0  0  0
  3 12  1  0  0  0  0
  3 17  1  0  0  0  0
  4 14  2  0  0  0  0
  6 26  1  0  0  0  0
  7 12  2  0  0  0  0
  7 13  1  0  0  0  0
  8 13  2  0  0  0  0
  8 15  1  0  0  0  0
  9 14  1  0  0  0  0
  9 23  1  0  0  0  0
 10 24  2  0  0  0  0
 10 28  1  0  0  0  0
 11 12  1  0  0  0  0
 11 14  1  0  0  0  0
 11 15  2  0  0  0  0
 16 17  1  0  0  0  0
 16 20  2  0  0  0  0
 16 21  1  0  0  0  0
 18 19  2  0  0  0  0
 18 20  1  0  0  0  0
 19 22  1  0  0  0  0
 19 26  1  0  0  0  0
 21 22  2  0  0  0  0
 23 24  1  0  0  0  0
 24 27  1  0  0  0  0
 27 29  2  0  0  0  0
 28 30  2  0  0  0  0
 29 30  1  0  0  0  0
M  END
> <PUBCHEM_COMPOUND_ID_TYPE>
0

> <PUBCHEM_TOTAL_CHARGE>
0

> <PUBCHEM_SUBSTANCE_ID>
310938666

> <PUBCHEM_SUBSTANCE_VERSION>
1

> <PUBCHEM_EXT_DATASOURCE_NAME>
4488

> <PUBCHEM_EXT_DATASOURCE_REGID>
SCHEMBL16116580

> <PUBCHEM_SUBSTANCE_COMMENT>
InChI=1S/C20H19ClN4O4S/c1-30(28)20-24-10-16(18(27)23-9-15-4-2-3-7-22-15)19(25-20)29-12-13-5-6-14(11-26)17(21)8-13/h2-8,10,26H,9,11-12H2,1H3,(H,23,27)
InChIKey=XAMNYNHWUJEACS-UHFFFAOYSA-N

> <PUBCHEM_SUBSTANCE_SYNONYM>
SCHEMBL16116580

> <PUBCHEM_XREF_EXT_ID>
SCHEMBL16116580

> <PUBCHEM_EXT_DATASOURCE_URL>
https://www.surechembl.org/

> <PUBCHEM_EXT_SUBSTANCE_URL>
https://www.surechembl.org/chemical/SCHEMBL16116580

> <PUBCHEM_CID_ASSOCIATIONS>
117606098  1

> <PUBCHEM_COORDINATE_TYPE>
1
3

$$$$
