310946634
  -OEChem-07211613022D

 22 21  0     1  0  0  0  0  0999 V2000
   -7.5905    1.9634    0.0000 O   0  0  0  0  0  0  0  0  0  0  0  0
  -10.4483    1.1385    0.0000 O   0  0  0  0  0  0  0  0  0  0  0  0
   -8.3049    3.2009    0.0000 O   0  0  0  0  0  0  0  0  0  0  0  0
  -11.1628    2.3760    0.0000 O   0  0  0  0  0  0  0  0  0  0  0  0
   -8.3049   -1.7489    0.0000 O   0  0  0  0  0  0  0  0  0  0  0  0
   -6.8760   -1.7489    0.0000 O   0  5  0  0  0  0  0  0  0  0  0  0
   -7.5905   -0.5115    0.0000 O   0  0  0  0  0  0  0  0  0  0  0  0
   -9.0195    1.1385    0.0000 N   0  0  0  0  0  0  0  0  0  0  0  0
   -7.5905   -1.3365    0.0000 N   0  3  0  0  0  0  0  0  0  0  0  0
   -9.0195    1.9634    0.0000 C   0  0  3  0  0  0  0  0  0  0  0  0
   -8.3049    2.3760    0.0000 C   0  0  0  0  0  0  0  0  0  0  0  0
   -9.7338    2.3760    0.0000 C   0  0  0  0  0  0  0  0  0  0  0  0
  -10.4483    1.9634    0.0000 C   0  0  0  0  0  0  0  0  0  0  0  0
   -9.7338    0.7260    0.0000 C   0  0  0  0  0  0  0  0  0  0  0  0
   -6.8760    2.3760    0.0000 C   0  0  0  0  0  0  0  0  0  0  0  0
   -9.7338   -0.0990    0.0000 C   0  0  0  0  0  0  0  0  0  0  0  0
   -9.0195   -0.5115    0.0000 C   0  0  0  0  0  0  0  0  0  0  0  0
   -6.1616    1.9634    0.0000 C   0  0  0  0  0  0  0  0  0  0  0  0
   -9.0195   -1.3365    0.0000 C   0  0  0  0  0  0  0  0  0  0  0  0
   -5.4471    2.3760    0.0000 C   0  0  0  0  0  0  0  0  0  0  0  0
   -4.7327    1.9634    0.0000 C   0  0  0  0  0  0  0  0  0  0  0  0
   -4.0182    2.3760    0.0000 C   0  0  0  0  0  0  0  0  0  0  0  0
  1 11  1  0  0  0  0
  1 15  1  0  0  0  0
  2 13  1  0  0  0  0
  2 14  1  0  0  0  0
  3 11  2  0  0  0  0
  4 13  2  0  0  0  0
  5  9  1  0  0  0  0
  5 19  1  0  0  0  0
  6  9  1  0  0  0  0
  7  9  2  0  0  0  0
  8 10  1  0  0  0  0
 10 11  1  0  0  0  0
 10 12  1  0  0  0  0
 12 13  1  0  0  0  0
 14 16  1  0  0  0  0
 15 18  1  0  0  0  0
 16 17  1  0  0  0  0
 17 19  1  0  0  0  0
 18 20  1  0  0  0  0
 20 21  1  0  0  0  0
 21 22  1  0  0  0  0
M  CHG  2   6  -1   9   1
M  END
> <PUBCHEM_COMPOUND_ID_TYPE>
0

> <PUBCHEM_TOTAL_CHARGE>
0

> <PUBCHEM_SUBSTANCE_ID>
310946634

> <PUBCHEM_SUBSTANCE_VERSION>
1

> <PUBCHEM_EXT_DATASOURCE_NAME>
4488

> <PUBCHEM_EXT_DATASOURCE_REGID>
SCHEMBL16124755

> <PUBCHEM_SUBSTANCE_COMMENT>
InChI=1S/C13H24N2O7/c1-2-3-4-8-21-13(17)11(14)10-12(16)20-7-5-6-9-22-15(18)19/h11H,2-10,14H2,1H3
InChIKey=XMFJGYQJALXKAU-UHFFFAOYSA-N

> <PUBCHEM_SUBSTANCE_SYNONYM>
SCHEMBL16124755

> <PUBCHEM_XREF_EXT_ID>
SCHEMBL16124755

> <PUBCHEM_EXT_DATASOURCE_URL>
https://www.surechembl.org/

> <PUBCHEM_EXT_SUBSTANCE_URL>
https://www.surechembl.org/chemical/SCHEMBL16124755

> <PUBCHEM_CID_ASSOCIATIONS>
117612534  1

> <PUBCHEM_COORDINATE_TYPE>
1
3

$$$$
