310938271
  -OEChem-07211613022D

 34 37  0     1  0  0  0  0  0999 V2000
   -0.5837    0.8085    0.0000 O   0  0  0  0  0  0  0  0  0  0  0  0
    4.0668    3.1729    0.0000 O   0  0  0  0  0  0  0  0  0  0  0  0
    8.6719    2.4978    0.0000 O   0  0  0  0  0  0  0  0  0  0  0  0
    9.7911   -0.2582    0.0000 O   0  0  0  0  0  0  0  0  0  0  0  0
   10.9472    0.5817    0.0000 O   0  0  0  0  0  0  0  0  0  0  0  0
    1.1387    0.8555    0.0000 N   0  0  0  0  0  0  0  0  0  0  0  0
   -0.5837    2.2374    0.0000 N   0  0  0  0  0  0  0  0  0  0  0  0
    5.4957    2.3479    0.0000 N   0  0  0  0  0  0  0  0  0  0  0  0
   -1.4856    3.7056    0.0000 N   0  0  0  0  0  0  0  0  0  0  0  0
   -2.6417    3.0381    0.0000 N   0  0  0  0  0  0  0  0  0  0  0  0
   -2.0987    4.2576    0.0000 N   0  0  0  0  0  0  0  0  0  0  0  0
   -2.8132    3.8451    0.0000 N   0  0  0  0  0  0  0  0  0  0  0  0
    9.6418    1.1629    0.0000 N   0  0  0  0  0  0  0  0  0  0  0  0
    1.9233    1.9354    0.0000 C   0  0  0  0  0  0  0  0  0  0  0  0
    1.9233    1.1104    0.0000 C   0  0  0  0  0  0  0  0  0  0  0  0
    0.6538    1.5229    0.0000 C   0  0  3  0  0  0  0  0  0  0  0  0
    1.1387    2.1904    0.0000 C   0  0  0  0  0  0  0  0  0  0  0  0
    3.3523    1.9354    0.0000 C   0  0  0  0  0  0  0  0  0  0  0  0
    2.6378    2.3479    0.0000 C   0  0  0  0  0  0  0  0  0  0  0  0
    2.6378    0.6979    0.0000 C   0  0  0  0  0  0  0  0  0  0  0  0
   -0.1712    1.5229    0.0000 C   0  0  0  0  0  0  0  0  0  0  0  0
    3.3523    1.1104    0.0000 C   0  0  0  0  0  0  0  0  0  0  0  0
    4.0668    2.3479    0.0000 C   0  0  0  0  0  0  0  0  0  0  0  0
    6.2102    1.9354    0.0000 C   0  0  3  0  0  0  0  0  0  0  0  0
    4.7812    1.9354    0.0000 C   0  0  0  0  0  0  0  0  0  0  0  0
    7.5159    1.6579    0.0000 C   0  0  3  0  0  0  0  0  0  0  0  0
    6.9638    2.2710    0.0000 C   0  0  0  0  0  0  0  0  0  0  0  0
   -1.4087    2.2374    0.0000 C   0  0  0  0  0  0  0  0  0  0  0  0
    6.2964    1.1150    0.0000 C   0  0  0  0  0  0  0  0  0  0  0  0
    8.3364    1.7441    0.0000 C   0  0  0  0  0  0  0  0  0  0  0  0
    7.1034    0.9434    0.0000 C   0  0  0  0  0  0  0  0  0  0  0  0
   -1.8212    2.9519    0.0000 C   0  0  0  0  0  0  0  0  0  0  0  0
    8.8213    1.0767    0.0000 C   0  0  0  0  0  0  0  0  0  0  0  0
   10.1267    0.4955    0.0000 C   0  0  0  0  0  0  0  0  0  0  0  0
  1 21  2  0  0  0  0
  2 23  2  0  0  0  0
  3 30  2  0  0  0  0
  4 34  2  0  0  0  0
  5 34  1  0  0  0  0
  6 15  1  0  0  0  0
  6 16  1  0  0  0  0
  7 21  1  0  0  0  0
  7 28  1  0  0  0  0
  8 24  1  0  0  0  0
  8 25  1  0  0  0  0
  9 11  2  0  0  0  0
  9 32  1  0  0  0  0
 10 12  1  0  0  0  0
 10 32  2  0  0  0  0
 11 12  1  0  0  0  0
 13 33  1  0  0  0  0
 13 34  1  0  0  0  0
 14 15  1  0  0  0  0
 14 17  1  0  0  0  0
 14 19  2  0  0  0  0
 15 20  2  0  0  0  0
 16 17  1  0  0  0  0
 16 21  1  0  0  0  0
 18 19  1  0  0  0  0
 18 22  2  0  0  0  0
 18 23  1  0  0  0  0
 20 22  1  0  0  0  0
 23 25  1  0  0  0  0
 24 27  1  0  0  0  0
 24 29  1  0  0  0  0
 26 27  1  0  0  0  0
 26 30  1  0  0  0  0
 26 31  1  0  0  0  0
 28 32  1  0  0  0  0
 29 31  1  0  0  0  0
 30 33  1  0  0  0  0
M  END
> <PUBCHEM_COMPOUND_ID_TYPE>
0

> <PUBCHEM_TOTAL_CHARGE>
0

> <PUBCHEM_SUBSTANCE_ID>
310938271

> <PUBCHEM_SUBSTANCE_VERSION>
1

> <PUBCHEM_EXT_DATASOURCE_NAME>
4488

> <PUBCHEM_EXT_DATASOURCE_REGID>
SCHEMBL16116140

> <PUBCHEM_SUBSTANCE_COMMENT>
InChI=1S/C21H26N8O5/c30-17(8-22-14-3-1-12(6-14)18(31)9-24-21(33)34)11-2-4-15-13(5-11)7-16(25-15)20(32)23-10-19-26-28-29-27-19/h2,4-5,12,14,16,22,24-25H,1,3,6-10H2,(H,23,32)(H,33,34)(H,26,27,28,29)
InChIKey=YGWVQNZJCCLWCH-UHFFFAOYSA-N

> <PUBCHEM_SUBSTANCE_SYNONYM>
SCHEMBL16116140

> <PUBCHEM_XREF_EXT_ID>
SCHEMBL16116140

> <PUBCHEM_EXT_DATASOURCE_URL>
https://www.surechembl.org/

> <PUBCHEM_EXT_SUBSTANCE_URL>
https://www.surechembl.org/chemical/SCHEMBL16116140

> <PUBCHEM_CID_ASSOCIATIONS>
117605781  1

> <PUBCHEM_COORDINATE_TYPE>
1
3

$$$$
