310932922
  -OEChem-07211613022D

 32 36  0     1  0  0  0  0  0999 V2000
    4.1887   -0.8427    0.0000 O   0  0  0  0  0  0  0  0  0  0  0  0
    0.4461   -0.6692    0.0000 O   0  0  0  0  0  0  0  0  0  0  0  0
    4.1391   -4.9322    0.0000 O   0  0  0  0  0  0  0  0  0  0  0  0
    4.0647   -3.4699    0.0000 N   0  0  0  0  0  0  0  0  0  0  0  0
    2.8998   -4.1143    0.0000 N   0  0  0  0  0  0  0  0  0  0  0  0
    4.8826   -0.4461    0.0000 N   0  0  0  0  0  0  0  0  0  0  0  0
    0.0000   -1.3632    0.0000 N   0  0  0  0  0  0  0  0  0  0  0  0
    3.4699   -2.0819    0.0000 C   0  0  0  0  0  0  0  0  0  0  0  0
    4.1887   -1.6606    0.0000 C   0  0  3  0  0  0  0  0  0  0  0  0
    3.4699   -2.8998    0.0000 C   0  0  0  0  0  0  0  0  0  0  0  0
    2.7263   -3.3212    0.0000 C   0  0  0  0  0  0  0  0  0  0  0  0
    2.0323   -2.0819    0.0000 C   0  0  0  0  0  0  0  0  0  0  0  0
    2.7759   -1.6606    0.0000 C   0  0  0  0  0  0  0  0  0  0  0  0
    4.8826   -1.2392    0.0000 C   0  0  0  0  0  0  0  0  0  0  0  0
    1.3384   -1.6606    0.0000 C   0  0  0  0  0  0  0  0  0  0  0  0
    2.0323   -2.8750    0.0000 C   0  0  0  0  0  0  0  0  0  0  0  0
    3.7177   -4.2135    0.0000 C   0  0  0  0  0  0  0  0  0  0  0  0
    4.8826   -2.0819    0.0000 C   0  0  0  0  0  0  0  0  0  0  0  0
    1.2392   -0.8427    0.0000 C   0  0  0  0  0  0  0  0  0  0  0  0
    0.5700   -1.9828    0.0000 C   0  0  0  0  0  0  0  0  0  0  0  0
    5.7749   -1.8341    0.0000 C   0  0  0  0  0  0  0  0  0  0  0  0
    5.6014   -1.6606    0.0000 C   0  0  0  0  0  0  0  0  0  0  0  0
    6.3201   -2.0819    0.0000 C   0  0  0  0  0  0  0  0  0  0  0  0
    5.6014    0.0000    0.0000 C   0  0  0  0  0  0  0  0  0  0  0  0
    6.3201   -1.2392    0.0000 C   0  0  0  0  0  0  0  0  0  0  0  0
    1.8589   -0.2974    0.0000 C   0  0  0  0  0  0  0  0  0  0  0  0
    0.3966   -2.8007    0.0000 C   0  0  0  0  0  0  0  0  0  0  0  0
    7.1133   -2.0819    0.0000 C   0  0  0  0  0  0  0  0  0  0  0  0
    6.7415   -2.8007    0.0000 C   0  0  0  0  0  0  0  0  0  0  0  0
    6.2954   -0.4461    0.0000 C   0  0  0  0  0  0  0  0  0  0  0  0
    4.9322   -4.9570    0.0000 C   0  0  0  0  0  0  0  0  0  0  0  0
    5.3783   -4.2382    0.0000 C   0  0  0  0  0  0  0  0  0  0  0  0
  1  9  1  0  0  0  0
  2  7  1  0  0  0  0
  2 19  1  0  0  0  0
  3 17  1  0  0  0  0
  3 31  1  0  0  0  0
  4 10  1  0  0  0  0
  4 17  2  0  0  0  0
  5 11  1  0  0  0  0
  5 17  1  0  0  0  0
  6 14  1  0  0  0  0
  6 24  2  0  0  0  0
  7 20  2  0  0  0  0
  8  9  1  0  0  0  0
  8 10  1  0  0  0  0
  8 13  2  0  0  0  0
  9 14  1  0  0  0  0
  9 18  1  0  0  0  0
 10 11  2  0  0  0  0
 11 16  1  0  0  0  0
 12 13  1  0  0  0  0
 12 15  1  0  0  0  0
 12 16  2  0  0  0  0
 14 21  2  0  0  0  0
 15 19  2  0  0  0  0
 15 20  1  0  0  0  0
 18 22  1  0  0  0  0
 19 26  1  0  0  0  0
 20 27  1  0  0  0  0
 21 25  1  0  0  0  0
 22 23  1  0  0  0  0
 23 28  1  0  0  0  0
 23 29  1  0  0  0  0
 24 30  1  0  0  0  0
 25 30  2  0  0  0  0
 28 29  1  0  0  0  0
 31 32  1  0  0  0  0
M  END
> <PUBCHEM_COMPOUND_ID_TYPE>
0

> <PUBCHEM_TOTAL_CHARGE>
0

> <PUBCHEM_SUBSTANCE_ID>
310932922

> <PUBCHEM_SUBSTANCE_VERSION>
1

> <PUBCHEM_EXT_DATASOURCE_NAME>
4488

> <PUBCHEM_EXT_DATASOURCE_REGID>
SCHEMBL16110316

> <PUBCHEM_SUBSTANCE_COMMENT>
InChI=1S/C25H28N4O3/c1-4-31-24-27-20-14-18(22-15(2)29-32-16(22)3)13-19(23(20)28-24)25(30,11-10-17-8-9-17)21-7-5-6-12-26-21/h5-7,12-14,17,30H,4,8-11H2,1-3H3,(H,27,28)
InChIKey=DKRFOFAEDKIUKZ-UHFFFAOYSA-N

> <PUBCHEM_SUBSTANCE_SYNONYM>
SCHEMBL16110316

> <PUBCHEM_XREF_EXT_ID>
SCHEMBL16110316

> <PUBCHEM_EXT_DATASOURCE_URL>
https://www.surechembl.org/

> <PUBCHEM_EXT_SUBSTANCE_URL>
https://www.surechembl.org/chemical/SCHEMBL16110316

> <PUBCHEM_CID_ASSOCIATIONS>
117601404  1

> <PUBCHEM_COORDINATE_TYPE>
1
3

$$$$
