310945623
  -OEChem-07211613022D

 28 31  0     1  0  0  0  0  0999 V2000
    2.8520   -3.3285    0.0000 Cl  0  0  0  0  0  0  0  0  0  0  0  0
    0.8037    2.4181    0.0000 Cl  0  0  0  0  0  0  0  0  0  0  0  0
   -0.6899    0.4125    0.0000 N   0  0  0  0  0  0  0  0  0  0  0  0
   -0.6899   -2.0910    0.0000 N   0  0  0  0  0  0  0  0  0  0  0  0
   -0.6899    2.9018    0.0000 N   0  0  3  0  0  0  0  0  0  0  0  0
   -0.7325   -0.4125    0.0000 C   0  0  0  0  0  0  0  0  0  0  0  0
   -1.4296   -0.8250    0.0000 C   0  0  0  0  0  0  0  0  0  0  0  0
   -1.4437   -1.6643    0.0000 C   0  0  0  0  0  0  0  0  0  0  0  0
   -0.0356   -1.6643    0.0000 C   0  0  0  0  0  0  0  0  0  0  0  0
   -0.0213   -0.8393    0.0000 C   0  0  0  0  0  0  0  0  0  0  0  0
    0.7041   -2.0768    0.0000 C   0  0  0  0  0  0  0  0  0  0  0  0
   -2.1692   -0.4268    0.0000 C   0  0  0  0  0  0  0  0  0  0  0  0
   -2.1550   -2.0626    0.0000 C   0  0  0  0  0  0  0  0  0  0  0  0
   -1.4296    0.8250    0.0000 C   0  0  0  0  0  0  0  0  0  0  0  0
   -0.0213    0.8250    0.0000 C   0  0  0  0  0  0  0  0  0  0  0  0
   -0.7325    2.0768    0.0000 C   0  0  0  0  0  0  0  0  0  0  0  0
   -1.4296    1.6643    0.0000 C   0  0  0  0  0  0  0  0  0  0  0  0
   -0.0213    1.6500    0.0000 C   0  0  0  0  0  0  0  0  0  0  0  0
   -2.8520   -0.8393    0.0000 C   0  0  0  0  0  0  0  0  0  0  0  0
    0.7041   -2.9160    0.0000 C   0  0  0  0  0  0  0  0  0  0  0  0
    1.4011   -1.6785    0.0000 C   0  0  0  0  0  0  0  0  0  0  0  0
   -2.8520   -1.6643    0.0000 C   0  0  0  0  0  0  0  0  0  0  0  0
    1.4153   -3.3143    0.0000 C   0  0  0  0  0  0  0  0  0  0  0  0
    2.1124   -2.0768    0.0000 C   0  0  0  0  0  0  0  0  0  0  0  0
    2.1124   -2.9018    0.0000 C   0  0  0  0  0  0  0  0  0  0  0  0
   -0.0213    3.3143    0.0000 C   0  0  0  0  0  0  0  0  0  0  0  0
   -1.4296    3.3285    0.0000 C   0  0  0  0  0  0  0  0  0  0  0  0
   -2.1550    2.9160    0.0000 C   0  0  0  0  0  0  0  0  0  0  0  0
  1 25  1  0  0  0  0
  2 26  1  0  0  0  0
  3  6  1  0  0  0  0
  3 14  1  0  0  0  0
  3 15  1  0  0  0  0
  4  8  1  0  0  0  0
  4  9  2  0  0  0  0
  5 16  1  0  0  0  0
  5 26  1  0  0  0  0
  5 27  1  0  0  0  0
  6  7  1  0  0  0  0
  6 10  2  0  0  0  0
  7  8  1  0  0  0  0
  7 12  2  0  0  0  0
  8 13  2  0  0  0  0
  9 10  1  0  0  0  0
  9 11  1  0  0  0  0
 11 20  2  0  0  0  0
 11 21  1  0  0  0  0
 12 19  1  0  0  0  0
 13 22  1  0  0  0  0
 14 17  1  0  0  0  0
 15 18  1  0  0  0  0
 16 17  1  0  0  0  0
 16 18  1  0  0  0  0
 19 22  2  0  0  0  0
 20 23  1  0  0  0  0
 21 24  2  0  0  0  0
 23 25  2  0  0  0  0
 24 25  1  0  0  0  0
 27 28  1  0  0  0  0
M  END
> <PUBCHEM_COMPOUND_ID_TYPE>
0

> <PUBCHEM_TOTAL_CHARGE>
0

> <PUBCHEM_SUBSTANCE_ID>
310945623

> <PUBCHEM_SUBSTANCE_VERSION>
1

> <PUBCHEM_EXT_DATASOURCE_NAME>
4488

> <PUBCHEM_EXT_DATASOURCE_REGID>
SCHEMBL16123722

> <PUBCHEM_SUBSTANCE_COMMENT>
InChI=1S/C23H25Cl2N3/c1-2-27(16-24)19-11-13-28(14-12-19)23-15-22(17-7-9-18(25)10-8-17)26-21-6-4-3-5-20(21)23/h3-10,15,19H,2,11-14,16H2,1H3
InChIKey=BGCACZMQHOMQGQ-UHFFFAOYSA-N

> <PUBCHEM_SUBSTANCE_SYNONYM>
SCHEMBL16123722

> <PUBCHEM_XREF_EXT_ID>
SCHEMBL16123722

> <PUBCHEM_EXT_DATASOURCE_URL>
https://www.surechembl.org/

> <PUBCHEM_EXT_SUBSTANCE_URL>
https://www.surechembl.org/chemical/SCHEMBL16123722

> <PUBCHEM_CID_ASSOCIATIONS>
117611638  1

> <PUBCHEM_COORDINATE_TYPE>
1
3

$$$$
