310945628
  -OEChem-07211613022D

 31 32  0     1  0  0  0  0  0999 V2000
    1.6762    0.5823    0.0000 N   0  0  0  0  0  0  0  0  0  0  0  0
   -1.8174    0.5117    0.0000 N   0  0  0  0  0  0  0  0  0  0  0  0
   -0.0883    1.6056    0.0000 N   0  0  0  0  0  0  0  0  0  0  0  0
   -2.4526   -0.1236    0.0000 C   0  0  0  0  0  0  0  0  0  0  0  0
    2.4526   -0.1059    0.0000 C   0  0  0  0  0  0  0  0  0  0  0  0
   -3.2290    0.0883    0.0000 C   0  0  0  0  0  0  0  0  0  0  0  0
    2.2408   -0.8822    0.0000 C   0  0  0  0  0  0  0  0  0  0  0  0
   -2.2408   -0.8822    0.0000 C   0  0  0  0  0  0  0  0  0  0  0  0
    3.1760    0.1236    0.0000 C   0  0  0  0  0  0  0  0  0  0  0  0
   -3.7936   -0.4940    0.0000 C   0  0  0  0  0  0  0  0  0  0  0  0
    2.8584   -1.4292    0.0000 C   0  0  0  0  0  0  0  0  0  0  0  0
   -2.7878   -1.4645    0.0000 C   0  0  0  0  0  0  0  0  0  0  0  0
    3.7759   -0.4059    0.0000 C   0  0  0  0  0  0  0  0  0  0  0  0
   -3.5642   -1.2351    0.0000 C   0  0  0  0  0  0  0  0  0  0  0  0
    3.5995   -1.1822    0.0000 C   0  0  0  0  0  0  0  0  0  0  0  0
    1.6762    1.6939    0.0000 C   0  0  3  0  0  0  0  0  0  0  0  0
   -1.8351    1.5528    0.0000 C   0  0  3  0  0  0  0  0  0  0  0  0
   -3.4583    0.8822    0.0000 C   0  0  0  0  0  0  0  0  0  0  0  0
    1.4645   -1.1116    0.0000 C   0  0  0  0  0  0  0  0  0  0  0  0
   -1.4115   -1.0586    0.0000 C   0  0  0  0  0  0  0  0  0  0  0  0
    3.4054    0.9352    0.0000 C   0  0  0  0  0  0  0  0  0  0  0  0
   -4.5875   -0.3176    0.0000 C   0  0  0  0  0  0  0  0  0  0  0  0
    2.6643   -2.2408    0.0000 C   0  0  0  0  0  0  0  0  0  0  0  0
   -2.5408   -2.2585    0.0000 C   0  0  0  0  0  0  0  0  0  0  0  0
    4.5875   -0.1588    0.0000 C   0  0  0  0  0  0  0  0  0  0  0  0
   -4.1288   -1.8704    0.0000 C   0  0  0  0  0  0  0  0  0  0  0  0
    4.2170   -1.7821    0.0000 C   0  0  0  0  0  0  0  0  0  0  0  0
    0.7234    2.1879    0.0000 C   0  0  0  0  0  0  0  0  0  0  0  0
   -0.9528    2.1703    0.0000 C   0  0  0  0  0  0  0  0  0  0  0  0
    2.6467    2.2585    0.0000 C   0  0  0  0  0  0  0  0  0  0  0  0
   -2.8231    2.0821    0.0000 C   0  0  0  0  0  0  0  0  0  0  0  0
  1  5  1  0  0  0  0
  1 16  1  0  0  0  0
  2  4  1  0  0  0  0
  2 17  1  0  0  0  0
  3 28  1  0  0  0  0
  3 29  1  0  0  0  0
  4  6  2  0  0  0  0
  4  8  1  0  0  0  0
  5  7  2  0  0  0  0
  5  9  1  0  0  0  0
  6 10  1  0  0  0  0
  6 18  1  0  0  0  0
  7 11  1  0  0  0  0
  7 19  1  0  0  0  0
  8 12  2  0  0  0  0
  8 20  1  0  0  0  0
  9 13  2  0  0  0  0
  9 21  1  0  0  0  0
 10 14  2  0  0  0  0
 10 22  1  0  0  0  0
 11 15  2  0  0  0  0
 11 23  1  0  0  0  0
 12 14  1  0  0  0  0
 12 24  1  0  0  0  0
 13 15  1  0  0  0  0
 13 25  1  0  0  0  0
 14 26  1  0  0  0  0
 15 27  1  0  0  0  0
 16 28  1  0  0  0  0
 16 30  1  0  0  0  0
 17 29  1  0  0  0  0
 17 31  1  0  0  0  0
M  END
> <PUBCHEM_COMPOUND_ID_TYPE>
0

> <PUBCHEM_TOTAL_CHARGE>
0

> <PUBCHEM_SUBSTANCE_ID>
310945628

> <PUBCHEM_SUBSTANCE_VERSION>
1

> <PUBCHEM_EXT_DATASOURCE_NAME>
4488

> <PUBCHEM_EXT_DATASOURCE_REGID>
SCHEMBL16123727

> <PUBCHEM_SUBSTANCE_COMMENT>
InChI=1S/C28H45N3/c1-15(30-27-23(9)19(5)17(3)20(6)24(27)10)13-29-14-16(2)31-28-25(11)21(7)18(4)22(8)26(28)12/h15-16,29-31H,13-14H2,1-12H3
InChIKey=YOTCDUMKFPFVMX-UHFFFAOYSA-N

> <PUBCHEM_SUBSTANCE_SYNONYM>
SCHEMBL16123727

> <PUBCHEM_XREF_EXT_ID>
SCHEMBL16123727

> <PUBCHEM_EXT_DATASOURCE_URL>
https://www.surechembl.org/

> <PUBCHEM_EXT_SUBSTANCE_URL>
https://www.surechembl.org/chemical/SCHEMBL16123727

> <PUBCHEM_CID_ASSOCIATIONS>
117611643  1

> <PUBCHEM_COORDINATE_TYPE>
1
3

$$$$
