310947190
  -OEChem-07211613022D

 34 34  0     1  0  0  0  0  0999 V2000
   -7.1447    4.2410    0.0000 O   0  0  0  0  0  0  0  0  0  0  0  0
   -7.8592    3.0035    0.0000 O   0  0  0  0  0  0  0  0  0  0  0  0
    5.4434    3.2246    0.0000 O   0  0  0  0  0  0  0  0  0  0  0  0
    6.1579    1.9871    0.0000 O   0  0  0  0  0  0  0  0  0  0  0  0
   -0.7954    2.7015    0.0000 C   0  0  3  0  0  0  0  0  0  0  0  0
   -1.6204    2.7015    0.0000 C   0  0  3  0  0  0  0  0  0  0  0  0
   -0.3829    1.9871    0.0000 C   0  0  3  0  0  0  0  0  0  0  0  0
   -2.0329    1.9871    0.0000 C   0  0  3  0  0  0  0  0  0  0  0  0
   -0.7954    1.2726    0.0000 C   0  0  0  0  0  0  0  0  0  0  0  0
   -1.6204    1.2726    0.0000 C   0  0  0  0  0  0  0  0  0  0  0  0
   -2.0329    3.4160    0.0000 C   0  0  0  0  0  0  0  0  0  0  0  0
   -0.3829    3.4160    0.0000 C   0  0  0  0  0  0  0  0  0  0  0  0
    0.4421    1.9871    0.0000 C   0  0  0  0  0  0  0  0  0  0  0  0
   -2.8579    1.9871    0.0000 C   0  0  0  0  0  0  0  0  0  0  0  0
   -2.8579    3.4160    0.0000 C   0  0  0  0  0  0  0  0  0  0  0  0
    0.4421    3.4160    0.0000 C   0  0  0  0  0  0  0  0  0  0  0  0
    1.1566    2.3996    0.0000 C   0  0  0  0  0  0  0  0  0  0  0  0
   -3.5724    1.5746    0.0000 C   0  0  0  0  0  0  0  0  0  0  0  0
   -3.5724    3.0035    0.0000 C   0  0  0  0  0  0  0  0  0  0  0  0
    0.8546    4.1305    0.0000 C   0  0  0  0  0  0  0  0  0  0  0  0
    1.8711    1.9871    0.0000 C   0  0  0  0  0  0  0  0  0  0  0  0
   -4.2868    1.9871    0.0000 C   0  0  0  0  0  0  0  0  0  0  0  0
   -4.2868    3.4160    0.0000 C   0  0  0  0  0  0  0  0  0  0  0  0
    2.5855    2.3996    0.0000 C   0  0  0  0  0  0  0  0  0  0  0  0
    1.6796    4.1305    0.0000 C   0  0  0  0  0  0  0  0  0  0  0  0
   -5.0013    3.0035    0.0000 C   0  0  0  0  0  0  0  0  0  0  0  0
    3.3000    1.9871    0.0000 C   0  0  0  0  0  0  0  0  0  0  0  0
    2.0921    3.4160    0.0000 C   0  0  0  0  0  0  0  0  0  0  0  0
   -5.7158    3.4160    0.0000 C   0  0  0  0  0  0  0  0  0  0  0  0
    4.0145    2.3996    0.0000 C   0  0  0  0  0  0  0  0  0  0  0  0
   -6.4302    3.0035    0.0000 C   0  0  0  0  0  0  0  0  0  0  0  0
    4.7289    1.9871    0.0000 C   0  0  0  0  0  0  0  0  0  0  0  0
   -7.1447    3.4160    0.0000 C   0  0  0  0  0  0  0  0  0  0  0  0
    5.4434    2.3996    0.0000 C   0  0  0  0  0  0  0  0  0  0  0  0
  1 33  2  0  0  0  0
  2 33  1  0  0  0  0
  3 34  2  0  0  0  0
  4 34  1  0  0  0  0
  5  6  1  0  0  0  0
  5  7  1  0  0  0  0
  5 12  1  0  0  0  0
  6  8  1  0  0  0  0
  6 11  1  0  0  0  0
  7  9  1  0  0  0  0
  7 13  1  0  0  0  0
  8 10  1  0  0  0  0
  8 14  1  0  0  0  0
  9 10  2  0  0  0  0
 11 15  1  0  0  0  0
 12 16  1  0  0  0  0
 13 17  1  0  0  0  0
 14 18  1  0  0  0  0
 15 19  1  0  0  0  0
 16 20  2  0  0  0  0
 17 21  1  0  0  0  0
 18 22  1  0  0  0  0
 19 23  1  0  0  0  0
 20 25  1  0  0  0  0
 21 24  1  0  0  0  0
 23 26  1  0  0  0  0
 24 27  1  0  0  0  0
 25 28  1  0  0  0  0
 26 29  1  0  0  0  0
 27 30  1  0  0  0  0
 29 31  1  0  0  0  0
 30 32  1  0  0  0  0
 31 33  1  0  0  0  0
 32 34  1  0  0  0  0
M  END
> <PUBCHEM_COMPOUND_ID_TYPE>
0

> <PUBCHEM_TOTAL_CHARGE>
0

> <PUBCHEM_SUBSTANCE_ID>
310947190

> <PUBCHEM_SUBSTANCE_VERSION>
1

> <PUBCHEM_EXT_DATASOURCE_NAME>
4488

> <PUBCHEM_EXT_DATASOURCE_REGID>
SCHEMBL16125344

> <PUBCHEM_SUBSTANCE_COMMENT>
InChI=1S/C30H52O4/c1-3-5-12-19-28-26(18-13-8-6-10-15-21-29(31)32)24-23-25(17-4-2)27(28)20-14-9-7-11-16-22-30(33)34/h5,12,23-28H,3-4,6-11,13-22H2,1-2H3,(H,31,32)(H,33,34)/b12-5+
InChIKey=SXYQIQXCWATMDP-LFYBBSHMSA-N

> <PUBCHEM_SUBSTANCE_SYNONYM>
SCHEMBL16125344

> <PUBCHEM_XREF_EXT_ID>
SCHEMBL16125344

> <PUBCHEM_EXT_DATASOURCE_URL>
https://www.surechembl.org/

> <PUBCHEM_EXT_SUBSTANCE_URL>
https://www.surechembl.org/chemical/SCHEMBL16125344

> <PUBCHEM_CID_ASSOCIATIONS>
117613013  1

> <PUBCHEM_COORDINATE_TYPE>
1
3

$$$$
