310931516
  -OEChem-07211613022D

 27 30  0     1  0  0  0  0  0999 V2000
    5.7722   -3.5555    0.0000 Br  0  0  0  0  0  0  0  0  0  0  0  0
    4.1261   -0.7023    0.0000 S   0  0  0  0  0  0  0  0  0  0  0  0
    0.8121   -3.5994    0.0000 F   0  0  0  0  0  0  0  0  0  0  0  0
    2.5020   -3.5994    0.0000 O   0  0  0  0  0  0  0  0  0  0  0  0
    0.8121   -0.7901    0.0000 O   0  0  0  0  0  0  0  0  0  0  0  0
    5.3552    0.0000    0.0000 O   0  0  0  0  0  0  0  0  0  0  0  0
    6.5842   -0.7243    0.0000 O   0  0  0  0  0  0  0  0  0  0  0  0
    4.1261   -2.1289    0.0000 N   0  0  0  0  0  0  0  0  0  0  0  0
    5.3552   -1.4266    0.0000 N   0  0  0  0  0  0  0  0  0  0  0  0
    3.3141   -2.1508    0.0000 C   0  0  3  0  0  0  0  0  0  0  0  0
    2.4581   -2.1728    0.0000 C   0  0  0  0  0  0  0  0  0  0  0  0
    3.7311   -2.8751    0.0000 C   0  0  0  0  0  0  0  0  0  0  0  0
    2.0630   -2.8751    0.0000 C   0  0  0  0  0  0  0  0  0  0  0  0
    3.3360   -3.5775    0.0000 C   0  0  0  0  0  0  0  0  0  0  0  0
    2.8971   -1.4266    0.0000 C   0  0  0  0  0  0  0  0  0  0  0  0
    2.0411   -1.4485    0.0000 C   0  0  0  0  0  0  0  0  0  0  0  0
    1.2291   -2.8971    0.0000 C   0  0  0  0  0  0  0  0  0  0  0  0
    4.5651   -2.8751    0.0000 C   0  0  0  0  0  0  0  0  0  0  0  0
    4.5212   -1.4266    0.0000 C   0  0  0  0  0  0  0  0  0  0  0  0
    1.2510   -1.4705    0.0000 C   0  0  0  0  0  0  0  0  0  0  0  0
    3.7530   -4.3017    0.0000 C   0  0  0  0  0  0  0  0  0  0  0  0
    0.8559   -2.1948    0.0000 C   0  0  0  0  0  0  0  0  0  0  0  0
    3.2921   -0.7243    0.0000 C   0  0  0  0  0  0  0  0  0  0  0  0
    4.9382   -3.5555    0.0000 C   0  0  0  0  0  0  0  0  0  0  0  0
    4.5432   -4.2798    0.0000 C   0  0  0  0  0  0  0  0  0  0  0  0
    5.7503   -0.7243    0.0000 C   0  0  0  0  0  0  0  0  0  0  0  0
    0.0000   -0.8121    0.0000 C   0  0  0  0  0  0  0  0  0  0  0  0
  1 24  1  0  0  0  0
  2 19  1  0  0  0  0
  2 23  1  0  0  0  0
  3 17  1  0  0  0  0
  4 13  1  0  0  0  0
  4 14  1  0  0  0  0
  5 20  1  0  0  0  0
  5 27  1  0  0  0  0
  6 26  2  0  0  0  0
  7 26  1  0  0  0  0
  8 10  1  0  0  0  0
  8 19  2  0  0  0  0
  9 19  1  0  0  0  0
  9 26  1  0  0  0  0
 10 11  1  0  0  0  0
 10 12  1  0  0  0  0
 10 15  1  0  0  0  0
 11 13  2  0  0  0  0
 11 16  1  0  0  0  0
 12 14  2  0  0  0  0
 12 18  1  0  0  0  0
 13 17  1  0  0  0  0
 14 21  1  0  0  0  0
 15 23  1  0  0  0  0
 16 20  2  0  0  0  0
 17 22  2  0  0  0  0
 18 24  2  0  0  0  0
 20 22  1  0  0  0  0
 21 25  2  0  0  0  0
 24 25  1  0  0  0  0
M  END
> <PUBCHEM_COMPOUND_ID_TYPE>
0

> <PUBCHEM_TOTAL_CHARGE>
0

> <PUBCHEM_SUBSTANCE_ID>
310931516

> <PUBCHEM_SUBSTANCE_VERSION>
1

> <PUBCHEM_EXT_DATASOURCE_NAME>
4488

> <PUBCHEM_EXT_DATASOURCE_REGID>
SCHEMBL16108842

> <PUBCHEM_SUBSTANCE_COMMENT>
InChI=1S/C18H14BrFN2O4S/c1-25-10-7-12-15(13(20)8-10)26-14-3-2-9(19)6-11(14)18(12)4-5-27-16(22-18)21-17(23)24/h2-3,6-8H,4-5H2,1H3,(H,21,22)(H,23,24)
InChIKey=IKTBACWUKXJQEZ-UHFFFAOYSA-N

> <PUBCHEM_SUBSTANCE_SYNONYM>
SCHEMBL16108842

> <PUBCHEM_XREF_EXT_ID>
SCHEMBL16108842

> <PUBCHEM_EXT_DATASOURCE_URL>
https://www.surechembl.org/

> <PUBCHEM_EXT_SUBSTANCE_URL>
https://www.surechembl.org/chemical/SCHEMBL16108842

> <PUBCHEM_CID_ASSOCIATIONS>
117600272  1

> <PUBCHEM_COORDINATE_TYPE>
1
3

$$$$
