310942303
  -OEChem-07211613022D

 11 12  0     1  0  0  0  0  0999 V2000
    1.2025   -0.1116    0.0000 O   0  0  0  0  0  0  0  0  0  0  0  0
    1.2149    0.7190    0.0000 N   0  0  0  0  0  0  0  0  0  0  0  0
    0.0372    1.6860    0.0000 N   0  0  0  0  0  0  0  0  0  0  0  0
   -0.0620    0.3099    0.0000 C   0  0  3  0  0  0  0  0  0  0  0  0
    0.4339   -0.3595    0.0000 C   0  0  3  0  0  0  0  0  0  0  0  0
    0.4215    0.9794    0.0000 C   0  0  0  0  0  0  0  0  0  0  0  0
    0.0867   -1.1157    0.0000 C   0  0  3  0  0  0  0  0  0  0  0  0
   -0.8802    0.2107    0.0000 C   0  0  0  0  0  0  0  0  0  0  0  0
   -0.7314   -1.2025    0.0000 C   0  0  0  0  0  0  0  0  0  0  0  0
   -1.2149   -0.5455    0.0000 C   0  0  0  0  0  0  0  0  0  0  0  0
    0.6818   -1.6860    0.0000 C   0  0  0  0  0  0  0  0  0  0  0  0
  1  2  1  0  0  0  0
  1  5  1  0  0  0  0
  2  6  2  0  0  0  0
  3  6  1  0  0  0  0
  4  5  1  0  0  0  0
  4  6  1  0  0  0  0
  4  8  1  0  0  0  0
  5  7  1  0  0  0  0
  7  9  1  0  0  0  0
  7 11  1  0  0  0  0
  8 10  1  0  0  0  0
  9 10  1  0  0  0  0
M  END
> <PUBCHEM_COMPOUND_ID_TYPE>
0

> <PUBCHEM_TOTAL_CHARGE>
0

> <PUBCHEM_SUBSTANCE_ID>
310942303

> <PUBCHEM_SUBSTANCE_VERSION>
1

> <PUBCHEM_EXT_DATASOURCE_NAME>
4488

> <PUBCHEM_EXT_DATASOURCE_REGID>
SCHEMBL16120339

> <PUBCHEM_SUBSTANCE_COMMENT>
InChI=1S/C8H14N2O/c1-5-3-2-4-6-7(5)11-10-8(6)9/h5-7H,2-4H2,1H3,(H2,9,10)
InChIKey=AJKHGDWCCIZVJJ-UHFFFAOYSA-N

> <PUBCHEM_SUBSTANCE_SYNONYM>
SCHEMBL16120339

> <PUBCHEM_XREF_EXT_ID>
SCHEMBL16120339

> <PUBCHEM_EXT_DATASOURCE_URL>
https://www.surechembl.org/

> <PUBCHEM_EXT_SUBSTANCE_URL>
https://www.surechembl.org/chemical/SCHEMBL16120339

> <PUBCHEM_CID_ASSOCIATIONS>
117608950  1

> <PUBCHEM_COORDINATE_TYPE>
1
3

$$$$
