310936842
  -OEChem-07211613022D

 21 22  0     1  0  0  0  0  0999 V2000
    3.7071   -2.2356    0.0000 Br  0  0  0  0  0  0  0  0  0  0  0  0
    1.2451    0.0000    0.0000 F   0  0  0  0  0  0  0  0  0  0  0  0
    0.5377   -1.2168    0.0000 F   0  0  0  0  0  0  0  0  0  0  0  0
    1.9526   -0.4245    0.0000 F   0  0  0  0  0  0  0  0  0  0  0  0
    2.1224   -5.6596    0.0000 O   0  0  0  0  0  0  0  0  0  0  0  0
    1.0753   -3.8203    0.0000 O   0  0  0  0  0  0  0  0  0  0  0  0
    2.8581   -3.6505    0.0000 N   0  0  3  0  0  0  0  0  0  0  0  0
    1.6413   -2.9430    0.0000 N   0  0  0  0  0  0  0  0  0  0  0  0
    2.4336   -2.9430    0.0000 C   0  0  0  0  0  0  0  0  0  0  0  0
    2.4336   -4.3579    0.0000 C   0  0  3  0  0  0  0  0  0  0  0  0
    1.6413   -1.5281    0.0000 C   0  0  0  0  0  0  0  0  0  0  0  0
    2.8864   -2.2356    0.0000 C   0  0  0  0  0  0  0  0  0  0  0  0
    1.2451   -0.8206    0.0000 C   0  0  0  0  0  0  0  0  0  0  0  0
    1.6130   -4.4428    0.0000 C   0  0  3  0  0  0  0  0  0  0  0  0
    2.4336   -1.5281    0.0000 C   0  0  0  0  0  0  0  0  0  0  0  0
    1.2168   -2.2356    0.0000 C   0  0  0  0  0  0  0  0  0  0  0  0
    2.7449   -5.1220    0.0000 C   0  0  0  0  0  0  0  0  0  0  0  0
    1.4149   -5.2352    0.0000 C   0  0  0  0  0  0  0  0  0  0  0  0
    3.6788   -3.6788    0.0000 C   0  0  0  0  0  0  0  0  0  0  0  0
    0.2547   -3.9901    0.0000 C   0  0  0  0  0  0  0  0  0  0  0  0
    0.0000   -4.7541    0.0000 C   0  0  0  0  0  0  0  0  0  0  0  0
  1 12  1  0  0  0  0
  2 13  1  0  0  0  0
  3 13  1  0  0  0  0
  4 13  1  0  0  0  0
  5 17  1  0  0  0  0
  5 18  1  0  0  0  0
  6 14  1  0  0  0  0
  6 20  1  0  0  0  0
  7  9  1  0  0  0  0
  7 10  1  0  0  0  0
  7 19  1  0  0  0  0
  8  9  1  0  0  0  0
  8 16  2  0  0  0  0
  9 12  2  0  0  0  0
 10 14  1  0  0  0  0
 10 17  1  0  0  0  0
 11 13  1  0  0  0  0
 11 15  2  0  0  0  0
 11 16  1  0  0  0  0
 12 15  1  0  0  0  0
 14 18  1  0  0  0  0
 20 21  1  0  0  0  0
M  END
> <PUBCHEM_COMPOUND_ID_TYPE>
0

> <PUBCHEM_TOTAL_CHARGE>
0

> <PUBCHEM_SUBSTANCE_ID>
310936842

> <PUBCHEM_SUBSTANCE_VERSION>
1

> <PUBCHEM_EXT_DATASOURCE_NAME>
4488

> <PUBCHEM_EXT_DATASOURCE_REGID>
SCHEMBL16114534

> <PUBCHEM_SUBSTANCE_COMMENT>
InChI=1S/C13H16BrF3N2O2/c1-3-21-11-7-20-6-10(11)19(2)12-9(14)4-8(5-18-12)13(15,16)17/h4-5,10-11H,3,6-7H2,1-2H3
InChIKey=NCOQWTLCNMMRTA-UHFFFAOYSA-N

> <PUBCHEM_SUBSTANCE_SYNONYM>
SCHEMBL16114534

> <PUBCHEM_XREF_EXT_ID>
SCHEMBL16114534

> <PUBCHEM_EXT_DATASOURCE_URL>
https://www.surechembl.org/

> <PUBCHEM_EXT_SUBSTANCE_URL>
https://www.surechembl.org/chemical/SCHEMBL16114534

> <PUBCHEM_CID_ASSOCIATIONS>
117604735  1

> <PUBCHEM_COORDINATE_TYPE>
1
3

$$$$
