310945861
  -OEChem-07211613022D

 12 13  0     1  0  0  0  0  0999 V2000
   -0.8720   -0.3738    0.0000 N   0  0  3  0  0  0  0  0  0  0  0  0
    1.2171    0.1629    0.0000 N   0  0  0  0  0  0  0  0  0  0  0  0
   -0.0671   -0.5462    0.0000 C   0  0  3  0  0  0  0  0  0  0  0  0
    0.3546    0.1821    0.0000 C   0  0  3  0  0  0  0  0  0  0  0  0
   -0.9487    0.4696    0.0000 C   0  0  0  0  0  0  0  0  0  0  0  0
   -0.2204    0.8146    0.0000 C   0  0  0  0  0  0  0  0  0  0  0  0
    0.3738   -1.2745    0.0000 C   0  0  0  0  0  0  0  0  0  0  0  0
   -1.6196    0.7762    0.0000 C   0  0  0  0  0  0  0  0  0  0  0  0
    1.1979   -1.2937    0.0000 C   0  0  0  0  0  0  0  0  0  0  0  0
    1.6196   -0.5846    0.0000 C   0  0  0  0  0  0  0  0  0  0  0  0
   -1.5045   -0.9679    0.0000 C   0  0  0  0  0  0  0  0  0  0  0  0
   -1.5620    1.2937    0.0000 C   0  0  0  0  0  0  0  0  0  0  0  0
  1  3  1  0  0  0  0
  1  5  1  0  0  0  0
  1 11  1  0  0  0  0
  2  4  1  0  0  0  0
  2 10  2  0  0  0  0
  3  4  1  0  0  0  0
  3  7  1  0  0  0  0
  4  6  1  0  0  0  0
  5  6  2  0  0  0  0
  5  8  1  0  0  0  0
  7  9  2  0  0  0  0
  8 12  1  0  0  0  0
  9 10  1  0  0  0  0
M  END
> <PUBCHEM_COMPOUND_ID_TYPE>
0

> <PUBCHEM_TOTAL_CHARGE>
0

> <PUBCHEM_SUBSTANCE_ID>
310945861

> <PUBCHEM_SUBSTANCE_VERSION>
1

> <PUBCHEM_EXT_DATASOURCE_NAME>
4488

> <PUBCHEM_EXT_DATASOURCE_REGID>
SCHEMBL16123966

> <PUBCHEM_SUBSTANCE_COMMENT>
InChI=1S/C10H14N2/c1-3-8-7-9-10(12(8)2)5-4-6-11-9/h4-7,9-10H,3H2,1-2H3
InChIKey=GLPHOTCCBGYEAL-UHFFFAOYSA-N

> <PUBCHEM_SUBSTANCE_SYNONYM>
SCHEMBL16123966

> <PUBCHEM_XREF_EXT_ID>
SCHEMBL16123966

> <PUBCHEM_EXT_DATASOURCE_URL>
https://www.surechembl.org/

> <PUBCHEM_EXT_SUBSTANCE_URL>
https://www.surechembl.org/chemical/SCHEMBL16123966

> <PUBCHEM_CID_ASSOCIATIONS>
117611845  1

> <PUBCHEM_COORDINATE_TYPE>
1
3

$$$$
