310930267
  -OEChem-07211613022D

 24 27  0     1  0  0  0  0  0999 V2000
    0.0000   -4.9500    0.0000 O   0  0  0  0  0  0  0  0  0  0  0  0
    1.4520   -4.9500    0.0000 N   0  0  0  0  0  0  0  0  0  0  0  0
    2.8380   -2.4750    0.0000 N   0  0  3  0  0  0  0  0  0  0  0  0
    2.1780   -5.3460    0.0000 C   0  0  0  0  0  0  0  0  0  0  0  0
    2.8710   -4.9500    0.0000 C   0  0  0  0  0  0  0  0  0  0  0  0
    2.1780   -6.1710    0.0000 C   0  0  0  0  0  0  0  0  0  0  0  0
    2.8710   -4.1250    0.0000 C   0  0  0  0  0  0  0  0  0  0  0  0
    3.5970   -5.3460    0.0000 C   0  0  0  0  0  0  0  0  0  0  0  0
    2.8710   -6.6000    0.0000 C   0  0  0  0  0  0  0  0  0  0  0  0
    1.4520   -6.6000    0.0000 C   0  0  0  0  0  0  0  0  0  0  0  0
    0.7260   -5.3460    0.0000 C   0  0  0  0  0  0  0  0  0  0  0  0
    3.5640   -3.6960    0.0000 C   0  0  0  0  0  0  0  0  0  0  0  0
    2.1120   -3.7290    0.0000 C   0  0  0  0  0  0  0  0  0  0  0  0
    3.5970   -6.1710    0.0000 C   0  0  0  0  0  0  0  0  0  0  0  0
    0.7260   -6.1710    0.0000 C   0  0  0  0  0  0  0  0  0  0  0  0
    3.5970   -2.8710    0.0000 C   0  0  0  0  0  0  0  0  0  0  0  0
    2.1450   -2.8710    0.0000 C   0  0  0  0  0  0  0  0  0  0  0  0
    2.8380   -1.6500    0.0000 C   0  0  0  0  0  0  0  0  0  0  0  0
    2.1120   -1.2210    0.0000 C   0  0  0  0  0  0  0  0  0  0  0  0
    2.1120   -0.3960    0.0000 C   0  0  0  0  0  0  0  0  0  0  0  0
    1.3860   -1.6500    0.0000 C   0  0  0  0  0  0  0  0  0  0  0  0
    1.3860    0.0000    0.0000 C   0  0  0  0  0  0  0  0  0  0  0  0
    0.6930   -1.2540    0.0000 C   0  0  0  0  0  0  0  0  0  0  0  0
    0.6930   -0.4290    0.0000 C   0  0  0  0  0  0  0  0  0  0  0  0
  1 11  2  0  0  0  0
  2  4  1  0  0  0  0
  2 11  1  0  0  0  0
  3 16  1  0  0  0  0
  3 17  1  0  0  0  0
  3 18  1  0  0  0  0
  4  5  1  0  0  0  0
  4  6  2  0  0  0  0
  5  7  1  0  0  0  0
  5  8  2  0  0  0  0
  6  9  1  0  0  0  0
  6 10  1  0  0  0  0
  7 12  2  0  0  0  0
  7 13  1  0  0  0  0
  8 14  1  0  0  0  0
  9 14  2  0  0  0  0
 10 15  2  0  0  0  0
 11 15  1  0  0  0  0
 12 16  1  0  0  0  0
 13 17  1  0  0  0  0
 18 19  1  0  0  0  0
 19 20  2  0  0  0  0
 19 21  1  0  0  0  0
 20 22  1  0  0  0  0
 21 23  2  0  0  0  0
 22 24  2  0  0  0  0
 23 24  1  0  0  0  0
M  END
> <PUBCHEM_COMPOUND_ID_TYPE>
0

> <PUBCHEM_TOTAL_CHARGE>
0

> <PUBCHEM_SUBSTANCE_ID>
310930267

> <PUBCHEM_SUBSTANCE_VERSION>
1

> <PUBCHEM_EXT_DATASOURCE_NAME>
4488

> <PUBCHEM_EXT_DATASOURCE_REGID>
SCHEMBL16107544

> <PUBCHEM_SUBSTANCE_COMMENT>
InChI=1S/C21H20N2O/c24-20-10-9-18-7-4-8-19(21(18)22-20)17-11-13-23(14-12-17)15-16-5-2-1-3-6-16/h1-11H,12-15H2,(H,22,24)
InChIKey=LUZJFKMFLAQDIM-UHFFFAOYSA-N

> <PUBCHEM_SUBSTANCE_SYNONYM>
SCHEMBL16107544

> <PUBCHEM_XREF_EXT_ID>
SCHEMBL16107544

> <PUBCHEM_EXT_DATASOURCE_URL>
https://www.surechembl.org/

> <PUBCHEM_EXT_SUBSTANCE_URL>
https://www.surechembl.org/chemical/SCHEMBL16107544

> <PUBCHEM_CID_ASSOCIATIONS>
117599455  1

> <PUBCHEM_COORDINATE_TYPE>
1
3

$$$$
