310941052
  -OEChem-07211613022D

 41 44  0     1  0  0  0  0  0999 V2000
    5.0378    0.6676    0.0000 O   0  0  0  0  0  0  0  0  0  0  0  0
    3.9091   -1.2870    0.0000 O   0  0  0  0  0  0  0  0  0  0  0  0
    1.7756    0.7777    0.0000 O   0  0  0  0  0  0  0  0  0  0  0  0
   -0.3717   -1.2870    0.0000 O   0  0  0  0  0  0  0  0  0  0  0  0
    3.9091   -2.9249    0.0000 O   0  0  0  0  0  0  0  0  0  0  0  0
   -2.5189    0.7777    0.0000 O   0  0  0  0  0  0  0  0  0  0  0  0
   -5.3681    0.7777    0.0000 O   0  0  0  0  0  0  0  0  0  0  0  0
    2.4913   -0.4474    0.0000 N   0  0  0  0  0  0  0  0  0  0  0  0
    0.3441   -0.0481    0.0000 N   0  0  0  0  0  0  0  0  0  0  0  0
   -1.8031   -0.4474    0.0000 N   0  0  0  0  0  0  0  0  0  0  0  0
   -3.9366   -0.0481    0.0000 N   0  0  0  0  0  0  0  0  0  0  0  0
    4.6248    0.0069    0.0000 C   0  0  3  0  0  0  0  0  0  0  0  0
    3.9229   -0.4060    0.0000 C   0  0  0  0  0  0  0  0  0  0  0  0
    4.2394    0.6813    0.0000 C   0  0  0  0  0  0  0  0  0  0  0  0
    3.1933   -0.0207    0.0000 C   0  0  3  0  0  0  0  0  0  0  0  0
    5.3681   -0.4336    0.0000 C   0  0  0  0  0  0  0  0  0  0  0  0
    3.1933    1.2870    0.0000 C   0  0  0  0  0  0  0  0  0  0  0  0
    1.7756   -0.0344    0.0000 C   0  0  0  0  0  0  0  0  0  0  0  0
    1.0737   -0.4336    0.0000 C   0  0  3  0  0  0  0  0  0  0  0  0
    2.4776    1.7137    0.0000 C   0  0  0  0  0  0  0  0  0  0  0  0
    1.0599   -1.2457    0.0000 C   0  0  0  0  0  0  0  0  0  0  0  0
    1.7756   -1.6586    0.0000 C   0  0  0  0  0  0  0  0  0  0  0  0
    1.7756    1.3007    0.0000 C   0  0  0  0  0  0  0  0  0  0  0  0
    2.4913    2.5120    0.0000 C   0  0  0  0  0  0  0  0  0  0  0  0
   -0.3579   -0.4060    0.0000 C   0  0  0  0  0  0  0  0  0  0  0  0
    2.4776   -1.2594    0.0000 C   0  0  0  0  0  0  0  0  0  0  0  0
    1.7893   -2.4844    0.0000 C   0  0  0  0  0  0  0  0  0  0  0  0
    1.0737    1.6999    0.0000 C   0  0  0  0  0  0  0  0  0  0  0  0
    1.7619    2.9249    0.0000 C   0  0  0  0  0  0  0  0  0  0  0  0
    3.2071   -2.4707    0.0000 C   0  0  0  0  0  0  0  0  0  0  0  0
    3.2071   -1.6724    0.0000 C   0  0  0  0  0  0  0  0  0  0  0  0
    2.4913   -2.8837    0.0000 C   0  0  0  0  0  0  0  0  0  0  0  0
   -1.0874   -0.0207    0.0000 C   0  0  0  0  0  0  0  0  0  0  0  0
    1.0737    2.5258    0.0000 C   0  0  0  0  0  0  0  0  0  0  0  0
   -2.5189   -0.0344    0.0000 C   0  0  0  0  0  0  0  0  0  0  0  0
   -3.2071   -0.4198    0.0000 C   0  0  0  0  0  0  0  0  0  0  0  0
   -3.9366    0.7915    0.0000 C   0  0  0  0  0  0  0  0  0  0  0  0
   -4.6248   -0.4198    0.0000 C   0  0  0  0  0  0  0  0  0  0  0  0
   -4.6799    1.2044    0.0000 C   0  0  0  0  0  0  0  0  0  0  0  0
   -5.3681   -0.0207    0.0000 C   0  0  0  0  0  0  0  0  0  0  0  0
    4.6386   -2.4844    0.0000 C   0  0  0  0  0  0  0  0  0  0  0  0
  1 12  1  0  0  0  0
  1 14  1  0  0  0  0
  2 13  2  0  0  0  0
  3 18  2  0  0  0  0
  4 25  2  0  0  0  0
  5 30  1  0  0  0  0
  5 41  1  0  0  0  0
  6 35  2  0  0  0  0
  7 39  1  0  0  0  0
  7 40  1  0  0  0  0
  8 15  1  0  0  0  0
  8 18  1  0  0  0  0
  9 19  1  0  0  0  0
  9 25  1  0  0  0  0
 10 33  1  0  0  0  0
 10 35  1  0  0  0  0
 11 36  1  0  0  0  0
 11 37  1  0  0  0  0
 11 38  1  0  0  0  0
 12 13  1  0  0  0  0
 12 14  1  0  0  0  0
 12 16  1  0  0  0  0
 13 15  1  0  0  0  0
 15 17  1  0  0  0  0
 17 20  1  0  0  0  0
 18 19  1  0  0  0  0
 19 21  1  0  0  0  0
 20 23  2  0  0  0  0
 20 24  1  0  0  0  0
 21 22  1  0  0  0  0
 22 26  2  0  0  0  0
 22 27  1  0  0  0  0
 23 28  1  0  0  0  0
 24 29  2  0  0  0  0
 25 33  1  0  0  0  0
 26 31  1  0  0  0  0
 27 32  2  0  0  0  0
 28 34  2  0  0  0  0
 29 34  1  0  0  0  0
 30 31  2  0  0  0  0
 30 32  1  0  0  0  0
 35 36  1  0  0  0  0
 37 39  1  0  0  0  0
 38 40  1  0  0  0  0
M  END
> <PUBCHEM_COMPOUND_ID_TYPE>
0

> <PUBCHEM_TOTAL_CHARGE>
0

> <PUBCHEM_SUBSTANCE_ID>
310941052

> <PUBCHEM_SUBSTANCE_VERSION>
1

> <PUBCHEM_EXT_DATASOURCE_NAME>
4488

> <PUBCHEM_EXT_DATASOURCE_REGID>
SCHEMBL16119011

> <PUBCHEM_SUBSTANCE_COMMENT>
InChI=1S/C30H38N4O7/c1-30(20-41-30)28(37)24(16-21-6-4-3-5-7-21)33-29(38)25(17-22-8-10-23(39-2)11-9-22)32-26(35)18-31-27(36)19-34-12-14-40-15-13-34/h3-11,24-25H,12-20H2,1-2H3,(H,31,36)(H,32,35)(H,33,38)
InChIKey=OWPFSXYEUZCMAB-UHFFFAOYSA-N

> <PUBCHEM_SUBSTANCE_SYNONYM>
SCHEMBL16119011

> <PUBCHEM_XREF_EXT_ID>
SCHEMBL16119011

> <PUBCHEM_EXT_DATASOURCE_URL>
https://www.surechembl.org/

> <PUBCHEM_EXT_SUBSTANCE_URL>
https://www.surechembl.org/chemical/SCHEMBL16119011

> <PUBCHEM_CID_ASSOCIATIONS>
117607944  1

> <PUBCHEM_COORDINATE_TYPE>
1
3

$$$$
