310944861
  -OEChem-07211613022D

 21 23  0     1  0  0  0  0  0999 V2000
   -1.4346   -1.6751    0.0000 O   0  0  0  0  0  0  0  0  0  0  0  0
   -1.9328   -0.2835    0.0000 N   0  0  0  0  0  0  0  0  0  0  0  0
   -2.7404   -0.4724    0.0000 N   0  0  0  0  0  0  0  0  0  0  0  0
   -1.8641    0.5240    0.0000 C   0  0  0  0  0  0  0  0  0  0  0  0
   -1.1426    0.9536    0.0000 C   0  0  0  0  0  0  0  0  0  0  0  0
   -1.3144   -0.8333    0.0000 C   0  0  3  0  0  0  0  0  0  0  0  0
   -2.6029    0.8505    0.0000 C   0  0  0  0  0  0  0  0  0  0  0  0
   -0.4037    0.5583    0.0000 C   0  0  0  0  0  0  0  0  0  0  0  0
   -3.1527    0.2147    0.0000 C   0  0  0  0  0  0  0  0  0  0  0  0
   -1.1597    1.7610    0.0000 C   0  0  0  0  0  0  0  0  0  0  0  0
    0.2835    0.9708    0.0000 C   0  0  0  0  0  0  0  0  0  0  0  0
   -0.5755   -0.5583    0.0000 C   0  0  0  0  0  0  0  0  0  0  0  0
   -0.4553    2.1906    0.0000 C   0  0  0  0  0  0  0  0  0  0  0  0
    0.2491    1.7954    0.0000 C   0  0  0  0  0  0  0  0  0  0  0  0
   -0.8161   -2.1906    0.0000 C   0  0  0  0  0  0  0  0  0  0  0  0
    0.0601   -1.0567    0.0000 C   0  0  0  0  0  0  0  0  0  0  0  0
    0.9879    0.5412    0.0000 C   0  0  0  0  0  0  0  0  0  0  0  0
   -0.0430   -1.8641    0.0000 C   0  0  0  0  0  0  0  0  0  0  0  0
    1.7438    0.1460    0.0000 C   0  0  0  0  0  0  0  0  0  0  0  0
    2.4483   -0.2491    0.0000 C   0  0  0  0  0  0  0  0  0  0  0  0
    3.1527    0.1804    0.0000 C   0  0  0  0  0  0  0  0  0  0  0  0
  1  6  1  0  0  0  0
  1 15  1  0  0  0  0
  2  3  1  0  0  0  0
  2  4  1  0  0  0  0
  2  6  1  0  0  0  0
  3  9  2  0  0  0  0
  4  5  1  0  0  0  0
  4  7  2  0  0  0  0
  5  8  1  0  0  0  0
  5 10  2  0  0  0  0
  6 12  1  0  0  0  0
  7  9  1  0  0  0  0
  8 11  2  0  0  0  0
 10 13  1  0  0  0  0
 11 14  1  0  0  0  0
 11 17  1  0  0  0  0
 12 16  1  0  0  0  0
 13 14  2  0  0  0  0
 15 18  1  0  0  0  0
 16 18  1  0  0  0  0
 17 19  3  0  0  0  0
 19 20  1  0  0  0  0
 20 21  1  0  0  0  0
M  END
> <PUBCHEM_COMPOUND_ID_TYPE>
0

> <PUBCHEM_TOTAL_CHARGE>
0

> <PUBCHEM_SUBSTANCE_ID>
310944861

> <PUBCHEM_SUBSTANCE_VERSION>
1

> <PUBCHEM_EXT_DATASOURCE_NAME>
4488

> <PUBCHEM_EXT_DATASOURCE_REGID>
SCHEMBL16122943

> <PUBCHEM_SUBSTANCE_COMMENT>
InChI=1S/C18H20N2O/c1-2-3-7-15-8-6-9-16(14-15)17-11-12-19-20(17)18-10-4-5-13-21-18/h6,8-9,11-12,14,18H,2,4-5,10,13H2,1H3
InChIKey=KHOQOKVPIXKYCF-UHFFFAOYSA-N

> <PUBCHEM_SUBSTANCE_SYNONYM>
SCHEMBL16122943

> <PUBCHEM_XREF_EXT_ID>
SCHEMBL16122943

> <PUBCHEM_EXT_DATASOURCE_URL>
https://www.surechembl.org/

> <PUBCHEM_EXT_SUBSTANCE_URL>
https://www.surechembl.org/chemical/SCHEMBL16122943

> <PUBCHEM_CID_ASSOCIATIONS>
117611057  1

> <PUBCHEM_COORDINATE_TYPE>
1
3

$$$$
