310945827
  -OEChem-07211613022D

 43 47  0     1  0  0  0  0  0999 V2000
    5.4456    0.9779    0.0000 O   0  0  0  0  0  0  0  0  0  0  0  0
    4.3180   -0.9779    0.0000 O   0  0  0  0  0  0  0  0  0  0  0  0
    1.9484    0.9636    0.0000 O   0  0  0  0  0  0  0  0  0  0  0  0
   -2.3481    0.9636    0.0000 O   0  0  0  0  0  0  0  0  0  0  0  0
   -0.2069   -1.1063    0.0000 O   0  0  0  0  0  0  0  0  0  0  0  0
    4.1039   -2.7621    0.0000 O   0  0  0  0  0  0  0  0  0  0  0  0
    2.6765   -0.2783    0.0000 N   0  0  0  0  0  0  0  0  0  0  0  0
    0.5210    0.1356    0.0000 N   0  0  0  0  0  0  0  0  0  0  0  0
   -5.2887   -1.3632    0.0000 N   0  0  0  0  0  0  0  0  0  0  0  0
   -1.6344   -0.2783    0.0000 N   0  0  0  0  0  0  0  0  0  0  0  0
   -5.7740   -0.6923    0.0000 N   0  0  0  0  0  0  0  0  0  0  0  0
    5.0460    0.3069    0.0000 C   0  0  3  0  0  0  0  0  0  0  0  0
    4.3323   -0.1070    0.0000 C   0  0  0  0  0  0  0  0  0  0  0  0
    4.6463    0.9921    0.0000 C   0  0  0  0  0  0  0  0  0  0  0  0
    3.5900    0.2926    0.0000 C   0  0  3  0  0  0  0  0  0  0  0  0
    5.7740   -0.1213    0.0000 C   0  0  0  0  0  0  0  0  0  0  0  0
    3.6042    1.3490    0.0000 C   0  0  0  0  0  0  0  0  0  0  0  0
    1.9484    0.1356    0.0000 C   0  0  0  0  0  0  0  0  0  0  0  0
    1.2490   -0.2355    0.0000 C   0  0  3  0  0  0  0  0  0  0  0  0
    2.8763    1.7914    0.0000 C   0  0  0  0  0  0  0  0  0  0  0  0
   -4.5036   -0.2498    0.0000 C   0  0  0  0  0  0  0  0  0  0  0  0
   -4.5178   -1.0777    0.0000 C   0  0  0  0  0  0  0  0  0  0  0  0
   -3.0619   -0.2498    0.0000 C   0  0  0  0  0  0  0  0  0  0  0  0
   -3.7898    0.1499    0.0000 C   0  0  0  0  0  0  0  0  0  0  0  0
   -2.3625    0.1356    0.0000 C   0  0  0  0  0  0  0  0  0  0  0  0
    1.2348   -1.0777    0.0000 C   0  0  0  0  0  0  0  0  0  0  0  0
   -0.1927   -0.2213    0.0000 C   0  0  0  0  0  0  0  0  0  0  0  0
   -3.7756   -1.4774    0.0000 C   0  0  0  0  0  0  0  0  0  0  0  0
   -3.0619   -1.0777    0.0000 C   0  0  0  0  0  0  0  0  0  0  0  0
   -0.9065    0.1641    0.0000 C   0  0  3  0  0  0  0  0  0  0  0  0
   -5.2887   -0.0072    0.0000 C   0  0  0  0  0  0  0  0  0  0  0  0
    1.9770   -1.4917    0.0000 C   0  0  0  0  0  0  0  0  0  0  0  0
    2.1197    1.4631    0.0000 C   0  0  0  0  0  0  0  0  0  0  0  0
    2.7907    2.5908    0.0000 C   0  0  0  0  0  0  0  0  0  0  0  0
    1.5916    2.0483    0.0000 C   0  0  0  0  0  0  0  0  0  0  0  0
    1.9913    2.7621    0.0000 C   0  0  0  0  0  0  0  0  0  0  0  0
    1.9770   -2.3196    0.0000 C   0  0  0  0  0  0  0  0  0  0  0  0
    2.6622   -1.0920    0.0000 C   0  0  0  0  0  0  0  0  0  0  0  0
    3.3901   -2.3053    0.0000 C   0  0  0  0  0  0  0  0  0  0  0  0
   -0.9065    0.9921    0.0000 C   0  0  0  0  0  0  0  0  0  0  0  0
    2.6765   -2.7193    0.0000 C   0  0  0  0  0  0  0  0  0  0  0  0
    3.3901   -1.4917    0.0000 C   0  0  0  0  0  0  0  0  0  0  0  0
    4.8176   -2.3053    0.0000 C   0  0  0  0  0  0  0  0  0  0  0  0
  1 12  1  0  0  0  0
  1 14  1  0  0  0  0
  2 13  2  0  0  0  0
  3 18  2  0  0  0  0
  4 25  2  0  0  0  0
  5 27  2  0  0  0  0
  6 39  1  0  0  0  0
  6 43  1  0  0  0  0
  7 15  1  0  0  0  0
  7 18  1  0  0  0  0
  8 19  1  0  0  0  0
  8 27  1  0  0  0  0
  9 11  1  0  0  0  0
  9 22  1  0  0  0  0
 10 25  1  0  0  0  0
 10 30  1  0  0  0  0
 11 31  2  0  0  0  0
 12 13  1  0  0  0  0
 12 14  1  0  0  0  0
 12 16  1  0  0  0  0
 13 15  1  0  0  0  0
 15 17  1  0  0  0  0
 17 20  1  0  0  0  0
 18 19  1  0  0  0  0
 19 26  1  0  0  0  0
 20 33  1  0  0  0  0
 20 34  1  0  0  0  0
 21 22  1  0  0  0  0
 21 24  2  0  0  0  0
 21 31  1  0  0  0  0
 22 28  2  0  0  0  0
 23 24  1  0  0  0  0
 23 25  1  0  0  0  0
 23 29  2  0  0  0  0
 26 32  1  0  0  0  0
 27 30  1  0  0  0  0
 28 29  1  0  0  0  0
 30 40  1  0  0  0  0
 32 37  2  0  0  0  0
 32 38  1  0  0  0  0
 33 35  1  0  0  0  0
 34 36  1  0  0  0  0
 35 36  1  0  0  0  0
 37 41  1  0  0  0  0
 38 42  2  0  0  0  0
 39 41  2  0  0  0  0
 39 42  1  0  0  0  0
M  END
> <PUBCHEM_COMPOUND_ID_TYPE>
0

> <PUBCHEM_TOTAL_CHARGE>
0

> <PUBCHEM_SUBSTANCE_ID>
310945827

> <PUBCHEM_SUBSTANCE_VERSION>
1

> <PUBCHEM_EXT_DATASOURCE_NAME>
4488

> <PUBCHEM_EXT_DATASOURCE_REGID>
SCHEMBL16123932

> <PUBCHEM_SUBSTANCE_COMMENT>
InChI=1S/C32H39N5O6/c1-19(34-30(40)22-10-13-25-23(16-22)17-33-37-25)29(39)36-27(15-21-8-11-24(42-3)12-9-21)31(41)35-26(14-20-6-4-5-7-20)28(38)32(2)18-43-32/h8-13,16-17,19-20,26-27H,4-7,14-15,18H2,1-3H3,(H,33,37)(H,34,40)(H,35,41)(H,36,39)
InChIKey=ZRZNKXVJPMAQPW-UHFFFAOYSA-N

> <PUBCHEM_SUBSTANCE_SYNONYM>
SCHEMBL16123932

> <PUBCHEM_XREF_EXT_ID>
SCHEMBL16123932

> <PUBCHEM_EXT_DATASOURCE_URL>
https://www.surechembl.org/

> <PUBCHEM_EXT_SUBSTANCE_URL>
https://www.surechembl.org/chemical/SCHEMBL16123932

> <PUBCHEM_CID_ASSOCIATIONS>
117611813  1

> <PUBCHEM_COORDINATE_TYPE>
1
3

$$$$
