310945279
  -OEChem-07211613022D

 32 37  0     1  0  0  0  0  0999 V2000
    2.9596    1.3116    0.0000 O   0  0  0  0  0  0  0  0  0  0  0  0
   -3.8606    0.6387    0.0000 O   0  0  0  0  0  0  0  0  0  0  0  0
    1.4655   -1.0036    0.0000 N   0  0  0  0  0  0  0  0  0  0  0  0
    3.6895    0.0799    0.0000 N   0  0  0  0  0  0  0  0  0  0  0  0
   -1.4997   -0.0799    0.0000 N   0  0  0  0  0  0  0  0  0  0  0  0
   -1.6480   -1.4941    0.0000 N   0  0  0  0  0  0  0  0  0  0  0  0
   -3.7807   -1.6879    0.0000 N   0  0  3  0  0  0  0  0  0  0  0  0
   -2.5490    0.0570    0.0000 N   0  0  0  0  0  0  0  0  0  0  0  0
    3.6895   -0.7527    0.0000 C   0  0  0  0  0  0  0  0  0  0  0  0
    2.2639    0.0799    0.0000 C   0  0  0  0  0  0  0  0  0  0  0  0
    2.2525   -0.7413    0.0000 C   0  0  0  0  0  0  0  0  0  0  0  0
    1.4541    0.3422    0.0000 C   0  0  0  0  0  0  0  0  0  0  0  0
    0.9865   -0.3308    0.0000 C   0  0  0  0  0  0  0  0  0  0  0  0
    2.9938   -1.1519    0.0000 C   0  0  0  0  0  0  0  0  0  0  0  0
    2.9596    0.4790    0.0000 C   0  0  0  0  0  0  0  0  0  0  0  0
    0.1540   -0.2395    0.0000 C   0  0  0  0  0  0  0  0  0  0  0  0
    4.4993   -0.7641    0.0000 C   0  0  0  0  0  0  0  0  0  0  0  0
    4.1114   -1.4370    0.0000 C   0  0  0  0  0  0  0  0  0  0  0  0
   -0.1768    0.5132    0.0000 C   0  0  0  0  0  0  0  0  0  0  0  0
    1.1348    1.0834    0.0000 C   0  0  0  0  0  0  0  0  0  0  0  0
   -0.3250   -0.9124    0.0000 C   0  0  0  0  0  0  0  0  0  0  0  0
    0.3136    1.1747    0.0000 C   0  0  0  0  0  0  0  0  0  0  0  0
   -1.1576   -0.8211    0.0000 C   0  0  0  0  0  0  0  0  0  0  0  0
   -0.9979    0.5931    0.0000 C   0  0  0  0  0  0  0  0  0  0  0  0
   -2.4806   -1.4028    0.0000 C   0  0  3  0  0  0  0  0  0  0  0  0
   -2.8798   -0.7071    0.0000 C   0  0  3  0  0  0  0  0  0  0  0  0
   -3.0166   -2.0301    0.0000 C   0  0  0  0  0  0  0  0  0  0  0  0
   -3.6781   -0.8668    0.0000 C   0  0  0  0  0  0  0  0  0  0  0  0
   -3.0280    0.7299    0.0000 C   0  0  0  0  0  0  0  0  0  0  0  0
   -4.4993   -2.1328    0.0000 C   0  0  0  0  0  0  0  0  0  0  0  0
   -2.6972    1.4941    0.0000 C   0  0  0  0  0  0  0  0  0  0  0  0
   -3.2447    2.1328    0.0000 C   0  0  0  0  0  0  0  0  0  0  0  0
  1 15  2  0  0  0  0
  2 29  2  0  0  0  0
  3 11  1  0  0  0  0
  3 13  1  0  0  0  0
  4  9  1  0  0  0  0
  4 15  1  0  0  0  0
  5 23  2  0  0  0  0
  5 24  1  0  0  0  0
  6 23  1  0  0  0  0
  6 25  1  0  0  0  0
  7 27  1  0  0  0  0
  7 28  1  0  0  0  0
  7 30  1  0  0  0  0
  8 26  1  0  0  0  0
  8 29  1  0  0  0  0
  9 14  1  0  0  0  0
  9 17  1  0  0  0  0
  9 18  1  0  0  0  0
 10 11  2  0  0  0  0
 10 12  1  0  0  0  0
 10 15  1  0  0  0  0
 11 14  1  0  0  0  0
 12 13  2  0  0  0  0
 12 20  1  0  0  0  0
 13 16  1  0  0  0  0
 16 19  1  0  0  0  0
 16 21  2  0  0  0  0
 17 18  1  0  0  0  0
 19 22  1  0  0  0  0
 19 24  2  0  0  0  0
 20 22  1  0  0  0  0
 21 23  1  0  0  0  0
 25 26  1  0  0  0  0
 25 27  1  0  0  0  0
 26 28  1  0  0  0  0
 29 31  1  0  0  0  0
 31 32  2  0  0  0  0
M  END
> <PUBCHEM_COMPOUND_ID_TYPE>
0

> <PUBCHEM_TOTAL_CHARGE>
0

> <PUBCHEM_SUBSTANCE_ID>
310945279

> <PUBCHEM_SUBSTANCE_VERSION>
1

> <PUBCHEM_EXT_DATASOURCE_NAME>
4488

> <PUBCHEM_EXT_DATASOURCE_REGID>
SCHEMBL16123374

> <PUBCHEM_SUBSTANCE_COMMENT>
InChI=1S/C24H28N6O2/c1-3-20(31)27-18-12-30(2)11-17(18)26-19-8-15-13(10-25-19)4-5-14-21-16(28-22(14)15)9-24(6-7-24)29-23(21)32/h3,8,10,17-18,28H,1,4-7,9,11-12H2,2H3,(H,25,26)(H,27,31)(H,29,32)
InChIKey=WFZREQRBZDIDFJ-UHFFFAOYSA-N

> <PUBCHEM_SUBSTANCE_SYNONYM>
SCHEMBL16123374

> <PUBCHEM_XREF_EXT_ID>
SCHEMBL16123374

> <PUBCHEM_EXT_DATASOURCE_URL>
https://www.surechembl.org/

> <PUBCHEM_EXT_SUBSTANCE_URL>
https://www.surechembl.org/chemical/SCHEMBL16123374

> <PUBCHEM_CID_ASSOCIATIONS>
86300890  1

> <PUBCHEM_COORDINATE_TYPE>
1
3

$$$$
