310943694
  -OEChem-07211613022D

 34 37  0     1  0  0  0  0  0999 V2000
   -4.6393   -1.0468    0.0000 N   0  0  3  0  0  0  0  0  0  0  0  0
    4.6264    1.0468    0.0000 N   0  0  3  0  0  0  0  0  0  0  0  0
   -6.4098   -0.5040    0.0000 N   0  0  3  0  0  0  0  0  0  0  0  0
    6.3969    0.5169    0.0000 N   0  0  3  0  0  0  0  0  0  0  0  0
    3.1919    1.0468    0.0000 C   0  0  0  0  0  0  0  0  0  0  0  0
   -3.2049   -1.0339    0.0000 C   0  0  0  0  0  0  0  0  0  0  0  0
    3.9027    1.4603    0.0000 C   0  0  0  0  0  0  0  0  0  0  0  0
   -3.9156   -1.4474    0.0000 C   0  0  0  0  0  0  0  0  0  0  0  0
    1.7705    0.2197    0.0000 C   0  0  0  0  0  0  0  0  0  0  0  0
   -1.7963   -0.2068    0.0000 C   0  0  0  0  0  0  0  0  0  0  0  0
    3.1919    0.2197    0.0000 C   0  0  0  0  0  0  0  0  0  0  0  0
   -3.1919   -0.2068    0.0000 C   0  0  0  0  0  0  0  0  0  0  0  0
    2.4812    1.4474    0.0000 C   0  0  0  0  0  0  0  0  0  0  0  0
   -2.4812   -1.4345    0.0000 C   0  0  0  0  0  0  0  0  0  0  0  0
    2.4683   -0.1809    0.0000 C   0  0  0  0  0  0  0  0  0  0  0  0
   -2.4942    0.1938    0.0000 C   0  0  0  0  0  0  0  0  0  0  0  0
    1.7963    1.0468    0.0000 C   0  0  0  0  0  0  0  0  0  0  0  0
   -1.7963   -1.0339    0.0000 C   0  0  0  0  0  0  0  0  0  0  0  0
   -5.3114   -1.5120    0.0000 C   0  0  0  0  0  0  0  0  0  0  0  0
    5.3243    1.5120    0.0000 C   0  0  0  0  0  0  0  0  0  0  0  0
   -4.5747   -0.2068    0.0000 C   0  0  0  0  0  0  0  0  0  0  0  0
    4.5747    0.2326    0.0000 C   0  0  0  0  0  0  0  0  0  0  0  0
    1.0856   -0.1938    0.0000 C   0  0  0  0  0  0  0  0  0  0  0  0
   -1.0726    0.2068    0.0000 C   0  0  0  0  0  0  0  0  0  0  0  0
   -6.0997   -1.2665    0.0000 C   0  0  0  0  0  0  0  0  0  0  0  0
    6.1126    1.2665    0.0000 C   0  0  0  0  0  0  0  0  0  0  0  0
   -5.1821    0.3489    0.0000 C   0  0  0  0  0  0  0  0  0  0  0  0
    5.2338   -0.3231    0.0000 C   0  0  0  0  0  0  0  0  0  0  0  0
   -0.3489   -0.1938    0.0000 C   0  0  0  0  0  0  0  0  0  0  0  0
    0.3489    0.2068    0.0000 C   0  0  0  0  0  0  0  0  0  0  0  0
   -5.9963    0.2197    0.0000 C   0  0  0  0  0  0  0  0  0  0  0  0
    5.9834   -0.2068    0.0000 C   0  0  0  0  0  0  0  0  0  0  0  0
   -7.2369   -0.4523    0.0000 C   0  0  0  0  0  0  0  0  0  0  0  0
    7.2369    0.4652    0.0000 C   0  0  0  0  0  0  0  0  0  0  0  0
  1  8  1  0  0  0  0
  1 19  1  0  0  0  0
  1 21  1  0  0  0  0
  2  7  1  0  0  0  0
  2 20  1  0  0  0  0
  2 22  1  0  0  0  0
  3 25  1  0  0  0  0
  3 31  1  0  0  0  0
  3 33  1  0  0  0  0
  4 26  1  0  0  0  0
  4 32  1  0  0  0  0
  4 34  1  0  0  0  0
  5  7  1  0  0  0  0
  5 11  2  0  0  0  0
  5 13  1  0  0  0  0
  6  8  1  0  0  0  0
  6 12  2  0  0  0  0
  6 14  1  0  0  0  0
  9 15  2  0  0  0  0
  9 17  1  0  0  0  0
  9 23  1  0  0  0  0
 10 16  2  0  0  0  0
 10 18  1  0  0  0  0
 10 24  1  0  0  0  0
 11 15  1  0  0  0  0
 12 16  1  0  0  0  0
 13 17  2  0  0  0  0
 14 18  2  0  0  0  0
 19 25  1  0  0  0  0
 20 26  1  0  0  0  0
 21 27  1  0  0  0  0
 22 28  1  0  0  0  0
 23 30  1  0  0  0  0
 24 29  1  0  0  0  0
 27 31  1  0  0  0  0
 28 32  1  0  0  0  0
 29 30  1  0  0  0  0
M  END
> <PUBCHEM_COMPOUND_ID_TYPE>
0

> <PUBCHEM_TOTAL_CHARGE>
0

> <PUBCHEM_SUBSTANCE_ID>
310943694

> <PUBCHEM_SUBSTANCE_VERSION>
1

> <PUBCHEM_EXT_DATASOURCE_NAME>
4488

> <PUBCHEM_EXT_DATASOURCE_REGID>
SCHEMBL16121762

> <PUBCHEM_SUBSTANCE_COMMENT>
InChI=1S/C30H46N4/c1-31-17-5-19-33(23-21-31)25-29-13-9-27(10-14-29)7-3-4-8-28-11-15-30(16-12-28)26-34-20-6-18-32(2)22-24-34/h9-16H,3-8,17-26H2,1-2H3
InChIKey=VFGKLPNAWZAOBO-UHFFFAOYSA-N

> <PUBCHEM_SUBSTANCE_SYNONYM>
SCHEMBL16121762

> <PUBCHEM_XREF_EXT_ID>
SCHEMBL16121762

> <PUBCHEM_EXT_DATASOURCE_URL>
https://www.surechembl.org/

> <PUBCHEM_EXT_SUBSTANCE_URL>
https://www.surechembl.org/chemical/SCHEMBL16121762

> <PUBCHEM_CID_ASSOCIATIONS>
117610080  1

> <PUBCHEM_COORDINATE_TYPE>
1
3

$$$$
