310930992
  -OEChem-07211613022D

 33 37  0     1  0  0  0  0  0999 V2000
    3.1111   -0.6642    0.0000 O   0  0  0  0  0  0  0  0  0  0  0  0
    6.2221   -2.1673    0.0000 O   0  0  0  0  0  0  0  0  0  0  0  0
    9.7877   -0.1049    0.0000 O   0  0  0  0  0  0  0  0  0  0  0  0
    2.0973   -1.7478    0.0000 N   0  0  0  0  0  0  0  0  0  0  0  0
    2.9014   -2.7964    0.0000 N   0  0  0  0  0  0  0  0  0  0  0  0
    1.4681   -3.0761    0.0000 N   0  0  0  0  0  0  0  0  0  0  0  0
   10.4868   -1.3284    0.0000 N   0  0  0  0  0  0  0  0  0  0  0  0
    3.3558   -2.1323    0.0000 C   0  0  3  0  0  0  0  0  0  0  0  0
    2.8664   -1.4681    0.0000 C   0  0  0  0  0  0  0  0  0  0  0  0
    3.7403   -1.3982    0.0000 C   0  0  0  0  0  0  0  0  0  0  0  0
    4.0899   -2.5518    0.0000 C   0  0  0  0  0  0  0  0  0  0  0  0
    2.0973   -2.5867    0.0000 C   0  0  0  0  0  0  0  0  0  0  0  0
    3.6703   -0.5942    0.0000 C   0  0  0  0  0  0  0  0  0  0  0  0
    4.4044   -0.9088    0.0000 C   0  0  0  0  0  0  0  0  0  0  0  0
    1.4332   -1.2934    0.0000 C   0  0  0  0  0  0  0  0  0  0  0  0
    4.7890   -2.1323    0.0000 C   0  0  0  0  0  0  0  0  0  0  0  0
    4.0549   -3.3558    0.0000 C   0  0  0  0  0  0  0  0  0  0  0  0
    5.4881   -2.5518    0.0000 C   0  0  0  0  0  0  0  0  0  0  0  0
    0.6642   -1.6079    0.0000 C   0  0  0  0  0  0  0  0  0  0  0  0
    1.4681   -0.4544    0.0000 C   0  0  0  0  0  0  0  0  0  0  0  0
    4.7890   -3.7752    0.0000 C   0  0  0  0  0  0  0  0  0  0  0  0
    5.4881   -3.3907    0.0000 C   0  0  0  0  0  0  0  0  0  0  0  0
    0.0000   -1.1536    0.0000 C   0  0  0  0  0  0  0  0  0  0  0  0
    0.8040    0.0000    0.0000 C   0  0  0  0  0  0  0  0  0  0  0  0
    0.0349   -0.3146    0.0000 C   0  0  0  0  0  0  0  0  0  0  0  0
    6.9212   -2.5867    0.0000 C   0  0  0  0  0  0  0  0  0  0  0  0
    7.6553   -2.1673    0.0000 C   0  0  0  0  0  0  0  0  0  0  0  0
    7.6553   -1.3284    0.0000 C   0  0  0  0  0  0  0  0  0  0  0  0
    8.3544   -2.5867    0.0000 C   0  0  0  0  0  0  0  0  0  0  0  0
    9.0536   -1.3284    0.0000 C   0  0  0  0  0  0  0  0  0  0  0  0
    8.3544   -0.9088    0.0000 C   0  0  0  0  0  0  0  0  0  0  0  0
    9.0536   -2.1673    0.0000 C   0  0  0  0  0  0  0  0  0  0  0  0
    9.7877   -0.9088    0.0000 C   0  0  0  0  0  0  0  0  0  0  0  0
  1  9  2  0  0  0  0
  2 18  1  0  0  0  0
  2 26  1  0  0  0  0
  3 33  2  0  0  0  0
  4  9  1  0  0  0  0
  4 12  1  0  0  0  0
  4 15  1  0  0  0  0
  5  8  1  0  0  0  0
  5 12  1  0  0  0  0
  6 12  2  3  0  0  0
  7 33  1  0  0  0  0
  8  9  1  0  0  0  0
  8 10  1  0  0  0  0
  8 11  1  0  0  0  0
 10 13  1  0  0  0  0
 10 14  1  0  0  0  0
 11 16  1  0  0  0  0
 11 17  2  0  0  0  0
 13 14  1  0  0  0  0
 15 19  1  0  0  0  0
 15 20  1  0  0  0  0
 16 18  2  0  0  0  0
 17 21  1  0  0  0  0
 18 22  1  0  0  0  0
 19 23  1  0  0  0  0
 20 24  1  0  0  0  0
 21 22  2  0  0  0  0
 23 25  1  0  0  0  0
 24 25  1  0  0  0  0
 26 27  1  0  0  0  0
 27 28  2  0  0  0  0
 27 29  1  0  0  0  0
 28 31  1  0  0  0  0
 29 32  2  0  0  0  0
 30 31  2  0  0  0  0
 30 32  1  0  0  0  0
 30 33  1  0  0  0  0
M  END
> <PUBCHEM_COMPOUND_ID_TYPE>
0

> <PUBCHEM_TOTAL_CHARGE>
0

> <PUBCHEM_SUBSTANCE_ID>
310930992

> <PUBCHEM_SUBSTANCE_VERSION>
1

> <PUBCHEM_EXT_DATASOURCE_NAME>
4488

> <PUBCHEM_EXT_DATASOURCE_REGID>
SCHEMBL16108292

> <PUBCHEM_SUBSTANCE_COMMENT>
InChI=1S/C26H30N4O3/c27-23(31)18-11-9-17(10-12-18)16-33-22-8-4-5-20(15-22)26(19-13-14-19)24(32)30(25(28)29-26)21-6-2-1-3-7-21/h4-5,8-12,15,19,21H,1-3,6-7,13-14,16H2,(H2,27,31)(H2,28,29)
InChIKey=PEKSGHPYDIDKEB-UHFFFAOYSA-N

> <PUBCHEM_SUBSTANCE_SYNONYM>
SCHEMBL16108292

> <PUBCHEM_XREF_EXT_ID>
SCHEMBL16108292

> <PUBCHEM_EXT_DATASOURCE_URL>
https://www.surechembl.org/

> <PUBCHEM_EXT_SUBSTANCE_URL>
https://www.surechembl.org/chemical/SCHEMBL16108292

> <PUBCHEM_CID_ASSOCIATIONS>
117599926  1

> <PUBCHEM_COORDINATE_TYPE>
1
3

$$$$
