310937051
  -OEChem-07211613022D

 27 28  0     1  0  0  0  0  0999 V2000
    0.8442   -0.7163    0.0000 Cl  0  0  0  0  0  0  0  0  0  0  0  0
    0.0000   -2.1489    0.0000 Cl  0  0  0  0  0  0  0  0  0  0  0  0
    1.2535   -4.2978    0.0000 S   0  0  0  0  0  0  0  0  0  0  0  0
    4.5536   -2.8652    0.0000 O   0  0  0  0  0  0  0  0  0  0  0  0
    1.2535   -3.4536    0.0000 O   0  0  0  0  0  0  0  0  0  0  0  0
    1.2535   -5.1165    0.0000 O   0  0  0  0  0  0  0  0  0  0  0  0
    4.5536    0.0000    0.0000 O   0  0  0  0  0  0  0  0  0  0  0  0
    5.7816   -0.7163    0.0000 O   0  0  0  0  0  0  0  0  0  0  0  0
    4.5536   -1.4326    0.0000 N   0  0  0  0  0  0  0  0  0  0  0  0
    3.3257   -2.1489    0.0000 C   0  0  3  0  0  0  0  0  0  0  0  0
    3.7350   -2.8652    0.0000 C   0  0  3  0  0  0  0  0  0  0  0  0
    3.3257   -3.5815    0.0000 C   0  0  0  0  0  0  0  0  0  0  0  0
    2.4815   -2.1489    0.0000 C   0  0  0  0  0  0  0  0  0  0  0  0
    2.0977   -4.2978    0.0000 C   0  0  0  0  0  0  0  0  0  0  0  0
    2.4815   -3.5815    0.0000 C   0  0  0  0  0  0  0  0  0  0  0  0
    3.7350   -1.4326    0.0000 C   0  0  0  0  0  0  0  0  0  0  0  0
    2.0721   -1.4326    0.0000 C   0  0  0  0  0  0  0  0  0  0  0  0
    2.0721   -2.8652    0.0000 C   0  0  0  0  0  0  0  0  0  0  0  0
    3.7350   -4.2978    0.0000 C   0  0  0  0  0  0  0  0  0  0  0  0
    1.2535   -1.4326    0.0000 C   0  0  0  0  0  0  0  0  0  0  0  0
    0.8442   -2.1489    0.0000 C   0  0  0  0  0  0  0  0  0  0  0  0
    2.4815   -5.0141    0.0000 C   0  0  0  0  0  0  0  0  0  0  0  0
    1.2535   -2.8652    0.0000 C   0  0  0  0  0  0  0  0  0  0  0  0
    3.3257   -5.0141    0.0000 C   0  0  0  0  0  0  0  0  0  0  0  0
    4.9630   -0.7163    0.0000 C   0  0  0  0  0  0  0  0  0  0  0  0
    0.4349   -4.2978    0.0000 C   0  0  0  0  0  0  0  0  0  0  0  0
    4.9630   -2.1489    0.0000 C   0  0  0  0  0  0  0  0  0  0  0  0
  1 20  1  0  0  0  0
  2 21  1  0  0  0  0
  3  5  2  0  0  0  0
  3  6  2  0  0  0  0
  3 14  1  0  0  0  0
  3 26  1  0  0  0  0
  4 11  1  0  0  0  0
  7 25  2  0  0  0  0
  8 25  1  0  0  0  0
  9 16  1  0  0  0  0
  9 25  1  0  0  0  0
  9 27  1  0  0  0  0
 10 11  1  0  0  0  0
 10 13  1  0  0  0  0
 10 16  1  0  0  0  0
 11 12  1  0  0  0  0
 12 15  1  0  0  0  0
 12 19  2  0  0  0  0
 13 17  1  0  0  0  0
 13 18  2  0  0  0  0
 14 15  2  0  0  0  0
 14 22  1  0  0  0  0
 17 20  2  0  0  0  0
 18 23  1  0  0  0  0
 19 24  1  0  0  0  0
 20 21  1  0  0  0  0
 21 23  2  0  0  0  0
 22 24  2  0  0  0  0
M  END
> <PUBCHEM_COMPOUND_ID_TYPE>
0

> <PUBCHEM_TOTAL_CHARGE>
0

> <PUBCHEM_SUBSTANCE_ID>
310937051

> <PUBCHEM_SUBSTANCE_VERSION>
1

> <PUBCHEM_EXT_DATASOURCE_NAME>
4488

> <PUBCHEM_EXT_DATASOURCE_REGID>
SCHEMBL16114761

> <PUBCHEM_SUBSTANCE_COMMENT>
InChI=1S/C18H19Cl2NO5S/c1-21(18(23)24)10-14(11-6-7-15(19)16(20)9-11)17(22)12-4-3-5-13(8-12)27(2,25)26/h3-9,14,17,22H,10H2,1-2H3,(H,23,24)
InChIKey=PUTWZTIEONJHIV-UHFFFAOYSA-N

> <PUBCHEM_SUBSTANCE_SYNONYM>
SCHEMBL16114761

> <PUBCHEM_XREF_EXT_ID>
SCHEMBL16114761

> <PUBCHEM_EXT_DATASOURCE_URL>
https://www.surechembl.org/

> <PUBCHEM_EXT_SUBSTANCE_URL>
https://www.surechembl.org/chemical/SCHEMBL16114761

> <PUBCHEM_CID_ASSOCIATIONS>
117604897  1

> <PUBCHEM_COORDINATE_TYPE>
1
3

$$$$
