310931839
  -OEChem-07211613022D

 52 56  0     1  0  0  0  0  0999 V2000
    6.5533   -5.8077    0.0000 S   0  0  0  0  0  0  0  0  0  0  0  0
    5.7293   -4.2773    0.0000 S   0  0  0  0  0  0  0  0  0  0  0  0
    6.5533   -4.1203    0.0000 F   0  0  0  0  0  0  0  0  0  0  0  0
    3.6887   -5.7685    0.0000 F   0  0  0  0  0  0  0  0  0  0  0  0
    0.1177   -5.3761    0.0000 F   0  0  0  0  0  0  0  0  0  0  0  0
    2.9823   -7.0242    0.0000 F   0  0  0  0  0  0  0  0  0  0  0  0
    1.5304   -7.8483    0.0000 F   0  0  0  0  0  0  0  0  0  0  0  0
    6.1217   -6.5141    0.0000 O   0  0  0  0  0  0  0  0  0  0  0  0
    7.2597   -6.2394    0.0000 O   0  0  0  0  0  0  0  0  0  0  0  0
    3.6887   -4.1203    0.0000 O   0  0  0  0  0  0  0  0  0  0  0  0
    9.4572   -5.1406    0.0000 O   0  0  0  0  0  0  0  0  0  0  0  0
    0.8241   -1.6481    0.0000 O   0  0  0  0  0  0  0  0  0  0  0  0
    9.4964   -2.2760    0.0000 O   0  0  0  0  0  0  0  0  0  0  0  0
    2.2760   -1.6481    0.0000 O   0  0  0  0  0  0  0  0  0  0  0  0
    6.9850   -5.1014    0.0000 N   0  0  0  0  0  0  0  0  0  0  0  0
    6.9065   -3.6102    0.0000 N   0  0  0  0  0  0  0  0  0  0  0  0
    1.5304   -2.8646    0.0000 N   0  0  0  0  0  0  0  0  0  0  0  0
    5.5723   -3.4533    0.0000 N   0  0  0  0  0  0  0  0  0  0  0  0
    5.8470   -5.3761    0.0000 C   0  0  0  0  0  0  0  0  0  0  0  0
    5.8470   -4.5520    0.0000 C   0  0  0  0  0  0  0  0  0  0  0  0
    6.5533   -4.3558    0.0000 C   0  0  0  0  0  0  0  0  0  0  0  0
    5.1406   -5.7685    0.0000 C   0  0  0  0  0  0  0  0  0  0  0  0
    4.4343   -4.5520    0.0000 C   0  0  0  0  0  0  0  0  0  0  0  0
    4.3951   -5.3761    0.0000 C   0  0  0  0  0  0  0  0  0  0  0  0
    7.8091   -5.1014    0.0000 C   0  0  0  0  0  0  0  0  0  0  0  0
    5.1406   -4.1203    0.0000 C   0  0  0  0  0  0  0  0  0  0  0  0
    8.2407   -4.3951    0.0000 C   0  0  0  0  0  0  0  0  0  0  0  0
    1.5304   -4.5127    0.0000 C   0  0  3  0  0  0  0  0  0  0  0  0
    2.2760   -4.1203    0.0000 C   0  0  3  0  0  0  0  0  0  0  0  0
    1.5304   -5.3369    0.0000 C   0  0  0  0  0  0  0  0  0  0  0  0
    9.0648   -4.3951    0.0000 C   0  0  0  0  0  0  0  0  0  0  0  0
    2.9823   -4.5127    0.0000 C   0  0  0  0  0  0  0  0  0  0  0  0
    0.8241   -5.7685    0.0000 C   0  0  0  0  0  0  0  0  0  0  0  0
    2.2760   -3.2963    0.0000 C   0  0  0  0  0  0  0  0  0  0  0  0
    0.8241   -4.1203    0.0000 C   0  0  0  0  0  0  0  0  0  0  0  0
    7.8483   -3.6494    0.0000 C   0  0  0  0  0  0  0  0  0  0  0  0
    6.3179   -3.0608    0.0000 C   0  0  0  0  0  0  0  0  0  0  0  0
    2.2760   -5.7685    0.0000 C   0  0  0  0  0  0  0  0  0  0  0  0
    0.8241   -3.2963    0.0000 C   0  0  0  0  0  0  0  0  0  0  0  0
    2.2760   -6.5926    0.0000 C   0  0  0  0  0  0  0  0  0  0  0  0
    9.4964   -3.6887    0.0000 C   0  0  0  0  0  0  0  0  0  0  0  0
    1.5304   -7.0242    0.0000 C   0  0  0  0  0  0  0  0  0  0  0  0
    9.0648   -2.9823    0.0000 C   0  0  0  0  0  0  0  0  0  0  0  0
    0.8241   -6.5926    0.0000 C   0  0  0  0  0  0  0  0  0  0  0  0
    1.5304   -2.0405    0.0000 C   0  0  0  0  0  0  0  0  0  0  0  0
    8.2407   -2.9823    0.0000 C   0  0  0  0  0  0  0  0  0  0  0  0
    0.8241   -0.8241    0.0000 C   0  0  0  0  0  0  0  0  0  0  0  0
   10.2813   -5.1406    0.0000 C   0  0  0  0  0  0  0  0  0  0  0  0
    1.6874   -0.8241    0.0000 C   0  0  0  0  0  0  0  0  0  0  0  0
    0.8241    0.0000    0.0000 C   0  0  0  0  0  0  0  0  0  0  0  0
    0.0000   -0.8241    0.0000 C   0  0  0  0  0  0  0  0  0  0  0  0
    9.1040   -1.5304    0.0000 C   0  0  0  0  0  0  0  0  0  0  0  0
  1  8  2  0  0  0  0
  1  9  2  0  0  0  0
  1 15  1  0  0  0  0
  1 19  1  0  0  0  0
  2 18  1  0  0  0  0
  2 21  1  0  0  0  0
  3 20  1  0  0  0  0
  4 24  1  0  0  0  0
  5 33  1  0  0  0  0
  6 40  1  0  0  0  0
  7 42  1  0  0  0  0
 10 23  1  0  0  0  0
 10 32  1  0  0  0  0
 11 31  1  0  0  0  0
 11 48  1  0  0  0  0
 12 45  1  0  0  0  0
 12 47  1  0  0  0  0
 13 43  1  0  0  0  0
 13 52  1  0  0  0  0
 14 45  2  0  0  0  0
 15 21  1  0  0  0  0
 15 25  1  0  0  0  0
 16 21  2  0  0  0  0
 16 37  1  0  0  0  0
 17 34  1  0  0  0  0
 17 39  1  0  0  0  0
 17 45  1  0  0  0  0
 18 37  2  0  0  0  0
 19 20  1  0  0  0  0
 19 22  2  0  0  0  0
 20 26  2  0  0  0  0
 22 24  1  0  0  0  0
 23 24  2  0  0  0  0
 23 26  1  0  0  0  0
 25 27  1  0  0  0  0
 27 31  2  0  0  0  0
 27 36  1  0  0  0  0
 28 29  1  0  0  0  0
 28 30  1  0  0  0  0
 28 35  1  0  0  0  0
 29 32  1  0  0  0  0
 29 34  1  0  0  0  0
 30 33  1  0  0  0  0
 30 38  2  0  0  0  0
 31 41  1  0  0  0  0
 33 44  2  0  0  0  0
 35 39  1  0  0  0  0
 36 46  2  0  0  0  0
 38 40  1  0  0  0  0
 40 42  2  0  0  0  0
 41 43  2  0  0  0  0
 42 44  1  0  0  0  0
 43 46  1  0  0  0  0
 47 49  1  0  0  0  0
 47 50  1  0  0  0  0
 47 51  1  0  0  0  0
M  END
> <PUBCHEM_COMPOUND_ID_TYPE>
0

> <PUBCHEM_TOTAL_CHARGE>
0

> <PUBCHEM_SUBSTANCE_ID>
310931839

> <PUBCHEM_SUBSTANCE_VERSION>
1

> <PUBCHEM_EXT_DATASOURCE_NAME>
4488

> <PUBCHEM_EXT_DATASOURCE_REGID>
SCHEMBL16109173

> <PUBCHEM_SUBSTANCE_COMMENT>
InChI=1S/C34H35F5N4O7S2/c1-34(2,3)50-33(44)42-9-8-22(23-11-25(36)26(37)12-24(23)35)20(15-42)17-49-30-13-28(39)31(14-27(30)38)52(45,46)43(32-40-18-41-51-32)16-19-6-7-21(47-4)10-29(19)48-5/h6-7,10-14,18,20,22H,8-9,15-17H2,1-5H3
InChIKey=ATFPBZXQRCYUGG-UHFFFAOYSA-N

> <PUBCHEM_SUBSTANCE_SYNONYM>
SCHEMBL16109173

> <PUBCHEM_XREF_EXT_ID>
SCHEMBL16109173

> <PUBCHEM_EXT_DATASOURCE_URL>
https://www.surechembl.org/

> <PUBCHEM_EXT_SUBSTANCE_URL>
https://www.surechembl.org/chemical/SCHEMBL16109173

> <PUBCHEM_CID_ASSOCIATIONS>
117600510  1

> <PUBCHEM_COORDINATE_TYPE>
1
3

$$$$
