310933608
  -OEChem-07211613022D

 33 37  0     1  0  0  0  0  0999 V2000
    3.7064   -0.6835    0.0000 O   0  0  0  0  0  0  0  0  0  0  0  0
    0.6309   -4.1795    0.0000 O   0  0  0  0  0  0  0  0  0  0  0  0
    6.1510   -3.0492    0.0000 O   0  0  0  0  0  0  0  0  0  0  0  0
    0.8149    0.0000    0.0000 O   0  0  0  0  0  0  0  0  0  0  0  0
    4.8104   -2.3921    0.0000 N   0  0  0  0  0  0  0  0  0  0  0  0
    4.8104   -3.7064    0.0000 N   0  0  0  0  0  0  0  0  0  0  0  0
    4.5212   -0.6835    0.0000 N   0  0  0  0  0  0  0  0  0  0  0  0
    1.0252   -4.8892    0.0000 N   0  0  0  0  0  0  0  0  0  0  0  0
    3.3121   -1.3931    0.0000 C   0  0  3  0  0  0  0  0  0  0  0  0
    3.3121   -2.2344    0.0000 C   0  0  0  0  0  0  0  0  0  0  0  0
    4.0481   -2.6287    0.0000 C   0  0  0  0  0  0  0  0  0  0  0  0
    4.0481   -3.4698    0.0000 C   0  0  0  0  0  0  0  0  0  0  0  0
    2.4709   -1.4195    0.0000 C   0  0  0  0  0  0  0  0  0  0  0  0
    4.1269   -1.3931    0.0000 C   0  0  0  0  0  0  0  0  0  0  0  0
    2.6287   -3.4698    0.0000 C   0  0  0  0  0  0  0  0  0  0  0  0
    2.6287   -2.6287    0.0000 C   0  0  0  0  0  0  0  0  0  0  0  0
    3.3121   -3.8641    0.0000 C   0  0  0  0  0  0  0  0  0  0  0  0
    1.9189   -3.8904    0.0000 C   0  0  0  0  0  0  0  0  0  0  0  0
    5.3098   -3.0492    0.0000 C   0  0  0  0  0  0  0  0  0  0  0  0
    2.0503   -0.7097    0.0000 C   0  0  0  0  0  0  0  0  0  0  0  0
    2.0766   -2.1292    0.0000 C   0  0  0  0  0  0  0  0  0  0  0  0
    1.1566   -3.5749    0.0000 C   0  0  0  0  0  0  0  0  0  0  0  0
    1.8401   -4.7053    0.0000 C   0  0  0  0  0  0  0  0  0  0  0  0
    4.5475   -2.1292    0.0000 C   0  0  0  0  0  0  0  0  0  0  0  0
    1.2355   -0.7097    0.0000 C   0  0  0  0  0  0  0  0  0  0  0  0
    1.2617   -2.1555    0.0000 C   0  0  0  0  0  0  0  0  0  0  0  0
    5.3624   -0.6309    0.0000 C   0  0  0  0  0  0  0  0  0  0  0  0
    5.3624   -2.0766    0.0000 C   0  0  0  0  0  0  0  0  0  0  0  0
    0.8412   -1.4195    0.0000 C   0  0  0  0  0  0  0  0  0  0  0  0
    5.7567   -1.3669    0.0000 C   0  0  0  0  0  0  0  0  0  0  0  0
    0.9726   -2.7601    0.0000 C   0  0  0  0  0  0  0  0  0  0  0  0
    2.4446   -5.2573    0.0000 C   0  0  0  0  0  0  0  0  0  0  0  0
    0.0000    0.0000    0.0000 C   0  0  0  0  0  0  0  0  0  0  0  0
  1  9  1  0  0  0  0
  2  8  1  0  0  0  0
  2 22  1  0  0  0  0
  3 19  2  0  0  0  0
  4 25  1  0  0  0  0
  4 33  1  0  0  0  0
  5 11  1  0  0  0  0
  5 19  1  0  0  0  0
  6 12  1  0  0  0  0
  6 19  1  0  0  0  0
  7 14  1  0  0  0  0
  7 27  2  0  0  0  0
  8 23  2  0  0  0  0
  9 10  1  0  0  0  0
  9 13  1  0  0  0  0
  9 14  1  0  0  0  0
 10 11  1  0  0  0  0
 10 16  2  0  0  0  0
 11 12  2  0  0  0  0
 12 17  1  0  0  0  0
 13 20  1  0  0  0  0
 13 21  2  0  0  0  0
 14 24  2  0  0  0  0
 15 16  1  0  0  0  0
 15 17  2  0  0  0  0
 15 18  1  0  0  0  0
 18 22  2  0  0  0  0
 18 23  1  0  0  0  0
 20 25  2  0  0  0  0
 21 26  1  0  0  0  0
 22 31  1  0  0  0  0
 23 32  1  0  0  0  0
 24 28  1  0  0  0  0
 25 29  1  0  0  0  0
 26 29  2  0  0  0  0
 27 30  1  0  0  0  0
 28 30  2  0  0  0  0
M  END
> <PUBCHEM_COMPOUND_ID_TYPE>
0

> <PUBCHEM_TOTAL_CHARGE>
0

> <PUBCHEM_SUBSTANCE_ID>
310933608

> <PUBCHEM_SUBSTANCE_VERSION>
1

> <PUBCHEM_EXT_DATASOURCE_NAME>
4488

> <PUBCHEM_EXT_DATASOURCE_REGID>
SCHEMBL16111037

> <PUBCHEM_SUBSTANCE_COMMENT>
InChI=1S/C25H22N4O4/c1-14-22(15(2)33-29-14)16-11-19(23-20(12-16)27-24(30)28-23)25(31,21-9-4-5-10-26-21)17-7-6-8-18(13-17)32-3/h4-13,31H,1-3H3,(H2,27,28,30)
InChIKey=RAXMAAWUXCQMOR-UHFFFAOYSA-N

> <PUBCHEM_SUBSTANCE_SYNONYM>
SCHEMBL16111037

> <PUBCHEM_XREF_EXT_ID>
SCHEMBL16111037

> <PUBCHEM_EXT_DATASOURCE_URL>
https://www.surechembl.org/

> <PUBCHEM_EXT_SUBSTANCE_URL>
https://www.surechembl.org/chemical/SCHEMBL16111037

> <PUBCHEM_CID_ASSOCIATIONS>
117601985  1

> <PUBCHEM_COORDINATE_TYPE>
1
3

$$$$
