310944738
  -OEChem-07211613022D

  9  9  0     1  0  0  0  0  0999 V2000
   -0.3621    1.6354    0.0000 O   0  0  0  0  0  0  0  0  0  0  0  0
   -0.3621   -0.8012    0.0000 N   0  0  3  0  0  0  0  0  0  0  0  0
   -1.0866    0.4280    0.0000 N   0  0  0  0  0  0  0  0  0  0  0  0
    1.0866    0.8451    0.0000 N   0  0  0  0  0  0  0  0  0  0  0  0
    1.0866   -0.8012    0.0000 N   0  0  0  0  0  0  0  0  0  0  0  0
    0.3621    0.4500    0.0000 C   0  0  0  0  0  0  0  0  0  0  0  0
    0.3402   -0.3621    0.0000 C   0  0  0  0  0  0  0  0  0  0  0  0
   -0.3621    0.8451    0.0000 C   0  0  0  0  0  0  0  0  0  0  0  0
   -0.3183   -1.6354    0.0000 C   0  0  0  0  0  0  0  0  0  0  0  0
  1  8  2  0  0  0  0
  2  3  1  0  0  0  0
  2  7  1  0  0  0  0
  2  9  1  0  0  0  0
  3  8  1  0  0  0  0
  4  6  1  0  0  0  0
  5  7  1  0  0  0  0
  6  7  2  0  0  0  0
  6  8  1  0  0  0  0
M  END
> <PUBCHEM_COMPOUND_ID_TYPE>
0

> <PUBCHEM_TOTAL_CHARGE>
0

> <PUBCHEM_SUBSTANCE_ID>
310944738

> <PUBCHEM_SUBSTANCE_VERSION>
1

> <PUBCHEM_EXT_DATASOURCE_NAME>
4488

> <PUBCHEM_EXT_DATASOURCE_REGID>
SCHEMBL16122817

> <PUBCHEM_SUBSTANCE_COMMENT>
InChI=1S/C4H8N4O/c1-8-3(6)2(5)4(9)7-8/h5-6H2,1H3,(H,7,9)
InChIKey=ZZRDEHPJSKUXFN-UHFFFAOYSA-N

> <PUBCHEM_SUBSTANCE_SYNONYM>
SCHEMBL16122817

> <PUBCHEM_XREF_EXT_ID>
SCHEMBL16122817

> <PUBCHEM_EXT_DATASOURCE_URL>
https://www.surechembl.org/

> <PUBCHEM_EXT_SUBSTANCE_URL>
https://www.surechembl.org/chemical/SCHEMBL16122817

> <PUBCHEM_CID_ASSOCIATIONS>
15345779  1

> <PUBCHEM_COORDINATE_TYPE>
1
3

> <PUBCHEM_BONDANNOTATIONS>
2  3  3

$$$$
