310946379
  -OEChem-07211613022D

 12 12  0     1  0  0  0  0  0999 V2000
    2.4728    3.6457    0.0000 N   0  0  0  0  0  0  0  0  0  0  0  0
    1.7583    1.5832    0.0000 C   0  0  3  0  0  0  0  0  0  0  0  0
    2.4728    2.8207    0.0000 C   0  0  3  0  0  0  0  0  0  0  0  0
    3.1872    2.4082    0.0000 C   0  0  3  0  0  0  0  0  0  0  0  0
    1.7583    2.4082    0.0000 C   0  0  0  0  0  0  0  0  0  0  0  0
    2.4728    1.1707    0.0000 C   0  0  0  0  0  0  0  0  0  0  0  0
    3.1872    1.5832    0.0000 C   0  0  0  0  0  0  0  0  0  0  0  0
    1.0438    1.1707    0.0000 C   0  0  0  0  0  0  0  0  0  0  0  0
    0.3294    1.5832    0.0000 C   0  0  0  0  0  0  0  0  0  0  0  0
    3.9017    2.8207    0.0000 C   0  0  0  0  0  0  0  0  0  0  0  0
    0.7419    2.2977    0.0000 C   0  0  0  0  0  0  0  0  0  0  0  0
   -0.0831    0.8687    0.0000 C   0  0  0  0  0  0  0  0  0  0  0  0
  1  3  1  0  0  0  0
  2  5  1  0  0  0  0
  2  6  1  0  0  0  0
  2  8  1  0  0  0  0
  3  4  1  0  0  0  0
  3  5  1  0  0  0  0
  4  7  1  0  0  0  0
  4 10  1  0  0  0  0
  6  7  1  0  0  0  0
  8  9  1  0  0  0  0
  9 11  1  0  0  0  0
  9 12  1  0  0  0  0
M  END
> <PUBCHEM_COMPOUND_ID_TYPE>
0

> <PUBCHEM_TOTAL_CHARGE>
0

> <PUBCHEM_SUBSTANCE_ID>
310946379

> <PUBCHEM_SUBSTANCE_VERSION>
1

> <PUBCHEM_EXT_DATASOURCE_NAME>
4488

> <PUBCHEM_EXT_DATASOURCE_REGID>
SCHEMBL16124498

> <PUBCHEM_SUBSTANCE_COMMENT>
InChI=1S/C11H23N/c1-8(2)6-10-5-4-9(3)11(12)7-10/h8-11H,4-7,12H2,1-3H3
InChIKey=BYVISORAIBNPHI-UHFFFAOYSA-N

> <PUBCHEM_SUBSTANCE_SYNONYM>
SCHEMBL16124498

> <PUBCHEM_XREF_EXT_ID>
SCHEMBL16124498

> <PUBCHEM_EXT_DATASOURCE_URL>
https://www.surechembl.org/

> <PUBCHEM_EXT_SUBSTANCE_URL>
https://www.surechembl.org/chemical/SCHEMBL16124498

> <PUBCHEM_CID_ASSOCIATIONS>
117612301  1

> <PUBCHEM_COORDINATE_TYPE>
1
3

> <PUBCHEM_BONDANNOTATIONS>
3  1  3
4  10  3
9  11  3
9  12  3

$$$$
