310932934
  -OEChem-07211613022D

 29 31  0     1  0  0  0  0  0999 V2000
    2.8537   -2.1244    0.0000 O   0  0  0  0  0  0  0  0  0  0  0  0
    0.1268   -2.3781    0.0000 O   0  0  0  0  0  0  0  0  0  0  0  0
    7.3562   -2.2196    0.0000 O   0  0  0  0  0  0  0  0  0  0  0  0
    8.0855   -5.9293    0.0000 O   0  0  0  0  0  0  0  0  0  0  0  0
    3.7732   -0.9829    0.0000 N   0  0  0  0  0  0  0  0  0  0  0  0
    3.6781   -0.1585    0.0000 N   0  0  0  0  0  0  0  0  0  0  0  0
    5.2000   -0.9829    0.0000 N   0  0  0  0  0  0  0  0  0  0  0  0
    0.0000   -0.9829    0.0000 N   0  0  0  0  0  0  0  0  0  0  0  0
    6.6586   -3.4562    0.0000 N   0  0  0  0  0  0  0  0  0  0  0  0
    2.4415   -0.6976    0.0000 C   0  0  0  0  0  0  0  0  0  0  0  0
    3.0122   -1.3000    0.0000 C   0  0  0  0  0  0  0  0  0  0  0  0
    4.4708   -1.3951    0.0000 C   0  0  0  0  0  0  0  0  0  0  0  0
    1.6488   -0.7927    0.0000 C   0  0  0  0  0  0  0  0  0  0  0  0
    2.8537    0.0000    0.0000 C   0  0  0  0  0  0  0  0  0  0  0  0
    4.4708   -2.2196    0.0000 C   0  0  0  0  0  0  0  0  0  0  0  0
    1.3000   -1.5854    0.0000 C   0  0  0  0  0  0  0  0  0  0  0  0
    5.9293   -2.2196    0.0000 C   0  0  0  0  0  0  0  0  0  0  0  0
    1.1732   -0.1585    0.0000 C   0  0  0  0  0  0  0  0  0  0  0  0
    5.9293   -1.3951    0.0000 C   0  0  0  0  0  0  0  0  0  0  0  0
    5.2000   -2.6318    0.0000 C   0  0  0  0  0  0  0  0  0  0  0  0
    0.4756   -1.6171    0.0000 C   0  0  0  0  0  0  0  0  0  0  0  0
    6.6586   -2.6318    0.0000 C   0  0  0  0  0  0  0  0  0  0  0  0
    0.3171   -0.1902    0.0000 C   0  0  0  0  0  0  0  0  0  0  0  0
    7.3562   -3.8684    0.0000 C   0  0  0  0  0  0  0  0  0  0  0  0
    7.3562   -4.6927    0.0000 C   0  0  3  0  0  0  0  0  0  0  0  0
    0.6024   -3.0440    0.0000 C   0  0  0  0  0  0  0  0  0  0  0  0
    8.0855   -5.1049    0.0000 C   0  0  0  0  0  0  0  0  0  0  0  0
    6.6586   -5.1049    0.0000 C   0  0  0  0  0  0  0  0  0  0  0  0
    8.8147   -6.3415    0.0000 C   0  0  0  0  0  0  0  0  0  0  0  0
  1 11  1  0  0  0  0
  2 21  1  0  0  0  0
  2 26  1  0  0  0  0
  3 22  2  0  0  0  0
  4 27  1  0  0  0  0
  4 29  1  0  0  0  0
  5  6  1  0  0  0  0
  5 11  1  0  0  0  0
  5 12  1  0  0  0  0
  6 14  2  0  0  0  0
  7 12  2  0  0  0  0
  7 19  1  0  0  0  0
  8 21  1  0  0  0  0
  8 23  2  0  0  0  0
  9 22  1  0  0  0  0
  9 24  1  0  0  0  0
 10 11  2  0  0  0  0
 10 13  1  0  0  0  0
 10 14  1  0  0  0  0
 12 15  1  0  0  0  0
 13 16  1  0  0  0  0
 13 18  2  0  0  0  0
 15 20  2  0  0  0  0
 16 21  2  0  0  0  0
 17 19  2  0  0  0  0
 17 20  1  0  0  0  0
 17 22  1  0  0  0  0
 18 23  1  0  0  0  0
 24 25  1  0  0  0  0
 25 27  1  0  0  0  0
 25 28  1  0  0  0  0
M  END
> <PUBCHEM_COMPOUND_ID_TYPE>
0

> <PUBCHEM_TOTAL_CHARGE>
0

> <PUBCHEM_SUBSTANCE_ID>
310932934

> <PUBCHEM_SUBSTANCE_VERSION>
1

> <PUBCHEM_EXT_DATASOURCE_NAME>
4488

> <PUBCHEM_EXT_DATASOURCE_REGID>
SCHEMBL16110329

> <PUBCHEM_SUBSTANCE_COMMENT>
InChI=1S/C20H23N5O4/c1-13(12-28-2)9-23-19(26)15-4-5-17(22-10-15)25-20(27)16(11-24-25)14-6-7-21-18(8-14)29-3/h4-8,10-11,13,27H,9,12H2,1-3H3,(H,23,26)
InChIKey=IWIPTOAELXCGOZ-UHFFFAOYSA-N

> <PUBCHEM_SUBSTANCE_SYNONYM>
SCHEMBL16110329

> <PUBCHEM_XREF_EXT_ID>
SCHEMBL16110329

> <PUBCHEM_EXT_DATASOURCE_URL>
https://www.surechembl.org/

> <PUBCHEM_EXT_SUBSTANCE_URL>
https://www.surechembl.org/chemical/SCHEMBL16110329

> <PUBCHEM_CID_ASSOCIATIONS>
117601415  1

> <PUBCHEM_COORDINATE_TYPE>
1
3

$$$$
