310931318
  -OEChem-07211613022D

 20 20  0     1  0  0  0  0  0999 V2000
    3.5870    0.0000    0.0000 O   0  0  0  0  0  0  0  0  0  0  0  0
    2.8646   -1.2455    0.0000 N   0  0  0  0  0  0  0  0  0  0  0  0
    4.3094   -2.0675    0.0000 N   0  0  0  0  0  0  0  0  0  0  0  0
    3.5870   -0.8220    0.0000 C   0  0  0  0  0  0  0  0  0  0  0  0
    4.3094   -1.2455    0.0000 C   0  0  3  0  0  0  0  0  0  0  0  0
    2.8646   -2.0675    0.0000 C   0  0  0  0  0  0  0  0  0  0  0  0
    5.0069   -0.8220    0.0000 C   0  0  0  0  0  0  0  0  0  0  0  0
    2.1422   -0.8220    0.0000 C   0  0  0  0  0  0  0  0  0  0  0  0
    1.4448   -3.7364    0.0000 C   0  0  0  0  0  0  0  0  0  0  0  0
    2.1422   -2.4910    0.0000 C   0  0  0  0  0  0  0  0  0  0  0  0
    2.1672   -3.3130    0.0000 C   0  0  0  0  0  0  0  0  0  0  0  0
    5.7293   -1.2455    0.0000 C   0  0  0  0  0  0  0  0  0  0  0  0
    1.4448   -4.5585    0.0000 C   0  0  0  0  0  0  0  0  0  0  0  0
    0.7224   -3.3379    0.0000 C   0  0  0  0  0  0  0  0  0  0  0  0
    0.7224   -4.9820    0.0000 C   0  0  0  0  0  0  0  0  0  0  0  0
    0.0249   -3.7364    0.0000 C   0  0  0  0  0  0  0  0  0  0  0  0
    1.4448   -1.2455    0.0000 C   0  0  0  0  0  0  0  0  0  0  0  0
    0.0000   -4.5585    0.0000 C   0  0  0  0  0  0  0  0  0  0  0  0
    6.4516   -0.8220    0.0000 C   0  0  0  0  0  0  0  0  0  0  0  0
    5.7293   -2.0675    0.0000 C   0  0  0  0  0  0  0  0  0  0  0  0
  1  4  2  0  0  0  0
  2  4  1  0  0  0  0
  2  6  1  0  0  0  0
  2  8  1  0  0  0  0
  3  5  1  0  0  0  0
  4  5  1  0  0  0  0
  5  7  1  0  0  0  0
  6 10  1  0  0  0  0
  7 12  1  0  0  0  0
  8 17  1  0  0  0  0
  9 11  1  0  0  0  0
  9 13  2  0  0  0  0
  9 14  1  0  0  0  0
 10 11  1  0  0  0  0
 12 19  1  0  0  0  0
 12 20  1  0  0  0  0
 13 15  1  0  0  0  0
 14 16  2  0  0  0  0
 15 18  2  0  0  0  0
 16 18  1  0  0  0  0
M  END
> <PUBCHEM_COMPOUND_ID_TYPE>
0

> <PUBCHEM_TOTAL_CHARGE>
0

> <PUBCHEM_SUBSTANCE_ID>
310931318

> <PUBCHEM_SUBSTANCE_VERSION>
1

> <PUBCHEM_EXT_DATASOURCE_NAME>
4488

> <PUBCHEM_EXT_DATASOURCE_REGID>
SCHEMBL16108636

> <PUBCHEM_SUBSTANCE_COMMENT>
InChI=1S/C17H28N2O/c1-4-19(17(20)16(18)13-14(2)3)12-8-11-15-9-6-5-7-10-15/h5-7,9-10,14,16H,4,8,11-13,18H2,1-3H3
InChIKey=VHAUYOUMVVHPLJ-UHFFFAOYSA-N

> <PUBCHEM_SUBSTANCE_SYNONYM>
SCHEMBL16108636

> <PUBCHEM_XREF_EXT_ID>
SCHEMBL16108636

> <PUBCHEM_EXT_DATASOURCE_URL>
https://www.surechembl.org/

> <PUBCHEM_EXT_SUBSTANCE_URL>
https://www.surechembl.org/chemical/SCHEMBL16108636

> <PUBCHEM_CID_ASSOCIATIONS>
117600133  1

> <PUBCHEM_COORDINATE_TYPE>
1
3

$$$$
