310945713
  -OEChem-07211613022D

 45 49  0     1  0  0  0  0  0999 V2000
   -3.8065    0.1734    0.0000 S   0  0  0  0  0  0  0  0  0  0  0  0
    6.1709   -1.0088    0.0000 O   0  0  0  0  0  0  0  0  0  0  0  0
    5.0360    0.9615    0.0000 O   0  0  0  0  0  0  0  0  0  0  0  0
    2.6717   -0.9930    0.0000 O   0  0  0  0  0  0  0  0  0  0  0  0
    0.5280    1.0719    0.0000 O   0  0  0  0  0  0  0  0  0  0  0  0
   -1.6313   -0.9930    0.0000 O   0  0  0  0  0  0  0  0  0  0  0  0
    4.8153    2.7426    0.0000 O   0  0  0  0  0  0  0  0  0  0  0  0
    3.3967    0.2522    0.0000 N   0  0  0  0  0  0  0  0  0  0  0  0
    1.2373   -0.1576    0.0000 N   0  0  0  0  0  0  0  0  0  0  0  0
   -5.1936   -0.3626    0.0000 N   0  0  0  0  0  0  0  0  0  0  0  0
   -3.9484   -1.1664    0.0000 N   0  0  0  0  0  0  0  0  0  0  0  0
   -0.9063    0.2522    0.0000 N   0  0  0  0  0  0  0  0  0  0  0  0
    5.7610   -0.2679    0.0000 C   0  0  3  0  0  0  0  0  0  0  0  0
    5.0360    0.1419    0.0000 C   0  0  0  0  0  0  0  0  0  0  0  0
    5.3513   -0.9773    0.0000 C   0  0  0  0  0  0  0  0  0  0  0  0
    4.3267   -0.2679    0.0000 C   0  0  3  0  0  0  0  0  0  0  0  0
    6.4861    0.1261    0.0000 C   0  0  0  0  0  0  0  0  0  0  0  0
    4.3110   -1.3398    0.0000 C   0  0  0  0  0  0  0  0  0  0  0  0
    2.6717   -0.1103    0.0000 C   0  0  0  0  0  0  0  0  0  0  0  0
    1.9466    0.2679    0.0000 C   0  0  3  0  0  0  0  0  0  0  0  0
    3.6174   -1.7496    0.0000 C   0  0  0  0  0  0  0  0  0  0  0  0
   -4.3582   -0.4256    0.0000 C   0  0  0  0  0  0  0  0  0  0  0  0
    1.9939    1.1191    0.0000 C   0  0  0  0  0  0  0  0  0  0  0  0
   -3.0500   -0.1419    0.0000 C   0  0  0  0  0  0  0  0  0  0  0  0
    0.5280    0.2522    0.0000 C   0  0  0  0  0  0  0  0  0  0  0  0
    2.8451   -1.4343    0.0000 C   0  0  0  0  0  0  0  0  0  0  0  0
    3.5229   -2.5692    0.0000 C   0  0  0  0  0  0  0  0  0  0  0  0
    2.6717    1.5131    0.0000 C   0  0  0  0  0  0  0  0  0  0  0  0
   -0.1813   -0.1261    0.0000 C   0  0  3  0  0  0  0  0  0  0  0  0
   -3.1446   -0.9773    0.0000 C   0  0  0  0  0  0  0  0  0  0  0  0
   -2.3407    0.2679    0.0000 C   0  0  0  0  0  0  0  0  0  0  0  0
   -1.6156   -0.1261    0.0000 C   0  0  0  0  0  0  0  0  0  0  0  0
    2.3249   -2.0333    0.0000 C   0  0  0  0  0  0  0  0  0  0  0  0
    2.7347   -2.7426    0.0000 C   0  0  0  0  0  0  0  0  0  0  0  0
   -5.6034    0.3783    0.0000 C   0  0  0  0  0  0  0  0  0  0  0  0
   -5.7296   -0.9457    0.0000 C   0  0  0  0  0  0  0  0  0  0  0  0
    3.3967    1.1191    0.0000 C   0  0  0  0  0  0  0  0  0  0  0  0
    2.7032    2.3486    0.0000 C   0  0  0  0  0  0  0  0  0  0  0  0
   -6.3915    0.2049    0.0000 C   0  0  0  0  0  0  0  0  0  0  0  0
   -6.4861   -0.6147    0.0000 C   0  0  0  0  0  0  0  0  0  0  0  0
    4.1218    2.3486    0.0000 C   0  0  0  0  0  0  0  0  0  0  0  0
    4.1060    1.5131    0.0000 C   0  0  0  0  0  0  0  0  0  0  0  0
    3.3967    2.7426    0.0000 C   0  0  0  0  0  0  0  0  0  0  0  0
   -0.1655   -0.9773    0.0000 C   0  0  0  0  0  0  0  0  0  0  0  0
    5.5562    2.3171    0.0000 C   0  0  0  0  0  0  0  0  0  0  0  0
  1 22  1  0  0  0  0
  1 24  1  0  0  0  0
  2 13  1  0  0  0  0
  2 15  1  0  0  0  0
  3 14  2  0  0  0  0
  4 19  2  0  0  0  0
  5 25  2  0  0  0  0
  6 32  2  0  0  0  0
  7 41  1  0  0  0  0
  7 45  1  0  0  0  0
  8 16  1  0  0  0  0
  8 19  1  0  0  0  0
  9 20  1  0  0  0  0
  9 25  1  0  0  0  0
 10 22  1  0  0  0  0
 10 35  1  0  0  0  0
 10 36  1  0  0  0  0
 11 22  2  0  0  0  0
 11 30  1  0  0  0  0
 12 29  1  0  0  0  0
 12 32  1  0  0  0  0
 13 14  1  0  0  0  0
 13 15  1  0  0  0  0
 13 17  1  0  0  0  0
 14 16  1  0  0  0  0
 16 18  1  0  0  0  0
 18 21  1  0  0  0  0
 19 20  1  0  0  0  0
 20 23  1  0  0  0  0
 21 26  2  0  0  0  0
 21 27  1  0  0  0  0
 23 28  1  0  0  0  0
 24 30  2  0  0  0  0
 24 31  1  0  0  0  0
 25 29  1  0  0  0  0
 26 33  1  0  0  0  0
 27 34  1  0  0  0  0
 28 37  2  0  0  0  0
 28 38  1  0  0  0  0
 29 44  1  0  0  0  0
 31 32  1  0  0  0  0
 33 34  1  0  0  0  0
 35 39  1  0  0  0  0
 36 40  1  0  0  0  0
 37 42  1  0  0  0  0
 38 43  2  0  0  0  0
 39 40  1  0  0  0  0
 41 42  2  0  0  0  0
 41 43  1  0  0  0  0
M  END
> <PUBCHEM_COMPOUND_ID_TYPE>
0

> <PUBCHEM_TOTAL_CHARGE>
0

> <PUBCHEM_SUBSTANCE_ID>
310945713

> <PUBCHEM_SUBSTANCE_VERSION>
1

> <PUBCHEM_EXT_DATASOURCE_NAME>
4488

> <PUBCHEM_EXT_DATASOURCE_REGID>
SCHEMBL16123814

> <PUBCHEM_SUBSTANCE_COMMENT>
InChI=1S/C33H43N5O6S/c1-21(35-28(39)18-25-19-34-32(45-25)38-14-6-7-15-38)30(41)37-27(17-23-10-12-24(43-3)13-11-23)31(42)36-26(16-22-8-4-5-9-22)29(40)33(2)20-44-33/h8,10-13,19,21,26-27H,4-7,9,14-18,20H2,1-3H3,(H,35,39)(H,36,42)(H,37,41)
InChIKey=VQUMLTJNIBDEKM-UHFFFAOYSA-N

> <PUBCHEM_SUBSTANCE_SYNONYM>
SCHEMBL16123814

> <PUBCHEM_XREF_EXT_ID>
SCHEMBL16123814

> <PUBCHEM_EXT_DATASOURCE_URL>
https://www.surechembl.org/

> <PUBCHEM_EXT_SUBSTANCE_URL>
https://www.surechembl.org/chemical/SCHEMBL16123814

> <PUBCHEM_CID_ASSOCIATIONS>
117611710  1

> <PUBCHEM_COORDINATE_TYPE>
1
3

$$$$
