310947879
  -OEChem-07211613022D

 24 26  0     1  0  0  0  0  0999 V2000
    1.0603   -0.4008    0.0000 F   0  0  0  0  0  0  0  0  0  0  0  0
    2.0707   -0.9842    0.0000 F   0  0  0  0  0  0  0  0  0  0  0  0
    2.6541    0.0262    0.0000 F   0  0  0  0  0  0  0  0  0  0  0  0
    0.1693    0.2962    0.0000 N   0  0  0  0  0  0  0  0  0  0  0  0
    2.1957    1.2227    0.0000 N   0  0  0  0  0  0  0  0  0  0  0  0
   -0.5452   -1.7663    0.0000 N   0  0  0  0  0  0  0  0  0  0  0  0
    0.8367    0.7811    0.0000 C   0  0  0  0  0  0  0  0  0  0  0  0
    0.5818    1.5657    0.0000 C   0  0  0  0  0  0  0  0  0  0  0  0
   -0.4982    0.7811    0.0000 C   0  0  0  0  0  0  0  0  0  0  0  0
   -0.2432    1.5657    0.0000 C   0  0  0  0  0  0  0  0  0  0  0  0
    1.6437    0.6096    0.0000 C   0  0  0  0  0  0  0  0  0  0  0  0
    1.8572   -0.1873    0.0000 C   0  0  0  0  0  0  0  0  0  0  0  0
    1.1338    2.1788    0.0000 C   0  0  0  0  0  0  0  0  0  0  0  0
   -1.3052    0.6096    0.0000 C   0  0  0  0  0  0  0  0  0  0  0  0
    0.1693   -0.5288    0.0000 C   0  0  0  0  0  0  0  0  0  0  0  0
   -0.7953    2.1788    0.0000 C   0  0  0  0  0  0  0  0  0  0  0  0
    1.9408    2.0073    0.0000 C   0  0  0  0  0  0  0  0  0  0  0  0
   -1.8572    1.2227    0.0000 C   0  0  0  0  0  0  0  0  0  0  0  0
   -1.6023    2.0073    0.0000 C   0  0  0  0  0  0  0  0  0  0  0  0
   -0.5452   -0.9413    0.0000 C   0  0  3  0  0  0  0  0  0  0  0  0
   -2.6541    1.0091    0.0000 C   0  0  0  0  0  0  0  0  0  0  0  0
   -1.2597   -0.5288    0.0000 C   0  0  0  0  0  0  0  0  0  0  0  0
   -1.2597   -2.1788    0.0000 C   0  0  0  0  0  0  0  0  0  0  0  0
    0.1693   -2.1788    0.0000 C   0  0  0  0  0  0  0  0  0  0  0  0
  1 12  1  0  0  0  0
  2 12  1  0  0  0  0
  3 12  1  0  0  0  0
  4  7  1  0  0  0  0
  4  9  1  0  0  0  0
  4 15  1  0  0  0  0
  5 11  2  0  0  0  0
  5 17  1  0  0  0  0
  6 20  1  0  0  0  0
  6 23  1  0  0  0  0
  6 24  1  0  0  0  0
  7  8  2  0  0  0  0
  7 11  1  0  0  0  0
  8 10  1  0  0  0  0
  8 13  1  0  0  0  0
  9 10  1  0  0  0  0
  9 14  2  0  0  0  0
 10 16  2  0  0  0  0
 11 12  1  0  0  0  0
 13 17  2  0  0  0  0
 14 18  1  0  0  0  0
 15 20  1  0  0  0  0
 16 19  1  0  0  0  0
 18 19  2  0  0  0  0
 18 21  1  0  0  0  0
 20 22  1  0  0  0  0
M  END
> <PUBCHEM_COMPOUND_ID_TYPE>
0

> <PUBCHEM_TOTAL_CHARGE>
0

> <PUBCHEM_SUBSTANCE_ID>
310947879

> <PUBCHEM_SUBSTANCE_VERSION>
1

> <PUBCHEM_EXT_DATASOURCE_NAME>
4488

> <PUBCHEM_EXT_DATASOURCE_REGID>
SCHEMBL16126053

> <PUBCHEM_SUBSTANCE_COMMENT>
InChI=1S/C18H20F3N3/c1-11-5-6-13-14-7-8-22-17(18(19,20)21)16(14)24(15(13)9-11)10-12(2)23(3)4/h5-9,12H,10H2,1-4H3
InChIKey=JVRUPCCIRLFSJA-UHFFFAOYSA-N

> <PUBCHEM_SUBSTANCE_SYNONYM>
SCHEMBL16126053

> <PUBCHEM_XREF_EXT_ID>
SCHEMBL16126053

> <PUBCHEM_EXT_DATASOURCE_URL>
https://www.surechembl.org/

> <PUBCHEM_EXT_SUBSTANCE_URL>
https://www.surechembl.org/chemical/SCHEMBL16126053

> <PUBCHEM_CID_ASSOCIATIONS>
117613543  1

> <PUBCHEM_COORDINATE_TYPE>
1
3

$$$$
