310939641
  -OEChem-07211613022D

 33 36  0     1  0  0  0  0  0999 V2000
   -1.7862    1.9709    0.0000 O   0  0  0  0  0  0  0  0  0  0  0  0
   -3.2151    1.1459    0.0000 O   0  0  0  0  0  0  0  0  0  0  0  0
    1.0717    1.1459    0.0000 N   0  0  0  0  0  0  0  0  0  0  0  0
    2.5006    1.1459    0.0000 N   0  0  0  0  0  0  0  0  0  0  0  0
    3.2151    2.3834    0.0000 N   0  0  3  0  0  0  0  0  0  0  0  0
    1.0717   -1.3291    0.0000 N   0  0  0  0  0  0  0  0  0  0  0  0
   -4.6441    1.9709    0.0000 N   0  0  0  0  0  0  0  0  0  0  0  0
    1.0717    1.9709    0.0000 C   0  0  0  0  0  0  0  0  0  0  0  0
    2.5006    1.9709    0.0000 C   0  0  0  0  0  0  0  0  0  0  0  0
    1.7862    0.7334    0.0000 C   0  0  0  0  0  0  0  0  0  0  0  0
    0.3572    2.3834    0.0000 C   0  0  0  0  0  0  0  0  0  0  0  0
    1.7862    2.3834    0.0000 C   0  0  0  0  0  0  0  0  0  0  0  0
    1.7862   -0.0916    0.0000 C   0  0  0  0  0  0  0  0  0  0  0  0
    3.9296    1.9709    0.0000 C   0  0  0  0  0  0  0  0  0  0  0  0
   -0.3572    1.9709    0.0000 C   0  0  0  0  0  0  0  0  0  0  0  0
    0.3572    3.2084    0.0000 C   0  0  0  0  0  0  0  0  0  0  0  0
   -1.0717    2.3834    0.0000 C   0  0  0  0  0  0  0  0  0  0  0  0
    1.0717   -0.5041    0.0000 C   0  0  0  0  0  0  0  0  0  0  0  0
    2.5006   -0.5041    0.0000 C   0  0  0  0  0  0  0  0  0  0  0  0
   -0.3572    3.6209    0.0000 C   0  0  0  0  0  0  0  0  0  0  0  0
   -1.0717    3.2084    0.0000 C   0  0  0  0  0  0  0  0  0  0  0  0
    4.6441    2.3834    0.0000 C   0  0  0  0  0  0  0  0  0  0  0  0
    3.9296    1.1459    0.0000 C   0  0  0  0  0  0  0  0  0  0  0  0
    3.2151    3.2084    0.0000 C   0  0  0  0  0  0  0  0  0  0  0  0
    2.5006   -1.3291    0.0000 C   0  0  0  0  0  0  0  0  0  0  0  0
    1.7862   -1.7416    0.0000 C   0  0  0  0  0  0  0  0  0  0  0  0
    4.6441    0.7334    0.0000 C   0  0  0  0  0  0  0  0  0  0  0  0
    5.3585    1.9709    0.0000 C   0  0  0  0  0  0  0  0  0  0  0  0
    5.3585    1.1459    0.0000 C   0  0  0  0  0  0  0  0  0  0  0  0
   -2.5007    2.3834    0.0000 C   0  0  0  0  0  0  0  0  0  0  0  0
   -3.2151    1.9709    0.0000 C   0  0  3  0  0  0  0  0  0  0  0  0
   -3.9296    2.3834    0.0000 C   0  0  0  0  0  0  0  0  0  0  0  0
   -5.3585    2.3834    0.0000 C   0  0  0  0  0  0  0  0  0  0  0  0
  1 17  1  0  0  0  0
  1 30  1  0  0  0  0
  2 31  1  0  0  0  0
  3  8  2  0  0  0  0
  3 10  1  0  0  0  0
  4  9  1  0  0  0  0
  4 10  2  0  0  0  0
  5  9  1  0  0  0  0
  5 14  1  0  0  0  0
  5 24  1  0  0  0  0
  6 18  1  0  0  0  0
  6 26  2  0  0  0  0
  7 32  1  0  0  0  0
  7 33  1  0  0  0  0
  8 11  1  0  0  0  0
  8 12  1  0  0  0  0
  9 12  2  0  0  0  0
 10 13  1  0  0  0  0
 11 15  2  0  0  0  0
 11 16  1  0  0  0  0
 13 18  2  0  0  0  0
 13 19  1  0  0  0  0
 14 22  1  0  0  0  0
 14 23  1  0  0  0  0
 15 17  1  0  0  0  0
 16 20  2  0  0  0  0
 17 21  2  0  0  0  0
 19 25  2  0  0  0  0
 20 21  1  0  0  0  0
 22 28  1  0  0  0  0
 23 27  1  0  0  0  0
 25 26  1  0  0  0  0
 27 29  1  0  0  0  0
 28 29  1  0  0  0  0
 30 31  1  0  0  0  0
 31 32  1  0  0  0  0
M  END
> <PUBCHEM_COMPOUND_ID_TYPE>
0

> <PUBCHEM_TOTAL_CHARGE>
0

> <PUBCHEM_SUBSTANCE_ID>
310939641

> <PUBCHEM_SUBSTANCE_VERSION>
1

> <PUBCHEM_EXT_DATASOURCE_NAME>
4488

> <PUBCHEM_EXT_DATASOURCE_REGID>
SCHEMBL16117571

> <PUBCHEM_SUBSTANCE_COMMENT>
InChI=1S/C26H33N5O2/c1-27-17-22(32)18-33-23-12-6-8-19(14-23)24-15-25(31(2)21-10-4-3-5-11-21)30-26(29-24)20-9-7-13-28-16-20/h6-9,12-16,21-22,27,32H,3-5,10-11,17-18H2,1-2H3
InChIKey=JXYMUIJUXIVGCP-UHFFFAOYSA-N

> <PUBCHEM_SUBSTANCE_SYNONYM>
SCHEMBL16117571

> <PUBCHEM_XREF_EXT_ID>
SCHEMBL16117571

> <PUBCHEM_EXT_DATASOURCE_URL>
https://www.surechembl.org/

> <PUBCHEM_EXT_SUBSTANCE_URL>
https://www.surechembl.org/chemical/SCHEMBL16117571

> <PUBCHEM_CID_ASSOCIATIONS>
117606880  1

> <PUBCHEM_COORDINATE_TYPE>
1
3

$$$$
