310943708
  -OEChem-07211613022D

 26 28  0     1  0  0  0  0  0999 V2000
    0.7563    1.2812    0.0000 F   0  0  0  0  0  0  0  0  0  0  0  0
    3.7937    2.2312    0.0000 O   0  0  0  0  0  0  0  0  0  0  0  0
   -1.9187   -1.3312    0.0000 N   0  0  3  0  0  0  0  0  0  0  0  0
    2.5812   -2.2312    0.0000 N   0  0  0  0  0  0  0  0  0  0  0  0
   -3.7062   -0.7812    0.0000 N   0  0  3  0  0  0  0  0  0  0  0  0
    0.9438   -0.4562    0.0000 C   0  0  0  0  0  0  0  0  0  0  0  0
    1.6562   -0.0438    0.0000 C   0  0  0  0  0  0  0  0  0  0  0  0
    0.9562   -1.2937    0.0000 C   0  0  0  0  0  0  0  0  0  0  0  0
    1.6562    0.7812    0.0000 C   0  0  0  0  0  0  0  0  0  0  0  0
   -0.4813   -1.2937    0.0000 C   0  0  0  0  0  0  0  0  0  0  0  0
    0.2188   -0.0687    0.0000 C   0  0  0  0  0  0  0  0  0  0  0  0
    0.2437   -1.7062    0.0000 C   0  0  0  0  0  0  0  0  0  0  0  0
    2.3812   -0.4562    0.0000 C   0  0  0  0  0  0  0  0  0  0  0  0
   -0.4813   -0.4813    0.0000 C   0  0  0  0  0  0  0  0  0  0  0  0
    2.3562    1.1812    0.0000 C   0  0  0  0  0  0  0  0  0  0  0  0
    3.1062    0.7937    0.0000 C   0  0  0  0  0  0  0  0  0  0  0  0
    3.0937   -0.0438    0.0000 C   0  0  0  0  0  0  0  0  0  0  0  0
   -1.1812   -1.7188    0.0000 C   0  0  0  0  0  0  0  0  0  0  0  0
    1.8563   -1.8187    0.0000 C   0  0  0  0  0  0  0  0  0  0  0  0
    3.7937    1.1812    0.0000 C   0  0  0  0  0  0  0  0  0  0  0  0
   -2.5937   -1.7937    0.0000 C   0  0  0  0  0  0  0  0  0  0  0  0
   -1.8563   -0.5062    0.0000 C   0  0  0  0  0  0  0  0  0  0  0  0
   -3.3937   -1.5437    0.0000 C   0  0  0  0  0  0  0  0  0  0  0  0
   -2.4562    0.0562    0.0000 C   0  0  0  0  0  0  0  0  0  0  0  0
   -3.2937   -0.0562    0.0000 C   0  0  0  0  0  0  0  0  0  0  0  0
   -4.5311   -0.7937    0.0000 C   0  0  0  0  0  0  0  0  0  0  0  0
  1  9  1  0  0  0  0
  2 20  2  0  0  0  0
  3 18  1  0  0  0  0
  3 21  1  0  0  0  0
  3 22  1  0  0  0  0
  4 19  3  0  0  0  0
  5 23  1  0  0  0  0
  5 25  1  0  0  0  0
  5 26  1  0  0  0  0
  6  7  1  0  0  0  0
  6  8  1  0  0  0  0
  6 11  2  0  0  0  0
  7  9  1  0  0  0  0
  7 13  2  0  0  0  0
  8 12  2  0  0  0  0
  8 19  1  0  0  0  0
  9 15  2  0  0  0  0
 10 12  1  0  0  0  0
 10 14  2  0  0  0  0
 10 18  1  0  0  0  0
 11 14  1  0  0  0  0
 13 17  1  0  0  0  0
 15 16  1  0  0  0  0
 16 17  2  0  0  0  0
 16 20  1  0  0  0  0
 21 23  1  0  0  0  0
 22 24  1  0  0  0  0
 24 25  1  0  0  0  0
M  END
> <PUBCHEM_COMPOUND_ID_TYPE>
0

> <PUBCHEM_TOTAL_CHARGE>
0

> <PUBCHEM_SUBSTANCE_ID>
310943708

> <PUBCHEM_SUBSTANCE_VERSION>
1

> <PUBCHEM_EXT_DATASOURCE_NAME>
4488

> <PUBCHEM_EXT_DATASOURCE_REGID>
SCHEMBL16121776

> <PUBCHEM_SUBSTANCE_COMMENT>
InChI=1S/C21H22FN3O/c1-24-7-2-8-25(10-9-24)14-16-3-5-19(18(11-16)13-23)20-6-4-17(15-26)12-21(20)22/h3-6,11-12,15H,2,7-10,14H2,1H3
InChIKey=JCPHNZGJBMVMFJ-UHFFFAOYSA-N

> <PUBCHEM_SUBSTANCE_SYNONYM>
SCHEMBL16121776

> <PUBCHEM_XREF_EXT_ID>
SCHEMBL16121776

> <PUBCHEM_EXT_DATASOURCE_URL>
https://www.surechembl.org/

> <PUBCHEM_EXT_SUBSTANCE_URL>
https://www.surechembl.org/chemical/SCHEMBL16121776

> <PUBCHEM_CID_ASSOCIATIONS>
86300900  1

> <PUBCHEM_COORDINATE_TYPE>
1
3

$$$$
