310942604
  -OEChem-07211613022D

 17 17  0     1  0  0  0  0  0999 V2000
   -2.1495   -0.3832    0.0000 S   0  0  3  0  0  0  0  0  0  0  0  0
   -2.1495   -1.2025    0.0000 O   0  0  0  0  0  0  0  0  0  0  0  0
   -0.7136   -0.3920    0.0000 N   0  0  0  0  0  0  0  0  0  0  0  0
   -1.4360    0.8413    0.0000 N   0  0  0  0  0  0  0  0  0  0  0  0
    0.7224   -0.3920    0.0000 N   0  0  0  0  0  0  0  0  0  0  0  0
    2.8719    1.6342    0.0000 N   0  0  0  0  0  0  0  0  0  0  0  0
    0.0000    0.0221    0.0000 C   0  0  0  0  0  0  0  0  0  0  0  0
    0.0088    0.8325    0.0000 C   0  0  0  0  0  0  0  0  0  0  0  0
   -1.4360    0.0221    0.0000 C   0  0  0  0  0  0  0  0  0  0  0  0
   -0.7224    1.2466    0.0000 C   0  0  0  0  0  0  0  0  0  0  0  0
    0.7136    1.2466    0.0000 C   0  0  0  0  0  0  0  0  0  0  0  0
    0.7224   -1.2025    0.0000 C   0  0  0  0  0  0  0  0  0  0  0  0
    1.4360    0.8413    0.0000 C   0  0  0  0  0  0  0  0  0  0  0  0
   -2.8719    0.0044    0.0000 C   0  0  0  0  0  0  0  0  0  0  0  0
    0.0088   -1.6165    0.0000 C   0  0  0  0  0  0  0  0  0  0  0  0
    1.4536   -1.6342    0.0000 C   0  0  0  0  0  0  0  0  0  0  0  0
    2.1584    1.2466    0.0000 C   0  0  0  0  0  0  0  0  0  0  0  0
  1  2  2  0  0  0  0
  1  9  1  0  0  0  0
  1 14  1  0  0  0  0
  3  7  2  0  0  0  0
  3  9  1  0  0  0  0
  4  9  2  0  0  0  0
  4 10  1  0  0  0  0
  5  7  1  0  0  0  0
  5 12  1  0  0  0  0
  6 17  3  0  0  0  0
  7  8  1  0  0  0  0
  8 10  2  0  0  0  0
  8 11  1  0  0  0  0
 11 13  2  0  0  0  0
 12 15  1  0  0  0  0
 12 16  1  0  0  0  0
 13 17  1  0  0  0  0
M  END
> <PUBCHEM_COMPOUND_ID_TYPE>
0

> <PUBCHEM_TOTAL_CHARGE>
0

> <PUBCHEM_SUBSTANCE_ID>
310942604

> <PUBCHEM_SUBSTANCE_VERSION>
1

> <PUBCHEM_EXT_DATASOURCE_NAME>
4488

> <PUBCHEM_EXT_DATASOURCE_REGID>
SCHEMBL16120650

> <PUBCHEM_SUBSTANCE_COMMENT>
InChI=1S/C11H14N4OS/c1-8(2)14-10-9(5-4-6-12)7-13-11(15-10)17(3)16/h4-5,7-8H,1-3H3,(H,13,14,15)/b5-4+
InChIKey=JOPRQSPGYJKPIW-SNAWJCMRSA-N

> <PUBCHEM_SUBSTANCE_SYNONYM>
SCHEMBL16120650

> <PUBCHEM_XREF_EXT_ID>
SCHEMBL16120650

> <PUBCHEM_EXT_DATASOURCE_URL>
https://www.surechembl.org/

> <PUBCHEM_EXT_SUBSTANCE_URL>
https://www.surechembl.org/chemical/SCHEMBL16120650

> <PUBCHEM_CID_ASSOCIATIONS>
90466932  1

> <PUBCHEM_COORDINATE_TYPE>
1
3

$$$$
