310946794
  -OEChem-07211613022D

 40 43  0     1  0  0  0  0  0999 V2000
   -4.3523   -0.4325    0.0000 O   0  0  0  0  0  0  0  0  0  0  0  0
   -3.3419   -1.4430    0.0000 O   0  0  0  0  0  0  0  0  0  0  0  0
    4.3523    0.9594    0.0000 O   0  0  0  0  0  0  0  0  0  0  0  0
    3.3419    1.9698    0.0000 O   0  0  0  0  0  0  0  0  0  0  0  0
   -2.9720   -0.0627    0.0000 N   0  0  0  0  0  0  0  0  0  0  0  0
    1.5795   -0.6467    0.0000 N   0  0  0  0  0  0  0  0  0  0  0  0
    0.7949   -0.9017    0.0000 N   0  0  0  0  0  0  0  0  0  0  0  0
   -3.0583    0.7578    0.0000 N   0  0  0  0  0  0  0  0  0  0  0  0
    1.1647    1.8135    0.0000 N   0  0  3  0  0  0  0  0  0  0  0  0
    2.9720    0.5895    0.0000 N   0  0  0  0  0  0  0  0  0  0  0  0
    0.3100   -0.2342    0.0000 C   0  0  0  0  0  0  0  0  0  0  0  0
   -2.1650   -0.2342    0.0000 C   0  0  0  0  0  0  0  0  0  0  0  0
   -0.5150   -0.2342    0.0000 C   0  0  0  0  0  0  0  0  0  0  0  0
   -1.7525    0.4802    0.0000 C   0  0  0  0  0  0  0  0  0  0  0  0
    0.7949    0.4332    0.0000 C   0  0  0  0  0  0  0  0  0  0  0  0
   -0.9275    0.4802    0.0000 C   0  0  0  0  0  0  0  0  0  0  0  0
   -1.7525   -0.9487    0.0000 C   0  0  0  0  0  0  0  0  0  0  0  0
   -0.9275   -0.9487    0.0000 C   0  0  0  0  0  0  0  0  0  0  0  0
    1.5795    0.1783    0.0000 C   0  0  0  0  0  0  0  0  0  0  0  0
   -2.3046    1.0933    0.0000 C   0  0  0  0  0  0  0  0  0  0  0  0
   -3.5554   -0.6461    0.0000 C   0  0  0  0  0  0  0  0  0  0  0  0
    2.1629   -1.2301    0.0000 C   0  0  0  0  0  0  0  0  0  0  0  0
    0.5814    1.2301    0.0000 C   0  0  0  0  0  0  0  0  0  0  0  0
    1.9493   -2.0270    0.0000 C   0  0  0  0  0  0  0  0  0  0  0  0
    2.9597   -1.0166    0.0000 C   0  0  0  0  0  0  0  0  0  0  0  0
   -4.9356   -1.0159    0.0000 C   0  0  0  0  0  0  0  0  0  0  0  0
    2.5327   -2.6103    0.0000 C   0  0  0  0  0  0  0  0  0  0  0  0
    3.5431   -1.5999    0.0000 C   0  0  0  0  0  0  0  0  0  0  0  0
    1.9616    1.5999    0.0000 C   0  0  0  0  0  0  0  0  0  0  0  0
    3.3296   -2.3968    0.0000 C   0  0  0  0  0  0  0  0  0  0  0  0
    0.9512    2.6103    0.0000 C   0  0  0  0  0  0  0  0  0  0  0  0
   -5.5190   -1.5993    0.0000 C   0  0  0  0  0  0  0  0  0  0  0  0
   -4.7221   -1.8128    0.0000 C   0  0  0  0  0  0  0  0  0  0  0  0
   -5.7325   -0.8024    0.0000 C   0  0  0  0  0  0  0  0  0  0  0  0
    2.1751    0.8030    0.0000 C   0  0  0  0  0  0  0  0  0  0  0  0
    3.5554    1.1729    0.0000 C   0  0  0  0  0  0  0  0  0  0  0  0
    4.9356    1.5427    0.0000 C   0  0  0  0  0  0  0  0  0  0  0  0
    5.5190    2.1261    0.0000 C   0  0  0  0  0  0  0  0  0  0  0  0
    4.7221    2.3396    0.0000 C   0  0  0  0  0  0  0  0  0  0  0  0
    5.7325    1.3292    0.0000 C   0  0  0  0  0  0  0  0  0  0  0  0
  1 21  1  0  0  0  0
  1 26  1  0  0  0  0
  2 21  2  0  0  0  0
  3 36  1  0  0  0  0
  3 37  1  0  0  0  0
  4 36  2  0  0  0  0
  5  8  1  0  0  0  0
  5 12  1  0  0  0  0
  5 21  1  0  0  0  0
  6  7  1  0  0  0  0
  6 19  1  0  0  0  0
  6 22  1  0  0  0  0
  7 11  2  0  0  0  0
  8 20  2  0  0  0  0
  9 23  1  0  0  0  0
  9 29  1  0  0  0  0
  9 31  1  0  0  0  0
 10 35  1  0  0  0  0
 10 36  1  0  0  0  0
 11 13  1  0  0  0  0
 11 15  1  0  0  0  0
 12 14  2  0  0  0  0
 12 17  1  0  0  0  0
 13 16  2  0  0  0  0
 13 18  1  0  0  0  0
 14 16  1  0  0  0  0
 14 20  1  0  0  0  0
 15 19  2  0  0  0  0
 15 23  1  0  0  0  0
 17 18  2  0  0  0  0
 22 24  1  0  0  0  0
 22 25  1  0  0  0  0
 24 27  1  0  0  0  0
 25 28  1  0  0  0  0
 26 32  1  0  0  0  0
 26 33  1  0  0  0  0
 26 34  1  0  0  0  0
 27 30  1  0  0  0  0
 28 30  1  0  0  0  0
 29 35  1  0  0  0  0
 37 38  1  0  0  0  0
 37 39  1  0  0  0  0
 37 40  1  0  0  0  0
M  END
> <PUBCHEM_COMPOUND_ID_TYPE>
0

> <PUBCHEM_TOTAL_CHARGE>
0

> <PUBCHEM_SUBSTANCE_ID>
310946794

> <PUBCHEM_SUBSTANCE_VERSION>
1

> <PUBCHEM_EXT_DATASOURCE_NAME>
4488

> <PUBCHEM_EXT_DATASOURCE_REGID>
SCHEMBL16124918

> <PUBCHEM_SUBSTANCE_COMMENT>
InChI=1S/C30H44N6O4/c1-29(2,3)39-27(37)31-15-16-34(7)19-23-20-35(24-11-9-8-10-12-24)33-26(23)21-13-14-25-22(17-21)18-32-36(25)28(38)40-30(4,5)6/h13-14,17-18,20,24H,8-12,15-16,19H2,1-7H3,(H,31,37)
InChIKey=CTOMOMNAEWBKGF-UHFFFAOYSA-N

> <PUBCHEM_SUBSTANCE_SYNONYM>
SCHEMBL16124918

> <PUBCHEM_XREF_EXT_ID>
SCHEMBL16124918

> <PUBCHEM_EXT_DATASOURCE_URL>
https://www.surechembl.org/

> <PUBCHEM_EXT_SUBSTANCE_URL>
https://www.surechembl.org/chemical/SCHEMBL16124918

> <PUBCHEM_CID_ASSOCIATIONS>
117612655  1

> <PUBCHEM_COORDINATE_TYPE>
1
3

$$$$
