310946485
  -OEChem-07211613022D

 19 19  0     1  0  0  0  0  0999 V2000
   -6.5672  -13.9944    0.0000 O   0  0  0  0  0  0  0  0  0  0  0  0
   -7.9961  -13.9944    0.0000 O   0  0  0  0  0  0  0  0  0  0  0  0
   -7.6515  -17.4372    0.0000 O   0  0  0  0  0  0  0  0  0  0  0  0
   -8.3660  -16.1997    0.0000 O   0  0  0  0  0  0  0  0  0  0  0  0
   -7.2817  -15.2319    0.0000 N   0  0  0  0  0  0  0  0  0  0  0  0
   -6.3537  -13.1975    0.0000 C   0  0  0  0  0  0  0  0  0  0  0  0
   -7.2817  -14.4069    0.0000 C   0  0  0  0  0  0  0  0  0  0  0  0
   -5.9266  -11.6038    0.0000 C   0  0  0  0  0  0  0  0  0  0  0  0
   -7.0681  -16.0288    0.0000 C   0  0  3  0  0  0  0  0  0  0  0  0
   -5.5568  -12.9840    0.0000 C   0  0  0  0  0  0  0  0  0  0  0  0
   -6.9370  -12.6142    0.0000 C   0  0  0  0  0  0  0  0  0  0  0  0
   -5.3432  -12.1871    0.0000 C   0  0  0  0  0  0  0  0  0  0  0  0
   -6.7235  -11.8173    0.0000 C   0  0  0  0  0  0  0  0  0  0  0  0
   -7.6515  -16.6122    0.0000 C   0  0  0  0  0  0  0  0  0  0  0  0
   -5.7131  -10.8069    0.0000 C   0  0  0  0  0  0  0  0  0  0  0  0
   -6.2431  -16.0288    0.0000 C   0  0  0  0  0  0  0  0  0  0  0  0
   -4.9986  -10.3944    0.0000 C   0  0  0  0  0  0  0  0  0  0  0  0
   -4.9986   -9.5694    0.0000 C   0  0  0  0  0  0  0  0  0  0  0  0
   -4.2841   -9.1569    0.0000 C   0  0  0  0  0  0  0  0  0  0  0  0
  1  6  1  0  0  0  0
  1  7  1  0  0  0  0
  2  7  2  0  0  0  0
  3 14  2  0  0  0  0
  4 14  1  0  0  0  0
  5  7  1  0  0  0  0
  5  9  1  0  0  0  0
  6 10  2  0  0  0  0
  6 11  1  0  0  0  0
  8 12  2  0  0  0  0
  8 13  1  0  0  0  0
  8 15  1  0  0  0  0
  9 14  1  0  0  0  0
  9 16  1  0  0  0  0
 10 12  1  0  0  0  0
 11 13  2  0  0  0  0
 15 17  1  0  0  0  0
 17 18  1  0  0  0  0
 18 19  1  0  0  0  0
M  END
> <PUBCHEM_COMPOUND_ID_TYPE>
0

> <PUBCHEM_TOTAL_CHARGE>
0

> <PUBCHEM_SUBSTANCE_ID>
310946485

> <PUBCHEM_SUBSTANCE_VERSION>
1

> <PUBCHEM_EXT_DATASOURCE_NAME>
4488

> <PUBCHEM_EXT_DATASOURCE_REGID>
SCHEMBL16124606

> <PUBCHEM_SUBSTANCE_COMMENT>
InChI=1S/C14H19NO4/c1-3-4-5-11-6-8-12(9-7-11)19-14(18)15-10(2)13(16)17/h6-10H,3-5H2,1-2H3,(H,15,18)(H,16,17)
InChIKey=IXOQHMMCCLROPK-UHFFFAOYSA-N

> <PUBCHEM_SUBSTANCE_SYNONYM>
SCHEMBL16124606

> <PUBCHEM_XREF_EXT_ID>
SCHEMBL16124606

> <PUBCHEM_EXT_DATASOURCE_URL>
https://www.surechembl.org/

> <PUBCHEM_EXT_SUBSTANCE_URL>
https://www.surechembl.org/chemical/SCHEMBL16124606

> <PUBCHEM_CID_ASSOCIATIONS>
117612392  1

> <PUBCHEM_COORDINATE_TYPE>
1
3

$$$$
