310933043
  -OEChem-07211613022D

 13 13  0     1  0  0  0  0  0999 V2000
    0.0000   -2.0999    0.0000 O   0  0  0  0  0  0  0  0  0  0  0  0
    0.0000   -3.7498    0.0000 O   0  0  0  0  0  0  0  0  0  0  0  0
    2.1561    0.0000    0.0000 O   0  0  0  0  0  0  0  0  0  0  0  0
    2.8873   -1.2562    0.0000 O   0  0  0  0  0  0  0  0  0  0  0  0
    1.4436   -2.0812    0.0000 C   0  0  0  0  0  0  0  0  0  0  0  0
    0.7312   -2.5124    0.0000 C   0  0  3  0  0  0  0  0  0  0  0  0
    1.4436   -1.2562    0.0000 C   0  0  3  0  0  0  0  0  0  0  0  0
    0.7312   -3.3373    0.0000 C   0  0  3  0  0  0  0  0  0  0  0  0
    2.1561   -2.5124    0.0000 C   0  0  0  0  0  0  0  0  0  0  0  0
    2.1561   -0.8249    0.0000 C   0  0  0  0  0  0  0  0  0  0  0  0
    1.4436   -3.7498    0.0000 C   0  0  0  0  0  0  0  0  0  0  0  0
    2.1561   -3.3373    0.0000 C   0  0  0  0  0  0  0  0  0  0  0  0
    0.7312   -0.8249    0.0000 C   0  0  0  0  0  0  0  0  0  0  0  0
  1  6  1  0  0  0  0
  2  8  1  0  0  0  0
  3 10  2  0  0  0  0
  4 10  1  0  0  0  0
  5  6  1  0  0  0  0
  5  7  1  0  0  0  0
  5  9  2  0  0  0  0
  6  8  1  0  0  0  0
  7 10  1  0  0  0  0
  7 13  1  0  0  0  0
  8 11  1  0  0  0  0
  9 12  1  0  0  0  0
 11 12  2  0  0  0  0
M  END
> <PUBCHEM_COMPOUND_ID_TYPE>
0

> <PUBCHEM_TOTAL_CHARGE>
0

> <PUBCHEM_SUBSTANCE_ID>
310933043

> <PUBCHEM_SUBSTANCE_VERSION>
1

> <PUBCHEM_EXT_DATASOURCE_NAME>
4488

> <PUBCHEM_EXT_DATASOURCE_REGID>
SCHEMBL16110444

> <PUBCHEM_SUBSTANCE_COMMENT>
InChI=1S/C9H12O4/c1-5(9(12)13)6-3-2-4-7(10)8(6)11/h2-5,7-8,10-11H,1H3,(H,12,13)
InChIKey=VVVNXNZZTJUXDV-UHFFFAOYSA-N

> <PUBCHEM_SUBSTANCE_SYNONYM>
SCHEMBL16110444

> <PUBCHEM_XREF_EXT_ID>
SCHEMBL16110444

> <PUBCHEM_EXT_DATASOURCE_URL>
https://www.surechembl.org/

> <PUBCHEM_EXT_SUBSTANCE_URL>
https://www.surechembl.org/chemical/SCHEMBL16110444

> <PUBCHEM_CID_ASSOCIATIONS>
4488903  1

> <PUBCHEM_COORDINATE_TYPE>
1
3

$$$$
