310931990
  -OEChem-07211613022D

 26 27  0     1  0  0  0  0  0999 V2000
    3.8857   -1.5692    0.0000 Br  0  0  0  0  0  0  0  0  0  0  0  0
    1.2454    0.0000    0.0000 Br  0  0  0  0  0  0  0  0  0  0  0  0
    0.0000   -2.1172    0.0000 F   0  0  0  0  0  0  0  0  0  0  0  0
    0.0000   -4.9817    0.0000 F   0  0  0  0  0  0  0  0  0  0  0  0
    4.9318   -2.1172    0.0000 O   0  0  0  0  0  0  0  0  0  0  0  0
    3.7113   -1.4198    0.0000 O   0  0  0  0  0  0  0  0  0  0  0  0
    3.7113   -2.8395    0.0000 N   0  0  0  0  0  0  0  0  0  0  0  0
    1.6688   -2.1172    0.0000 N   0  0  0  0  0  0  0  0  0  0  0  0
    2.4659   -2.1172    0.0000 C   0  0  0  0  0  0  0  0  0  0  0  0
    2.8894   -2.8395    0.0000 C   0  0  3  0  0  0  0  0  0  0  0  0
    2.9143   -1.4198    0.0000 C   0  0  0  0  0  0  0  0  0  0  0  0
    2.4659   -3.5619    0.0000 C   0  0  0  0  0  0  0  0  0  0  0  0
    1.6439   -3.5619    0.0000 C   0  0  0  0  0  0  0  0  0  0  0  0
    2.4659   -0.6974    0.0000 C   0  0  0  0  0  0  0  0  0  0  0  0
    1.6688   -0.7224    0.0000 C   0  0  0  0  0  0  0  0  0  0  0  0
    4.1099   -2.1172    0.0000 C   0  0  0  0  0  0  0  0  0  0  0  0
    1.2205   -1.4198    0.0000 C   0  0  0  0  0  0  0  0  0  0  0  0
    1.2454   -4.2594    0.0000 C   0  0  0  0  0  0  0  0  0  0  0  0
    1.2454   -2.8395    0.0000 C   0  0  0  0  0  0  0  0  0  0  0  0
    0.4234   -2.8395    0.0000 C   0  0  0  0  0  0  0  0  0  0  0  0
    0.4234   -4.2594    0.0000 C   0  0  0  0  0  0  0  0  0  0  0  0
    0.0000   -3.5619    0.0000 C   0  0  0  0  0  0  0  0  0  0  0  0
    5.3553   -2.8395    0.0000 C   0  0  0  0  0  0  0  0  0  0  0  0
    4.6330   -3.2630    0.0000 C   0  0  0  0  0  0  0  0  0  0  0  0
    5.7538   -3.5619    0.0000 C   0  0  0  0  0  0  0  0  0  0  0  0
    6.0527   -2.4410    0.0000 C   0  0  0  0  0  0  0  0  0  0  0  0
  1 11  1  0  0  0  0
  2 15  1  0  0  0  0
  3 20  1  0  0  0  0
  4 21  1  0  0  0  0
  5 16  1  0  0  0  0
  5 23  1  0  0  0  0
  6 16  2  0  0  0  0
  7 10  1  0  0  0  0
  7 16  1  0  0  0  0
  8  9  1  0  0  0  0
  8 17  2  0  0  0  0
  9 10  1  0  0  0  0
  9 11  2  0  0  0  0
 10 12  1  0  0  0  0
 11 14  1  0  0  0  0
 12 13  1  0  0  0  0
 13 18  2  0  0  0  0
 13 19  1  0  0  0  0
 14 15  2  0  0  0  0
 15 17  1  0  0  0  0
 18 21  1  0  0  0  0
 19 20  2  0  0  0  0
 20 22  1  0  0  0  0
 21 22  2  0  0  0  0
 23 24  1  0  0  0  0
 23 25  1  0  0  0  0
 23 26  1  0  0  0  0
M  END
> <PUBCHEM_COMPOUND_ID_TYPE>
0

> <PUBCHEM_TOTAL_CHARGE>
0

> <PUBCHEM_SUBSTANCE_ID>
310931990

> <PUBCHEM_SUBSTANCE_VERSION>
1

> <PUBCHEM_EXT_DATASOURCE_NAME>
4488

> <PUBCHEM_EXT_DATASOURCE_REGID>
SCHEMBL16109331

> <PUBCHEM_SUBSTANCE_COMMENT>
InChI=1S/C18H18Br2F2N2O2/c1-18(2,3)26-17(25)24-15(16-14(20)7-11(19)9-23-16)6-10-4-12(21)8-13(22)5-10/h4-5,7-9,15H,6H2,1-3H3,(H,24,25)
InChIKey=QMCMYIVGSYMBHS-UHFFFAOYSA-N

> <PUBCHEM_SUBSTANCE_SYNONYM>
SCHEMBL16109331

> <PUBCHEM_XREF_EXT_ID>
SCHEMBL16109331

> <PUBCHEM_EXT_DATASOURCE_URL>
https://www.surechembl.org/

> <PUBCHEM_EXT_SUBSTANCE_URL>
https://www.surechembl.org/chemical/SCHEMBL16109331

> <PUBCHEM_CID_ASSOCIATIONS>
117600633  1

> <PUBCHEM_COORDINATE_TYPE>
1
3

$$$$
