310936762
  -OEChem-07211613022D

 27 29  0     1  0  0  0  0  0999 V2000
   -0.8007   -2.0580    0.0000 S   0  0  0  0  0  0  0  0  0  0  0  0
    0.7144   -1.2375    0.0000 O   0  0  0  0  0  0  0  0  0  0  0  0
    2.5721    1.4850    0.0000 O   0  0  0  0  0  0  0  0  0  0  0  0
    3.2866    0.2475    0.0000 O   0  0  0  0  0  0  0  0  0  0  0  0
    1.8576    0.2475    0.0000 N   0  0  0  0  0  0  0  0  0  0  0  0
    0.0000    0.0000    0.0000 C   0  0  3  0  0  0  0  0  0  0  0  0
   -0.7144    0.4125    0.0000 C   0  0  0  0  0  0  0  0  0  0  0  0
    0.0000   -0.8250    0.0000 C   0  0  3  0  0  0  0  0  0  0  0  0
    1.1432    0.6600    0.0000 C   0  0  0  0  0  0  0  0  0  0  0  0
   -2.1434    0.4125    0.0000 C   0  0  0  0  0  0  0  0  0  0  0  0
   -0.7144   -1.2375    0.0000 C   0  0  0  0  0  0  0  0  0  0  0  0
    1.8576   -0.5775    0.0000 C   0  0  0  0  0  0  0  0  0  0  0  0
   -1.4290    0.0000    0.0000 C   0  0  0  0  0  0  0  0  0  0  0  0
   -2.1434    1.2375    0.0000 C   0  0  0  0  0  0  0  0  0  0  0  0
   -0.7144    1.2375    0.0000 C   0  0  0  0  0  0  0  0  0  0  0  0
   -1.4290    1.6500    0.0000 C   0  0  0  0  0  0  0  0  0  0  0  0
    2.5721    0.6600    0.0000 C   0  0  0  0  0  0  0  0  0  0  0  0
   -1.4681   -0.9020    0.0000 C   0  0  0  0  0  0  0  0  0  0  0  0
   -2.8579    0.0000    0.0000 C   0  0  0  0  0  0  0  0  0  0  0  0
   -2.8579    1.6500    0.0000 C   0  0  0  0  0  0  0  0  0  0  0  0
    2.5721   -0.9900    0.0000 C   0  0  0  0  0  0  0  0  0  0  0  0
    1.8576   -1.4025    0.0000 C   0  0  0  0  0  0  0  0  0  0  0  0
    1.1432   -0.9900    0.0000 C   0  0  0  0  0  0  0  0  0  0  0  0
   -1.6077   -2.2295    0.0000 C   0  0  0  0  0  0  0  0  0  0  0  0
   -2.0202   -1.5151    0.0000 C   0  0  0  0  0  0  0  0  0  0  0  0
   -3.5724    0.4125    0.0000 C   0  0  0  0  0  0  0  0  0  0  0  0
   -3.5724    1.2375    0.0000 C   0  0  0  0  0  0  0  0  0  0  0  0
  1 11  1  0  0  0  0
  1 24  1  0  0  0  0
  2  8  1  0  0  0  0
  3 17  2  0  0  0  0
  4 17  1  0  0  0  0
  5  9  1  0  0  0  0
  5 12  1  0  0  0  0
  5 17  1  0  0  0  0
  6  7  1  0  0  0  0
  6  8  1  0  0  0  0
  6  9  1  0  0  0  0
  7 13  1  0  0  0  0
  7 15  2  0  0  0  0
  8 11  1  0  0  0  0
 10 13  2  0  0  0  0
 10 14  1  0  0  0  0
 10 19  1  0  0  0  0
 11 18  2  0  0  0  0
 12 21  1  0  0  0  0
 12 22  1  0  0  0  0
 12 23  1  0  0  0  0
 14 16  2  0  0  0  0
 14 20  1  0  0  0  0
 15 16  1  0  0  0  0
 18 25  1  0  0  0  0
 19 26  2  0  0  0  0
 20 27  2  0  0  0  0
 24 25  2  0  0  0  0
 26 27  1  0  0  0  0
M  END
> <PUBCHEM_COMPOUND_ID_TYPE>
0

> <PUBCHEM_TOTAL_CHARGE>
0

> <PUBCHEM_SUBSTANCE_ID>
310936762

> <PUBCHEM_SUBSTANCE_VERSION>
1

> <PUBCHEM_EXT_DATASOURCE_NAME>
4488

> <PUBCHEM_EXT_DATASOURCE_REGID>
SCHEMBL16114446

> <PUBCHEM_SUBSTANCE_COMMENT>
InChI=1S/C22H25NO3S/c1-22(2,3)23(21(25)26)14-18(20(24)19-9-6-12-27-19)17-11-10-15-7-4-5-8-16(15)13-17/h4-13,18,20,24H,14H2,1-3H3,(H,25,26)
InChIKey=DZHWFLURDOGWLN-UHFFFAOYSA-N

> <PUBCHEM_SUBSTANCE_SYNONYM>
SCHEMBL16114446

> <PUBCHEM_XREF_EXT_ID>
SCHEMBL16114446

> <PUBCHEM_EXT_DATASOURCE_URL>
https://www.surechembl.org/

> <PUBCHEM_EXT_SUBSTANCE_URL>
https://www.surechembl.org/chemical/SCHEMBL16114446

> <PUBCHEM_CID_ASSOCIATIONS>
117604659  1

> <PUBCHEM_COORDINATE_TYPE>
1
3

$$$$
