310934226
  -OEChem-07211613022D

 42 46  0     1  0  0  0  0  0999 V2000
    7.2758   -6.2454    0.0000 Cl  0  0  0  0  0  0  0  0  0  0  0  0
    4.4967   -2.1546    0.0000 O   0  0  0  0  0  0  0  0  0  0  0  0
    5.1524   -0.1562    0.0000 O   0  0  0  0  0  0  0  0  0  0  0  0
    3.7472   -5.0275    0.0000 O   0  5  0  0  0  0  0  0  0  0  0  0
    4.4654   -3.8097    0.0000 O   0  0  0  0  0  0  0  0  0  0  0  0
    3.7472   -2.5918    0.0000 O   0  0  0  0  0  0  0  0  0  0  0  0
    5.8706   -2.1859    0.0000 N   0  0  0  0  0  0  0  0  0  0  0  0
    4.4654   -1.3740    0.0000 N   0  0  0  0  0  0  0  0  0  0  0  0
    4.4654   -4.6215    0.0000 N   0  3  0  0  0  0  0  0  0  0  0  0
    1.4677    0.0000    0.0000 N   0  0  0  0  0  0  0  0  0  0  0  0
    5.8706   -1.3740    0.0000 C   0  0  3  0  0  0  0  0  0  0  0  0
    5.8706   -3.8097    0.0000 C   0  0  0  0  0  0  0  0  0  0  0  0
    5.8706   -4.6215    0.0000 C   0  0  0  0  0  0  0  0  0  0  0  0
    5.1836   -2.5918    0.0000 C   0  0  0  0  0  0  0  0  0  0  0  0
    5.1524   -0.9680    0.0000 C   0  0  0  0  0  0  0  0  0  0  0  0
    5.1524   -5.0275    0.0000 C   0  0  0  0  0  0  0  0  0  0  0  0
    5.1524   -3.4037    0.0000 C   0  0  0  0  0  0  0  0  0  0  0  0
    6.5889   -2.5918    0.0000 C   0  0  0  0  0  0  0  0  0  0  0  0
    6.5576   -3.4037    0.0000 C   0  0  0  0  0  0  0  0  0  0  0  0
    6.5889   -0.9680    0.0000 C   0  0  0  0  0  0  0  0  0  0  0  0
    6.5889   -5.0275    0.0000 C   0  0  0  0  0  0  0  0  0  0  0  0
    1.6238   -1.3115    0.0000 C   0  0  0  0  0  0  0  0  0  0  0  0
    2.3420   -0.9680    0.0000 C   0  0  0  0  0  0  0  0  0  0  0  0
    1.0617   -0.6870    0.0000 C   0  0  0  0  0  0  0  0  0  0  0  0
    5.1524   -5.8394    0.0000 C   0  0  0  0  0  0  0  0  0  0  0  0
    6.5889   -5.8394    0.0000 C   0  0  0  0  0  0  0  0  0  0  0  0
    3.7472   -0.9680    0.0000 C   0  0  0  0  0  0  0  0  0  0  0  0
    4.6215   -2.3420    0.0000 C   0  0  3  0  0  0  0  0  0  0  0  0
    7.2758   -1.3740    0.0000 C   0  0  0  0  0  0  0  0  0  0  0  0
    3.0602   -1.3740    0.0000 C   0  0  0  0  0  0  0  0  0  0  0  0
    5.8706   -6.2454    0.0000 C   0  0  0  0  0  0  0  0  0  0  0  0
    2.2795   -0.1562    0.0000 C   0  0  0  0  0  0  0  0  0  0  0  0
    1.3427   -2.0922    0.0000 C   0  0  0  0  0  0  0  0  0  0  0  0
    0.2498   -0.8744    0.0000 C   0  0  0  0  0  0  0  0  0  0  0  0
    7.9940   -0.9680    0.0000 C   0  0  0  0  0  0  0  0  0  0  0  0
    7.3070   -2.1859    0.0000 C   0  0  0  0  0  0  0  0  0  0  0  0
    0.5621   -2.2483    0.0000 C   0  0  0  0  0  0  0  0  0  0  0  0
    0.0000   -1.6238    0.0000 C   0  0  0  0  0  0  0  0  0  0  0  0
    5.3398   -2.7479    0.0000 C   0  0  0  0  0  0  0  0  0  0  0  0
    8.7123   -1.3740    0.0000 C   0  0  0  0  0  0  0  0  0  0  0  0
    7.9940   -2.5918    0.0000 C   0  0  0  0  0  0  0  0  0  0  0  0
    8.7123   -2.1859    0.0000 C   0  0  0  0  0  0  0  0  0  0  0  0
  1 26  1  0  0  0  0
  2 14  2  0  0  0  0
  3 15  2  0  0  0  0
  4  9  1  0  0  0  0
  5  9  2  0  0  0  0
  6 28  1  0  0  0  0
  7 11  1  0  0  0  0
  7 14  1  0  0  0  0
  7 18  1  0  0  0  0
  8 15  1  0  0  0  0
  8 27  1  0  0  0  0
  8 28  1  0  0  0  0
  9 16  1  0  0  0  0
 10 24  1  0  0  0  0
 10 32  1  0  0  0  0
 11 15  1  0  0  0  0
 11 20  1  0  0  0  0
 12 13  1  0  0  0  0
 12 17  2  0  0  0  0
 12 19  1  0  0  0  0
 13 16  1  0  0  0  0
 13 21  2  0  0  0  0
 14 17  1  0  0  0  0
 16 25  2  0  0  0  0
 18 19  2  0  0  0  0
 20 29  1  0  0  0  0
 21 26  1  0  0  0  0
 22 23  1  0  0  0  0
 22 24  2  0  0  0  0
 22 33  1  0  0  0  0
 23 30  1  0  0  0  0
 23 32  2  0  0  0  0
 24 34  1  0  0  0  0
 25 31  1  0  0  0  0
 26 31  2  0  0  0  0
 27 30  1  0  0  0  0
 28 39  1  0  0  0  0
 29 35  2  0  0  0  0
 29 36  1  0  0  0  0
 33 37  2  0  0  0  0
 34 38  2  0  0  0  0
 35 40  1  0  0  0  0
 36 41  2  0  0  0  0
 37 38  1  0  0  0  0
 40 42  2  0  0  0  0
 41 42  1  0  0  0  0
M  CHG  2   4  -1   9   1
M  END
> <PUBCHEM_COMPOUND_ID_TYPE>
0

> <PUBCHEM_TOTAL_CHARGE>
0

> <PUBCHEM_SUBSTANCE_ID>
310934226

> <PUBCHEM_SUBSTANCE_VERSION>
1

> <PUBCHEM_EXT_DATASOURCE_NAME>
4488

> <PUBCHEM_EXT_DATASOURCE_REGID>
SCHEMBL16111682

> <PUBCHEM_SUBSTANCE_COMMENT>
InChI=1S/C32H29ClN4O5/c1-21(38)35(15-14-24-20-34-28-10-6-5-9-26(24)28)32(40)30(17-22-7-3-2-4-8-22)36-16-13-23(18-31(36)39)27-19-25(33)11-12-29(27)37(41)42/h2-13,16,18-21,30,34,38H,14-15,17H2,1H3
InChIKey=ZQAYKUAMIVNAFW-UHFFFAOYSA-N

> <PUBCHEM_SUBSTANCE_SYNONYM>
SCHEMBL16111682

> <PUBCHEM_XREF_EXT_ID>
SCHEMBL16111682

> <PUBCHEM_EXT_DATASOURCE_URL>
https://www.surechembl.org/

> <PUBCHEM_EXT_SUBSTANCE_URL>
https://www.surechembl.org/chemical/SCHEMBL16111682

> <PUBCHEM_CID_ASSOCIATIONS>
117602489  1

> <PUBCHEM_COORDINATE_TYPE>
1
3

$$$$
