310934244
  -OEChem-07211613022D

 27 29  0     1  0  0  0  0  0999 V2000
   -2.4750    0.3829    0.0000 Br  0  0  0  0  0  0  0  0  0  0  0  0
   -2.4750   -2.4750    0.0000 O   0  0  0  0  0  0  0  0  0  0  0  0
    1.2375   -1.7605    0.0000 O   0  0  0  0  0  0  0  0  0  0  0  0
   -1.6500   -1.0461    0.0000 N   0  0  3  0  0  0  0  0  0  0  0  0
    0.0000   -2.4750    0.0000 N   0  0  0  0  0  0  0  0  0  0  0  0
    2.0625   -3.1895    0.0000 N   0  0  0  0  0  0  0  0  0  0  0  0
   -1.2375   -0.3316    0.0000 C   0  0  0  0  0  0  0  0  0  0  0  0
   -2.4750   -1.0461    0.0000 C   0  0  3  0  0  0  0  0  0  0  0  0
   -0.4125   -0.3316    0.0000 C   0  0  0  0  0  0  0  0  0  0  0  0
   -1.2375   -1.7605    0.0000 C   0  0  0  0  0  0  0  0  0  0  0  0
   -0.4125   -1.7605    0.0000 C   0  0  0  0  0  0  0  0  0  0  0  0
   -2.8875   -0.3316    0.0000 C   0  0  0  0  0  0  0  0  0  0  0  0
   -2.8875   -1.7605    0.0000 C   0  0  0  0  0  0  0  0  0  0  0  0
    0.0000   -1.0461    0.0000 C   0  0  0  0  0  0  0  0  0  0  0  0
   -1.6500    0.3829    0.0000 C   0  0  0  0  0  0  0  0  0  0  0  0
    0.0000    0.3829    0.0000 C   0  0  0  0  0  0  0  0  0  0  0  0
   -3.7125   -0.3316    0.0000 C   0  0  0  0  0  0  0  0  0  0  0  0
   -3.7125   -1.7605    0.0000 C   0  0  0  0  0  0  0  0  0  0  0  0
   -1.2375    1.0974    0.0000 C   0  0  0  0  0  0  0  0  0  0  0  0
   -0.4125    1.0974    0.0000 C   0  0  0  0  0  0  0  0  0  0  0  0
   -4.1250   -1.0461    0.0000 C   0  0  0  0  0  0  0  0  0  0  0  0
    0.8250   -2.4750    0.0000 C   0  0  0  0  0  0  0  0  0  0  0  0
    1.2375   -3.1895    0.0000 C   0  0  0  0  0  0  0  0  0  0  0  0
    2.4750   -3.9039    0.0000 C   0  0  0  0  0  0  0  0  0  0  0  0
    2.4750   -2.4750    0.0000 C   0  0  0  0  0  0  0  0  0  0  0  0
    3.3000   -3.9039    0.0000 C   0  0  0  0  0  0  0  0  0  0  0  0
    3.3000   -2.4750    0.0000 C   0  0  0  0  0  0  0  0  0  0  0  0
  1 12  1  0  0  0  0
  2 13  2  0  0  0  0
  3 22  2  0  0  0  0
  4  7  1  0  0  0  0
  4  8  1  0  0  0  0
  4 10  1  0  0  0  0
  5 11  1  0  0  0  0
  5 22  1  0  0  0  0
  6 23  1  0  0  0  0
  6 24  1  0  0  0  0
  6 25  1  0  0  0  0
  7  9  1  0  0  0  0
  7 15  2  0  0  0  0
  8 12  1  0  0  0  0
  8 13  1  0  0  0  0
  9 14  1  0  0  0  0
  9 16  2  0  0  0  0
 10 11  1  0  0  0  0
 11 14  2  0  0  0  0
 12 17  2  0  0  0  0
 13 18  1  0  0  0  0
 15 19  1  0  0  0  0
 16 20  1  0  0  0  0
 17 21  1  0  0  0  0
 18 21  2  0  0  0  0
 19 20  2  0  0  0  0
 22 23  1  0  0  0  0
 24 26  1  0  0  0  0
 25 27  1  0  0  0  0
M  END
> <PUBCHEM_COMPOUND_ID_TYPE>
0

> <PUBCHEM_TOTAL_CHARGE>
0

> <PUBCHEM_SUBSTANCE_ID>
310934244

> <PUBCHEM_SUBSTANCE_VERSION>
1

> <PUBCHEM_EXT_DATASOURCE_NAME>
4488

> <PUBCHEM_EXT_DATASOURCE_REGID>
SCHEMBL16111702

> <PUBCHEM_SUBSTANCE_COMMENT>
InChI=1S/C21H24BrN3O2/c1-3-24(4-2)14-20(27)23-16-12-15-8-5-6-10-18(15)25(13-16)21-17(22)9-7-11-19(21)26/h5-12,21H,3-4,13-14H2,1-2H3,(H,23,27)
InChIKey=IITCRNLGBRDFSB-UHFFFAOYSA-N

> <PUBCHEM_SUBSTANCE_SYNONYM>
SCHEMBL16111702

> <PUBCHEM_XREF_EXT_ID>
SCHEMBL16111702

> <PUBCHEM_EXT_DATASOURCE_URL>
https://www.surechembl.org/

> <PUBCHEM_EXT_SUBSTANCE_URL>
https://www.surechembl.org/chemical/SCHEMBL16111702

> <PUBCHEM_CID_ASSOCIATIONS>
117602503  1

> <PUBCHEM_COORDINATE_TYPE>
1
3

$$$$
