310932419
  -OEChem-07211613022D

 21 23  0     1  0  0  0  0  0999 V2000
    3.2711    0.0000    0.0000 O   0  0  0  0  0  0  0  0  0  0  0  0
    4.4043   -1.9456    0.0000 O   0  0  0  0  0  0  0  0  0  0  0  0
    5.1099   -0.7055    0.0000 O   0  0  0  0  0  0  0  0  0  0  0  0
    0.0000   -2.3518    0.0000 O   0  0  0  0  0  0  0  0  0  0  0  0
    3.6988   -0.7055    0.0000 C   0  0  3  0  0  0  0  0  0  0  0  0
    2.8649   -0.7055    0.0000 C   0  0  3  0  0  0  0  0  0  0  0  0
    4.4043   -1.1332    0.0000 C   0  0  0  0  0  0  0  0  0  0  0  0
    2.1594   -1.1332    0.0000 C   0  0  0  0  0  0  0  0  0  0  0  0
    3.4849   -1.5180    0.0000 C   0  0  0  0  0  0  0  0  0  0  0  0
    2.1380   -1.9456    0.0000 C   0  0  0  0  0  0  0  0  0  0  0  0
    1.4325   -0.7269    0.0000 C   0  0  0  0  0  0  0  0  0  0  0  0
    5.1099   -2.3518    0.0000 C   0  0  0  0  0  0  0  0  0  0  0  0
    4.0622   -2.0953    0.0000 C   0  0  0  0  0  0  0  0  0  0  0  0
    1.4325   -2.3732    0.0000 C   0  0  0  0  0  0  0  0  0  0  0  0
    0.7269   -1.1332    0.0000 C   0  0  0  0  0  0  0  0  0  0  0  0
    0.7269   -1.9456    0.0000 C   0  0  0  0  0  0  0  0  0  0  0  0
    5.8581   -2.0097    0.0000 C   0  0  0  0  0  0  0  0  0  0  0  0
    5.1953   -3.1642    0.0000 C   0  0  0  0  0  0  0  0  0  0  0  0
    6.4140   -2.6297    0.0000 C   0  0  0  0  0  0  0  0  0  0  0  0
    6.0078   -3.3353    0.0000 C   0  0  0  0  0  0  0  0  0  0  0  0
    0.0000   -3.1856    0.0000 C   0  0  0  0  0  0  0  0  0  0  0  0
  1  5  1  0  0  0  0
  1  6  1  0  0  0  0
  2  7  1  0  0  0  0
  2 12  1  0  0  0  0
  3  7  2  0  0  0  0
  4 16  1  0  0  0  0
  4 21  1  0  0  0  0
  5  6  1  0  0  0  0
  5  7  1  0  0  0  0
  5  9  1  0  0  0  0
  6  8  1  0  0  0  0
  8 10  2  0  0  0  0
  8 11  1  0  0  0  0
  9 13  1  0  0  0  0
 10 14  1  0  0  0  0
 11 15  2  0  0  0  0
 12 17  1  0  0  0  0
 12 18  1  0  0  0  0
 14 16  2  0  0  0  0
 15 16  1  0  0  0  0
 17 19  1  0  0  0  0
 18 20  1  0  0  0  0
 19 20  1  0  0  0  0
M  END
> <PUBCHEM_COMPOUND_ID_TYPE>
0

> <PUBCHEM_TOTAL_CHARGE>
0

> <PUBCHEM_SUBSTANCE_ID>
310932419

> <PUBCHEM_SUBSTANCE_VERSION>
1

> <PUBCHEM_EXT_DATASOURCE_NAME>
4488

> <PUBCHEM_EXT_DATASOURCE_REGID>
SCHEMBL16109787

> <PUBCHEM_SUBSTANCE_COMMENT>
InChI=1S/C17H22O4/c1-3-17(16(18)20-14-6-4-5-7-14)15(21-17)12-8-10-13(19-2)11-9-12/h8-11,14-15H,3-7H2,1-2H3
InChIKey=WPSIZPDHFFOETH-UHFFFAOYSA-N

> <PUBCHEM_SUBSTANCE_SYNONYM>
SCHEMBL16109787

> <PUBCHEM_XREF_EXT_ID>
SCHEMBL16109787

> <PUBCHEM_EXT_DATASOURCE_URL>
https://www.surechembl.org/

> <PUBCHEM_EXT_SUBSTANCE_URL>
https://www.surechembl.org/chemical/SCHEMBL16109787

> <PUBCHEM_CID_ASSOCIATIONS>
117600972  1

> <PUBCHEM_COORDINATE_TYPE>
1
3

$$$$
