310939633
  -OEChem-07211613022D

 30 32  0     1  0  0  0  0  0999 V2000
   -1.0675   -1.7931    0.0000 O   0  0  0  0  0  0  0  0  0  0  0  0
   -2.4964   -2.6181    0.0000 O   0  0  0  0  0  0  0  0  0  0  0  0
    1.7904   -2.6181    0.0000 N   0  0  0  0  0  0  0  0  0  0  0  0
    2.5049   -3.8556    0.0000 N   0  0  0  0  0  0  0  0  0  0  0  0
    2.5049   -1.3806    0.0000 N   0  0  0  0  0  0  0  0  0  0  0  0
   -3.9254   -1.7931    0.0000 N   0  0  0  0  0  0  0  0  0  0  0  0
    1.7904   -1.7931    0.0000 C   0  0  0  0  0  0  0  0  0  0  0  0
    2.5049   -3.0306    0.0000 C   0  0  0  0  0  0  0  0  0  0  0  0
    1.0759   -1.3806    0.0000 C   0  0  0  0  0  0  0  0  0  0  0  0
    3.2193   -1.7931    0.0000 C   0  0  0  0  0  0  0  0  0  0  0  0
    3.2193   -2.6181    0.0000 C   0  0  0  0  0  0  0  0  0  0  0  0
    3.2193   -4.2681    0.0000 C   0  0  0  0  0  0  0  0  0  0  0  0
    0.3615   -1.7931    0.0000 C   0  0  0  0  0  0  0  0  0  0  0  0
    3.9338   -1.3806    0.0000 C   0  0  0  0  0  0  0  0  0  0  0  0
    1.0759   -0.5556    0.0000 C   0  0  0  0  0  0  0  0  0  0  0  0
   -0.3530   -1.3806    0.0000 C   0  0  0  0  0  0  0  0  0  0  0  0
   -0.3530   -0.5556    0.0000 C   0  0  0  0  0  0  0  0  0  0  0  0
    0.3615   -0.1431    0.0000 C   0  0  0  0  0  0  0  0  0  0  0  0
    3.2193   -5.0931    0.0000 C   0  0  0  0  0  0  0  0  0  0  0  0
    3.9338   -3.8556    0.0000 C   0  0  0  0  0  0  0  0  0  0  0  0
    1.7904   -4.2681    0.0000 C   0  0  0  0  0  0  0  0  0  0  0  0
    3.9338   -0.5556    0.0000 C   0  0  0  0  0  0  0  0  0  0  0  0
    4.6483   -1.7931    0.0000 C   0  0  0  0  0  0  0  0  0  0  0  0
    3.9338   -5.5056    0.0000 C   0  0  0  0  0  0  0  0  0  0  0  0
    4.6483   -4.2681    0.0000 C   0  0  0  0  0  0  0  0  0  0  0  0
   -1.7819   -1.3806    0.0000 C   0  0  0  0  0  0  0  0  0  0  0  0
    4.6483   -5.0931    0.0000 C   0  0  0  0  0  0  0  0  0  0  0  0
   -2.4964   -1.7931    0.0000 C   0  0  3  0  0  0  0  0  0  0  0  0
   -3.2109   -1.3806    0.0000 C   0  0  0  0  0  0  0  0  0  0  0  0
   -4.6398   -1.3806    0.0000 C   0  0  0  0  0  0  0  0  0  0  0  0
  1 16  1  0  0  0  0
  1 26  1  0  0  0  0
  2 28  1  0  0  0  0
  3  7  1  0  0  0  0
  3  8  2  0  0  0  0
  4  8  1  0  0  0  0
  4 12  1  0  0  0  0
  4 21  1  0  0  0  0
  5  7  2  0  0  0  0
  5 10  1  0  0  0  0
  6 29  1  0  0  0  0
  6 30  1  0  0  0  0
  7  9  1  0  0  0  0
  8 11  1  0  0  0  0
  9 13  2  0  0  0  0
  9 15  1  0  0  0  0
 10 11  2  0  0  0  0
 10 14  1  0  0  0  0
 12 19  1  0  0  0  0
 12 20  1  0  0  0  0
 13 16  1  0  0  0  0
 14 22  2  0  0  0  0
 14 23  1  0  0  0  0
 15 18  2  0  0  0  0
 16 17  2  0  0  0  0
 17 18  1  0  0  0  0
 19 24  1  0  0  0  0
 20 25  1  0  0  0  0
 24 27  1  0  0  0  0
 25 27  1  0  0  0  0
 26 28  1  0  0  0  0
 28 29  1  0  0  0  0
M  END
> <PUBCHEM_COMPOUND_ID_TYPE>
0

> <PUBCHEM_TOTAL_CHARGE>
0

> <PUBCHEM_SUBSTANCE_ID>
310939633

> <PUBCHEM_SUBSTANCE_VERSION>
1

> <PUBCHEM_EXT_DATASOURCE_NAME>
4488

> <PUBCHEM_EXT_DATASOURCE_REGID>
SCHEMBL16117563

> <PUBCHEM_SUBSTANCE_COMMENT>
InChI=1S/C24H34N4O2/c1-17(2)22-14-23(28(4)19-10-6-5-7-11-19)27-24(26-22)18-9-8-12-21(13-18)30-16-20(29)15-25-3/h8-9,12-14,19-20,25,29H,1,5-7,10-11,15-16H2,2-4H3
InChIKey=AQVWGYMOMGNQJA-UHFFFAOYSA-N

> <PUBCHEM_SUBSTANCE_SYNONYM>
SCHEMBL16117563

> <PUBCHEM_XREF_EXT_ID>
SCHEMBL16117563

> <PUBCHEM_EXT_DATASOURCE_URL>
https://www.surechembl.org/

> <PUBCHEM_EXT_SUBSTANCE_URL>
https://www.surechembl.org/chemical/SCHEMBL16117563

> <PUBCHEM_CID_ASSOCIATIONS>
117606873  1

> <PUBCHEM_COORDINATE_TYPE>
1
3

$$$$
