310937239
  -OEChem-07211613022D

 37 41  0     1  0  0  0  0  0999 V2000
    4.3607   -5.3428    0.0000 O   0  0  0  0  0  0  0  0  0  0  0  0
    7.2285   -5.3428    0.0000 O   0  0  0  0  0  0  0  0  0  0  0  0
    6.5607   -2.5928    0.0000 N   0  0  3  0  0  0  0  0  0  0  0  0
    5.7749   -5.3428    0.0000 N   0  0  0  0  0  0  0  0  0  0  0  0
    2.2000   -2.4750    0.0000 N   0  0  0  0  0  0  0  0  0  0  0  0
    1.4536   -1.2179    0.0000 N   0  0  0  0  0  0  0  0  0  0  0  0
    7.9356   -6.5999    0.0000 N   0  0  0  0  0  0  0  0  0  0  0  0
    5.7749   -3.6928    0.0000 C   0  0  0  0  0  0  0  0  0  0  0  0
    5.7749   -2.8679    0.0000 C   0  0  0  0  0  0  0  0  0  0  0  0
    5.0678   -4.0857    0.0000 C   0  0  0  0  0  0  0  0  0  0  0  0
    4.3607   -2.8679    0.0000 C   0  0  0  0  0  0  0  0  0  0  0  0
    5.0678   -2.4357    0.0000 C   0  0  0  0  0  0  0  0  0  0  0  0
    4.3607   -3.6928    0.0000 C   0  0  0  0  0  0  0  0  0  0  0  0
    6.5607   -3.9286    0.0000 C   0  0  0  0  0  0  0  0  0  0  0  0
    5.0678   -4.9107    0.0000 C   0  0  0  0  0  0  0  0  0  0  0  0
    7.0321   -3.2607    0.0000 C   0  0  0  0  0  0  0  0  0  0  0  0
    3.6143   -2.4357    0.0000 C   0  0  0  0  0  0  0  0  0  0  0  0
    6.8356   -1.8072    0.0000 C   0  0  0  0  0  0  0  0  0  0  0  0
    2.9071   -2.8679    0.0000 C   0  0  0  0  0  0  0  0  0  0  0  0
    3.6143   -1.6107    0.0000 C   0  0  0  0  0  0  0  0  0  0  0  0
    2.1607   -1.6107    0.0000 C   0  0  0  0  0  0  0  0  0  0  0  0
    6.4821   -6.5999    0.0000 C   0  0  0  0  0  0  0  0  0  0  0  0
    5.7749   -6.1678    0.0000 C   0  0  0  0  0  0  0  0  0  0  0  0
    2.9071   -1.2179    0.0000 C   0  0  0  0  0  0  0  0  0  0  0  0
    7.2285   -6.2071    0.0000 C   0  0  0  0  0  0  0  0  0  0  0  0
    6.5214   -7.4249    0.0000 C   0  0  0  0  0  0  0  0  0  0  0  0
    6.2857   -1.1786    0.0000 C   0  0  0  0  0  0  0  0  0  0  0  0
    7.6214   -1.6500    0.0000 C   0  0  0  0  0  0  0  0  0  0  0  0
    7.9356   -7.4249    0.0000 C   0  0  0  0  0  0  0  0  0  0  0  0
    7.2285   -7.8178    0.0000 C   0  0  0  0  0  0  0  0  0  0  0  0
    0.7071   -1.6500    0.0000 C   0  0  0  0  0  0  0  0  0  0  0  0
    1.4536   -0.3929    0.0000 C   0  0  0  0  0  0  0  0  0  0  0  0
    5.8142   -7.8178    0.0000 C   0  0  0  0  0  0  0  0  0  0  0  0
    0.0000   -1.2571    0.0000 C   0  0  0  0  0  0  0  0  0  0  0  0
    0.7071    0.0000    0.0000 C   0  0  0  0  0  0  0  0  0  0  0  0
    8.6821   -7.8571    0.0000 C   0  0  0  0  0  0  0  0  0  0  0  0
    0.0000   -0.3929    0.0000 C   0  0  0  0  0  0  0  0  0  0  0  0
  1 15  2  0  0  0  0
  2 25  2  0  0  0  0
  3  9  1  0  0  0  0
  3 16  1  0  0  0  0
  3 18  1  0  0  0  0
  4 15  1  0  0  0  0
  4 23  1  0  0  0  0
  5 19  1  0  0  0  0
  5 21  2  0  0  0  0
  6 21  1  0  0  0  0
  6 31  1  0  0  0  0
  6 32  1  0  0  0  0
  7 25  1  0  0  0  0
  7 29  1  0  0  0  0
  8  9  2  0  0  0  0
  8 10  1  0  0  0  0
  8 14  1  0  0  0  0
  9 12  1  0  0  0  0
 10 13  2  0  0  0  0
 10 15  1  0  0  0  0
 11 12  2  0  0  0  0
 11 13  1  0  0  0  0
 11 17  1  0  0  0  0
 14 16  1  0  0  0  0
 17 19  2  0  0  0  0
 17 20  1  0  0  0  0
 18 27  1  0  0  0  0
 18 28  1  0  0  0  0
 20 24  2  0  0  0  0
 21 24  1  0  0  0  0
 22 23  1  0  0  0  0
 22 25  1  0  0  0  0
 22 26  2  0  0  0  0
 26 30  1  0  0  0  0
 26 33  1  0  0  0  0
 29 30  2  0  0  0  0
 29 36  1  0  0  0  0
 31 34  1  0  0  0  0
 32 35  1  0  0  0  0
 34 37  1  0  0  0  0
 35 37  1  0  0  0  0
M  END
> <PUBCHEM_COMPOUND_ID_TYPE>
0

> <PUBCHEM_TOTAL_CHARGE>
0

> <PUBCHEM_SUBSTANCE_ID>
310937239

> <PUBCHEM_SUBSTANCE_VERSION>
1

> <PUBCHEM_EXT_DATASOURCE_NAME>
4488

> <PUBCHEM_EXT_DATASOURCE_REGID>
SCHEMBL16114975

> <PUBCHEM_SUBSTANCE_COMMENT>
InChI=1S/C30H37N5O2/c1-19(2)35-13-10-24-25(29(36)32-18-26-20(3)14-21(4)33-30(26)37)15-23(16-27(24)35)22-8-9-28(31-17-22)34-11-6-5-7-12-34/h8-9,14-17,19H,5-7,10-13,18H2,1-4H3,(H,32,36)(H,33,37)
InChIKey=DXXHSUCVTSVRDA-UHFFFAOYSA-N

> <PUBCHEM_SUBSTANCE_SYNONYM>
SCHEMBL16114975

> <PUBCHEM_XREF_EXT_ID>
SCHEMBL16114975

> <PUBCHEM_EXT_DATASOURCE_URL>
https://www.surechembl.org/

> <PUBCHEM_EXT_SUBSTANCE_URL>
https://www.surechembl.org/chemical/SCHEMBL16114975

> <PUBCHEM_CID_ASSOCIATIONS>
86274589  1

> <PUBCHEM_COORDINATE_TYPE>
1
3

$$$$
