310937805
  -OEChem-07211613022D

 19 20  0     1  0  0  0  0  0999 V2000
    3.1985   -3.5483    0.0000 Br  0  0  0  0  0  0  0  0  0  0  0  0
    0.0000   -1.2744    0.0000 Br  0  0  0  0  0  0  0  0  0  0  0  0
    4.2730   -2.0990    0.0000 O   0  0  0  0  0  0  0  0  0  0  0  0
    2.1490   -4.1730    0.0000 O   0  0  0  0  0  0  0  0  0  0  0  0
    0.6996   -4.1730    0.0000 O   0  0  0  0  0  0  0  0  0  0  0  0
    2.9486   -1.4244    0.0000 N   0  0  0  0  0  0  0  0  0  0  0  0
    2.1490   -2.4988    0.0000 C   0  0  0  0  0  0  0  0  0  0  0  0
    2.1490   -1.6742    0.0000 C   0  0  0  0  0  0  0  0  0  0  0  0
    2.9486   -2.7737    0.0000 C   0  0  3  0  0  0  0  0  0  0  0  0
    3.4234   -2.0990    0.0000 C   0  0  0  0  0  0  0  0  0  0  0  0
    1.4244   -2.9236    0.0000 C   0  0  0  0  0  0  0  0  0  0  0  0
    1.4244   -1.2494    0.0000 C   0  0  0  0  0  0  0  0  0  0  0  0
    0.7246   -2.4988    0.0000 C   0  0  0  0  0  0  0  0  0  0  0  0
    0.7246   -1.6742    0.0000 C   0  0  0  0  0  0  0  0  0  0  0  0
    3.1985   -0.6247    0.0000 C   0  0  0  0  0  0  0  0  0  0  0  0
    1.4244   -3.7482    0.0000 C   0  0  0  0  0  0  0  0  0  0  0  0
    2.6487    0.0000    0.0000 C   0  0  0  0  0  0  0  0  0  0  0  0
    4.0231   -0.4498    0.0000 C   0  0  0  0  0  0  0  0  0  0  0  0
    2.1490   -4.9976    0.0000 C   0  0  0  0  0  0  0  0  0  0  0  0
  1  9  1  0  0  0  0
  2 14  1  0  0  0  0
  3 10  2  0  0  0  0
  4 16  1  0  0  0  0
  4 19  1  0  0  0  0
  5 16  2  0  0  0  0
  6  8  1  0  0  0  0
  6 10  1  0  0  0  0
  6 15  1  0  0  0  0
  7  8  2  0  0  0  0
  7  9  1  0  0  0  0
  7 11  1  0  0  0  0
  8 12  1  0  0  0  0
  9 10  1  0  0  0  0
 11 13  2  0  0  0  0
 11 16  1  0  0  0  0
 12 14  2  0  0  0  0
 13 14  1  0  0  0  0
 15 17  1  0  0  0  0
 15 18  1  0  0  0  0
M  END
> <PUBCHEM_COMPOUND_ID_TYPE>
0

> <PUBCHEM_TOTAL_CHARGE>
0

> <PUBCHEM_SUBSTANCE_ID>
310937805

> <PUBCHEM_SUBSTANCE_VERSION>
1

> <PUBCHEM_EXT_DATASOURCE_NAME>
4488

> <PUBCHEM_EXT_DATASOURCE_REGID>
SCHEMBL16115622

> <PUBCHEM_SUBSTANCE_COMMENT>
InChI=1S/C13H13Br2NO3/c1-6(2)16-9-5-7(14)4-8(13(18)19-3)10(9)11(15)12(16)17/h4-6,11H,1-3H3
InChIKey=MSOAYHKPOIOVEQ-UHFFFAOYSA-N

> <PUBCHEM_SUBSTANCE_SYNONYM>
SCHEMBL16115622

> <PUBCHEM_XREF_EXT_ID>
SCHEMBL16115622

> <PUBCHEM_EXT_DATASOURCE_URL>
https://www.surechembl.org/

> <PUBCHEM_EXT_SUBSTANCE_URL>
https://www.surechembl.org/chemical/SCHEMBL16115622

> <PUBCHEM_CID_ASSOCIATIONS>
117605453  1

> <PUBCHEM_COORDINATE_TYPE>
1
3

$$$$
