310943575
  -OEChem-07211613022D

 34 37  0     1  0  0  0  0  0999 V2000
    2.4330    2.0066    0.0000 O   0  0  0  0  0  0  0  0  0  0  0  0
    3.2301    0.5383    0.0000 N   0  0  0  0  0  0  0  0  0  0  0  0
    1.0208   -1.7130    0.0000 N   0  0  0  0  0  0  0  0  0  0  0  0
   -3.2721   -1.5311    0.0000 N   0  0  3  0  0  0  0  0  0  0  0  0
    5.0059    0.0210    0.0000 N   0  0  3  0  0  0  0  0  0  0  0  0
   -1.1466    1.5731    0.0000 N   0  0  0  0  0  0  0  0  0  0  0  0
   -5.0479   -0.9998    0.0000 N   0  0  3  0  0  0  0  0  0  0  0  0
    0.3077   -0.2587    0.0000 C   0  0  0  0  0  0  0  0  0  0  0  0
   -0.4055   -0.6782    0.0000 C   0  0  0  0  0  0  0  0  0  0  0  0
    1.0068   -0.6782    0.0000 C   0  0  0  0  0  0  0  0  0  0  0  0
   -1.1466   -0.2867    0.0000 C   0  0  0  0  0  0  0  0  0  0  0  0
    1.7199    0.5663    0.0000 C   0  0  0  0  0  0  0  0  0  0  0  0
    1.7199   -0.2587    0.0000 C   0  0  0  0  0  0  0  0  0  0  0  0
    0.3077    0.5383    0.0000 C   0  0  0  0  0  0  0  0  0  0  0  0
    2.4191    0.9578    0.0000 C   0  0  0  0  0  0  0  0  0  0  0  0
   -0.4335   -1.5172    0.0000 C   0  0  0  0  0  0  0  0  0  0  0  0
    0.9928    0.9578    0.0000 C   0  0  0  0  0  0  0  0  0  0  0  0
   -1.8598   -1.5311    0.0000 C   0  0  0  0  0  0  0  0  0  0  0  0
   -1.8318   -0.6922    0.0000 C   0  0  0  0  0  0  0  0  0  0  0  0
   -1.1466   -1.9227    0.0000 C   0  0  0  0  0  0  0  0  0  0  0  0
   -1.1466    0.7481    0.0000 C   0  0  0  0  0  0  0  0  0  0  0  0
   -2.5589   -1.9367    0.0000 C   0  0  0  0  0  0  0  0  0  0  0  0
    3.5237   -0.2167    0.0000 C   0  0  0  0  0  0  0  0  0  0  0  0
    3.6356    1.2655    0.0000 C   0  0  0  0  0  0  0  0  0  0  0  0
    4.3348   -0.4545    0.0000 C   0  0  0  0  0  0  0  0  0  0  0  0
    4.4466    1.3913    0.0000 C   0  0  0  0  0  0  0  0  0  0  0  0
   -3.9572   -2.0066    0.0000 C   0  0  0  0  0  0  0  0  0  0  0  0
   -3.2301   -0.7202    0.0000 C   0  0  0  0  0  0  0  0  0  0  0  0
    5.0479    0.8320    0.0000 C   0  0  0  0  0  0  0  0  0  0  0  0
   -4.7543   -1.7689    0.0000 C   0  0  0  0  0  0  0  0  0  0  0  0
   -3.8314   -0.1468    0.0000 C   0  0  0  0  0  0  0  0  0  0  0  0
   -4.6424   -0.2867    0.0000 C   0  0  0  0  0  0  0  0  0  0  0  0
    5.8869   -0.4964    0.0000 C   0  0  0  0  0  0  0  0  0  0  0  0
   -5.8869   -0.9998    0.0000 C   0  0  0  0  0  0  0  0  0  0  0  0
  1 15  2  0  0  0  0
  2 15  1  0  0  0  0
  2 23  1  0  0  0  0
  2 24  1  0  0  0  0
  3 10  1  0  0  0  0
  4 22  1  0  0  0  0
  4 27  1  0  0  0  0
  4 28  1  0  0  0  0
  5 25  1  0  0  0  0
  5 29  1  0  0  0  0
  5 33  1  0  0  0  0
  6 21  3  0  0  0  0
  7 30  1  0  0  0  0
  7 32  1  0  0  0  0
  7 34  1  0  0  0  0
  8  9  1  0  0  0  0
  8 10  2  0  0  0  0
  8 14  1  0  0  0  0
  9 11  2  0  0  0  0
  9 16  1  0  0  0  0
 10 13  1  0  0  0  0
 11 19  1  0  0  0  0
 11 21  1  0  0  0  0
 12 13  2  0  0  0  0
 12 15  1  0  0  0  0
 12 17  1  0  0  0  0
 14 17  2  0  0  0  0
 16 20  2  0  0  0  0
 18 19  2  0  0  0  0
 18 20  1  0  0  0  0
 18 22  1  0  0  0  0
 23 25  1  0  0  0  0
 24 26  1  0  0  0  0
 26 29  1  0  0  0  0
 27 30  1  0  0  0  0
 28 31  1  0  0  0  0
 31 32  1  0  0  0  0
M  END
> <PUBCHEM_COMPOUND_ID_TYPE>
0

> <PUBCHEM_TOTAL_CHARGE>
0

> <PUBCHEM_SUBSTANCE_ID>
310943575

> <PUBCHEM_SUBSTANCE_VERSION>
1

> <PUBCHEM_EXT_DATASOURCE_NAME>
4488

> <PUBCHEM_EXT_DATASOURCE_REGID>
SCHEMBL16121642

> <PUBCHEM_SUBSTANCE_COMMENT>
InChI=1S/C27H36N6O/c1-30-9-3-11-32(15-13-30)20-21-5-7-24(23(17-21)19-28)25-8-6-22(18-26(25)29)27(34)33-12-4-10-31(2)14-16-33/h5-8,17-18H,3-4,9-16,20,29H2,1-2H3
InChIKey=SFBHKPDKMWTCQF-UHFFFAOYSA-N

> <PUBCHEM_SUBSTANCE_SYNONYM>
SCHEMBL16121642

> <PUBCHEM_XREF_EXT_ID>
SCHEMBL16121642

> <PUBCHEM_EXT_DATASOURCE_URL>
https://www.surechembl.org/

> <PUBCHEM_EXT_SUBSTANCE_URL>
https://www.surechembl.org/chemical/SCHEMBL16121642

> <PUBCHEM_CID_ASSOCIATIONS>
86301516  1

> <PUBCHEM_COORDINATE_TYPE>
1
3

$$$$
