310930596
  -OEChem-07211613022D

 25 28  0     1  0  0  0  0  0999 V2000
    5.2246   -4.6032    0.0000 Cl  0  0  0  0  0  0  0  0  0  0  0  0
    5.0175   -1.6111    0.0000 O   0  0  0  0  0  0  0  0  0  0  0  0
    5.5238   -0.8286    0.0000 O   0  0  0  0  0  0  0  0  0  0  0  0
    0.0000   -1.9333    0.0000 O   0  0  0  0  0  0  0  0  0  0  0  0
    4.1889   -0.1611    0.0000 N   0  0  0  0  0  0  0  0  0  0  0  0
    0.4143   -2.6699    0.0000 N   0  0  0  0  0  0  0  0  0  0  0  0
    4.1889   -1.4730    0.0000 C   0  0  3  0  0  0  0  0  0  0  0  0
    3.4293   -1.2428    0.0000 C   0  0  0  0  0  0  0  0  0  0  0  0
    3.4293   -0.3913    0.0000 C   0  0  0  0  0  0  0  0  0  0  0  0
    4.6952   -0.8286    0.0000 C   0  0  0  0  0  0  0  0  0  0  0  0
    4.4650   -2.2555    0.0000 C   0  0  0  0  0  0  0  0  0  0  0  0
    2.6929   -1.6341    0.0000 C   0  0  0  0  0  0  0  0  0  0  0  0
    2.0024   -1.2428    0.0000 C   0  0  0  0  0  0  0  0  0  0  0  0
    1.3119   -1.6572    0.0000 C   0  0  0  0  0  0  0  0  0  0  0  0
    2.6929    0.0000    0.0000 C   0  0  0  0  0  0  0  0  0  0  0  0
    2.0024   -0.3913    0.0000 C   0  0  0  0  0  0  0  0  0  0  0  0
    5.2706   -2.4397    0.0000 C   0  0  0  0  0  0  0  0  0  0  0  0
    3.9127   -2.8770    0.0000 C   0  0  0  0  0  0  0  0  0  0  0  0
    0.5524   -1.3349    0.0000 C   0  0  0  0  0  0  0  0  0  0  0  0
    1.2198   -2.4627    0.0000 C   0  0  0  0  0  0  0  0  0  0  0  0
    5.5238   -3.2222    0.0000 C   0  0  0  0  0  0  0  0  0  0  0  0
    4.1659   -3.6365    0.0000 C   0  0  0  0  0  0  0  0  0  0  0  0
    4.9714   -3.8206    0.0000 C   0  0  0  0  0  0  0  0  0  0  0  0
    0.3683   -0.5293    0.0000 C   0  0  0  0  0  0  0  0  0  0  0  0
    1.8182   -3.0151    0.0000 C   0  0  0  0  0  0  0  0  0  0  0  0
  1 23  1  0  0  0  0
  2  7  1  0  0  0  0
  3 10  2  0  0  0  0
  4  6  1  0  0  0  0
  4 19  1  0  0  0  0
  5  9  1  0  0  0  0
  5 10  1  0  0  0  0
  6 20  2  0  0  0  0
  7  8  1  0  0  0  0
  7 10  1  0  0  0  0
  7 11  1  0  0  0  0
  8  9  2  0  0  0  0
  8 12  1  0  0  0  0
  9 15  1  0  0  0  0
 11 17  2  0  0  0  0
 11 18  1  0  0  0  0
 12 13  2  0  0  0  0
 13 14  1  0  0  0  0
 13 16  1  0  0  0  0
 14 19  2  0  0  0  0
 14 20  1  0  0  0  0
 15 16  2  0  0  0  0
 17 21  1  0  0  0  0
 18 22  2  0  0  0  0
 19 24  1  0  0  0  0
 20 25  1  0  0  0  0
 21 23  2  0  0  0  0
 22 23  1  0  0  0  0
M  END
> <PUBCHEM_COMPOUND_ID_TYPE>
0

> <PUBCHEM_TOTAL_CHARGE>
0

> <PUBCHEM_SUBSTANCE_ID>
310930596

> <PUBCHEM_SUBSTANCE_VERSION>
1

> <PUBCHEM_EXT_DATASOURCE_NAME>
4488

> <PUBCHEM_EXT_DATASOURCE_REGID>
SCHEMBL16107891

> <PUBCHEM_SUBSTANCE_COMMENT>
InChI=1S/C19H15ClN2O3/c1-10-17(11(2)25-22-10)12-3-8-16-15(9-12)19(24,18(23)21-16)13-4-6-14(20)7-5-13/h3-9,24H,1-2H3,(H,21,23)
InChIKey=KITDTDHKUIUWEM-UHFFFAOYSA-N

> <PUBCHEM_SUBSTANCE_SYNONYM>
SCHEMBL16107891

> <PUBCHEM_XREF_EXT_ID>
SCHEMBL16107891

> <PUBCHEM_EXT_DATASOURCE_URL>
https://www.surechembl.org/

> <PUBCHEM_EXT_SUBSTANCE_URL>
https://www.surechembl.org/chemical/SCHEMBL16107891

> <PUBCHEM_CID_ASSOCIATIONS>
86296103  1

> <PUBCHEM_COORDINATE_TYPE>
1
3

$$$$
