310935232
  -OEChem-07211613022D

 18 18  0     1  0  0  0  0  0999 V2000
    5.8596   -0.7145    0.0000 O   0  0  0  0  0  0  0  0  0  0  0  0
    4.6221   -0.0000    0.0000 O   0  0  0  0  0  0  0  0  0  0  0  0
   -1.0717   -0.8395    0.0000 N   0  0  3  0  0  0  0  0  0  0  0  0
   -1.4842   -2.1091    0.0000 N   0  0  0  0  0  0  0  0  0  0  0  0
   -0.3572    0.3980    0.0000 C   0  0  0  0  0  0  0  0  0  0  0  0
   -1.0717   -0.0145    0.0000 C   0  0  0  0  0  0  0  0  0  0  0  0
   -0.3572    1.2230    0.0000 C   0  0  0  0  0  0  0  0  0  0  0  0
    0.3572   -0.0145    0.0000 C   0  0  0  0  0  0  0  0  0  0  0  0
    1.0717    1.2230    0.0000 C   0  0  0  0  0  0  0  0  0  0  0  0
   -1.7391   -1.3245    0.0000 C   0  0  0  0  0  0  0  0  0  0  0  0
   -0.4043   -1.3245    0.0000 C   0  0  0  0  0  0  0  0  0  0  0  0
    0.3572    1.6355    0.0000 C   0  0  0  0  0  0  0  0  0  0  0  0
    1.0717    0.3980    0.0000 C   0  0  0  0  0  0  0  0  0  0  0  0
   -0.6592   -2.1091    0.0000 C   0  0  0  0  0  0  0  0  0  0  0  0
    1.7862    1.6355    0.0000 C   0  0  0  0  0  0  0  0  0  0  0  0
    2.5006    1.2230    0.0000 C   0  0  0  0  0  0  0  0  0  0  0  0
    5.4471   -0.0000    0.0000 C   0  0  0  0  0  0  0  0  0  0  0  0
    5.8596    0.7145    0.0000 C   0  0  0  0  0  0  0  0  0  0  0  0
  1 17  2  0  0  0  0
  2 17  1  0  0  0  0
  3  6  1  0  0  0  0
  3 10  1  0  0  0  0
  3 11  1  0  0  0  0
  4 10  1  0  0  0  0
  4 14  1  0  0  0  0
  5  6  1  0  0  0  0
  5  7  2  0  0  0  0
  5  8  1  0  0  0  0
  7 12  1  0  0  0  0
  8 13  2  0  0  0  0
  9 12  2  0  0  0  0
  9 13  1  0  0  0  0
  9 15  1  0  0  0  0
 11 14  2  0  0  0  0
 15 16  2  0  0  0  0
 17 18  1  0  0  0  0
M  END
> <PUBCHEM_COMPOUND_ID_TYPE>
0

> <PUBCHEM_TOTAL_CHARGE>
0

> <PUBCHEM_SUBSTANCE_ID>
310935232

> <PUBCHEM_SUBSTANCE_VERSION>
1

> <PUBCHEM_EXT_DATASOURCE_NAME>
4488

> <PUBCHEM_EXT_DATASOURCE_REGID>
SCHEMBL16112760

> <PUBCHEM_SUBSTANCE_COMMENT>
InChI=1S/C12H14N2.C2H4O2/c1-2-11-3-5-12(6-4-11)9-14-8-7-13-10-14;1-2(3)4/h2-8,13H,1,9-10H2;1H3,(H,3,4)
InChIKey=ISOJGMNNIBIBBL-UHFFFAOYSA-N

> <PUBCHEM_SUBSTANCE_SYNONYM>
SCHEMBL16112760

> <PUBCHEM_XREF_EXT_ID>
SCHEMBL16112760

> <PUBCHEM_EXT_DATASOURCE_URL>
https://www.surechembl.org/

> <PUBCHEM_EXT_SUBSTANCE_URL>
https://www.surechembl.org/chemical/SCHEMBL16112760

> <PUBCHEM_CID_ASSOCIATIONS>
117603308  1
176  2
117603309  2

> <PUBCHEM_COORDINATE_TYPE>
1
3

$$$$
