310932034
  -OEChem-07211613022D

 37 40  0     1  0  0  0  0  0999 V2000
    0.0032   -5.3493    0.0000 F   0  0  0  0  0  0  0  0  0  0  0  0
   -4.2868    1.6500    0.0000 F   0  0  0  0  0  0  0  0  0  0  0  0
   -3.1599    1.3480    0.0000 F   0  0  0  0  0  0  0  0  0  0  0  0
   -3.9849    2.7770    0.0000 F   0  0  0  0  0  0  0  0  0  0  0  0
   -0.7376   -1.4675    0.0000 O   0  0  0  0  0  0  0  0  0  0  0  0
    1.4289    2.4750    0.0000 O   0  0  0  0  0  0  0  0  0  0  0  0
    0.7145   -1.2375    0.0000 N   0  0  0  0  0  0  0  0  0  0  0  0
    1.3819   -1.7224    0.0000 N   0  0  0  0  0  0  0  0  0  0  0  0
    1.4289    0.0000    0.0000 N   0  0  0  0  0  0  0  0  0  0  0  0
    0.0000    2.4750    0.0000 N   0  0  0  0  0  0  0  0  0  0  0  0
   -2.1434    2.0625    0.0000 N   0  0  3  0  0  0  0  0  0  0  0  0
   -2.1226   -5.8442    0.0000 N   0  0  0  0  0  0  0  0  0  0  0  0
    0.3020   -2.5070    0.0000 C   0  0  0  0  0  0  0  0  0  0  0  0
    0.0470   -1.7224    0.0000 C   0  0  0  0  0  0  0  0  0  0  0  0
   -0.1830   -3.1745    0.0000 C   0  0  0  0  0  0  0  0  0  0  0  0
    0.7145   -0.4125    0.0000 C   0  0  0  0  0  0  0  0  0  0  0  0
    0.1526   -3.9282    0.0000 C   0  0  0  0  0  0  0  0  0  0  0  0
    1.1270   -2.5070    0.0000 C   0  0  0  0  0  0  0  0  0  0  0  0
   -0.3323   -4.5956    0.0000 C   0  0  0  0  0  0  0  0  0  0  0  0
   -1.0034   -3.0882    0.0000 C   0  0  0  0  0  0  0  0  0  0  0  0
    0.7145    1.2375    0.0000 C   0  0  0  0  0  0  0  0  0  0  0  0
   -1.1528   -4.5094    0.0000 C   0  0  0  0  0  0  0  0  0  0  0  0
    0.0000    0.0000    0.0000 C   0  0  0  0  0  0  0  0  0  0  0  0
    0.7145    2.0625    0.0000 C   0  0  0  0  0  0  0  0  0  0  0  0
   -1.4884   -3.7557    0.0000 C   0  0  0  0  0  0  0  0  0  0  0  0
    1.4289    0.8250    0.0000 C   0  0  0  0  0  0  0  0  0  0  0  0
    0.0000    0.8250    0.0000 C   0  0  0  0  0  0  0  0  0  0  0  0
   -1.4289    2.4750    0.0000 C   0  0  3  0  0  0  0  0  0  0  0  0
   -0.7145    2.0625    0.0000 C   0  0  0  0  0  0  0  0  0  0  0  0
    0.9731   -4.0144    0.0000 C   0  0  0  0  0  0  0  0  0  0  0  0
    0.0000    3.3000    0.0000 C   0  0  0  0  0  0  0  0  0  0  0  0
   -1.6377   -5.1768    0.0000 C   0  0  0  0  0  0  0  0  0  0  0  0
   -1.4289    3.3000    0.0000 C   0  0  0  0  0  0  0  0  0  0  0  0
   -0.7145    3.7125    0.0000 C   0  0  0  0  0  0  0  0  0  0  0  0
   -2.8579    2.4750    0.0000 C   0  0  0  0  0  0  0  0  0  0  0  0
   -3.5724    2.0625    0.0000 C   0  0  0  0  0  0  0  0  0  0  0  0
   -2.1434    1.2375    0.0000 C   0  0  0  0  0  0  0  0  0  0  0  0
  1 19  1  0  0  0  0
  2 36  1  0  0  0  0
  3 36  1  0  0  0  0
  4 36  1  0  0  0  0
  5 14  1  0  0  0  0
  6 24  2  0  0  0  0
  7  8  1  0  0  0  0
  7 14  1  0  0  0  0
  7 16  1  0  0  0  0
  8 18  2  0  0  0  0
  9 16  2  0  0  0  0
  9 26  1  0  0  0  0
 10 24  1  0  0  0  0
 10 29  1  0  0  0  0
 10 31  1  0  0  0  0
 11 28  1  0  0  0  0
 11 35  1  0  0  0  0
 11 37  1  0  0  0  0
 12 32  3  0  0  0  0
 13 14  2  0  0  0  0
 13 15  1  0  0  0  0
 13 18  1  0  0  0  0
 15 17  2  0  0  0  0
 15 20  1  0  0  0  0
 16 23  1  0  0  0  0
 17 19  1  0  0  0  0
 17 30  1  0  0  0  0
 19 22  2  0  0  0  0
 20 25  2  0  0  0  0
 21 24  1  0  0  0  0
 21 26  2  0  0  0  0
 21 27  1  0  0  0  0
 22 25  1  0  0  0  0
 22 32  1  0  0  0  0
 23 27  2  0  0  0  0
 28 29  1  0  0  0  0
 28 33  1  0  0  0  0
 31 34  1  0  0  0  0
 33 34  1  0  0  0  0
 35 36  1  0  0  0  0
M  END
> <PUBCHEM_COMPOUND_ID_TYPE>
0

> <PUBCHEM_TOTAL_CHARGE>
0

> <PUBCHEM_SUBSTANCE_ID>
310932034

> <PUBCHEM_SUBSTANCE_VERSION>
1

> <PUBCHEM_EXT_DATASOURCE_NAME>
4488

> <PUBCHEM_EXT_DATASOURCE_REGID>
SCHEMBL16109377

> <PUBCHEM_SUBSTANCE_COMMENT>
InChI=1S/C25H24F4N6O2/c1-15-19(7-5-16(10-30)22(15)26)20-12-32-35(24(20)37)21-8-6-17(11-31-21)23(36)34-9-3-4-18(13-34)33(2)14-25(27,28)29/h5-8,11-12,18,37H,3-4,9,13-14H2,1-2H3
InChIKey=GHQYJMIFWPJUSE-UHFFFAOYSA-N

> <PUBCHEM_SUBSTANCE_SYNONYM>
SCHEMBL16109377

> <PUBCHEM_XREF_EXT_ID>
SCHEMBL16109377

> <PUBCHEM_EXT_DATASOURCE_URL>
https://www.surechembl.org/

> <PUBCHEM_EXT_SUBSTANCE_URL>
https://www.surechembl.org/chemical/SCHEMBL16109377

> <PUBCHEM_CID_ASSOCIATIONS>
117600668  1

> <PUBCHEM_COORDINATE_TYPE>
1
3

$$$$
