310942284
  -OEChem-07211613022D

 26 28  0     1  0  0  0  0  0999 V2000
    0.4331    1.8948    0.0000 O   0  0  0  0  0  0  0  0  0  0  0  0
   -2.3202   -0.6265    0.0000 O   0  0  0  0  0  0  0  0  0  0  0  0
   -1.5932   -1.8484    0.0000 O   0  0  0  0  0  0  0  0  0  0  0  0
    2.9080   -0.3480    0.0000 O   0  0  0  0  0  0  0  0  0  0  0  0
    0.4331   -0.3326    0.0000 N   0  0  0  0  0  0  0  0  0  0  0  0
    1.2529   -0.5027    0.0000 N   0  0  0  0  0  0  0  0  0  0  0  0
    2.9234    1.0905    0.0000 N   0  0  0  0  0  0  0  0  0  0  0  0
    0.0309    0.3635    0.0000 C   0  0  0  0  0  0  0  0  0  0  0  0
    0.4177    1.0905    0.0000 C   0  0  3  0  0  0  0  0  0  0  0  0
   -0.7734    0.2088    0.0000 C   0  0  0  0  0  0  0  0  0  0  0  0
   -0.8817   -0.6110    0.0000 C   0  0  0  0  0  0  0  0  0  0  0  0
   -0.1082   -0.9667    0.0000 C   0  0  0  0  0  0  0  0  0  0  0  0
    1.2683    1.0750    0.0000 C   0  0  0  0  0  0  0  0  0  0  0  0
   -1.5778   -0.9977    0.0000 C   0  0  0  0  0  0  0  0  0  0  0  0
    0.1547   -1.7247    0.0000 C   0  0  0  0  0  0  0  0  0  0  0  0
   -0.3867    1.2916    0.0000 C   0  0  0  0  0  0  0  0  0  0  0  0
    1.6706    0.3790    0.0000 C   0  0  0  0  0  0  0  0  0  0  0  0
   -1.4385    0.7656    0.0000 C   0  0  0  0  0  0  0  0  0  0  0  0
    1.6860    1.7865    0.0000 C   0  0  0  0  0  0  0  0  0  0  0  0
    1.5004   -1.3071    0.0000 C   0  0  0  0  0  0  0  0  0  0  0  0
    0.9590   -1.8948    0.0000 C   0  0  0  0  0  0  0  0  0  0  0  0
    2.4903    0.3790    0.0000 C   0  0  0  0  0  0  0  0  0  0  0  0
    2.5213    1.7865    0.0000 C   0  0  0  0  0  0  0  0  0  0  0  0
   -3.0162   -1.0286    0.0000 C   0  0  0  0  0  0  0  0  0  0  0  0
    3.7742    1.0750    0.0000 C   0  0  0  0  0  0  0  0  0  0  0  0
   -3.7742   -0.5955    0.0000 C   0  0  0  0  0  0  0  0  0  0  0  0
  1  9  1  0  0  0  0
  2 14  1  0  0  0  0
  2 24  1  0  0  0  0
  3 14  2  0  0  0  0
  4 22  2  0  0  0  0
  5  6  1  0  0  0  0
  5  8  1  0  0  0  0
  5 12  1  0  0  0  0
  6 20  2  0  0  0  0
  7 22  1  0  0  0  0
  7 23  1  0  0  0  0
  7 25  1  0  0  0  0
  8  9  1  0  0  0  0
  8 10  2  0  0  0  0
  9 13  1  0  0  0  0
  9 16  1  0  0  0  0
 10 11  1  0  0  0  0
 10 18  1  0  0  0  0
 11 12  2  0  0  0  0
 11 14  1  0  0  0  0
 12 15  1  0  0  0  0
 13 17  2  0  0  0  0
 13 19  1  0  0  0  0
 15 21  2  0  0  0  0
 17 22  1  0  0  0  0
 19 23  2  0  0  0  0
 20 21  1  0  0  0  0
 24 26  1  0  0  0  0
M  END
> <PUBCHEM_COMPOUND_ID_TYPE>
0

> <PUBCHEM_TOTAL_CHARGE>
0

> <PUBCHEM_SUBSTANCE_ID>
310942284

> <PUBCHEM_SUBSTANCE_VERSION>
1

> <PUBCHEM_EXT_DATASOURCE_NAME>
4488

> <PUBCHEM_EXT_DATASOURCE_REGID>
SCHEMBL16120319

> <PUBCHEM_SUBSTANCE_COMMENT>
InChI=1S/C19H21N3O4/c1-5-26-18(24)16-12(2)17(22-14(16)7-6-9-20-22)19(3,25)13-8-10-21(4)15(23)11-13/h6-11,25H,5H2,1-4H3
InChIKey=IYYYNZWRJFPANO-UHFFFAOYSA-N

> <PUBCHEM_SUBSTANCE_SYNONYM>
SCHEMBL16120319

> <PUBCHEM_XREF_EXT_ID>
SCHEMBL16120319

> <PUBCHEM_EXT_DATASOURCE_URL>
https://www.surechembl.org/

> <PUBCHEM_EXT_SUBSTANCE_URL>
https://www.surechembl.org/chemical/SCHEMBL16120319

> <PUBCHEM_CID_ASSOCIATIONS>
117608933  1

> <PUBCHEM_COORDINATE_TYPE>
1
3

$$$$
