310938024
  -OEChem-07211613022D

 25 28  0     1  0  0  0  0  0999 V2000
    6.1403   -2.2137    0.0000 O   0  0  0  0  0  0  0  0  0  0  0  0
    2.0555   -2.9252    0.0000 O   0  0  0  0  0  0  0  0  0  0  0  0
    4.9017   -1.8184    0.0000 N   0  0  0  0  0  0  0  0  0  0  0  0
    4.3219   -3.9003    0.0000 N   0  0  0  0  0  0  0  0  0  0  0  0
    5.6660   -2.8988    0.0000 N   0  0  0  0  0  0  0  0  0  0  0  0
    0.0000   -3.6104    0.0000 N   0  0  0  0  0  0  0  0  0  0  0  0
    2.9252   -4.0584    0.0000 C   0  0  0  0  0  0  0  0  0  0  0  0
    4.2165   -3.1097    0.0000 C   0  0  0  0  0  0  0  0  0  0  0  0
    2.8198   -3.2678    0.0000 C   0  0  0  0  0  0  0  0  0  0  0  0
    4.9017   -2.6353    0.0000 C   0  0  0  0  0  0  0  0  0  0  0  0
    2.2400   -4.5327    0.0000 C   0  0  0  0  0  0  0  0  0  0  0  0
    5.6660   -1.5549    0.0000 C   0  0  0  0  0  0  0  0  0  0  0  0
    3.4786   -2.7407    0.0000 C   0  0  0  0  0  0  0  0  0  0  0  0
    3.6631   -4.4010    0.0000 C   0  0  0  0  0  0  0  0  0  0  0  0
    5.9295   -0.7642    0.0000 C   0  0  0  0  0  0  0  0  0  0  0  0
    1.8974   -5.2706    0.0000 C   0  0  0  0  0  0  0  0  0  0  0  0
    1.4231   -4.6118    0.0000 C   0  0  0  0  0  0  0  0  0  0  0  0
    1.4231   -3.4259    0.0000 C   0  0  3  0  0  0  0  0  0  0  0  0
    6.7201   -1.0278    0.0000 C   0  0  0  0  0  0  0  0  0  0  0  0
    6.1930    0.0000    0.0000 C   0  0  0  0  0  0  0  0  0  0  0  0
    5.1652   -0.5271    0.0000 C   0  0  0  0  0  0  0  0  0  0  0  0
    0.6588   -3.1097    0.0000 C   0  0  0  0  0  0  0  0  0  0  0  0
    1.5022   -4.2692    0.0000 C   0  0  0  0  0  0  0  0  0  0  0  0
    0.8697   -4.7436    0.0000 C   0  0  0  0  0  0  0  0  0  0  0  0
    0.1054   -4.4274    0.0000 C   0  0  0  0  0  0  0  0  0  0  0  0
  1  5  1  0  0  0  0
  1 12  1  0  0  0  0
  2  9  1  0  0  0  0
  2 18  1  0  0  0  0
  3 10  1  0  0  0  0
  3 12  2  0  0  0  0
  4  8  1  0  0  0  0
  4 14  2  0  0  0  0
  5 10  2  0  0  0  0
  6 22  1  0  0  0  0
  6 25  1  0  0  0  0
  7  9  2  0  0  0  0
  7 11  1  0  0  0  0
  7 14  1  0  0  0  0
  8 10  1  0  0  0  0
  8 13  2  0  0  0  0
  9 13  1  0  0  0  0
 11 16  1  0  0  0  0
 11 17  1  0  0  0  0
 12 15  1  0  0  0  0
 15 19  1  0  0  0  0
 15 20  1  0  0  0  0
 15 21  1  0  0  0  0
 16 17  1  0  0  0  0
 18 22  1  0  0  0  0
 18 23  1  0  0  0  0
 23 24  1  0  0  0  0
 24 25  1  0  0  0  0
M  END
> <PUBCHEM_COMPOUND_ID_TYPE>
0

> <PUBCHEM_TOTAL_CHARGE>
0

> <PUBCHEM_SUBSTANCE_ID>
310938024

> <PUBCHEM_SUBSTANCE_VERSION>
1

> <PUBCHEM_EXT_DATASOURCE_NAME>
4488

> <PUBCHEM_EXT_DATASOURCE_REGID>
SCHEMBL16115864

> <PUBCHEM_SUBSTANCE_COMMENT>
InChI=1S/C19H26N4O2/c1-19(2,3)18-22-17(23-25-18)15-9-16(14(11-21-15)12-6-7-12)24-13-5-4-8-20-10-13/h9,11-13,20H,4-8,10H2,1-3H3
InChIKey=QYLKJUFYMHWCKH-UHFFFAOYSA-N

> <PUBCHEM_SUBSTANCE_SYNONYM>
SCHEMBL16115864

> <PUBCHEM_XREF_EXT_ID>
SCHEMBL16115864

> <PUBCHEM_EXT_DATASOURCE_URL>
https://www.surechembl.org/

> <PUBCHEM_EXT_SUBSTANCE_URL>
https://www.surechembl.org/chemical/SCHEMBL16115864

> <PUBCHEM_CID_ASSOCIATIONS>
117605614  1

> <PUBCHEM_COORDINATE_TYPE>
1
3

$$$$
