310938425
  -OEChem-07211613022D

 34 37  0     1  0  0  0  0  0999 V2000
    7.1941   -6.1380    0.0000 O   0  0  0  0  0  0  0  0  0  0  0  0
    8.6131   -6.1380    0.0000 O   0  0  0  0  0  0  0  0  0  0  0  0
    2.1450    0.0000    0.0000 O   0  0  0  0  0  0  0  0  0  0  0  0
    9.4051   -3.3990    0.0000 N   0  0  3  0  0  0  0  0  0  0  0  0
    4.3230   -2.0460    0.0000 N   0  0  0  0  0  0  0  0  0  0  0  0
    5.0490   -3.2670    0.0000 N   0  0  0  0  0  0  0  0  0  0  0  0
    2.8710   -1.2540    0.0000 N   0  0  0  0  0  0  0  0  0  0  0  0
    8.6460   -3.6630    0.0000 C   0  0  0  0  0  0  0  0  0  0  0  0
    8.6460   -4.4880    0.0000 C   0  0  0  0  0  0  0  0  0  0  0  0
    7.9200   -4.9171    0.0000 C   0  0  0  0  0  0  0  0  0  0  0  0
    7.2270   -3.6630    0.0000 C   0  0  0  0  0  0  0  0  0  0  0  0
    7.9200   -3.2340    0.0000 C   0  0  0  0  0  0  0  0  0  0  0  0
    7.2270   -4.4880    0.0000 C   0  0  0  0  0  0  0  0  0  0  0  0
    6.5010   -3.2670    0.0000 C   0  0  0  0  0  0  0  0  0  0  0  0
    9.4051   -4.7520    0.0000 C   0  0  0  0  0  0  0  0  0  0  0  0
    9.9001   -4.0921    0.0000 C   0  0  0  0  0  0  0  0  0  0  0  0
    7.9200   -5.7421    0.0000 C   0  0  0  0  0  0  0  0  0  0  0  0
    5.0160   -2.4420    0.0000 C   0  0  0  0  0  0  0  0  0  0  0  0
    5.7751   -3.6630    0.0000 C   0  0  0  0  0  0  0  0  0  0  0  0
    6.4680   -2.4420    0.0000 C   0  0  0  0  0  0  0  0  0  0  0  0
    9.6691   -2.6400    0.0000 C   0  0  0  0  0  0  0  0  0  0  0  0
    5.7751   -2.0460    0.0000 C   0  0  0  0  0  0  0  0  0  0  0  0
    4.3230   -1.2210    0.0000 C   0  0  0  0  0  0  0  0  0  0  0  0
    3.5970   -2.4750    0.0000 C   0  0  0  0  0  0  0  0  0  0  0  0
    2.9040   -2.0460    0.0000 C   0  0  0  0  0  0  0  0  0  0  0  0
    3.5970   -0.8250    0.0000 C   0  0  0  0  0  0  0  0  0  0  0  0
    2.1780   -0.8250    0.0000 C   0  0  0  0  0  0  0  0  0  0  0  0
    9.1081   -2.0130    0.0000 C   0  0  0  0  0  0  0  0  0  0  0  0
    1.4520   -1.2540    0.0000 C   0  0  0  0  0  0  0  0  0  0  0  0
    0.6930   -0.8580    0.0000 C   0  0  0  0  0  0  0  0  0  0  0  0
    8.3161   -2.1780    0.0000 C   0  0  0  0  0  0  0  0  0  0  0  0
    0.0000   -1.2540    0.0000 C   0  0  0  0  0  0  0  0  0  0  0  0
    0.6930   -0.0330    0.0000 C   0  0  0  0  0  0  0  0  0  0  0  0
    0.7260   -1.6830    0.0000 C   0  0  0  0  0  0  0  0  0  0  0  0
  1 17  2  0  0  0  0
  2 17  1  0  0  0  0
  3 27  2  0  0  0  0
  4  8  1  0  0  0  0
  4 16  1  0  0  0  0
  4 21  1  0  0  0  0
  5 18  1  0  0  0  0
  5 23  1  0  0  0  0
  5 24  1  0  0  0  0
  6 18  2  0  0  0  0
  6 19  1  0  0  0  0
  7 25  1  0  0  0  0
  7 26  1  0  0  0  0
  7 27  1  0  0  0  0
  8  9  2  0  0  0  0
  8 12  1  0  0  0  0
  9 10  1  0  0  0  0
  9 15  1  0  0  0  0
 10 13  2  0  0  0  0
 10 17  1  0  0  0  0
 11 12  2  0  0  0  0
 11 13  1  0  0  0  0
 11 14  1  0  0  0  0
 14 19  2  0  0  0  0
 14 20  1  0  0  0  0
 15 16  1  0  0  0  0
 18 22  1  0  0  0  0
 20 22  2  0  0  0  0
 21 28  1  0  0  0  0
 23 26  1  0  0  0  0
 24 25  1  0  0  0  0
 27 29  1  0  0  0  0
 28 31  1  0  0  0  0
 29 30  1  0  0  0  0
 30 32  1  0  0  0  0
 30 33  1  0  0  0  0
 30 34  1  0  0  0  0
M  END
> <PUBCHEM_COMPOUND_ID_TYPE>
0

> <PUBCHEM_TOTAL_CHARGE>
0

> <PUBCHEM_SUBSTANCE_ID>
310938425

> <PUBCHEM_SUBSTANCE_VERSION>
1

> <PUBCHEM_EXT_DATASOURCE_NAME>
4488

> <PUBCHEM_EXT_DATASOURCE_REGID>
SCHEMBL16116318

> <PUBCHEM_SUBSTANCE_COMMENT>
InChI=1S/C27H36N4O3/c1-5-9-29-10-8-21-22(26(33)34)15-20(16-23(21)29)19-6-7-24(28-18-19)30-11-13-31(14-12-30)25(32)17-27(2,3)4/h6-7,15-16,18H,5,8-14,17H2,1-4H3,(H,33,34)
InChIKey=HZDNARYITLNFLX-UHFFFAOYSA-N

> <PUBCHEM_SUBSTANCE_SYNONYM>
SCHEMBL16116318

> <PUBCHEM_XREF_EXT_ID>
SCHEMBL16116318

> <PUBCHEM_EXT_DATASOURCE_URL>
https://www.surechembl.org/

> <PUBCHEM_EXT_SUBSTANCE_URL>
https://www.surechembl.org/chemical/SCHEMBL16116318

> <PUBCHEM_CID_ASSOCIATIONS>
117605891  1

> <PUBCHEM_COORDINATE_TYPE>
1
3

$$$$
