310946851
  -OEChem-07211613022D

 31 35  0     1  0  0  0  0  0999 V2000
    5.6361   -0.9590    0.0000 O   0  0  0  0  0  0  0  0  0  0  0  0
    0.0797    1.9285    0.0000 O   0  0  0  0  0  0  0  0  0  0  0  0
    5.5636   -2.3410    0.0000 O   0  0  0  0  0  0  0  0  0  0  0  0
   -0.6348    0.6910    0.0000 N   0  0  0  0  0  0  0  0  0  0  0  0
   -1.3492    1.9285    0.0000 N   0  0  0  0  0  0  0  0  0  0  0  0
    0.7942   -0.1340    0.0000 N   0  0  3  0  0  0  0  0  0  0  0  0
   -4.9216    2.3410    0.0000 N   0  0  0  0  0  0  0  0  0  0  0  0
   -1.3492    1.1035    0.0000 C   0  0  0  0  0  0  0  0  0  0  0  0
   -2.7782    1.1035    0.0000 C   0  0  0  0  0  0  0  0  0  0  0  0
   -2.7782    1.9285    0.0000 C   0  0  0  0  0  0  0  0  0  0  0  0
    4.3665   -1.3715    0.0000 C   0  0  0  0  0  0  0  0  0  0  0  0
    4.3665   -0.5465    0.0000 C   0  0  0  0  0  0  0  0  0  0  0  0
    0.0797    1.1035    0.0000 C   0  0  0  0  0  0  0  0  0  0  0  0
   -2.0637    0.6910    0.0000 C   0  0  0  0  0  0  0  0  0  0  0  0
    5.1511   -1.6265    0.0000 C   0  0  0  0  0  0  0  0  0  0  0  0
    2.9376   -0.5465    0.0000 C   0  0  0  0  0  0  0  0  0  0  0  0
   -0.6348   -0.1340    0.0000 C   0  0  0  0  0  0  0  0  0  0  0  0
   -2.0637    2.3410    0.0000 C   0  0  0  0  0  0  0  0  0  0  0  0
    3.6521   -0.1340    0.0000 C   0  0  0  0  0  0  0  0  0  0  0  0
    0.7942    0.6910    0.0000 C   0  0  0  0  0  0  0  0  0  0  0  0
   -3.4927    2.3410    0.0000 C   0  0  0  0  0  0  0  0  0  0  0  0
    3.6521   -1.7840    0.0000 C   0  0  0  0  0  0  0  0  0  0  0  0
   -3.4927    0.6910    0.0000 C   0  0  0  0  0  0  0  0  0  0  0  0
    5.1511   -0.2916    0.0000 C   0  0  0  0  0  0  0  0  0  0  0  0
    0.0797   -0.5465    0.0000 C   0  0  0  0  0  0  0  0  0  0  0  0
   -4.2071    1.9285    0.0000 C   0  0  0  0  0  0  0  0  0  0  0  0
    2.9376   -1.3715    0.0000 C   0  0  0  0  0  0  0  0  0  0  0  0
    1.5086   -0.5465    0.0000 C   0  0  0  0  0  0  0  0  0  0  0  0
    2.2231   -0.1340    0.0000 C   0  0  0  0  0  0  0  0  0  0  0  0
   -4.2071    1.1035    0.0000 C   0  0  0  0  0  0  0  0  0  0  0  0
   -5.6361    1.9285    0.0000 C   0  0  0  0  0  0  0  0  0  0  0  0
  1 15  1  0  0  0  0
  1 24  1  0  0  0  0
  2 13  2  0  0  0  0
  3 15  2  0  0  0  0
  4  8  1  0  0  0  0
  4 13  1  0  0  0  0
  4 17  1  0  0  0  0
  5  8  1  0  0  0  0
  5 18  2  0  0  0  0
  6 20  1  0  0  0  0
  6 25  1  0  0  0  0
  6 28  1  0  0  0  0
  7 26  1  0  0  0  0
  7 31  1  0  0  0  0
  8 14  2  0  0  0  0
  9 10  1  0  0  0  0
  9 14  1  0  0  0  0
  9 23  2  0  0  0  0
 10 18  1  0  0  0  0
 10 21  2  0  0  0  0
 11 12  1  0  0  0  0
 11 15  1  0  0  0  0
 11 22  2  0  0  0  0
 12 19  2  0  0  0  0
 12 24  1  0  0  0  0
 13 20  1  0  0  0  0
 16 19  1  0  0  0  0
 16 27  2  0  0  0  0
 16 29  1  0  0  0  0
 17 25  1  0  0  0  0
 21 26  1  0  0  0  0
 22 27  1  0  0  0  0
 23 30  1  0  0  0  0
 26 30  2  0  0  0  0
 28 29  1  0  0  0  0
M  END
> <PUBCHEM_COMPOUND_ID_TYPE>
0

> <PUBCHEM_TOTAL_CHARGE>
0

> <PUBCHEM_SUBSTANCE_ID>
310946851

> <PUBCHEM_SUBSTANCE_VERSION>
1

> <PUBCHEM_EXT_DATASOURCE_NAME>
4488

> <PUBCHEM_EXT_DATASOURCE_REGID>
SCHEMBL16124975

> <PUBCHEM_SUBSTANCE_COMMENT>
InChI=1S/C24H24N4O3/c1-25-20-4-3-17-12-22(26-13-18(17)11-20)28-9-8-27(14-23(28)29)7-6-16-2-5-21-19(10-16)15-31-24(21)30/h2-5,10-13,25H,6-9,14-15H2,1H3
InChIKey=BVMHGZAGHGEFBK-UHFFFAOYSA-N

> <PUBCHEM_SUBSTANCE_SYNONYM>
SCHEMBL16124975

> <PUBCHEM_XREF_EXT_ID>
SCHEMBL16124975

> <PUBCHEM_EXT_DATASOURCE_URL>
https://www.surechembl.org/

> <PUBCHEM_EXT_SUBSTANCE_URL>
https://www.surechembl.org/chemical/SCHEMBL16124975

> <PUBCHEM_CID_ASSOCIATIONS>
117612710  1

> <PUBCHEM_COORDINATE_TYPE>
1
3

$$$$
