310937502
  -OEChem-07211613022D

 28 30  0     1  0  0  0  0  0999 V2000
    1.7309   -3.6020    0.0000 O   0  0  0  0  0  0  0  0  0  0  0  0
    5.0013   -2.0625    0.0000 O   0  0  0  0  0  0  0  0  0  0  0  0
    5.7158   -3.3000    0.0000 O   0  0  0  0  0  0  0  0  0  0  0  0
    4.2868   -3.3000    0.0000 N   0  0  0  0  0  0  0  0  0  0  0  0
    0.7145   -1.2375    0.0000 N   0  0  0  0  0  0  0  0  0  0  0  0
    2.1434   -2.8875    0.0000 C   0  0  3  0  0  0  0  0  0  0  0  0
    2.8579   -3.3000    0.0000 C   0  0  3  0  0  0  0  0  0  0  0  0
    2.5559   -2.1730    0.0000 C   0  0  0  0  0  0  0  0  0  0  0  0
    1.4289   -2.4750    0.0000 C   0  0  0  0  0  0  0  0  0  0  0  0
    2.8579   -4.1250    0.0000 C   0  0  0  0  0  0  0  0  0  0  0  0
    3.5724   -2.8875    0.0000 C   0  0  0  0  0  0  0  0  0  0  0  0
    3.5724   -4.5375    0.0000 C   0  0  0  0  0  0  0  0  0  0  0  0
    1.4289   -1.6500    0.0000 C   0  0  0  0  0  0  0  0  0  0  0  0
    0.7145   -2.8875    0.0000 C   0  0  0  0  0  0  0  0  0  0  0  0
    2.1434   -4.5375    0.0000 C   0  0  0  0  0  0  0  0  0  0  0  0
    3.5724   -5.3625    0.0000 C   0  0  0  0  0  0  0  0  0  0  0  0
    2.9684   -1.4586    0.0000 C   0  0  0  0  0  0  0  0  0  0  0  0
    1.8414   -1.7605    0.0000 C   0  0  0  0  0  0  0  0  0  0  0  0
    3.2704   -2.5855    0.0000 C   0  0  0  0  0  0  0  0  0  0  0  0
    2.8579   -5.7750    0.0000 C   0  0  0  0  0  0  0  0  0  0  0  0
    2.1434   -5.3625    0.0000 C   0  0  0  0  0  0  0  0  0  0  0  0
    0.0000   -2.4750    0.0000 C   0  0  0  0  0  0  0  0  0  0  0  0
    4.2868   -5.7750    0.0000 C   0  0  0  0  0  0  0  0  0  0  0  0
    2.8579   -6.6000    0.0000 C   0  0  0  0  0  0  0  0  0  0  0  0
    0.0000   -1.6500    0.0000 C   0  0  0  0  0  0  0  0  0  0  0  0
    5.0013   -2.8875    0.0000 C   0  0  0  0  0  0  0  0  0  0  0  0
    4.2868   -6.6000    0.0000 C   0  0  0  0  0  0  0  0  0  0  0  0
    3.5724   -7.0125    0.0000 C   0  0  0  0  0  0  0  0  0  0  0  0
  1  6  1  0  0  0  0
  2 26  2  0  0  0  0
  3 26  1  0  0  0  0
  4 11  1  0  0  0  0
  4 26  1  0  0  0  0
  5 13  2  0  0  0  0
  5 25  1  0  0  0  0
  6  7  1  0  0  0  0
  6  8  1  0  0  0  0
  6  9  1  0  0  0  0
  7 10  1  0  0  0  0
  7 11  1  0  0  0  0
  8 17  1  0  0  0  0
  8 18  1  0  0  0  0
  8 19  1  0  0  0  0
  9 13  1  0  0  0  0
  9 14  2  0  0  0  0
 10 12  2  0  0  0  0
 10 15  1  0  0  0  0
 12 16  1  0  0  0  0
 14 22  1  0  0  0  0
 15 21  2  0  0  0  0
 16 20  1  0  0  0  0
 16 23  2  0  0  0  0
 20 21  1  0  0  0  0
 20 24  2  0  0  0  0
 22 25  2  0  0  0  0
 23 27  1  0  0  0  0
 24 28  1  0  0  0  0
 27 28  2  0  0  0  0
M  END
> <PUBCHEM_COMPOUND_ID_TYPE>
0

> <PUBCHEM_TOTAL_CHARGE>
0

> <PUBCHEM_SUBSTANCE_ID>
310937502

> <PUBCHEM_SUBSTANCE_VERSION>
1

> <PUBCHEM_EXT_DATASOURCE_NAME>
4488

> <PUBCHEM_EXT_DATASOURCE_REGID>
SCHEMBL16115273

> <PUBCHEM_SUBSTANCE_COMMENT>
InChI=1S/C23H26N2O3/c1-22(2,3)23(28,19-9-6-12-24-14-19)20(15-25-21(26)27)18-11-10-16-7-4-5-8-17(16)13-18/h4-14,20,25,28H,15H2,1-3H3,(H,26,27)
InChIKey=MIGHTJOZCYLMKA-UHFFFAOYSA-N

> <PUBCHEM_SUBSTANCE_SYNONYM>
SCHEMBL16115273

> <PUBCHEM_XREF_EXT_ID>
SCHEMBL16115273

> <PUBCHEM_EXT_DATASOURCE_URL>
https://www.surechembl.org/

> <PUBCHEM_EXT_SUBSTANCE_URL>
https://www.surechembl.org/chemical/SCHEMBL16115273

> <PUBCHEM_CID_ASSOCIATIONS>
117605236  1

> <PUBCHEM_COORDINATE_TYPE>
1
3

$$$$
