310933771
  -OEChem-07211613022D

 42 47  0     1  0  0  0  0  0999 V2000
    9.6852   -2.7119    0.0000 Cl  0  0  0  0  0  0  0  0  0  0  0  0
    8.0387   -2.8733    0.0000 F   0  0  0  0  0  0  0  0  0  0  0  0
    5.7788   -1.2591    0.0000 O   0  0  0  0  0  0  0  0  0  0  0  0
    5.0363    0.0000    0.0000 O   0  0  0  0  0  0  0  0  0  0  0  0
    0.0000   -3.7126    0.0000 O   0  0  0  0  0  0  0  0  0  0  0  0
    4.3260   -2.9378    0.0000 N   0  0  0  0  0  0  0  0  0  0  0  0
    2.1630   -2.4859    0.0000 N   0  0  0  0  0  0  0  0  0  0  0  0
    7.0702   -1.5174    0.0000 N   0  0  0  0  0  0  0  0  0  0  0  0
    4.3260   -1.2591    0.0000 N   0  0  0  0  0  0  0  0  0  0  0  0
    5.8434   -2.0662    0.0000 N   0  0  0  0  0  0  0  0  0  0  0  0
    6.6505   -2.2599    0.0000 N   0  0  0  0  0  0  0  0  0  0  0  0
    5.0363   -2.5181    0.0000 C   0  0  3  0  0  0  0  0  0  0  0  0
    4.3260   -2.0985    0.0000 C   0  0  0  0  0  0  0  0  0  0  0  0
    5.7788   -2.9378    0.0000 C   0  0  0  0  0  0  0  0  0  0  0  0
    4.4875   -1.4205    0.0000 C   0  0  0  0  0  0  0  0  0  0  0  0
    5.0363   -1.6788    0.0000 C   0  0  0  0  0  0  0  0  0  0  0  0
    5.7788   -3.7449    0.0000 C   0  0  0  0  0  0  0  0  0  0  0  0
    3.6158   -2.5181    0.0000 C   0  0  0  0  0  0  0  0  0  0  0  0
    5.0363   -0.8394    0.0000 C   0  0  0  0  0  0  0  0  0  0  0  0
    2.8733   -2.0985    0.0000 C   0  0  0  0  0  0  0  0  0  0  0  0
    6.4568   -2.5181    0.0000 C   0  0  0  0  0  0  0  0  0  0  0  0
    3.6158   -0.8394    0.0000 C   0  0  0  0  0  0  0  0  0  0  0  0
    5.9402   -1.4205    0.0000 C   0  0  0  0  0  0  0  0  0  0  0  0
    4.3260   -3.7449    0.0000 C   0  0  0  0  0  0  0  0  0  0  0  0
    5.0363   -4.1646    0.0000 C   0  0  0  0  0  0  0  0  0  0  0  0
    2.9056   -1.2591    0.0000 C   0  0  0  0  0  0  0  0  0  0  0  0
    6.4568   -4.1646    0.0000 C   0  0  0  0  0  0  0  0  0  0  0  0
    6.5214   -0.9040    0.0000 C   0  0  0  0  0  0  0  0  0  0  0  0
    7.1993   -2.9378    0.0000 C   0  0  0  0  0  0  0  0  0  0  0  0
    7.8773   -1.4527    0.0000 C   0  0  0  0  0  0  0  0  0  0  0  0
    7.1993   -3.7449    0.0000 C   0  0  0  0  0  0  0  0  0  0  0  0
    8.3938   -2.0985    0.0000 C   0  0  0  0  0  0  0  0  0  0  0  0
    2.1630   -3.3253    0.0000 C   0  0  0  0  0  0  0  0  0  0  0  0
    1.4527   -2.0985    0.0000 C   0  0  0  0  0  0  0  0  0  0  0  0
    8.2324   -0.6780    0.0000 C   0  0  0  0  0  0  0  0  0  0  0  0
    9.2010   -2.0339    0.0000 C   0  0  0  0  0  0  0  0  0  0  0  0
    1.4527   -3.7449    0.0000 C   0  0  0  0  0  0  0  0  0  0  0  0
    0.7425   -2.4859    0.0000 C   0  0  0  0  0  0  0  0  0  0  0  0
    0.7425   -3.3253    0.0000 C   0  0  0  0  0  0  0  0  0  0  0  0
    9.0395   -0.6134    0.0000 C   0  0  0  0  0  0  0  0  0  0  0  0
    9.5238   -1.2591    0.0000 C   0  0  0  0  0  0  0  0  0  0  0  0
    0.0000   -4.5521    0.0000 C   0  0  0  0  0  0  0  0  0  0  0  0
  1 36  1  0  0  0  0
  2 32  1  0  0  0  0
  3 16  2  0  0  0  0
  4 19  2  0  0  0  0
  5 39  1  0  0  0  0
  5 42  1  0  0  0  0
  6 12  1  0  0  0  0
  6 24  1  0  0  0  0
  7 20  1  0  0  0  0
  7 33  1  0  0  0  0
  7 34  1  0  0  0  0
  8 11  1  0  0  0  0
  8 28  1  0  0  0  0
  8 30  1  0  0  0  0
  9 16  1  0  0  0  0
 10 11  2  0  0  0  0
 10 23  1  0  0  0  0
 12 13  1  0  0  0  0
 12 14  1  0  0  0  0
 12 16  1  0  0  0  0
 13 15  1  0  0  0  0
 13 18  2  0  0  0  0
 14 17  2  0  0  0  0
 14 21  1  0  0  0  0
 15 19  1  0  0  0  0
 15 22  2  0  0  0  0
 17 25  1  0  0  0  0
 17 27  1  0  0  0  0
 18 20  1  0  0  0  0
 19 23  1  0  0  0  0
 20 26  2  0  0  0  0
 21 29  2  0  0  0  0
 22 26  1  0  0  0  0
 23 28  2  0  0  0  0
 24 25  1  0  0  0  0
 27 31  2  0  0  0  0
 29 31  1  0  0  0  0
 30 32  1  0  0  0  0
 30 35  2  0  0  0  0
 32 36  2  0  0  0  0
 33 37  1  0  0  0  0
 34 38  1  0  0  0  0
 35 40  1  0  0  0  0
 36 41  1  0  0  0  0
 37 39  1  0  0  0  0
 38 39  1  0  0  0  0
 40 41  2  0  0  0  0
M  END
> <PUBCHEM_COMPOUND_ID_TYPE>
0

> <PUBCHEM_TOTAL_CHARGE>
0

> <PUBCHEM_SUBSTANCE_ID>
310933771

> <PUBCHEM_SUBSTANCE_VERSION>
1

> <PUBCHEM_EXT_DATASOURCE_NAME>
4488

> <PUBCHEM_EXT_DATASOURCE_REGID>
SCHEMBL16111207

> <PUBCHEM_SUBSTANCE_COMMENT>
InChI=1S/C31H30ClFN6O3/c1-42-21-12-15-38(16-13-21)20-9-10-22(29(40)26-18-39(37-36-26)27-8-4-7-25(32)28(27)33)24(17-20)31(30(34)41)23-6-3-2-5-19(23)11-14-35-31/h2-10,17-18,21,35H,11-16H2,1H3,(H2,34,41)
InChIKey=OOYCWLLIKNJUTR-UHFFFAOYSA-N

> <PUBCHEM_SUBSTANCE_SYNONYM>
SCHEMBL16111207

> <PUBCHEM_XREF_EXT_ID>
SCHEMBL16111207

> <PUBCHEM_EXT_DATASOURCE_URL>
https://www.surechembl.org/

> <PUBCHEM_EXT_SUBSTANCE_URL>
https://www.surechembl.org/chemical/SCHEMBL16111207

> <PUBCHEM_CID_ASSOCIATIONS>
117602125  1

> <PUBCHEM_COORDINATE_TYPE>
1
3

$$$$
