310941948
  -OEChem-07211613022D

 52 56  0     1  0  0  0  0  0999 V2000
   -6.5012   -1.1050    0.0000 Cl  0  0  0  0  0  0  0  0  0  0  0  0
    4.6502   -2.0001    0.0000 O   0  0  0  0  0  0  0  0  0  0  0  0
    2.7689    0.4880    0.0000 O   0  0  0  0  0  0  0  0  0  0  0  0
    3.9926   -2.5655    0.0000 O   0  0  0  0  0  0  0  0  0  0  0  0
    1.0241   -1.8485    0.0000 O   0  0  0  0  0  0  0  0  0  0  0  0
    3.4753   -3.4163    0.0000 O   0  0  0  0  0  0  0  0  0  0  0  0
    4.2861    3.4163    0.0000 O   0  0  0  0  0  0  0  0  0  0  0  0
    1.2365    2.7638    0.0000 O   0  0  0  0  0  0  0  0  0  0  0  0
    1.2365    1.0039    0.0000 O   0  0  0  0  0  0  0  0  0  0  0  0
    3.9675   -0.6346    0.0000 N   0  0  0  0  0  0  0  0  0  0  0  0
    1.8889   -0.6802    0.0000 N   0  0  0  0  0  0  0  0  0  0  0  0
    5.1964    1.7322    0.0000 N   0  0  0  0  0  0  0  0  0  0  0  0
    3.4971    1.8839    0.0000 N   0  0  0  0  0  0  0  0  0  0  0  0
   -3.5579   -1.1050    0.0000 N   0  0  0  0  0  0  0  0  0  0  0  0
   -3.5579    1.5349    0.0000 N   0  0  0  0  0  0  0  0  0  0  0  0
   -0.1593    1.9749    0.0000 N   0  0  0  0  0  0  0  0  0  0  0  0
    4.9688    0.2453    0.0000 C   0  0  0  0  0  0  0  0  0  0  0  0
    5.2268   -0.5588    0.0000 C   0  0  0  0  0  0  0  0  0  0  0  0
    4.6198   -1.1050    0.0000 C   0  0  0  0  0  0  0  0  0  0  0  0
    3.2392   -0.9229    0.0000 C   0  0  3  0  0  0  0  0  0  0  0  0
    4.1799    0.2149    0.0000 C   0  0  0  0  0  0  0  0  0  0  0  0
    2.6020   -0.3768    0.0000 C   0  0  0  0  0  0  0  0  0  0  0  0
    5.4543    0.9280    0.0000 C   0  0  0  0  0  0  0  0  0  0  0  0
    6.0157   -0.7105    0.0000 C   0  0  0  0  0  0  0  0  0  0  0  0
    3.0875   -1.8029    0.0000 C   0  0  0  0  0  0  0  0  0  0  0  0
    1.7523   -1.5299    0.0000 C   0  0  0  0  0  0  0  0  0  0  0  0
    3.4753   -2.8645    0.0000 C   0  0  0  0  0  0  0  0  0  0  0  0
    6.2281    0.7612    0.0000 C   0  0  0  0  0  0  0  0  0  0  0  0
    2.3896   -2.1063    0.0000 C   0  0  0  0  0  0  0  0  0  0  0  0
    6.5012   -0.0582    0.0000 C   0  0  0  0  0  0  0  0  0  0  0  0
    4.2709    2.3845    0.0000 C   0  0  0  0  0  0  0  0  0  0  0  0
    4.0042   -1.9907    0.0000 C   0  0  0  0  0  0  0  0  0  0  0  0
   -4.2406    0.2301    0.0000 C   0  0  0  0  0  0  0  0  0  0  0  0
   -4.2558   -0.6499    0.0000 C   0  0  0  0  0  0  0  0  0  0  0  0
   -3.5579    0.6701    0.0000 C   0  0  0  0  0  0  0  0  0  0  0  0
   -4.9081    0.6550    0.0000 C   0  0  0  0  0  0  0  0  0  0  0  0
   -4.8929   -1.0898    0.0000 C   0  0  0  0  0  0  0  0  0  0  0  0
    4.5215   -1.9678    0.0000 C   0  0  0  0  0  0  0  0  0  0  0  0
    3.4753   -1.9907    0.0000 C   0  0  0  0  0  0  0  0  0  0  0  0
    3.9926   -1.4274    0.0000 C   0  0  0  0  0  0  0  0  0  0  0  0
   -5.6061   -0.6650    0.0000 C   0  0  0  0  0  0  0  0  0  0  0  0
   -2.8751    0.2149    0.0000 C   0  0  0  0  0  0  0  0  0  0  0  0
   -5.5909    0.2149    0.0000 C   0  0  0  0  0  0  0  0  0  0  0  0
   -2.8751   -0.6650    0.0000 C   0  0  0  0  0  0  0  0  0  0  0  0
    2.5868    1.8990    0.0000 C   0  0  0  0  0  0  0  0  0  0  0  0
   -2.8751    1.9901    0.0000 C   0  0  3  0  0  0  0  0  0  0  0  0
    2.1468    2.7487    0.0000 C   0  0  0  0  0  0  0  0  0  0  0  0
   -2.1772    1.5501    0.0000 C   0  0  0  0  0  0  0  0  0  0  0  0
   -2.8903    2.8852    0.0000 C   0  0  0  0  0  0  0  0  0  0  0  0
   -1.5248    1.9749    0.0000 C   0  0  0  0  0  0  0  0  0  0  0  0
    0.7813    1.8990    0.0000 C   0  0  0  0  0  0  0  0  0  0  0  0
   -0.8269    1.5349    0.0000 C   0  0  0  0  0  0  0  0  0  0  0  0
  1 41  1  0  0  0  0
  2 19  2  0  0  0  0
  3 22  2  0  0  0  0
  4 27  1  0  0  0  0
  4 32  1  0  0  0  0
  5 26  2  0  0  0  0
  6 27  2  0  0  0  0
  7 31  2  0  0  0  0
  8 47  1  0  0  0  0
  8 51  1  0  0  0  0
  9 51  2  0  0  0  0
 10 19  1  0  0  0  0
 10 20  1  0  0  0  0
 10 21  1  0  0  0  0
 11 22  1  0  0  0  0
 11 26  1  0  0  0  0
 11 27  1  0  0  0  0
 12 23  1  0  0  0  0
 12 31  1  0  0  0  0
 13 31  1  0  0  0  0
 13 45  1  0  0  0  0
 14 34  1  0  0  0  0
 14 44  2  0  0  0  0
 15 35  1  0  0  0  0
 15 46  1  0  0  0  0
 16 51  1  0  0  0  0
 16 52  1  0  0  0  0
 17 18  2  0  0  0  0
 17 21  1  0  0  0  0
 17 23  1  0  0  0  0
 18 19  1  0  0  0  0
 18 24  1  0  0  0  0
 20 22  1  0  0  0  0
 20 25  1  0  0  0  0
 23 28  2  0  0  0  0
 24 30  2  0  0  0  0
 25 29  1  0  0  0  0
 26 29  1  0  0  0  0
 28 30  1  0  0  0  0
 32 38  1  0  0  0  0
 32 39  1  0  0  0  0
 32 40  1  0  0  0  0
 33 34  1  0  0  0  0
 33 35  1  0  0  0  0
 33 36  2  0  0  0  0
 34 37  2  0  0  0  0
 35 42  2  0  0  0  0
 36 43  1  0  0  0  0
 37 41  1  0  0  0  0
 41 43  2  0  0  0  0
 42 44  1  0  0  0  0
 45 47  1  0  0  0  0
 46 48  1  0  0  0  0
 46 49  1  0  0  0  0
 48 50  1  0  0  0  0
 50 52  1  0  0  0  0
M  END
> <PUBCHEM_COMPOUND_ID_TYPE>
0

> <PUBCHEM_TOTAL_CHARGE>
0

> <PUBCHEM_SUBSTANCE_ID>
310941948

> <PUBCHEM_SUBSTANCE_VERSION>
1

> <PUBCHEM_EXT_DATASOURCE_NAME>
4488

> <PUBCHEM_EXT_DATASOURCE_REGID>
SCHEMBL16119981

> <PUBCHEM_SUBSTANCE_COMMENT>
InChI=1S/C36H42ClN7O8/c1-21(41-27-14-16-38-28-19-22(37)10-11-24(27)28)7-6-15-40-34(49)51-18-17-39-33(48)42-26-9-5-8-23-25(26)20-43(31(23)46)29-12-13-30(45)44(32(29)47)35(50)52-36(2,3)4/h5,8-11,14,16,19,21,29H,6-7,12-13,15,17-18,20H2,1-4H3,(H,38,41)(H,40,49)(H2,39,42,48)
InChIKey=HNEDGDKPZDOTGS-UHFFFAOYSA-N

> <PUBCHEM_SUBSTANCE_SYNONYM>
SCHEMBL16119981

> <PUBCHEM_XREF_EXT_ID>
SCHEMBL16119981

> <PUBCHEM_EXT_DATASOURCE_URL>
https://www.surechembl.org/

> <PUBCHEM_EXT_SUBSTANCE_URL>
https://www.surechembl.org/chemical/SCHEMBL16119981

> <PUBCHEM_CID_ASSOCIATIONS>
117608671  1

> <PUBCHEM_COORDINATE_TYPE>
1
3

$$$$
