310940275
  -OEChem-07211613022D

 39 43  0     1  0  0  0  0  0999 V2000
   -2.4416   -3.8414    0.0000 S   0  0  0  0  0  0  0  0  0  0  0  0
   -3.0492   -3.2771    0.0000 O   0  0  0  0  0  0  0  0  0  0  0  0
   -3.2229   -4.1018    0.0000 O   0  0  0  0  0  0  0  0  0  0  0  0
   -1.3998   -1.6928    0.0000 O   0  0  0  0  0  0  0  0  0  0  0  0
    0.8356    3.6895    0.0000 O   0  0  0  0  0  0  0  0  0  0  0  0
    2.2462    3.5376    0.0000 O   0  0  0  0  0  0  0  0  0  0  0  0
    0.7487    0.0651    0.0000 N   0  0  0  0  0  0  0  0  0  0  0  0
    1.0092   -0.7379    0.0000 N   0  0  0  0  0  0  0  0  0  0  0  0
    0.3364   -2.0401    0.0000 N   0  0  0  0  0  0  0  0  0  0  0  0
   -2.0943   -4.6010    0.0000 N   0  0  3  0  0  0  0  0  0  0  0  0
   -1.7037   -0.2821    0.0000 N   0  0  0  0  0  0  0  0  0  0  0  0
    1.4215    2.3656    0.0000 N   0  0  0  0  0  0  0  0  0  0  0  0
    3.2229   -0.1953    0.0000 N   0  0  0  0  0  0  0  0  0  0  0  0
    1.2479    0.7162    0.0000 C   0  0  0  0  0  0  0  0  0  0  0  0
   -0.0760    0.0651    0.0000 C   0  0  0  0  0  0  0  0  0  0  0  0
   -0.3581   -0.7162    0.0000 C   0  0  0  0  0  0  0  0  0  0  0  0
    0.3364   -1.2154    0.0000 C   0  0  0  0  0  0  0  0  0  0  0  0
   -1.8122   -3.2771    0.0000 C   0  0  0  0  0  0  0  0  0  0  0  0
   -1.1394   -0.8898    0.0000 C   0  0  0  0  0  0  0  0  0  0  0  0
   -1.0960   -3.6895    0.0000 C   0  0  0  0  0  0  0  0  0  0  0  0
   -0.3798   -2.4524    0.0000 C   0  0  0  0  0  0  0  0  0  0  0  0
    0.5752    1.2370    0.0000 C   0  0  0  0  0  0  0  0  0  0  0  0
    1.9858    1.0635    0.0000 C   0  0  0  0  0  0  0  0  0  0  0  0
   -0.6402    0.6728    0.0000 C   0  0  0  0  0  0  0  0  0  0  0  0
    1.5734   -0.0217    0.0000 C   0  0  0  0  0  0  0  0  0  0  0  0
   -0.4015   -3.2771    0.0000 C   0  0  0  0  0  0  0  0  0  0  0  0
   -1.2696   -4.5142    0.0000 C   0  0  0  0  0  0  0  0  0  0  0  0
   -1.7905   -2.4524    0.0000 C   0  0  0  0  0  0  0  0  0  0  0  0
   -1.0743   -2.0617    0.0000 C   0  0  0  0  0  0  0  0  0  0  0  0
    0.6837    2.0617    0.0000 C   0  0  0  0  0  0  0  0  0  0  0  0
    2.0943    1.8882    0.0000 C   0  0  0  0  0  0  0  0  0  0  0  0
   -1.4215    0.5209    0.0000 C   0  0  0  0  0  0  0  0  0  0  0  0
    1.5084    3.1903    0.0000 C   0  0  0  0  0  0  0  0  0  0  0  0
    2.3765   -0.1085    0.0000 C   0  0  0  0  0  0  0  0  0  0  0  0
   -2.4850   -5.3389    0.0000 C   0  0  0  0  0  0  0  0  0  0  0  0
    0.9441    4.5359    0.0000 C   0  0  0  0  0  0  0  0  0  0  0  0
    1.0309    5.3389    0.0000 C   0  0  0  0  0  0  0  0  0  0  0  0
    0.2930    5.0134    0.0000 C   0  0  0  0  0  0  0  0  0  0  0  0
    1.7254    4.8614    0.0000 C   0  0  0  0  0  0  0  0  0  0  0  0
  1  2  2  0  0  0  0
  1  3  2  0  0  0  0
  1 10  1  0  0  0  0
  1 18  1  0  0  0  0
  4 19  2  0  0  0  0
  5 33  1  0  0  0  0
  5 36  1  0  0  0  0
  6 33  2  0  0  0  0
  7  8  1  0  0  0  0
  7 14  1  0  0  0  0
  7 15  1  0  0  0  0
  8 17  2  0  0  0  0
  9 17  1  0  0  0  0
  9 21  1  0  0  0  0
 10 27  1  0  0  0  0
 10 35  1  0  0  0  0
 11 19  1  0  0  0  0
 11 32  1  0  0  0  0
 12 30  1  0  0  0  0
 12 31  1  0  0  0  0
 12 33  1  0  0  0  0
 13 34  3  0  0  0  0
 14 22  1  0  0  0  0
 14 23  1  0  0  0  0
 14 25  1  0  0  0  0
 15 16  2  0  0  0  0
 15 24  1  0  0  0  0
 16 17  1  0  0  0  0
 16 19  1  0  0  0  0
 18 20  2  0  0  0  0
 18 28  1  0  0  0  0
 20 26  1  0  0  0  0
 20 27  1  0  0  0  0
 21 26  2  0  0  0  0
 21 29  1  0  0  0  0
 22 30  1  0  0  0  0
 23 31  1  0  0  0  0
 24 32  2  0  0  0  0
 25 34  1  0  0  0  0
 28 29  2  0  0  0  0
 36 37  1  0  0  0  0
 36 38  1  0  0  0  0
 36 39  1  0  0  0  0
M  END
> <PUBCHEM_COMPOUND_ID_TYPE>
0

> <PUBCHEM_TOTAL_CHARGE>
0

> <PUBCHEM_SUBSTANCE_ID>
310940275

> <PUBCHEM_SUBSTANCE_VERSION>
1

> <PUBCHEM_EXT_DATASOURCE_NAME>
4488

> <PUBCHEM_EXT_DATASOURCE_REGID>
SCHEMBL16118218

> <PUBCHEM_SUBSTANCE_COMMENT>
InChI=1S/C26H31N7O5S/c1-25(2,3)38-24(35)32-13-9-26(8-11-27,10-14-32)33-19-7-12-28-23(34)21(19)22(30-33)29-18-5-6-20-17(15-18)16-31(4)39(20,36)37/h5-7,12,15H,8-10,13-14,16H2,1-4H3,(H,28,34)(H,29,30)
InChIKey=LNDOFTXPTPMZBR-UHFFFAOYSA-N

> <PUBCHEM_SUBSTANCE_SYNONYM>
SCHEMBL16118218

> <PUBCHEM_XREF_EXT_ID>
SCHEMBL16118218

> <PUBCHEM_EXT_DATASOURCE_URL>
https://www.surechembl.org/

> <PUBCHEM_EXT_SUBSTANCE_URL>
https://www.surechembl.org/chemical/SCHEMBL16118218

> <PUBCHEM_CID_ASSOCIATIONS>
86272418  1

> <PUBCHEM_COORDINATE_TYPE>
1
3

$$$$
