310949736
  -OEChem-07211613022D

 60 63  0     1  0  0  0  0  0999 V2000
   -3.5541    0.3925    0.0000 O   0  0  0  0  0  0  0  0  0  0  0  0
    3.5684    0.4068    0.0000 O   0  0  0  0  0  0  0  0  0  0  0  0
   -2.1267    1.2204    0.0000 O   0  0  0  0  0  0  0  0  0  0  0  0
   -2.1267    0.3925    0.0000 O   0  0  0  0  0  0  0  0  0  0  0  0
    2.1410    0.4210    0.0000 O   0  0  0  0  0  0  0  0  0  0  0  0
    2.1553    1.2204    0.0000 O   0  0  0  0  0  0  0  0  0  0  0  0
   -1.4130    2.4622    0.0000 O   0  0  0  0  0  0  0  0  0  0  0  0
   -4.9814    1.2061    0.0000 O   0  0  0  0  0  0  0  0  0  0  0  0
    4.9957    1.2346    0.0000 O   0  0  0  0  0  0  0  0  0  0  0  0
    1.4417    2.4622    0.0000 O   0  0  0  0  0  0  0  0  0  0  0  0
   -5.6951    2.4479    0.0000 O   0  0  0  0  0  0  0  0  0  0  0  0
    5.7094    2.4765    0.0000 O   0  0  0  0  0  0  0  0  0  0  0  0
   -3.5541   -1.2489    0.0000 C   0  0  0  0  0  0  0  0  0  0  0  0
   -2.8547   -0.8350    0.0000 C   0  0  0  0  0  0  0  0  0  0  0  0
    3.5541   -1.2204    0.0000 C   0  0  0  0  0  0  0  0  0  0  0  0
    2.8404   -0.8065    0.0000 C   0  0  0  0  0  0  0  0  0  0  0  0
   -4.2963   -0.8207    0.0000 C   0  0  0  0  0  0  0  0  0  0  0  0
    4.2677   -0.8065    0.0000 C   0  0  0  0  0  0  0  0  0  0  0  0
   -2.8690   -0.0071    0.0000 C   0  0  0  0  0  0  0  0  0  0  0  0
    2.8690    0.0214    0.0000 C   0  0  0  0  0  0  0  0  0  0  0  0
   -0.7137    1.2346    0.0000 C   0  0  0  0  0  0  0  0  0  0  0  0
   -3.5541   -2.0768    0.0000 C   0  0  0  0  0  0  0  0  0  0  0  0
   -2.1410   -1.2489    0.0000 C   0  0  0  0  0  0  0  0  0  0  0  0
    3.5399   -2.0482    0.0000 C   0  0  0  0  0  0  0  0  0  0  0  0
    2.1267   -1.2204    0.0000 C   0  0  0  0  0  0  0  0  0  0  0  0
   -1.4273    1.6201    0.0000 C   0  0  0  0  0  0  0  0  0  0  0  0
   -3.5541    1.2346    0.0000 C   0  0  3  0  0  0  0  0  0  0  0  0
   -4.2963   -0.0071    0.0000 C   0  0  0  0  0  0  0  0  0  0  0  0
   -4.9957   -1.2346    0.0000 C   0  0  0  0  0  0  0  0  0  0  0  0
   -0.0143    1.6486    0.0000 C   0  0  0  0  0  0  0  0  0  0  0  0
    4.9957   -1.2204    0.0000 C   0  0  0  0  0  0  0  0  0  0  0  0
    4.2963    0.0214    0.0000 C   0  0  0  0  0  0  0  0  0  0  0  0
    3.5684    1.2489    0.0000 C   0  0  3  0  0  0  0  0  0  0  0  0
   -2.8404   -2.4765    0.0000 C   0  0  0  0  0  0  0  0  0  0  0  0
   -2.1410   -2.0625    0.0000 C   0  0  0  0  0  0  0  0  0  0  0  0
    0.7280    1.2632    0.0000 C   0  0  0  0  0  0  0  0  0  0  0  0
    2.8262   -2.4479    0.0000 C   0  0  0  0  0  0  0  0  0  0  0  0
    2.1267   -2.0340    0.0000 C   0  0  0  0  0  0  0  0  0  0  0  0
   -2.8547    1.6343    0.0000 C   0  0  0  0  0  0  0  0  0  0  0  0
    1.4130    1.6343    0.0000 C   0  0  0  0  0  0  0  0  0  0  0  0
    2.8547    1.6629    0.0000 C   0  0  0  0  0  0  0  0  0  0  0  0
   -4.9957    0.3925    0.0000 C   0  0  0  0  0  0  0  0  0  0  0  0
   -5.7094   -0.8350    0.0000 C   0  0  0  0  0  0  0  0  0  0  0  0
    5.6809   -0.8207    0.0000 C   0  0  0  0  0  0  0  0  0  0  0  0
    4.9814    0.4068    0.0000 C   0  0  0  0  0  0  0  0  0  0  0  0
   -4.2963    1.6343    0.0000 C   0  0  0  0  0  0  0  0  0  0  0  0
   -0.3140    0.5067    0.0000 C   0  0  0  0  0  0  0  0  0  0  0  0
   -1.1133    0.5067    0.0000 C   0  0  0  0  0  0  0  0  0  0  0  0
    4.2820    1.6629    0.0000 C   0  0  0  0  0  0  0  0  0  0  0  0
   -5.7094   -0.0071    0.0000 C   0  0  0  0  0  0  0  0  0  0  0  0
    5.6809   -0.0071    0.0000 C   0  0  0  0  0  0  0  0  0  0  0  0
    0.7422    0.4068    0.0000 C   0  0  0  0  0  0  0  0  0  0  0  0
   -5.7094    1.6201    0.0000 C   0  0  0  0  0  0  0  0  0  0  0  0
    5.6951    1.6629    0.0000 C   0  0  0  0  0  0  0  0  0  0  0  0
   -6.3946    1.2204    0.0000 C   0  0  0  0  0  0  0  0  0  0  0  0
    6.3946    1.2632    0.0000 C   0  0  0  0  0  0  0  0  0  0  0  0
   -7.1510    1.6343    0.0000 C   0  0  0  0  0  0  0  0  0  0  0  0
   -6.3946    0.3782    0.0000 C   0  0  0  0  0  0  0  0  0  0  0  0
    7.1510    1.6629    0.0000 C   0  0  0  0  0  0  0  0  0  0  0  0
    6.4374    0.4210    0.0000 C   0  0  0  0  0  0  0  0  0  0  0  0
  1 19  1  0  0  0  0
  1 27  1  0  0  0  0
  2 20  1  0  0  0  0
  2 33  1  0  0  0  0
  3 26  1  0  0  0  0
  3 39  1  0  0  0  0
  4 19  2  0  0  0  0
  5 20  2  0  0  0  0
  6 40  1  0  0  0  0
  6 41  1  0  0  0  0
  7 26  2  0  0  0  0
  8 46  1  0  0  0  0
  8 53  1  0  0  0  0
  9 49  1  0  0  0  0
  9 54  1  0  0  0  0
 10 40  2  0  0  0  0
 11 53  2  0  0  0  0
 12 54  2  0  0  0  0
 13 14  2  0  0  0  0
 13 17  1  0  0  0  0
 13 22  1  0  0  0  0
 14 19  1  0  0  0  0
 14 23  1  0  0  0  0
 15 16  1  0  0  0  0
 15 18  1  0  0  0  0
 15 24  2  0  0  0  0
 16 20  1  0  0  0  0
 16 25  2  0  0  0  0
 17 28  2  0  0  0  0
 17 29  1  0  0  0  0
 18 31  2  0  0  0  0
 18 32  1  0  0  0  0
 21 26  1  0  0  0  0
 21 30  1  0  0  0  0
 21 47  1  0  0  0  0
 21 48  1  0  0  0  0
 22 34  2  0  0  0  0
 23 35  2  0  0  0  0
 24 37  1  0  0  0  0
 25 38  1  0  0  0  0
 27 39  1  0  0  0  0
 27 46  1  0  0  0  0
 28 42  1  0  0  0  0
 29 43  2  0  0  0  0
 30 36  1  0  0  0  0
 31 44  1  0  0  0  0
 32 45  2  0  0  0  0
 33 41  1  0  0  0  0
 33 49  1  0  0  0  0
 34 35  1  0  0  0  0
 36 40  1  0  0  0  0
 36 52  2  0  0  0  0
 37 38  2  0  0  0  0
 42 50  2  0  0  0  0
 43 50  1  0  0  0  0
 44 51  2  0  0  0  0
 45 51  1  0  0  0  0
 53 55  1  0  0  0  0
 54 56  1  0  0  0  0
 55 57  2  0  0  0  0
 55 58  1  0  0  0  0
 56 59  2  0  0  0  0
 56 60  1  0  0  0  0
M  END
> <PUBCHEM_COMPOUND_ID_TYPE>
0

> <PUBCHEM_TOTAL_CHARGE>
0

> <PUBCHEM_SUBSTANCE_ID>
310949736

> <PUBCHEM_SUBSTANCE_VERSION>
1

> <PUBCHEM_EXT_DATASOURCE_NAME>
4488

> <PUBCHEM_EXT_DATASOURCE_REGID>
SCHEMBL16127934

> <PUBCHEM_SUBSTANCE_COMMENT>
InChI=1S/C48H48O12/c1-31(2)42(49)55-27-36(59-45(52)40-24-16-14-22-38(40)34-18-10-8-11-19-34)29-57-44(51)33(5)26-48(6,7)47(54)58-30-37(28-56-43(50)32(3)4)60-46(53)41-25-17-15-23-39(41)35-20-12-9-13-21-35/h8-25,36-37H,1,3,5,26-30H2,2,4,6-7H3
InChIKey=OHQAFDYCNFQHMR-UHFFFAOYSA-N

> <PUBCHEM_SUBSTANCE_SYNONYM>
SCHEMBL16127934

> <PUBCHEM_XREF_EXT_ID>
SCHEMBL16127934

> <PUBCHEM_EXT_DATASOURCE_URL>
https://www.surechembl.org/

> <PUBCHEM_EXT_SUBSTANCE_URL>
https://www.surechembl.org/chemical/SCHEMBL16127934

> <PUBCHEM_CID_ASSOCIATIONS>
117615075  1

> <PUBCHEM_COORDINATE_TYPE>
1
3

$$$$
