310941929
  -OEChem-07211613022D

 35 38  0     1  0  0  0  0  0999 V2000
    1.6837   -2.5844    0.0000 O   0  0  0  0  0  0  0  0  0  0  0  0
   -2.8615    3.0971    0.0000 O   0  0  0  0  0  0  0  0  0  0  0  0
   -1.5728    2.4597    0.0000 O   0  0  0  0  0  0  0  0  0  0  0  0
    0.9215   -1.3788    0.0000 N   0  0  0  0  0  0  0  0  0  0  0  0
    0.2287   -0.9076    0.0000 N   0  0  0  0  0  0  0  0  0  0  0  0
   -0.8661    0.4226    0.0000 N   0  0  3  0  0  0  0  0  0  0  0  0
   -2.7229    1.6144    0.0000 N   0  0  0  0  0  0  0  0  0  0  0  0
    1.5867   -0.8107    0.0000 C   0  0  0  0  0  0  0  0  0  0  0  0
    1.3095   -0.0624    0.0000 C   0  0  0  0  0  0  0  0  0  0  0  0
    0.4781   -0.0762    0.0000 C   0  0  0  0  0  0  0  0  0  0  0  0
    1.8500    0.5612    0.0000 C   0  0  0  0  0  0  0  0  0  0  0  0
    0.9493   -2.1687    0.0000 C   0  0  3  0  0  0  0  0  0  0  0  0
    2.6537    0.4365    0.0000 C   0  0  0  0  0  0  0  0  0  0  0  0
    2.4042   -0.9769    0.0000 C   0  0  0  0  0  0  0  0  0  0  0  0
    2.9308   -0.3533    0.0000 C   0  0  0  0  0  0  0  0  0  0  0  0
   -0.0346    0.5751    0.0000 C   0  0  0  0  0  0  0  0  0  0  0  0
    3.2079    1.0878    0.0000 C   0  0  0  0  0  0  0  0  0  0  0  0
    0.2702   -2.5983    0.0000 C   0  0  0  0  0  0  0  0  0  0  0  0
    2.9308    1.8500    0.0000 C   0  0  0  0  0  0  0  0  0  0  0  0
    4.0255    0.9215    0.0000 C   0  0  0  0  0  0  0  0  0  0  0  0
    1.7114   -3.4020    0.0000 C   0  0  0  0  0  0  0  0  0  0  0  0
    0.2980   -3.4435    0.0000 C   0  0  0  0  0  0  0  0  0  0  0  0
   -1.3650    1.1155    0.0000 C   0  0  0  0  0  0  0  0  0  0  0  0
    1.0462   -3.8177    0.0000 C   0  0  0  0  0  0  0  0  0  0  0  0
    3.4574    2.4597    0.0000 C   0  0  0  0  0  0  0  0  0  0  0  0
    4.5383    1.5451    0.0000 C   0  0  0  0  0  0  0  0  0  0  0  0
   -1.1571   -0.3256    0.0000 C   0  0  0  0  0  0  0  0  0  0  0  0
   -2.1825    1.0046    0.0000 C   0  0  0  0  0  0  0  0  0  0  0  0
    4.2750    2.3211    0.0000 C   0  0  0  0  0  0  0  0  0  0  0  0
   -2.3904    2.4042    0.0000 C   0  0  0  0  0  0  0  0  0  0  0  0
   -3.6929    3.0555    0.0000 C   0  0  0  0  0  0  0  0  0  0  0  0
   -3.5405    1.5451    0.0000 C   0  0  0  0  0  0  0  0  0  0  0  0
   -3.8039    3.8177    0.0000 C   0  0  0  0  0  0  0  0  0  0  0  0
   -3.6514    2.2934    0.0000 C   0  0  0  0  0  0  0  0  0  0  0  0
   -4.5383    2.9585    0.0000 C   0  0  0  0  0  0  0  0  0  0  0  0
  1 12  1  0  0  0  0
  1 21  1  0  0  0  0
  2 30  1  0  0  0  0
  2 31  1  0  0  0  0
  3 30  2  0  0  0  0
  4  5  1  0  0  0  0
  4  8  1  0  0  0  0
  4 12  1  0  0  0  0
  5 10  2  0  0  0  0
  6 16  1  0  0  0  0
  6 23  1  0  0  0  0
  6 27  1  0  0  0  0
  7 28  1  0  0  0  0
  7 30  1  0  0  0  0
  7 32  1  0  0  0  0
  8  9  1  0  0  0  0
  8 14  2  0  0  0  0
  9 10  1  0  0  0  0
  9 11  2  0  0  0  0
 10 16  1  0  0  0  0
 11 13  1  0  0  0  0
 12 18  1  0  0  0  0
 13 15  2  0  0  0  0
 13 17  1  0  0  0  0
 14 15  1  0  0  0  0
 17 19  2  0  0  0  0
 17 20  1  0  0  0  0
 18 22  1  0  0  0  0
 19 25  1  0  0  0  0
 20 26  1  0  0  0  0
 21 24  1  0  0  0  0
 22 24  1  0  0  0  0
 23 28  1  0  0  0  0
 25 29  1  0  0  0  0
 26 29  1  0  0  0  0
 31 33  1  0  0  0  0
 31 34  1  0  0  0  0
 31 35  1  0  0  0  0
M  END
> <PUBCHEM_COMPOUND_ID_TYPE>
0

> <PUBCHEM_TOTAL_CHARGE>
0

> <PUBCHEM_SUBSTANCE_ID>
310941929

> <PUBCHEM_SUBSTANCE_VERSION>
1

> <PUBCHEM_EXT_DATASOURCE_NAME>
4488

> <PUBCHEM_EXT_DATASOURCE_REGID>
SCHEMBL16119962

> <PUBCHEM_SUBSTANCE_COMMENT>
InChI=1S/C28H42N4O3/c1-28(2,3)35-27(33)31(5)17-16-30(4)20-24-23-19-22(21-11-7-6-8-12-21)14-15-25(23)32(29-24)26-13-9-10-18-34-26/h11,14-15,19,26H,6-10,12-13,16-18,20H2,1-5H3
InChIKey=WITPSVQYSSMVNI-UHFFFAOYSA-N

> <PUBCHEM_SUBSTANCE_SYNONYM>
SCHEMBL16119962

> <PUBCHEM_XREF_EXT_ID>
SCHEMBL16119962

> <PUBCHEM_EXT_DATASOURCE_URL>
https://www.surechembl.org/

> <PUBCHEM_EXT_SUBSTANCE_URL>
https://www.surechembl.org/chemical/SCHEMBL16119962

> <PUBCHEM_CID_ASSOCIATIONS>
117608655  1

> <PUBCHEM_COORDINATE_TYPE>
1
3

$$$$
