310947734
  -OEChem-07211613022D

 21 22  0     1  0  0  0  0  0999 V2000
   -2.5398    1.5317    0.0000 O   0  0  0  0  0  0  0  0  0  0  0  0
   -2.0050   -2.2742    0.0000 N   0  0  0  0  0  0  0  0  0  0  0  0
   -1.5201   -2.9417    0.0000 N   0  0  0  0  0  0  0  0  0  0  0  0
   -2.8369    0.1340    0.0000 N   0  0  0  0  0  0  0  0  0  0  0  0
    0.6935   -1.8617    0.0000 N   0  0  3  0  0  0  0  0  0  0  0  0
    2.8369   -1.4492    0.0000 N   0  0  0  0  0  0  0  0  0  0  0  0
   -1.5201   -1.6068    0.0000 C   0  0  0  0  0  0  0  0  0  0  0  0
   -1.7750   -0.8222    0.0000 C   0  0  0  0  0  0  0  0  0  0  0  0
   -0.7354   -1.8617    0.0000 C   0  0  0  0  0  0  0  0  0  0  0  0
   -0.7354   -2.6867    0.0000 C   0  0  0  0  0  0  0  0  0  0  0  0
   -2.5820   -0.6506    0.0000 C   0  0  0  0  0  0  0  0  0  0  0  0
   -1.2230   -0.2091    0.0000 C   0  0  0  0  0  0  0  0  0  0  0  0
   -0.0210   -1.4492    0.0000 C   0  0  0  0  0  0  0  0  0  0  0  0
   -2.2849    0.7471    0.0000 C   0  0  0  0  0  0  0  0  0  0  0  0
   -1.4779    0.5755    0.0000 C   0  0  0  0  0  0  0  0  0  0  0  0
   -1.9878    2.1448    0.0000 C   0  0  0  0  0  0  0  0  0  0  0  0
    1.4080   -1.4492    0.0000 C   0  0  0  0  0  0  0  0  0  0  0  0
    0.6935   -2.6867    0.0000 C   0  0  0  0  0  0  0  0  0  0  0  0
    2.1224   -1.8617    0.0000 C   0  0  0  0  0  0  0  0  0  0  0  0
   -2.2013    2.9417    0.0000 C   0  0  0  0  0  0  0  0  0  0  0  0
   -1.1856    1.9522    0.0000 C   0  0  0  0  0  0  0  0  0  0  0  0
  1 14  1  0  0  0  0
  1 16  1  0  0  0  0
  2  3  1  0  0  0  0
  2  7  2  0  0  0  0
  3 10  1  0  0  0  0
  4 11  1  0  0  0  0
  4 14  2  0  0  0  0
  5 13  1  0  0  0  0
  5 17  1  0  0  0  0
  5 18  1  0  0  0  0
  6 19  1  0  0  0  0
  7  8  1  0  0  0  0
  7  9  1  0  0  0  0
  8 11  2  0  0  0  0
  8 12  1  0  0  0  0
  9 10  2  0  0  0  0
  9 13  1  0  0  0  0
 12 15  2  0  0  0  0
 14 15  1  0  0  0  0
 16 20  1  0  0  0  0
 16 21  1  0  0  0  0
 17 19  1  0  0  0  0
M  END
> <PUBCHEM_COMPOUND_ID_TYPE>
0

> <PUBCHEM_TOTAL_CHARGE>
0

> <PUBCHEM_SUBSTANCE_ID>
310947734

> <PUBCHEM_SUBSTANCE_VERSION>
1

> <PUBCHEM_EXT_DATASOURCE_NAME>
4488

> <PUBCHEM_EXT_DATASOURCE_REGID>
SCHEMBL16125906

> <PUBCHEM_SUBSTANCE_COMMENT>
InChI=1S/C15H23N5O/c1-11(2)21-14-5-4-12(8-17-14)15-13(9-18-19-15)10-20(3)7-6-16/h4-5,8-9,11H,6-7,10,16H2,1-3H3,(H,18,19)
InChIKey=SGXMFTUQODASKP-UHFFFAOYSA-N

> <PUBCHEM_SUBSTANCE_SYNONYM>
SCHEMBL16125906

> <PUBCHEM_XREF_EXT_ID>
SCHEMBL16125906

> <PUBCHEM_EXT_DATASOURCE_URL>
https://www.surechembl.org/

> <PUBCHEM_EXT_SUBSTANCE_URL>
https://www.surechembl.org/chemical/SCHEMBL16125906

> <PUBCHEM_CID_ASSOCIATIONS>
86301695  1

> <PUBCHEM_COORDINATE_TYPE>
1
3

$$$$
