310942019
  -OEChem-07211613022D

 30 29  0     1  0  0  0  0  0999 V2000
   -0.3488    0.6228    0.0000 O   0  0  0  0  0  0  0  0  0  0  0  0
    1.8060   -0.6228    0.0000 O   0  0  0  0  0  0  0  0  0  0  0  0
    2.5284    0.6228    0.0000 O   0  0  0  0  0  0  0  0  0  0  0  0
   -1.0711    1.8683    0.0000 O   0  0  0  0  0  0  0  0  0  0  0  0
   -2.5035    1.8683    0.0000 O   0  0  0  0  0  0  0  0  0  0  0  0
    3.2509    1.8683    0.0000 O   0  0  0  0  0  0  0  0  0  0  0  0
    1.0836   -1.8683    0.0000 O   0  0  0  0  0  0  0  0  0  0  0  0
    1.0961    0.6352    0.0000 C   0  0  0  0  0  0  0  0  0  0  0  0
    0.3861    1.0338    0.0000 C   0  0  0  0  0  0  0  0  0  0  0  0
    1.0961   -0.1993    0.0000 C   0  0  0  0  0  0  0  0  0  0  0  0
    1.8185    1.0338    0.0000 C   0  0  0  0  0  0  0  0  0  0  0  0
   -1.0711    1.0213    0.0000 C   0  0  0  0  0  0  0  0  0  0  0  0
   -1.7811    0.6352    0.0000 C   0  0  0  0  0  0  0  0  0  0  0  0
    1.0961    1.4448    0.0000 C   0  0  0  0  0  0  0  0  0  0  0  0
   -2.5035    1.0338    0.0000 C   0  0  3  0  0  0  0  0  0  0  0  0
   -3.2134    0.6228    0.0000 C   0  0  0  0  0  0  0  0  0  0  0  0
    3.2509    1.0213    0.0000 C   0  0  0  0  0  0  0  0  0  0  0  0
    1.8185   -1.4448    0.0000 C   0  0  0  0  0  0  0  0  0  0  0  0
   -1.7687   -0.2117    0.0000 C   0  0  0  0  0  0  0  0  0  0  0  0
    1.8060    1.8434    0.0000 C   0  0  0  0  0  0  0  0  0  0  0  0
   -3.2134   -0.2117    0.0000 C   0  0  0  0  0  0  0  0  0  0  0  0
   -3.7864    0.8843    0.0000 C   0  0  0  0  0  0  0  0  0  0  0  0
    3.9857    0.6228    0.0000 C   0  0  0  0  0  0  0  0  0  0  0  0
    2.5409   -1.8683    0.0000 C   0  0  0  0  0  0  0  0  0  0  0  0
   -3.9234   -0.6228    0.0000 C   0  0  0  0  0  0  0  0  0  0  0  0
   -4.6583   -0.1993    0.0000 C   0  0  0  0  0  0  0  0  0  0  0  0
    4.6583    1.0711    0.0000 C   0  0  0  0  0  0  0  0  0  0  0  0
    3.2259   -1.4074    0.0000 C   0  0  0  0  0  0  0  0  0  0  0  0
   -4.6458    0.6228    0.0000 C   0  0  0  0  0  0  0  0  0  0  0  0
   -4.1352    0.9217    0.0000 C   0  0  0  0  0  0  0  0  0  0  0  0
  1  9  1  0  0  0  0
  1 12  1  0  0  0  0
  2 10  1  0  0  0  0
  2 18  1  0  0  0  0
  3 11  1  0  0  0  0
  3 17  1  0  0  0  0
  4 12  2  0  0  0  0
  5 15  1  0  0  0  0
  6 17  2  0  0  0  0
  7 18  2  0  0  0  0
  8  9  1  0  0  0  0
  8 10  1  0  0  0  0
  8 11  1  0  0  0  0
  8 14  1  0  0  0  0
 12 13  1  0  0  0  0
 13 15  1  0  0  0  0
 13 19  2  0  0  0  0
 14 20  1  0  0  0  0
 15 16  1  0  0  0  0
 16 21  1  0  0  0  0
 16 22  2  0  0  0  0
 17 23  1  0  0  0  0
 18 24  1  0  0  0  0
 21 25  2  0  0  0  0
 23 27  2  0  0  0  0
 24 28  2  0  0  0  0
 25 26  1  0  0  0  0
 26 29  2  0  0  0  0
 29 30  1  0  0  0  0
M  END
> <PUBCHEM_COMPOUND_ID_TYPE>
0

> <PUBCHEM_TOTAL_CHARGE>
0

> <PUBCHEM_SUBSTANCE_ID>
310942019

> <PUBCHEM_SUBSTANCE_VERSION>
1

> <PUBCHEM_EXT_DATASOURCE_NAME>
4488

> <PUBCHEM_EXT_DATASOURCE_REGID>
SCHEMBL16120053

> <PUBCHEM_SUBSTANCE_COMMENT>
InChI=1S/C23H30O7/c1-7-11-12-13-17(5)21(26)18(6)22(27)30-16-23(10-4,14-28-19(24)8-2)15-29-20(25)9-3/h7-9,11-13,21,26H,2-3,5-6,10,14-16H2,1,4H3/b11-7-,13-12-
InChIKey=CKEKLFIRGQCJQH-GIWBUXNHSA-N

> <PUBCHEM_SUBSTANCE_SYNONYM>
SCHEMBL16120053

> <PUBCHEM_XREF_EXT_ID>
SCHEMBL16120053

> <PUBCHEM_EXT_DATASOURCE_URL>
https://www.surechembl.org/

> <PUBCHEM_EXT_SUBSTANCE_URL>
https://www.surechembl.org/chemical/SCHEMBL16120053

> <PUBCHEM_CID_ASSOCIATIONS>
117608708  1

> <PUBCHEM_COORDINATE_TYPE>
1
3

$$$$
