310937272
  -OEChem-07211613022D

 36 40  0     1  0  0  0  0  0999 V2000
    4.3021   -5.3189    0.0000 O   0  0  0  0  0  0  0  0  0  0  0  0
    7.1961   -5.3580    0.0000 O   0  0  0  0  0  0  0  0  0  0  0  0
    6.5313   -2.5813    0.0000 N   0  0  3  0  0  0  0  0  0  0  0  0
    5.7491   -5.3189    0.0000 N   0  0  0  0  0  0  0  0  0  0  0  0
    2.1901   -2.4639    0.0000 N   0  0  0  0  0  0  0  0  0  0  0  0
    1.4470   -1.2124    0.0000 N   0  0  0  0  0  0  0  0  0  0  0  0
    7.9001   -6.5704    0.0000 N   0  0  0  0  0  0  0  0  0  0  0  0
    0.0000   -0.4302    0.0000 N   0  0  0  0  0  0  0  0  0  0  0  0
    5.7491   -3.6763    0.0000 C   0  0  0  0  0  0  0  0  0  0  0  0
    5.7491   -2.8550    0.0000 C   0  0  0  0  0  0  0  0  0  0  0  0
    5.0451   -4.0674    0.0000 C   0  0  0  0  0  0  0  0  0  0  0  0
    4.3411   -2.8550    0.0000 C   0  0  0  0  0  0  0  0  0  0  0  0
    5.0451   -2.4248    0.0000 C   0  0  0  0  0  0  0  0  0  0  0  0
    4.3411   -3.6763    0.0000 C   0  0  0  0  0  0  0  0  0  0  0  0
    6.5313   -3.9109    0.0000 C   0  0  0  0  0  0  0  0  0  0  0  0
    5.0451   -4.8887    0.0000 C   0  0  0  0  0  0  0  0  0  0  0  0
    3.5981   -2.4639    0.0000 C   0  0  0  0  0  0  0  0  0  0  0  0
    7.0006   -3.2461    0.0000 C   0  0  0  0  0  0  0  0  0  0  0  0
    6.8050   -1.7990    0.0000 C   0  0  0  0  0  0  0  0  0  0  0  0
    2.8941   -2.8550    0.0000 C   0  0  0  0  0  0  0  0  0  0  0  0
    3.5981   -1.6426    0.0000 C   0  0  0  0  0  0  0  0  0  0  0  0
    2.1510   -1.6426    0.0000 C   0  0  0  0  0  0  0  0  0  0  0  0
    6.4530   -6.5704    0.0000 C   0  0  0  0  0  0  0  0  0  0  0  0
    5.7491   -6.1402    0.0000 C   0  0  0  0  0  0  0  0  0  0  0  0
    2.8941   -1.2124    0.0000 C   0  0  0  0  0  0  0  0  0  0  0  0
    7.1961   -6.1793    0.0000 C   0  0  0  0  0  0  0  0  0  0  0  0
    6.4922   -7.3917    0.0000 C   0  0  0  0  0  0  0  0  0  0  0  0
    7.9001   -7.3917    0.0000 C   0  0  0  0  0  0  0  0  0  0  0  0
    7.1570   -7.7828    0.0000 C   0  0  0  0  0  0  0  0  0  0  0  0
    6.2184   -1.2124    0.0000 C   0  0  0  0  0  0  0  0  0  0  0  0
    1.4470   -0.3911    0.0000 C   0  0  0  0  0  0  0  0  0  0  0  0
    0.7431   -1.6426    0.0000 C   0  0  0  0  0  0  0  0  0  0  0  0
    5.7491   -7.7828    0.0000 C   0  0  0  0  0  0  0  0  0  0  0  0
    0.0000   -1.2515    0.0000 C   0  0  0  0  0  0  0  0  0  0  0  0
    0.7039    0.0000    0.0000 C   0  0  0  0  0  0  0  0  0  0  0  0
    8.6041   -7.8219    0.0000 C   0  0  0  0  0  0  0  0  0  0  0  0
  1 16  2  0  0  0  0
  2 26  2  0  0  0  0
  3 10  1  0  0  0  0
  3 18  1  0  0  0  0
  3 19  1  0  0  0  0
  4 16  1  0  0  0  0
  4 24  1  0  0  0  0
  5 20  1  0  0  0  0
  5 22  2  0  0  0  0
  6 22  1  0  0  0  0
  6 31  1  0  0  0  0
  6 32  1  0  0  0  0
  7 26  1  0  0  0  0
  7 28  1  0  0  0  0
  8 34  1  0  0  0  0
  8 35  1  0  0  0  0
  9 10  2  0  0  0  0
  9 11  1  0  0  0  0
  9 15  1  0  0  0  0
 10 13  1  0  0  0  0
 11 14  2  0  0  0  0
 11 16  1  0  0  0  0
 12 13  2  0  0  0  0
 12 14  1  0  0  0  0
 12 17  1  0  0  0  0
 15 18  1  0  0  0  0
 17 20  2  0  0  0  0
 17 21  1  0  0  0  0
 19 30  1  0  0  0  0
 21 25  2  0  0  0  0
 22 25  1  0  0  0  0
 23 24  1  0  0  0  0
 23 26  1  0  0  0  0
 23 27  2  0  0  0  0
 27 29  1  0  0  0  0
 27 33  1  0  0  0  0
 28 29  2  0  0  0  0
 28 36  1  0  0  0  0
 31 35  1  0  0  0  0
 32 34  1  0  0  0  0
M  END
> <PUBCHEM_COMPOUND_ID_TYPE>
0

> <PUBCHEM_TOTAL_CHARGE>
0

> <PUBCHEM_SUBSTANCE_ID>
310937272

> <PUBCHEM_SUBSTANCE_VERSION>
1

> <PUBCHEM_EXT_DATASOURCE_NAME>
4488

> <PUBCHEM_EXT_DATASOURCE_REGID>
SCHEMBL16115014

> <PUBCHEM_SUBSTANCE_COMMENT>
InChI=1S/C28H34N6O2/c1-4-33-10-7-22-23(27(35)31-17-24-18(2)13-19(3)32-28(24)36)14-21(15-25(22)33)20-5-6-26(30-16-20)34-11-8-29-9-12-34/h5-6,13-16,29H,4,7-12,17H2,1-3H3,(H,31,35)(H,32,36)
InChIKey=CKNKRNNXGAYVMN-UHFFFAOYSA-N

> <PUBCHEM_SUBSTANCE_SYNONYM>
SCHEMBL16115014

> <PUBCHEM_XREF_EXT_ID>
SCHEMBL16115014

> <PUBCHEM_EXT_DATASOURCE_URL>
https://www.surechembl.org/

> <PUBCHEM_EXT_SUBSTANCE_URL>
https://www.surechembl.org/chemical/SCHEMBL16115014

> <PUBCHEM_CID_ASSOCIATIONS>
86273636  1

> <PUBCHEM_COORDINATE_TYPE>
1
3

$$$$
