310945637
  -OEChem-07211613022D

 39 43  0     1  0  0  0  0  0999 V2000
   -6.2322   -0.6842    0.0000 S   0  0  0  0  0  0  0  0  0  0  0  0
    5.3771    0.8124    0.0000 O   0  0  0  0  0  0  0  0  0  0  0  0
    2.4266    0.9835    0.0000 O   0  0  0  0  0  0  0  0  0  0  0  0
   -3.3246   -0.6842    0.0000 O   0  0  0  0  0  0  0  0  0  0  0  0
   -5.6122   -1.2828    0.0000 O   0  0  0  0  0  0  0  0  0  0  0  0
   -6.7881   -1.2828    0.0000 O   0  0  0  0  0  0  0  0  0  0  0  0
    6.7026   -2.2663    0.0000 O   0  0  0  0  0  0  0  0  0  0  0  0
    7.0019   -0.8766    0.0000 O   0  0  0  0  0  0  0  0  0  0  0  0
   -5.5053   -0.2779    0.0000 N   0  0  3  0  0  0  0  0  0  0  0  0
    4.4791   -0.1710    0.0000 C   0  0  0  0  0  0  0  0  0  0  0  0
    4.5005    0.6414    0.0000 C   0  0  0  0  0  0  0  0  0  0  0  0
   -1.2507    0.6414    0.0000 C   0  0  0  0  0  0  0  0  0  0  0  0
    5.2915   -0.4490    0.0000 C   0  0  3  0  0  0  0  0  0  0  0  0
   -0.5452    1.0476    0.0000 C   0  0  0  0  0  0  0  0  0  0  0  0
   -1.9776    1.0476    0.0000 C   0  0  0  0  0  0  0  0  0  0  0  0
   -1.2721   -0.1710    0.0000 C   0  0  0  0  0  0  0  0  0  0  0  0
    3.0680    0.6414    0.0000 C   0  0  0  0  0  0  0  0  0  0  0  0
    3.7736    1.0262    0.0000 C   0  0  0  0  0  0  0  0  0  0  0  0
    3.7736   -0.5986    0.0000 C   0  0  0  0  0  0  0  0  0  0  0  0
    5.7832    0.1924    0.0000 C   0  0  0  0  0  0  0  0  0  0  0  0
   -2.7046   -0.1924    0.0000 C   0  0  0  0  0  0  0  0  0  0  0  0
   -2.6618    0.6414    0.0000 C   0  0  0  0  0  0  0  0  0  0  0  0
   -1.9776   -0.5986    0.0000 C   0  0  0  0  0  0  0  0  0  0  0  0
    3.0894   -0.1924    0.0000 C   0  0  0  0  0  0  0  0  0  0  0  0
    0.2031    0.6414    0.0000 C   0  0  0  0  0  0  0  0  0  0  0  0
    0.8873    1.0476    0.0000 C   0  0  0  0  0  0  0  0  0  0  0  0
    5.5481   -1.2401    0.0000 C   0  0  0  0  0  0  0  0  0  0  0  0
   -0.5024    1.8814    0.0000 C   0  0  0  0  0  0  0  0  0  0  0  0
   -7.0019   -0.1924    0.0000 C   0  0  0  0  0  0  0  0  0  0  0  0
    1.6569    0.6414    0.0000 C   0  0  0  0  0  0  0  0  0  0  0  0
   -5.5694    0.6200    0.0000 C   0  0  0  0  0  0  0  0  0  0  0  0
   -4.8212   -0.5986    0.0000 C   0  0  0  0  0  0  0  0  0  0  0  0
    0.9087    1.8600    0.0000 C   0  0  0  0  0  0  0  0  0  0  0  0
   -6.9806    0.6414    0.0000 C   0  0  0  0  0  0  0  0  0  0  0  0
    0.2031    2.2663    0.0000 C   0  0  0  0  0  0  0  0  0  0  0  0
   -4.1584   -0.2138    0.0000 C   0  0  0  0  0  0  0  0  0  0  0  0
   -1.9563    1.8814    0.0000 C   0  0  0  0  0  0  0  0  0  0  0  0
   -0.5238   -0.6200    0.0000 C   0  0  0  0  0  0  0  0  0  0  0  0
    6.3391   -1.4111    0.0000 C   0  0  0  0  0  0  0  0  0  0  0  0
  1  5  2  0  0  0  0
  1  6  2  0  0  0  0
  1  9  1  0  0  0  0
  1 29  1  0  0  0  0
  2 11  1  0  0  0  0
  2 20  1  0  0  0  0
  3 17  1  0  0  0  0
  3 30  1  0  0  0  0
  4 21  1  0  0  0  0
  4 36  1  0  0  0  0
  7 39  2  0  0  0  0
  8 39  1  0  0  0  0
  9 31  1  0  0  0  0
  9 32  1  0  0  0  0
 10 11  1  0  0  0  0
 10 13  1  0  0  0  0
 10 19  2  0  0  0  0
 11 18  2  0  0  0  0
 12 14  1  0  0  0  0
 12 15  2  0  0  0  0
 12 16  1  0  0  0  0
 13 20  1  0  0  0  0
 13 27  1  0  0  0  0
 14 25  2  0  0  0  0
 14 28  1  0  0  0  0
 15 22  1  0  0  0  0
 15 37  1  0  0  0  0
 16 23  2  0  0  0  0
 16 38  1  0  0  0  0
 17 18  1  0  0  0  0
 17 24  2  0  0  0  0
 19 24  1  0  0  0  0
 21 22  2  0  0  0  0
 21 23  1  0  0  0  0
 25 26  1  0  0  0  0
 26 30  1  0  0  0  0
 26 33  2  0  0  0  0
 27 39  1  0  0  0  0
 28 35  2  0  0  0  0
 29 34  1  0  0  0  0
 31 34  1  0  0  0  0
 32 36  1  0  0  0  0
 33 35  1  0  0  0  0
M  END
> <PUBCHEM_COMPOUND_ID_TYPE>
0

> <PUBCHEM_TOTAL_CHARGE>
0

> <PUBCHEM_SUBSTANCE_ID>
310945637

> <PUBCHEM_SUBSTANCE_VERSION>
1

> <PUBCHEM_EXT_DATASOURCE_NAME>
4488

> <PUBCHEM_EXT_DATASOURCE_REGID>
SCHEMBL16123736

> <PUBCHEM_SUBSTANCE_COMMENT>
InChI=1S/C30H33NO7S/c1-20-13-26(36-11-10-31-9-4-12-39(31,34)35)14-21(2)30(20)23-6-3-5-22(15-23)18-37-25-7-8-27-24(16-29(32)33)19-38-28(27)17-25/h3,5-8,13-15,17,24H,4,9-12,16,18-19H2,1-2H3,(H,32,33)
InChIKey=CETZWQRPGCJEAW-UHFFFAOYSA-N

> <PUBCHEM_SUBSTANCE_SYNONYM>
SCHEMBL16123736

> <PUBCHEM_XREF_EXT_ID>
SCHEMBL16123736

> <PUBCHEM_EXT_DATASOURCE_URL>
https://www.surechembl.org/

> <PUBCHEM_EXT_SUBSTANCE_URL>
https://www.surechembl.org/chemical/SCHEMBL16123736

> <PUBCHEM_CID_ASSOCIATIONS>
86269245  1

> <PUBCHEM_COORDINATE_TYPE>
1
3

$$$$
