310946261
  -OEChem-07211613022D

 27 29  0     1  0  0  0  0  0999 V2000
    3.2088    5.9231    0.0000 S   0  0  0  0  0  0  0  0  0  0  0  0
    2.3838    5.9231    0.0000 O   0  0  0  0  0  0  0  0  0  0  0  0
    0.1298    5.9231    0.0000 O   0  0  0  0  0  0  0  0  0  0  0  0
   -0.1721    9.5251    0.0000 O   0  0  0  0  0  0  0  0  0  0  0  0
    3.6213    6.6376    0.0000 O   0  0  0  0  0  0  0  0  0  0  0  0
    3.6213    5.2087    0.0000 O   0  0  0  0  0  0  0  0  0  0  0  0
    4.0338    5.9231    0.0000 O   0  0  0  0  0  0  0  0  0  0  0  0
   -1.6011    8.7001    0.0000 O   0  0  0  0  0  0  0  0  0  0  0  0
   -3.7530   10.8918    0.0000 O   0  0  0  0  0  0  0  0  0  0  0  0
    0.5423    7.4626    0.0000 N   0  0  0  0  0  0  0  0  0  0  0  0
    1.9713    6.6376    0.0000 N   0  0  0  0  0  0  0  0  0  0  0  0
   -0.8866    8.2876    0.0000 N   0  0  0  0  0  0  0  0  0  0  0  0
   -3.6958    7.9178    0.0000 N   0  0  0  0  0  0  0  0  0  0  0  0
    0.5423    6.6376    0.0000 C   0  0  0  0  0  0  0  0  0  0  0  0
    1.9713    7.4626    0.0000 C   0  0  3  0  0  0  0  0  0  0  0  0
    0.5423    8.2876    0.0000 C   0  0  3  0  0  0  0  0  0  0  0  0
    1.2568    7.0501    0.0000 C   0  0  0  0  0  0  0  0  0  0  0  0
    1.9713    8.2876    0.0000 C   0  0  0  0  0  0  0  0  0  0  0  0
    1.2568    8.7001    0.0000 C   0  0  0  0  0  0  0  0  0  0  0  0
   -0.1721    8.7001    0.0000 C   0  0  0  0  0  0  0  0  0  0  0  0
   -3.1124    8.5011    0.0000 C   0  0  3  0  0  0  0  0  0  0  0  0
   -2.3155    8.2876    0.0000 C   0  0  0  0  0  0  0  0  0  0  0  0
   -3.3260    9.2980    0.0000 C   0  0  0  0  0  0  0  0  0  0  0  0
   -4.1228    9.5115    0.0000 C   0  0  0  0  0  0  0  0  0  0  0  0
   -2.7426    9.8814    0.0000 C   0  0  0  0  0  0  0  0  0  0  0  0
   -2.9561   10.6783    0.0000 C   0  0  0  0  0  0  0  0  0  0  0  0
   -4.3364   10.3084    0.0000 C   0  0  0  0  0  0  0  0  0  0  0  0
  1  2  1  0  0  0  0
  1  5  2  0  0  0  0
  1  6  2  0  0  0  0
  1  7  1  0  0  0  0
  2 11  1  0  0  0  0
  3 14  2  0  0  0  0
  4 20  2  0  0  0  0
  8 12  1  0  0  0  0
  8 22  1  0  0  0  0
  9 26  1  0  0  0  0
  9 27  1  0  0  0  0
 10 14  1  0  0  0  0
 10 16  1  0  0  0  0
 10 17  1  0  0  0  0
 11 14  1  0  0  0  0
 11 15  1  0  0  0  0
 12 20  1  0  0  0  0
 13 21  1  0  0  0  0
 15 17  1  6  0  0  0
 15 18  1  0  0  0  0
 16 19  1  0  0  0  0
 16 20  1  6  0  0  0
 18 19  1  0  0  0  0
 21 22  1  0  0  0  0
 21 23  1  0  0  0  0
 23 24  1  0  0  0  0
 23 25  1  0  0  0  0
 24 27  1  0  0  0  0
 25 26  1  0  0  0  0
M  END
> <PUBCHEM_COMPOUND_ID_TYPE>
0

> <PUBCHEM_TOTAL_CHARGE>
0

> <PUBCHEM_SUBSTANCE_ID>
310946261

> <PUBCHEM_SUBSTANCE_VERSION>
1

> <PUBCHEM_EXT_DATASOURCE_NAME>
4488

> <PUBCHEM_EXT_DATASOURCE_REGID>
SCHEMBL16124379

> <PUBCHEM_SUBSTANCE_COMMENT>
InChI=1S/C14H24N4O8S/c15-11(9-3-5-24-6-4-9)8-25-16-13(19)12-2-1-10-7-17(12)14(20)18(10)26-27(21,22)23/h9-12H,1-8,15H2,(H,16,19)(H,21,22,23)/t10-,11?,12+/m1/s1
InChIKey=TXBNENZKZIAHDH-LWALXPGCSA-N

> <PUBCHEM_SUBSTANCE_SYNONYM>
SCHEMBL16124379

> <PUBCHEM_XREF_EXT_ID>
SCHEMBL16124379

> <PUBCHEM_EXT_DATASOURCE_URL>
https://www.surechembl.org/

> <PUBCHEM_EXT_SUBSTANCE_URL>
https://www.surechembl.org/chemical/SCHEMBL16124379

> <PUBCHEM_CID_ASSOCIATIONS>
117612209  1

> <PUBCHEM_COORDINATE_TYPE>
1
3

> <PUBCHEM_BONDANNOTATIONS>
15  17  6
16  20  6

$$$$
