310934340
  -OEChem-07211613022D

 40 45  0     1  0  0  0  0  0999 V2000
    5.9818    0.0000    0.0000 Cl  0  0  0  0  0  0  0  0  0  0  0  0
    0.0000   -7.4308    0.0000 Cl  0  0  0  0  0  0  0  0  0  0  0  0
    8.5455   -5.7217    0.0000 F   0  0  0  0  0  0  0  0  0  0  0  0
    6.3905   -5.0529    0.0000 O   0  0  0  0  0  0  0  0  0  0  0  0
    5.2016   -4.3099    0.0000 N   0  0  0  0  0  0  0  0  0  0  0  0
    7.6537   -2.8609    0.0000 N   0  0  0  0  0  0  0  0  0  0  0  0
    3.4553   -5.7217    0.0000 N   0  0  0  0  0  0  0  0  0  0  0  0
    3.4553   -4.3842    0.0000 N   0  0  0  0  0  0  0  0  0  0  0  0
    8.5083   -2.9352    0.0000 N   0  0  0  0  0  0  0  0  0  0  0  0
    8.6941   -3.7154    0.0000 N   0  0  0  0  0  0  0  0  0  0  0  0
    7.9881   -4.1613    0.0000 N   0  0  0  0  0  0  0  0  0  0  0  0
    4.7929   -5.0529    0.0000 C   0  0  3  0  0  0  0  0  0  0  0  0
    6.3905   -2.1549    0.0000 C   0  0  0  0  0  0  0  0  0  0  0  0
    5.9818   -2.8980    0.0000 C   0  0  0  0  0  0  0  0  0  0  0  0
    7.2451   -2.1549    0.0000 C   0  0  0  0  0  0  0  0  0  0  0  0
    3.9383   -5.0529    0.0000 C   0  0  0  0  0  0  0  0  0  0  0  0
    5.9818   -4.3099    0.0000 C   0  0  0  0  0  0  0  0  0  0  0  0
    6.4277   -3.6039    0.0000 C   0  0  0  0  0  0  0  0  0  0  0  0
    4.7557   -3.6039    0.0000 C   0  0  0  0  0  0  0  0  0  0  0  0
    5.2016   -2.8980    0.0000 C   0  0  0  0  0  0  0  0  0  0  0  0
    2.6751   -5.4617    0.0000 C   0  0  0  0  0  0  0  0  0  0  0  0
    5.9818   -1.4490    0.0000 C   0  0  0  0  0  0  0  0  0  0  0  0
    5.2016   -5.7589    0.0000 C   0  0  0  0  0  0  0  0  0  0  0  0
    7.6537   -1.4119    0.0000 C   0  0  0  0  0  0  0  0  0  0  0  0
    6.3905   -0.7059    0.0000 C   0  0  0  0  0  0  0  0  0  0  0  0
    2.6751   -4.6443    0.0000 C   0  0  0  0  0  0  0  0  0  0  0  0
    2.0063   -5.9447    0.0000 C   0  0  0  0  0  0  0  0  0  0  0  0
    6.0561   -5.7589    0.0000 C   0  0  0  0  0  0  0  0  0  0  0  0
    7.2079   -0.7059    0.0000 C   0  0  0  0  0  0  0  0  0  0  0  0
    7.3566   -3.6039    0.0000 C   0  0  0  0  0  0  0  0  0  0  0  0
    2.1178   -6.7992    0.0000 C   0  0  0  0  0  0  0  0  0  0  0  0
    1.2633   -5.6103    0.0000 C   0  0  0  0  0  0  0  0  0  0  0  0
    6.6134   -5.2016    0.0000 C   0  0  0  0  0  0  0  0  0  0  0  0
    6.4648   -6.4648    0.0000 C   0  0  0  0  0  0  0  0  0  0  0  0
    1.4490   -7.2822    0.0000 C   0  0  0  0  0  0  0  0  0  0  0  0
    0.5945   -6.1304    0.0000 C   0  0  0  0  0  0  0  0  0  0  0  0
    0.6688   -6.9478    0.0000 C   0  0  0  0  0  0  0  0  0  0  0  0
    7.2822   -5.0158    0.0000 C   0  0  0  0  0  0  0  0  0  0  0  0
    7.2822   -6.4648    0.0000 C   0  0  0  0  0  0  0  0  0  0  0  0
    7.6909   -5.7217    0.0000 C   0  0  0  0  0  0  0  0  0  0  0  0
  1 25  1  0  0  0  0
  2 37  1  0  0  0  0
  3 40  1  0  0  0  0
  4 17  2  0  0  0  0
  5 12  1  0  0  0  0
  5 17  1  0  0  0  0
  5 19  1  0  0  0  0
  6  9  1  0  0  0  0
  6 15  1  0  0  0  0
  6 30  1  0  0  0  0
  7 16  1  0  0  0  0
  7 21  1  0  0  0  0
  8 16  2  0  0  0  0
  8 26  1  0  0  0  0
  9 10  2  0  0  0  0
 10 11  1  0  0  0  0
 11 30  2  0  0  0  0
 12 16  1  0  0  0  0
 12 23  1  0  0  0  0
 13 14  1  0  0  0  0
 13 15  1  0  0  0  0
 13 22  2  0  0  0  0
 14 18  2  0  0  0  0
 14 20  1  0  0  0  0
 15 24  2  0  0  0  0
 17 18  1  0  0  0  0
 19 20  2  0  0  0  0
 21 26  2  0  0  0  0
 21 27  1  0  0  0  0
 22 25  1  0  0  0  0
 23 28  1  0  0  0  0
 24 29  1  0  0  0  0
 25 29  2  0  0  0  0
 27 31  2  0  0  0  0
 27 32  1  0  0  0  0
 28 33  2  0  0  0  0
 28 34  1  0  0  0  0
 31 35  1  0  0  0  0
 32 36  2  0  0  0  0
 33 38  1  0  0  0  0
 34 39  2  0  0  0  0
 35 37  2  0  0  0  0
 36 37  1  0  0  0  0
 38 40  2  0  0  0  0
 39 40  1  0  0  0  0
M  END
> <PUBCHEM_COMPOUND_ID_TYPE>
0

> <PUBCHEM_TOTAL_CHARGE>
0

> <PUBCHEM_SUBSTANCE_ID>
310934340

> <PUBCHEM_SUBSTANCE_VERSION>
1

> <PUBCHEM_EXT_DATASOURCE_NAME>
4488

> <PUBCHEM_EXT_DATASOURCE_REGID>
SCHEMBL16111803

> <PUBCHEM_SUBSTANCE_COMMENT>
InChI=1S/C29H20Cl2FN7O/c30-21-5-3-19(4-6-21)25-16-33-29(35-25)27(13-18-1-8-23(32)9-2-18)38-12-11-20(14-28(38)40)24-15-22(31)7-10-26(24)39-17-34-36-37-39/h1-12,14-17,27H,13H2,(H,33,35)
InChIKey=OOEICDSYBUTJOW-UHFFFAOYSA-N

> <PUBCHEM_SUBSTANCE_SYNONYM>
SCHEMBL16111803

> <PUBCHEM_XREF_EXT_ID>
SCHEMBL16111803

> <PUBCHEM_EXT_DATASOURCE_URL>
https://www.surechembl.org/

> <PUBCHEM_EXT_SUBSTANCE_URL>
https://www.surechembl.org/chemical/SCHEMBL16111803

> <PUBCHEM_CID_ASSOCIATIONS>
86301704  1

> <PUBCHEM_COORDINATE_TYPE>
1
3

$$$$
