310932327
  -OEChem-07211613022D

 24 26  0     1  0  0  0  0  0999 V2000
    2.7442   -1.6143    0.0000 O   0  0  0  0  0  0  0  0  0  0  0  0
    3.8743   -3.5514    0.0000 O   0  0  0  0  0  0  0  0  0  0  0  0
    4.5845   -2.3246    0.0000 O   0  0  0  0  0  0  0  0  0  0  0  0
    2.3569   -2.3246    0.0000 C   0  0  3  0  0  0  0  0  0  0  0  0
    3.1640   -2.3246    0.0000 C   0  0  3  0  0  0  0  0  0  0  0  0
    1.7434   -1.7434    0.0000 C   0  0  0  0  0  0  0  0  0  0  0  0
    1.6143   -2.7442    0.0000 C   0  0  0  0  0  0  0  0  0  0  0  0
    3.8743   -2.7442    0.0000 C   0  0  0  0  0  0  0  0  0  0  0  0
    0.9363   -1.9694    0.0000 C   0  0  0  0  0  0  0  0  0  0  0  0
    1.9694   -0.9363    0.0000 C   0  0  0  0  0  0  0  0  0  0  0  0
    1.6143   -3.5837    0.0000 C   0  0  0  0  0  0  0  0  0  0  0  0
    0.9040   -2.3246    0.0000 C   0  0  0  0  0  0  0  0  0  0  0  0
    0.3874   -1.3883    0.0000 C   0  0  0  0  0  0  0  0  0  0  0  0
    1.3883   -0.3874    0.0000 C   0  0  0  0  0  0  0  0  0  0  0  0
    0.9040   -3.9711    0.0000 C   0  0  0  0  0  0  0  0  0  0  0  0
    0.1937   -2.7442    0.0000 C   0  0  0  0  0  0  0  0  0  0  0  0
    0.5812   -0.5812    0.0000 C   0  0  0  0  0  0  0  0  0  0  0  0
    0.1937   -3.5514    0.0000 C   0  0  0  0  0  0  0  0  0  0  0  0
    4.5845   -3.9711    0.0000 C   0  0  0  0  0  0  0  0  0  0  0  0
    0.0000    0.0000    0.0000 C   0  0  0  0  0  0  0  0  0  0  0  0
    4.6168   -4.8105    0.0000 C   0  0  0  0  0  0  0  0  0  0  0  0
    5.2948   -5.1980    0.0000 C   0  0  0  0  0  0  0  0  0  0  0  0
    5.3271   -6.0374    0.0000 C   0  0  0  0  0  0  0  0  0  0  0  0
    6.0374   -6.4571    0.0000 C   0  0  0  0  0  0  0  0  0  0  0  0
  1  4  1  0  0  0  0
  1  5  1  0  0  0  0
  2  8  1  0  0  0  0
  2 19  1  0  0  0  0
  3  8  2  0  0  0  0
  4  5  1  0  0  0  0
  4  6  1  0  0  0  0
  4  7  1  0  0  0  0
  5  8  1  0  0  0  0
  6  9  2  0  0  0  0
  6 10  1  0  0  0  0
  7 11  2  0  0  0  0
  7 12  1  0  0  0  0
  9 13  1  0  0  0  0
 10 14  2  0  0  0  0
 11 15  1  0  0  0  0
 12 16  2  0  0  0  0
 13 17  2  0  0  0  0
 14 17  1  0  0  0  0
 15 18  2  0  0  0  0
 16 18  1  0  0  0  0
 17 20  1  0  0  0  0
 19 21  1  0  0  0  0
 21 22  1  0  0  0  0
 22 23  1  0  0  0  0
 23 24  1  0  0  0  0
M  END
> <PUBCHEM_COMPOUND_ID_TYPE>
0

> <PUBCHEM_TOTAL_CHARGE>
0

> <PUBCHEM_SUBSTANCE_ID>
310932327

> <PUBCHEM_SUBSTANCE_VERSION>
1

> <PUBCHEM_EXT_DATASOURCE_NAME>
4488

> <PUBCHEM_EXT_DATASOURCE_REGID>
SCHEMBL16109693

> <PUBCHEM_SUBSTANCE_COMMENT>
InChI=1S/C21H24O3/c1-3-4-8-15-23-20(22)19-21(24-19,17-9-6-5-7-10-17)18-13-11-16(2)12-14-18/h5-7,9-14,19H,3-4,8,15H2,1-2H3
InChIKey=DYWDJWQDCPYALT-UHFFFAOYSA-N

> <PUBCHEM_SUBSTANCE_SYNONYM>
SCHEMBL16109693

> <PUBCHEM_XREF_EXT_ID>
SCHEMBL16109693

> <PUBCHEM_EXT_DATASOURCE_URL>
https://www.surechembl.org/

> <PUBCHEM_EXT_SUBSTANCE_URL>
https://www.surechembl.org/chemical/SCHEMBL16109693

> <PUBCHEM_CID_ASSOCIATIONS>
117600883  1

> <PUBCHEM_COORDINATE_TYPE>
1
3

$$$$
