310934232
  -OEChem-07211613022D

 27 29  0     1  0  0  0  0  0999 V2000
    4.2838   -2.8183    0.0000 O   0  0  0  0  0  0  0  0  0  0  0  0
    1.0521   -6.7264    0.0000 O   0  0  0  0  0  0  0  0  0  0  0  0
    0.5261   -5.1857    0.0000 O   0  0  0  0  0  0  0  0  0  0  0  0
    2.6680   -7.0646    0.0000 O   0  0  0  0  0  0  0  0  0  0  0  0
    3.0062   -2.1795    0.0000 N   0  0  0  0  0  0  0  0  0  0  0  0
    3.0062   -3.4947    0.0000 C   0  0  3  0  0  0  0  0  0  0  0  0
    2.2171   -3.2317    0.0000 C   0  0  0  0  0  0  0  0  0  0  0  0
    2.2171   -2.4426    0.0000 C   0  0  0  0  0  0  0  0  0  0  0  0
    3.4947   -2.8183    0.0000 C   0  0  0  0  0  0  0  0  0  0  0  0
    3.2693   -4.2838    0.0000 C   0  0  0  0  0  0  0  0  0  0  0  0
    2.7056   -4.8851    0.0000 C   0  0  0  0  0  0  0  0  0  0  0  0
    1.5031   -3.6450    0.0000 C   0  0  0  0  0  0  0  0  0  0  0  0
    1.5031   -1.9916    0.0000 C   0  0  0  0  0  0  0  0  0  0  0  0
    1.6158   -6.1251    0.0000 C   0  0  0  0  0  0  0  0  0  0  0  0
    3.2693   -1.3904    0.0000 C   0  0  0  0  0  0  0  0  0  0  0  0
    1.3528   -5.3360    0.0000 C   0  0  0  0  0  0  0  0  0  0  0  0
    2.4050   -6.2754    0.0000 C   0  0  0  0  0  0  0  0  0  0  0  0
    1.9164   -4.7348    0.0000 C   0  0  0  0  0  0  0  0  0  0  0  0
    2.9686   -5.6742    0.0000 C   0  0  0  0  0  0  0  0  0  0  0  0
    0.7891   -3.2317    0.0000 C   0  0  0  0  0  0  0  0  0  0  0  0
    0.7891   -2.4426    0.0000 C   0  0  0  0  0  0  0  0  0  0  0  0
    2.7056   -0.7891    0.0000 C   0  0  0  0  0  0  0  0  0  0  0  0
    2.9686    0.0000    0.0000 C   0  0  0  0  0  0  0  0  0  0  0  0
    1.9164   -0.9394    0.0000 C   0  0  0  0  0  0  0  0  0  0  0  0
    1.3152   -7.5155    0.0000 C   0  0  0  0  0  0  0  0  0  0  0  0
    0.0000   -5.7870    0.0000 C   0  0  0  0  0  0  0  0  0  0  0  0
    3.4947   -7.2525    0.0000 C   0  0  0  0  0  0  0  0  0  0  0  0
  1  9  2  0  0  0  0
  2 14  1  0  0  0  0
  2 25  1  0  0  0  0
  3 16  1  0  0  0  0
  3 26  1  0  0  0  0
  4 17  1  0  0  0  0
  4 27  1  0  0  0  0
  5  8  1  0  0  0  0
  5  9  1  0  0  0  0
  5 15  1  0  0  0  0
  6  7  1  0  0  0  0
  6  9  1  0  0  0  0
  6 10  1  0  0  0  0
  7  8  2  0  0  0  0
  7 12  1  0  0  0  0
  8 13  1  0  0  0  0
 10 11  1  0  0  0  0
 11 18  2  0  0  0  0
 11 19  1  0  0  0  0
 12 20  2  0  0  0  0
 13 21  2  0  0  0  0
 14 16  2  0  0  0  0
 14 17  1  0  0  0  0
 15 22  1  0  0  0  0
 16 18  1  0  0  0  0
 17 19  2  0  0  0  0
 20 21  1  0  0  0  0
 22 23  1  0  0  0  0
 22 24  1  0  0  0  0
M  END
> <PUBCHEM_COMPOUND_ID_TYPE>
0

> <PUBCHEM_TOTAL_CHARGE>
0

> <PUBCHEM_SUBSTANCE_ID>
310934232

> <PUBCHEM_SUBSTANCE_VERSION>
1

> <PUBCHEM_EXT_DATASOURCE_NAME>
4488

> <PUBCHEM_EXT_DATASOURCE_REGID>
SCHEMBL16111688

> <PUBCHEM_SUBSTANCE_COMMENT>
InChI=1S/C22H27NO4/c1-14(2)13-23-18-9-7-6-8-16(18)17(22(23)24)10-15-11-19(25-3)21(27-5)20(12-15)26-4/h6-9,11-12,14,17H,10,13H2,1-5H3
InChIKey=TYETZMRIFBRSPX-UHFFFAOYSA-N

> <PUBCHEM_SUBSTANCE_SYNONYM>
SCHEMBL16111688

> <PUBCHEM_XREF_EXT_ID>
SCHEMBL16111688

> <PUBCHEM_EXT_DATASOURCE_URL>
https://www.surechembl.org/

> <PUBCHEM_EXT_SUBSTANCE_URL>
https://www.surechembl.org/chemical/SCHEMBL16111688

> <PUBCHEM_CID_ASSOCIATIONS>
117602494  1

> <PUBCHEM_COORDINATE_TYPE>
1
3

$$$$
