310943563
  -OEChem-07211613022D

 32 35  0     1  0  0  0  0  0999 V2000
    2.6311    2.1637    0.0000 O   0  0  0  0  0  0  0  0  0  0  0  0
    3.3524    0.7479    0.0000 N   0  0  0  0  0  0  0  0  0  0  0  0
   -3.0719   -1.3757    0.0000 N   0  0  3  0  0  0  0  0  0  0  0  0
    4.7815   -0.0668    0.0000 N   0  0  0  0  0  0  0  0  0  0  0  0
    1.2288   -2.1637    0.0000 N   0  0  0  0  0  0  0  0  0  0  0  0
   -4.8482   -0.8414    0.0000 N   0  0  3  0  0  0  0  0  0  0  0  0
   -0.2137   -0.5209    0.0000 C   0  0  0  0  0  0  0  0  0  0  0  0
    0.5075   -0.0935    0.0000 C   0  0  0  0  0  0  0  0  0  0  0  0
   -0.2137   -1.3356    0.0000 C   0  0  0  0  0  0  0  0  0  0  0  0
    1.9099    0.7346    0.0000 C   0  0  0  0  0  0  0  0  0  0  0  0
    2.6311    1.1352    0.0000 C   0  0  0  0  0  0  0  0  0  0  0  0
   -1.6561   -1.3623    0.0000 C   0  0  0  0  0  0  0  0  0  0  0  0
   -0.9483   -0.1202    0.0000 C   0  0  0  0  0  0  0  0  0  0  0  0
    1.2421   -0.4942    0.0000 C   0  0  0  0  0  0  0  0  0  0  0  0
    0.5209    0.7346    0.0000 C   0  0  0  0  0  0  0  0  0  0  0  0
   -0.9215   -1.7496    0.0000 C   0  0  0  0  0  0  0  0  0  0  0  0
    1.9233   -0.0935    0.0000 C   0  0  0  0  0  0  0  0  0  0  0  0
    1.2288    1.1219    0.0000 C   0  0  0  0  0  0  0  0  0  0  0  0
   -1.6428   -0.5342    0.0000 C   0  0  0  0  0  0  0  0  0  0  0  0
   -2.3240   -1.7630    0.0000 C   0  0  0  0  0  0  0  0  0  0  0  0
    0.5209   -1.7630    0.0000 C   0  0  0  0  0  0  0  0  0  0  0  0
    3.3657   -0.0802    0.0000 C   0  0  0  0  0  0  0  0  0  0  0  0
    4.0603    1.1619    0.0000 C   0  0  0  0  0  0  0  0  0  0  0  0
    4.1003   -0.4808    0.0000 C   0  0  0  0  0  0  0  0  0  0  0  0
    4.7681    0.7613    0.0000 C   0  0  0  0  0  0  0  0  0  0  0  0
   -3.7530   -1.8431    0.0000 C   0  0  0  0  0  0  0  0  0  0  0  0
   -3.0184   -0.5610    0.0000 C   0  0  0  0  0  0  0  0  0  0  0  0
   -4.5411   -1.5894    0.0000 C   0  0  0  0  0  0  0  0  0  0  0  0
   -3.6195    0.0000    0.0000 C   0  0  0  0  0  0  0  0  0  0  0  0
   -4.4209   -0.1202    0.0000 C   0  0  0  0  0  0  0  0  0  0  0  0
    5.6763   -0.5743    0.0000 C   0  0  0  0  0  0  0  0  0  0  0  0
   -5.6763   -0.8548    0.0000 C   0  0  0  0  0  0  0  0  0  0  0  0
  1 11  2  0  0  0  0
  2 11  1  0  0  0  0
  2 22  1  0  0  0  0
  2 23  1  0  0  0  0
  3 20  1  0  0  0  0
  3 26  1  0  0  0  0
  3 27  1  0  0  0  0
  4 24  1  0  0  0  0
  4 25  1  0  0  0  0
  4 31  1  0  0  0  0
  5 21  3  0  0  0  0
  6 28  1  0  0  0  0
  6 30  1  0  0  0  0
  6 32  1  0  0  0  0
  7  8  1  0  0  0  0
  7  9  1  0  0  0  0
  7 13  2  0  0  0  0
  8 14  2  0  0  0  0
  8 15  1  0  0  0  0
  9 16  2  0  0  0  0
  9 21  1  0  0  0  0
 10 11  1  0  0  0  0
 10 17  2  0  0  0  0
 10 18  1  0  0  0  0
 12 16  1  0  0  0  0
 12 19  2  0  0  0  0
 12 20  1  0  0  0  0
 13 19  1  0  0  0  0
 14 17  1  0  0  0  0
 15 18  2  0  0  0  0
 22 24  1  0  0  0  0
 23 25  1  0  0  0  0
 26 28  1  0  0  0  0
 27 29  1  0  0  0  0
 29 30  1  0  0  0  0
M  END
> <PUBCHEM_COMPOUND_ID_TYPE>
0

> <PUBCHEM_TOTAL_CHARGE>
0

> <PUBCHEM_SUBSTANCE_ID>
310943563

> <PUBCHEM_SUBSTANCE_VERSION>
1

> <PUBCHEM_EXT_DATASOURCE_NAME>
4488

> <PUBCHEM_EXT_DATASOURCE_REGID>
SCHEMBL16121630

> <PUBCHEM_SUBSTANCE_COMMENT>
InChI=1S/C26H33N5O/c1-28-10-3-11-30(15-12-28)20-21-4-9-25(24(18-21)19-27)22-5-7-23(8-6-22)26(32)31-16-13-29(2)14-17-31/h4-9,18H,3,10-17,20H2,1-2H3
InChIKey=HCGDKYDICCBDJW-UHFFFAOYSA-N

> <PUBCHEM_SUBSTANCE_SYNONYM>
SCHEMBL16121630

> <PUBCHEM_XREF_EXT_ID>
SCHEMBL16121630

> <PUBCHEM_EXT_DATASOURCE_URL>
https://www.surechembl.org/

> <PUBCHEM_EXT_SUBSTANCE_URL>
https://www.surechembl.org/chemical/SCHEMBL16121630

> <PUBCHEM_CID_ASSOCIATIONS>
117609973  1

> <PUBCHEM_COORDINATE_TYPE>
1
3

$$$$
