310930178
  -OEChem-07211613022D

 28 30  0     1  0  0  0  0  0999 V2000
    0.8230   -5.5638    0.0000 S   0  0  0  0  0  0  0  0  0  0  0  0
    0.8230   -4.7078    0.0000 O   0  0  0  0  0  0  0  0  0  0  0  0
    1.6461   -5.5638    0.0000 O   0  0  0  0  0  0  0  0  0  0  0  0
    0.0000   -5.5308    0.0000 O   0  0  0  0  0  0  0  0  0  0  0  0
    0.8230   -6.3868    0.0000 O   0  0  0  0  0  0  0  0  0  0  0  0
    8.0657   -2.0740    0.0000 N   0  0  0  0  0  0  0  0  0  0  0  0
    7.3744   -0.9547    0.0000 N   0  0  0  0  0  0  0  0  0  0  0  0
    6.5843   -2.1728    0.0000 N   0  0  0  0  0  0  0  0  0  0  0  0
    3.7201   -4.7078    0.0000 N   0  0  3  0  0  0  0  0  0  0  0  0
    6.5843   -3.0288    0.0000 N   0  0  0  0  0  0  0  0  0  0  0  0
    8.6255   -1.4815    0.0000 C   0  0  0  0  0  0  0  0  0  0  0  0
    8.1975   -0.7243    0.0000 C   0  0  0  0  0  0  0  0  0  0  0  0
    7.3086   -1.7448    0.0000 C   0  0  0  0  0  0  0  0  0  0  0  0
    9.4485   -1.4485    0.0000 C   0  0  0  0  0  0  0  0  0  0  0  0
    8.6255   -0.0329    0.0000 C   0  0  0  0  0  0  0  0  0  0  0  0
    4.4444   -4.2798    0.0000 C   0  0  0  0  0  0  0  0  0  0  0  0
    5.8600   -3.4568    0.0000 C   0  0  0  0  0  0  0  0  0  0  0  0
    4.4115   -3.4568    0.0000 C   0  0  0  0  0  0  0  0  0  0  0  0
    5.1687   -4.6748    0.0000 C   0  0  0  0  0  0  0  0  0  0  0  0
    5.1357   -3.0288    0.0000 C   0  0  0  0  0  0  0  0  0  0  0  0
    5.8600   -4.2798    0.0000 C   0  0  0  0  0  0  0  0  0  0  0  0
    9.8764   -0.7572    0.0000 C   0  0  0  0  0  0  0  0  0  0  0  0
    9.4156    0.0000    0.0000 C   0  0  0  0  0  0  0  0  0  0  0  0
    2.9959   -4.3127    0.0000 C   0  0  0  0  0  0  0  0  0  0  0  0
    3.7201   -5.5308    0.0000 C   0  0  0  0  0  0  0  0  0  0  0  0
    2.2716   -4.7078    0.0000 C   0  0  0  0  0  0  0  0  0  0  0  0
    1.5473   -4.3127    0.0000 C   0  0  0  0  0  0  0  0  0  0  0  0
    4.4444   -5.9588    0.0000 C   0  0  0  0  0  0  0  0  0  0  0  0
  1  2  1  0  0  0  0
  1  3  2  0  0  0  0
  1  4  2  0  0  0  0
  1  5  1  0  0  0  0
  2 27  1  0  0  0  0
  6 11  1  0  0  0  0
  6 13  2  0  0  0  0
  7 12  1  0  0  0  0
  7 13  1  0  0  0  0
  8 10  2  0  0  0  0
  8 13  1  0  0  0  0
  9 16  1  0  0  0  0
  9 24  1  0  0  0  0
  9 25  1  0  0  0  0
 10 17  1  0  0  0  0
 11 12  2  0  0  0  0
 11 14  1  0  0  0  0
 12 15  1  0  0  0  0
 14 22  2  0  0  0  0
 15 23  2  0  0  0  0
 16 18  2  0  0  0  0
 16 19  1  0  0  0  0
 17 20  2  0  0  0  0
 17 21  1  0  0  0  0
 18 20  1  0  0  0  0
 19 21  2  0  0  0  0
 22 23  1  0  0  0  0
 24 26  1  0  0  0  0
 25 28  1  0  0  0  0
 26 27  1  0  0  0  0
M  END
> <PUBCHEM_COMPOUND_ID_TYPE>
0

> <PUBCHEM_TOTAL_CHARGE>
0

> <PUBCHEM_SUBSTANCE_ID>
310930178

> <PUBCHEM_SUBSTANCE_VERSION>
1

> <PUBCHEM_EXT_DATASOURCE_NAME>
4488

> <PUBCHEM_EXT_DATASOURCE_REGID>
SCHEMBL16107438

> <PUBCHEM_SUBSTANCE_COMMENT>
InChI=1S/C18H21N5O4S/c1-2-23(12-5-13-27-28(24,25)26)15-10-8-14(9-11-15)21-22-18-19-16-6-3-4-7-17(16)20-18/h3-4,6-11H,2,5,12-13H2,1H3,(H,19,20)(H,24,25,26)/b22-21+
InChIKey=FBXYPUAHDQZETI-QURGRASLSA-N

> <PUBCHEM_SUBSTANCE_SYNONYM>
SCHEMBL16107438

> <PUBCHEM_XREF_EXT_ID>
SCHEMBL16107438

> <PUBCHEM_EXT_DATASOURCE_URL>
https://www.surechembl.org/

> <PUBCHEM_EXT_SUBSTANCE_URL>
https://www.surechembl.org/chemical/SCHEMBL16107438

> <PUBCHEM_CID_ASSOCIATIONS>
117599394  1

> <PUBCHEM_COORDINATE_TYPE>
1
3

$$$$
