310937176
  -OEChem-07211613022D

 38 41  0     1  0  0  0  0  0999 V2000
    0.7145   -1.2375    0.0000 S   0  0  0  0  0  0  0  0  0  0  0  0
    5.0013   -8.6625    0.0000 F   0  0  0  0  0  0  0  0  0  0  0  0
    3.8743   -8.9645    0.0000 F   0  0  0  0  0  0  0  0  0  0  0  0
    4.6993   -7.5355    0.0000 F   0  0  0  0  0  0  0  0  0  0  0  0
    0.7145   -2.0625    0.0000 O   0  0  0  0  0  0  0  0  0  0  0  0
   -0.6656   -2.8875    0.0000 O   0  0  0  0  0  0  0  0  0  0  0  0
    3.5724   -7.0125    0.0000 O   0  0  0  0  0  0  0  0  0  0  0  0
    2.8579   -4.1250    0.0000 O   0  0  0  0  0  0  0  0  0  0  0  0
    1.5395   -1.2375    0.0000 O   0  0  0  0  0  0  0  0  0  0  0  0
   -0.1105   -1.2375    0.0000 O   0  0  0  0  0  0  0  0  0  0  0  0
    1.4289   -4.1250    0.0000 N   0  0  0  0  0  0  0  0  0  0  0  0
    0.1190   -3.9674    0.0000 N   0  0  0  0  0  0  0  0  0  0  0  0
    0.1190   -2.6326    0.0000 N   0  0  0  0  0  0  0  0  0  0  0  0
    1.4289   -5.7750    0.0000 N   0  0  0  0  0  0  0  0  0  0  0  0
    1.4289   -3.3000    0.0000 C   0  0  3  0  0  0  0  0  0  0  0  0
    0.6039   -3.3000    0.0000 C   0  0  0  0  0  0  0  0  0  0  0  0
    2.1434   -7.0125    0.0000 C   0  0  0  0  0  0  0  0  0  0  0  0
    2.1434   -5.3625    0.0000 C   0  0  0  0  0  0  0  0  0  0  0  0
    2.1434   -4.5375    0.0000 C   0  0  0  0  0  0  0  0  0  0  0  0
    1.4289   -2.4750    0.0000 C   0  0  0  0  0  0  0  0  0  0  0  0
    2.8579   -6.6000    0.0000 C   0  0  0  0  0  0  0  0  0  0  0  0
    2.1434   -7.8375    0.0000 C   0  0  0  0  0  0  0  0  0  0  0  0
    2.8579   -5.7750    0.0000 C   0  0  0  0  0  0  0  0  0  0  0  0
    1.4289   -6.6000    0.0000 C   0  0  0  0  0  0  0  0  0  0  0  0
    0.7145   -0.4125    0.0000 C   0  0  0  0  0  0  0  0  0  0  0  0
   -0.6656   -3.7125    0.0000 C   0  0  0  0  0  0  0  0  0  0  0  0
    2.2539   -3.3000    0.0000 C   0  0  0  0  0  0  0  0  0  0  0  0
    2.5559   -8.5520    0.0000 C   0  0  0  0  0  0  0  0  0  0  0  0
    1.7309   -8.5520    0.0000 C   0  0  0  0  0  0  0  0  0  0  0  0
    0.0000    0.0000    0.0000 C   0  0  0  0  0  0  0  0  0  0  0  0
    1.4289    0.0000    0.0000 C   0  0  0  0  0  0  0  0  0  0  0  0
    3.5724   -7.8375    0.0000 C   0  0  0  0  0  0  0  0  0  0  0  0
    0.0000    0.8250    0.0000 C   0  0  0  0  0  0  0  0  0  0  0  0
    1.4289    0.8250    0.0000 C   0  0  0  0  0  0  0  0  0  0  0  0
    0.7145    1.2375    0.0000 C   0  0  0  0  0  0  0  0  0  0  0  0
   -1.3330   -4.1974    0.0000 C   0  0  0  0  0  0  0  0  0  0  0  0
    4.2868   -8.2500    0.0000 C   0  0  0  0  0  0  0  0  0  0  0  0
    0.7145    2.0625    0.0000 C   0  0  0  0  0  0  0  0  0  0  0  0
  1  5  1  0  0  0  0
  1  9  2  0  0  0  0
  1 10  2  0  0  0  0
  1 25  1  0  0  0  0
  2 37  1  0  0  0  0
  3 37  1  0  0  0  0
  4 37  1  0  0  0  0
  5 20  1  0  0  0  0
  6 13  1  0  0  0  0
  6 26  1  0  0  0  0
  7 21  1  0  0  0  0
  7 32  1  0  0  0  0
  8 19  2  0  0  0  0
 11 15  1  0  0  0  0
 11 19  1  0  0  0  0
 12 16  1  0  0  0  0
 12 26  2  0  0  0  0
 13 16  2  0  0  0  0
 14 18  2  0  0  0  0
 14 24  1  0  0  0  0
 15 16  1  0  0  0  0
 15 20  1  0  0  0  0
 15 27  1  0  0  0  0
 17 21  1  0  0  0  0
 17 22  1  0  0  0  0
 17 24  2  0  0  0  0
 18 19  1  0  0  0  0
 18 23  1  0  0  0  0
 21 23  2  0  0  0  0
 22 28  1  0  0  0  0
 22 29  1  0  0  0  0
 25 30  2  0  0  0  0
 25 31  1  0  0  0  0
 26 36  1  0  0  0  0
 28 29  1  0  0  0  0
 30 33  1  0  0  0  0
 31 34  2  0  0  0  0
 32 37  1  0  0  0  0
 33 35  2  0  0  0  0
 34 35  1  0  0  0  0
 35 38  1  0  0  0  0
M  END
> <PUBCHEM_COMPOUND_ID_TYPE>
0

> <PUBCHEM_TOTAL_CHARGE>
0

> <PUBCHEM_SUBSTANCE_ID>
310937176

> <PUBCHEM_SUBSTANCE_VERSION>
1

> <PUBCHEM_EXT_DATASOURCE_NAME>
4488

> <PUBCHEM_EXT_DATASOURCE_REGID>
SCHEMBL16114901

> <PUBCHEM_SUBSTANCE_COMMENT>
InChI=1S/C24H25F3N4O6S/c1-14-4-8-17(9-5-14)38(33,34)36-12-23(3,22-29-15(2)37-31-22)30-21(32)19-10-20(35-13-24(25,26)27)18(11-28-19)16-6-7-16/h4-5,8-11,16H,6-7,12-13H2,1-3H3,(H,30,32)
InChIKey=UCPCHEVRVMPMHR-UHFFFAOYSA-N

> <PUBCHEM_SUBSTANCE_SYNONYM>
SCHEMBL16114901

> <PUBCHEM_XREF_EXT_ID>
SCHEMBL16114901

> <PUBCHEM_EXT_DATASOURCE_URL>
https://www.surechembl.org/

> <PUBCHEM_EXT_SUBSTANCE_URL>
https://www.surechembl.org/chemical/SCHEMBL16114901

> <PUBCHEM_CID_ASSOCIATIONS>
117604995  1

> <PUBCHEM_COORDINATE_TYPE>
1
3

$$$$
