310940739
  -OEChem-07211613022D

 41 45  0     1  0  0  0  0  0999 V2000
    6.0973    1.7231    0.0000 F   0  0  0  0  0  0  0  0  0  0  0  0
    5.7586    0.9721    0.0000 F   0  0  0  0  0  0  0  0  0  0  0  0
   -2.4891    0.4566    0.0000 O   0  0  0  0  0  0  0  0  0  0  0  0
    2.1798   -2.5331    0.0000 O   0  0  0  0  0  0  0  0  0  0  0  0
    3.4169   -1.8115    0.0000 O   0  0  0  0  0  0  0  0  0  0  0  0
    0.4419    0.3093    0.0000 N   0  0  0  0  0  0  0  0  0  0  0  0
    0.4419   -1.0309    0.0000 N   0  0  0  0  0  0  0  0  0  0  0  0
    3.9323    1.7821    0.0000 N   0  0  3  0  0  0  0  0  0  0  0  0
   -4.6540    0.0442    0.0000 N   0  0  0  0  0  0  0  0  0  0  0  0
   -0.3387    0.0590    0.0000 C   0  0  0  0  0  0  0  0  0  0  0  0
    0.9278   -0.3535    0.0000 C   0  0  0  0  0  0  0  0  0  0  0  0
   -0.3535   -0.7659    0.0000 C   0  0  0  0  0  0  0  0  0  0  0  0
    2.1650   -1.0752    0.0000 C   0  0  0  0  0  0  0  0  0  0  0  0
    1.7673   -0.3683    0.0000 C   0  0  0  0  0  0  0  0  0  0  0  0
   -1.0752    0.4419    0.0000 C   0  0  0  0  0  0  0  0  0  0  0  0
    0.7069    1.0899    0.0000 C   0  0  0  0  0  0  0  0  0  0  0  0
   -1.0604   -1.1930    0.0000 C   0  0  0  0  0  0  0  0  0  0  0  0
   -1.7673    0.0442    0.0000 C   0  0  0  0  0  0  0  0  0  0  0  0
    1.5022    1.2667    0.0000 C   0  0  0  0  0  0  0  0  0  0  0  0
   -1.7673   -0.7806    0.0000 C   0  0  0  0  0  0  0  0  0  0  0  0
    2.5921   -1.7673    0.0000 C   0  0  0  0  0  0  0  0  0  0  0  0
    3.1223    1.6200    0.0000 C   0  0  0  0  0  0  0  0  0  0  0  0
    1.4581   -1.5022    0.0000 C   0  0  0  0  0  0  0  0  0  0  0  0
    2.8719   -0.6775    0.0000 C   0  0  0  0  0  0  0  0  0  0  0  0
    2.0619    0.6628    0.0000 C   0  0  0  0  0  0  0  0  0  0  0  0
    1.7821    2.0472    0.0000 C   0  0  0  0  0  0  0  0  0  0  0  0
    5.2726    1.6347    0.0000 C   0  0  0  0  0  0  0  0  0  0  0  0
    2.8719    0.8247    0.0000 C   0  0  0  0  0  0  0  0  0  0  0  0
    2.5773    2.2092    0.0000 C   0  0  0  0  0  0  0  0  0  0  0  0
    4.5803    1.2371    0.0000 C   0  0  0  0  0  0  0  0  0  0  0  0
    4.2858    2.5331    0.0000 C   0  0  0  0  0  0  0  0  0  0  0  0
    5.0958    2.4449    0.0000 C   0  0  0  0  0  0  0  0  0  0  0  0
   -3.1960    0.0590    0.0000 C   0  0  0  0  0  0  0  0  0  0  0  0
    3.6377   -1.0899    0.0000 C   0  0  0  0  0  0  0  0  0  0  0  0
    1.4729   -2.3417    0.0000 C   0  0  0  0  0  0  0  0  0  0  0  0
   -3.9471    0.4566    0.0000 C   0  0  0  0  0  0  0  0  0  0  0  0
   -3.9323    1.2814    0.0000 C   0  0  0  0  0  0  0  0  0  0  0  0
   -5.3610    0.4714    0.0000 C   0  0  0  0  0  0  0  0  0  0  0  0
   -4.6540    1.7084    0.0000 C   0  0  0  0  0  0  0  0  0  0  0  0
   -5.3610    1.2961    0.0000 C   0  0  0  0  0  0  0  0  0  0  0  0
   -6.0973    1.6937    0.0000 C   0  0  0  0  0  0  0  0  0  0  0  0
  1 27  1  0  0  0  0
  2 27  1  0  0  0  0
  3 18  1  0  0  0  0
  3 33  1  0  0  0  0
  4 21  2  0  0  0  0
  5 21  1  0  0  0  0
  6 10  1  0  0  0  0
  6 11  1  0  0  0  0
  6 16  1  0  0  0  0
  7 11  2  0  0  0  0
  7 12  1  0  0  0  0
  8 22  1  0  0  0  0
  8 30  1  0  0  0  0
  8 31  1  0  0  0  0
  9 36  1  0  0  0  0
  9 38  2  0  0  0  0
 10 12  1  0  0  0  0
 10 15  2  0  0  0  0
 11 14  1  0  0  0  0
 12 17  2  0  0  0  0
 13 14  1  0  0  0  0
 13 21  1  0  0  0  0
 13 23  1  0  0  0  0
 13 24  1  0  0  0  0
 15 18  1  0  0  0  0
 16 19  1  0  0  0  0
 17 20  1  0  0  0  0
 18 20  2  0  0  0  0
 19 25  2  0  0  0  0
 19 26  1  0  0  0  0
 22 28  2  0  0  0  0
 22 29  1  0  0  0  0
 23 35  1  0  0  0  0
 24 34  1  0  0  0  0
 25 28  1  0  0  0  0
 26 29  2  0  0  0  0
 27 30  1  0  0  0  0
 27 32  1  0  0  0  0
 31 32  1  0  0  0  0
 33 36  1  0  0  0  0
 36 37  2  0  0  0  0
 37 39  1  0  0  0  0
 38 40  1  0  0  0  0
 39 40  2  0  0  0  0
 40 41  1  0  0  0  0
M  END
> <PUBCHEM_COMPOUND_ID_TYPE>
0

> <PUBCHEM_TOTAL_CHARGE>
0

> <PUBCHEM_SUBSTANCE_ID>
310940739

> <PUBCHEM_SUBSTANCE_VERSION>
1

> <PUBCHEM_EXT_DATASOURCE_NAME>
4488

> <PUBCHEM_EXT_DATASOURCE_REGID>
SCHEMBL16118697

> <PUBCHEM_SUBSTANCE_COMMENT>
InChI=1S/C32H36F2N4O3/c1-4-31(5-2,30(39)40)17-29-36-27-13-12-26(41-20-24-9-6-22(3)18-35-24)16-28(27)38(29)19-23-7-10-25(11-8-23)37-15-14-32(33,34)21-37/h6-13,16,18H,4-5,14-15,17,19-21H2,1-3H3,(H,39,40)
InChIKey=GFQQDIXCVHFKRE-UHFFFAOYSA-N

> <PUBCHEM_SUBSTANCE_SYNONYM>
SCHEMBL16118697

> <PUBCHEM_XREF_EXT_ID>
SCHEMBL16118697

> <PUBCHEM_EXT_DATASOURCE_URL>
https://www.surechembl.org/

> <PUBCHEM_EXT_SUBSTANCE_URL>
https://www.surechembl.org/chemical/SCHEMBL16118697

> <PUBCHEM_CID_ASSOCIATIONS>
117607696  1

> <PUBCHEM_COORDINATE_TYPE>
1
3

$$$$
