310946644
  -OEChem-07211613022D

 27 26  0     1  0  0  0  0  0999 V2000
   -8.5044   -2.6747    0.0000 O   0  0  0  0  0  0  0  0  0  0  0  0
   -7.7899   -3.9122    0.0000 O   0  0  0  0  0  0  0  0  0  0  0  0
   -7.7899   -1.4373    0.0000 O   0  0  0  0  0  0  0  0  0  0  0  0
   -6.3610   -3.9122    0.0000 O   0  0  0  0  0  0  0  0  0  0  0  0
   -9.2187   -1.4373    0.0000 O   0  0  0  0  0  0  0  0  0  0  0  0
   -7.0753   -5.1496    0.0000 O   0  0  0  0  0  0  0  0  0  0  0  0
   -5.6465   -1.8498    0.0000 O   0  0  0  0  0  0  0  0  0  0  0  0
   -3.5032   -1.4373    0.0000 O   0  0  0  0  0  0  0  0  0  0  0  0
   -4.2175   -4.3247    0.0000 O   0  0  0  0  0  0  0  0  0  0  0  0
   -2.7887   -0.1998    0.0000 O   0  5  0  0  0  0  0  0  0  0  0  0
   -4.2175   -0.1998    0.0000 O   0  0  0  0  0  0  0  0  0  0  0  0
   -9.9332   -4.3247    0.0000 N   0  0  0  0  0  0  0  0  0  0  0  0
   -3.5032   -0.6123    0.0000 N   0  3  0  0  0  0  0  0  0  0  0  0
   -9.2187   -3.9122    0.0000 C   0  0  3  0  0  0  0  0  0  0  0  0
   -8.5044   -1.8498    0.0000 C   0  0  0  0  0  0  0  0  0  0  0  0
   -9.2187   -3.0872    0.0000 C   0  0  0  0  0  0  0  0  0  0  0  0
   -8.5044   -4.3247    0.0000 C   0  0  0  0  0  0  0  0  0  0  0  0
   -7.0753   -4.3247    0.0000 C   0  0  0  0  0  0  0  0  0  0  0  0
   -7.0753   -1.8498    0.0000 C   0  0  0  0  0  0  0  0  0  0  0  0
   -5.6465   -4.3247    0.0000 C   0  0  0  0  0  0  0  0  0  0  0  0
   -6.3610   -1.4373    0.0000 C   0  0  0  0  0  0  0  0  0  0  0  0
   -4.9320   -3.9122    0.0000 C   0  0  0  0  0  0  0  0  0  0  0  0
   -4.9320   -1.4373    0.0000 C   0  0  0  0  0  0  0  0  0  0  0  0
   -4.2175   -1.8498    0.0000 C   0  0  0  0  0  0  0  0  0  0  0  0
   -3.5032   -3.9122    0.0000 C   0  0  0  0  0  0  0  0  0  0  0  0
   -2.7887   -4.3247    0.0000 C   0  0  0  0  0  0  0  0  0  0  0  0
   -2.0742   -3.9122    0.0000 C   0  0  0  0  0  0  0  0  0  0  0  0
  1 15  1  0  0  0  0
  1 16  1  0  0  0  0
  2 17  1  0  0  0  0
  2 18  1  0  0  0  0
  3 15  1  0  0  0  0
  3 19  1  0  0  0  0
  4 18  1  0  0  0  0
  4 20  1  0  0  0  0
  5 15  2  0  0  0  0
  6 18  2  0  0  0  0
  7 21  1  0  0  0  0
  7 23  1  0  0  0  0
  8 13  1  0  0  0  0
  8 24  1  0  0  0  0
  9 22  1  0  0  0  0
  9 25  1  0  0  0  0
 10 13  1  0  0  0  0
 11 13  2  0  0  0  0
 12 14  1  0  0  0  0
 14 16  1  0  0  0  0
 14 17  1  0  0  0  0
 19 21  1  0  0  0  0
 20 22  1  0  0  0  0
 23 24  1  0  0  0  0
 25 26  1  0  0  0  0
 26 27  1  0  0  0  0
M  CHG  2  10  -1  13   1
M  END
> <PUBCHEM_COMPOUND_ID_TYPE>
0

> <PUBCHEM_TOTAL_CHARGE>
0

> <PUBCHEM_SUBSTANCE_ID>
310946644

> <PUBCHEM_SUBSTANCE_VERSION>
1

> <PUBCHEM_EXT_DATASOURCE_NAME>
4488

> <PUBCHEM_EXT_DATASOURCE_REGID>
SCHEMBL16124765

> <PUBCHEM_SUBSTANCE_COMMENT>
InChI=1S/C14H26N2O11/c1-2-3-21-4-7-23-13(17)25-10-12(15)11-26-14(18)24-8-5-22-6-9-27-16(19)20/h12H,2-11,15H2,1H3
InChIKey=SPGKSHWTABVMRB-UHFFFAOYSA-N

> <PUBCHEM_SUBSTANCE_SYNONYM>
SCHEMBL16124765

> <PUBCHEM_XREF_EXT_ID>
SCHEMBL16124765

> <PUBCHEM_EXT_DATASOURCE_URL>
https://www.surechembl.org/

> <PUBCHEM_EXT_SUBSTANCE_URL>
https://www.surechembl.org/chemical/SCHEMBL16124765

> <PUBCHEM_CID_ASSOCIATIONS>
117612544  1

> <PUBCHEM_COORDINATE_TYPE>
1
3

$$$$
