310947675
  -OEChem-07211613022D

 25 26  0     1  0  0  0  0  0999 V2000
    0.7669   -3.1971    0.0000 F   0  0  0  0  0  0  0  0  0  0  0  0
   -0.2435   -2.1867    0.0000 F   0  0  0  0  0  0  0  0  0  0  0  0
    0.5534   -2.4002    0.0000 F   0  0  0  0  0  0  0  0  0  0  0  0
   -3.3738   -4.3066    0.0000 F   0  0  0  0  0  0  0  0  0  0  0  0
   -3.0040   -2.9264    0.0000 F   0  0  0  0  0  0  0  0  0  0  0  0
   -3.5873   -3.5097    0.0000 F   0  0  0  0  0  0  0  0  0  0  0  0
   -1.2546   -6.4115    0.0000 N   0  0  0  0  0  0  0  0  0  0  0  0
   -0.7696   -7.0790    0.0000 N   0  0  0  0  0  0  0  0  0  0  0  0
    1.4439   -5.9990    0.0000 N   0  0  3  0  0  0  0  0  0  0  0  0
   -0.9832   -4.9472    0.0000 C   0  0  0  0  0  0  0  0  0  0  0  0
   -0.6133   -3.5669    0.0000 C   0  0  0  0  0  0  0  0  0  0  0  0
   -1.9936   -3.9368    0.0000 C   0  0  0  0  0  0  0  0  0  0  0  0
   -0.7696   -5.7441    0.0000 C   0  0  0  0  0  0  0  0  0  0  0  0
   -1.7800   -4.7337    0.0000 C   0  0  0  0  0  0  0  0  0  0  0  0
   -0.3998   -4.3638    0.0000 C   0  0  0  0  0  0  0  0  0  0  0  0
   -1.4102   -3.3534    0.0000 C   0  0  0  0  0  0  0  0  0  0  0  0
   -0.0300   -2.9836    0.0000 C   0  0  0  0  0  0  0  0  0  0  0  0
   -2.7905   -3.7233    0.0000 C   0  0  0  0  0  0  0  0  0  0  0  0
    0.0150   -5.9990    0.0000 C   0  0  0  0  0  0  0  0  0  0  0  0
    0.0150   -6.8240    0.0000 C   0  0  0  0  0  0  0  0  0  0  0  0
    0.7295   -5.5865    0.0000 C   0  0  0  0  0  0  0  0  0  0  0  0
    2.1584   -5.5865    0.0000 C   0  0  0  0  0  0  0  0  0  0  0  0
    1.4439   -6.8240    0.0000 C   0  0  0  0  0  0  0  0  0  0  0  0
    2.8729   -5.9990    0.0000 C   0  0  0  0  0  0  0  0  0  0  0  0
    3.5873   -5.5865    0.0000 C   0  0  0  0  0  0  0  0  0  0  0  0
  1 17  1  0  0  0  0
  2 17  1  0  0  0  0
  3 17  1  0  0  0  0
  4 18  1  0  0  0  0
  5 18  1  0  0  0  0
  6 18  1  0  0  0  0
  7  8  1  0  0  0  0
  7 13  2  0  0  0  0
  8 20  1  0  0  0  0
  9 21  1  0  0  0  0
  9 22  1  0  0  0  0
  9 23  1  0  0  0  0
 10 13  1  0  0  0  0
 10 14  2  0  0  0  0
 10 15  1  0  0  0  0
 11 15  2  0  0  0  0
 11 16  1  0  0  0  0
 11 17  1  0  0  0  0
 12 14  1  0  0  0  0
 12 16  2  0  0  0  0
 12 18  1  0  0  0  0
 13 19  1  0  0  0  0
 19 20  2  0  0  0  0
 19 21  1  0  0  0  0
 22 24  1  0  0  0  0
 24 25  1  0  0  0  0
M  END
> <PUBCHEM_COMPOUND_ID_TYPE>
0

> <PUBCHEM_TOTAL_CHARGE>
0

> <PUBCHEM_SUBSTANCE_ID>
310947675

> <PUBCHEM_SUBSTANCE_VERSION>
1

> <PUBCHEM_EXT_DATASOURCE_NAME>
4488

> <PUBCHEM_EXT_DATASOURCE_REGID>
SCHEMBL16125843

> <PUBCHEM_SUBSTANCE_COMMENT>
InChI=1S/C16H17F6N3/c1-3-4-25(2)9-11-8-23-24-14(11)10-5-12(15(17,18)19)7-13(6-10)16(20,21)22/h5-8H,3-4,9H2,1-2H3,(H,23,24)
InChIKey=ARMGAXOTSNTHKO-UHFFFAOYSA-N

> <PUBCHEM_SUBSTANCE_SYNONYM>
SCHEMBL16125843

> <PUBCHEM_XREF_EXT_ID>
SCHEMBL16125843

> <PUBCHEM_EXT_DATASOURCE_URL>
https://www.surechembl.org/

> <PUBCHEM_EXT_SUBSTANCE_URL>
https://www.surechembl.org/chemical/SCHEMBL16125843

> <PUBCHEM_CID_ASSOCIATIONS>
117613390  1

> <PUBCHEM_COORDINATE_TYPE>
1
3

$$$$
