310938851
  -OEChem-07211613022D

 50 58  0     1  0  0  0  0  0999 V2000
    2.3948   -3.0949    0.0000 N   0  0  0  0  0  0  0  0  0  0  0  0
   -1.7980    0.1960    0.0000 N   0  0  0  0  0  0  0  0  0  0  0  0
    1.0599   -1.4540    0.0000 C   0  0  3  0  0  0  0  0  0  0  0  0
    1.8136   -1.7895    0.0000 C   0  0  0  0  0  0  0  0  0  0  0  0
    0.5079   -2.0671    0.0000 C   0  0  0  0  0  0  0  0  0  0  0  0
    1.7274   -2.6100    0.0000 C   0  0  0  0  0  0  0  0  0  0  0  0
    0.9204   -2.7815    0.0000 C   0  0  0  0  0  0  0  0  0  0  0  0
    2.5673   -1.4540    0.0000 C   0  0  0  0  0  0  0  0  0  0  0  0
    0.3455   -1.0415    0.0000 C   0  0  0  0  0  0  0  0  0  0  0  0
    1.2735   -0.6571    0.0000 C   0  0  0  0  0  0  0  0  0  0  0  0
    3.2347   -1.9389    0.0000 C   0  0  0  0  0  0  0  0  0  0  0  0
    3.1485   -2.7594    0.0000 C   0  0  0  0  0  0  0  0  0  0  0  0
   -0.3171   -2.0671    0.0000 C   0  0  0  0  0  0  0  0  0  0  0  0
    2.9798   -0.7395    0.0000 C   0  0  0  0  0  0  0  0  0  0  0  0
    0.5079   -3.4960    0.0000 C   0  0  0  0  0  0  0  0  0  0  0  0
   -0.3690   -1.4540    0.0000 C   0  0  0  0  0  0  0  0  0  0  0  0
    0.3455   -0.2165    0.0000 C   0  0  0  0  0  0  0  0  0  0  0  0
    0.6901   -0.0737    0.0000 C   0  0  0  0  0  0  0  0  0  0  0  0
    2.0703   -0.4436    0.0000 C   0  0  0  0  0  0  0  0  0  0  0  0
    3.9884   -1.6033    0.0000 C   0  0  0  0  0  0  0  0  0  0  0  0
   -0.7296   -2.7815    0.0000 C   0  0  0  0  0  0  0  0  0  0  0  0
   -0.3171   -3.4960    0.0000 C   0  0  0  0  0  0  0  0  0  0  0  0
    3.8159   -3.2443    0.0000 C   0  0  0  0  0  0  0  0  0  0  0  0
   -1.0835   -1.0415    0.0000 C   0  0  0  0  0  0  0  0  0  0  0  0
   -0.3690    0.1960    0.0000 C   0  0  0  0  0  0  0  0  0  0  0  0
   -1.0835   -0.2165    0.0000 C   0  0  0  0  0  0  0  0  0  0  0  0
    3.8048   -0.7395    0.0000 C   0  0  0  0  0  0  0  0  0  0  0  0
    2.5673   -0.0250    0.0000 C   0  0  0  0  0  0  0  0  0  0  0  0
    0.9036    0.7232    0.0000 C   0  0  0  0  0  0  0  0  0  0  0  0
    2.2839    0.3533    0.0000 C   0  0  0  0  0  0  0  0  0  0  0  0
    4.6558   -2.0883    0.0000 C   0  0  0  0  0  0  0  0  0  0  0  0
    4.5696   -2.9088    0.0000 C   0  0  0  0  0  0  0  0  0  0  0  0
    1.7005    0.9367    0.0000 C   0  0  0  0  0  0  0  0  0  0  0  0
    4.2173   -0.0250    0.0000 C   0  0  0  0  0  0  0  0  0  0  0  0
    2.9798    0.6894    0.0000 C   0  0  0  0  0  0  0  0  0  0  0  0
   -2.5124   -0.2165    0.0000 C   0  0  0  0  0  0  0  0  0  0  0  0
   -1.7980    1.0210    0.0000 C   0  0  0  0  0  0  0  0  0  0  0  0
    3.8048    0.6894    0.0000 C   0  0  0  0  0  0  0  0  0  0  0  0
   -2.5124   -1.0415    0.0000 C   0  0  0  0  0  0  0  0  0  0  0  0
   -2.5124    1.4335    0.0000 C   0  0  0  0  0  0  0  0  0  0  0  0
   -3.2269    0.1960    0.0000 C   0  0  0  0  0  0  0  0  0  0  0  0
   -1.0835    1.4335    0.0000 C   0  0  0  0  0  0  0  0  0  0  0  0
   -3.2269   -1.4540    0.0000 C   0  0  0  0  0  0  0  0  0  0  0  0
   -2.5124    2.2585    0.0000 C   0  0  0  0  0  0  0  0  0  0  0  0
   -3.9414   -0.2165    0.0000 C   0  0  0  0  0  0  0  0  0  0  0  0
   -1.0835    2.2585    0.0000 C   0  0  0  0  0  0  0  0  0  0  0  0
   -3.9414   -1.0415    0.0000 C   0  0  0  0  0  0  0  0  0  0  0  0
   -1.7980    2.6710    0.0000 C   0  0  0  0  0  0  0  0  0  0  0  0
   -4.6558   -1.4540    0.0000 C   0  0  0  0  0  0  0  0  0  0  0  0
   -1.7980    3.4960    0.0000 C   0  0  0  0  0  0  0  0  0  0  0  0
  1  6  1  0  0  0  0
  1 12  2  0  0  0  0
  2 26  1  0  0  0  0
  2 36  1  0  0  0  0
  2 37  1  0  0  0  0
  3  4  1  0  0  0  0
  3  5  1  0  0  0  0
  3  9  1  0  0  0  0
  3 10  1  0  0  0  0
  4  6  2  0  0  0  0
  4  8  1  0  0  0  0
  5  7  2  0  0  0  0
  5 13  1  0  0  0  0
  6  7  1  0  0  0  0
  7 15  1  0  0  0  0
  8 11  2  0  0  0  0
  8 14  1  0  0  0  0
  9 16  2  0  0  0  0
  9 17  1  0  0  0  0
 10 18  2  0  0  0  0
 10 19  1  0  0  0  0
 11 12  1  0  0  0  0
 11 20  1  0  0  0  0
 12 23  1  0  0  0  0
 13 21  2  0  0  0  0
 14 27  2  0  0  0  0
 14 28  1  0  0  0  0
 15 22  2  0  0  0  0
 16 24  1  0  0  0  0
 17 25  2  0  0  0  0
 18 29  1  0  0  0  0
 19 30  2  0  0  0  0
 20 31  2  0  0  0  0
 21 22  1  0  0  0  0
 23 32  2  0  0  0  0
 24 26  2  0  0  0  0
 25 26  1  0  0  0  0
 27 34  1  0  0  0  0
 28 35  2  0  0  0  0
 29 33  2  0  0  0  0
 30 33  1  0  0  0  0
 31 32  1  0  0  0  0
 34 38  2  0  0  0  0
 35 38  1  0  0  0  0
 36 39  2  0  0  0  0
 36 41  1  0  0  0  0
 37 40  2  0  0  0  0
 37 42  1  0  0  0  0
 39 43  1  0  0  0  0
 40 44  1  0  0  0  0
 41 45  2  0  0  0  0
 42 46  2  0  0  0  0
 43 47  2  0  0  0  0
 44 48  2  0  0  0  0
 45 47  1  0  0  0  0
 46 48  1  0  0  0  0
 47 49  1  0  0  0  0
 48 50  1  0  0  0  0
M  END
> <PUBCHEM_COMPOUND_ID_TYPE>
0

> <PUBCHEM_TOTAL_CHARGE>
0

> <PUBCHEM_SUBSTANCE_ID>
310938851

> <PUBCHEM_SUBSTANCE_VERSION>
1

> <PUBCHEM_EXT_DATASOURCE_NAME>
4488

> <PUBCHEM_EXT_DATASOURCE_REGID>
SCHEMBL16116770

> <PUBCHEM_SUBSTANCE_COMMENT>
InChI=1S/C48H36N2/c1-33-21-27-38(28-22-33)50(39-29-23-34(2)24-30-39)40-31-25-37(26-32-40)48(36-15-7-4-8-16-36)43-19-11-9-17-41(43)47-46(48)45(35-13-5-3-6-14-35)42-18-10-12-20-44(42)49-47/h3-32H,1-2H3
InChIKey=LWUSLZZXBMUGCC-UHFFFAOYSA-N

> <PUBCHEM_SUBSTANCE_SYNONYM>
SCHEMBL16116770

> <PUBCHEM_XREF_EXT_ID>
SCHEMBL16116770

> <PUBCHEM_EXT_DATASOURCE_URL>
https://www.surechembl.org/

> <PUBCHEM_EXT_SUBSTANCE_URL>
https://www.surechembl.org/chemical/SCHEMBL16116770

> <PUBCHEM_CID_ASSOCIATIONS>
117606250  1

> <PUBCHEM_COORDINATE_TYPE>
1
3

$$$$
