310939497
  -OEChem-07211613022D

 30 34  0     1  0  0  0  0  0999 V2000
    3.5422   -0.0115    0.0000 O   0  0  0  0  0  0  0  0  0  0  0  0
    1.8014   -2.1533    0.0000 O   0  0  0  0  0  0  0  0  0  0  0  0
   -2.0119   -0.0246    0.0000 O   0  0  0  0  0  0  0  0  0  0  0  0
   -4.1553    2.0379    0.0000 O   0  0  0  0  0  0  0  0  0  0  0  0
    1.5605    1.2129    0.0000 N   0  0  0  0  0  0  0  0  0  0  0  0
    0.8460    0.8004    0.0000 N   0  0  0  0  0  0  0  0  0  0  0  0
    2.3451    2.2928    0.0000 N   0  0  0  0  0  0  0  0  0  0  0  0
    3.1992   -2.4504    0.0000 N   0  0  0  0  0  0  0  0  0  0  0  0
   -0.5829    0.8004    0.0000 N   0  0  0  0  0  0  0  0  0  0  0  0
    2.3451    0.9580    0.0000 C   0  0  0  0  0  0  0  0  0  0  0  0
    2.7576    0.2435    0.0000 C   0  0  0  0  0  0  0  0  0  0  0  0
    2.7576   -1.0914    0.0000 C   0  0  0  0  0  0  0  0  0  0  0  0
    3.5422   -0.8365    0.0000 C   0  0  0  0  0  0  0  0  0  0  0  0
    1.5605    2.0379    0.0000 C   0  0  0  0  0  0  0  0  0  0  0  0
    2.2727   -0.4240    0.0000 C   0  0  0  0  0  0  0  0  0  0  0  0
    2.8300    1.6254    0.0000 C   0  0  0  0  0  0  0  0  0  0  0  0
    2.5861   -1.8984    0.0000 C   0  0  0  0  0  0  0  0  0  0  0  0
    0.1315    1.2129    0.0000 C   0  0  0  0  0  0  0  0  0  0  0  0
    0.8460    2.4504    0.0000 C   0  0  0  0  0  0  0  0  0  0  0  0
    4.1553   -1.3885    0.0000 C   0  0  0  0  0  0  0  0  0  0  0  0
    0.1315    2.0379    0.0000 C   0  0  0  0  0  0  0  0  0  0  0  0
    3.9838   -2.1955    0.0000 C   0  0  0  0  0  0  0  0  0  0  0  0
   -1.2974    1.2129    0.0000 C   0  0  0  0  0  0  0  0  0  0  0  0
   -2.0119    0.8004    0.0000 C   0  0  3  0  0  0  0  0  0  0  0  0
   -2.7264    1.2129    0.0000 C   0  0  0  0  0  0  0  0  0  0  0  0
    1.1883   -1.6013    0.0000 C   0  0  0  0  0  0  0  0  0  0  0  0
   -2.7264    2.0379    0.0000 C   0  0  0  0  0  0  0  0  0  0  0  0
   -3.4408    0.8004    0.0000 C   0  0  0  0  0  0  0  0  0  0  0  0
   -3.4408    2.4504    0.0000 C   0  0  0  0  0  0  0  0  0  0  0  0
   -4.1553    1.2129    0.0000 C   0  0  0  0  0  0  0  0  0  0  0  0
  1 11  1  0  0  0  0
  1 13  1  0  0  0  0
  2 17  1  0  0  0  0
  2 26  1  0  0  0  0
  3 24  1  0  0  0  0
  4 29  1  0  0  0  0
  4 30  1  0  0  0  0
  5  6  1  0  0  0  0
  5 10  1  0  0  0  0
  5 14  1  0  0  0  0
  6 18  2  0  0  0  0
  7 14  2  0  0  0  0
  7 16  1  0  0  0  0
  8 17  2  0  0  0  0
  8 22  1  0  0  0  0
  9 18  1  0  0  0  0
  9 23  1  0  0  0  0
 10 11  1  0  0  0  0
 10 16  2  0  0  0  0
 11 15  2  0  0  0  0
 12 13  2  0  0  0  0
 12 15  1  0  0  0  0
 12 17  1  0  0  0  0
 13 20  1  0  0  0  0
 14 19  1  0  0  0  0
 18 21  1  0  0  0  0
 19 21  2  0  0  0  0
 20 22  2  0  0  0  0
 23 24  1  0  0  0  0
 24 25  1  0  0  0  0
 25 27  1  0  0  0  0
 25 28  1  0  0  0  0
 27 29  1  0  0  0  0
 28 30  1  0  0  0  0
M  END
> <PUBCHEM_COMPOUND_ID_TYPE>
0

> <PUBCHEM_TOTAL_CHARGE>
0

> <PUBCHEM_SUBSTANCE_ID>
310939497

> <PUBCHEM_SUBSTANCE_VERSION>
1

> <PUBCHEM_EXT_DATASOURCE_NAME>
4488

> <PUBCHEM_EXT_DATASOURCE_REGID>
SCHEMBL16117426

> <PUBCHEM_SUBSTANCE_COMMENT>
InChI=1S/C21H23N5O4/c1-28-21-14-10-18(30-17(14)4-7-22-21)15-11-24-20-3-2-19(25-26(15)20)23-12-16(27)13-5-8-29-9-6-13/h2-4,7,10-11,13,16,27H,5-6,8-9,12H2,1H3,(H,23,25)
InChIKey=PLFZEAHFYFOFAU-UHFFFAOYSA-N

> <PUBCHEM_SUBSTANCE_SYNONYM>
SCHEMBL16117426

> <PUBCHEM_XREF_EXT_ID>
SCHEMBL16117426

> <PUBCHEM_EXT_DATASOURCE_URL>
https://www.surechembl.org/

> <PUBCHEM_EXT_SUBSTANCE_URL>
https://www.surechembl.org/chemical/SCHEMBL16117426

> <PUBCHEM_CID_ASSOCIATIONS>
71014803  1

> <PUBCHEM_COORDINATE_TYPE>
1
3

> <PUBCHEM_BONDANNOTATIONS>
24  3  3

$$$$
