310936144
  -OEChem-07211613022D

 24 26  0     1  0  0  0  0  0999 V2000
    0.0000   -3.7214    0.0000 Cl  0  0  0  0  0  0  0  0  0  0  0  0
    1.4296   -4.5383    0.0000 Cl  0  0  0  0  0  0  0  0  0  0  0  0
    2.2238   -3.4718    0.0000 S   0  0  0  0  0  0  0  0  0  0  0  0
    2.1330    0.0000    0.0000 O   0  0  0  0  0  0  0  0  0  0  0  0
    0.0000   -0.4311    0.0000 N   0  0  0  0  0  0  0  0  0  0  0  0
    2.8592   -1.2480    0.0000 C   0  0  0  0  0  0  0  0  0  0  0  0
    2.1330   -0.8169    0.0000 C   0  0  3  0  0  0  0  0  0  0  0  0
    2.8592   -2.0649    0.0000 C   0  0  0  0  0  0  0  0  0  0  0  0
    1.4296   -1.2480    0.0000 C   0  0  3  0  0  0  0  0  0  0  0  0
    1.4296   -2.0649    0.0000 C   0  0  0  0  0  0  0  0  0  0  0  0
    2.3145   -2.6549    0.0000 C   0  0  0  0  0  0  0  0  0  0  0  0
    3.5626   -0.8169    0.0000 C   0  0  0  0  0  0  0  0  0  0  0  0
    0.7261   -2.4733    0.0000 C   0  0  0  0  0  0  0  0  0  0  0  0
    3.5626   -2.4733    0.0000 C   0  0  0  0  0  0  0  0  0  0  0  0
    0.7261   -3.2903    0.0000 C   0  0  0  0  0  0  0  0  0  0  0  0
    2.1330   -2.4733    0.0000 C   0  0  0  0  0  0  0  0  0  0  0  0
    1.4296   -3.7214    0.0000 C   0  0  0  0  0  0  0  0  0  0  0  0
    0.7034   -0.8169    0.0000 C   0  0  0  0  0  0  0  0  0  0  0  0
    1.3842   -2.1557    0.0000 C   0  0  0  0  0  0  0  0  0  0  0  0
    2.1330   -3.2903    0.0000 C   0  0  0  0  0  0  0  0  0  0  0  0
    4.2887   -1.2253    0.0000 C   0  0  0  0  0  0  0  0  0  0  0  0
    4.2887   -2.0649    0.0000 C   0  0  0  0  0  0  0  0  0  0  0  0
    1.2480   -3.4945    0.0000 C   0  0  0  0  0  0  0  0  0  0  0  0
    0.8396   -2.7684    0.0000 C   0  0  0  0  0  0  0  0  0  0  0  0
  1 15  1  0  0  0  0
  2 17  1  0  0  0  0
  3 11  1  0  0  0  0
  3 23  1  0  0  0  0
  4  7  1  0  0  0  0
  5 18  3  0  0  0  0
  6  7  1  0  0  0  0
  6  8  1  0  0  0  0
  6 12  2  0  0  0  0
  7  9  1  0  0  0  0
  8 11  1  0  0  0  0
  8 14  2  0  0  0  0
  9 10  1  0  0  0  0
  9 18  1  0  0  0  0
 10 13  1  0  0  0  0
 10 16  2  0  0  0  0
 11 19  2  0  0  0  0
 12 21  1  0  0  0  0
 13 15  2  0  0  0  0
 14 22  1  0  0  0  0
 15 17  1  0  0  0  0
 16 20  1  0  0  0  0
 17 20  2  0  0  0  0
 19 24  1  0  0  0  0
 21 22  2  0  0  0  0
 23 24  2  0  0  0  0
M  END
> <PUBCHEM_COMPOUND_ID_TYPE>
0

> <PUBCHEM_TOTAL_CHARGE>
0

> <PUBCHEM_SUBSTANCE_ID>
310936144

> <PUBCHEM_SUBSTANCE_VERSION>
1

> <PUBCHEM_EXT_DATASOURCE_NAME>
4488

> <PUBCHEM_EXT_DATASOURCE_REGID>
SCHEMBL16113754

> <PUBCHEM_SUBSTANCE_COMMENT>
InChI=1S/C19H13Cl2NOS/c20-16-8-7-12(10-17(16)21)15(11-22)19(23)14-5-2-1-4-13(14)18-6-3-9-24-18/h1-10,15,19,23H
InChIKey=CSJHYUBRUWZRMM-UHFFFAOYSA-N

> <PUBCHEM_SUBSTANCE_SYNONYM>
SCHEMBL16113754

> <PUBCHEM_XREF_EXT_ID>
SCHEMBL16113754

> <PUBCHEM_EXT_DATASOURCE_URL>
https://www.surechembl.org/

> <PUBCHEM_EXT_SUBSTANCE_URL>
https://www.surechembl.org/chemical/SCHEMBL16113754

> <PUBCHEM_CID_ASSOCIATIONS>
117604107  1

> <PUBCHEM_COORDINATE_TYPE>
1
3

$$$$
