310942877
  -OEChem-07211613022D

  9 10  0     1  0  0  0  0  0999 V2000
   -0.4159   -0.1336    0.0000 N   0  0  3  0  0  0  0  0  0  0  0  0
   -1.1585    0.2525    0.0000 N   0  0  0  0  0  0  0  0  0  0  0  0
    0.9655    0.2228    0.0000 N   0  0  0  0  0  0  0  0  0  0  0  0
    0.1634    0.4456    0.0000 C   0  0  0  0  0  0  0  0  0  0  0  0
   -0.1783    1.1585    0.0000 C   0  0  0  0  0  0  0  0  0  0  0  0
   -0.2228   -0.9357    0.0000 C   0  0  0  0  0  0  0  0  0  0  0  0
   -1.0100    1.0546    0.0000 C   0  0  0  0  0  0  0  0  0  0  0  0
    0.5793   -1.1585    0.0000 C   0  0  0  0  0  0  0  0  0  0  0  0
    1.1585   -0.5793    0.0000 C   0  0  0  0  0  0  0  0  0  0  0  0
  1  2  1  0  0  0  0
  1  4  1  0  0  0  0
  1  6  1  0  0  0  0
  2  7  1  0  0  0  0
  3  4  1  0  0  0  0
  3  9  1  0  0  0  0
  4  5  2  0  0  0  0
  5  7  1  0  0  0  0
  6  8  1  0  0  0  0
  8  9  1  0  0  0  0
M  END
> <PUBCHEM_COMPOUND_ID_TYPE>
0

> <PUBCHEM_TOTAL_CHARGE>
0

> <PUBCHEM_SUBSTANCE_ID>
310942877

> <PUBCHEM_SUBSTANCE_VERSION>
1

> <PUBCHEM_EXT_DATASOURCE_NAME>
4488

> <PUBCHEM_EXT_DATASOURCE_REGID>
SCHEMBL16120935

> <PUBCHEM_SUBSTANCE_COMMENT>
InChI=1S/C6H11N3/c1-3-7-6-2-4-8-9(6)5-1/h2,7-8H,1,3-5H2
InChIKey=XRUXIPGFWSHJAO-UHFFFAOYSA-N

> <PUBCHEM_SUBSTANCE_SYNONYM>
SCHEMBL16120935

> <PUBCHEM_XREF_EXT_ID>
SCHEMBL16120935

> <PUBCHEM_EXT_DATASOURCE_URL>
https://www.surechembl.org/

> <PUBCHEM_EXT_SUBSTANCE_URL>
https://www.surechembl.org/chemical/SCHEMBL16120935

> <PUBCHEM_CID_ASSOCIATIONS>
117609364  1

> <PUBCHEM_COORDINATE_TYPE>
1
3

$$$$
