310946293
  -OEChem-07211613022D

 13 13  0     1  0  0  0  0  0999 V2000
   -1.9813   -0.9581    0.0000 N   0  0  0  0  0  0  0  0  0  0  0  0
   -2.6958   -1.3706    0.0000 C   0  0  0  0  0  0  0  0  0  0  0  0
   -2.6958   -2.1956    0.0000 C   0  0  3  0  0  0  0  0  0  0  0  0
   -3.4103   -0.9581    0.0000 C   0  0  0  0  0  0  0  0  0  0  0  0
   -3.4103   -2.6081    0.0000 C   0  0  0  0  0  0  0  0  0  0  0  0
   -1.9813   -2.6081    0.0000 C   0  0  0  0  0  0  0  0  0  0  0  0
   -1.9813   -0.1331    0.0000 C   0  0  0  0  0  0  0  0  0  0  0  0
   -3.4103   -0.1331    0.0000 C   0  0  0  0  0  0  0  0  0  0  0  0
   -4.1247   -2.1956    0.0000 C   0  0  0  0  0  0  0  0  0  0  0  0
   -2.6958    0.2794    0.0000 C   0  0  0  0  0  0  0  0  0  0  0  0
   -1.2669   -2.1956    0.0000 C   0  0  0  0  0  0  0  0  0  0  0  0
   -3.7122   -1.4811    0.0000 C   0  0  0  0  0  0  0  0  0  0  0  0
   -4.5372   -2.9101    0.0000 C   0  0  0  0  0  0  0  0  0  0  0  0
  1  2  2  0  0  0  0
  1  7  1  0  0  0  0
  2  3  1  0  0  0  0
  2  4  1  0  0  0  0
  3  5  1  0  0  0  0
  3  6  1  0  0  0  0
  4  8  2  0  0  0  0
  5  9  1  0  0  0  0
  6 11  1  0  0  0  0
  7 10  2  0  0  0  0
  8 10  1  0  0  0  0
  9 12  1  0  0  0  0
  9 13  1  0  0  0  0
M  END
> <PUBCHEM_COMPOUND_ID_TYPE>
0

> <PUBCHEM_TOTAL_CHARGE>
0

> <PUBCHEM_SUBSTANCE_ID>
310946293

> <PUBCHEM_SUBSTANCE_VERSION>
1

> <PUBCHEM_EXT_DATASOURCE_NAME>
4488

> <PUBCHEM_EXT_DATASOURCE_REGID>
SCHEMBL16124411

> <PUBCHEM_SUBSTANCE_COMMENT>
InChI=1S/C12H19N/c1-4-11(9-10(2)3)12-7-5-6-8-13-12/h5-8,10-11H,4,9H2,1-3H3
InChIKey=USLMSOAJGZXMRR-UHFFFAOYSA-N

> <PUBCHEM_SUBSTANCE_SYNONYM>
SCHEMBL16124411

> <PUBCHEM_XREF_EXT_ID>
SCHEMBL16124411

> <PUBCHEM_EXT_DATASOURCE_URL>
https://www.surechembl.org/

> <PUBCHEM_EXT_SUBSTANCE_URL>
https://www.surechembl.org/chemical/SCHEMBL16124411

> <PUBCHEM_CID_ASSOCIATIONS>
117612240  1

> <PUBCHEM_COORDINATE_TYPE>
1
3

> <PUBCHEM_BONDANNOTATIONS>
3  2  3
9  12  3
9  13  3

$$$$
