310934112
  -OEChem-07211613022D

 48 53  0     1  0  0  0  0  0999 V2000
    4.5535    0.0000    0.0000 Cl  0  0  0  0  0  0  0  0  0  0  0  0
    4.7581   -5.9861    0.0000 O   0  0  0  0  0  0  0  0  0  0  0  0
    4.9628   -5.1163    0.0000 O   0  0  0  0  0  0  0  0  0  0  0  0
    0.8186   -8.0837    0.0000 O   0  0  0  0  0  0  0  0  0  0  0  0
    7.1117   -2.9163    0.0000 O   0  5  0  0  0  0  0  0  0  0  0  0
    5.8326   -3.6326    0.0000 O   0  0  0  0  0  0  0  0  0  0  0  0
    3.7349   -4.4000    0.0000 N   0  0  0  0  0  0  0  0  0  0  0  0
    3.3256   -6.5488    0.0000 N   0  0  0  0  0  0  0  0  0  0  0  0
    2.5070   -8.0326    0.0000 N   0  0  3  0  0  0  0  0  0  0  0  0
    6.2419   -2.9163    0.0000 N   0  3  0  0  0  0  0  0  0  0  0  0
    3.3256   -5.1163    0.0000 C   0  0  3  0  0  0  0  0  0  0  0  0
    3.7860   -5.8326    0.0000 C   0  0  0  0  0  0  0  0  0  0  0  0
    3.7860   -7.2651    0.0000 C   0  0  3  0  0  0  0  0  0  0  0  0
    4.5535   -2.9163    0.0000 C   0  0  0  0  0  0  0  0  0  0  0  0
    4.5535   -4.4000    0.0000 C   0  0  0  0  0  0  0  0  0  0  0  0
    4.9628   -2.2000    0.0000 C   0  0  0  0  0  0  0  0  0  0  0  0
    5.0140   -3.6326    0.0000 C   0  0  0  0  0  0  0  0  0  0  0  0
    3.2744   -3.6326    0.0000 C   0  0  0  0  0  0  0  0  0  0  0  0
    3.3768   -8.0326    0.0000 C   0  0  0  0  0  0  0  0  0  0  0  0
    2.5070   -6.5488    0.0000 C   0  0  0  0  0  0  0  0  0  0  0  0
    5.8326   -2.2000    0.0000 C   0  0  0  0  0  0  0  0  0  0  0  0
    2.0977   -8.7489    0.0000 C   0  0  0  0  0  0  0  0  0  0  0  0
    2.5070   -5.1163    0.0000 C   0  0  0  0  0  0  0  0  0  0  0  0
    3.7349   -2.9163    0.0000 C   0  0  0  0  0  0  0  0  0  0  0  0
    2.0977   -7.3163    0.0000 C   0  0  0  0  0  0  0  0  0  0  0  0
    4.6047   -7.2651    0.0000 C   0  0  0  0  0  0  0  0  0  0  0  0
    4.5535   -1.4837    0.0000 C   0  0  0  0  0  0  0  0  0  0  0  0
    1.2791   -8.8000    0.0000 C   0  0  0  0  0  0  0  0  0  0  0  0
    2.0465   -4.4000    0.0000 C   0  0  0  0  0  0  0  0  0  0  0  0
    6.2419   -1.4326    0.0000 C   0  0  0  0  0  0  0  0  0  0  0  0
    4.9628   -0.7163    0.0000 C   0  0  0  0  0  0  0  0  0  0  0  0
    5.0140   -6.5488    0.0000 C   0  0  0  0  0  0  0  0  0  0  0  0
    2.5581   -9.5163    0.0000 C   0  0  0  0  0  0  0  0  0  0  0  0
    5.8326   -0.7163    0.0000 C   0  0  0  0  0  0  0  0  0  0  0  0
    0.8698   -9.5163    0.0000 C   0  0  0  0  0  0  0  0  0  0  0  0
    1.2279   -4.4000    0.0000 C   0  0  0  0  0  0  0  0  0  0  0  0
    2.4558   -3.6326    0.0000 C   0  0  0  0  0  0  0  0  0  0  0  0
    2.1489  -10.2326    0.0000 C   0  0  0  0  0  0  0  0  0  0  0  0
    5.8838   -6.4977    0.0000 C   0  0  0  0  0  0  0  0  0  0  0  0
    4.6047   -5.8326    0.0000 C   0  0  0  0  0  0  0  0  0  0  0  0
    1.2791  -10.2326    0.0000 C   0  0  0  0  0  0  0  0  0  0  0  0
    0.7674   -3.6838    0.0000 C   0  0  0  0  0  0  0  0  0  0  0  0
    2.0465   -2.9675    0.0000 C   0  0  0  0  0  0  0  0  0  0  0  0
    6.2930   -5.7814    0.0000 C   0  0  0  0  0  0  0  0  0  0  0  0
    5.1675   -5.2186    0.0000 C   0  0  0  0  0  0  0  0  0  0  0  0
    1.1768   -2.9675    0.0000 C   0  0  0  0  0  0  0  0  0  0  0  0
    5.8838   -5.0651    0.0000 C   0  0  0  0  0  0  0  0  0  0  0  0
    0.0000   -8.0837    0.0000 C   0  0  0  0  0  0  0  0  0  0  0  0
  1 31  1  0  0  0  0
  2 12  2  0  0  0  0
  3 15  2  0  0  0  0
  4 28  1  0  0  0  0
  4 48  1  0  0  0  0
  5 10  1  0  0  0  0
  6 10  2  0  0  0  0
  7 11  1  0  0  0  0
  7 15  1  0  0  0  0
  7 18  1  0  0  0  0
  8 12  1  0  0  0  0
  8 13  1  0  0  0  0
  8 20  1  0  0  0  0
  9 19  1  0  0  0  0
  9 22  1  0  0  0  0
  9 25  1  0  0  0  0
 10 21  1  0  0  0  0
 11 12  1  0  0  0  0
 11 23  1  0  0  0  0
 13 19  1  0  0  0  0
 13 26  1  0  0  0  0
 14 16  1  0  0  0  0
 14 17  2  0  0  0  0
 14 24  1  0  0  0  0
 15 17  1  0  0  0  0
 16 21  1  0  0  0  0
 16 27  2  0  0  0  0
 18 24  2  0  0  0  0
 20 25  1  0  0  0  0
 21 30  2  0  0  0  0
 22 28  1  0  0  0  0
 22 33  2  0  0  0  0
 23 29  1  0  0  0  0
 26 32  1  0  0  0  0
 27 31  1  0  0  0  0
 28 35  2  0  0  0  0
 29 36  2  0  0  0  0
 29 37  1  0  0  0  0
 30 34  1  0  0  0  0
 31 34  2  0  0  0  0
 32 39  2  0  0  0  0
 32 40  1  0  0  0  0
 33 38  1  0  0  0  0
 35 41  1  0  0  0  0
 36 42  1  0  0  0  0
 37 43  2  0  0  0  0
 38 41  2  0  0  0  0
 39 44  1  0  0  0  0
 40 45  2  0  0  0  0
 42 46  2  0  0  0  0
 43 46  1  0  0  0  0
 44 47  2  0  0  0  0
 45 47  1  0  0  0  0
M  CHG  2   5  -1  10   1
M  END
> <PUBCHEM_COMPOUND_ID_TYPE>
0

> <PUBCHEM_TOTAL_CHARGE>
0

> <PUBCHEM_SUBSTANCE_ID>
310934112

> <PUBCHEM_SUBSTANCE_VERSION>
1

> <PUBCHEM_EXT_DATASOURCE_NAME>
4488

> <PUBCHEM_EXT_DATASOURCE_REGID>
SCHEMBL16111558

> <PUBCHEM_SUBSTANCE_COMMENT>
InChI=1S/C38H35ClN4O5/c1-48-36-15-9-8-14-34(36)40-20-21-41(31(26-40)22-27-10-4-2-5-11-27)38(45)35(23-28-12-6-3-7-13-28)42-19-18-29(24-37(42)44)32-25-30(39)16-17-33(32)43(46)47/h2-19,24-25,31,35H,20-23,26H2,1H3
InChIKey=DRIHSUHRHAGMQB-UHFFFAOYSA-N

> <PUBCHEM_SUBSTANCE_SYNONYM>
SCHEMBL16111558

> <PUBCHEM_XREF_EXT_ID>
SCHEMBL16111558

> <PUBCHEM_EXT_DATASOURCE_URL>
https://www.surechembl.org/

> <PUBCHEM_EXT_SUBSTANCE_URL>
https://www.surechembl.org/chemical/SCHEMBL16111558

> <PUBCHEM_CID_ASSOCIATIONS>
117602391  1

> <PUBCHEM_COORDINATE_TYPE>
1
3

$$$$
