310934517
  -OEChem-07211613022D

 39 43  0     1  0  0  0  0  0999 V2000
    0.8060   -1.2872    0.0000 O   0  0  0  0  0  0  0  0  0  0  0  0
    0.1259    2.8467    0.0000 O   0  0  0  0  0  0  0  0  0  0  0  0
   -4.4664   -0.8753    0.0000 O   0  0  0  0  0  0  0  0  0  0  0  0
   -1.3539   -1.2872    0.0000 N   0  0  0  0  0  0  0  0  0  0  0  0
   -0.2740   -2.0718    0.0000 N   0  0  0  0  0  0  0  0  0  0  0  0
   -1.5839   -2.7393    0.0000 N   0  0  0  0  0  0  0  0  0  0  0  0
    2.1714   -1.6273    0.0000 N   0  0  0  0  0  0  0  0  0  0  0  0
   -0.4737    2.1647    0.0000 N   0  0  0  0  0  0  0  0  0  0  0  0
   -0.6865   -0.8023    0.0000 C   0  0  0  0  0  0  0  0  0  0  0  0
    0.0280   -0.3898    0.0000 C   0  0  3  0  0  0  0  0  0  0  0  0
   -1.2385   -0.1892    0.0000 C   0  0  3  0  0  0  0  0  0  0  0  0
   -0.0190   -1.2872    0.0000 C   0  0  0  0  0  0  0  0  0  0  0  0
    0.0280    0.4352    0.0000 C   0  0  0  0  0  0  0  0  0  0  0  0
   -2.0455   -0.3607    0.0000 C   0  0  0  0  0  0  0  0  0  0  0  0
    0.7425   -0.8023    0.0000 C   0  0  0  0  0  0  0  0  0  0  0  0
   -0.9835    0.5954    0.0000 C   0  0  0  0  0  0  0  0  0  0  0  0
   -1.0990   -2.0718    0.0000 C   0  0  0  0  0  0  0  0  0  0  0  0
    0.7425    0.8477    0.0000 C   0  0  0  0  0  0  0  0  0  0  0  0
   -2.3004   -1.1454    0.0000 C   0  0  0  0  0  0  0  0  0  0  0  0
   -0.6865    0.8477    0.0000 C   0  0  0  0  0  0  0  0  0  0  0  0
   -2.5975    0.2524    0.0000 C   0  0  0  0  0  0  0  0  0  0  0  0
    1.4570   -0.3898    0.0000 C   0  0  0  0  0  0  0  0  0  0  0  0
    0.7425   -1.6273    0.0000 C   0  0  0  0  0  0  0  0  0  0  0  0
   -1.5356    1.2085    0.0000 C   0  0  0  0  0  0  0  0  0  0  0  0
   -0.1766    0.7669    0.0000 C   0  0  0  0  0  0  0  0  0  0  0  0
    0.7425    1.6727    0.0000 C   0  0  0  0  0  0  0  0  0  0  0  0
   -3.1074   -1.3169    0.0000 C   0  0  0  0  0  0  0  0  0  0  0  0
   -0.6865    1.6727    0.0000 C   0  0  0  0  0  0  0  0  0  0  0  0
   -3.4045    0.0808    0.0000 C   0  0  0  0  0  0  0  0  0  0  0  0
    2.1714   -0.8023    0.0000 C   0  0  0  0  0  0  0  0  0  0  0  0
    1.4570   -2.0398    0.0000 C   0  0  0  0  0  0  0  0  0  0  0  0
   -1.2806    1.9931    0.0000 C   0  0  0  0  0  0  0  0  0  0  0  0
    0.0784    1.5516    0.0000 C   0  0  0  0  0  0  0  0  0  0  0  0
    0.0280    2.0852    0.0000 C   0  0  0  0  0  0  0  0  0  0  0  0
   -3.6594   -0.7038    0.0000 C   0  0  0  0  0  0  0  0  0  0  0  0
    2.8859   -2.0398    0.0000 C   0  0  0  0  0  0  0  0  0  0  0  0
   -0.2187    2.9493    0.0000 C   0  0  0  0  0  0  0  0  0  0  0  0
    0.7425    3.3227    0.0000 C   0  0  0  0  0  0  0  0  0  0  0  0
   -4.7213   -1.6599    0.0000 C   0  0  0  0  0  0  0  0  0  0  0  0
  1 12  2  0  0  0  0
  2 34  1  0  0  0  0
  2 38  1  0  0  0  0
  3 35  1  0  0  0  0
  3 39  1  0  0  0  0
  4  9  1  0  0  0  0
  4 17  1  0  0  0  0
  5 12  1  0  0  0  0
  5 17  1  0  0  0  0
  6 17  2  3  0  0  0
  7 30  1  0  0  0  0
  7 31  1  0  0  0  0
  7 36  1  0  0  0  0
  8 32  1  0  0  0  0
  8 33  1  0  0  0  0
  8 37  1  0  0  0  0
  9 10  1  0  0  0  0
  9 11  1  0  0  0  0
  9 12  1  0  0  0  0
 10 13  1  0  0  0  0
 10 15  1  0  0  0  0
 11 14  1  0  0  0  0
 11 16  1  0  0  0  0
 13 18  2  0  0  0  0
 13 20  1  0  0  0  0
 14 19  2  0  0  0  0
 14 21  1  0  0  0  0
 15 22  1  0  0  0  0
 15 23  1  0  0  0  0
 16 24  1  0  0  0  0
 16 25  1  0  0  0  0
 18 26  1  0  0  0  0
 19 27  1  0  0  0  0
 20 28  2  0  0  0  0
 21 29  2  0  0  0  0
 22 30  1  0  0  0  0
 23 31  1  0  0  0  0
 24 32  1  0  0  0  0
 25 33  1  0  0  0  0
 26 34  2  0  0  0  0
 27 35  2  0  0  0  0
 28 34  1  0  0  0  0
 29 35  1  0  0  0  0
M  END
> <PUBCHEM_COMPOUND_ID_TYPE>
0

> <PUBCHEM_TOTAL_CHARGE>
0

> <PUBCHEM_SUBSTANCE_ID>
310934517

> <PUBCHEM_SUBSTANCE_VERSION>
1

> <PUBCHEM_EXT_DATASOURCE_NAME>
4488

> <PUBCHEM_EXT_DATASOURCE_REGID>
SCHEMBL16112002

> <PUBCHEM_SUBSTANCE_COMMENT>
InChI=1S/C31H43N5O3/c1-35-17-13-23(14-18-35)27(21-5-9-25(38-3)10-6-21)31(29(37)33-30(32)34-31)28(24-15-19-36(2)20-16-24)22-7-11-26(39-4)12-8-22/h5-12,23-24,27-28H,13-20H2,1-4H3,(H3,32,33,34,37)
InChIKey=BQKPXQOQLAKVCK-UHFFFAOYSA-N

> <PUBCHEM_SUBSTANCE_SYNONYM>
SCHEMBL16112002

> <PUBCHEM_XREF_EXT_ID>
SCHEMBL16112002

> <PUBCHEM_EXT_DATASOURCE_URL>
https://www.surechembl.org/

> <PUBCHEM_EXT_SUBSTANCE_URL>
https://www.surechembl.org/chemical/SCHEMBL16112002

> <PUBCHEM_CID_ASSOCIATIONS>
117602715  1

> <PUBCHEM_COORDINATE_TYPE>
1
3

$$$$
