310947011
  -OEChem-07211613022D

 35 38  0     1  0  0  0  0  0999 V2000
   -1.3492   -1.8562    0.0000 F   0  0  0  0  0  0  0  0  0  0  0  0
   -2.7782    0.6187    0.0000 F   0  0  0  0  0  0  0  0  0  0  0  0
   -2.7782   -2.6813    0.0000 O   0  0  0  0  0  0  0  0  0  0  0  0
   -4.2071   -0.2063    0.0000 O   0  0  0  0  0  0  0  0  0  0  0  0
    1.5086    0.6188    0.0000 O   0  0  0  0  0  0  0  0  0  0  0  0
    1.5086    2.2688    0.0000 O   0  0  0  0  0  0  0  0  0  0  0  0
    0.0797   -0.2062    0.0000 N   0  0  0  0  0  0  0  0  0  0  0  0
   -1.3492   -0.2063    0.0000 N   0  0  0  0  0  0  0  0  0  0  0  0
    1.5086   -0.2063    0.0000 N   0  0  0  0  0  0  0  0  0  0  0  0
    1.5086   -1.8563    0.0000 N   0  0  0  0  0  0  0  0  0  0  0  0
    3.7222    0.8737    0.0000 N   0  0  0  0  0  0  0  0  0  0  0  0
    4.2071    0.2062    0.0000 N   0  0  0  0  0  0  0  0  0  0  0  0
    0.7942   -0.6188    0.0000 C   0  0  0  0  0  0  0  0  0  0  0  0
   -0.6348   -0.6188    0.0000 C   0  0  0  0  0  0  0  0  0  0  0  0
   -2.0637   -0.6188    0.0000 C   0  0  0  0  0  0  0  0  0  0  0  0
    0.7942   -1.4438    0.0000 C   0  0  0  0  0  0  0  0  0  0  0  0
   -2.0637   -1.4438    0.0000 C   0  0  0  0  0  0  0  0  0  0  0  0
   -2.7782   -0.2063    0.0000 C   0  0  0  0  0  0  0  0  0  0  0  0
    2.2231   -0.6188    0.0000 C   0  0  0  0  0  0  0  0  0  0  0  0
   -0.6348   -1.4437    0.0000 C   0  0  0  0  0  0  0  0  0  0  0  0
   -2.7782   -1.8563    0.0000 C   0  0  0  0  0  0  0  0  0  0  0  0
   -3.4927   -0.6188    0.0000 C   0  0  0  0  0  0  0  0  0  0  0  0
    0.0797   -1.8563    0.0000 C   0  0  0  0  0  0  0  0  0  0  0  0
    0.0797    0.6188    0.0000 C   0  0  0  0  0  0  0  0  0  0  0  0
    2.9376   -0.2063    0.0000 C   0  0  0  0  0  0  0  0  0  0  0  0
   -3.4927   -1.4438    0.0000 C   0  0  0  0  0  0  0  0  0  0  0  0
    2.2231   -1.4438    0.0000 C   0  0  0  0  0  0  0  0  0  0  0  0
    0.7942    1.0313    0.0000 C   0  0  3  0  0  0  0  0  0  0  0  0
    2.9376    0.6187    0.0000 C   0  0  0  0  0  0  0  0  0  0  0  0
    3.7222   -0.4612    0.0000 C   0  0  0  0  0  0  0  0  0  0  0  0
    0.7942    1.8563    0.0000 C   0  0  0  0  0  0  0  0  0  0  0  0
   -3.4927   -3.0938    0.0000 C   0  0  0  0  0  0  0  0  0  0  0  0
   -4.2071    0.6187    0.0000 C   0  0  0  0  0  0  0  0  0  0  0  0
    4.1347    1.5882    0.0000 C   0  0  0  0  0  0  0  0  0  0  0  0
    1.5086    3.0938    0.0000 C   0  0  0  0  0  0  0  0  0  0  0  0
  1 17  1  0  0  0  0
  2 18  1  0  0  0  0
  3 21  1  0  0  0  0
  3 32  1  0  0  0  0
  4 22  1  0  0  0  0
  4 33  1  0  0  0  0
  5 28  1  0  0  0  0
  6 31  1  0  0  0  0
  6 35  1  0  0  0  0
  7 13  1  0  0  0  0
  7 14  1  0  0  0  0
  7 24  1  0  0  0  0
  8 14  2  3  0  0  0
  8 15  1  0  0  0  0
  9 13  1  0  0  0  0
  9 19  2  0  0  0  0
 10 16  1  0  0  0  0
 10 27  2  0  0  0  0
 11 12  1  0  0  0  0
 11 29  1  0  0  0  0
 11 34  1  0  0  0  0
 12 30  2  0  0  0  0
 13 16  2  0  0  0  0
 14 20  1  0  0  0  0
 15 17  1  0  0  0  0
 15 18  2  0  0  0  0
 16 23  1  0  0  0  0
 17 21  2  0  0  0  0
 18 22  1  0  0  0  0
 19 25  1  0  0  0  0
 19 27  1  0  0  0  0
 20 23  2  0  0  0  0
 21 26  1  0  0  0  0
 22 26  2  0  0  0  0
 24 28  1  0  0  0  0
 25 29  2  0  0  0  0
 25 30  1  0  0  0  0
 28 31  1  0  0  0  0
M  END
> <PUBCHEM_COMPOUND_ID_TYPE>
0

> <PUBCHEM_TOTAL_CHARGE>
0

> <PUBCHEM_SUBSTANCE_ID>
310947011

> <PUBCHEM_SUBSTANCE_VERSION>
1

> <PUBCHEM_EXT_DATASOURCE_NAME>
4488

> <PUBCHEM_EXT_DATASOURCE_REGID>
SCHEMBL16125163

> <PUBCHEM_SUBSTANCE_COMMENT>
InChI=1S/C23H24F2N6O4/c1-30-10-13(8-27-30)16-9-26-15-5-6-19(31(23(15)28-16)11-14(32)12-33-2)29-22-20(24)17(34-3)7-18(35-4)21(22)25/h5-10,14,32H,11-12H2,1-4H3/b29-19+
InChIKey=KPGHPPAEZJYNHW-VUTHCHCSSA-N

> <PUBCHEM_SUBSTANCE_SYNONYM>
SCHEMBL16125163

> <PUBCHEM_XREF_EXT_ID>
SCHEMBL16125163

> <PUBCHEM_EXT_DATASOURCE_URL>
https://www.surechembl.org/

> <PUBCHEM_EXT_SUBSTANCE_URL>
https://www.surechembl.org/chemical/SCHEMBL16125163

> <PUBCHEM_CID_ASSOCIATIONS>
117612863  1

> <PUBCHEM_COORDINATE_TYPE>
1
3

> <PUBCHEM_BONDANNOTATIONS>
8  14  1

$$$$
