310942460
  -OEChem-07211613022D

 17 17  0     1  0  0  0  0  0999 V2000
   -2.1530   -0.3723    0.0000 S   0  0  3  0  0  0  0  0  0  0  0  0
   -2.1630   -1.1972    0.0000 O   0  0  0  0  0  0  0  0  0  0  0  0
   -0.7042   -0.3823    0.0000 N   0  0  0  0  0  0  0  0  0  0  0  0
    0.7345   -0.3823    0.0000 N   0  0  0  0  0  0  0  0  0  0  0  0
   -1.4287    0.8552    0.0000 N   0  0  0  0  0  0  0  0  0  0  0  0
    2.8774    1.6600    0.0000 N   0  0  0  0  0  0  0  0  0  0  0  0
    0.0000    0.0302    0.0000 C   0  0  0  0  0  0  0  0  0  0  0  0
    0.0100    0.8552    0.0000 C   0  0  0  0  0  0  0  0  0  0  0  0
   -1.4287    0.0302    0.0000 C   0  0  0  0  0  0  0  0  0  0  0  0
   -0.7244    1.2576    0.0000 C   0  0  0  0  0  0  0  0  0  0  0  0
    0.7143    1.2576    0.0000 C   0  0  0  0  0  0  0  0  0  0  0  0
    0.7143   -1.2576    0.0000 C   0  0  0  0  0  0  0  0  0  0  0  0
    1.4588    0.0403    0.0000 C   0  0  0  0  0  0  0  0  0  0  0  0
    1.4588    0.8552    0.0000 C   0  0  0  0  0  0  0  0  0  0  0  0
   -2.8774    0.0201    0.0000 C   0  0  0  0  0  0  0  0  0  0  0  0
    0.0000   -1.6600    0.0000 C   0  0  0  0  0  0  0  0  0  0  0  0
    2.1630    1.2676    0.0000 C   0  0  0  0  0  0  0  0  0  0  0  0
  1  2  2  0  0  0  0
  1  9  1  0  0  0  0
  1 15  1  0  0  0  0
  3  7  2  0  0  0  0
  3  9  1  0  0  0  0
  4  7  1  0  0  0  0
  4 12  1  0  0  0  0
  4 13  1  0  0  0  0
  5  9  2  0  0  0  0
  5 10  1  0  0  0  0
  6 17  3  0  0  0  0
  7  8  1  0  0  0  0
  8 10  2  0  0  0  0
  8 11  1  0  0  0  0
 11 14  2  0  0  0  0
 12 16  1  0  0  0  0
 14 17  1  0  0  0  0
M  END
> <PUBCHEM_COMPOUND_ID_TYPE>
0

> <PUBCHEM_TOTAL_CHARGE>
0

> <PUBCHEM_SUBSTANCE_ID>
310942460

> <PUBCHEM_SUBSTANCE_VERSION>
1

> <PUBCHEM_EXT_DATASOURCE_NAME>
4488

> <PUBCHEM_EXT_DATASOURCE_REGID>
SCHEMBL16120496

> <PUBCHEM_SUBSTANCE_COMMENT>
InChI=1S/C11H14N4OS/c1-4-15(2)10-9(6-5-7-12)8-13-11(14-10)17(3)16/h5-6,8H,4H2,1-3H3/b6-5+
InChIKey=LOTZMVXCMXICBC-AATRIKPKSA-N

> <PUBCHEM_SUBSTANCE_SYNONYM>
SCHEMBL16120496

> <PUBCHEM_XREF_EXT_ID>
SCHEMBL16120496

> <PUBCHEM_EXT_DATASOURCE_URL>
https://www.surechembl.org/

> <PUBCHEM_EXT_SUBSTANCE_URL>
https://www.surechembl.org/chemical/SCHEMBL16120496

> <PUBCHEM_CID_ASSOCIATIONS>
90466784  1

> <PUBCHEM_COORDINATE_TYPE>
1
3

$$$$
