310934618
  -OEChem-07211613022D

  9  9  0     1  0  0  0  0  0999 V2000
    1.0702   -1.6053    0.0000 O   0  0  0  0  0  0  0  0  0  0  0  0
    0.0000   -1.4269    0.0000 O   0  0  0  0  0  0  0  0  0  0  0  0
    1.7391   -2.2296    0.0000 O   0  0  0  0  0  0  0  0  0  0  0  0
    2.7647   -1.2263    0.0000 N   0  0  0  0  0  0  0  0  0  0  0  0
    1.3935   -0.8472    0.0000 C   0  0  3  0  0  0  0  0  0  0  0  0
    0.5797   -0.8472    0.0000 C   0  0  3  0  0  0  0  0  0  0  0  0
    1.9621   -1.4269    0.0000 C   0  0  0  0  0  0  0  0  0  0  0  0
    1.4047    0.0000    0.0000 C   0  0  0  0  0  0  0  0  0  0  0  0
    0.5797    0.0000    0.0000 C   0  0  0  0  0  0  0  0  0  0  0  0
  1  5  1  0  0  0  0
  2  6  1  0  0  0  0
  3  7  2  0  0  0  0
  4  7  1  0  0  0  0
  5  6  1  0  0  0  0
  5  7  1  0  0  0  0
  5  8  1  0  0  0  0
  6  9  1  0  0  0  0
  8  9  1  0  0  0  0
M  END
> <PUBCHEM_COMPOUND_ID_TYPE>
0

> <PUBCHEM_TOTAL_CHARGE>
0

> <PUBCHEM_SUBSTANCE_ID>
310934618

> <PUBCHEM_SUBSTANCE_VERSION>
1

> <PUBCHEM_EXT_DATASOURCE_NAME>
4488

> <PUBCHEM_EXT_DATASOURCE_REGID>
SCHEMBL16112114

> <PUBCHEM_SUBSTANCE_COMMENT>
InChI=1S/C5H9NO3/c6-4(8)5(9)2-1-3(5)7/h3,7,9H,1-2H2,(H2,6,8)
InChIKey=BVVNNDSEHDZRJQ-UHFFFAOYSA-N

> <PUBCHEM_SUBSTANCE_SYNONYM>
SCHEMBL16112114

> <PUBCHEM_XREF_EXT_ID>
SCHEMBL16112114

> <PUBCHEM_EXT_DATASOURCE_URL>
https://www.surechembl.org/

> <PUBCHEM_EXT_SUBSTANCE_URL>
https://www.surechembl.org/chemical/SCHEMBL16112114

> <PUBCHEM_CID_ASSOCIATIONS>
117602792  1

> <PUBCHEM_COORDINATE_TYPE>
1
3

$$$$
