310930093
  -OEChem-07211613022D

 25 26  0     1  0  0  0  0  0999 V2000
    0.8250   -4.7224    0.0000 S   0  0  0  0  0  0  0  0  0  0  0  0
    7.9654   -1.3370    0.0000 S   0  0  0  0  0  0  0  0  0  0  0  0
    0.8250   -3.9258    0.0000 O   0  0  0  0  0  0  0  0  0  0  0  0
    1.6500   -4.7224    0.0000 O   0  0  0  0  0  0  0  0  0  0  0  0
    0.0000   -4.7224    0.0000 O   0  0  0  0  0  0  0  0  0  0  0  0
    0.8250   -5.5474    0.0000 O   0  0  0  0  0  0  0  0  0  0  0  0
    3.6698   -3.9258    0.0000 N   0  0  3  0  0  0  0  0  0  0  0  0
    6.5145   -2.2474    0.0000 N   0  0  0  0  0  0  0  0  0  0  0  0
    6.5145   -1.4224    0.0000 N   0  0  0  0  0  0  0  0  0  0  0  0
    7.3111   -0.1992    0.0000 N   0  0  0  0  0  0  0  0  0  0  0  0
    8.0792    0.0000    0.0000 N   0  0  0  0  0  0  0  0  0  0  0  0
    4.3809   -3.4991    0.0000 C   0  0  0  0  0  0  0  0  0  0  0  0
    5.8034   -2.6457    0.0000 C   0  0  0  0  0  0  0  0  0  0  0  0
    5.8034   -3.4706    0.0000 C   0  0  0  0  0  0  0  0  0  0  0  0
    5.0922   -3.8974    0.0000 C   0  0  0  0  0  0  0  0  0  0  0  0
    4.3809   -2.6741    0.0000 C   0  0  0  0  0  0  0  0  0  0  0  0
    5.0637   -2.2474    0.0000 C   0  0  0  0  0  0  0  0  0  0  0  0
    7.2258   -0.9957    0.0000 C   0  0  0  0  0  0  0  0  0  0  0  0
    2.9586   -3.4991    0.0000 C   0  0  0  0  0  0  0  0  0  0  0  0
    3.6698   -4.7224    0.0000 C   0  0  0  0  0  0  0  0  0  0  0  0
    6.5145   -3.8689    0.0000 C   0  0  0  0  0  0  0  0  0  0  0  0
    2.2474   -3.9258    0.0000 C   0  0  0  0  0  0  0  0  0  0  0  0
    8.5344   -0.7112    0.0000 C   0  0  0  0  0  0  0  0  0  0  0  0
    1.5362   -3.4991    0.0000 C   0  0  0  0  0  0  0  0  0  0  0  0
    4.3809   -5.1490    0.0000 C   0  0  0  0  0  0  0  0  0  0  0  0
  1  3  1  0  0  0  0
  1  4  2  0  0  0  0
  1  5  2  0  0  0  0
  1  6  1  0  0  0  0
  2 18  1  0  0  0  0
  2 23  1  0  0  0  0
  3 24  1  0  0  0  0
  7 12  1  0  0  0  0
  7 19  1  0  0  0  0
  7 20  1  0  0  0  0
  8  9  2  0  0  0  0
  8 13  1  0  0  0  0
  9 18  1  0  0  0  0
 10 11  1  0  0  0  0
 10 18  2  0  0  0  0
 11 23  2  0  0  0  0
 12 15  1  0  0  0  0
 12 16  2  0  0  0  0
 13 14  1  0  0  0  0
 13 17  2  0  0  0  0
 14 15  2  0  0  0  0
 14 21  1  0  0  0  0
 16 17  1  0  0  0  0
 19 22  1  0  0  0  0
 20 25  1  0  0  0  0
 22 24  1  0  0  0  0
M  END
> <PUBCHEM_COMPOUND_ID_TYPE>
0

> <PUBCHEM_TOTAL_CHARGE>
0

> <PUBCHEM_SUBSTANCE_ID>
310930093

> <PUBCHEM_SUBSTANCE_VERSION>
1

> <PUBCHEM_EXT_DATASOURCE_NAME>
4488

> <PUBCHEM_EXT_DATASOURCE_REGID>
SCHEMBL16107337

> <PUBCHEM_SUBSTANCE_COMMENT>
InChI=1S/C14H19N5O4S2/c1-3-19(7-4-8-23-25(20,21)22)12-5-6-13(11(2)9-12)16-18-14-17-15-10-24-14/h5-6,9-10H,3-4,7-8H2,1-2H3,(H,20,21,22)/b18-16+
InChIKey=HIKDMTJHYBBDOZ-FBMGVBCBSA-N

> <PUBCHEM_SUBSTANCE_SYNONYM>
SCHEMBL16107337

> <PUBCHEM_XREF_EXT_ID>
SCHEMBL16107337

> <PUBCHEM_EXT_DATASOURCE_URL>
https://www.surechembl.org/

> <PUBCHEM_EXT_SUBSTANCE_URL>
https://www.surechembl.org/chemical/SCHEMBL16107337

> <PUBCHEM_CID_ASSOCIATIONS>
89559148  1

> <PUBCHEM_COORDINATE_TYPE>
1
3

$$$$
