310946489
  -OEChem-07211613022D

 17 16  0     1  0  0  0  0  0999 V2000
    5.2998   14.2106    0.0000 O   0  0  0  0  0  0  0  0  0  0  0  0
    3.8709   10.9106    0.0000 O   0  0  0  0  0  0  0  0  0  0  0  0
    3.1564   12.1481    0.0000 O   0  0  0  0  0  0  0  0  0  0  0  0
    3.8709   14.2106    0.0000 O   0  0  0  0  0  0  0  0  0  0  0  0
    4.5854   12.9731    0.0000 N   0  0  0  0  0  0  0  0  0  0  0  0
    4.5854   12.1481    0.0000 C   0  0  3  0  0  0  0  0  0  0  0  0
    3.8709   11.7356    0.0000 C   0  0  0  0  0  0  0  0  0  0  0  0
    4.5854   13.7981    0.0000 C   0  0  0  0  0  0  0  0  0  0  0  0
    5.2998   11.7356    0.0000 C   0  0  0  0  0  0  0  0  0  0  0  0
    6.0143   12.1481    0.0000 C   0  0  0  0  0  0  0  0  0  0  0  0
    5.7123   14.9251    0.0000 C   0  0  0  0  0  0  0  0  0  0  0  0
    6.7288   11.7356    0.0000 C   0  0  0  0  0  0  0  0  0  0  0  0
    6.0143   12.9731    0.0000 C   0  0  0  0  0  0  0  0  0  0  0  0
    6.5373   14.9251    0.0000 C   0  0  0  0  0  0  0  0  0  0  0  0
    6.9498   15.6396    0.0000 C   0  0  0  0  0  0  0  0  0  0  0  0
    7.7748   15.6396    0.0000 C   0  0  0  0  0  0  0  0  0  0  0  0
    8.1873   16.3540    0.0000 C   0  0  0  0  0  0  0  0  0  0  0  0
  1  8  1  0  0  0  0
  1 11  1  0  0  0  0
  2  7  2  0  0  0  0
  3  7  1  0  0  0  0
  4  8  2  0  0  0  0
  5  6  1  0  0  0  0
  5  8  1  0  0  0  0
  6  7  1  0  0  0  0
  6  9  1  0  0  0  0
  9 10  1  0  0  0  0
 10 12  1  0  0  0  0
 10 13  1  0  0  0  0
 11 14  1  0  0  0  0
 14 15  1  0  0  0  0
 15 16  1  0  0  0  0
 16 17  1  0  0  0  0
M  END
> <PUBCHEM_COMPOUND_ID_TYPE>
0

> <PUBCHEM_TOTAL_CHARGE>
0

> <PUBCHEM_SUBSTANCE_ID>
310946489

> <PUBCHEM_SUBSTANCE_VERSION>
1

> <PUBCHEM_EXT_DATASOURCE_NAME>
4488

> <PUBCHEM_EXT_DATASOURCE_REGID>
SCHEMBL16124610

> <PUBCHEM_SUBSTANCE_COMMENT>
InChI=1S/C12H23NO4/c1-4-5-6-7-17-12(16)13-10(11(14)15)8-9(2)3/h9-10H,4-8H2,1-3H3,(H,13,16)(H,14,15)
InChIKey=DBRMBONFVIPWLK-UHFFFAOYSA-N

> <PUBCHEM_SUBSTANCE_SYNONYM>
SCHEMBL16124610

> <PUBCHEM_XREF_EXT_ID>
SCHEMBL16124610

> <PUBCHEM_EXT_DATASOURCE_URL>
https://www.surechembl.org/

> <PUBCHEM_EXT_SUBSTANCE_URL>
https://www.surechembl.org/chemical/SCHEMBL16124610

> <PUBCHEM_CID_ASSOCIATIONS>
117612395  1

> <PUBCHEM_COORDINATE_TYPE>
1
3

$$$$
