310931081
  -OEChem-07211613022D

 21 23  0     1  0  0  0  0  0999 V2000
    0.0000   -1.8010    0.0000 Br  0  0  0  0  0  0  0  0  0  0  0  0
    3.1722   -1.2074    0.0000 O   0  0  0  0  0  0  0  0  0  0  0  0
    3.1722   -4.0931    0.0000 O   0  0  0  0  0  0  0  0  0  0  0  0
    5.4848   -1.9238    0.0000 O   0  0  0  0  0  0  0  0  0  0  0  0
    3.4178   -2.6401    0.0000 N   0  0  0  0  0  0  0  0  0  0  0  0
    2.9061   -1.9852    0.0000 C   0  0  3  0  0  0  0  0  0  0  0  0
    2.1285   -2.2103    0.0000 C   0  0  0  0  0  0  0  0  0  0  0  0
    2.1285   -3.0903    0.0000 C   0  0  0  0  0  0  0  0  0  0  0  0
    2.9061   -3.3154    0.0000 C   0  0  0  0  0  0  0  0  0  0  0  0
    2.3331   -1.3916    0.0000 C   0  0  0  0  0  0  0  0  0  0  0  0
    1.3916   -1.8214    0.0000 C   0  0  0  0  0  0  0  0  0  0  0  0
    1.3916   -3.4792    0.0000 C   0  0  0  0  0  0  0  0  0  0  0  0
    4.2364   -2.6401    0.0000 C   0  0  0  0  0  0  0  0  0  0  0  0
    0.7163   -2.2103    0.0000 C   0  0  0  0  0  0  0  0  0  0  0  0
    1.5349   -1.5963    0.0000 C   0  0  0  0  0  0  0  0  0  0  0  0
    2.5582   -0.5935    0.0000 C   0  0  0  0  0  0  0  0  0  0  0  0
    0.7163   -3.0903    0.0000 C   0  0  0  0  0  0  0  0  0  0  0  0
    4.6457   -1.9238    0.0000 C   0  0  0  0  0  0  0  0  0  0  0  0
    0.9619   -1.0028    0.0000 C   0  0  0  0  0  0  0  0  0  0  0  0
    1.9852    0.0000    0.0000 C   0  0  0  0  0  0  0  0  0  0  0  0
    1.1870   -0.2046    0.0000 C   0  0  0  0  0  0  0  0  0  0  0  0
  1 14  1  0  0  0  0
  2  6  1  0  0  0  0
  3  9  2  0  0  0  0
  4 18  1  0  0  0  0
  5  6  1  0  0  0  0
  5  9  1  0  0  0  0
  5 13  1  0  0  0  0
  6  7  1  0  0  0  0
  6 10  1  0  0  0  0
  7  8  2  0  0  0  0
  7 11  1  0  0  0  0
  8  9  1  0  0  0  0
  8 12  1  0  0  0  0
 10 15  2  0  0  0  0
 10 16  1  0  0  0  0
 11 14  2  0  0  0  0
 12 17  2  0  0  0  0
 13 18  1  0  0  0  0
 14 17  1  0  0  0  0
 15 19  1  0  0  0  0
 16 20  2  0  0  0  0
 19 21  2  0  0  0  0
 20 21  1  0  0  0  0
M  END
> <PUBCHEM_COMPOUND_ID_TYPE>
0

> <PUBCHEM_TOTAL_CHARGE>
0

> <PUBCHEM_SUBSTANCE_ID>
310931081

> <PUBCHEM_SUBSTANCE_VERSION>
1

> <PUBCHEM_EXT_DATASOURCE_NAME>
4488

> <PUBCHEM_EXT_DATASOURCE_REGID>
SCHEMBL16108384

> <PUBCHEM_SUBSTANCE_COMMENT>
InChI=1S/C16H14BrNO3/c17-12-6-7-13-14(10-12)16(21,11-4-2-1-3-5-11)18(8-9-19)15(13)20/h1-7,10,19,21H,8-9H2
InChIKey=NUMGBKWVJXFHHM-UHFFFAOYSA-N

> <PUBCHEM_SUBSTANCE_SYNONYM>
SCHEMBL16108384

> <PUBCHEM_XREF_EXT_ID>
SCHEMBL16108384

> <PUBCHEM_EXT_DATASOURCE_URL>
https://www.surechembl.org/

> <PUBCHEM_EXT_SUBSTANCE_URL>
https://www.surechembl.org/chemical/SCHEMBL16108384

> <PUBCHEM_CID_ASSOCIATIONS>
117599983  1

> <PUBCHEM_COORDINATE_TYPE>
1
3

$$$$
