310946278
  -OEChem-07211613022D

 29 31  0     1  0  0  0  0  0999 V2000
    3.5114  -10.1773    0.0000 S   0  0  0  0  0  0  0  0  0  0  0  0
   -3.4504   -5.2087    0.0000 S   0  0  0  0  0  0  0  0  0  0  0  0
    2.6864  -10.1773    0.0000 O   0  0  0  0  0  0  0  0  0  0  0  0
    0.4324  -10.1773    0.0000 O   0  0  0  0  0  0  0  0  0  0  0  0
    0.1305   -6.5753    0.0000 O   0  0  0  0  0  0  0  0  0  0  0  0
    3.9239   -9.4628    0.0000 O   0  0  0  0  0  0  0  0  0  0  0  0
    3.9239  -10.8918    0.0000 O   0  0  0  0  0  0  0  0  0  0  0  0
    4.3364  -10.1773    0.0000 O   0  0  0  0  0  0  0  0  0  0  0  0
   -1.2985   -7.4003    0.0000 O   0  0  0  0  0  0  0  0  0  0  0  0
   -4.0338   -4.6253    0.0000 O   0  0  0  0  0  0  0  0  0  0  0  0
   -3.0379   -4.4942    0.0000 O   0  0  0  0  0  0  0  0  0  0  0  0
    0.8449   -8.6378    0.0000 N   0  0  0  0  0  0  0  0  0  0  0  0
    2.2739   -9.4628    0.0000 N   0  0  0  0  0  0  0  0  0  0  0  0
   -0.5840   -7.8128    0.0000 N   0  0  0  0  0  0  0  0  0  0  0  0
   -3.3932   -8.1827    0.0000 N   0  0  0  0  0  0  0  0  0  0  0  0
    0.8449   -9.4628    0.0000 C   0  0  0  0  0  0  0  0  0  0  0  0
    2.2739   -8.6378    0.0000 C   0  0  3  0  0  0  0  0  0  0  0  0
    0.8449   -7.8128    0.0000 C   0  0  3  0  0  0  0  0  0  0  0  0
    1.5594   -9.0503    0.0000 C   0  0  0  0  0  0  0  0  0  0  0  0
    2.2739   -7.8128    0.0000 C   0  0  0  0  0  0  0  0  0  0  0  0
    1.5594   -7.4003    0.0000 C   0  0  0  0  0  0  0  0  0  0  0  0
    0.1305   -7.4003    0.0000 C   0  0  0  0  0  0  0  0  0  0  0  0
   -3.0234   -6.8024    0.0000 C   0  0  0  0  0  0  0  0  0  0  0  0
   -2.8098   -7.5993    0.0000 C   0  0  3  0  0  0  0  0  0  0  0  0
   -2.6535   -5.4222    0.0000 C   0  0  0  0  0  0  0  0  0  0  0  0
   -4.0338   -5.7920    0.0000 C   0  0  0  0  0  0  0  0  0  0  0  0
   -3.8203   -6.5889    0.0000 C   0  0  0  0  0  0  0  0  0  0  0  0
   -2.4400   -6.2191    0.0000 C   0  0  0  0  0  0  0  0  0  0  0  0
   -2.0130   -7.8128    0.0000 C   0  0  0  0  0  0  0  0  0  0  0  0
  1  3  1  0  0  0  0
  1  6  2  0  0  0  0
  1  7  2  0  0  0  0
  1  8  1  0  0  0  0
  2 10  2  0  0  0  0
  2 11  2  0  0  0  0
  2 25  1  0  0  0  0
  2 26  1  0  0  0  0
  3 13  1  0  0  0  0
  4 16  2  0  0  0  0
  5 22  2  0  0  0  0
  9 14  1  0  0  0  0
  9 29  1  0  0  0  0
 12 16  1  0  0  0  0
 12 18  1  0  0  0  0
 12 19  1  0  0  0  0
 13 16  1  0  0  0  0
 13 17  1  0  0  0  0
 14 22  1  0  0  0  0
 15 24  1  0  0  0  0
 17 19  1  6  0  0  0
 17 20  1  0  0  0  0
 18 21  1  0  0  0  0
 18 22  1  6  0  0  0
 20 21  1  0  0  0  0
 23 24  1  0  0  0  0
 23 27  1  0  0  0  0
 23 28  1  0  0  0  0
 24 29  1  0  0  0  0
 25 28  1  0  0  0  0
 26 27  1  0  0  0  0
M  END
> <PUBCHEM_COMPOUND_ID_TYPE>
0

> <PUBCHEM_TOTAL_CHARGE>
0

> <PUBCHEM_SUBSTANCE_ID>
310946278

> <PUBCHEM_SUBSTANCE_VERSION>
1

> <PUBCHEM_EXT_DATASOURCE_NAME>
4488

> <PUBCHEM_EXT_DATASOURCE_REGID>
SCHEMBL16124396

> <PUBCHEM_SUBSTANCE_COMMENT>
InChI=1S/C14H24N4O9S2/c15-11(9-3-5-28(21,22)6-4-9)8-26-16-13(19)12-2-1-10-7-17(12)14(20)18(10)27-29(23,24)25/h9-12H,1-8,15H2,(H,16,19)(H,23,24,25)/t10-,11?,12+/m1/s1
InChIKey=NUVJQYJOUQZFCE-LWALXPGCSA-N

> <PUBCHEM_SUBSTANCE_SYNONYM>
SCHEMBL16124396

> <PUBCHEM_XREF_EXT_ID>
SCHEMBL16124396

> <PUBCHEM_EXT_DATASOURCE_URL>
https://www.surechembl.org/

> <PUBCHEM_EXT_SUBSTANCE_URL>
https://www.surechembl.org/chemical/SCHEMBL16124396

> <PUBCHEM_CID_ASSOCIATIONS>
117612226  1

> <PUBCHEM_COORDINATE_TYPE>
1
3

> <PUBCHEM_BONDANNOTATIONS>
17  19  6
18  22  6

$$$$
