310933151
  -OEChem-07211613022D

 25 28  0     1  0  0  0  0  0999 V2000
    2.7863   -1.6297    0.0000 O   0  0  0  0  0  0  0  0  0  0  0  0
    3.9165   -3.6011    0.0000 O   0  0  0  0  0  0  0  0  0  0  0  0
    4.6526   -2.3657    0.0000 O   0  0  0  0  0  0  0  0  0  0  0  0
    2.3657   -2.3657    0.0000 C   0  0  3  0  0  0  0  0  0  0  0  0
    3.2068   -2.3657    0.0000 C   0  0  3  0  0  0  0  0  0  0  0  0
    1.7874   -1.7612    0.0000 C   0  0  0  0  0  0  0  0  0  0  0  0
    1.6560   -2.7600    0.0000 C   0  0  0  0  0  0  0  0  0  0  0  0
    3.9165   -2.7600    0.0000 C   0  0  0  0  0  0  0  0  0  0  0  0
    0.9726   -1.9714    0.0000 C   0  0  0  0  0  0  0  0  0  0  0  0
    1.9977   -0.9463    0.0000 C   0  0  0  0  0  0  0  0  0  0  0  0
    1.6297   -3.6011    0.0000 C   0  0  0  0  0  0  0  0  0  0  0  0
    0.9200   -2.3657    0.0000 C   0  0  0  0  0  0  0  0  0  0  0  0
    0.3943   -1.3931    0.0000 C   0  0  0  0  0  0  0  0  0  0  0  0
    1.3931   -0.3680    0.0000 C   0  0  0  0  0  0  0  0  0  0  0  0
    0.9200   -4.0217    0.0000 C   0  0  0  0  0  0  0  0  0  0  0  0
    0.2103   -2.7600    0.0000 C   0  0  0  0  0  0  0  0  0  0  0  0
    0.6046   -0.5783    0.0000 C   0  0  0  0  0  0  0  0  0  0  0  0
    4.6526   -4.0217    0.0000 C   0  0  0  0  0  0  0  0  0  0  0  0
    0.2103   -3.6011    0.0000 C   0  0  0  0  0  0  0  0  0  0  0  0
    5.3623   -3.6011    0.0000 C   0  0  0  0  0  0  0  0  0  0  0  0
    4.6526   -4.8366    0.0000 C   0  0  0  0  0  0  0  0  0  0  0  0
    0.0000    0.0000    0.0000 C   0  0  0  0  0  0  0  0  0  0  0  0
    6.0720   -4.0217    0.0000 C   0  0  0  0  0  0  0  0  0  0  0  0
    5.3623   -5.2571    0.0000 C   0  0  0  0  0  0  0  0  0  0  0  0
    6.0720   -4.8366    0.0000 C   0  0  0  0  0  0  0  0  0  0  0  0
  1  4  1  0  0  0  0
  1  5  1  0  0  0  0
  2  8  1  0  0  0  0
  2 18  1  0  0  0  0
  3  8  2  0  0  0  0
  4  5  1  0  0  0  0
  4  6  1  0  0  0  0
  4  7  1  0  0  0  0
  5  8  1  0  0  0  0
  6  9  2  0  0  0  0
  6 10  1  0  0  0  0
  7 11  2  0  0  0  0
  7 12  1  0  0  0  0
  9 13  1  0  0  0  0
 10 14  2  0  0  0  0
 11 15  1  0  0  0  0
 12 16  2  0  0  0  0
 13 17  2  0  0  0  0
 14 17  1  0  0  0  0
 15 19  2  0  0  0  0
 16 19  1  0  0  0  0
 17 22  1  0  0  0  0
 18 20  2  0  0  0  0
 18 21  1  0  0  0  0
 20 23  1  0  0  0  0
 21 24  2  0  0  0  0
 23 25  2  0  0  0  0
 24 25  1  0  0  0  0
M  END
> <PUBCHEM_COMPOUND_ID_TYPE>
0

> <PUBCHEM_TOTAL_CHARGE>
0

> <PUBCHEM_SUBSTANCE_ID>
310933151

> <PUBCHEM_SUBSTANCE_VERSION>
1

> <PUBCHEM_EXT_DATASOURCE_NAME>
4488

> <PUBCHEM_EXT_DATASOURCE_REGID>
SCHEMBL16110559

> <PUBCHEM_SUBSTANCE_COMMENT>
InChI=1S/C22H18O3/c1-16-12-14-18(15-13-16)22(17-8-4-2-5-9-17)20(25-22)21(23)24-19-10-6-3-7-11-19/h2-15,20H,1H3
InChIKey=WPOSPDDTWIRXMI-UHFFFAOYSA-N

> <PUBCHEM_SUBSTANCE_SYNONYM>
SCHEMBL16110559

> <PUBCHEM_XREF_EXT_ID>
SCHEMBL16110559

> <PUBCHEM_EXT_DATASOURCE_URL>
https://www.surechembl.org/

> <PUBCHEM_EXT_SUBSTANCE_URL>
https://www.surechembl.org/chemical/SCHEMBL16110559

> <PUBCHEM_CID_ASSOCIATIONS>
117601603  1

> <PUBCHEM_COORDINATE_TYPE>
1
3

$$$$
