310944655
  -OEChem-07211613022D

 31 34  0     1  0  0  0  0  0999 V2000
   -3.7148   -0.5156    0.0000 Cl  0  0  0  0  0  0  0  0  0  0  0  0
   -0.6833   -0.5156    0.0000 O   0  0  0  0  0  0  0  0  0  0  0  0
    0.7455    1.9692    0.0000 O   0  0  0  0  0  0  0  0  0  0  0  0
    4.9697   -0.7641    0.0000 O   0  0  0  0  0  0  0  0  0  0  0  0
    1.4909    0.7392    0.0000 N   0  0  0  0  0  0  0  0  0  0  0  0
    3.5533   -0.7641    0.0000 N   0  0  0  0  0  0  0  0  0  0  0  0
   -0.6709    1.1492    0.0000 N   0  0  0  0  0  0  0  0  0  0  0  0
    2.2736   -0.3416    0.0000 C   0  0  3  0  0  0  0  0  0  0  0  0
    2.7582    0.3292    0.0000 C   0  0  3  0  0  0  0  0  0  0  0  0
    1.5033   -0.0932    0.0000 C   0  0  0  0  0  0  0  0  0  0  0  0
    2.2612    0.9877    0.0000 C   0  0  0  0  0  0  0  0  0  0  0  0
    2.7706   -1.0125    0.0000 C   0  0  0  0  0  0  0  0  0  0  0  0
    3.5533    0.0683    0.0000 C   0  0  0  0  0  0  0  0  0  0  0  0
    0.7455    1.1368    0.0000 C   0  0  0  0  0  0  0  0  0  0  0  0
   -2.8203    0.7392    0.0000 C   0  0  0  0  0  0  0  0  0  0  0  0
   -1.3915    0.7392    0.0000 C   0  0  0  0  0  0  0  0  0  0  0  0
   -1.4039   -0.0807    0.0000 C   0  0  0  0  0  0  0  0  0  0  0  0
   -2.8203   -0.0932    0.0000 C   0  0  0  0  0  0  0  0  0  0  0  0
    4.2615   -1.1741    0.0000 C   0  0  0  0  0  0  0  0  0  0  0  0
   -2.1121    1.1368    0.0000 C   0  0  0  0  0  0  0  0  0  0  0  0
   -3.5533    1.1617    0.0000 C   0  0  0  0  0  0  0  0  0  0  0  0
   -2.0996   -0.5032    0.0000 C   0  0  0  0  0  0  0  0  0  0  0  0
    0.0497    0.7392    0.0000 C   0  0  0  0  0  0  0  0  0  0  0  0
   -4.2490    0.7392    0.0000 C   0  0  0  0  0  0  0  0  0  0  0  0
   -3.5409    1.9692    0.0000 C   0  0  0  0  0  0  0  0  0  0  0  0
    4.2615   -2.0189    0.0000 C   0  0  0  0  0  0  0  0  0  0  0  0
   -4.9697    1.1492    0.0000 C   0  0  0  0  0  0  0  0  0  0  0  0
   -4.2614    2.3792    0.0000 C   0  0  0  0  0  0  0  0  0  0  0  0
   -4.9697    1.9692    0.0000 C   0  0  0  0  0  0  0  0  0  0  0  0
    0.0372   -0.0932    0.0000 C   0  0  0  0  0  0  0  0  0  0  0  0
    3.5285   -2.3792    0.0000 C   0  0  0  0  0  0  0  0  0  0  0  0
  1 18  1  0  0  0  0
  2 17  1  0  0  0  0
  2 30  1  0  0  0  0
  3 14  2  0  0  0  0
  4 19  2  0  0  0  0
  5 10  1  0  0  0  0
  5 11  1  0  0  0  0
  5 14  1  0  0  0  0
  6 12  1  0  0  0  0
  6 13  1  0  0  0  0
  6 19  1  0  0  0  0
  7 16  1  0  0  0  0
  7 23  1  0  0  0  0
  8  9  1  0  0  0  0
  8 10  1  0  0  0  0
  8 12  1  0  0  0  0
  9 11  1  0  0  0  0
  9 13  1  0  0  0  0
 14 23  1  0  0  0  0
 15 18  2  0  0  0  0
 15 20  1  0  0  0  0
 15 21  1  0  0  0  0
 16 17  1  0  0  0  0
 16 20  2  0  0  0  0
 17 22  2  0  0  0  0
 18 22  1  0  0  0  0
 19 26  1  0  0  0  0
 21 24  2  0  0  0  0
 21 25  1  0  0  0  0
 24 27  1  0  0  0  0
 25 28  2  0  0  0  0
 26 31  2  0  0  0  0
 27 29  2  0  0  0  0
 28 29  1  0  0  0  0
M  END
> <PUBCHEM_COMPOUND_ID_TYPE>
0

> <PUBCHEM_TOTAL_CHARGE>
0

> <PUBCHEM_SUBSTANCE_ID>
310944655

> <PUBCHEM_SUBSTANCE_VERSION>
1

> <PUBCHEM_EXT_DATASOURCE_NAME>
4488

> <PUBCHEM_EXT_DATASOURCE_REGID>
SCHEMBL16122733

> <PUBCHEM_SUBSTANCE_COMMENT>
InChI=1S/C24H26ClN3O3/c1-3-23(29)27-12-17-14-28(15-18(17)13-27)24(30)11-26-21-9-19(16-7-5-4-6-8-16)20(25)10-22(21)31-2/h3-10,17-18,26H,1,11-15H2,2H3
InChIKey=MRQJTHBMXQXZOB-UHFFFAOYSA-N

> <PUBCHEM_SUBSTANCE_SYNONYM>
SCHEMBL16122733

> <PUBCHEM_XREF_EXT_ID>
SCHEMBL16122733

> <PUBCHEM_EXT_DATASOURCE_URL>
https://www.surechembl.org/

> <PUBCHEM_EXT_SUBSTANCE_URL>
https://www.surechembl.org/chemical/SCHEMBL16122733

> <PUBCHEM_CID_ASSOCIATIONS>
117610885  1

> <PUBCHEM_COORDINATE_TYPE>
1
3

$$$$
