310943529
  -OEChem-07211613022D

 30 32  0     1  0  0  0  0  0999 V2000
    4.6251    1.9313    0.0000 O   0  0  0  0  0  0  0  0  0  0  0  0
    5.3376    0.7562    0.0000 O   0  0  0  0  0  0  0  0  0  0  0  0
   -2.7376   -1.4688    0.0000 N   0  0  3  0  0  0  0  0  0  0  0  0
   -4.5001   -0.9313    0.0000 N   0  0  3  0  0  0  0  0  0  0  0  0
   -0.5875    1.6063    0.0000 N   0  0  0  0  0  0  0  0  0  0  0  0
    3.7251   -0.3938    0.0000 N   0  0  0  0  0  0  0  0  0  0  0  0
    0.1500   -0.6187    0.0000 C   0  0  0  0  0  0  0  0  0  0  0  0
    0.8625   -0.2063    0.0000 C   0  0  0  0  0  0  0  0  0  0  0  0
   -0.5750   -0.2187    0.0000 C   0  0  0  0  0  0  0  0  0  0  0  0
   -1.3001   -1.4563    0.0000 C   0  0  0  0  0  0  0  0  0  0  0  0
   -1.2750   -0.6187    0.0000 C   0  0  0  0  0  0  0  0  0  0  0  0
    0.1250   -1.4688    0.0000 C   0  0  0  0  0  0  0  0  0  0  0  0
   -0.5750   -1.8688    0.0000 C   0  0  0  0  0  0  0  0  0  0  0  0
    0.8625    0.6187    0.0000 C   0  0  0  0  0  0  0  0  0  0  0  0
    1.5750   -0.6187    0.0000 C   0  0  0  0  0  0  0  0  0  0  0  0
    2.2876    0.6313    0.0000 C   0  0  0  0  0  0  0  0  0  0  0  0
   -2.0000   -1.8688    0.0000 C   0  0  0  0  0  0  0  0  0  0  0  0
    1.5876    1.0313    0.0000 C   0  0  0  0  0  0  0  0  0  0  0  0
    2.2876   -0.1937    0.0000 C   0  0  0  0  0  0  0  0  0  0  0  0
   -0.5875    0.8062    0.0000 C   0  0  0  0  0  0  0  0  0  0  0  0
    3.0001    1.0563    0.0000 C   0  0  0  0  0  0  0  0  0  0  0  0
    3.7001    0.6438    0.0000 C   0  0  3  0  0  0  0  0  0  0  0  0
   -3.4001   -1.9313    0.0000 C   0  0  0  0  0  0  0  0  0  0  0  0
   -2.6750   -0.6313    0.0000 C   0  0  0  0  0  0  0  0  0  0  0  0
    4.6126    1.1562    0.0000 C   0  0  0  0  0  0  0  0  0  0  0  0
   -4.2001   -1.6938    0.0000 C   0  0  0  0  0  0  0  0  0  0  0  0
   -3.2751   -0.0688    0.0000 C   0  0  0  0  0  0  0  0  0  0  0  0
    3.7751   -0.0062    0.0000 C   0  0  0  0  0  0  0  0  0  0  0  0
   -4.0876   -0.2063    0.0000 C   0  0  0  0  0  0  0  0  0  0  0  0
   -5.3376   -0.9313    0.0000 C   0  0  0  0  0  0  0  0  0  0  0  0
  1 25  2  0  0  0  0
  2 25  1  0  0  0  0
  3 17  1  0  0  0  0
  3 23  1  0  0  0  0
  3 24  1  0  0  0  0
  4 26  1  0  0  0  0
  4 29  1  0  0  0  0
  4 30  1  0  0  0  0
  5 20  3  0  0  0  0
  6 28  1  0  0  0  0
  7  8  1  0  0  0  0
  7  9  2  0  0  0  0
  7 12  1  0  0  0  0
  8 14  2  0  0  0  0
  8 15  1  0  0  0  0
  9 11  1  0  0  0  0
  9 20  1  0  0  0  0
 10 11  2  0  0  0  0
 10 13  1  0  0  0  0
 10 17  1  0  0  0  0
 12 13  2  0  0  0  0
 14 18  1  0  0  0  0
 15 19  2  0  0  0  0
 16 18  2  0  0  0  0
 16 19  1  0  0  0  0
 16 21  1  0  0  0  0
 21 22  1  0  0  0  0
 22 25  1  0  0  0  0
 22 28  1  0  0  0  0
 23 26  1  0  0  0  0
 24 27  1  0  0  0  0
 27 29  1  0  0  0  0
M  END
> <PUBCHEM_COMPOUND_ID_TYPE>
0

> <PUBCHEM_TOTAL_CHARGE>
0

> <PUBCHEM_SUBSTANCE_ID>
310943529

> <PUBCHEM_SUBSTANCE_VERSION>
1

> <PUBCHEM_EXT_DATASOURCE_NAME>
4488

> <PUBCHEM_EXT_DATASOURCE_REGID>
SCHEMBL16121595

> <PUBCHEM_SUBSTANCE_COMMENT>
InChI=1S/C24H30N4O2/c1-27-9-2-10-28(12-11-27)17-19-5-8-23(21(14-19)15-25)20-6-3-18(4-7-20)13-22(16-26)24(29)30/h3-8,14,22H,2,9-13,16-17,26H2,1H3,(H,29,30)
InChIKey=CXZIXRAEJQVLMR-UHFFFAOYSA-N

> <PUBCHEM_SUBSTANCE_SYNONYM>
SCHEMBL16121595

> <PUBCHEM_XREF_EXT_ID>
SCHEMBL16121595

> <PUBCHEM_EXT_DATASOURCE_URL>
https://www.surechembl.org/

> <PUBCHEM_EXT_SUBSTANCE_URL>
https://www.surechembl.org/chemical/SCHEMBL16121595

> <PUBCHEM_CID_ASSOCIATIONS>
117609943  1

> <PUBCHEM_COORDINATE_TYPE>
1
3

> <PUBCHEM_BONDANNOTATIONS>
22  28  3

$$$$
