310932459
  -OEChem-07211613022D

 21 22  0     1  0  0  0  0  0999 V2000
    3.3000    0.0000    0.0000 O   0  0  0  0  0  0  0  0  0  0  0  0
    4.4380   -1.9630    0.0000 O   0  0  0  0  0  0  0  0  0  0  0  0
    5.1492   -0.7112    0.0000 O   0  0  0  0  0  0  0  0  0  0  0  0
    0.0000   -2.3896    0.0000 O   0  0  0  0  0  0  0  0  0  0  0  0
    3.7267   -0.7112    0.0000 C   0  0  3  0  0  0  0  0  0  0  0  0
    2.9017   -0.7112    0.0000 C   0  0  3  0  0  0  0  0  0  0  0  0
    4.4380   -1.1380    0.0000 C   0  0  0  0  0  0  0  0  0  0  0  0
    2.1620   -1.1380    0.0000 C   0  0  0  0  0  0  0  0  0  0  0  0
    3.4992   -1.5362    0.0000 C   0  0  0  0  0  0  0  0  0  0  0  0
    2.1620   -1.9630    0.0000 C   0  0  0  0  0  0  0  0  0  0  0  0
    1.4508   -0.7396    0.0000 C   0  0  0  0  0  0  0  0  0  0  0  0
    1.4508   -2.3896    0.0000 C   0  0  0  0  0  0  0  0  0  0  0  0
    0.7396   -1.1380    0.0000 C   0  0  0  0  0  0  0  0  0  0  0  0
    0.7396   -1.9630    0.0000 C   0  0  0  0  0  0  0  0  0  0  0  0
    5.1492   -2.3896    0.0000 C   0  0  0  0  0  0  0  0  0  0  0  0
    5.1776   -3.2146    0.0000 C   0  0  0  0  0  0  0  0  0  0  0  0
    0.0000   -3.2146    0.0000 C   0  0  0  0  0  0  0  0  0  0  0  0
    5.8888   -3.6130    0.0000 C   0  0  0  0  0  0  0  0  0  0  0  0
    5.8888   -4.4664    0.0000 C   0  0  0  0  0  0  0  0  0  0  0  0
    6.6000   -4.8646    0.0000 C   0  0  0  0  0  0  0  0  0  0  0  0
    6.6000   -5.6896    0.0000 C   0  0  0  0  0  0  0  0  0  0  0  0
  1  5  1  0  0  0  0
  1  6  1  0  0  0  0
  2  7  1  0  0  0  0
  2 15  1  0  0  0  0
  3  7  2  0  0  0  0
  4 14  1  0  0  0  0
  4 17  1  0  0  0  0
  5  6  1  0  0  0  0
  5  7  1  0  0  0  0
  5  9  1  0  0  0  0
  6  8  1  0  0  0  0
  8 10  2  0  0  0  0
  8 11  1  0  0  0  0
 10 12  1  0  0  0  0
 11 13  2  0  0  0  0
 12 14  2  0  0  0  0
 13 14  1  0  0  0  0
 15 16  1  0  0  0  0
 16 18  1  0  0  0  0
 18 19  1  0  0  0  0
 19 20  1  0  0  0  0
 20 21  1  0  0  0  0
M  END
> <PUBCHEM_COMPOUND_ID_TYPE>
0

> <PUBCHEM_TOTAL_CHARGE>
0

> <PUBCHEM_SUBSTANCE_ID>
310932459

> <PUBCHEM_SUBSTANCE_VERSION>
1

> <PUBCHEM_EXT_DATASOURCE_NAME>
4488

> <PUBCHEM_EXT_DATASOURCE_REGID>
SCHEMBL16109831

> <PUBCHEM_SUBSTANCE_COMMENT>
InChI=1S/C17H24O4/c1-4-5-6-7-12-20-16(18)17(2)15(21-17)13-8-10-14(19-3)11-9-13/h8-11,15H,4-7,12H2,1-3H3
InChIKey=AVUVPKDLKBPQIS-UHFFFAOYSA-N

> <PUBCHEM_SUBSTANCE_SYNONYM>
SCHEMBL16109831

> <PUBCHEM_XREF_EXT_ID>
SCHEMBL16109831

> <PUBCHEM_EXT_DATASOURCE_URL>
https://www.surechembl.org/

> <PUBCHEM_EXT_SUBSTANCE_URL>
https://www.surechembl.org/chemical/SCHEMBL16109831

> <PUBCHEM_CID_ASSOCIATIONS>
117601000  1

> <PUBCHEM_COORDINATE_TYPE>
1
3

$$$$
