310946792
  -OEChem-07211613022D

 23 25  0     1  0  0  0  0  0999 V2000
   -1.4102   -3.6185    0.0000 N   0  0  0  0  0  0  0  0  0  0  0  0
   -1.6816   -6.4178    0.0000 N   0  0  0  0  0  0  0  0  0  0  0  0
   -2.1948   -3.8735    0.0000 N   0  0  0  0  0  0  0  0  0  0  0  0
   -1.1967   -7.0852    0.0000 N   0  0  0  0  0  0  0  0  0  0  0  0
    1.0169   -6.0053    0.0000 N   0  0  3  0  0  0  0  0  0  0  0  0
   -1.1967   -5.7503    0.0000 C   0  0  0  0  0  0  0  0  0  0  0  0
   -1.4102   -4.9534    0.0000 C   0  0  0  0  0  0  0  0  0  0  0  0
   -0.4121   -6.0053    0.0000 C   0  0  0  0  0  0  0  0  0  0  0  0
   -0.9253   -4.2860    0.0000 C   0  0  0  0  0  0  0  0  0  0  0  0
   -2.1948   -4.6985    0.0000 C   0  0  0  0  0  0  0  0  0  0  0  0
   -0.4121   -6.8303    0.0000 C   0  0  0  0  0  0  0  0  0  0  0  0
    0.3024   -5.5928    0.0000 C   0  0  0  0  0  0  0  0  0  0  0  0
   -1.1967   -2.8217    0.0000 C   0  0  0  0  0  0  0  0  0  0  0  0
   -1.7800   -2.2383    0.0000 C   0  0  0  0  0  0  0  0  0  0  0  0
   -1.5665   -1.4414    0.0000 C   0  0  0  0  0  0  0  0  0  0  0  0
   -2.5769   -2.4518    0.0000 C   0  0  0  0  0  0  0  0  0  0  0  0
    1.7314   -5.5928    0.0000 C   0  0  0  0  0  0  0  0  0  0  0  0
    1.0169   -6.8303    0.0000 C   0  0  0  0  0  0  0  0  0  0  0  0
   -2.1499   -0.8580    0.0000 C   0  0  0  0  0  0  0  0  0  0  0  0
   -3.1603   -1.8685    0.0000 C   0  0  0  0  0  0  0  0  0  0  0  0
   -2.9468   -1.0716    0.0000 C   0  0  0  0  0  0  0  0  0  0  0  0
    2.4458   -6.0053    0.0000 C   0  0  0  0  0  0  0  0  0  0  0  0
    3.1603   -5.5928    0.0000 C   0  0  0  0  0  0  0  0  0  0  0  0
  1  3  1  0  0  0  0
  1  9  1  0  0  0  0
  1 13  1  0  0  0  0
  2  4  1  0  0  0  0
  2  6  2  0  0  0  0
  3 10  2  0  0  0  0
  4 11  1  0  0  0  0
  5 12  1  0  0  0  0
  5 17  1  0  0  0  0
  5 18  1  0  0  0  0
  6  7  1  0  0  0  0
  6  8  1  0  0  0  0
  7  9  2  0  0  0  0
  7 10  1  0  0  0  0
  8 11  2  0  0  0  0
  8 12  1  0  0  0  0
 13 14  1  0  0  0  0
 14 15  2  0  0  0  0
 14 16  1  0  0  0  0
 15 19  1  0  0  0  0
 16 20  2  0  0  0  0
 17 22  1  0  0  0  0
 19 21  2  0  0  0  0
 20 21  1  0  0  0  0
 22 23  1  0  0  0  0
M  END
> <PUBCHEM_COMPOUND_ID_TYPE>
0

> <PUBCHEM_TOTAL_CHARGE>
0

> <PUBCHEM_SUBSTANCE_ID>
310946792

> <PUBCHEM_SUBSTANCE_VERSION>
1

> <PUBCHEM_EXT_DATASOURCE_NAME>
4488

> <PUBCHEM_EXT_DATASOURCE_REGID>
SCHEMBL16124916

> <PUBCHEM_SUBSTANCE_COMMENT>
InChI=1S/C18H23N5/c1-3-9-22(2)13-16-10-19-21-18(16)17-11-20-23(14-17)12-15-7-5-4-6-8-15/h4-8,10-11,14H,3,9,12-13H2,1-2H3,(H,19,21)
InChIKey=BSVCEIBTQLVVLO-UHFFFAOYSA-N

> <PUBCHEM_SUBSTANCE_SYNONYM>
SCHEMBL16124916

> <PUBCHEM_XREF_EXT_ID>
SCHEMBL16124916

> <PUBCHEM_EXT_DATASOURCE_URL>
https://www.surechembl.org/

> <PUBCHEM_EXT_SUBSTANCE_URL>
https://www.surechembl.org/chemical/SCHEMBL16124916

> <PUBCHEM_CID_ASSOCIATIONS>
117612653  1

> <PUBCHEM_COORDINATE_TYPE>
1
3

$$$$
