310945132
  -OEChem-07211613022D

 35 39  0     1  0  0  0  0  0999 V2000
    3.5530    2.9813    0.0000 O   0  0  0  0  0  0  0  0  0  0  0  0
    0.3019   -0.8352    0.0000 O   0  0  0  0  0  0  0  0  0  0  0  0
   -4.2726   -1.5548    0.0000 O   0  0  0  0  0  0  0  0  0  0  0  0
    2.0496    0.6554    0.0000 N   0  0  0  0  0  0  0  0  0  0  0  0
    4.2726    1.7348    0.0000 N   0  0  0  0  0  0  0  0  0  0  0  0
    4.2726   -0.7453    0.0000 N   0  0  0  0  0  0  0  0  0  0  0  0
   -0.9445    1.3236    0.0000 N   0  0  0  0  0  0  0  0  0  0  0  0
   -0.9445   -0.1156    0.0000 N   0  0  0  0  0  0  0  0  0  0  0  0
   -3.0134   -2.2617    0.0000 N   0  0  0  0  0  0  0  0  0  0  0  0
    3.5530    0.4883    0.0000 C   0  0  3  0  0  0  0  0  0  0  0  0
    2.8077    0.9124    0.0000 C   0  0  0  0  0  0  0  0  0  0  0  0
    2.8334    1.7348    0.0000 C   0  0  0  0  0  0  0  0  0  0  0  0
    1.5484    1.3107    0.0000 C   0  0  0  0  0  0  0  0  0  0  0  0
    3.5402    2.1331    0.0000 C   0  0  0  0  0  0  0  0  0  0  0  0
    2.0496    1.9917    0.0000 C   0  0  0  0  0  0  0  0  0  0  0  0
    4.2726    0.9124    0.0000 C   0  0  0  0  0  0  0  0  0  0  0  0
    4.2726    0.0643    0.0000 C   0  0  0  0  0  0  0  0  0  0  0  0
    2.8334    0.0771    0.0000 C   0  0  0  0  0  0  0  0  0  0  0  0
    0.7261    1.3236    0.0000 C   0  0  0  0  0  0  0  0  0  0  0  0
    0.3019    0.6040    0.0000 C   0  0  0  0  0  0  0  0  0  0  0  0
    2.8334   -0.7453    0.0000 C   0  0  0  0  0  0  0  0  0  0  0  0
    0.3019    2.0303    0.0000 C   0  0  0  0  0  0  0  0  0  0  0  0
   -0.5333    0.6040    0.0000 C   0  0  0  0  0  0  0  0  0  0  0  0
    3.5659   -1.1565    0.0000 C   0  0  0  0  0  0  0  0  0  0  0  0
   -0.5204    2.0432    0.0000 C   0  0  0  0  0  0  0  0  0  0  0  0
   -0.5461   -0.8224    0.0000 C   0  0  0  0  0  0  0  0  0  0  0  0
   -0.9573   -1.5548    0.0000 C   0  0  0  0  0  0  0  0  0  0  0  0
   -1.7669   -1.5548    0.0000 C   0  0  0  0  0  0  0  0  0  0  0  0
   -2.1910   -2.2745    0.0000 C   0  0  0  0  0  0  0  0  0  0  0  0
   -0.5333   -2.2488    0.0000 C   0  0  0  0  0  0  0  0  0  0  0  0
   -1.7669   -2.9813    0.0000 C   0  0  0  0  0  0  0  0  0  0  0  0
   -0.9445   -2.9813    0.0000 C   0  0  0  0  0  0  0  0  0  0  0  0
   -3.4117   -1.5548    0.0000 C   0  0  0  0  0  0  0  0  0  0  0  0
   -3.0262   -0.8224    0.0000 C   0  0  0  0  0  0  0  0  0  0  0  0
   -3.5017   -0.1542    0.0000 C   0  0  0  0  0  0  0  0  0  0  0  0
  1 14  2  0  0  0  0
  2 26  2  0  0  0  0
  3 33  2  0  0  0  0
  4 11  1  0  0  0  0
  4 13  1  0  0  0  0
  5 14  1  0  0  0  0
  5 16  1  0  0  0  0
  6 17  1  0  0  0  0
  6 24  1  0  0  0  0
  7 23  1  0  0  0  0
  7 25  2  0  0  0  0
  8 23  1  0  0  0  0
  8 26  1  0  0  0  0
  9 29  1  0  0  0  0
  9 33  1  0  0  0  0
 10 11  1  0  0  0  0
 10 16  1  0  0  0  0
 10 17  1  0  0  0  0
 10 18  1  0  0  0  0
 11 12  2  0  0  0  0
 12 14  1  0  0  0  0
 12 15  1  0  0  0  0
 13 15  2  0  0  0  0
 13 19  1  0  0  0  0
 18 21  1  0  0  0  0
 19 20  1  0  0  0  0
 19 22  2  0  0  0  0
 20 23  2  0  0  0  0
 21 24  1  0  0  0  0
 22 25  1  0  0  0  0
 26 27  1  0  0  0  0
 27 28  2  0  0  0  0
 27 30  1  0  0  0  0
 28 29  1  0  0  0  0
 29 31  2  0  0  0  0
 30 32  2  0  0  0  0
 31 32  1  0  0  0  0
 33 34  1  0  0  0  0
 34 35  2  0  0  0  0
M  END
> <PUBCHEM_COMPOUND_ID_TYPE>
0

> <PUBCHEM_TOTAL_CHARGE>
0

> <PUBCHEM_SUBSTANCE_ID>
310945132

> <PUBCHEM_SUBSTANCE_VERSION>
1

> <PUBCHEM_EXT_DATASOURCE_NAME>
4488

> <PUBCHEM_EXT_DATASOURCE_REGID>
SCHEMBL16123222

> <PUBCHEM_SUBSTANCE_COMMENT>
InChI=1S/C26H26N6O3/c1-2-22(33)30-18-6-3-5-17(11-18)24(34)32-21-12-16(7-10-28-21)20-13-19-23(31-20)26(15-29-25(19)35)8-4-9-27-14-26/h2-3,5-7,10-13,27,31H,1,4,8-9,14-15H2,(H,29,35)(H,30,33)(H,28,32,34)
InChIKey=IZIFMURQJOOSPC-UHFFFAOYSA-N

> <PUBCHEM_SUBSTANCE_SYNONYM>
SCHEMBL16123222

> <PUBCHEM_XREF_EXT_ID>
SCHEMBL16123222

> <PUBCHEM_EXT_DATASOURCE_URL>
https://www.surechembl.org/

> <PUBCHEM_EXT_SUBSTANCE_URL>
https://www.surechembl.org/chemical/SCHEMBL16123222

> <PUBCHEM_CID_ASSOCIATIONS>
86301991  1

> <PUBCHEM_COORDINATE_TYPE>
1
3

$$$$
