310930089
  -OEChem-07211613022D

 37 39  0     1  0  0  0  0  0999 V2000
    7.6405   -4.0689    0.0000 F   0  0  0  0  0  0  0  0  0  0  0  0
    6.4650   -3.2551    0.0000 F   0  0  0  0  0  0  0  0  0  0  0  0
    7.1884   -4.7471    0.0000 F   0  0  0  0  0  0  0  0  0  0  0  0
    6.7363   -4.8375    0.0000 O   0  0  0  0  0  0  0  0  0  0  0  0
    3.7976   -6.1938    0.0000 O   0  0  0  0  0  0  0  0  0  0  0  0
    2.3509    0.0000    0.0000 O   0  0  0  0  0  0  0  0  0  0  0  0
    3.6168   -8.3638    0.0000 O   0  0  0  0  0  0  0  0  0  0  0  0
    0.0000   -4.5210    0.0000 O   0  0  0  0  0  0  0  0  0  0  0  0
    3.0743   -2.0797    0.0000 N   0  0  0  0  0  0  0  0  0  0  0  0
    2.3962   -2.5770    0.0000 N   0  0  0  0  0  0  0  0  0  0  0  0
    1.6275   -1.2207    0.0000 N   0  0  0  0  0  0  0  0  0  0  0  0
    6.1034   -4.3402    0.0000 C   0  0  3  0  0  0  0  0  0  0  0  0
    5.3348   -4.6115    0.0000 C   0  0  0  0  0  0  0  0  0  0  0  0
    4.8375   -3.8881    0.0000 C   0  0  0  0  0  0  0  0  0  0  0  0
    6.1034   -3.4812    0.0000 C   0  0  0  0  0  0  0  0  0  0  0  0
    5.3348   -3.2551    0.0000 C   0  0  0  0  0  0  0  0  0  0  0  0
    6.8268   -3.9785    0.0000 C   0  0  0  0  0  0  0  0  0  0  0  0
    3.9785   -3.9785    0.0000 C   0  0  0  0  0  0  0  0  0  0  0  0
    4.9731   -5.3800    0.0000 C   0  0  0  0  0  0  0  0  0  0  0  0
    6.6911   -2.9838    0.0000 C   0  0  0  0  0  0  0  0  0  0  0  0
    3.4812   -3.3456    0.0000 C   0  0  0  0  0  0  0  0  0  0  0  0
    4.1593   -5.4252    0.0000 C   0  0  0  0  0  0  0  0  0  0  0  0
    3.6620   -4.7471    0.0000 C   0  0  0  0  0  0  0  0  0  0  0  0
    5.1540   -2.4413    0.0000 C   0  0  0  0  0  0  0  0  0  0  0  0
    6.5554   -2.1701    0.0000 C   0  0  0  0  0  0  0  0  0  0  0  0
    3.7072   -2.5318    0.0000 C   0  0  0  0  0  0  0  0  0  0  0  0
    5.7869   -1.8988    0.0000 C   0  0  0  0  0  0  0  0  0  0  0  0
    2.6674   -3.3456    0.0000 C   0  0  0  0  0  0  0  0  0  0  0  0
    3.0743   -1.2207    0.0000 C   0  0  0  0  0  0  0  0  0  0  0  0
    2.3509   -0.8138    0.0000 C   0  0  0  0  0  0  0  0  0  0  0  0
    4.2950   -6.8719    0.0000 C   0  0  0  0  0  0  0  0  0  0  0  0
    3.7976   -0.8138    0.0000 C   0  0  0  0  0  0  0  0  0  0  0  0
    3.0743   -0.4069    0.0000 C   0  0  0  0  0  0  0  0  0  0  0  0
    3.9332   -7.5953    0.0000 C   0  0  0  0  0  0  0  0  0  0  0  0
    4.4306   -8.2734    0.0000 C   0  0  0  0  0  0  0  0  0  0  0  0
    4.0689   -9.0420    0.0000 C   0  0  0  0  0  0  0  0  0  0  0  0
    5.2444   -8.1830    0.0000 C   0  0  0  0  0  0  0  0  0  0  0  0
  1 17  1  0  0  0  0
  2 17  1  0  0  0  0
  3 17  1  0  0  0  0
 12  4  1  1  0  0  0
  5 22  1  0  0  0  0
  5 31  1  0  0  0  0
  6 30  2  0  0  0  0
  7 35  1  0  0  0  0
  9 10  1  0  0  0  0
  9 26  1  0  0  0  0
  9 29  1  0  0  0  0
 10 28  2  0  0  0  0
 11 30  1  0  0  0  0
 12 13  1  0  0  0  0
 12 15  1  0  0  0  0
 12 17  1  6  0  0  0
 13 14  2  0  0  0  0
 13 19  1  0  0  0  0
 14 16  1  0  0  0  0
 14 18  1  0  0  0  0
 15 16  2  0  0  0  0
 15 20  1  0  0  0  0
 16 24  1  0  0  0  0
 18 21  1  0  0  0  0
 18 23  2  0  0  0  0
 19 22  2  0  0  0  0
 20 25  2  0  0  0  0
 21 26  2  0  0  0  0
 21 28  1  0  0  0  0
 22 23  1  0  0  0  0
 24 27  2  0  0  0  0
 25 27  1  0  0  0  0
 29 30  1  0  0  0  0
 29 32  1  0  0  0  0
 29 33  1  0  0  0  0
 31 34  1  0  0  0  0
 34 35  1  0  0  0  0
 35 36  1  0  0  0  0
 35 37  1  0  0  0  0
M  END
> <PUBCHEM_COMPOUND_ID_TYPE>
0

> <PUBCHEM_TOTAL_CHARGE>
0

> <PUBCHEM_SUBSTANCE_ID>
310930089

> <PUBCHEM_SUBSTANCE_VERSION>
1

> <PUBCHEM_EXT_DATASOURCE_NAME>
4488

> <PUBCHEM_EXT_DATASOURCE_REGID>
SCHEMBL16107333

> <PUBCHEM_SUBSTANCE_COMMENT>
InChI=1S/C26H28F3N3O4.H2O/c1-23(2,34)9-10-36-16-11-18(15-13-31-32(14-15)24(3,4)22(30)33)21-17-7-5-6-8-19(17)25(35,20(21)12-16)26(27,28)29;/h5-8,11-14,34-35H,9-10H2,1-4H3,(H2,30,33);1H2/t25-;/m1./s1
InChIKey=WTPZYIZNHQOCOQ-VQIWEWKSSA-N

> <PUBCHEM_SUBSTANCE_SYNONYM>
SCHEMBL16107333

> <PUBCHEM_XREF_EXT_ID>
SCHEMBL16107333

> <PUBCHEM_EXT_DATASOURCE_URL>
https://www.surechembl.org/

> <PUBCHEM_EXT_SUBSTANCE_URL>
https://www.surechembl.org/chemical/SCHEMBL16107333

> <PUBCHEM_CID_ASSOCIATIONS>
78324948  1
962  2
78210288  2

> <PUBCHEM_COORDINATE_TYPE>
1
3

> <PUBCHEM_BONDANNOTATIONS>
12  17  6
12  4  5

$$$$
