310931656
  -OEChem-07211613022D

 23 25  0     1  0  0  0  0  0999 V2000
    2.7578   -1.6028    0.0000 O   0  0  0  0  0  0  0  0  0  0  0  0
    3.8891   -3.5592    0.0000 O   0  0  0  0  0  0  0  0  0  0  0  0
    4.5962   -2.3335    0.0000 O   0  0  0  0  0  0  0  0  0  0  0  0
    2.3571   -2.3335    0.0000 C   0  0  3  0  0  0  0  0  0  0  0  0
    3.1820   -2.3335    0.0000 C   0  0  3  0  0  0  0  0  0  0  0  0
    1.7678   -1.7442    0.0000 C   0  0  0  0  0  0  0  0  0  0  0  0
    1.6264   -2.7342    0.0000 C   0  0  0  0  0  0  0  0  0  0  0  0
    3.8891   -2.7342    0.0000 C   0  0  0  0  0  0  0  0  0  0  0  0
    0.9428   -1.9564    0.0000 C   0  0  0  0  0  0  0  0  0  0  0  0
    1.9564   -0.9428    0.0000 C   0  0  0  0  0  0  0  0  0  0  0  0
    1.6264   -3.5827    0.0000 C   0  0  0  0  0  0  0  0  0  0  0  0
    0.9193   -2.3335    0.0000 C   0  0  0  0  0  0  0  0  0  0  0  0
    0.3771   -1.3907    0.0000 C   0  0  0  0  0  0  0  0  0  0  0  0
    1.3907   -0.3771    0.0000 C   0  0  0  0  0  0  0  0  0  0  0  0
    4.5962   -3.9834    0.0000 C   0  0  0  0  0  0  0  0  0  0  0  0
    0.9193   -3.9834    0.0000 C   0  0  0  0  0  0  0  0  0  0  0  0
    0.1886   -2.7342    0.0000 C   0  0  0  0  0  0  0  0  0  0  0  0
    0.5893   -0.5893    0.0000 C   0  0  0  0  0  0  0  0  0  0  0  0
    0.1886   -3.5592    0.0000 C   0  0  0  0  0  0  0  0  0  0  0  0
    4.1720   -4.7141    0.0000 C   0  0  0  0  0  0  0  0  0  0  0  0
    5.3033   -4.3841    0.0000 C   0  0  0  0  0  0  0  0  0  0  0  0
    4.9969   -3.2763    0.0000 C   0  0  0  0  0  0  0  0  0  0  0  0
    0.0000    0.0000    0.0000 C   0  0  0  0  0  0  0  0  0  0  0  0
  1  4  1  0  0  0  0
  1  5  1  0  0  0  0
  2  8  1  0  0  0  0
  2 15  1  0  0  0  0
  3  8  2  0  0  0  0
  4  5  1  0  0  0  0
  4  6  1  0  0  0  0
  4  7  1  0  0  0  0
  5  8  1  0  0  0  0
  6  9  2  0  0  0  0
  6 10  1  0  0  0  0
  7 11  2  0  0  0  0
  7 12  1  0  0  0  0
  9 13  1  0  0  0  0
 10 14  2  0  0  0  0
 11 16  1  0  0  0  0
 12 17  2  0  0  0  0
 13 18  2  0  0  0  0
 14 18  1  0  0  0  0
 15 20  1  0  0  0  0
 15 21  1  0  0  0  0
 15 22  1  0  0  0  0
 16 19  2  0  0  0  0
 17 19  1  0  0  0  0
 18 23  1  0  0  0  0
M  END
> <PUBCHEM_COMPOUND_ID_TYPE>
0

> <PUBCHEM_TOTAL_CHARGE>
0

> <PUBCHEM_SUBSTANCE_ID>
310931656

> <PUBCHEM_SUBSTANCE_VERSION>
1

> <PUBCHEM_EXT_DATASOURCE_NAME>
4488

> <PUBCHEM_EXT_DATASOURCE_REGID>
SCHEMBL16108982

> <PUBCHEM_SUBSTANCE_COMMENT>
InChI=1S/C20H22O3/c1-14-10-12-16(13-11-14)20(15-8-6-5-7-9-15)17(22-20)18(21)23-19(2,3)4/h5-13,17H,1-4H3
InChIKey=OWCMGRMXUCRKAX-UHFFFAOYSA-N

> <PUBCHEM_SUBSTANCE_SYNONYM>
SCHEMBL16108982

> <PUBCHEM_XREF_EXT_ID>
SCHEMBL16108982

> <PUBCHEM_EXT_DATASOURCE_URL>
https://www.surechembl.org/

> <PUBCHEM_EXT_SUBSTANCE_URL>
https://www.surechembl.org/chemical/SCHEMBL16108982

> <PUBCHEM_CID_ASSOCIATIONS>
117600366  1

> <PUBCHEM_COORDINATE_TYPE>
1
3

$$$$
