310930075
  -OEChem-07211613022D

 33 35  0     1  0  0  0  0  0999 V2000
    2.5928   -3.6536    0.0000 F   0  0  0  0  0  0  0  0  0  0  0  0
    2.5928   -2.1804    0.0000 F   0  0  0  0  0  0  0  0  0  0  0  0
    1.7678   -3.6536    0.0000 F   0  0  0  0  0  0  0  0  0  0  0  0
    0.0000    0.0000    0.0000 O   0  5  0  0  0  0  0  0  0  0  0  0
    1.4732    0.0000    0.0000 O   0  0  0  0  0  0  0  0  0  0  0  0
    0.0000   -6.7178    0.0000 O   0  0  0  0  0  0  0  0  0  0  0  0
    2.8875  -11.7856    0.0000 O   0  5  0  0  0  0  0  0  0  0  0  0
    1.4143  -11.7856    0.0000 O   0  0  0  0  0  0  0  0  0  0  0  0
    1.4143   -5.0678    0.0000 N   0  0  3  0  0  0  0  0  0  0  0  0
    0.7071   -0.4125    0.0000 N   0  3  0  0  0  0  0  0  0  0  0  0
    1.4143   -6.7178    0.0000 N   0  0  0  0  0  0  0  0  0  0  0  0
    2.1804  -11.3731    0.0000 N   0  3  0  0  0  0  0  0  0  0  0  0
    1.4143   -2.5339    0.0000 C   0  0  0  0  0  0  0  0  0  0  0  0
    0.7071   -2.9464    0.0000 C   0  0  0  0  0  0  0  0  0  0  0  0
    2.1804   -2.9464    0.0000 C   0  0  0  0  0  0  0  0  0  0  0  0
    1.4143   -1.7089    0.0000 C   0  0  0  0  0  0  0  0  0  0  0  0
    0.7071   -1.2375    0.0000 C   0  0  0  0  0  0  0  0  0  0  0  0
    0.0000   -2.5339    0.0000 C   0  0  0  0  0  0  0  0  0  0  0  0
    0.7071   -3.7714    0.0000 C   0  0  0  0  0  0  0  0  0  0  0  0
    0.0000   -1.7089    0.0000 C   0  0  0  0  0  0  0  0  0  0  0  0
    1.4143   -4.1839    0.0000 C   0  0  0  0  0  0  0  0  0  0  0  0
    0.7071   -6.3053    0.0000 C   0  0  0  0  0  0  0  0  0  0  0  0
    0.7071   -5.4803    0.0000 C   0  0  0  0  0  0  0  0  0  0  0  0
    2.1804   -5.4803    0.0000 C   0  0  0  0  0  0  0  0  0  0  0  0
    2.1804   -6.3053    0.0000 C   0  0  0  0  0  0  0  0  0  0  0  0
    1.4143   -7.6017    0.0000 C   0  0  0  0  0  0  0  0  0  0  0  0
    2.1804   -8.8392    0.0000 C   0  0  0  0  0  0  0  0  0  0  0  0
    2.1804   -8.0142    0.0000 C   0  0  0  0  0  0  0  0  0  0  0  0
    2.1804  -10.5481    0.0000 C   0  0  0  0  0  0  0  0  0  0  0  0
    2.8875   -9.2517    0.0000 C   0  0  0  0  0  0  0  0  0  0  0  0
    1.4732   -9.2517    0.0000 C   0  0  0  0  0  0  0  0  0  0  0  0
    2.8875  -10.0767    0.0000 C   0  0  0  0  0  0  0  0  0  0  0  0
    1.4732  -10.0767    0.0000 C   0  0  0  0  0  0  0  0  0  0  0  0
  1 15  1  0  0  0  0
  2 15  1  0  0  0  0
  3 15  1  0  0  0  0
  4 10  1  0  0  0  0
  5 10  2  0  0  0  0
  6 22  2  0  0  0  0
  7 12  1  0  0  0  0
  8 12  2  0  0  0  0
  9 21  1  0  0  0  0
  9 23  1  0  0  0  0
  9 24  1  0  0  0  0
 10 17  1  0  0  0  0
 11 22  1  0  0  0  0
 11 25  1  0  0  0  0
 11 26  1  0  0  0  0
 12 29  1  0  0  0  0
 13 14  1  0  0  0  0
 13 15  1  0  0  0  0
 13 16  2  0  0  0  0
 14 18  2  0  0  0  0
 14 19  1  0  0  0  0
 16 17  1  0  0  0  0
 17 20  2  0  0  0  0
 18 20  1  0  0  0  0
 19 21  1  0  0  0  0
 22 23  1  0  0  0  0
 24 25  1  0  0  0  0
 26 28  1  0  0  0  0
 27 28  1  0  0  0  0
 27 30  2  0  0  0  0
 27 31  1  0  0  0  0
 29 32  2  0  0  0  0
 29 33  1  0  0  0  0
 30 32  1  0  0  0  0
 31 33  2  0  0  0  0
M  CHG  4   4  -1   7  -1  10   1  12   1
M  END
> <PUBCHEM_COMPOUND_ID_TYPE>
0

> <PUBCHEM_TOTAL_CHARGE>
0

> <PUBCHEM_SUBSTANCE_ID>
310930075

> <PUBCHEM_SUBSTANCE_VERSION>
1

> <PUBCHEM_EXT_DATASOURCE_NAME>
4488

> <PUBCHEM_EXT_DATASOURCE_REGID>
SCHEMBL16107318

> <PUBCHEM_SUBSTANCE_COMMENT>
InChI=1S/C21H21F3N4O5/c22-21(23,24)19-13-18(28(32)33)6-3-16(19)8-9-25-11-12-26(20(29)14-25)10-7-15-1-4-17(5-2-15)27(30)31/h1-6,13H,7-12,14H2
InChIKey=PKUYQGNBWABUMT-UHFFFAOYSA-N

> <PUBCHEM_SUBSTANCE_SYNONYM>
SCHEMBL16107318

> <PUBCHEM_XREF_EXT_ID>
SCHEMBL16107318

> <PUBCHEM_EXT_DATASOURCE_URL>
https://www.surechembl.org/

> <PUBCHEM_EXT_SUBSTANCE_URL>
https://www.surechembl.org/chemical/SCHEMBL16107318

> <PUBCHEM_CID_ASSOCIATIONS>
117599312  1

> <PUBCHEM_COORDINATE_TYPE>
1
3

$$$$
