310946549
  -OEChem-07211613022D

 17 16  0     1  0  0  0  0  0999 V2000
   -7.8153    0.1062    0.0000 O   0  0  0  0  0  0  0  0  0  0  0  0
   -7.1008    1.3437    0.0000 O   0  0  0  0  0  0  0  0  0  0  0  0
   -8.5298    1.3437    0.0000 O   0  0  0  0  0  0  0  0  0  0  0  0
   -7.8153   -2.3688    0.0000 O   0  0  0  0  0  0  0  0  0  0  0  0
   -7.1008   -1.1313    0.0000 O   0  0  0  0  0  0  0  0  0  0  0  0
   -9.2442   -1.5438    0.0000 N   0  0  0  0  0  0  0  0  0  0  0  0
   -8.5298   -1.1313    0.0000 C   0  0  3  0  0  0  0  0  0  0  0  0
   -7.8153    0.9312    0.0000 C   0  0  0  0  0  0  0  0  0  0  0  0
   -8.5298   -0.3063    0.0000 C   0  0  0  0  0  0  0  0  0  0  0  0
   -7.8153   -1.5438    0.0000 C   0  0  0  0  0  0  0  0  0  0  0  0
   -6.3863    0.9312    0.0000 C   0  0  0  0  0  0  0  0  0  0  0  0
   -5.6719    1.3437    0.0000 C   0  0  0  0  0  0  0  0  0  0  0  0
   -4.9574    0.9312    0.0000 C   0  0  0  0  0  0  0  0  0  0  0  0
   -4.2429    1.3437    0.0000 C   0  0  0  0  0  0  0  0  0  0  0  0
   -3.5285    0.9312    0.0000 C   0  0  0  0  0  0  0  0  0  0  0  0
   -2.8140    1.3437    0.0000 C   0  0  0  0  0  0  0  0  0  0  0  0
   -2.0995    0.9312    0.0000 C   0  0  0  0  0  0  0  0  0  0  0  0
  1  8  1  0  0  0  0
  1  9  1  0  0  0  0
  2  8  1  0  0  0  0
  2 11  1  0  0  0  0
  3  8  2  0  0  0  0
  4 10  2  0  0  0  0
  5 10  1  0  0  0  0
  6  7  1  0  0  0  0
  7  9  1  0  0  0  0
  7 10  1  0  0  0  0
 11 12  1  0  0  0  0
 12 13  1  0  0  0  0
 13 14  1  0  0  0  0
 14 15  1  0  0  0  0
 15 16  1  0  0  0  0
 16 17  1  0  0  0  0
M  END
> <PUBCHEM_COMPOUND_ID_TYPE>
0

> <PUBCHEM_TOTAL_CHARGE>
0

> <PUBCHEM_SUBSTANCE_ID>
310946549

> <PUBCHEM_SUBSTANCE_VERSION>
1

> <PUBCHEM_EXT_DATASOURCE_NAME>
4488

> <PUBCHEM_EXT_DATASOURCE_REGID>
SCHEMBL16124670

> <PUBCHEM_SUBSTANCE_COMMENT>
InChI=1S/C11H21NO5/c1-2-3-4-5-6-7-16-11(15)17-8-9(12)10(13)14/h9H,2-8,12H2,1H3,(H,13,14)
InChIKey=ZIIXSCKUGPXPMV-UHFFFAOYSA-N

> <PUBCHEM_SUBSTANCE_SYNONYM>
SCHEMBL16124670

> <PUBCHEM_XREF_EXT_ID>
SCHEMBL16124670

> <PUBCHEM_EXT_DATASOURCE_URL>
https://www.surechembl.org/

> <PUBCHEM_EXT_SUBSTANCE_URL>
https://www.surechembl.org/chemical/SCHEMBL16124670

> <PUBCHEM_CID_ASSOCIATIONS>
117612451  1

> <PUBCHEM_COORDINATE_TYPE>
1
3

$$$$
