310931340
  -OEChem-07211613022D

 36 40  0     1  0  0  0  0  0999 V2000
    3.2596   -2.7706    0.0000 O   0  0  0  0  0  0  0  0  0  0  0  0
    1.6298   -5.0115    0.0000 O   0  0  0  0  0  0  0  0  0  0  0  0
    4.7263    0.0000    0.0000 O   0  0  0  0  0  0  0  0  0  0  0  0
    4.7263   -2.5261    0.0000 N   0  0  0  0  0  0  0  0  0  0  0  0
    5.1338   -3.8299    0.0000 N   0  0  0  0  0  0  0  0  0  0  0  0
    6.1931   -2.7706    0.0000 N   0  0  0  0  0  0  0  0  0  0  0  0
    4.0337   -8.1489    0.0000 N   0  0  0  0  0  0  0  0  0  0  0  0
    4.2782   -3.8299    0.0000 C   0  0  3  0  0  0  0  0  0  0  0  0
    4.0337   -3.0151    0.0000 C   0  0  0  0  0  0  0  0  0  0  0  0
    4.6856   -4.5634    0.0000 C   0  0  0  0  0  0  0  0  0  0  0  0
    3.7892   -4.4819    0.0000 C   0  0  0  0  0  0  0  0  0  0  0  0
    5.3782   -3.0151    0.0000 C   0  0  0  0  0  0  0  0  0  0  0  0
    4.7263   -1.7113    0.0000 C   0  0  0  0  0  0  0  0  0  0  0  0
    4.4004   -5.4190    0.0000 C   0  0  0  0  0  0  0  0  0  0  0  0
    2.9744   -4.4004    0.0000 C   0  0  0  0  0  0  0  0  0  0  0  0
    5.5005   -4.6041    0.0000 C   0  0  0  0  0  0  0  0  0  0  0  0
    4.1559   -5.2560    0.0000 C   0  0  0  0  0  0  0  0  0  0  0  0
    4.6041   -5.9894    0.0000 C   0  0  0  0  0  0  0  0  0  0  0  0
    2.4854   -5.0930    0.0000 C   0  0  0  0  0  0  0  0  0  0  0  0
    5.4190   -1.2631    0.0000 C   0  0  0  0  0  0  0  0  0  0  0  0
    3.9929   -1.2631    0.0000 C   0  0  0  0  0  0  0  0  0  0  0  0
    5.8672   -5.3782    0.0000 C   0  0  0  0  0  0  0  0  0  0  0  0
    3.6670   -5.9487    0.0000 C   0  0  0  0  0  0  0  0  0  0  0  0
    5.4190   -6.0709    0.0000 C   0  0  0  0  0  0  0  0  0  0  0  0
    4.1152   -6.7228    0.0000 C   0  0  0  0  0  0  0  0  0  0  0  0
    2.8114   -5.8672    0.0000 C   0  0  0  0  0  0  0  0  0  0  0  0
    5.4190   -0.4482    0.0000 C   0  0  0  0  0  0  0  0  0  0  0  0
    3.9929   -0.4482    0.0000 C   0  0  0  0  0  0  0  0  0  0  0  0
    4.4819   -7.4562    0.0000 C   0  0  0  0  0  0  0  0  0  0  0  0
    3.3003   -6.6821    0.0000 C   0  0  0  0  0  0  0  0  0  0  0  0
    1.3038   -4.2374    0.0000 C   0  0  0  0  0  0  0  0  0  0  0  0
    2.8521   -7.3747    0.0000 C   0  0  0  0  0  0  0  0  0  0  0  0
    3.2188   -8.1081    0.0000 C   0  0  0  0  0  0  0  0  0  0  0  0
    0.4890   -4.1559    0.0000 C   0  0  0  0  0  0  0  0  0  0  0  0
    0.1630   -3.3818    0.0000 C   0  0  0  0  0  0  0  0  0  0  0  0
    0.0000   -4.8078    0.0000 C   0  0  0  0  0  0  0  0  0  0  0  0
  1  9  2  0  0  0  0
  2 19  1  0  0  0  0
  2 31  1  0  0  0  0
  3 27  1  0  0  0  0
  3 28  1  0  0  0  0
  4  9  1  0  0  0  0
  4 12  1  0  0  0  0
  4 13  1  0  0  0  0
  5  8  1  0  0  0  0
  5 12  1  0  0  0  0
  6 12  2  3  0  0  0
  7 29  1  0  0  0  0
  7 33  2  0  0  0  0
  8  9  1  0  0  0  0
  8 10  1  0  0  0  0
  8 11  1  0  0  0  0
 10 14  1  0  0  0  0
 10 16  2  0  0  0  0
 11 15  1  0  0  0  0
 11 17  2  0  0  0  0
 13 20  1  0  0  0  0
 13 21  1  0  0  0  0
 14 18  2  0  0  0  0
 15 19  2  0  0  0  0
 16 22  1  0  0  0  0
 17 23  1  0  0  0  0
 18 24  1  0  0  0  0
 18 25  1  0  0  0  0
 19 26  1  0  0  0  0
 20 27  1  0  0  0  0
 21 28  1  0  0  0  0
 22 24  2  0  0  0  0
 23 26  2  0  0  0  0
 25 29  2  0  0  0  0
 25 30  1  0  0  0  0
 30 32  2  0  0  0  0
 31 34  1  0  0  0  0
 32 33  1  0  0  0  0
 34 35  1  0  0  0  0
 34 36  1  0  0  0  0
M  END
> <PUBCHEM_COMPOUND_ID_TYPE>
0

> <PUBCHEM_TOTAL_CHARGE>
0

> <PUBCHEM_SUBSTANCE_ID>
310931340

> <PUBCHEM_SUBSTANCE_VERSION>
1

> <PUBCHEM_EXT_DATASOURCE_NAME>
4488

> <PUBCHEM_EXT_DATASOURCE_REGID>
SCHEMBL16108660

> <PUBCHEM_SUBSTANCE_COMMENT>
InChI=1S/C29H32N4O3/c1-20(2)19-36-26-10-4-9-24(17-26)29(23-8-3-6-21(16-23)22-7-5-13-31-18-22)27(34)33(28(30)32-29)25-11-14-35-15-12-25/h3-10,13,16-18,20,25H,11-12,14-15,19H2,1-2H3,(H2,30,32)
InChIKey=QWCXMKXJBJLILQ-UHFFFAOYSA-N

> <PUBCHEM_SUBSTANCE_SYNONYM>
SCHEMBL16108660

> <PUBCHEM_XREF_EXT_ID>
SCHEMBL16108660

> <PUBCHEM_EXT_DATASOURCE_URL>
https://www.surechembl.org/

> <PUBCHEM_EXT_SUBSTANCE_URL>
https://www.surechembl.org/chemical/SCHEMBL16108660

> <PUBCHEM_CID_ASSOCIATIONS>
86273600  1

> <PUBCHEM_COORDINATE_TYPE>
1
3

$$$$
