310932789
  -OEChem-07211613022D

 31 34  0     1  0  0  0  0  0999 V2000
    3.5542   -1.6239    0.0000 O   0  0  0  0  0  0  0  0  0  0  0  0
    4.6573   -3.5849    0.0000 O   0  0  0  0  0  0  0  0  0  0  0  0
    5.3926   -2.3593    0.0000 O   0  0  0  0  0  0  0  0  0  0  0  0
    0.2757   -3.9832    0.0000 O   0  0  0  0  0  0  0  0  0  0  0  0
    0.7966    0.0000    0.0000 O   0  0  0  0  0  0  0  0  0  0  0  0
    3.0946   -5.5458    0.0000 O   0  0  0  0  0  0  0  0  0  0  0  0
    3.1253   -2.3593    0.0000 C   0  0  0  0  0  0  0  0  0  0  0  0
    3.9525   -2.3593    0.0000 C   0  0  3  0  0  0  0  0  0  0  0  0
    2.4205   -2.7576    0.0000 C   0  0  0  0  0  0  0  0  0  0  0  0
    2.5431   -1.7465    0.0000 C   0  0  0  0  0  0  0  0  0  0  0  0
    3.7381   -3.1559    0.0000 C   0  0  0  0  0  0  0  0  0  0  0  0
    4.6573   -2.7576    0.0000 C   0  0  0  0  0  0  0  0  0  0  0  0
    2.4205   -3.5849    0.0000 C   0  0  0  0  0  0  0  0  0  0  0  0
    1.7465   -1.9609    0.0000 C   0  0  0  0  0  0  0  0  0  0  0  0
    1.6852   -2.3593    0.0000 C   0  0  0  0  0  0  0  0  0  0  0  0
    2.7576   -0.9498    0.0000 C   0  0  0  0  0  0  0  0  0  0  0  0
    4.3202   -3.7381    0.0000 C   0  0  0  0  0  0  0  0  0  0  0  0
    2.9414   -3.3704    0.0000 C   0  0  0  0  0  0  0  0  0  0  0  0
    1.6852   -4.0138    0.0000 C   0  0  0  0  0  0  0  0  0  0  0  0
    1.1643   -1.4094    0.0000 C   0  0  0  0  0  0  0  0  0  0  0  0
    0.9805   -2.7576    0.0000 C   0  0  0  0  0  0  0  0  0  0  0  0
    2.1754   -0.3677    0.0000 C   0  0  0  0  0  0  0  0  0  0  0  0
    4.1057   -4.5346    0.0000 C   0  0  0  0  0  0  0  0  0  0  0  0
    2.7269   -4.1670    0.0000 C   0  0  0  0  0  0  0  0  0  0  0  0
    0.9805   -3.5849    0.0000 C   0  0  0  0  0  0  0  0  0  0  0  0
    1.3788   -0.5821    0.0000 C   0  0  0  0  0  0  0  0  0  0  0  0
    3.3091   -4.7491    0.0000 C   0  0  0  0  0  0  0  0  0  0  0  0
    5.3926   -3.9832    0.0000 C   0  0  0  0  0  0  0  0  0  0  0  0
    0.2757   -4.8104    0.0000 C   0  0  0  0  0  0  0  0  0  0  0  0
    0.0000   -0.2145    0.0000 C   0  0  0  0  0  0  0  0  0  0  0  0
    3.6768   -6.1279    0.0000 C   0  0  0  0  0  0  0  0  0  0  0  0
  1  7  1  0  0  0  0
  1  8  1  0  0  0  0
  2 12  1  0  0  0  0
  2 28  1  0  0  0  0
  3 12  2  0  0  0  0
  4 25  1  0  0  0  0
  4 29  1  0  0  0  0
  5 26  1  0  0  0  0
  5 30  1  0  0  0  0
  6 27  1  0  0  0  0
  6 31  1  0  0  0  0
  7  8  1  0  0  0  0
  7  9  1  0  0  0  0
  7 10  1  0  0  0  0
  8 11  1  0  0  0  0
  8 12  1  0  0  0  0
  9 13  2  0  0  0  0
  9 15  1  0  0  0  0
 10 14  2  0  0  0  0
 10 16  1  0  0  0  0
 11 17  2  0  0  0  0
 11 18  1  0  0  0  0
 13 19  1  0  0  0  0
 14 20  1  0  0  0  0
 15 21  2  0  0  0  0
 16 22  2  0  0  0  0
 17 23  1  0  0  0  0
 18 24  2  0  0  0  0
 19 25  2  0  0  0  0
 20 26  2  0  0  0  0
 21 25  1  0  0  0  0
 22 26  1  0  0  0  0
 23 27  2  0  0  0  0
 24 27  1  0  0  0  0
M  END
> <PUBCHEM_COMPOUND_ID_TYPE>
0

> <PUBCHEM_TOTAL_CHARGE>
0

> <PUBCHEM_SUBSTANCE_ID>
310932789

> <PUBCHEM_SUBSTANCE_VERSION>
1

> <PUBCHEM_EXT_DATASOURCE_NAME>
4488

> <PUBCHEM_EXT_DATASOURCE_REGID>
SCHEMBL16110175

> <PUBCHEM_SUBSTANCE_COMMENT>
InChI=1S/C25H24O6/c1-27-20-11-5-17(6-12-20)24(18-7-13-21(28-2)14-8-18)25(31-24,23(26)30-4)19-9-15-22(29-3)16-10-19/h5-16H,1-4H3
InChIKey=YJOXFWZTPCOCMA-UHFFFAOYSA-N

> <PUBCHEM_SUBSTANCE_SYNONYM>
SCHEMBL16110175

> <PUBCHEM_XREF_EXT_ID>
SCHEMBL16110175

> <PUBCHEM_EXT_DATASOURCE_URL>
https://www.surechembl.org/

> <PUBCHEM_EXT_SUBSTANCE_URL>
https://www.surechembl.org/chemical/SCHEMBL16110175

> <PUBCHEM_CID_ASSOCIATIONS>
117601281  1

> <PUBCHEM_COORDINATE_TYPE>
1
3

$$$$
