310935572
  -OEChem-07211613022D

 25 27  0     1  0  0  0  0  0999 V2000
    0.3434    6.5298    0.0000 Cl  0  0  0  0  0  0  0  0  0  0  0  0
   -3.6493    3.4899    0.0000 F   0  0  0  0  0  0  0  0  0  0  0  0
   -0.6342    4.0044    0.0000 O   0  0  0  0  0  0  0  0  0  0  0  0
    0.9797    3.6614    0.0000 O   0  0  0  0  0  0  0  0  0  0  0  0
    0.4277    3.0483    0.0000 N   0  0  0  0  0  0  0  0  0  0  0  0
   -1.8226    6.7999    0.0000 N   0  0  0  0  0  0  0  0  0  0  0  0
   -0.9313    2.6067    0.0000 C   0  0  3  0  0  0  0  0  0  0  0  0
   -1.4834    3.2198    0.0000 C   0  0  0  0  0  0  0  0  0  0  0  0
   -2.2903    3.0483    0.0000 C   0  0  0  0  0  0  0  0  0  0  0  0
   -1.7805    4.6175    0.0000 C   0  0  0  0  0  0  0  0  0  0  0  0
   -0.3793    3.2198    0.0000 C   0  0  0  0  0  0  0  0  0  0  0  0
   -1.2284    4.0044    0.0000 C   0  0  0  0  0  0  0  0  0  0  0  0
   -1.5988    2.1218    0.0000 C   0  0  0  0  0  0  0  0  0  0  0  0
   -0.2639    2.1218    0.0000 C   0  0  0  0  0  0  0  0  0  0  0  0
   -2.8424    3.6614    0.0000 C   0  0  0  0  0  0  0  0  0  0  0  0
   -1.5255    5.4022    0.0000 C   0  0  0  0  0  0  0  0  0  0  0  0
   -2.5874    4.4460    0.0000 C   0  0  0  0  0  0  0  0  0  0  0  0
   -1.3438    1.3372    0.0000 C   0  0  0  0  0  0  0  0  0  0  0  0
   -0.5188    1.3372    0.0000 C   0  0  0  0  0  0  0  0  0  0  0  0
   -2.0776    6.0153    0.0000 C   0  0  0  0  0  0  0  0  0  0  0  0
   -0.7186    5.5737    0.0000 C   0  0  0  0  0  0  0  0  0  0  0  0
   -2.5453    2.2637    0.0000 C   0  0  0  0  0  0  0  0  0  0  0  0
   -0.4636    6.3583    0.0000 C   0  0  0  0  0  0  0  0  0  0  0  0
   -1.0156    6.9714    0.0000 C   0  0  0  0  0  0  0  0  0  0  0  0
   -2.8845    5.8437    0.0000 C   0  0  0  0  0  0  0  0  0  0  0  0
  1 23  1  0  0  0  0
  2 15  1  0  0  0  0
  3 11  2  0  0  0  0
  4  5  1  0  0  0  0
  5 11  1  0  0  0  0
  6 20  2  0  0  0  0
  6 24  1  0  0  0  0
  7  8  1  0  0  0  0
  7 11  1  0  0  0  0
  7 13  1  0  0  0  0
  7 14  1  0  0  0  0
  8  9  2  0  0  0  0
  8 12  1  0  0  0  0
  9 15  1  0  0  0  0
  9 22  1  0  0  0  0
 10 12  2  0  0  0  0
 10 16  1  0  0  0  0
 10 17  1  0  0  0  0
 13 18  2  0  0  0  0
 14 19  1  0  0  0  0
 15 17  2  0  0  0  0
 16 20  1  0  0  0  0
 16 21  2  0  0  0  0
 18 19  1  0  0  0  0
 20 25  1  0  0  0  0
 21 23  1  0  0  0  0
 23 24  2  0  0  0  0
M  END
> <PUBCHEM_COMPOUND_ID_TYPE>
0

> <PUBCHEM_TOTAL_CHARGE>
0

> <PUBCHEM_SUBSTANCE_ID>
310935572

> <PUBCHEM_SUBSTANCE_VERSION>
1

> <PUBCHEM_EXT_DATASOURCE_NAME>
4488

> <PUBCHEM_EXT_DATASOURCE_REGID>
SCHEMBL16113144

> <PUBCHEM_SUBSTANCE_COMMENT>
InChI=1S/C19H18ClFN2O2/c1-11-16(19(18(24)23-25)5-3-4-6-19)7-13(8-17(11)21)15-9-14(20)10-22-12(15)2/h3,5,7-10,25H,4,6H2,1-2H3,(H,23,24)
InChIKey=NAYWKYSRCNGXPJ-UHFFFAOYSA-N

> <PUBCHEM_SUBSTANCE_SYNONYM>
SCHEMBL16113144

> <PUBCHEM_XREF_EXT_ID>
SCHEMBL16113144

> <PUBCHEM_EXT_DATASOURCE_URL>
https://www.surechembl.org/

> <PUBCHEM_EXT_SUBSTANCE_URL>
https://www.surechembl.org/chemical/SCHEMBL16113144

> <PUBCHEM_CID_ASSOCIATIONS>
117603595  1

> <PUBCHEM_COORDINATE_TYPE>
1
3

$$$$
