310932414
  -OEChem-07211613022D

 29 33  0     1  0  0  0  0  0999 V2000
    2.2908    0.0000    0.0000 O   0  0  0  0  0  0  0  0  0  0  0  0
    0.0000   -3.4819    0.0000 O   0  0  0  0  0  0  0  0  0  0  0  0
    5.5436   -2.3595    0.0000 O   0  0  0  0  0  0  0  0  0  0  0  0
    4.2149   -1.6952    0.0000 N   0  0  0  0  0  0  0  0  0  0  0  0
    4.2149   -3.0237    0.0000 N   0  0  0  0  0  0  0  0  0  0  0  0
    1.4890   -1.4203    0.0000 N   0  0  0  0  0  0  0  0  0  0  0  0
    0.4123   -4.2149    0.0000 N   0  0  0  0  0  0  0  0  0  0  0  0
    2.7031   -0.7101    0.0000 C   0  0  3  0  0  0  0  0  0  0  0  0
    2.7031   -1.5348    0.0000 C   0  0  0  0  0  0  0  0  0  0  0  0
    3.4361   -1.9242    0.0000 C   0  0  0  0  0  0  0  0  0  0  0  0
    3.5277   -0.7101    0.0000 C   0  0  0  0  0  0  0  0  0  0  0  0
    3.4361   -2.7947    0.0000 C   0  0  0  0  0  0  0  0  0  0  0  0
    1.8784   -0.7101    0.0000 C   0  0  0  0  0  0  0  0  0  0  0  0
    2.0158   -2.7947    0.0000 C   0  0  0  0  0  0  0  0  0  0  0  0
    2.0158   -1.9242    0.0000 C   0  0  0  0  0  0  0  0  0  0  0  0
    1.3057   -3.2070    0.0000 C   0  0  0  0  0  0  0  0  0  0  0  0
    2.7031   -3.1841    0.0000 C   0  0  0  0  0  0  0  0  0  0  0  0
    4.7189   -2.3595    0.0000 C   0  0  0  0  0  0  0  0  0  0  0  0
    4.1004   -0.1145    0.0000 C   0  0  0  0  0  0  0  0  0  0  0  0
    4.1233   -1.3057    0.0000 C   0  0  0  0  0  0  0  0  0  0  0  0
    0.5497   -2.8863    0.0000 C   0  0  0  0  0  0  0  0  0  0  0  0
    1.2141   -4.0317    0.0000 C   0  0  0  0  0  0  0  0  0  0  0  0
    1.4661    0.0000    0.0000 C   0  0  0  0  0  0  0  0  0  0  0  0
    4.6960   -0.7101    0.0000 C   0  0  0  0  0  0  0  0  0  0  0  0
    0.6414   -1.4661    0.0000 C   0  0  0  0  0  0  0  0  0  0  0  0
    0.6414   -0.0229    0.0000 C   0  0  0  0  0  0  0  0  0  0  0  0
    0.2520   -0.7330    0.0000 C   0  0  0  0  0  0  0  0  0  0  0  0
    0.3665   -2.0845    0.0000 C   0  0  0  0  0  0  0  0  0  0  0  0
    1.8326   -4.5814    0.0000 C   0  0  0  0  0  0  0  0  0  0  0  0
  1  8  1  0  0  0  0
  2  7  1  0  0  0  0
  2 21  1  0  0  0  0
  3 18  2  0  0  0  0
  4 10  1  0  0  0  0
  4 18  1  0  0  0  0
  5 12  1  0  0  0  0
  5 18  1  0  0  0  0
  6 13  1  0  0  0  0
  6 25  2  0  0  0  0
  7 22  2  0  0  0  0
  8  9  1  0  0  0  0
  8 11  1  0  0  0  0
  8 13  1  0  0  0  0
  9 10  1  0  0  0  0
  9 15  2  0  0  0  0
 10 12  2  0  0  0  0
 11 19  1  0  0  0  0
 11 20  1  0  0  0  0
 12 17  1  0  0  0  0
 13 23  2  0  0  0  0
 14 15  1  0  0  0  0
 14 16  1  0  0  0  0
 14 17  2  0  0  0  0
 16 21  2  0  0  0  0
 16 22  1  0  0  0  0
 19 24  1  0  0  0  0
 20 24  1  0  0  0  0
 21 28  1  0  0  0  0
 22 29  1  0  0  0  0
 23 26  1  0  0  0  0
 25 27  1  0  0  0  0
 26 27  2  0  0  0  0
M  END
> <PUBCHEM_COMPOUND_ID_TYPE>
0

> <PUBCHEM_TOTAL_CHARGE>
0

> <PUBCHEM_SUBSTANCE_ID>
310932414

> <PUBCHEM_SUBSTANCE_VERSION>
1

> <PUBCHEM_EXT_DATASOURCE_NAME>
4488

> <PUBCHEM_EXT_DATASOURCE_REGID>
SCHEMBL16109782

> <PUBCHEM_SUBSTANCE_COMMENT>
InChI=1S/C22H22N4O3/c1-12-19(13(2)29-26-12)14-10-16(20-17(11-14)24-21(27)25-20)22(28,15-6-5-7-15)18-8-3-4-9-23-18/h3-4,8-11,15,28H,5-7H2,1-2H3,(H2,24,25,27)
InChIKey=QIDPFZSNKBHZMJ-UHFFFAOYSA-N

> <PUBCHEM_SUBSTANCE_SYNONYM>
SCHEMBL16109782

> <PUBCHEM_XREF_EXT_ID>
SCHEMBL16109782

> <PUBCHEM_EXT_DATASOURCE_URL>
https://www.surechembl.org/

> <PUBCHEM_EXT_SUBSTANCE_URL>
https://www.surechembl.org/chemical/SCHEMBL16109782

> <PUBCHEM_CID_ASSOCIATIONS>
117600967  1

> <PUBCHEM_COORDINATE_TYPE>
1
3

$$$$
