310932717
  -OEChem-07211613022D

 36 39  0     1  0  0  0  0  0999 V2000
    3.5455   -1.6281    0.0000 O   0  0  0  0  0  0  0  0  0  0  0  0
    4.6309   -3.5455    0.0000 O   0  0  0  0  0  0  0  0  0  0  0  0
    5.3545   -2.3154    0.0000 O   0  0  0  0  0  0  0  0  0  0  0  0
    0.2533   -3.9797    0.0000 O   0  0  0  0  0  0  0  0  0  0  0  0
    0.7959    0.0000    0.0000 O   0  0  0  0  0  0  0  0  0  0  0  0
    3.0752   -5.4992    0.0000 O   0  0  0  0  0  0  0  0  0  0  0  0
    3.1114   -2.3154    0.0000 C   0  0  0  0  0  0  0  0  0  0  0  0
    3.9435   -2.3154    0.0000 C   0  0  3  0  0  0  0  0  0  0  0  0
    2.4240   -2.7496    0.0000 C   0  0  0  0  0  0  0  0  0  0  0  0
    2.5325   -1.7366    0.0000 C   0  0  0  0  0  0  0  0  0  0  0  0
    3.7264   -3.1114    0.0000 C   0  0  0  0  0  0  0  0  0  0  0  0
    4.6309   -2.7496    0.0000 C   0  0  0  0  0  0  0  0  0  0  0  0
    2.3878   -3.5455    0.0000 C   0  0  0  0  0  0  0  0  0  0  0  0
    1.7366   -1.9537    0.0000 C   0  0  0  0  0  0  0  0  0  0  0  0
    1.7004   -2.3154    0.0000 C   0  0  0  0  0  0  0  0  0  0  0  0
    2.7496   -0.9407    0.0000 C   0  0  0  0  0  0  0  0  0  0  0  0
    4.3053   -3.6903    0.0000 C   0  0  0  0  0  0  0  0  0  0  0  0
    2.9305   -3.3285    0.0000 C   0  0  0  0  0  0  0  0  0  0  0  0
    1.7004   -3.9797    0.0000 C   0  0  0  0  0  0  0  0  0  0  0  0
    1.1578   -1.3748    0.0000 C   0  0  0  0  0  0  0  0  0  0  0  0
    0.9768   -2.7496    0.0000 C   0  0  0  0  0  0  0  0  0  0  0  0
    2.1708   -0.3618    0.0000 C   0  0  0  0  0  0  0  0  0  0  0  0
    4.0882   -4.4862    0.0000 C   0  0  0  0  0  0  0  0  0  0  0  0
    2.7134   -4.1244    0.0000 C   0  0  0  0  0  0  0  0  0  0  0  0
    0.9768   -3.5455    0.0000 C   0  0  0  0  0  0  0  0  0  0  0  0
    1.3748   -0.5788    0.0000 C   0  0  0  0  0  0  0  0  0  0  0  0
    3.2923   -4.7033    0.0000 C   0  0  0  0  0  0  0  0  0  0  0  0
    5.3545   -3.9797    0.0000 C   0  0  0  0  0  0  0  0  0  0  0  0
    5.3545   -4.7756    0.0000 C   0  0  0  0  0  0  0  0  0  0  0  0
    6.0781   -5.1736    0.0000 C   0  0  0  0  0  0  0  0  0  0  0  0
    0.2533   -4.7756    0.0000 C   0  0  0  0  0  0  0  0  0  0  0  0
    0.0000   -0.2171    0.0000 C   0  0  0  0  0  0  0  0  0  0  0  0
    3.6541   -6.0781    0.0000 C   0  0  0  0  0  0  0  0  0  0  0  0
    6.0781   -6.0057    0.0000 C   0  0  0  0  0  0  0  0  0  0  0  0
    6.8016   -6.4037    0.0000 C   0  0  0  0  0  0  0  0  0  0  0  0
    6.8016   -7.2358    0.0000 C   0  0  0  0  0  0  0  0  0  0  0  0
  1  7  1  0  0  0  0
  1  8  1  0  0  0  0
  2 12  1  0  0  0  0
  2 28  1  0  0  0  0
  3 12  2  0  0  0  0
  4 25  1  0  0  0  0
  4 31  1  0  0  0  0
  5 26  1  0  0  0  0
  5 32  1  0  0  0  0
  6 27  1  0  0  0  0
  6 33  1  0  0  0  0
  7  8  1  0  0  0  0
  7  9  1  0  0  0  0
  7 10  1  0  0  0  0
  8 11  1  0  0  0  0
  8 12  1  0  0  0  0
  9 13  2  0  0  0  0
  9 15  1  0  0  0  0
 10 14  2  0  0  0  0
 10 16  1  0  0  0  0
 11 17  2  0  0  0  0
 11 18  1  0  0  0  0
 13 19  1  0  0  0  0
 14 20  1  0  0  0  0
 15 21  2  0  0  0  0
 16 22  2  0  0  0  0
 17 23  1  0  0  0  0
 18 24  2  0  0  0  0
 19 25  2  0  0  0  0
 20 26  2  0  0  0  0
 21 25  1  0  0  0  0
 22 26  1  0  0  0  0
 23 27  2  0  0  0  0
 24 27  1  0  0  0  0
 28 29  1  0  0  0  0
 29 30  1  0  0  0  0
 30 34  1  0  0  0  0
 34 35  1  0  0  0  0
 35 36  1  0  0  0  0
M  END
> <PUBCHEM_COMPOUND_ID_TYPE>
0

> <PUBCHEM_TOTAL_CHARGE>
0

> <PUBCHEM_SUBSTANCE_ID>
310932717

> <PUBCHEM_SUBSTANCE_VERSION>
1

> <PUBCHEM_EXT_DATASOURCE_NAME>
4488

> <PUBCHEM_EXT_DATASOURCE_REGID>
SCHEMBL16110100

> <PUBCHEM_SUBSTANCE_COMMENT>
InChI=1S/C30H34O6/c1-5-6-7-8-21-35-28(31)30(24-13-19-27(34-4)20-14-24)29(36-30,22-9-15-25(32-2)16-10-22)23-11-17-26(33-3)18-12-23/h9-20H,5-8,21H2,1-4H3
InChIKey=PFDNWTRTCAOBMV-UHFFFAOYSA-N

> <PUBCHEM_SUBSTANCE_SYNONYM>
SCHEMBL16110100

> <PUBCHEM_XREF_EXT_ID>
SCHEMBL16110100

> <PUBCHEM_EXT_DATASOURCE_URL>
https://www.surechembl.org/

> <PUBCHEM_EXT_SUBSTANCE_URL>
https://www.surechembl.org/chemical/SCHEMBL16110100

> <PUBCHEM_CID_ASSOCIATIONS>
117601224  1

> <PUBCHEM_COORDINATE_TYPE>
1
3

$$$$
