310949205
  -OEChem-07211613022D

 70 82  0     1  0  0  0  0  0999 V2000
   -0.9555   -4.1343    0.0000 N   0  0  0  0  0  0  0  0  0  0  0  0
   -0.8798    4.1721    0.0000 N   0  0  0  0  0  0  0  0  0  0  0  0
   -3.1315   -3.6423    0.0000 N   0  0  0  0  0  0  0  0  0  0  0  0
    1.1637   -3.7937    0.0000 N   0  0  0  0  0  0  0  0  0  0  0  0
    1.3150    3.6612    0.0000 N   0  0  0  0  0  0  0  0  0  0  0  0
   -3.0368    3.7180    0.0000 N   0  0  0  0  0  0  0  0  0  0  0  0
    1.0123   -5.1371    0.0000 C   0  0  0  0  0  0  0  0  0  0  0  0
    1.1637    5.1749    0.0000 C   0  0  0  0  0  0  0  0  0  0  0  0
   -0.3311   -4.6262    0.0000 C   0  0  0  0  0  0  0  0  0  0  0  0
   -0.2176    4.7208    0.0000 C   0  0  0  0  0  0  0  0  0  0  0  0
    1.8637   -5.1181    0.0000 C   0  0  0  0  0  0  0  0  0  0  0  0
    0.7663   -5.8940    0.0000 C   0  0  0  0  0  0  0  0  0  0  0  0
    2.0340    5.1560    0.0000 C   0  0  0  0  0  0  0  0  0  0  0  0
    0.9177    5.9318    0.0000 C   0  0  0  0  0  0  0  0  0  0  0  0
   -0.5960   -5.3642    0.0000 C   0  0  0  0  0  0  0  0  0  0  0  0
   -0.4825    5.4966    0.0000 C   0  0  0  0  0  0  0  0  0  0  0  0
    2.1287   -5.9507    0.0000 C   0  0  0  0  0  0  0  0  0  0  0  0
    1.4286   -6.3859    0.0000 C   0  0  0  0  0  0  0  0  0  0  0  0
    2.2611    5.9507    0.0000 C   0  0  0  0  0  0  0  0  0  0  0  0
    1.5988    6.4237    0.0000 C   0  0  0  0  0  0  0  0  0  0  0  0
   -1.4664   -5.3452    0.0000 C   0  0  0  0  0  0  0  0  0  0  0  0
   -1.3339    5.5155    0.0000 C   0  0  0  0  0  0  0  0  0  0  0  0
   -1.7123   -4.5695    0.0000 C   0  0  0  0  0  0  0  0  0  0  0  0
   -1.5799    4.7019    0.0000 C   0  0  0  0  0  0  0  0  0  0  0  0
    0.5203   -4.4938    0.0000 C   0  0  0  0  0  0  0  0  0  0  0  0
    0.5960    4.5506    0.0000 C   0  0  0  0  0  0  0  0  0  0  0  0
   -0.0663   -5.9886    0.0000 C   0  0  0  0  0  0  0  0  0  0  0  0
    0.0852    6.1021    0.0000 C   0  0  0  0  0  0  0  0  0  0  0  0
   -0.9744   -3.2639    0.0000 C   0  0  0  0  0  0  0  0  0  0  0  0
   -0.8798    3.3963    0.0000 C   0  0  0  0  0  0  0  0  0  0  0  0
   -1.6556   -2.8098    0.0000 C   0  0  0  0  0  0  0  0  0  0  0  0
   -0.2365   -2.8855    0.0000 C   0  0  0  0  0  0  0  0  0  0  0  0
   -0.1608    2.9612    0.0000 C   0  0  0  0  0  0  0  0  0  0  0  0
   -1.6177    2.9612    0.0000 C   0  0  3  0  0  0  0  0  0  0  0  0
    2.8477   -6.3292    0.0000 C   0  0  0  0  0  0  0  0  0  0  0  0
    1.5042   -7.1995    0.0000 C   0  0  0  0  0  0  0  0  0  0  0  0
    3.0557    6.2913    0.0000 C   0  0  0  0  0  0  0  0  0  0  0  0
    1.6934    7.2373    0.0000 C   0  0  0  0  0  0  0  0  0  0  0  0
   -2.0529   -5.9318    0.0000 C   0  0  0  0  0  0  0  0  0  0  0  0
   -1.9205    6.1021    0.0000 C   0  0  0  0  0  0  0  0  0  0  0  0
   -2.5071   -4.3992    0.0000 C   0  0  0  0  0  0  0  0  0  0  0  0
   -2.4124    4.5506    0.0000 C   0  0  0  0  0  0  0  0  0  0  0  0
    1.6556   -4.3235    0.0000 C   0  0  0  0  0  0  0  0  0  0  0  0
    2.7341   -5.1371    0.0000 C   0  0  0  0  0  0  0  0  0  0  0  0
    2.9044    5.1371    0.0000 C   0  0  0  0  0  0  0  0  0  0  0  0
    1.8070    4.3613    0.0000 C   0  0  0  0  0  0  0  0  0  0  0  0
   -0.8987   -1.6367    0.0000 C   0  0  0  0  0  0  0  0  0  0  0  0
   -0.8609    1.7123    0.0000 C   0  0  0  0  0  0  0  0  0  0  0  0
   -1.6367   -1.9962    0.0000 C   0  0  0  0  0  0  0  0  0  0  0  0
   -0.2176   -2.0719    0.0000 C   0  0  0  0  0  0  0  0  0  0  0  0
   -0.1608    2.1476    0.0000 C   0  0  0  0  0  0  0  0  0  0  0  0
   -1.5988    2.1476    0.0000 C   0  0  0  0  0  0  0  0  0  0  0  0
    2.9233   -7.1238    0.0000 C   0  0  0  0  0  0  0  0  0  0  0  0
    2.2800   -7.5590    0.0000 C   0  0  0  0  0  0  0  0  0  0  0  0
    3.1315    7.0860    0.0000 C   0  0  0  0  0  0  0  0  0  0  0  0
    2.4503    7.5590    0.0000 C   0  0  0  0  0  0  0  0  0  0  0  0
   -2.7909   -5.7615    0.0000 C   0  0  0  0  0  0  0  0  0  0  0  0
   -3.0179   -4.9668    0.0000 C   0  0  0  0  0  0  0  0  0  0  0  0
   -2.6962    5.9129    0.0000 C   0  0  0  0  0  0  0  0  0  0  0  0
   -2.8855    5.1181    0.0000 C   0  0  0  0  0  0  0  0  0  0  0  0
   -0.8798   -0.7853    0.0000 C   0  0  0  0  0  0  0  0  0  0  0  0
   -0.9177    0.8609    0.0000 C   0  0  0  0  0  0  0  0  0  0  0  0
   -2.4314   -3.2450    0.0000 C   0  0  0  0  0  0  0  0  0  0  0  0
    0.4825   -3.3585    0.0000 C   0  0  0  0  0  0  0  0  0  0  0  0
    0.5771    3.3396    0.0000 C   0  0  0  0  0  0  0  0  0  0  0  0
   -2.3367    3.3585    0.0000 C   0  0  0  0  0  0  0  0  0  0  0  0
   -1.6177   -0.3500    0.0000 C   0  0  0  0  0  0  0  0  0  0  0  0
   -0.1797   -0.3500    0.0000 C   0  0  0  0  0  0  0  0  0  0  0  0
   -1.5988    0.4825    0.0000 C   0  0  0  0  0  0  0  0  0  0  0  0
   -0.1419    0.4447    0.0000 C   0  0  0  0  0  0  0  0  0  0  0  0
  1  9  1  0  0  0  0
  1 23  1  0  0  0  0
  1 29  1  0  0  0  0
  2 10  1  0  0  0  0
  2 24  1  0  0  0  0
  2 30  1  0  0  0  0
  3 63  3  0  0  0  0
  4 64  3  0  0  0  0
  5 65  3  0  0  0  0
  6 66  3  0  0  0  0
  7 11  1  0  0  0  0
  7 12  1  0  0  0  0
  7 25  2  0  0  0  0
  8 13  1  0  0  0  0
  8 14  1  0  0  0  0
  8 26  2  0  0  0  0
  9 15  2  0  0  0  0
  9 25  1  0  0  0  0
 10 16  2  0  0  0  0
 10 26  1  0  0  0  0
 11 17  1  0  0  0  0
 11 43  1  0  0  0  0
 11 44  1  0  0  0  0
 12 18  1  0  0  0  0
 12 27  2  0  0  0  0
 13 19  1  0  0  0  0
 13 45  1  0  0  0  0
 13 46  1  0  0  0  0
 14 20  1  0  0  0  0
 14 28  2  0  0  0  0
 15 21  1  0  0  0  0
 15 27  1  0  0  0  0
 16 22  1  0  0  0  0
 16 28  1  0  0  0  0
 17 18  2  0  0  0  0
 17 35  1  0  0  0  0
 18 36  1  0  0  0  0
 19 20  2  0  0  0  0
 19 37  1  0  0  0  0
 20 38  1  0  0  0  0
 21 23  2  0  0  0  0
 21 39  1  0  0  0  0
 22 24  2  0  0  0  0
 22 40  1  0  0  0  0
 23 41  1  0  0  0  0
 24 42  1  0  0  0  0
 29 31  2  0  0  0  0
 29 32  1  0  0  0  0
 30 33  2  0  0  0  0
 30 34  1  0  0  0  0
 31 49  1  0  0  0  0
 31 63  1  0  0  0  0
 32 50  2  0  0  0  0
 32 64  1  0  0  0  0
 33 51  1  0  0  0  0
 33 65  1  0  0  0  0
 34 52  1  0  0  0  0
 34 66  1  0  0  0  0
 35 53  2  0  0  0  0
 36 54  2  0  0  0  0
 37 55  2  0  0  0  0
 38 56  2  0  0  0  0
 39 57  2  0  0  0  0
 40 59  2  0  0  0  0
 41 58  2  0  0  0  0
 42 60  2  0  0  0  0
 47 49  2  0  0  0  0
 47 50  1  0  0  0  0
 47 61  1  0  0  0  0
 48 51  2  0  0  0  0
 48 52  1  0  0  0  0
 48 62  1  0  0  0  0
 53 54  1  0  0  0  0
 55 56  1  0  0  0  0
 57 58  1  0  0  0  0
 59 60  1  0  0  0  0
 61 67  2  0  0  0  0
 61 68  1  0  0  0  0
 62 69  2  0  0  0  0
 62 70  1  0  0  0  0
 67 69  1  0  0  0  0
 68 70  2  0  0  0  0
M  END
> <PUBCHEM_COMPOUND_ID_TYPE>
0

> <PUBCHEM_TOTAL_CHARGE>
0

> <PUBCHEM_SUBSTANCE_ID>
310949205

> <PUBCHEM_SUBSTANCE_VERSION>
1

> <PUBCHEM_EXT_DATASOURCE_NAME>
4488

> <PUBCHEM_EXT_DATASOURCE_REGID>
SCHEMBL16127395

> <PUBCHEM_SUBSTANCE_COMMENT>
InChI=1S/C64H42N6/c1-63(2)53-17-9-5-13-45(53)49-29-51-47-15-7-11-19-57(47)69(59(51)31-55(49)63)61-41(33-65)25-39(26-42(61)34-66)37-21-23-38(24-22-37)40-27-43(35-67)62(44(28-40)36-68)70-58-20-12-8-16-48(58)52-30-50-46-14-6-10-18-54(46)64(3,4)56(50)32-60(52)70/h5-27,29-32,44H,28H2,1-4H3
InChIKey=UOECYOXJJIGKBS-UHFFFAOYSA-N

> <PUBCHEM_SUBSTANCE_SYNONYM>
SCHEMBL16127395

> <PUBCHEM_XREF_EXT_ID>
SCHEMBL16127395

> <PUBCHEM_EXT_DATASOURCE_URL>
https://www.surechembl.org/

> <PUBCHEM_EXT_SUBSTANCE_URL>
https://www.surechembl.org/chemical/SCHEMBL16127395

> <PUBCHEM_CID_ASSOCIATIONS>
117614693  1

> <PUBCHEM_COORDINATE_TYPE>
1
3

$$$$
