310933030
  -OEChem-07211613022D

 43 49  0     1  0  0  0  0  0999 V2000
   -5.0467    4.7023    0.0000 Cl  0  0  0  0  0  0  0  0  0  0  0  0
   -3.4058    4.5298    0.0000 F   0  0  0  0  0  0  0  0  0  0  0  0
   -0.7145    4.5375    0.0000 O   0  0  0  0  0  0  0  0  0  0  0  0
   -1.4290   -1.6500    0.0000 O   0  0  0  0  0  0  0  0  0  0  0  0
    0.0000   -1.6500    0.0000 O   0  0  0  0  0  0  0  0  0  0  0  0
    0.0000    3.3000    0.0000 N   0  0  0  0  0  0  0  0  0  0  0  0
   -0.7145    2.0625    0.0000 N   0  0  0  0  0  0  0  0  0  0  0  0
   -2.7346    3.0224    0.0000 N   0  0  0  0  0  0  0  0  0  0  0  0
   -1.5152    2.4795    0.0000 N   0  0  0  0  0  0  0  0  0  0  0  0
   -2.3221    2.3080    0.0000 N   0  0  0  0  0  0  0  0  0  0  0  0
    4.2868    2.4750    0.0000 N   0  0  0  0  0  0  0  0  0  0  0  0
    3.5724    3.7125    0.0000 N   0  0  0  0  0  0  0  0  0  0  0  0
   -0.7145    1.2375    0.0000 C   0  0  0  0  0  0  0  0  0  0  0  0
    0.0000    2.4750    0.0000 C   0  0  3  0  0  0  0  0  0  0  0  0
   -0.7145   -0.4125    0.0000 C   0  0  0  0  0  0  0  0  0  0  0  0
    0.7145    2.0625    0.0000 C   0  0  0  0  0  0  0  0  0  0  0  0
    1.4290    2.4750    0.0000 C   0  0  0  0  0  0  0  0  0  0  0  0
   -1.0557    0.7213    0.0000 C   0  0  0  0  0  0  0  0  0  0  0  0
   -1.4290    0.8250    0.0000 C   0  0  0  0  0  0  0  0  0  0  0  0
    0.0000    0.8250    0.0000 C   0  0  0  0  0  0  0  0  0  0  0  0
   -1.0557    0.1026    0.0000 C   0  0  0  0  0  0  0  0  0  0  0  0
   -1.4290    0.0000    0.0000 C   0  0  0  0  0  0  0  0  0  0  0  0
    0.0000    0.0000    0.0000 C   0  0  0  0  0  0  0  0  0  0  0  0
   -0.7145    3.7125    0.0000 C   0  0  0  0  0  0  0  0  0  0  0  0
    2.1434    2.0625    0.0000 C   0  0  0  0  0  0  0  0  0  0  0  0
   -0.7145   -1.2375    0.0000 C   0  0  0  0  0  0  0  0  0  0  0  0
    0.7145    3.7125    0.0000 C   0  0  0  0  0  0  0  0  0  0  0  0
    1.4290    3.3000    0.0000 C   0  0  0  0  0  0  0  0  0  0  0  0
   -1.4290    3.3000    0.0000 C   0  0  0  0  0  0  0  0  0  0  0  0
    0.7145    1.2375    0.0000 C   0  0  0  0  0  0  0  0  0  0  0  0
    2.8579    2.4750    0.0000 C   0  0  0  0  0  0  0  0  0  0  0  0
    2.1434    1.2375    0.0000 C   0  0  0  0  0  0  0  0  0  0  0  0
   -2.1826    3.6355    0.0000 C   0  0  0  0  0  0  0  0  0  0  0  0
    1.4290    0.8250    0.0000 C   0  0  0  0  0  0  0  0  0  0  0  0
   -3.5551    3.1087    0.0000 C   0  0  0  0  0  0  0  0  0  0  0  0
   -3.8907    3.8624    0.0000 C   0  0  0  0  0  0  0  0  0  0  0  0
    3.5724    2.0625    0.0000 C   0  0  0  0  0  0  0  0  0  0  0  0
    2.8579    3.3000    0.0000 C   0  0  0  0  0  0  0  0  0  0  0  0
   -4.0400    2.4412    0.0000 C   0  0  0  0  0  0  0  0  0  0  0  0
   -4.7112    3.9486    0.0000 C   0  0  0  0  0  0  0  0  0  0  0  0
   -4.8605    2.5275    0.0000 C   0  0  0  0  0  0  0  0  0  0  0  0
   -5.1961    3.2811    0.0000 C   0  0  0  0  0  0  0  0  0  0  0  0
    4.2868    3.3000    0.0000 C   0  0  0  0  0  0  0  0  0  0  0  0
  1 40  1  0  0  0  0
  2 36  1  0  0  0  0
  3 24  2  0  0  0  0
  4 26  2  0  0  0  0
  5 26  1  0  0  0  0
  6 14  1  0  0  0  0
  6 24  1  0  0  0  0
  6 27  1  0  0  0  0
  7 13  1  0  0  0  0
  7 14  1  0  0  0  0
  8 10  1  0  0  0  0
  8 33  1  0  0  0  0
  8 35  1  0  0  0  0
  9 10  2  0  0  0  0
  9 29  1  0  0  0  0
 11 37  2  0  0  0  0
 11 43  1  0  0  0  0
 12 38  1  0  0  0  0
 12 43  2  0  0  0  0
 13 18  1  0  0  0  0
 13 19  1  0  0  0  0
 13 20  1  0  0  0  0
 14 16  1  0  0  0  0
 15 21  1  0  0  0  0
 15 22  1  0  0  0  0
 15 23  1  0  0  0  0
 15 26  1  0  0  0  0
 16 17  2  0  0  0  0
 16 30  1  0  0  0  0
 17 25  1  0  0  0  0
 17 28  1  0  0  0  0
 18 21  1  0  0  0  0
 19 22  1  0  0  0  0
 20 23  1  0  0  0  0
 24 29  1  0  0  0  0
 25 31  1  0  0  0  0
 25 32  2  0  0  0  0
 27 28  1  0  0  0  0
 29 33  2  0  0  0  0
 30 34  2  0  0  0  0
 31 37  1  0  0  0  0
 31 38  2  0  0  0  0
 32 34  1  0  0  0  0
 35 36  1  0  0  0  0
 35 39  2  0  0  0  0
 36 40  2  0  0  0  0
 39 41  1  0  0  0  0
 40 42  1  0  0  0  0
 41 42  2  0  0  0  0
M  END
> <PUBCHEM_COMPOUND_ID_TYPE>
0

> <PUBCHEM_TOTAL_CHARGE>
0

> <PUBCHEM_SUBSTANCE_ID>
310933030

> <PUBCHEM_SUBSTANCE_VERSION>
1

> <PUBCHEM_EXT_DATASOURCE_NAME>
4488

> <PUBCHEM_EXT_DATASOURCE_REGID>
SCHEMBL16110430

> <PUBCHEM_SUBSTANCE_COMMENT>
InChI=1S/C31H29ClFN7O3/c32-23-5-2-6-25(26(23)33)40-17-24(37-38-40)28(41)39-14-7-21-20(19-15-34-18-35-16-19)3-1-4-22(21)27(39)36-31-11-8-30(9-12-31,10-13-31)29(42)43/h1-6,15-18,27,36H,7-14H2,(H,42,43)
InChIKey=BVCLKZVGPGLKMK-UHFFFAOYSA-N

> <PUBCHEM_SUBSTANCE_SYNONYM>
SCHEMBL16110430

> <PUBCHEM_XREF_EXT_ID>
SCHEMBL16110430

> <PUBCHEM_EXT_DATASOURCE_URL>
https://www.surechembl.org/

> <PUBCHEM_EXT_SUBSTANCE_URL>
https://www.surechembl.org/chemical/SCHEMBL16110430

> <PUBCHEM_CID_ASSOCIATIONS>
117601495  1

> <PUBCHEM_COORDINATE_TYPE>
1
3

$$$$
