310939561
  -OEChem-07211613022D

 37 40  0     1  0  0  0  0  0999 V2000
    5.3591    0.6241    0.0000 O   0  0  0  0  0  0  0  0  0  0  0  0
    5.3529    2.2654    0.0000 O   0  0  0  0  0  0  0  0  0  0  0  0
   -1.7867    0.6221    0.0000 O   0  0  0  0  0  0  0  0  0  0  0  0
    3.9290   -2.6779    0.0000 O   0  0  0  0  0  0  0  0  0  0  0  0
   -3.2157   -0.2029    0.0000 O   0  0  0  0  0  0  0  0  0  0  0  0
    1.7856    1.0346    0.0000 N   0  0  0  0  0  0  0  0  0  0  0  0
    1.0711   -0.2029    0.0000 N   0  0  0  0  0  0  0  0  0  0  0  0
    1.7856   -1.4404    0.0000 N   0  0  0  0  0  0  0  0  0  0  0  0
   -4.6446    0.6221    0.0000 N   0  0  0  0  0  0  0  0  0  0  0  0
    2.5001    0.6221    0.0000 C   0  0  0  0  0  0  0  0  0  0  0  0
    1.0711    0.6221    0.0000 C   0  0  0  0  0  0  0  0  0  0  0  0
    1.7856   -0.6154    0.0000 C   0  0  0  0  0  0  0  0  0  0  0  0
    3.2146    1.0346    0.0000 C   0  0  0  0  0  0  0  0  0  0  0  0
    2.5001   -0.2029    0.0000 C   0  0  0  0  0  0  0  0  0  0  0  0
    0.3567    1.0346    0.0000 C   0  0  0  0  0  0  0  0  0  0  0  0
    3.9290    0.6221    0.0000 C   0  0  0  0  0  0  0  0  0  0  0  0
    4.6435    1.0346    0.0000 C   0  0  0  0  0  0  0  0  0  0  0  0
    2.5001   -1.8529    0.0000 C   0  0  0  0  0  0  0  0  0  0  0  0
    3.2146    1.8596    0.0000 C   0  0  0  0  0  0  0  0  0  0  0  0
    4.6390    1.8519    0.0000 C   0  0  0  0  0  0  0  0  0  0  0  0
   -0.3578    0.6221    0.0000 C   0  0  0  0  0  0  0  0  0  0  0  0
    0.3567    1.8596    0.0000 C   0  0  0  0  0  0  0  0  0  0  0  0
    3.9290    2.2644    0.0000 C   0  0  0  0  0  0  0  0  0  0  0  0
   -1.0723    1.0346    0.0000 C   0  0  0  0  0  0  0  0  0  0  0  0
   -0.3578    2.2721    0.0000 C   0  0  0  0  0  0  0  0  0  0  0  0
    1.0711   -1.8529    0.0000 C   0  0  0  0  0  0  0  0  0  0  0  0
    2.5001   -2.6779    0.0000 C   0  0  0  0  0  0  0  0  0  0  0  0
    3.2146   -1.4404    0.0000 C   0  0  0  0  0  0  0  0  0  0  0  0
   -1.0723    1.8596    0.0000 C   0  0  0  0  0  0  0  0  0  0  0  0
    3.2146   -3.0904    0.0000 C   0  0  0  0  0  0  0  0  0  0  0  0
    3.9290   -1.8529    0.0000 C   0  0  0  0  0  0  0  0  0  0  0  0
   -2.5012    1.0346    0.0000 C   0  0  0  0  0  0  0  0  0  0  0  0
    5.3591   -0.2009    0.0000 C   0  0  0  0  0  0  0  0  0  0  0  0
    5.3529    3.0904    0.0000 C   0  0  0  0  0  0  0  0  0  0  0  0
   -3.2157    0.6221    0.0000 C   0  0  3  0  0  0  0  0  0  0  0  0
   -3.9302    1.0346    0.0000 C   0  0  0  0  0  0  0  0  0  0  0  0
   -5.3591    1.0346    0.0000 C   0  0  0  0  0  0  0  0  0  0  0  0
  1 17  1  0  0  0  0
  1 33  1  0  0  0  0
  2 20  1  0  0  0  0
  2 34  1  0  0  0  0
  3 24  1  0  0  0  0
  3 32  1  0  0  0  0
  4 30  1  0  0  0  0
  4 31  1  0  0  0  0
  5 35  1  0  0  0  0
  6 10  1  0  0  0  0
  6 11  2  0  0  0  0
  7 11  1  0  0  0  0
  7 12  2  0  0  0  0
  8 12  1  0  0  0  0
  8 18  1  0  0  0  0
  8 26  1  0  0  0  0
  9 36  1  0  0  0  0
  9 37  1  0  0  0  0
 10 13  1  0  0  0  0
 10 14  2  0  0  0  0
 11 15  1  0  0  0  0
 12 14  1  0  0  0  0
 13 16  1  0  0  0  0
 13 19  2  0  0  0  0
 15 21  2  0  0  0  0
 15 22  1  0  0  0  0
 16 17  2  0  0  0  0
 17 20  1  0  0  0  0
 18 27  1  0  0  0  0
 18 28  1  0  0  0  0
 19 23  1  0  0  0  0
 20 23  2  0  0  0  0
 21 24  1  0  0  0  0
 22 25  2  0  0  0  0
 24 29  2  0  0  0  0
 25 29  1  0  0  0  0
 27 30  1  0  0  0  0
 28 31  1  0  0  0  0
 32 35  1  0  0  0  0
 35 36  1  0  0  0  0
M  END
> <PUBCHEM_COMPOUND_ID_TYPE>
0

> <PUBCHEM_TOTAL_CHARGE>
0

> <PUBCHEM_SUBSTANCE_ID>
310939561

> <PUBCHEM_SUBSTANCE_VERSION>
1

> <PUBCHEM_EXT_DATASOURCE_NAME>
4488

> <PUBCHEM_EXT_DATASOURCE_REGID>
SCHEMBL16117490

> <PUBCHEM_SUBSTANCE_COMMENT>
InChI=1S/C28H36N4O5/c1-29-17-22(33)18-37-23-7-5-6-20(14-23)28-30-24(19-8-9-25(34-3)26(15-19)35-4)16-27(31-28)32(2)21-10-12-36-13-11-21/h5-9,14-16,21-22,29,33H,10-13,17-18H2,1-4H3
InChIKey=RAGRJPMWSDGSDZ-UHFFFAOYSA-N

> <PUBCHEM_SUBSTANCE_SYNONYM>
SCHEMBL16117490

> <PUBCHEM_XREF_EXT_ID>
SCHEMBL16117490

> <PUBCHEM_EXT_DATASOURCE_URL>
https://www.surechembl.org/

> <PUBCHEM_EXT_SUBSTANCE_URL>
https://www.surechembl.org/chemical/SCHEMBL16117490

> <PUBCHEM_CID_ASSOCIATIONS>
117606853  1

> <PUBCHEM_COORDINATE_TYPE>
1
3

$$$$
