310947820
  -OEChem-07211613022D

 24 26  0     1  0  0  0  0  0999 V2000
    3.2242  -10.4199    0.0000 O   0  0  0  0  0  0  0  0  0  0  0  0
    5.3677  -10.0074    0.0000 N   0  0  0  0  0  0  0  0  0  0  0  0
    5.3677   -6.7074    0.0000 N   0  0  0  0  0  0  0  0  0  0  0  0
    3.9387   -6.7074    0.0000 N   0  0  0  0  0  0  0  0  0  0  0  0
    4.6532  -11.2449    0.0000 N   0  0  0  0  0  0  0  0  0  0  0  0
    4.6532   -5.4699    0.0000 N   0  0  0  0  0  0  0  0  0  0  0  0
    4.6532   -8.7699    0.0000 C   0  0  0  0  0  0  0  0  0  0  0  0
    3.9387  -10.0074    0.0000 C   0  0  0  0  0  0  0  0  0  0  0  0
    4.6532   -7.9449    0.0000 C   0  0  0  0  0  0  0  0  0  0  0  0
    3.9387   -9.1824    0.0000 C   0  0  0  0  0  0  0  0  0  0  0  0
    4.6532  -10.4199    0.0000 C   0  0  0  0  0  0  0  0  0  0  0  0
    5.3677   -9.1824    0.0000 C   0  0  0  0  0  0  0  0  0  0  0  0
    2.5098  -10.0074    0.0000 C   0  0  3  0  0  0  0  0  0  0  0  0
    5.3677   -7.5324    0.0000 C   0  0  0  0  0  0  0  0  0  0  0  0
    3.9387   -7.5324    0.0000 C   0  0  0  0  0  0  0  0  0  0  0  0
    1.7953  -10.4199    0.0000 C   0  0  0  0  0  0  0  0  0  0  0  0
    4.6532   -6.2949    0.0000 C   0  0  0  0  0  0  0  0  0  0  0  0
    1.0808  -10.0074    0.0000 C   0  0  0  0  0  0  0  0  0  0  0  0
    1.7953  -11.2449    0.0000 C   0  0  0  0  0  0  0  0  0  0  0  0
    2.5098   -9.1824    0.0000 C   0  0  0  0  0  0  0  0  0  0  0  0
    0.3670  -10.4199    0.0000 C   0  0  0  0  0  0  0  0  0  0  0  0
    1.0808  -11.6574    0.0000 C   0  0  0  0  0  0  0  0  0  0  0  0
    0.3664  -11.2449    0.0000 C   0  0  0  0  0  0  0  0  0  0  0  0
    5.3677   -5.0574    0.0000 C   0  0  0  0  0  0  0  0  0  0  0  0
  1  8  1  0  0  0  0
  1 13  1  0  0  0  0
  2 11  2  0  0  0  0
  2 12  1  0  0  0  0
  3 14  1  0  0  0  0
  3 17  2  0  0  0  0
  4 15  2  0  0  0  0
  4 17  1  0  0  0  0
  5 11  1  0  0  0  0
  6 17  1  0  0  0  0
  6 24  1  0  0  0  0
  7  9  1  0  0  0  0
  7 10  1  0  0  0  0
  7 12  2  0  0  0  0
  8 10  2  0  0  0  0
  8 11  1  0  0  0  0
  9 14  2  0  0  0  0
  9 15  1  0  0  0  0
 13 16  1  0  0  0  0
 13 20  1  0  0  0  0
 16 18  2  0  0  0  0
 16 19  1  0  0  0  0
 18 21  1  0  0  0  0
 19 22  2  0  0  0  0
 21 23  2  0  0  0  0
 22 23  1  0  0  0  0
M  END
> <PUBCHEM_COMPOUND_ID_TYPE>
0

> <PUBCHEM_TOTAL_CHARGE>
0

> <PUBCHEM_SUBSTANCE_ID>
310947820

> <PUBCHEM_SUBSTANCE_VERSION>
1

> <PUBCHEM_EXT_DATASOURCE_NAME>
4488

> <PUBCHEM_EXT_DATASOURCE_REGID>
SCHEMBL16125992

> <PUBCHEM_SUBSTANCE_COMMENT>
InChI=1S/C18H19N5O/c1-12(13-6-4-3-5-7-13)24-16-8-14(9-21-17(16)19)15-10-22-18(20-2)23-11-15/h3-12H,1-2H3,(H2,19,21)(H,20,22,23)
InChIKey=VRYZVVZGFGUEMX-UHFFFAOYSA-N

> <PUBCHEM_SUBSTANCE_SYNONYM>
SCHEMBL16125992

> <PUBCHEM_XREF_EXT_ID>
SCHEMBL16125992

> <PUBCHEM_EXT_DATASOURCE_URL>
https://www.surechembl.org/

> <PUBCHEM_EXT_SUBSTANCE_URL>
https://www.surechembl.org/chemical/SCHEMBL16125992

> <PUBCHEM_CID_ASSOCIATIONS>
117613488  1

> <PUBCHEM_COORDINATE_TYPE>
1
3

$$$$
