310936300
  -OEChem-07211613022D

 22 23  0     1  0  0  0  0  0999 V2000
    2.8225   -4.0988    0.0000 Cl  0  0  0  0  0  0  0  0  0  0  0  0
    4.2460   -4.9087    0.0000 Cl  0  0  0  0  0  0  0  0  0  0  0  0
    0.7117   -1.2272    0.0000 S   0  0  0  0  0  0  0  0  0  0  0  0
    3.5343   -0.4173    0.0000 O   0  0  0  0  0  0  0  0  0  0  0  0
    4.9578   -0.4173    0.0000 N   0  0  0  0  0  0  0  0  0  0  0  0
    4.2460   -1.6444    0.0000 C   0  0  3  0  0  0  0  0  0  0  0  0
    4.2460   -2.4543    0.0000 C   0  0  0  0  0  0  0  0  0  0  0  0
    3.5343   -1.2272    0.0000 C   0  0  3  0  0  0  0  0  0  0  0  0
    2.8225   -1.6444    0.0000 C   0  0  0  0  0  0  0  0  0  0  0  0
    3.5343   -2.8716    0.0000 C   0  0  0  0  0  0  0  0  0  0  0  0
    3.5343   -3.6815    0.0000 C   0  0  0  0  0  0  0  0  0  0  0  0
    4.9578   -2.8716    0.0000 C   0  0  0  0  0  0  0  0  0  0  0  0
    4.2460   -4.0988    0.0000 C   0  0  0  0  0  0  0  0  0  0  0  0
    4.9578   -1.2272    0.0000 C   0  0  0  0  0  0  0  0  0  0  0  0
    2.1107   -1.2272    0.0000 C   0  0  0  0  0  0  0  0  0  0  0  0
    4.9578   -3.6815    0.0000 C   0  0  0  0  0  0  0  0  0  0  0  0
    2.8225   -2.4543    0.0000 C   0  0  0  0  0  0  0  0  0  0  0  0
    1.3990   -1.6444    0.0000 C   0  0  0  0  0  0  0  0  0  0  0  0
    2.1107   -2.8716    0.0000 C   0  0  0  0  0  0  0  0  0  0  0  0
    1.3990   -2.4543    0.0000 C   0  0  0  0  0  0  0  0  0  0  0  0
    4.2460    0.0000    0.0000 C   0  0  0  0  0  0  0  0  0  0  0  0
    0.0000   -1.6444    0.0000 C   0  0  0  0  0  0  0  0  0  0  0  0
  1 11  1  0  0  0  0
  2 13  1  0  0  0  0
  3 18  1  0  0  0  0
  3 22  1  0  0  0  0
  4  8  1  0  0  0  0
  5 14  1  0  0  0  0
  5 21  1  0  0  0  0
  6  7  1  0  0  0  0
  6  8  1  0  0  0  0
  6 14  1  0  0  0  0
  7 10  1  0  0  0  0
  7 12  2  0  0  0  0
  8  9  1  0  0  0  0
  9 15  1  0  0  0  0
  9 17  2  0  0  0  0
 10 11  2  0  0  0  0
 11 13  1  0  0  0  0
 12 16  1  0  0  0  0
 13 16  2  0  0  0  0
 15 18  2  0  0  0  0
 17 19  1  0  0  0  0
 18 20  1  0  0  0  0
 19 20  2  0  0  0  0
M  END
> <PUBCHEM_COMPOUND_ID_TYPE>
0

> <PUBCHEM_TOTAL_CHARGE>
0

> <PUBCHEM_SUBSTANCE_ID>
310936300

> <PUBCHEM_SUBSTANCE_VERSION>
1

> <PUBCHEM_EXT_DATASOURCE_NAME>
4488

> <PUBCHEM_EXT_DATASOURCE_REGID>
SCHEMBL16113926

> <PUBCHEM_SUBSTANCE_COMMENT>
InChI=1S/C17H19Cl2NOS/c1-20-10-14(11-6-7-15(18)16(19)9-11)17(21)12-4-3-5-13(8-12)22-2/h3-9,14,17,20-21H,10H2,1-2H3
InChIKey=YDSDFUFLGLKXSJ-UHFFFAOYSA-N

> <PUBCHEM_SUBSTANCE_SYNONYM>
SCHEMBL16113926

> <PUBCHEM_XREF_EXT_ID>
SCHEMBL16113926

> <PUBCHEM_EXT_DATASOURCE_URL>
https://www.surechembl.org/

> <PUBCHEM_EXT_SUBSTANCE_URL>
https://www.surechembl.org/chemical/SCHEMBL16113926

> <PUBCHEM_CID_ASSOCIATIONS>
117604243  1

> <PUBCHEM_COORDINATE_TYPE>
1
3

$$$$
