310944976
  -OEChem-07211613022D

 42 47  0     1  0  0  0  0  0999 V2000
    3.5314    4.3970    0.0000 O   0  0  0  0  0  0  0  0  0  0  0  0
    0.2948    0.6210    0.0000 O   0  0  0  0  0  0  0  0  0  0  0  0
   -4.2464   -0.0941    0.0000 O   0  0  0  0  0  0  0  0  0  0  0  0
    2.0260    2.0888    0.0000 N   0  0  0  0  0  0  0  0  0  0  0  0
    4.2464    3.1551    0.0000 N   0  0  0  0  0  0  0  0  0  0  0  0
    4.2464    0.6963    0.0000 N   0  0  0  0  0  0  0  0  0  0  0  0
   -0.9472    1.3235    0.0000 N   0  0  0  0  0  0  0  0  0  0  0  0
   -0.9472    2.7536    0.0000 N   0  0  0  0  0  0  0  0  0  0  0  0
   -2.1765   -2.2392    0.0000 N   0  0  0  0  0  0  0  0  0  0  0  0
   -3.0045   -0.8092    0.0000 N   0  0  0  0  0  0  0  0  0  0  0  0
   -3.0045   -3.6694    0.0000 N   0  0  0  0  0  0  0  0  0  0  0  0
    3.5188    1.9256    0.0000 C   0  0  3  0  0  0  0  0  0  0  0  0
    2.7912    2.3522    0.0000 C   0  0  0  0  0  0  0  0  0  0  0  0
    2.8163    3.1676    0.0000 C   0  0  0  0  0  0  0  0  0  0  0  0
    1.5368    2.7536    0.0000 C   0  0  0  0  0  0  0  0  0  0  0  0
    3.5188    3.5691    0.0000 C   0  0  0  0  0  0  0  0  0  0  0  0
    2.0260    3.4185    0.0000 C   0  0  0  0  0  0  0  0  0  0  0  0
    4.2339    2.3396    0.0000 C   0  0  0  0  0  0  0  0  0  0  0  0
    4.2464    1.5242    0.0000 C   0  0  0  0  0  0  0  0  0  0  0  0
    2.8163    1.5242    0.0000 C   0  0  0  0  0  0  0  0  0  0  0  0
    0.7213    2.7662    0.0000 C   0  0  0  0  0  0  0  0  0  0  0  0
    2.8163    0.7088    0.0000 C   0  0  0  0  0  0  0  0  0  0  0  0
    0.2948    2.0385    0.0000 C   0  0  0  0  0  0  0  0  0  0  0  0
    0.3073    3.4561    0.0000 C   0  0  0  0  0  0  0  0  0  0  0  0
   -0.5332    2.0511    0.0000 C   0  0  0  0  0  0  0  0  0  0  0  0
    3.5188    0.2948    0.0000 C   0  0  0  0  0  0  0  0  0  0  0  0
   -1.7626   -1.5116    0.0000 C   0  0  0  0  0  0  0  0  0  0  0  0
   -2.1765   -0.8092    0.0000 C   0  0  0  0  0  0  0  0  0  0  0  0
   -0.9472   -0.1066    0.0000 C   0  0  0  0  0  0  0  0  0  0  0  0
   -0.5583    0.6210    0.0000 C   0  0  0  0  0  0  0  0  0  0  0  0
   -0.5206    3.4687    0.0000 C   0  0  0  0  0  0  0  0  0  0  0  0
   -1.7626   -0.1066    0.0000 C   0  0  0  0  0  0  0  0  0  0  0  0
   -0.9472   -1.5116    0.0000 C   0  0  0  0  0  0  0  0  0  0  0  0
   -0.5332   -0.8217    0.0000 C   0  0  0  0  0  0  0  0  0  0  0  0
   -3.0045   -2.2392    0.0000 C   0  0  0  0  0  0  0  0  0  0  0  0
   -1.7626   -2.9418    0.0000 C   0  0  0  0  0  0  0  0  0  0  0  0
   -3.4059   -0.0941    0.0000 C   0  0  0  0  0  0  0  0  0  0  0  0
   -3.4185   -2.9669    0.0000 C   0  0  0  0  0  0  0  0  0  0  0  0
   -2.1765   -3.6568    0.0000 C   0  0  0  0  0  0  0  0  0  0  0  0
   -3.0045    0.6210    0.0000 C   0  0  0  0  0  0  0  0  0  0  0  0
   -3.4059   -4.3970    0.0000 C   0  0  0  0  0  0  0  0  0  0  0  0
   -3.4812    1.3109    0.0000 C   0  0  0  0  0  0  0  0  0  0  0  0
  1 16  2  0  0  0  0
  2 30  2  0  0  0  0
  3 37  2  0  0  0  0
  4 13  1  0  0  0  0
  4 15  1  0  0  0  0
  5 16  1  0  0  0  0
  5 18  1  0  0  0  0
  6 19  1  0  0  0  0
  6 26  1  0  0  0  0
  7 25  1  0  0  0  0
  7 30  1  0  0  0  0
  8 25  1  0  0  0  0
  8 31  2  0  0  0  0
  9 27  1  0  0  0  0
  9 35  1  0  0  0  0
  9 36  1  0  0  0  0
 10 28  1  0  0  0  0
 10 37  1  0  0  0  0
 11 38  1  0  0  0  0
 11 39  1  0  0  0  0
 11 41  1  0  0  0  0
 12 13  1  0  0  0  0
 12 18  1  0  0  0  0
 12 19  1  0  0  0  0
 12 20  1  0  0  0  0
 13 14  2  0  0  0  0
 14 16  1  0  0  0  0
 14 17  1  0  0  0  0
 15 17  2  0  0  0  0
 15 21  1  0  0  0  0
 20 22  1  0  0  0  0
 21 23  1  0  0  0  0
 21 24  2  0  0  0  0
 22 26  1  0  0  0  0
 23 25  2  0  0  0  0
 24 31  1  0  0  0  0
 27 28  2  0  0  0  0
 27 33  1  0  0  0  0
 28 32  1  0  0  0  0
 29 30  1  0  0  0  0
 29 32  2  0  0  0  0
 29 34  1  0  0  0  0
 33 34  2  0  0  0  0
 35 38  1  0  0  0  0
 36 39  1  0  0  0  0
 37 40  1  0  0  0  0
 40 42  2  0  0  0  0
M  END
> <PUBCHEM_COMPOUND_ID_TYPE>
0

> <PUBCHEM_TOTAL_CHARGE>
0

> <PUBCHEM_SUBSTANCE_ID>
310944976

> <PUBCHEM_SUBSTANCE_VERSION>
1

> <PUBCHEM_EXT_DATASOURCE_NAME>
4488

> <PUBCHEM_EXT_DATASOURCE_REGID>
SCHEMBL16123064

> <PUBCHEM_SUBSTANCE_COMMENT>
InChI=1S/C31H36N8O3/c1-3-27(40)35-24-15-21(5-6-25(24)39-13-11-38(2)12-14-39)29(41)37-26-16-20(7-10-33-26)23-17-22-28(36-23)31(19-34-30(22)42)8-4-9-32-18-31/h3,5-7,10,15-17,32,36H,1,4,8-9,11-14,18-19H2,2H3,(H,34,42)(H,35,40)(H,33,37,41)
InChIKey=FDLKMIQIGYSXJX-UHFFFAOYSA-N

> <PUBCHEM_SUBSTANCE_SYNONYM>
SCHEMBL16123064

> <PUBCHEM_XREF_EXT_ID>
SCHEMBL16123064

> <PUBCHEM_EXT_DATASOURCE_URL>
https://www.surechembl.org/

> <PUBCHEM_EXT_SUBSTANCE_URL>
https://www.surechembl.org/chemical/SCHEMBL16123064

> <PUBCHEM_CID_ASSOCIATIONS>
117611124  1

> <PUBCHEM_COORDINATE_TYPE>
1
3

$$$$
