310945664
  -OEChem-07211613022D

 23 22  0     1  0  0  0  0  0999 V2000
   -1.8148    0.2057    0.0000 O   0  0  0  0  0  0  0  0  0  0  0  0
   -0.3666    0.2057    0.0000 N   0  0  0  0  0  0  0  0  0  0  0  0
    1.8148    1.4393    0.0000 N   0  0  0  0  0  0  0  0  0  0  0  0
   -1.0817   -2.6730    0.0000 N   0  0  0  0  0  0  0  0  0  0  0  0
   -1.0817   -0.2057    0.0000 C   0  0  0  0  0  0  0  0  0  0  0  0
   -1.1175   -1.0102    0.0000 C   0  0  3  0  0  0  0  0  0  0  0  0
    0.3666   -0.1878    0.0000 C   0  0  0  0  0  0  0  0  0  0  0  0
   -0.3666   -1.4393    0.0000 C   0  0  0  0  0  0  0  0  0  0  0  0
    1.0638    0.2057    0.0000 C   0  0  0  0  0  0  0  0  0  0  0  0
   -0.3666    1.0460    0.0000 C   0  0  0  0  0  0  0  0  0  0  0  0
   -1.7970   -1.4214    0.0000 C   0  0  0  0  0  0  0  0  0  0  0  0
    1.0817    1.0460    0.0000 C   0  0  0  0  0  0  0  0  0  0  0  0
   -0.3844   -2.2439    0.0000 C   0  0  0  0  0  0  0  0  0  0  0  0
    1.7970    2.2797    0.0000 C   0  0  0  0  0  0  0  0  0  0  0  0
    2.5121    1.0460    0.0000 C   0  0  0  0  0  0  0  0  0  0  0  0
   -1.8148   -2.2439    0.0000 C   0  0  0  0  0  0  0  0  0  0  0  0
   -2.5300   -2.6372    0.0000 C   0  0  0  0  0  0  0  0  0  0  0  0
    1.0638    2.6730    0.0000 C   0  0  0  0  0  0  0  0  0  0  0  0
    3.2631    1.4393    0.0000 C   0  0  0  0  0  0  0  0  0  0  0  0
   -3.2631   -2.2439    0.0000 C   0  0  0  0  0  0  0  0  0  0  0  0
   -3.2631   -1.4214    0.0000 C   0  0  0  0  0  0  0  0  0  0  0  0
   -2.5300   -1.0281    0.0000 C   0  0  0  0  0  0  0  0  0  0  0  0
   -1.9579   -1.5287    0.0000 C   0  0  0  0  0  0  0  0  0  0  0  0
  1  5  2  0  0  0  0
  2  5  1  0  0  0  0
  2  7  1  0  0  0  0
  2 10  1  0  0  0  0
  3 12  1  0  0  0  0
  3 14  1  0  0  0  0
  3 15  1  0  0  0  0
  4 13  2  0  0  0  0
  4 16  1  0  0  0  0
  5  6  1  0  0  0  0
  6  8  1  0  0  0  0
  6 11  1  0  0  0  0
  7  9  1  0  0  0  0
  8 13  1  0  0  0  0
  9 12  1  0  0  0  0
 14 18  1  0  0  0  0
 15 19  1  0  0  0  0
 16 17  1  0  0  0  0
 17 20  1  0  0  0  0
 20 21  2  0  0  0  0
 21 22  1  0  0  0  0
 22 23  1  0  0  0  0
M  END
> <PUBCHEM_COMPOUND_ID_TYPE>
0

> <PUBCHEM_TOTAL_CHARGE>
0

> <PUBCHEM_SUBSTANCE_ID>
310945664

> <PUBCHEM_SUBSTANCE_VERSION>
1

> <PUBCHEM_EXT_DATASOURCE_NAME>
4488

> <PUBCHEM_EXT_DATASOURCE_REGID>
SCHEMBL16123764

> <PUBCHEM_SUBSTANCE_COMMENT>
InChI=1S/C19H37N3O/c1-6-9-10-11-14-20-15-13-18(4)19(23)21(5)16-12-17-22(7-2)8-3/h9-10,15,18H,6-8,11-14,16-17H2,1-5H3/b10-9-,20-15-
InChIKey=NCRKMQQNUBQGAM-AKKBPEALSA-N

> <PUBCHEM_SUBSTANCE_SYNONYM>
SCHEMBL16123764

> <PUBCHEM_XREF_EXT_ID>
SCHEMBL16123764

> <PUBCHEM_EXT_DATASOURCE_URL>
https://www.surechembl.org/

> <PUBCHEM_EXT_SUBSTANCE_URL>
https://www.surechembl.org/chemical/SCHEMBL16123764

> <PUBCHEM_CID_ASSOCIATIONS>
117611665  1

> <PUBCHEM_COORDINATE_TYPE>
1
3

$$$$
