310941094
  -OEChem-07211613022D

 39 42  0     1  0  0  0  0  0999 V2000
    4.5172    0.6721    0.0000 O   0  0  0  0  0  0  0  0  0  0  0  0
    3.3810   -1.2817    0.0000 O   0  0  0  0  0  0  0  0  0  0  0  0
    1.2193    0.7829    0.0000 O   0  0  0  0  0  0  0  0  0  0  0  0
   -4.8498   -1.0462    0.0000 O   0  0  0  0  0  0  0  0  0  0  0  0
   -0.9423   -1.2817    0.0000 O   0  0  0  0  0  0  0  0  0  0  0  0
   -3.1039    0.7829    0.0000 O   0  0  0  0  0  0  0  0  0  0  0  0
    3.3810   -2.9445    0.0000 O   0  0  0  0  0  0  0  0  0  0  0  0
    1.9399   -0.4503    0.0000 N   0  0  0  0  0  0  0  0  0  0  0  0
   -0.2217   -0.0346    0.0000 N   0  0  0  0  0  0  0  0  0  0  0  0
   -2.3834   -0.4503    0.0000 N   0  0  0  0  0  0  0  0  0  0  0  0
    4.1015    0.0070    0.0000 C   0  0  3  0  0  0  0  0  0  0  0  0
    3.3949   -0.4087    0.0000 C   0  0  0  0  0  0  0  0  0  0  0  0
    3.7136    0.6859    0.0000 C   0  0  0  0  0  0  0  0  0  0  0  0
    2.6604   -0.0208    0.0000 C   0  0  3  0  0  0  0  0  0  0  0  0
    4.8498   -0.4365    0.0000 C   0  0  0  0  0  0  0  0  0  0  0  0
    2.6604    1.3094    0.0000 C   0  0  0  0  0  0  0  0  0  0  0  0
    1.2193   -0.0346    0.0000 C   0  0  0  0  0  0  0  0  0  0  0  0
    0.5127   -0.4226    0.0000 C   0  0  3  0  0  0  0  0  0  0  0  0
    1.9399    1.7390    0.0000 C   0  0  0  0  0  0  0  0  0  0  0  0
    0.4988   -1.2540    0.0000 C   0  0  0  0  0  0  0  0  0  0  0  0
   -0.9284   -0.4087    0.0000 C   0  0  0  0  0  0  0  0  0  0  0  0
    1.2332   -1.6697    0.0000 C   0  0  0  0  0  0  0  0  0  0  0  0
   -1.6628   -0.0208    0.0000 C   0  0  3  0  0  0  0  0  0  0  0  0
    1.9399    2.5427    0.0000 C   0  0  0  0  0  0  0  0  0  0  0  0
    1.1917    1.3233    0.0000 C   0  0  0  0  0  0  0  0  0  0  0  0
   -3.8244   -0.4365    0.0000 C   0  0  0  0  0  0  0  0  0  0  0  0
   -3.1177   -0.0346    0.0000 C   0  0  0  0  0  0  0  0  0  0  0  0
    1.2332   -2.5011    0.0000 C   0  0  0  0  0  0  0  0  0  0  0  0
    1.9399   -1.2817    0.0000 C   0  0  0  0  0  0  0  0  0  0  0  0
   -4.0461   -1.2263    0.0000 C   0  0  0  0  0  0  0  0  0  0  0  0
   -4.6281   -0.2286    0.0000 C   0  0  0  0  0  0  0  0  0  0  0  0
    1.2193    2.9445    0.0000 C   0  0  0  0  0  0  0  0  0  0  0  0
    0.5127    1.7251    0.0000 C   0  0  0  0  0  0  0  0  0  0  0  0
    2.6466   -2.5011    0.0000 C   0  0  0  0  0  0  0  0  0  0  0  0
    1.9399   -2.9030    0.0000 C   0  0  0  0  0  0  0  0  0  0  0  0
    2.6604   -1.6836    0.0000 C   0  0  0  0  0  0  0  0  0  0  0  0
    0.5127    2.5427    0.0000 C   0  0  0  0  0  0  0  0  0  0  0  0
   -1.6489    0.8244    0.0000 C   0  0  0  0  0  0  0  0  0  0  0  0
    4.1293   -2.5011    0.0000 C   0  0  0  0  0  0  0  0  0  0  0  0
  1 11  1  0  0  0  0
  1 13  1  0  0  0  0
  2 12  2  0  0  0  0
  3 17  2  0  0  0  0
  4 30  1  0  0  0  0
  4 31  1  0  0  0  0
  5 21  2  0  0  0  0
  6 27  2  0  0  0  0
  7 34  1  0  0  0  0
  7 39  1  0  0  0  0
  8 14  1  0  0  0  0
  8 17  1  0  0  0  0
  9 18  1  0  0  0  0
  9 21  1  0  0  0  0
 10 23  1  0  0  0  0
 10 27  1  0  0  0  0
 11 12  1  0  0  0  0
 11 13  1  0  0  0  0
 11 15  1  0  0  0  0
 12 14  1  0  0  0  0
 14 16  1  0  0  0  0
 16 19  1  0  0  0  0
 17 18  1  0  0  0  0
 18 20  1  0  0  0  0
 19 24  2  0  0  0  0
 19 25  1  0  0  0  0
 20 22  1  0  0  0  0
 21 23  1  0  0  0  0
 22 28  2  0  0  0  0
 22 29  1  0  0  0  0
 23 38  1  0  0  0  0
 24 32  1  0  0  0  0
 25 33  2  0  0  0  0
 26 27  1  0  0  0  0
 26 30  1  0  0  0  0
 26 31  1  0  0  0  0
 28 35  1  0  0  0  0
 29 36  2  0  0  0  0
 32 37  2  0  0  0  0
 33 37  1  0  0  0  0
 34 35  2  0  0  0  0
 34 36  1  0  0  0  0
M  END
> <PUBCHEM_COMPOUND_ID_TYPE>
0

> <PUBCHEM_TOTAL_CHARGE>
0

> <PUBCHEM_SUBSTANCE_ID>
310941094

> <PUBCHEM_SUBSTANCE_VERSION>
1

> <PUBCHEM_EXT_DATASOURCE_NAME>
4488

> <PUBCHEM_EXT_DATASOURCE_REGID>
SCHEMBL16119054

> <PUBCHEM_SUBSTANCE_COMMENT>
InChI=1S/C29H35N3O7/c1-18(30-27(35)21-15-38-16-21)26(34)32-24(14-20-9-11-22(37-3)12-10-20)28(36)31-23(25(33)29(2)17-39-29)13-19-7-5-4-6-8-19/h4-12,18,21,23-24H,13-17H2,1-3H3,(H,30,35)(H,31,36)(H,32,34)
InChIKey=PHOKUODYTCOYQJ-UHFFFAOYSA-N

> <PUBCHEM_SUBSTANCE_SYNONYM>
SCHEMBL16119054

> <PUBCHEM_XREF_EXT_ID>
SCHEMBL16119054

> <PUBCHEM_EXT_DATASOURCE_URL>
https://www.surechembl.org/

> <PUBCHEM_EXT_SUBSTANCE_URL>
https://www.surechembl.org/chemical/SCHEMBL16119054

> <PUBCHEM_CID_ASSOCIATIONS>
117607979  1

> <PUBCHEM_COORDINATE_TYPE>
1
3

$$$$
