310932346
  -OEChem-07211613022D

 15 14  0     1  0  0  0  0  0999 V2000
    1.5362   -0.8379    0.0000 P   0  0  0  0  0  0  0  0  0  0  0  0
    2.4614   -2.0773    0.0000 P   0  0  0  0  0  0  0  0  0  0  0  0
    0.0000   -2.0599    0.0000 F   0  0  0  0  0  0  0  0  0  0  0  0
    0.4015   -1.3441    0.0000 F   0  0  0  0  0  0  0  0  0  0  0  0
    1.5362   -1.6584    0.0000 O   0  0  0  0  0  0  0  0  0  0  0  0
    2.0424   -2.7930    0.0000 O   0  0  0  0  0  0  0  0  0  0  0  0
    2.3567   -0.8204    0.0000 O   0  0  0  0  0  0  0  0  0  0  0  0
    0.7157   -0.8379    0.0000 O   0  0  0  0  0  0  0  0  0  0  0  0
    1.5362    0.0000    0.0000 O   0  0  0  0  0  0  0  0  0  0  0  0
    3.1946   -2.4788    0.0000 O   0  0  0  0  0  0  0  0  0  0  0  0
    1.7457   -1.6584    0.0000 O   0  0  0  0  0  0  0  0  0  0  0  0
    2.8804   -1.3616    0.0000 O   0  0  0  0  0  0  0  0  0  0  0  0
    0.8204   -2.0599    0.0000 C   0  0  0  0  0  0  0  0  0  0  0  0
    1.2220   -2.7756    0.0000 C   0  0  3  0  0  0  0  0  0  0  0  0
    0.8030   -3.4913    0.0000 C   0  0  0  0  0  0  0  0  0  0  0  0
  1  5  1  0  0  0  0
  1  7  2  0  0  0  0
  1  8  1  0  0  0  0
  1  9  1  0  0  0  0
  2  6  1  0  0  0  0
  2 10  2  0  0  0  0
  2 11  1  0  0  0  0
  2 12  1  0  0  0  0
  3 13  1  0  0  0  0
  4 13  1  0  0  0  0
  5 13  1  0  0  0  0
  6 14  1  0  0  0  0
 13 14  1  0  0  0  0
 14 15  1  0  0  0  0
M  END
> <PUBCHEM_COMPOUND_ID_TYPE>
0

> <PUBCHEM_TOTAL_CHARGE>
0

> <PUBCHEM_SUBSTANCE_ID>
310932346

> <PUBCHEM_SUBSTANCE_VERSION>
1

> <PUBCHEM_EXT_DATASOURCE_NAME>
4488

> <PUBCHEM_EXT_DATASOURCE_REGID>
SCHEMBL16109712

> <PUBCHEM_SUBSTANCE_COMMENT>
InChI=1S/C3H8F2O8P2/c1-2(12-14(6,7)8)3(4,5)13-15(9,10)11/h2H,1H3,(H2,6,7,8)(H2,9,10,11)
InChIKey=QUCZHXWVIQASIK-UHFFFAOYSA-N

> <PUBCHEM_SUBSTANCE_SYNONYM>
SCHEMBL16109712

> <PUBCHEM_XREF_EXT_ID>
SCHEMBL16109712

> <PUBCHEM_EXT_DATASOURCE_URL>
https://www.surechembl.org/

> <PUBCHEM_EXT_SUBSTANCE_URL>
https://www.surechembl.org/chemical/SCHEMBL16109712

> <PUBCHEM_CID_ASSOCIATIONS>
117600901  1

> <PUBCHEM_COORDINATE_TYPE>
1
3

$$$$
