310929864
  -OEChem-07211613022D

 39 38  0     1  0  0  0  0  0999 V2000
    0.7145   -2.0625    0.0000 O   0  0  0  0  0  0  0  0  0  0  0  0
    0.7145   -2.8876    0.0000 C   0  0  3  0  0  0  0  0  0  0  0  0
    0.0000   -3.3001    0.0000 C   0  0  0  0  0  0  0  0  0  0  0  0
    1.4290   -3.3001    0.0000 C   0  0  0  0  0  0  0  0  0  0  0  0
   -0.7145   -2.8876    0.0000 C   0  0  0  0  0  0  0  0  0  0  0  0
    2.1435   -2.8876    0.0000 C   0  0  0  0  0  0  0  0  0  0  0  0
    1.4290   -1.6500    0.0000 C   0  0  0  0  0  0  0  0  0  0  0  0
   -1.4290   -3.3001    0.0000 C   0  0  0  0  0  0  0  0  0  0  0  0
    2.8579   -3.3001    0.0000 C   0  0  0  0  0  0  0  0  0  0  0  0
    1.4290   -0.8250    0.0000 C   0  0  0  0  0  0  0  0  0  0  0  0
   -2.1435   -2.8876    0.0000 C   0  0  0  0  0  0  0  0  0  0  0  0
    3.5724   -2.8876    0.0000 C   0  0  0  0  0  0  0  0  0  0  0  0
   -2.8579   -3.3001    0.0000 C   0  0  0  0  0  0  0  0  0  0  0  0
    4.2869   -3.3001    0.0000 C   0  0  0  0  0  0  0  0  0  0  0  0
    2.1435   -0.4125    0.0000 C   0  0  0  0  0  0  0  0  0  0  0  0
   -3.5724   -2.8876    0.0000 C   0  0  0  0  0  0  0  0  0  0  0  0
    5.0014   -2.8876    0.0000 C   0  0  0  0  0  0  0  0  0  0  0  0
   -4.2869   -3.3001    0.0000 C   0  0  0  0  0  0  0  0  0  0  0  0
    5.7159   -3.3001    0.0000 C   0  0  0  0  0  0  0  0  0  0  0  0
   -5.0014   -2.8876    0.0000 C   0  0  0  0  0  0  0  0  0  0  0  0
    6.4304   -2.8876    0.0000 C   0  0  0  0  0  0  0  0  0  0  0  0
   -5.7159   -3.3001    0.0000 C   0  0  0  0  0  0  0  0  0  0  0  0
    7.1449   -3.3001    0.0000 C   0  0  0  0  0  0  0  0  0  0  0  0
   -6.4304   -2.8876    0.0000 C   0  0  0  0  0  0  0  0  0  0  0  0
    7.8594   -2.8876    0.0000 C   0  0  0  0  0  0  0  0  0  0  0  0
   -7.1449   -3.3001    0.0000 C   0  0  0  0  0  0  0  0  0  0  0  0
    8.5738   -3.3001    0.0000 C   0  0  0  0  0  0  0  0  0  0  0  0
    2.1435    0.4125    0.0000 C   0  0  0  0  0  0  0  0  0  0  0  0
   -7.8594   -2.8876    0.0000 C   0  0  0  0  0  0  0  0  0  0  0  0
    9.2883   -2.8876    0.0000 C   0  0  0  0  0  0  0  0  0  0  0  0
   -8.5738   -3.3001    0.0000 C   0  0  0  0  0  0  0  0  0  0  0  0
   10.0028   -3.3001    0.0000 C   0  0  0  0  0  0  0  0  0  0  0  0
   -9.2883   -2.8876    0.0000 C   0  0  0  0  0  0  0  0  0  0  0  0
   10.7173   -2.8876    0.0000 C   0  0  0  0  0  0  0  0  0  0  0  0
  -10.0028   -3.3001    0.0000 C   0  0  0  0  0  0  0  0  0  0  0  0
   11.4318   -3.3001    0.0000 C   0  0  0  0  0  0  0  0  0  0  0  0
  -10.7173   -2.8876    0.0000 C   0  0  0  0  0  0  0  0  0  0  0  0
   12.1463   -2.8876    0.0000 C   0  0  0  0  0  0  0  0  0  0  0  0
  -11.4318   -3.3001    0.0000 C   0  0  0  0  0  0  0  0  0  0  0  0
  1  2  1  0  0  0  0
  1  7  1  0  0  0  0
  2  3  1  0  0  0  0
  2  4  1  0  0  0  0
  3  5  1  0  0  0  0
  4  6  1  0  0  0  0
  5  8  1  0  0  0  0
  6  9  1  0  0  0  0
  7 10  1  0  0  0  0
  8 11  1  0  0  0  0
  9 12  1  0  0  0  0
 10 15  1  0  0  0  0
 11 13  1  0  0  0  0
 12 14  1  0  0  0  0
 13 16  1  0  0  0  0
 14 17  1  0  0  0  0
 15 28  2  0  0  0  0
 16 18  1  0  0  0  0
 17 19  1  0  0  0  0
 18 20  1  0  0  0  0
 19 21  1  0  0  0  0
 20 22  1  0  0  0  0
 21 23  1  0  0  0  0
 22 24  1  0  0  0  0
 23 25  1  0  0  0  0
 24 26  1  0  0  0  0
 25 27  1  0  0  0  0
 26 29  1  0  0  0  0
 27 30  1  0  0  0  0
 29 31  1  0  0  0  0
 30 32  1  0  0  0  0
 31 33  1  0  0  0  0
 32 34  1  0  0  0  0
 33 35  1  0  0  0  0
 34 36  1  0  0  0  0
 35 37  1  0  0  0  0
 36 38  1  0  0  0  0
 37 39  1  0  0  0  0
M  END
> <PUBCHEM_COMPOUND_ID_TYPE>
0

> <PUBCHEM_TOTAL_CHARGE>
0

> <PUBCHEM_SUBSTANCE_ID>
310929864

> <PUBCHEM_SUBSTANCE_VERSION>
1

> <PUBCHEM_EXT_DATASOURCE_NAME>
4488

> <PUBCHEM_EXT_DATASOURCE_REGID>
SCHEMBL16107079

> <PUBCHEM_SUBSTANCE_COMMENT>
InChI=1S/C38H76O/c1-4-7-10-12-14-16-18-20-22-24-26-28-30-32-34-36-38(39-37-9-6-3)35-33-31-29-27-25-23-21-19-17-15-13-11-8-5-2/h6,38H,3-5,7-37H2,1-2H3
InChIKey=GCDFQAWLJYCHQW-UHFFFAOYSA-N

> <PUBCHEM_SUBSTANCE_SYNONYM>
SCHEMBL16107079

> <PUBCHEM_XREF_EXT_ID>
SCHEMBL16107079

> <PUBCHEM_EXT_DATASOURCE_URL>
https://www.surechembl.org/

> <PUBCHEM_EXT_SUBSTANCE_URL>
https://www.surechembl.org/chemical/SCHEMBL16107079

> <PUBCHEM_CID_ASSOCIATIONS>
117599134  1

> <PUBCHEM_COORDINATE_TYPE>
1
3

$$$$
