310949254
  -OEChem-07211613022D

 29 30  0     1  0  0  0  0  0999 V2000
    3.3629    0.3289    0.0000 F   0  0  0  0  0  0  0  0  0  0  0  0
    3.9462   -0.2544    0.0000 F   0  0  0  0  0  0  0  0  0  0  0  0
    3.7352   -1.0486    0.0000 F   0  0  0  0  0  0  0  0  0  0  0  0
    0.3723    0.2668    0.0000 O   0  0  0  0  0  0  0  0  0  0  0  0
   -0.3723    3.0341    0.0000 O   0  0  0  0  0  0  0  0  0  0  0  0
    1.6132   -3.1582    0.0000 N   0  0  0  0  0  0  0  0  0  0  0  0
    1.2533   -3.8283    0.0000 N   0  0  0  0  0  0  0  0  0  0  0  0
   -1.0921   -2.7487    0.0000 N   0  0  3  0  0  0  0  0  0  0  0  0
   -3.2389   -2.3392    0.0000 N   0  0  0  0  0  0  0  0  0  0  0  0
    1.3402   -1.6939    0.0000 C   0  0  0  0  0  0  0  0  0  0  0  0
    2.3578   -0.6763    0.0000 C   0  0  0  0  0  0  0  0  0  0  0  0
    2.1344   -1.4705    0.0000 C   0  0  0  0  0  0  0  0  0  0  0  0
    1.1169   -2.5005    0.0000 C   0  0  0  0  0  0  0  0  0  0  0  0
    3.1520   -0.4529    0.0000 C   0  0  0  0  0  0  0  0  0  0  0  0
    0.3351   -2.7487    0.0000 C   0  0  0  0  0  0  0  0  0  0  0  0
    0.7694   -1.1107    0.0000 C   0  0  0  0  0  0  0  0  0  0  0  0
    0.9804   -0.3040    0.0000 C   0  0  0  0  0  0  0  0  0  0  0  0
    1.7621   -0.1055    0.0000 C   0  0  0  0  0  0  0  0  0  0  0  0
    0.3351   -3.5677    0.0000 C   0  0  0  0  0  0  0  0  0  0  0  0
    2.7301   -2.0662    0.0000 C   0  0  0  0  0  0  0  0  0  0  0  0
   -0.3847   -2.3392    0.0000 C   0  0  0  0  0  0  0  0  0  0  0  0
    0.5957    1.0734    0.0000 C   0  0  0  0  0  0  0  0  0  0  0  0
   -1.8242   -2.3392    0.0000 C   0  0  0  0  0  0  0  0  0  0  0  0
   -1.0796   -3.5801    0.0000 C   0  0  0  0  0  0  0  0  0  0  0  0
    0.0124    1.6567    0.0000 C   0  0  0  0  0  0  0  0  0  0  0  0
   -2.5191   -2.7487    0.0000 C   0  0  0  0  0  0  0  0  0  0  0  0
    0.2234    2.4633    0.0000 C   0  0  0  0  0  0  0  0  0  0  0  0
   -3.9462   -2.7611    0.0000 C   0  0  0  0  0  0  0  0  0  0  0  0
   -0.1489    3.8283    0.0000 C   0  0  0  0  0  0  0  0  0  0  0  0
  1 14  1  0  0  0  0
  2 14  1  0  0  0  0
  3 14  1  0  0  0  0
  4 17  1  0  0  0  0
  4 22  1  0  0  0  0
  5 27  1  0  0  0  0
  5 29  1  0  0  0  0
  6  7  1  0  0  0  0
  6 13  2  0  0  0  0
  7 19  1  0  0  0  0
  8 21  1  0  0  0  0
  8 23  1  0  0  0  0
  8 24  1  0  0  0  0
  9 26  1  0  0  0  0
  9 28  1  0  0  0  0
 10 12  2  0  0  0  0
 10 13  1  0  0  0  0
 10 16  1  0  0  0  0
 11 12  1  0  0  0  0
 11 14  1  0  0  0  0
 11 18  2  0  0  0  0
 12 20  1  0  0  0  0
 13 15  1  0  0  0  0
 15 19  2  0  0  0  0
 15 21  1  0  0  0  0
 16 17  2  0  0  0  0
 17 18  1  0  0  0  0
 22 25  1  0  0  0  0
 23 26  1  0  0  0  0
 25 27  1  0  0  0  0
M  END
> <PUBCHEM_COMPOUND_ID_TYPE>
0

> <PUBCHEM_TOTAL_CHARGE>
0

> <PUBCHEM_SUBSTANCE_ID>
310949254

> <PUBCHEM_SUBSTANCE_VERSION>
1

> <PUBCHEM_EXT_DATASOURCE_NAME>
4488

> <PUBCHEM_EXT_DATASOURCE_REGID>
SCHEMBL16127444

> <PUBCHEM_SUBSTANCE_COMMENT>
InChI=1S/C20H29F3N4O2/c1-14-17(19-15(12-25-26-19)13-27(3)7-6-24-2)10-16(29-9-5-8-28-4)11-18(14)20(21,22)23/h10-12,24H,5-9,13H2,1-4H3,(H,25,26)
InChIKey=WPCMSPFAOMWXTB-UHFFFAOYSA-N

> <PUBCHEM_SUBSTANCE_SYNONYM>
SCHEMBL16127444

> <PUBCHEM_XREF_EXT_ID>
SCHEMBL16127444

> <PUBCHEM_EXT_DATASOURCE_URL>
https://www.surechembl.org/

> <PUBCHEM_EXT_SUBSTANCE_URL>
https://www.surechembl.org/chemical/SCHEMBL16127444

> <PUBCHEM_CID_ASSOCIATIONS>
117614741  1

> <PUBCHEM_COORDINATE_TYPE>
1
3

$$$$
