310931402
  -OEChem-07211613022D

 29 31  0     1  0  0  0  0  0999 V2000
    1.9794    2.8112    0.0000 O   0  0  0  0  0  0  0  0  0  0  0  0
    2.4535    0.4923    0.0000 O   0  0  0  0  0  0  0  0  0  0  0  0
    5.8583   -0.5907    0.0000 O   0  0  0  0  0  0  0  0  0  0  0  0
    6.2893    0.2958    0.0000 O   0  0  0  0  0  0  0  0  0  0  0  0
    2.0424    1.2946    0.0000 N   0  0  0  0  0  0  0  0  0  0  0  0
    3.2227    1.9182    0.0000 C   0  0  3  0  0  0  0  0  0  0  0  0
    3.5962    1.0844    0.0000 C   0  0  3  0  0  0  0  0  0  0  0  0
    3.8560    2.4469    0.0000 C   0  0  3  0  0  0  0  0  0  0  0  0
    2.4060    2.0351    0.0000 C   0  0  0  0  0  0  0  0  0  0  0  0
    2.6553    0.9524    0.0000 C   0  0  3  0  0  0  0  0  0  0  0  0
    3.2360    1.1169    0.0000 C   0  0  0  0  0  0  0  0  0  0  0  0
    3.9059    0.8421    0.0000 C   0  0  3  0  0  0  0  0  0  0  0  0
    4.7717    1.3499    0.0000 C   0  0  0  0  0  0  0  0  0  0  0  0
    4.5027    2.1742    0.0000 C   0  0  0  0  0  0  0  0  0  0  0  0
    4.8629    2.1417    0.0000 C   0  0  0  0  0  0  0  0  0  0  0  0
    2.5298   -0.0616    0.0000 C   0  0  0  0  0  0  0  0  0  0  0  0
    4.1971    0.7579    0.0000 C   0  0  0  0  0  0  0  0  0  0  0  0
    3.9298   -0.0727    0.0000 C   0  0  0  0  0  0  0  0  0  0  0  0
    5.2639    2.6913    0.0000 C   0  0  0  0  0  0  0  0  0  0  0  0
    5.6729    1.2679    0.0000 C   0  0  0  0  0  0  0  0  0  0  0  0
    1.9161   -0.6990    0.0000 C   0  0  0  0  0  0  0  0  0  0  0  0
    4.5825    0.0285    0.0000 C   0  0  0  0  0  0  0  0  0  0  0  0
    5.3953    0.1696    0.0000 C   0  0  3  0  0  0  0  0  0  0  0  0
    6.0384    2.4072    0.0000 C   0  0  0  0  0  0  0  0  0  0  0  0
    5.4913    0.7539    0.0000 C   0  0  3  0  0  0  0  0  0  0  0  0
    5.2514    3.5989    0.0000 C   0  0  0  0  0  0  0  0  0  0  0  0
    6.1796    1.5943    0.0000 C   0  0  0  0  0  0  0  0  0  0  0  0
    2.1447   -1.4917    0.0000 C   0  0  0  0  0  0  0  0  0  0  0  0
    1.1153   -0.5007    0.0000 C   0  0  0  0  0  0  0  0  0  0  0  0
  1  9  2  0  0  0  0
  2 11  2  0  0  0  0
  3 23  1  0  0  0  0
  4 25  1  0  0  0  0
  5  9  1  0  0  0  0
  5 10  1  0  0  0  0
  6  7  1  0  0  0  0
  6  8  1  0  0  0  0
  6  9  1  0  0  0  0
  6 11  1  0  0  0  0
  7 10  1  0  0  0  0
  7 12  1  0  0  0  0
  8 14  1  0  0  0  0
  8 15  1  0  0  0  0
 10 16  1  0  0  0  0
 11 17  1  0  0  0  0
 12 13  1  0  0  0  0
 12 18  1  0  0  0  0
 13 14  2  0  0  0  0
 13 20  1  0  0  0  0
 15 19  2  0  0  0  0
 16 21  1  0  0  0  0
 17 22  2  0  0  0  0
 19 24  1  0  0  0  0
 19 26  1  0  0  0  0
 21 28  1  0  0  0  0
 21 29  1  0  0  0  0
 22 23  1  0  0  0  0
 23 25  1  0  0  0  0
 24 27  1  0  0  0  0
 25 27  1  0  0  0  0
M  END
> <PUBCHEM_COMPOUND_ID_TYPE>
0

> <PUBCHEM_TOTAL_CHARGE>
0

> <PUBCHEM_SUBSTANCE_ID>
310931402

> <PUBCHEM_SUBSTANCE_VERSION>
1

> <PUBCHEM_EXT_DATASOURCE_NAME>
4488

> <PUBCHEM_EXT_DATASOURCE_REGID>
SCHEMBL16108726

> <PUBCHEM_SUBSTANCE_COMMENT>
InChI=1S/C24H35NO4/c1-13(2)10-18-22-16(5)15(4)12-17-11-14(3)6-7-19(26)20(27)8-9-21(28)24(17,22)23(29)25-18/h8-9,11-13,16-20,22,26-27H,6-7,10H2,1-5H3,(H,25,29)
InChIKey=GCIKKGSNXSCKCP-UHFFFAOYSA-N

> <PUBCHEM_SUBSTANCE_SYNONYM>
SCHEMBL16108726

> <PUBCHEM_XREF_EXT_ID>
SCHEMBL16108726

> <PUBCHEM_EXT_DATASOURCE_URL>
https://www.surechembl.org/

> <PUBCHEM_EXT_SUBSTANCE_URL>
https://www.surechembl.org/chemical/SCHEMBL16108726

> <PUBCHEM_CID_ASSOCIATIONS>
14286542  1

> <PUBCHEM_COORDINATE_TYPE>
1
3

> <PUBCHEM_BONDANNOTATIONS>
17  11  3
15  8  3

$$$$
