310945381
  -OEChem-07211613022D

 11 10  0     1  0  0  0  0  0999 V2000
   -0.0071   -1.0737    0.0000 O   0  0  0  0  0  0  0  0  0  0  0  0
   -0.7466    1.0737    0.0000 O   0  0  0  0  0  0  0  0  0  0  0  0
    0.7324    1.0737    0.0000 O   0  0  0  0  0  0  0  0  0  0  0  0
   -1.4862   -1.0453    0.0000 O   0  0  0  0  0  0  0  0  0  0  0  0
   -2.2257    0.2347    0.0000 O   0  0  0  0  0  0  0  0  0  0  0  0
    2.2257    0.1777    0.0000 O   0  0  0  0  0  0  0  0  0  0  0  0
    1.4862   -0.2204    0.0000 N   0  0  0  0  0  0  0  0  0  0  0  0
    0.0071   -0.1636    0.0000 C   0  0  3  0  0  0  0  0  0  0  0  0
   -0.7609    0.2631    0.0000 C   0  0  3  0  0  0  0  0  0  0  0  0
    0.7182    0.2488    0.0000 C   0  0  0  0  0  0  0  0  0  0  0  0
   -1.4719   -0.1209    0.0000 C   0  0  0  0  0  0  0  0  0  0  0  0
  1  8  1  0  0  0  0
  2  9  1  0  0  0  0
  3 10  2  0  0  0  0
  4 11  2  0  0  0  0
  5 11  1  0  0  0  0
  6  7  2  0  0  0  0
  7 10  1  0  0  0  0
  8  9  1  0  0  0  0
  8 10  1  0  0  0  0
  9 11  1  0  0  0  0
M  END
> <PUBCHEM_COMPOUND_ID_TYPE>
0

> <PUBCHEM_TOTAL_CHARGE>
0

> <PUBCHEM_SUBSTANCE_ID>
310945381

> <PUBCHEM_SUBSTANCE_VERSION>
1

> <PUBCHEM_EXT_DATASOURCE_NAME>
4488

> <PUBCHEM_EXT_DATASOURCE_REGID>
SCHEMBL16123479

> <PUBCHEM_SUBSTANCE_COMMENT>
InChI=1S/C4H5NO6/c6-1(3(8)5-11)2(7)4(9)10/h1-2,6-7H,(H,9,10)
InChIKey=BYTYNUWJQSMGJJ-UHFFFAOYSA-N

> <PUBCHEM_SUBSTANCE_SYNONYM>
SCHEMBL16123479

> <PUBCHEM_XREF_EXT_ID>
SCHEMBL16123479

> <PUBCHEM_EXT_DATASOURCE_URL>
https://www.surechembl.org/

> <PUBCHEM_EXT_SUBSTANCE_URL>
https://www.surechembl.org/chemical/SCHEMBL16123479

> <PUBCHEM_CID_ASSOCIATIONS>
117611434  1

> <PUBCHEM_COORDINATE_TYPE>
1
3

$$$$
