310945482
  -OEChem-07211613022D

 21 23  0     1  0  0  0  0  0999 V2000
   -2.4249    1.0916    0.0000 O   0  0  0  0  0  0  0  0  0  0  0  0
    0.3883    0.3297    0.0000 N   0  0  0  0  0  0  0  0  0  0  0  0
    2.4249    1.2529    0.0000 N   0  0  0  0  0  0  0  0  0  0  0  0
   -0.3151   -1.7949    0.0000 N   0  0  0  0  0  0  0  0  0  0  0  0
    1.0331    0.8279    0.0000 C   0  0  0  0  0  0  0  0  0  0  0  0
    0.8132    1.6044    0.0000 C   0  0  0  0  0  0  0  0  0  0  0  0
   -0.3004    0.8425    0.0000 C   0  0  0  0  0  0  0  0  0  0  0  0
   -0.0220    1.6191    0.0000 C   0  0  0  0  0  0  0  0  0  0  0  0
    1.8536    0.6374    0.0000 C   0  0  0  0  0  0  0  0  0  0  0  0
   -1.0916    0.6520    0.0000 C   0  0  0  0  0  0  0  0  0  0  0  0
   -0.5641    2.2052    0.0000 C   0  0  0  0  0  0  0  0  0  0  0  0
    1.3700    2.2199    0.0000 C   0  0  0  0  0  0  0  0  0  0  0  0
    0.3737   -0.4908    0.0000 C   0  0  0  0  0  0  0  0  0  0  0  0
   -1.6484    1.2822    0.0000 C   0  0  0  0  0  0  0  0  0  0  0  0
   -1.3700    2.0440    0.0000 C   0  0  0  0  0  0  0  0  0  0  0  0
    2.1759    2.0440    0.0000 C   0  0  0  0  0  0  0  0  0  0  0  0
   -0.3004   -0.9597    0.0000 C   0  0  3  0  0  0  0  0  0  0  0  0
    2.1759   -0.2418    0.0000 C   0  0  0  0  0  0  0  0  0  0  0  0
   -1.0183   -0.5348    0.0000 C   0  0  0  0  0  0  0  0  0  0  0  0
   -1.0331   -2.1906    0.0000 C   0  0  0  0  0  0  0  0  0  0  0  0
    0.4323   -2.2199    0.0000 C   0  0  0  0  0  0  0  0  0  0  0  0
  1 14  1  0  0  0  0
  2  5  1  0  0  0  0
  2  7  1  0  0  0  0
  2 13  1  0  0  0  0
  3  9  2  0  0  0  0
  3 16  1  0  0  0  0
  4 17  1  0  0  0  0
  4 20  1  0  0  0  0
  4 21  1  0  0  0  0
  5  6  2  0  0  0  0
  5  9  1  0  0  0  0
  6  8  1  0  0  0  0
  6 12  1  0  0  0  0
  7  8  2  0  0  0  0
  7 10  1  0  0  0  0
  8 11  1  0  0  0  0
  9 18  1  0  0  0  0
 10 14  2  0  0  0  0
 11 15  2  0  0  0  0
 12 16  2  0  0  0  0
 13 17  1  0  0  0  0
 14 15  1  0  0  0  0
 17 19  1  0  0  0  0
M  END
> <PUBCHEM_COMPOUND_ID_TYPE>
0

> <PUBCHEM_TOTAL_CHARGE>
0

> <PUBCHEM_SUBSTANCE_ID>
310945482

> <PUBCHEM_SUBSTANCE_VERSION>
1

> <PUBCHEM_EXT_DATASOURCE_NAME>
4488

> <PUBCHEM_EXT_DATASOURCE_REGID>
SCHEMBL16123580

> <PUBCHEM_SUBSTANCE_COMMENT>
InChI=1S/C17H21N3O/c1-11(19(3)4)10-20-16-9-13(21)5-6-14(16)15-7-8-18-12(2)17(15)20/h5-9,11,21H,10H2,1-4H3
InChIKey=RXYBNSGZBCYLEZ-UHFFFAOYSA-N

> <PUBCHEM_SUBSTANCE_SYNONYM>
SCHEMBL16123580

> <PUBCHEM_XREF_EXT_ID>
SCHEMBL16123580

> <PUBCHEM_EXT_DATASOURCE_URL>
https://www.surechembl.org/

> <PUBCHEM_EXT_SUBSTANCE_URL>
https://www.surechembl.org/chemical/SCHEMBL16123580

> <PUBCHEM_CID_ASSOCIATIONS>
86298672  1

> <PUBCHEM_COORDINATE_TYPE>
1
3

$$$$
