310935390
  -OEChem-07211613022D

 39 44  0     1  0  0  0  0  0999 V2000
    9.8994   -6.1046    0.0000 F   0  0  0  0  0  0  0  0  0  0  0  0
    5.0157   -0.7919    0.0000 O   0  0  0  0  0  0  0  0  0  0  0  0
    2.1449   -4.8837    0.0000 N   0  0  3  0  0  0  0  0  0  0  0  0
    0.7259   -4.9167    0.0000 N   0  0  0  0  0  0  0  0  0  0  0  0
    0.0330   -3.6628    0.0000 N   0  0  0  0  0  0  0  0  0  0  0  0
    5.6757   -4.4878    0.0000 N   0  0  0  0  0  0  0  0  0  0  0  0
    3.5638   -0.8249    0.0000 N   0  0  0  0  0  0  0  0  0  0  0  0
    7.7876   -5.7087    0.0000 N   0  0  0  0  0  0  0  0  0  0  0  0
    1.4519   -3.6628    0.0000 C   0  0  0  0  0  0  0  0  0  0  0  0
    1.4189   -4.4878    0.0000 C   0  0  0  0  0  0  0  0  0  0  0  0
    0.7259   -3.2668    0.0000 C   0  0  0  0  0  0  0  0  0  0  0  0
    2.1449   -2.4749    0.0000 C   0  0  0  0  0  0  0  0  0  0  0  0
    0.7259   -2.4749    0.0000 C   0  0  0  0  0  0  0  0  0  0  0  0
    2.1449   -3.2668    0.0000 C   0  0  0  0  0  0  0  0  0  0  0  0
    3.5638   -4.8837    0.0000 C   0  0  0  0  0  0  0  0  0  0  0  0
    2.8708   -4.4878    0.0000 C   0  0  0  0  0  0  0  0  0  0  0  0
    1.4189   -2.0459    0.0000 C   0  0  0  0  0  0  0  0  0  0  0  0
    3.5638   -5.7087    0.0000 C   0  0  0  0  0  0  0  0  0  0  0  0
    2.8378   -2.0459    0.0000 C   0  0  0  0  0  0  0  0  0  0  0  0
    2.1449   -5.7087    0.0000 C   0  0  0  0  0  0  0  0  0  0  0  0
    0.0000   -4.4878    0.0000 C   0  0  0  0  0  0  0  0  0  0  0  0
    2.8708   -6.1046    0.0000 C   0  0  0  0  0  0  0  0  0  0  0  0
    4.2568   -4.4878    0.0000 C   0  0  0  0  0  0  0  0  0  0  0  0
    4.9497   -4.8837    0.0000 C   0  0  0  0  0  0  0  0  0  0  0  0
    4.2568   -6.1046    0.0000 C   0  0  0  0  0  0  0  0  0  0  0  0
    2.8708   -1.2209    0.0000 C   0  0  0  0  0  0  0  0  0  0  0  0
    3.5638   -2.4419    0.0000 C   0  0  0  0  0  0  0  0  0  0  0  0
    0.0000   -2.0459    0.0000 C   0  0  0  0  0  0  0  0  0  0  0  0
    4.9497   -5.7087    0.0000 C   0  0  0  0  0  0  0  0  0  0  0  0
    4.2898   -1.2209    0.0000 C   0  0  0  0  0  0  0  0  0  0  0  0
    4.2568   -2.0459    0.0000 C   0  0  0  0  0  0  0  0  0  0  0  0
    6.3686   -4.8837    0.0000 C   0  0  0  0  0  0  0  0  0  0  0  0
    6.3686   -5.7087    0.0000 C   0  0  0  0  0  0  0  0  0  0  0  0
    7.0946   -4.4878    0.0000 C   0  0  0  0  0  0  0  0  0  0  0  0
    7.0946   -6.1376    0.0000 C   0  0  0  0  0  0  0  0  0  0  0  0
    7.7876   -4.8837    0.0000 C   0  0  0  0  0  0  0  0  0  0  0  0
    8.4805   -6.1046    0.0000 C   0  0  0  0  0  0  0  0  0  0  0  0
    5.0157    0.0000    0.0000 C   0  0  0  0  0  0  0  0  0  0  0  0
    9.2064   -5.7087    0.0000 C   0  0  0  0  0  0  0  0  0  0  0  0
  1 39  1  0  0  0  0
  2 30  1  0  0  0  0
  2 38  1  0  0  0  0
  3 10  1  0  0  0  0
  3 16  1  0  0  0  0
  3 20  1  0  0  0  0
  4 10  1  0  0  0  0
  4 21  2  0  0  0  0
  5 11  2  0  0  0  0
  5 21  1  0  0  0  0
  6 24  1  0  0  0  0
  6 32  1  0  0  0  0
  7 26  1  0  0  0  0
  7 30  2  0  0  0  0
  8 35  1  0  0  0  0
  8 36  1  0  0  0  0
  8 37  1  0  0  0  0
  9 10  2  0  0  0  0
  9 11  1  0  0  0  0
  9 14  1  0  0  0  0
 11 13  1  0  0  0  0
 12 14  2  0  0  0  0
 12 17  1  0  0  0  0
 12 19  1  0  0  0  0
 13 17  2  0  0  0  0
 13 28  1  0  0  0  0
 15 16  1  0  0  0  0
 15 18  2  0  0  0  0
 15 23  1  0  0  0  0
 18 22  1  0  0  0  0
 18 25  1  0  0  0  0
 19 26  2  0  0  0  0
 19 27  1  0  0  0  0
 20 22  1  0  0  0  0
 23 24  2  0  0  0  0
 24 29  1  0  0  0  0
 25 29  2  0  0  0  0
 27 31  2  0  0  0  0
 30 31  1  0  0  0  0
 32 33  1  0  0  0  0
 32 34  1  0  0  0  0
 33 35  1  0  0  0  0
 34 36  1  0  0  0  0
 37 39  1  0  0  0  0
M  END
> <PUBCHEM_COMPOUND_ID_TYPE>
0

> <PUBCHEM_TOTAL_CHARGE>
0

> <PUBCHEM_SUBSTANCE_ID>
310935390

> <PUBCHEM_SUBSTANCE_VERSION>
1

> <PUBCHEM_EXT_DATASOURCE_NAME>
4488

> <PUBCHEM_EXT_DATASOURCE_REGID>
SCHEMBL16112930

> <PUBCHEM_SUBSTANCE_COMMENT>
InChI=1S/C31H35FN6O/c1-21-15-24(23-4-6-29(39-2)33-18-23)17-28-30(21)34-20-35-31(28)38-13-7-22-3-5-27(16-25(22)19-38)36-26-8-11-37(12-9-26)14-10-32/h3-6,15-18,20,26,36H,7-14,19H2,1-2H3
InChIKey=JLYVWKSGXBYWOE-UHFFFAOYSA-N

> <PUBCHEM_SUBSTANCE_SYNONYM>
SCHEMBL16112930

> <PUBCHEM_XREF_EXT_ID>
SCHEMBL16112930

> <PUBCHEM_EXT_DATASOURCE_URL>
https://www.surechembl.org/

> <PUBCHEM_EXT_SUBSTANCE_URL>
https://www.surechembl.org/chemical/SCHEMBL16112930

> <PUBCHEM_CID_ASSOCIATIONS>
117603440  1

> <PUBCHEM_COORDINATE_TYPE>
1
3

$$$$
