310945761
  -OEChem-07211613022D

 39 42  0     1  0  0  0  0  0999 V2000
   -5.7388   -0.6529    0.0000 S   0  0  0  0  0  0  0  0  0  0  0  0
    5.6013    0.8362    0.0000 O   0  0  0  0  0  0  0  0  0  0  0  0
    2.7148    0.9966    0.0000 O   0  0  0  0  0  0  0  0  0  0  0  0
   -2.9439   -0.6529    0.0000 O   0  0  0  0  0  0  0  0  0  0  0  0
    7.1821   -0.8362    0.0000 O   0  0  0  0  0  0  0  0  0  0  0  0
    6.8843   -2.2336    0.0000 O   0  0  0  0  0  0  0  0  0  0  0  0
   -6.3344   -1.2486    0.0000 O   0  0  0  0  0  0  0  0  0  0  0  0
   -5.1660   -1.2486    0.0000 O   0  0  0  0  0  0  0  0  0  0  0  0
   -5.0744   -0.2863    0.0000 N   0  0  0  0  0  0  0  0  0  0  0  0
    4.7995   -0.2176    0.0000 C   0  0  0  0  0  0  0  0  0  0  0  0
    4.8224    0.6072    0.0000 C   0  0  0  0  0  0  0  0  0  0  0  0
    5.5784   -0.4925    0.0000 C   0  0  3  0  0  0  0  0  0  0  0  0
   -0.8133    0.6072    0.0000 C   0  0  0  0  0  0  0  0  0  0  0  0
   -0.1489    0.9966    0.0000 C   0  0  0  0  0  0  0  0  0  0  0  0
    3.4020    0.5842    0.0000 C   0  0  0  0  0  0  0  0  0  0  0  0
   -1.5463    0.9966    0.0000 C   0  0  0  0  0  0  0  0  0  0  0  0
   -0.8362   -0.2176    0.0000 C   0  0  0  0  0  0  0  0  0  0  0  0
    4.1122    0.9966    0.0000 C   0  0  0  0  0  0  0  0  0  0  0  0
    4.1122   -0.6300    0.0000 C   0  0  0  0  0  0  0  0  0  0  0  0
    6.0595    0.1489    0.0000 C   0  0  0  0  0  0  0  0  0  0  0  0
    3.4249   -0.2406    0.0000 C   0  0  0  0  0  0  0  0  0  0  0  0
   -2.2336   -0.2406    0.0000 C   0  0  0  0  0  0  0  0  0  0  0  0
    0.6072    0.6072    0.0000 C   0  0  0  0  0  0  0  0  0  0  0  0
    1.2714    0.9966    0.0000 C   0  0  0  0  0  0  0  0  0  0  0  0
   -2.2107    0.6072    0.0000 C   0  0  0  0  0  0  0  0  0  0  0  0
   -1.5005   -0.6300    0.0000 C   0  0  0  0  0  0  0  0  0  0  0  0
    5.8534   -1.2714    0.0000 C   0  0  0  0  0  0  0  0  0  0  0  0
   -0.1031    1.8213    0.0000 C   0  0  0  0  0  0  0  0  0  0  0  0
    2.0046    0.5842    0.0000 C   0  0  0  0  0  0  0  0  0  0  0  0
    1.2944    1.8213    0.0000 C   0  0  0  0  0  0  0  0  0  0  0  0
    0.6072    2.2336    0.0000 C   0  0  0  0  0  0  0  0  0  0  0  0
    6.6322   -1.4318    0.0000 C   0  0  0  0  0  0  0  0  0  0  0  0
   -1.5005    1.8442    0.0000 C   0  0  0  0  0  0  0  0  0  0  0  0
   -0.1031   -0.6529    0.0000 C   0  0  0  0  0  0  0  0  0  0  0  0
   -3.6311   -0.2406    0.0000 C   0  0  0  0  0  0  0  0  0  0  0  0
   -4.3413   -0.6529    0.0000 C   0  0  0  0  0  0  0  0  0  0  0  0
    6.9530   -0.0344    0.0000 C   0  0  0  0  0  0  0  0  0  0  0  0
   -6.4489   -0.2406    0.0000 C   0  0  0  0  0  0  0  0  0  0  0  0
   -7.1821   -0.6529    0.0000 C   0  0  0  0  0  0  0  0  0  0  0  0
  1  7  2  0  0  0  0
  1  8  2  0  0  0  0
  1  9  1  0  0  0  0
  1 38  1  0  0  0  0
  2 11  1  0  0  0  0
  2 20  1  0  0  0  0
  3 15  1  0  0  0  0
  3 29  1  0  0  0  0
  4 22  1  0  0  0  0
  4 35  1  0  0  0  0
  5 32  1  0  0  0  0
  5 37  1  0  0  0  0
  6 32  2  0  0  0  0
  9 36  1  0  0  0  0
 10 11  1  0  0  0  0
 10 12  1  0  0  0  0
 10 19  2  0  0  0  0
 11 18  2  0  0  0  0
 12 20  1  0  0  0  0
 12 27  1  0  0  0  0
 13 14  1  0  0  0  0
 13 16  2  0  0  0  0
 13 17  1  0  0  0  0
 14 23  2  0  0  0  0
 14 28  1  0  0  0  0
 15 18  1  0  0  0  0
 15 21  2  0  0  0  0
 16 25  1  0  0  0  0
 16 33  1  0  0  0  0
 17 26  2  0  0  0  0
 17 34  1  0  0  0  0
 19 21  1  0  0  0  0
 22 25  2  0  0  0  0
 22 26  1  0  0  0  0
 23 24  1  0  0  0  0
 24 29  1  0  0  0  0
 24 30  2  0  0  0  0
 27 32  1  0  0  0  0
 28 31  2  0  0  0  0
 30 31  1  0  0  0  0
 35 36  1  0  0  0  0
 38 39  1  0  0  0  0
M  END
> <PUBCHEM_COMPOUND_ID_TYPE>
0

> <PUBCHEM_TOTAL_CHARGE>
0

> <PUBCHEM_SUBSTANCE_ID>
310945761

> <PUBCHEM_SUBSTANCE_VERSION>
1

> <PUBCHEM_EXT_DATASOURCE_NAME>
4488

> <PUBCHEM_EXT_DATASOURCE_REGID>
SCHEMBL16123865

> <PUBCHEM_SUBSTANCE_COMMENT>
InChI=1S/C30H35NO7S/c1-5-39(33,34)31-11-12-36-26-13-20(2)30(21(3)14-26)23-8-6-7-22(15-23)18-37-25-9-10-27-24(16-29(32)35-4)19-38-28(27)17-25/h6-10,13-15,17,24,31H,5,11-12,16,18-19H2,1-4H3
InChIKey=ASYUMRIDHMEBSZ-UHFFFAOYSA-N

> <PUBCHEM_SUBSTANCE_SYNONYM>
SCHEMBL16123865

> <PUBCHEM_XREF_EXT_ID>
SCHEMBL16123865

> <PUBCHEM_EXT_DATASOURCE_URL>
https://www.surechembl.org/

> <PUBCHEM_EXT_SUBSTANCE_URL>
https://www.surechembl.org/chemical/SCHEMBL16123865

> <PUBCHEM_CID_ASSOCIATIONS>
117611751  1

> <PUBCHEM_COORDINATE_TYPE>
1
3

$$$$
