310939498
  -OEChem-07211613022D

 29 33  0     1  0  0  0  0  0999 V2000
    3.8994   -0.0115    0.0000 O   0  0  0  0  0  0  0  0  0  0  0  0
   -1.6547   -0.0246    0.0000 O   0  0  0  0  0  0  0  0  0  0  0  0
   -4.5125   -0.0246    0.0000 O   0  0  0  0  0  0  0  0  0  0  0  0
    1.9177    1.2129    0.0000 N   0  0  0  0  0  0  0  0  0  0  0  0
    1.2032    0.8004    0.0000 N   0  0  0  0  0  0  0  0  0  0  0  0
    2.7023    2.2928    0.0000 N   0  0  0  0  0  0  0  0  0  0  0  0
   -0.2257    0.8004    0.0000 N   0  0  0  0  0  0  0  0  0  0  0  0
   -3.0836    0.8004    0.0000 N   0  0  0  0  0  0  0  0  0  0  0  0
    2.7023    0.9580    0.0000 C   0  0  0  0  0  0  0  0  0  0  0  0
    3.1148    0.2435    0.0000 C   0  0  0  0  0  0  0  0  0  0  0  0
    1.9177    2.0379    0.0000 C   0  0  0  0  0  0  0  0  0  0  0  0
    3.8994   -0.8365    0.0000 C   0  0  0  0  0  0  0  0  0  0  0  0
    3.1148   -1.0914    0.0000 C   0  0  0  0  0  0  0  0  0  0  0  0
    3.1872    1.6254    0.0000 C   0  0  0  0  0  0  0  0  0  0  0  0
    2.6299   -0.4240    0.0000 C   0  0  0  0  0  0  0  0  0  0  0  0
    0.4888    1.2129    0.0000 C   0  0  0  0  0  0  0  0  0  0  0  0
    1.2032    2.4504    0.0000 C   0  0  0  0  0  0  0  0  0  0  0  0
    0.4888    2.0379    0.0000 C   0  0  0  0  0  0  0  0  0  0  0  0
    4.5125   -1.3885    0.0000 C   0  0  0  0  0  0  0  0  0  0  0  0
    2.9433   -1.8984    0.0000 C   0  0  0  0  0  0  0  0  0  0  0  0
    4.3410   -2.1955    0.0000 C   0  0  0  0  0  0  0  0  0  0  0  0
    3.5564   -2.4504    0.0000 C   0  0  0  0  0  0  0  0  0  0  0  0
   -0.9402    1.2129    0.0000 C   0  0  0  0  0  0  0  0  0  0  0  0
   -1.6547    0.8004    0.0000 C   0  0  3  0  0  0  0  0  0  0  0  0
   -2.3691    1.2129    0.0000 C   0  0  0  0  0  0  0  0  0  0  0  0
   -3.0836   -0.0246    0.0000 C   0  0  0  0  0  0  0  0  0  0  0  0
   -3.7981    1.2129    0.0000 C   0  0  0  0  0  0  0  0  0  0  0  0
   -4.5125    0.8004    0.0000 C   0  0  0  0  0  0  0  0  0  0  0  0
   -3.7981   -0.4371    0.0000 C   0  0  0  0  0  0  0  0  0  0  0  0
  1 10  1  0  0  0  0
  1 12  1  0  0  0  0
  2 24  1  0  0  0  0
  3 28  1  0  0  0  0
  3 29  1  0  0  0  0
  4  5  1  0  0  0  0
  4  9  1  0  0  0  0
  4 11  1  0  0  0  0
  5 16  2  0  0  0  0
  6 11  2  0  0  0  0
  6 14  1  0  0  0  0
  7 16  1  0  0  0  0
  7 23  1  0  0  0  0
  8 25  1  0  0  0  0
  8 26  1  0  0  0  0
  8 27  1  0  0  0  0
  9 10  1  0  0  0  0
  9 14  2  0  0  0  0
 10 15  2  0  0  0  0
 11 17  1  0  0  0  0
 12 13  2  0  0  0  0
 12 19  1  0  0  0  0
 13 15  1  0  0  0  0
 13 20  1  0  0  0  0
 16 18  1  0  0  0  0
 17 18  2  0  0  0  0
 19 21  2  0  0  0  0
 20 22  2  0  0  0  0
 21 22  1  0  0  0  0
 23 24  1  0  0  0  0
 24 25  1  0  0  0  0
 26 29  1  0  0  0  0
 27 28  1  0  0  0  0
M  END
> <PUBCHEM_COMPOUND_ID_TYPE>
0

> <PUBCHEM_TOTAL_CHARGE>
0

> <PUBCHEM_SUBSTANCE_ID>
310939498

> <PUBCHEM_SUBSTANCE_VERSION>
1

> <PUBCHEM_EXT_DATASOURCE_NAME>
4488

> <PUBCHEM_EXT_DATASOURCE_REGID>
SCHEMBL16117427

> <PUBCHEM_SUBSTANCE_COMMENT>
InChI=1S/C21H23N5O3/c27-16(14-25-7-9-28-10-8-25)12-22-20-5-6-21-23-13-17(26(21)24-20)19-11-15-3-1-2-4-18(15)29-19/h1-6,11,13,16,27H,7-10,12,14H2,(H,22,24)
InChIKey=BRQIZZYMSMRQPW-UHFFFAOYSA-N

> <PUBCHEM_SUBSTANCE_SYNONYM>
SCHEMBL16117427

> <PUBCHEM_XREF_EXT_ID>
SCHEMBL16117427

> <PUBCHEM_EXT_DATASOURCE_URL>
https://www.surechembl.org/

> <PUBCHEM_EXT_SUBSTANCE_URL>
https://www.surechembl.org/chemical/SCHEMBL16117427

> <PUBCHEM_CID_ASSOCIATIONS>
71014852  1

> <PUBCHEM_COORDINATE_TYPE>
1
3

> <PUBCHEM_BONDANNOTATIONS>
24  2  3

$$$$
