310946622
  -OEChem-07211613022D

 21 20  0     1  0  0  0  0  0999 V2000
   -7.5159    8.9995    0.0000 O   0  0  0  0  0  0  0  0  0  0  0  0
  -11.8283    9.5718    0.0000 O   0  0  0  0  0  0  0  0  0  0  0  0
   -8.2223   10.2369    0.0000 O   0  0  0  0  0  0  0  0  0  0  0  0
  -10.8179   10.5822    0.0000 O   0  0  0  0  0  0  0  0  0  0  0  0
  -12.5819    6.7593    0.0000 O   0  0  0  0  0  0  0  0  0  0  0  0
  -10.9581    6.3243    0.0000 O   0  5  0  0  0  0  0  0  0  0  0  0
  -11.3932    7.9480    0.0000 O   0  0  0  0  0  0  0  0  0  0  0  0
   -8.9399    8.1762    0.0000 N   0  0  0  0  0  0  0  0  0  0  0  0
  -11.6444    7.0104    0.0000 N   0  3  0  0  0  0  0  0  0  0  0  0
   -8.9379    9.0013    0.0000 C   0  0  3  0  0  0  0  0  0  0  0  0
   -8.2223    9.4120    0.0000 C   0  0  0  0  0  0  0  0  0  0  0  0
   -9.6512    9.4155    0.0000 C   0  0  0  0  0  0  0  0  0  0  0  0
  -11.0314    9.7853    0.0000 C   0  0  0  0  0  0  0  0  0  0  0  0
  -10.4482    9.2020    0.0000 C   0  0  0  0  0  0  0  0  0  0  0  0
  -12.0796    8.6343    0.0000 C   0  0  0  0  0  0  0  0  0  0  0  0
   -6.8014    9.4120    0.0000 C   0  0  0  0  0  0  0  0  0  0  0  0
  -13.0170    8.3830    0.0000 C   0  0  0  0  0  0  0  0  0  0  0  0
  -13.2681    7.4457    0.0000 C   0  0  0  0  0  0  0  0  0  0  0  0
   -6.0870    8.9995    0.0000 C   0  0  0  0  0  0  0  0  0  0  0  0
   -5.3725    9.4120    0.0000 C   0  0  0  0  0  0  0  0  0  0  0  0
   -4.6581    8.9995    0.0000 C   0  0  0  0  0  0  0  0  0  0  0  0
  1 11  1  0  0  0  0
  1 16  1  0  0  0  0
  2 13  1  0  0  0  0
  2 15  1  0  0  0  0
  3 11  2  0  0  0  0
  4 13  2  0  0  0  0
  5  9  1  0  0  0  0
  5 18  1  0  0  0  0
  6  9  1  0  0  0  0
  7  9  2  0  0  0  0
  8 10  1  0  0  0  0
 10 11  1  0  0  0  0
 10 12  1  0  0  0  0
 12 14  1  0  0  0  0
 13 14  1  0  0  0  0
 15 17  1  0  0  0  0
 16 19  1  0  0  0  0
 17 18  1  0  0  0  0
 19 20  1  0  0  0  0
 20 21  1  0  0  0  0
M  CHG  2   6  -1   9   1
M  END
> <PUBCHEM_COMPOUND_ID_TYPE>
0

> <PUBCHEM_TOTAL_CHARGE>
0

> <PUBCHEM_SUBSTANCE_ID>
310946622

> <PUBCHEM_SUBSTANCE_VERSION>
1

> <PUBCHEM_EXT_DATASOURCE_NAME>
4488

> <PUBCHEM_EXT_DATASOURCE_REGID>
SCHEMBL16124743

> <PUBCHEM_SUBSTANCE_COMMENT>
InChI=1S/C12H22N2O7/c1-2-3-7-20-12(16)10(13)5-6-11(15)19-8-4-9-21-14(17)18/h10H,2-9,13H2,1H3
InChIKey=IKBQMDCCHKALOV-UHFFFAOYSA-N

> <PUBCHEM_SUBSTANCE_SYNONYM>
SCHEMBL16124743

> <PUBCHEM_XREF_EXT_ID>
SCHEMBL16124743

> <PUBCHEM_EXT_DATASOURCE_URL>
https://www.surechembl.org/

> <PUBCHEM_EXT_SUBSTANCE_URL>
https://www.surechembl.org/chemical/SCHEMBL16124743

> <PUBCHEM_CID_ASSOCIATIONS>
117612522  1

> <PUBCHEM_COORDINATE_TYPE>
1
3

$$$$
