310936871
  -OEChem-07211613022D

 19 22  0     1  0  0  0  0  0999 V2000
    3.2314    2.1594    0.0000 O   0  0  0  0  0  0  0  0  0  0  0  0
    4.8557    2.4498    0.0000 O   0  0  0  0  0  0  0  0  0  0  0  0
    3.4830    0.7528    0.0000 C   0  0  3  0  0  0  0  0  0  0  0  0
    4.0148    0.1221    0.0000 C   0  0  3  0  0  0  0  0  0  0  0  0
    4.8269    0.2673    0.0000 C   0  0  3  0  0  0  0  0  0  0  0  0
    2.6708    0.6076    0.0000 C   0  0  3  0  0  0  0  0  0  0  0  0
    3.7633    1.5287    0.0000 C   0  0  3  0  0  0  0  0  0  0  0  0
    5.1072    1.0432    0.0000 C   0  0  3  0  0  0  0  0  0  0  0  0
    4.5754    1.6739    0.0000 C   0  0  3  0  0  0  0  0  0  0  0  0
    2.3905   -0.1684    0.0000 C   0  0  3  0  0  0  0  0  0  0  0  0
    3.7345   -0.6539    0.0000 C   0  0  0  0  0  0  0  0  0  0  0  0
    2.9224   -0.7991    0.0000 C   0  0  0  0  0  0  0  0  0  0  0  0
    2.0195    1.1139    0.0000 C   0  0  0  0  0  0  0  0  0  0  0  0
    5.3587   -0.3634    0.0000 C   0  0  0  0  0  0  0  0  0  0  0  0
    5.9193    1.1884    0.0000 C   0  0  0  0  0  0  0  0  0  0  0  0
    1.5660   -0.1416    0.0000 C   0  0  0  0  0  0  0  0  0  0  0  0
    1.3367    0.6509    0.0000 C   0  0  0  0  0  0  0  0  0  0  0  0
    6.1708   -0.2182    0.0000 C   0  0  0  0  0  0  0  0  0  0  0  0
    6.4511    0.5577    0.0000 C   0  0  0  0  0  0  0  0  0  0  0  0
  1  7  1  0  0  0  0
  2  9  1  0  0  0  0
  3  4  1  0  0  0  0
  3  6  1  0  0  0  0
  3  7  1  0  0  0  0
  4  5  1  0  0  0  0
  4 11  1  0  0  0  0
  5  8  1  0  0  0  0
  5 14  1  0  0  0  0
  6 10  1  0  0  0  0
  6 13  1  0  0  0  0
  7  9  1  0  0  0  0
  8  9  1  0  0  0  0
  8 15  1  0  0  0  0
 10 12  1  0  0  0  0
 10 16  1  0  0  0  0
 11 12  1  0  0  0  0
 13 17  1  0  0  0  0
 14 18  1  0  0  0  0
 15 19  1  0  0  0  0
 16 17  2  0  0  0  0
 18 19  1  0  0  0  0
M  END
> <PUBCHEM_COMPOUND_ID_TYPE>
0

> <PUBCHEM_TOTAL_CHARGE>
0

> <PUBCHEM_SUBSTANCE_ID>
310936871

> <PUBCHEM_SUBSTANCE_VERSION>
1

> <PUBCHEM_EXT_DATASOURCE_NAME>
4488

> <PUBCHEM_EXT_DATASOURCE_REGID>
SCHEMBL16114565

> <PUBCHEM_SUBSTANCE_COMMENT>
InChI=1S/C17H26O2/c18-16-14-6-2-1-5-12(14)13-9-8-10-4-3-7-11(10)15(13)17(16)19/h3-4,10-19H,1-2,5-9H2
InChIKey=FCVXOYSLYIQWLH-UHFFFAOYSA-N

> <PUBCHEM_SUBSTANCE_SYNONYM>
SCHEMBL16114565

> <PUBCHEM_XREF_EXT_ID>
SCHEMBL16114565

> <PUBCHEM_EXT_DATASOURCE_URL>
https://www.surechembl.org/

> <PUBCHEM_EXT_SUBSTANCE_URL>
https://www.surechembl.org/chemical/SCHEMBL16114565

> <PUBCHEM_CID_ASSOCIATIONS>
117604762  1

> <PUBCHEM_COORDINATE_TYPE>
1
3

$$$$
