310945646
  -OEChem-07211613022D

 37 40  0     1  0  0  0  0  0999 V2000
   -5.7976   -0.6747    0.0000 S   0  0  0  0  0  0  0  0  0  0  0  0
    5.6727    0.8246    0.0000 O   0  0  0  0  0  0  0  0  0  0  0  0
    2.7489    0.9746    0.0000 O   0  0  0  0  0  0  0  0  0  0  0  0
   -2.9488   -0.6747    0.0000 O   0  0  0  0  0  0  0  0  0  0  0  0
    7.2470   -0.9246    0.0000 O   0  0  0  0  0  0  0  0  0  0  0  0
    7.0471   -2.2241    0.0000 O   0  0  0  0  0  0  0  0  0  0  0  0
   -6.4973   -0.2748    0.0000 N   0  0  0  0  0  0  0  0  0  0  0  0
    4.8730   -0.2249    0.0000 C   0  0  0  0  0  0  0  0  0  0  0  0
    4.8979    0.5997    0.0000 C   0  0  0  0  0  0  0  0  0  0  0  0
   -0.8246    0.5997    0.0000 C   0  0  0  0  0  0  0  0  0  0  0  0
    5.6727   -0.4998    0.0000 C   0  0  3  0  0  0  0  0  0  0  0  0
   -0.1000    0.9996    0.0000 C   0  0  0  0  0  0  0  0  0  0  0  0
    3.4736    0.5748    0.0000 C   0  0  0  0  0  0  0  0  0  0  0  0
   -0.8246   -0.2249    0.0000 C   0  0  0  0  0  0  0  0  0  0  0  0
   -1.5244    0.9996    0.0000 C   0  0  0  0  0  0  0  0  0  0  0  0
    4.1733    0.9746    0.0000 C   0  0  0  0  0  0  0  0  0  0  0  0
    4.1733   -0.6498    0.0000 C   0  0  0  0  0  0  0  0  0  0  0  0
    6.1724    0.1749    0.0000 C   0  0  0  0  0  0  0  0  0  0  0  0
    3.4985   -0.2499    0.0000 C   0  0  0  0  0  0  0  0  0  0  0  0
    0.6498    0.5997    0.0000 C   0  0  0  0  0  0  0  0  0  0  0  0
    1.2994    0.9996    0.0000 C   0  0  0  0  0  0  0  0  0  0  0  0
   -2.2491   -0.2249    0.0000 C   0  0  0  0  0  0  0  0  0  0  0  0
   -1.4744   -0.6247    0.0000 C   0  0  0  0  0  0  0  0  0  0  0  0
   -2.2241    0.5997    0.0000 C   0  0  0  0  0  0  0  0  0  0  0  0
    5.9475   -1.2745    0.0000 C   0  0  0  0  0  0  0  0  0  0  0  0
   -0.0750    1.8243    0.0000 C   0  0  0  0  0  0  0  0  0  0  0  0
    2.0242    0.5997    0.0000 C   0  0  0  0  0  0  0  0  0  0  0  0
    1.3244    1.8243    0.0000 C   0  0  0  0  0  0  0  0  0  0  0  0
    0.5997    2.2241    0.0000 C   0  0  0  0  0  0  0  0  0  0  0  0
    6.7472   -1.4744    0.0000 C   0  0  0  0  0  0  0  0  0  0  0  0
   -0.0750   -0.6747    0.0000 C   0  0  0  0  0  0  0  0  0  0  0  0
   -1.4994    1.8492    0.0000 C   0  0  0  0  0  0  0  0  0  0  0  0
   -3.6735   -0.2499    0.0000 C   0  0  0  0  0  0  0  0  0  0  0  0
   -4.3982   -0.6498    0.0000 C   0  0  0  0  0  0  0  0  0  0  0  0
   -5.0979   -0.2499    0.0000 C   0  0  0  0  0  0  0  0  0  0  0  0
   -6.5223    0.5997    0.0000 C   0  0  0  0  0  0  0  0  0  0  0  0
   -7.2470   -0.6747    0.0000 C   0  0  0  0  0  0  0  0  0  0  0  0
  1  7  1  0  0  0  0
  1 35  1  0  0  0  0
  2  9  1  0  0  0  0
  2 18  1  0  0  0  0
  3 13  1  0  0  0  0
  3 27  1  0  0  0  0
  4 22  1  0  0  0  0
  4 33  1  0  0  0  0
  5 30  2  0  0  0  0
  6 30  1  0  0  0  0
  7 36  1  0  0  0  0
  7 37  1  0  0  0  0
  8  9  1  0  0  0  0
  8 11  1  0  0  0  0
  8 17  2  0  0  0  0
  9 16  2  0  0  0  0
 10 12  1  0  0  0  0
 10 14  2  0  0  0  0
 10 15  1  0  0  0  0
 11 18  1  0  0  0  0
 11 25  1  0  0  0  0
 12 20  2  0  0  0  0
 12 26  1  0  0  0  0
 13 16  1  0  0  0  0
 13 19  2  0  0  0  0
 14 23  1  0  0  0  0
 14 31  1  0  0  0  0
 15 24  2  0  0  0  0
 15 32  1  0  0  0  0
 17 19  1  0  0  0  0
 20 21  1  0  0  0  0
 21 27  1  0  0  0  0
 21 28  2  0  0  0  0
 22 23  2  0  0  0  0
 22 24  1  0  0  0  0
 25 30  1  0  0  0  0
 26 29  2  0  0  0  0
 28 29  1  0  0  0  0
 33 34  1  0  0  0  0
 34 35  1  0  0  0  0
M  END
> <PUBCHEM_COMPOUND_ID_TYPE>
0

> <PUBCHEM_TOTAL_CHARGE>
0

> <PUBCHEM_SUBSTANCE_ID>
310945646

> <PUBCHEM_SUBSTANCE_VERSION>
1

> <PUBCHEM_EXT_DATASOURCE_NAME>
4488

> <PUBCHEM_EXT_DATASOURCE_REGID>
SCHEMBL16123745

> <PUBCHEM_SUBSTANCE_COMMENT>
InChI=1S/C30H35NO5S/c1-20-13-26(34-11-6-12-37-31(3)4)14-21(2)30(20)23-8-5-7-22(15-23)18-35-25-9-10-27-24(16-29(32)33)19-36-28(27)17-25/h5,7-10,13-15,17,24H,6,11-12,16,18-19H2,1-4H3,(H,32,33)
InChIKey=MGMWIVJUYBYCAY-UHFFFAOYSA-N

> <PUBCHEM_SUBSTANCE_SYNONYM>
SCHEMBL16123745

> <PUBCHEM_XREF_EXT_ID>
SCHEMBL16123745

> <PUBCHEM_EXT_DATASOURCE_URL>
https://www.surechembl.org/

> <PUBCHEM_EXT_SUBSTANCE_URL>
https://www.surechembl.org/chemical/SCHEMBL16123745

> <PUBCHEM_CID_ASSOCIATIONS>
117611654  1

> <PUBCHEM_COORDINATE_TYPE>
1
3

$$$$
