310938548
  -OEChem-07211613022D

 15 15  0     1  0  0  0  0  0999 V2000
   -0.4550   -3.6545    0.0000 O   0  0  0  0  0  0  0  0  0  0  0  0
    0.9740   -4.4795    0.0000 O   0  0  0  0  0  0  0  0  0  0  0  0
   -1.1695   -2.4170    0.0000 N   0  0  0  0  0  0  0  0  0  0  0  0
   -2.5984   -2.4170    0.0000 N   0  0  0  0  0  0  0  0  0  0  0  0
   -1.8839   -2.0045    0.0000 C   0  0  0  0  0  0  0  0  0  0  0  0
   -1.1695   -3.2420    0.0000 C   0  0  0  0  0  0  0  0  0  0  0  0
   -1.8839   -3.6545    0.0000 C   0  0  0  0  0  0  0  0  0  0  0  0
   -1.8839   -1.1795    0.0000 C   0  0  0  0  0  0  0  0  0  0  0  0
   -2.5984   -3.2420    0.0000 C   0  0  0  0  0  0  0  0  0  0  0  0
    0.2595   -3.2420    0.0000 C   0  0  0  0  0  0  0  0  0  0  0  0
    0.9740   -3.6545    0.0000 C   0  0  3  0  0  0  0  0  0  0  0  0
   -2.7089   -1.1795    0.0000 C   0  0  0  0  0  0  0  0  0  0  0  0
   -1.0589   -1.1795    0.0000 C   0  0  0  0  0  0  0  0  0  0  0  0
    1.6884   -3.2420    0.0000 C   0  0  0  0  0  0  0  0  0  0  0  0
    2.4029   -3.6545    0.0000 C   0  0  0  0  0  0  0  0  0  0  0  0
  1  6  1  0  0  0  0
  1 10  1  0  0  0  0
  2 11  1  0  0  0  0
  3  5  2  0  0  0  0
  3  6  1  0  0  0  0
  4  5  1  0  0  0  0
  4  9  2  0  0  0  0
  5  8  1  0  0  0  0
  6  7  2  0  0  0  0
  7  9  1  0  0  0  0
  8 12  1  0  0  0  0
  8 13  1  0  0  0  0
 10 11  1  0  0  0  0
 11 14  1  0  0  0  0
 14 15  1  0  0  0  0
M  END
> <PUBCHEM_COMPOUND_ID_TYPE>
0

> <PUBCHEM_TOTAL_CHARGE>
0

> <PUBCHEM_SUBSTANCE_ID>
310938548

> <PUBCHEM_SUBSTANCE_VERSION>
1

> <PUBCHEM_EXT_DATASOURCE_NAME>
4488

> <PUBCHEM_EXT_DATASOURCE_REGID>
SCHEMBL16116462

> <PUBCHEM_SUBSTANCE_COMMENT>
InChI=1S/C11H18N2O2/c1-4-9(14)7-15-10-5-6-12-11(13-10)8(2)3/h5-6,8-9,14H,4,7H2,1-3H3
InChIKey=MCXVAXKVMRARPM-UHFFFAOYSA-N

> <PUBCHEM_SUBSTANCE_SYNONYM>
SCHEMBL16116462

> <PUBCHEM_XREF_EXT_ID>
SCHEMBL16116462

> <PUBCHEM_EXT_DATASOURCE_URL>
https://www.surechembl.org/

> <PUBCHEM_EXT_SUBSTANCE_URL>
https://www.surechembl.org/chemical/SCHEMBL16116462

> <PUBCHEM_CID_ASSOCIATIONS>
117605988  1

> <PUBCHEM_COORDINATE_TYPE>
1
3

> <PUBCHEM_BONDANNOTATIONS>
8  12  3
8  13  3

$$$$
