310937739
  -OEChem-07211613022D

 25 28  0     1  0  0  0  0  0999 V2000
    6.1640   -2.2127    0.0000 O   0  0  0  0  0  0  0  0  0  0  0  0
    2.0810   -2.9240    0.0000 O   0  0  0  0  0  0  0  0  0  0  0  0
    0.0000   -3.5825    0.0000 O   0  0  0  0  0  0  0  0  0  0  0  0
    4.8996   -1.8176    0.0000 N   0  0  0  0  0  0  0  0  0  0  0  0
    4.3201   -3.8986    0.0000 N   0  0  0  0  0  0  0  0  0  0  0  0
    5.6899   -2.8976    0.0000 N   0  0  0  0  0  0  0  0  0  0  0  0
    2.9240   -4.0566    0.0000 C   0  0  0  0  0  0  0  0  0  0  0  0
    4.2410   -3.1083    0.0000 C   0  0  0  0  0  0  0  0  0  0  0  0
    2.8449   -3.2664    0.0000 C   0  0  0  0  0  0  0  0  0  0  0  0
    4.8996   -2.6342    0.0000 C   0  0  0  0  0  0  0  0  0  0  0  0
    2.2654   -4.5308    0.0000 C   0  0  0  0  0  0  0  0  0  0  0  0
    5.6899   -1.5542    0.0000 C   0  0  0  0  0  0  0  0  0  0  0  0
    3.5035   -2.7396    0.0000 C   0  0  0  0  0  0  0  0  0  0  0  0
    3.6878   -4.3991    0.0000 C   0  0  0  0  0  0  0  0  0  0  0  0
    5.9532   -0.7639    0.0000 C   0  0  0  0  0  0  0  0  0  0  0  0
    1.9230   -5.2684    0.0000 C   0  0  0  0  0  0  0  0  0  0  0  0
    1.4224   -4.6098    0.0000 C   0  0  0  0  0  0  0  0  0  0  0  0
    1.4224   -3.4244    0.0000 C   0  0  3  0  0  0  0  0  0  0  0  0
    6.7435   -1.0273    0.0000 C   0  0  0  0  0  0  0  0  0  0  0  0
    6.1903    0.0000    0.0000 C   0  0  0  0  0  0  0  0  0  0  0  0
    5.1630   -0.5269    0.0000 C   0  0  0  0  0  0  0  0  0  0  0  0
    0.6849   -3.1083    0.0000 C   0  0  0  0  0  0  0  0  0  0  0  0
    1.5542   -4.2410    0.0000 C   0  0  0  0  0  0  0  0  0  0  0  0
    0.8693   -4.7152    0.0000 C   0  0  0  0  0  0  0  0  0  0  0  0
    0.1317   -4.3991    0.0000 C   0  0  0  0  0  0  0  0  0  0  0  0
  1  6  1  0  0  0  0
  1 12  1  0  0  0  0
  2  9  1  0  0  0  0
  2 18  1  0  0  0  0
  3 22  1  0  0  0  0
  3 25  1  0  0  0  0
  4 10  1  0  0  0  0
  4 12  2  0  0  0  0
  5  8  1  0  0  0  0
  5 14  2  0  0  0  0
  6 10  2  0  0  0  0
  7  9  2  0  0  0  0
  7 11  1  0  0  0  0
  7 14  1  0  0  0  0
  8 10  1  0  0  0  0
  8 13  2  0  0  0  0
  9 13  1  0  0  0  0
 11 16  1  0  0  0  0
 11 17  1  0  0  0  0
 12 15  1  0  0  0  0
 15 19  1  0  0  0  0
 15 20  1  0  0  0  0
 15 21  1  0  0  0  0
 16 17  1  0  0  0  0
 18 22  1  0  0  0  0
 18 23  1  0  0  0  0
 23 24  1  0  0  0  0
 24 25  1  0  0  0  0
M  END
> <PUBCHEM_COMPOUND_ID_TYPE>
0

> <PUBCHEM_TOTAL_CHARGE>
0

> <PUBCHEM_SUBSTANCE_ID>
310937739

> <PUBCHEM_SUBSTANCE_VERSION>
1

> <PUBCHEM_EXT_DATASOURCE_NAME>
4488

> <PUBCHEM_EXT_DATASOURCE_REGID>
SCHEMBL16115540

> <PUBCHEM_SUBSTANCE_COMMENT>
InChI=1S/C19H25N3O3/c1-19(2,3)18-21-17(22-25-18)15-9-16(14(10-20-15)12-6-7-12)24-13-5-4-8-23-11-13/h9-10,12-13H,4-8,11H2,1-3H3
InChIKey=WBLXODPLAQULOQ-UHFFFAOYSA-N

> <PUBCHEM_SUBSTANCE_SYNONYM>
SCHEMBL16115540

> <PUBCHEM_XREF_EXT_ID>
SCHEMBL16115540

> <PUBCHEM_EXT_DATASOURCE_URL>
https://www.surechembl.org/

> <PUBCHEM_EXT_SUBSTANCE_URL>
https://www.surechembl.org/chemical/SCHEMBL16115540

> <PUBCHEM_CID_ASSOCIATIONS>
86276071  1

> <PUBCHEM_COORDINATE_TYPE>
1
3

$$$$
