310939700
  -OEChem-07211613022D

 33 35  0     1  0  0  0  0  0999 V2000
   -2.1624    4.6173    0.0000 O   0  0  0  0  0  0  0  0  0  0  0  0
    2.8389    0.9048    0.0000 O   0  0  0  0  0  0  0  0  0  0  0  0
   -3.5914    3.7923    0.0000 O   0  0  0  0  0  0  0  0  0  0  0  0
    0.6955    3.7923    0.0000 N   0  0  0  0  0  0  0  0  0  0  0  0
    1.4100    5.0297    0.0000 N   0  0  0  0  0  0  0  0  0  0  0  0
    2.8389    5.0297    0.0000 N   0  0  0  0  0  0  0  0  0  0  0  0
    1.4100    0.9048    0.0000 N   0  0  0  0  0  0  0  0  0  0  0  0
   -5.0204    4.6173    0.0000 N   0  0  0  0  0  0  0  0  0  0  0  0
    0.6955    4.6173    0.0000 C   0  0  0  0  0  0  0  0  0  0  0  0
    1.4100    3.3798    0.0000 C   0  0  0  0  0  0  0  0  0  0  0  0
    2.1245    4.6173    0.0000 C   0  0  0  0  0  0  0  0  0  0  0  0
   -0.0190    5.0297    0.0000 C   0  0  0  0  0  0  0  0  0  0  0  0
    1.4100    2.5547    0.0000 C   0  0  0  0  0  0  0  0  0  0  0  0
    2.1245    3.7923    0.0000 C   0  0  0  0  0  0  0  0  0  0  0  0
   -0.7334    4.6173    0.0000 C   0  0  0  0  0  0  0  0  0  0  0  0
    2.1245    2.1422    0.0000 C   0  0  0  0  0  0  0  0  0  0  0  0
   -0.0190    5.8548    0.0000 C   0  0  0  0  0  0  0  0  0  0  0  0
   -1.4479    5.0297    0.0000 C   0  0  0  0  0  0  0  0  0  0  0  0
    0.6955    2.1422    0.0000 C   0  0  0  0  0  0  0  0  0  0  0  0
    2.1245    1.3172    0.0000 C   0  0  0  0  0  0  0  0  0  0  0  0
   -0.7334    6.2673    0.0000 C   0  0  0  0  0  0  0  0  0  0  0  0
   -1.4479    5.8548    0.0000 C   0  0  0  0  0  0  0  0  0  0  0  0
    0.6955    1.3172    0.0000 C   0  0  0  0  0  0  0  0  0  0  0  0
    3.5534    4.6173    0.0000 C   0  0  0  0  0  0  0  0  0  0  0  0
    2.8389    5.8548    0.0000 C   0  0  0  0  0  0  0  0  0  0  0  0
    4.2679    5.0297    0.0000 C   0  0  0  0  0  0  0  0  0  0  0  0
   -2.8769    5.0297    0.0000 C   0  0  0  0  0  0  0  0  0  0  0  0
   -3.5914    4.6173    0.0000 C   0  0  3  0  0  0  0  0  0  0  0  0
    3.5534    1.3172    0.0000 C   0  0  0  0  0  0  0  0  0  0  0  0
    4.9823    4.6173    0.0000 C   0  0  0  0  0  0  0  0  0  0  0  0
   -4.3059    5.0297    0.0000 C   0  0  0  0  0  0  0  0  0  0  0  0
    5.6969    4.2048    0.0000 C   0  0  0  0  0  0  0  0  0  0  0  0
   -5.7349    5.0297    0.0000 C   0  0  0  0  0  0  0  0  0  0  0  0
  1 18  1  0  0  0  0
  1 27  1  0  0  0  0
  2 20  1  0  0  0  0
  2 29  1  0  0  0  0
  3 28  1  0  0  0  0
  4  9  2  0  0  0  0
  4 10  1  0  0  0  0
  5  9  1  0  0  0  0
  5 11  2  0  0  0  0
  6 11  1  0  0  0  0
  6 24  1  0  0  0  0
  6 25  1  0  0  0  0
  7 20  1  0  0  0  0
  7 23  2  0  0  0  0
  8 31  1  0  0  0  0
  8 33  1  0  0  0  0
  9 12  1  0  0  0  0
 10 13  1  0  0  0  0
 10 14  2  0  0  0  0
 11 14  1  0  0  0  0
 12 15  2  0  0  0  0
 12 17  1  0  0  0  0
 13 16  1  0  0  0  0
 13 19  2  0  0  0  0
 15 18  1  0  0  0  0
 16 20  2  0  0  0  0
 17 21  2  0  0  0  0
 18 22  2  0  0  0  0
 19 23  1  0  0  0  0
 21 22  1  0  0  0  0
 24 26  1  0  0  0  0
 26 30  1  0  0  0  0
 27 28  1  0  0  0  0
 28 31  1  0  0  0  0
 30 32  3  0  0  0  0
M  END
> <PUBCHEM_COMPOUND_ID_TYPE>
0

> <PUBCHEM_TOTAL_CHARGE>
0

> <PUBCHEM_SUBSTANCE_ID>
310939700

> <PUBCHEM_SUBSTANCE_VERSION>
1

> <PUBCHEM_EXT_DATASOURCE_NAME>
4488

> <PUBCHEM_EXT_DATASOURCE_REGID>
SCHEMBL16117630

> <PUBCHEM_SUBSTANCE_COMMENT>
InChI=1S/C25H29N5O3/c1-5-6-12-30(3)23-15-22(18-10-11-27-24(14-18)32-4)28-25(29-23)19-8-7-9-21(13-19)33-17-20(31)16-26-2/h1,7-11,13-15,20,26,31H,6,12,16-17H2,2-4H3
InChIKey=PXPNFVBARAMEAL-UHFFFAOYSA-N

> <PUBCHEM_SUBSTANCE_SYNONYM>
SCHEMBL16117630

> <PUBCHEM_XREF_EXT_ID>
SCHEMBL16117630

> <PUBCHEM_EXT_DATASOURCE_URL>
https://www.surechembl.org/

> <PUBCHEM_EXT_SUBSTANCE_URL>
https://www.surechembl.org/chemical/SCHEMBL16117630

> <PUBCHEM_CID_ASSOCIATIONS>
117606930  1

> <PUBCHEM_COORDINATE_TYPE>
1
3

$$$$
