310946510
  -OEChem-07211613022D

 23 23  0     1  0  0  0  0  0999 V2000
   -6.8604   -6.0405    0.0000 O   0  0  0  0  0  0  0  0  0  0  0  0
   -6.1459   -4.8030    0.0000 O   0  0  0  0  0  0  0  0  0  0  0  0
   -4.0025   -6.8655    0.0000 O   0  0  0  0  0  0  0  0  0  0  0  0
   -4.0025   -4.3905    0.0000 O   0  0  0  0  0  0  0  0  0  0  0  0
   -8.2893   -1.9155    0.0000 O   0  0  0  0  0  0  0  0  0  0  0  0
   -7.5749   -0.6780    0.0000 O   0  5  0  0  0  0  0  0  0  0  0  0
   -9.0038   -0.6780    0.0000 O   0  0  0  0  0  0  0  0  0  0  0  0
   -5.4315   -6.0405    0.0000 N   0  0  0  0  0  0  0  0  0  0  0  0
   -8.2893   -1.0905    0.0000 N   0  3  0  0  0  0  0  0  0  0  0  0
   -7.5749   -5.6280    0.0000 C   0  0  0  0  0  0  0  0  0  0  0  0
   -6.1459   -5.6280    0.0000 C   0  0  0  0  0  0  0  0  0  0  0  0
   -8.2893   -4.3905    0.0000 C   0  0  0  0  0  0  0  0  0  0  0  0
   -7.5749   -4.8030    0.0000 C   0  0  0  0  0  0  0  0  0  0  0  0
   -4.7170   -5.6280    0.0000 C   0  0  3  0  0  0  0  0  0  0  0  0
   -8.2893   -6.0405    0.0000 C   0  0  0  0  0  0  0  0  0  0  0  0
   -9.0038   -4.8030    0.0000 C   0  0  0  0  0  0  0  0  0  0  0  0
   -4.0025   -6.0405    0.0000 C   0  0  0  0  0  0  0  0  0  0  0  0
   -9.0038   -5.6280    0.0000 C   0  0  0  0  0  0  0  0  0  0  0  0
   -8.2893   -3.5655    0.0000 C   0  0  0  0  0  0  0  0  0  0  0  0
   -4.7170   -4.8030    0.0000 C   0  0  0  0  0  0  0  0  0  0  0  0
   -9.0038   -3.1530    0.0000 C   0  0  0  0  0  0  0  0  0  0  0  0
   -3.2881   -5.6280    0.0000 C   0  0  0  0  0  0  0  0  0  0  0  0
   -9.0038   -2.3280    0.0000 C   0  0  0  0  0  0  0  0  0  0  0  0
  1 10  1  0  0  0  0
  1 11  1  0  0  0  0
  2 11  2  0  0  0  0
  3 17  2  0  0  0  0
  4 20  1  0  0  0  0
  5  9  1  0  0  0  0
  5 23  1  0  0  0  0
  6  9  1  0  0  0  0
  7  9  2  0  0  0  0
  8 11  1  0  0  0  0
  8 14  1  0  0  0  0
 10 13  2  0  0  0  0
 10 15  1  0  0  0  0
 12 13  1  0  0  0  0
 12 16  2  0  0  0  0
 12 19  1  0  0  0  0
 14 17  1  0  0  0  0
 14 20  1  0  0  0  0
 15 18  2  0  0  0  0
 16 18  1  0  0  0  0
 17 22  1  0  0  0  0
 19 21  1  0  0  0  0
 21 23  1  0  0  0  0
M  CHG  2   6  -1   9   1
M  END
> <PUBCHEM_COMPOUND_ID_TYPE>
0

> <PUBCHEM_TOTAL_CHARGE>
0

> <PUBCHEM_SUBSTANCE_ID>
310946510

> <PUBCHEM_SUBSTANCE_VERSION>
1

> <PUBCHEM_EXT_DATASOURCE_NAME>
4488

> <PUBCHEM_EXT_DATASOURCE_REGID>
SCHEMBL16124631

> <PUBCHEM_SUBSTANCE_COMMENT>
InChI=1S/C14H18N2O7/c1-10(18)13(9-17)15-14(19)23-12-6-2-4-11(8-12)5-3-7-22-16(20)21/h2,4,6,8,13,17H,3,5,7,9H2,1H3,(H,15,19)
InChIKey=NVXVHNUKRXIPEN-UHFFFAOYSA-N

> <PUBCHEM_SUBSTANCE_SYNONYM>
SCHEMBL16124631

> <PUBCHEM_XREF_EXT_ID>
SCHEMBL16124631

> <PUBCHEM_EXT_DATASOURCE_URL>
https://www.surechembl.org/

> <PUBCHEM_EXT_SUBSTANCE_URL>
https://www.surechembl.org/chemical/SCHEMBL16124631

> <PUBCHEM_CID_ASSOCIATIONS>
117612415  1

> <PUBCHEM_COORDINATE_TYPE>
1
3

$$$$
