310929121
  -OEChem-07211613022D

 59 64  0     1  0  0  0  0  0999 V2000
    1.4074   -0.6794    0.0000 S   0  0  0  0  0  0  0  0  0  0  0  0
    3.6883   -2.0868    0.0000 O   0  0  0  0  0  0  0  0  0  0  0  0
    6.3574   -1.8927    0.0000 O   0  0  0  0  0  0  0  0  0  0  0  0
    2.8633   -4.8045    0.0000 O   0  0  0  0  0  0  0  0  0  0  0  0
    0.9706   -1.4559    0.0000 O   0  0  0  0  0  0  0  0  0  0  0  0
    1.8442    0.0000    0.0000 O   0  0  0  0  0  0  0  0  0  0  0  0
   10.6767   -3.4942    0.0000 O   0  0  0  0  0  0  0  0  0  0  0  0
   14.5590   -2.5721    0.0000 O   0  0  0  0  0  0  0  0  0  0  0  0
    3.5427   -3.5427    0.0000 N   0  0  0  0  0  0  0  0  0  0  0  0
    2.1353   -1.0676    0.0000 N   0  0  0  0  0  0  0  0  0  0  0  0
    4.2221   -4.8045    0.0000 N   0  0  0  0  0  0  0  0  0  0  0  0
    7.8133   -4.3192    0.0000 N   0  0  0  0  0  0  0  0  0  0  0  0
    8.5413   -3.1060    0.0000 N   0  0  0  0  0  0  0  0  0  0  0  0
   11.3560   -4.7559    0.0000 N   0  0  0  0  0  0  0  0  0  0  0  0
   12.8120   -3.1060    0.0000 N   0  0  3  0  0  0  0  0  0  0  0  0
    2.8147   -3.1544    0.0000 C   0  0  0  0  0  0  0  0  0  0  0  0
    4.2221   -3.1544    0.0000 C   0  0  0  0  0  0  0  0  0  0  0  0
    4.2706   -2.3295    0.0000 C   0  0  0  0  0  0  0  0  0  0  0  0
    2.8147   -2.3295    0.0000 C   0  0  0  0  0  0  0  0  0  0  0  0
    4.9501   -1.9412    0.0000 C   0  0  0  0  0  0  0  0  0  0  0  0
    2.0868   -1.8927    0.0000 C   0  0  0  0  0  0  0  0  0  0  0  0
    1.4074   -3.1544    0.0000 C   0  0  0  0  0  0  0  0  0  0  0  0
    2.0868   -3.5427    0.0000 C   0  0  0  0  0  0  0  0  0  0  0  0
    5.6781   -2.3295    0.0000 C   0  0  0  0  0  0  0  0  0  0  0  0
    3.5427   -4.3677    0.0000 C   0  0  0  0  0  0  0  0  0  0  0  0
    4.9501   -3.5427    0.0000 C   0  0  0  0  0  0  0  0  0  0  0  0
    1.4074   -2.3295    0.0000 C   0  0  0  0  0  0  0  0  0  0  0  0
    0.6794   -3.5427    0.0000 C   0  0  0  0  0  0  0  0  0  0  0  0
    5.6781   -3.1544    0.0000 C   0  0  0  0  0  0  0  0  0  0  0  0
    3.5427   -1.9412    0.0000 C   0  0  0  0  0  0  0  0  0  0  0  0
    4.9501   -1.1162    0.0000 C   0  0  0  0  0  0  0  0  0  0  0  0
    3.5427   -1.1162    0.0000 C   0  0  0  0  0  0  0  0  0  0  0  0
    4.2221   -0.6794    0.0000 C   0  0  0  0  0  0  0  0  0  0  0  0
    7.0854   -2.2809    0.0000 C   0  0  0  0  0  0  0  0  0  0  0  0
    0.2912   -2.8147    0.0000 C   0  0  0  0  0  0  0  0  0  0  0  0
    0.0000   -3.9795    0.0000 C   0  0  0  0  0  0  0  0  0  0  0  0
    1.1162   -4.2706    0.0000 C   0  0  0  0  0  0  0  0  0  0  0  0
    7.0854   -3.1060    0.0000 C   0  0  0  0  0  0  0  0  0  0  0  0
    3.6883   -1.2618    0.0000 C   0  0  0  0  0  0  0  0  0  0  0  0
    7.7649   -1.8442    0.0000 C   0  0  0  0  0  0  0  0  0  0  0  0
    7.8133   -3.4942    0.0000 C   0  0  0  0  0  0  0  0  0  0  0  0
    0.7279   -0.2426    0.0000 C   0  0  0  0  0  0  0  0  0  0  0  0
    8.4928   -2.2809    0.0000 C   0  0  0  0  0  0  0  0  0  0  0  0
    8.5413   -4.7559    0.0000 C   0  0  0  0  0  0  0  0  0  0  0  0
    9.9487   -4.7559    0.0000 C   0  0  0  0  0  0  0  0  0  0  0  0
    9.2693   -4.3192    0.0000 C   0  0  0  0  0  0  0  0  0  0  0  0
    8.5413   -5.5325    0.0000 C   0  0  0  0  0  0  0  0  0  0  0  0
    9.2693   -5.9692    0.0000 C   0  0  0  0  0  0  0  0  0  0  0  0
    9.9487   -5.5325    0.0000 C   0  0  0  0  0  0  0  0  0  0  0  0
   10.6767   -4.3192    0.0000 C   0  0  0  0  0  0  0  0  0  0  0  0
    9.2693   -6.7942    0.0000 C   0  0  0  0  0  0  0  0  0  0  0  0
   12.0840   -4.3192    0.0000 C   0  0  0  0  0  0  0  0  0  0  0  0
    9.9487   -7.1825    0.0000 C   0  0  0  0  0  0  0  0  0  0  0  0
   12.0840   -3.4942    0.0000 C   0  0  0  0  0  0  0  0  0  0  0  0
   13.4914   -3.5427    0.0000 C   0  0  0  0  0  0  0  0  0  0  0  0
   12.7635   -2.2324    0.0000 C   0  0  0  0  0  0  0  0  0  0  0  0
   14.2194   -3.3486    0.0000 C   0  0  0  0  0  0  0  0  0  0  0  0
   13.3944   -1.6985    0.0000 C   0  0  0  0  0  0  0  0  0  0  0  0
   14.1708   -1.8442    0.0000 C   0  0  0  0  0  0  0  0  0  0  0  0
  1  5  2  0  0  0  0
  1  6  2  0  0  0  0
  1 10  1  0  0  0  0
  1 42  1  0  0  0  0
  2 19  1  0  0  0  0
  2 39  1  0  0  0  0
  3 24  1  0  0  0  0
  3 34  1  0  0  0  0
  4 25  2  0  0  0  0
  7 50  2  0  0  0  0
  8 57  1  0  0  0  0
  8 59  1  0  0  0  0
  9 16  1  0  0  0  0
  9 17  1  0  0  0  0
  9 25  1  0  0  0  0
 10 21  1  0  0  0  0
 11 25  1  0  0  0  0
 12 41  1  0  0  0  0
 12 44  1  0  0  0  0
 13 41  2  0  0  0  0
 13 43  1  0  0  0  0
 14 50  1  0  0  0  0
 14 52  1  0  0  0  0
 15 54  1  0  0  0  0
 15 55  1  0  0  0  0
 15 56  1  0  0  0  0
 16 19  1  0  0  0  0
 16 23  2  0  0  0  0
 17 18  1  0  0  0  0
 17 26  2  0  0  0  0
 18 20  2  0  0  0  0
 18 30  1  0  0  0  0
 19 21  2  0  0  0  0
 20 24  1  0  0  0  0
 20 31  1  0  0  0  0
 21 27  1  0  0  0  0
 22 23  1  0  0  0  0
 22 27  2  0  0  0  0
 22 28  1  0  0  0  0
 24 29  2  0  0  0  0
 26 29  1  0  0  0  0
 28 35  1  0  0  0  0
 28 36  1  0  0  0  0
 28 37  1  0  0  0  0
 30 32  2  0  0  0  0
 31 33  2  0  0  0  0
 32 33  1  0  0  0  0
 34 38  2  0  0  0  0
 34 40  1  0  0  0  0
 38 41  1  0  0  0  0
 40 43  2  0  0  0  0
 44 46  1  0  0  0  0
 44 47  2  0  0  0  0
 45 46  2  0  0  0  0
 45 49  1  0  0  0  0
 45 50  1  0  0  0  0
 47 48  1  0  0  0  0
 48 49  2  0  0  0  0
 48 51  1  0  0  0  0
 51 53  3  0  0  0  0
 52 54  1  0  0  0  0
 55 57  1  0  0  0  0
 56 58  1  0  0  0  0
 58 59  1  0  0  0  0
M  END
> <PUBCHEM_COMPOUND_ID_TYPE>
0

> <PUBCHEM_TOTAL_CHARGE>
0

> <PUBCHEM_SUBSTANCE_ID>
310929121

> <PUBCHEM_SUBSTANCE_VERSION>
1

> <PUBCHEM_EXT_DATASOURCE_NAME>
4488

> <PUBCHEM_EXT_DATASOURCE_REGID>
SCHEMBL16106284

> <PUBCHEM_SUBSTANCE_COMMENT>
InChI=1S/C44H49N7O7S/c1-7-29-23-30(42(52)47-17-19-50-18-10-21-57-22-20-50)25-32(24-29)48-40-28-33(15-16-46-40)58-39-14-13-37(34-11-8-9-12-35(34)39)51(43(45)53)38-27-31(44(2,3)4)26-36(41(38)56-5)49-59(6,54)55/h1,8-9,11-16,23-28,49H,10,17-22H2,2-6H3,(H2,45,53)(H,46,48)(H,47,52)
InChIKey=NUYSNKJGEGVVLY-UHFFFAOYSA-N

> <PUBCHEM_SUBSTANCE_SYNONYM>
SCHEMBL16106284

> <PUBCHEM_XREF_EXT_ID>
SCHEMBL16106284

> <PUBCHEM_EXT_DATASOURCE_URL>
https://www.surechembl.org/

> <PUBCHEM_EXT_SUBSTANCE_URL>
https://www.surechembl.org/chemical/SCHEMBL16106284

> <PUBCHEM_CID_ASSOCIATIONS>
117598600  1

> <PUBCHEM_COORDINATE_TYPE>
1
3

$$$$
