310939656
  -OEChem-07211613022D

 33 36  0     1  0  0  0  0  0999 V2000
   -1.4284   -9.3904    0.0000 O   0  0  0  0  0  0  0  0  0  0  0  0
    4.2871  -12.6902    0.0000 O   0  0  0  0  0  0  0  0  0  0  0  0
   -2.8573  -10.2154    0.0000 O   0  0  0  0  0  0  0  0  0  0  0  0
    1.4293  -10.2154    0.0000 N   0  0  0  0  0  0  0  0  0  0  0  0
    2.1438   -8.9779    0.0000 N   0  0  0  0  0  0  0  0  0  0  0  0
    4.2871   -7.7405    0.0000 N   0  0  0  0  0  0  0  0  0  0  0  0
   -4.2861   -9.3904    0.0000 N   0  0  0  0  0  0  0  0  0  0  0  0
    1.4293   -9.3904    0.0000 C   0  0  0  0  0  0  0  0  0  0  0  0
    2.1438  -10.6278    0.0000 C   0  0  0  0  0  0  0  0  0  0  0  0
    2.8583   -9.3904    0.0000 C   0  0  0  0  0  0  0  0  0  0  0  0
    0.7150   -8.9779    0.0000 C   0  0  0  0  0  0  0  0  0  0  0  0
    2.8583  -10.2154    0.0000 C   0  0  0  0  0  0  0  0  0  0  0  0
    2.1438  -11.4528    0.0000 C   0  0  3  0  0  0  0  0  0  0  0  0
    3.5727   -8.9779    0.0000 C   0  0  0  0  0  0  0  0  0  0  0  0
    2.8583  -11.8653    0.0000 C   0  0  0  0  0  0  0  0  0  0  0  0
    0.0005   -9.3904    0.0000 C   0  0  0  0  0  0  0  0  0  0  0  0
    0.7150   -8.1529    0.0000 C   0  0  0  0  0  0  0  0  0  0  0  0
   -0.7140   -8.9779    0.0000 C   0  0  0  0  0  0  0  0  0  0  0  0
    3.5727   -8.1529    0.0000 C   0  0  0  0  0  0  0  0  0  0  0  0
    4.2871   -9.3904    0.0000 C   0  0  0  0  0  0  0  0  0  0  0  0
    0.0005   -7.7405    0.0000 C   0  0  0  0  0  0  0  0  0  0  0  0
   -0.7140   -8.1529    0.0000 C   0  0  0  0  0  0  0  0  0  0  0  0
    2.8583  -12.6902    0.0000 C   0  0  0  0  0  0  0  0  0  0  0  0
    3.5727  -11.4528    0.0000 C   0  0  0  0  0  0  0  0  0  0  0  0
    1.4293  -11.8653    0.0000 C   0  0  0  0  0  0  0  0  0  0  0  0
    5.0016   -8.9779    0.0000 C   0  0  0  0  0  0  0  0  0  0  0  0
    3.5727  -13.1027    0.0000 C   0  0  0  0  0  0  0  0  0  0  0  0
    4.2871  -11.8653    0.0000 C   0  0  0  0  0  0  0  0  0  0  0  0
    5.0016   -8.1529    0.0000 C   0  0  0  0  0  0  0  0  0  0  0  0
   -2.1428   -8.9779    0.0000 C   0  0  0  0  0  0  0  0  0  0  0  0
   -2.8573   -9.3904    0.0000 C   0  0  3  0  0  0  0  0  0  0  0  0
   -3.5718   -8.9779    0.0000 C   0  0  0  0  0  0  0  0  0  0  0  0
   -5.0006   -8.9779    0.0000 C   0  0  0  0  0  0  0  0  0  0  0  0
  1 18  1  0  0  0  0
  1 30  1  0  0  0  0
  2 27  1  0  0  0  0
  2 28  1  0  0  0  0
  3 31  1  0  0  0  0
  4  8  1  0  0  0  0
  4  9  2  0  0  0  0
  5  8  2  0  0  0  0
  5 10  1  0  0  0  0
  6 19  1  0  0  0  0
  6 29  2  0  0  0  0
  7 32  1  0  0  0  0
  7 33  1  0  0  0  0
  8 11  1  0  0  0  0
  9 12  1  0  0  0  0
  9 13  1  0  0  0  0
 10 12  2  0  0  0  0
 10 14  1  0  0  0  0
 11 16  2  0  0  0  0
 11 17  1  0  0  0  0
 13 15  1  0  0  0  0
 13 25  1  0  0  0  0
 14 19  2  0  0  0  0
 14 20  1  0  0  0  0
 15 23  1  0  0  0  0
 15 24  1  0  0  0  0
 16 18  1  0  0  0  0
 17 21  2  0  0  0  0
 18 22  2  0  0  0  0
 20 26  2  0  0  0  0
 21 22  1  0  0  0  0
 23 27  1  0  0  0  0
 24 28  1  0  0  0  0
 26 29  1  0  0  0  0
 30 31  1  0  0  0  0
 31 32  1  0  0  0  0
M  END
> <PUBCHEM_COMPOUND_ID_TYPE>
0

> <PUBCHEM_TOTAL_CHARGE>
0

> <PUBCHEM_SUBSTANCE_ID>
310939656

> <PUBCHEM_SUBSTANCE_VERSION>
1

> <PUBCHEM_EXT_DATASOURCE_NAME>
4488

> <PUBCHEM_EXT_DATASOURCE_REGID>
SCHEMBL16117586

> <PUBCHEM_SUBSTANCE_COMMENT>
InChI=1S/C26H32N4O3/c1-18(19-8-11-32-12-9-19)24-14-25(21-6-4-10-28-15-21)30-26(29-24)20-5-3-7-23(13-20)33-17-22(31)16-27-2/h3-7,10,13-15,18-19,22,27,31H,8-9,11-12,16-17H2,1-2H3
InChIKey=LPRBSXASVPQHRT-UHFFFAOYSA-N

> <PUBCHEM_SUBSTANCE_SYNONYM>
SCHEMBL16117586

> <PUBCHEM_XREF_EXT_ID>
SCHEMBL16117586

> <PUBCHEM_EXT_DATASOURCE_URL>
https://www.surechembl.org/

> <PUBCHEM_EXT_SUBSTANCE_URL>
https://www.surechembl.org/chemical/SCHEMBL16117586

> <PUBCHEM_CID_ASSOCIATIONS>
117606891  1

> <PUBCHEM_COORDINATE_TYPE>
1
3

$$$$
