310935361
  -OEChem-07211613022D

 12 12  0     1  0  0  0  0  0999 V2000
    2.8902   -0.2211    0.0000 S   0  0  0  0  0  0  0  0  0  0  0  0
    4.7380   -1.4372    0.0000 O   0  0  0  0  0  0  0  0  0  0  0  0
    0.7265   -1.3898    0.0000 O   0  0  0  0  0  0  0  0  0  0  0  0
    2.2269   -1.3898    0.0000 N   0  0  0  0  0  0  0  0  0  0  0  0
    1.4372   -0.1579    0.0000 N   0  0  0  0  0  0  0  0  0  0  0  0
    3.4430   -0.8370    0.0000 C   0  0  0  0  0  0  0  0  0  0  0  0
    2.1479   -0.5686    0.0000 C   0  0  0  0  0  0  0  0  0  0  0  0
    3.0323   -1.5477    0.0000 C   0  0  0  0  0  0  0  0  0  0  0  0
    4.2642   -0.7581    0.0000 C   0  0  3  0  0  0  0  0  0  0  0  0
    0.7265   -0.5686    0.0000 C   0  0  0  0  0  0  0  0  0  0  0  0
    4.5959    0.0000    0.0000 C   0  0  0  0  0  0  0  0  0  0  0  0
    0.0000   -0.1579    0.0000 C   0  0  0  0  0  0  0  0  0  0  0  0
  1  6  1  0  0  0  0
  1  7  1  0  0  0  0
  2  9  1  0  0  0  0
  3 10  2  0  0  0  0
  4  7  2  0  0  0  0
  4  8  1  0  0  0  0
  5  7  1  0  0  0  0
  5 10  1  0  0  0  0
  6  8  2  0  0  0  0
  6  9  1  0  0  0  0
  9 11  1  0  0  0  0
 10 12  1  0  0  0  0
M  END
> <PUBCHEM_COMPOUND_ID_TYPE>
0

> <PUBCHEM_TOTAL_CHARGE>
0

> <PUBCHEM_SUBSTANCE_ID>
310935361

> <PUBCHEM_SUBSTANCE_VERSION>
1

> <PUBCHEM_EXT_DATASOURCE_NAME>
4488

> <PUBCHEM_EXT_DATASOURCE_REGID>
SCHEMBL16112900

> <PUBCHEM_SUBSTANCE_COMMENT>
InChI=1S/C7H10N2O2S/c1-4(10)6-3-8-7(12-6)9-5(2)11/h3-4,10H,1-2H3,(H,8,9,11)
InChIKey=PMZFSROJEVKFQJ-UHFFFAOYSA-N

> <PUBCHEM_SUBSTANCE_SYNONYM>
SCHEMBL16112900

> <PUBCHEM_XREF_EXT_ID>
SCHEMBL16112900

> <PUBCHEM_EXT_DATASOURCE_URL>
https://www.surechembl.org/

> <PUBCHEM_EXT_SUBSTANCE_URL>
https://www.surechembl.org/chemical/SCHEMBL16112900

> <PUBCHEM_CID_ASSOCIATIONS>
117603415  1

> <PUBCHEM_COORDINATE_TYPE>
1
3

$$$$
