310943149
  -OEChem-07211613022D

 41 46  0     1  0  0  0  0  0999 V2000
    4.2854   -2.5614    0.0000 F   0  0  0  0  0  0  0  0  0  0  0  0
   -2.8898   -0.0657    0.0000 O   0  0  0  0  0  0  0  0  0  0  0  0
   -4.1705    2.6764    0.0000 O   0  0  0  0  0  0  0  0  0  0  0  0
    1.4121   -0.0657    0.0000 O   0  0  0  0  0  0  0  0  0  0  0  0
   -2.8898   -2.5614    0.0000 O   0  0  0  0  0  0  0  0  0  0  0  0
   -2.8733    1.6255    0.0000 N   0  0  0  0  0  0  0  0  0  0  0  0
   -1.4449   -0.0821    0.0000 N   0  0  0  0  0  0  0  0  0  0  0  0
    0.7060    2.8406    0.0000 N   0  0  0  0  0  0  0  0  0  0  0  0
    2.1344    1.1822    0.0000 N   0  0  0  0  0  0  0  0  0  0  0  0
    4.2854   -0.9031    0.0000 N   0  0  0  0  0  0  0  0  0  0  0  0
   -2.1509    1.1822    0.0000 C   0  0  0  0  0  0  0  0  0  0  0  0
   -3.6450    1.3628    0.0000 C   0  0  3  0  0  0  0  0  0  0  0  0
   -2.7912    2.4629    0.0000 C   0  0  3  0  0  0  0  0  0  0  0  0
   -2.1673    0.3447    0.0000 C   0  0  0  0  0  0  0  0  0  0  0  0
   -0.7224    1.1822    0.0000 C   0  0  0  0  0  0  0  0  0  0  0  0
   -1.4449    1.5927    0.0000 C   0  0  0  0  0  0  0  0  0  0  0  0
   -0.0164    1.5927    0.0000 C   0  0  0  0  0  0  0  0  0  0  0  0
   -3.8092    1.9046    0.0000 C   0  0  0  0  0  0  0  0  0  0  0  0
   -3.3166    2.5286    0.0000 C   0  0  0  0  0  0  0  0  0  0  0  0
   -4.2854    1.8553    0.0000 C   0  0  0  0  0  0  0  0  0  0  0  0
   -3.3987    2.9719    0.0000 C   0  0  0  0  0  0  0  0  0  0  0  0
   -0.7388    0.3447    0.0000 C   0  0  0  0  0  0  0  0  0  0  0  0
    0.0000    2.4300    0.0000 C   0  0  0  0  0  0  0  0  0  0  0  0
    0.7224    1.1822    0.0000 C   0  0  0  0  0  0  0  0  0  0  0  0
    1.4285    1.5927    0.0000 C   0  0  0  0  0  0  0  0  0  0  0  0
   -2.8898   -0.9031    0.0000 C   0  0  0  0  0  0  0  0  0  0  0  0
    1.4285    2.4136    0.0000 C   0  0  0  0  0  0  0  0  0  0  0  0
    2.1509    0.3612    0.0000 C   0  0  0  0  0  0  0  0  0  0  0  0
    2.8569   -0.0657    0.0000 C   0  0  0  0  0  0  0  0  0  0  0  0
    3.5794   -1.3135    0.0000 C   0  0  0  0  0  0  0  0  0  0  0  0
    2.8569   -0.9031    0.0000 C   0  0  0  0  0  0  0  0  0  0  0  0
    3.5465   -2.1673    0.0000 C   0  0  0  0  0  0  0  0  0  0  0  0
   -0.7388    2.8241    0.0000 C   0  0  0  0  0  0  0  0  0  0  0  0
   -2.1509   -1.3300    0.0000 C   0  0  0  0  0  0  0  0  0  0  0  0
   -3.5958   -1.3135    0.0000 C   0  0  0  0  0  0  0  0  0  0  0  0
    3.5629    0.3447    0.0000 C   0  0  0  0  0  0  0  0  0  0  0  0
    4.2854   -0.0657    0.0000 C   0  0  0  0  0  0  0  0  0  0  0  0
   -2.1673   -2.1509    0.0000 C   0  0  0  0  0  0  0  0  0  0  0  0
   -3.5958   -2.1509    0.0000 C   0  0  0  0  0  0  0  0  0  0  0  0
    2.8569   -2.5778    0.0000 C   0  0  0  0  0  0  0  0  0  0  0  0
    3.3823   -2.9719    0.0000 C   0  0  0  0  0  0  0  0  0  0  0  0
  1 32  1  0  0  0  0
  2 14  1  0  0  0  0
  2 26  1  0  0  0  0
  3 20  1  0  0  0  0
  3 21  1  0  0  0  0
  4 28  2  0  0  0  0
  5 38  1  0  0  0  0
  5 39  1  0  0  0  0
  6 11  1  0  0  0  0
  6 12  1  0  0  0  0
  6 13  1  0  0  0  0
  7 14  1  0  0  0  0
  7 22  2  0  0  0  0
  8 23  2  0  0  0  0
  8 27  1  0  0  0  0
  9 25  1  0  0  0  0
  9 28  1  0  0  0  0
 10 30  2  0  0  0  0
 10 37  1  0  0  0  0
 11 14  2  0  0  0  0
 11 16  1  0  0  0  0
 12 18  1  0  0  0  0
 12 20  1  0  0  0  0
 13 19  1  0  0  0  0
 13 21  1  0  0  0  0
 15 16  2  0  0  0  0
 15 17  1  0  0  0  0
 15 22  1  0  0  0  0
 17 23  1  0  0  0  0
 17 24  2  0  0  0  0
 18 19  1  0  0  0  0
 23 33  1  0  0  0  0
 24 25  1  0  0  0  0
 25 27  2  0  0  0  0
 26 34  1  0  0  0  0
 26 35  1  0  0  0  0
 28 29  1  0  0  0  0
 29 31  2  0  0  0  0
 29 36  1  0  0  0  0
 30 31  1  0  0  0  0
 30 32  1  0  0  0  0
 32 40  1  0  0  0  0
 32 41  1  0  0  0  0
 34 38  1  0  0  0  0
 35 39  1  0  0  0  0
 36 37  2  0  0  0  0
M  END
> <PUBCHEM_COMPOUND_ID_TYPE>
0

> <PUBCHEM_TOTAL_CHARGE>
0

> <PUBCHEM_SUBSTANCE_ID>
310943149

> <PUBCHEM_SUBSTANCE_VERSION>
1

> <PUBCHEM_EXT_DATASOURCE_NAME>
4488

> <PUBCHEM_EXT_DATASOURCE_REGID>
SCHEMBL16121209

> <PUBCHEM_SUBSTANCE_COMMENT>
InChI=1S/C31H36FN5O4/c1-19-26(14-22(16-34-19)36-29(38)20-6-9-33-28(13-20)31(2,3)32)21-12-27(37-23-4-5-24(37)18-40-17-23)30(35-15-21)41-25-7-10-39-11-8-25/h6,9,12-16,23-25H,4-5,7-8,10-11,17-18H2,1-3H3,(H,36,38)
InChIKey=YHXBIRRLTLYTEO-UHFFFAOYSA-N

> <PUBCHEM_SUBSTANCE_SYNONYM>
SCHEMBL16121209

> <PUBCHEM_XREF_EXT_ID>
SCHEMBL16121209

> <PUBCHEM_EXT_DATASOURCE_URL>
https://www.surechembl.org/

> <PUBCHEM_EXT_SUBSTANCE_URL>
https://www.surechembl.org/chemical/SCHEMBL16121209

> <PUBCHEM_CID_ASSOCIATIONS>
117609579  1

> <PUBCHEM_COORDINATE_TYPE>
1
3

$$$$
