310942987
  -OEChem-07211613022D

 35 38  0     1  0  0  0  0  0999 V2000
   -1.8053    1.5519    0.0000 O   0  0  0  0  0  0  0  0  0  0  0  0
    5.3419    0.7357    0.0000 O   0  0  0  0  0  0  0  0  0  0  0  0
   -3.2274    0.7357    0.0000 O   0  0  0  0  0  0  0  0  0  0  0  0
    1.0758    0.7357    0.0000 N   0  0  0  0  0  0  0  0  0  0  0  0
    1.7930    1.9722    0.0000 N   0  0  0  0  0  0  0  0  0  0  0  0
    1.3850   -1.7744    0.0000 N   0  0  0  0  0  0  0  0  0  0  0  0
    3.2150    1.9722    0.0000 N   0  0  0  0  0  0  0  0  0  0  0  0
    2.2010   -1.7744    0.0000 N   0  0  0  0  0  0  0  0  0  0  0  0
   -4.6370    1.5643    0.0000 N   0  0  0  0  0  0  0  0  0  0  0  0
    1.7806    0.3277    0.0000 C   0  0  0  0  0  0  0  0  0  0  0  0
    1.0634    1.5643    0.0000 C   0  0  0  0  0  0  0  0  0  0  0  0
    1.7806   -0.5009    0.0000 C   0  0  0  0  0  0  0  0  0  0  0  0
    2.4979    1.5643    0.0000 C   0  0  0  0  0  0  0  0  0  0  0  0
    0.3462    1.9846    0.0000 C   0  0  0  0  0  0  0  0  0  0  0  0
    2.4979    0.7234    0.0000 C   0  0  0  0  0  0  0  0  0  0  0  0
    1.1128   -0.9831    0.0000 C   0  0  0  0  0  0  0  0  0  0  0  0
    2.4484   -0.9831    0.0000 C   0  0  0  0  0  0  0  0  0  0  0  0
   -0.3462    1.5643    0.0000 C   0  0  0  0  0  0  0  0  0  0  0  0
    0.3585    2.7884    0.0000 C   0  0  0  0  0  0  0  0  0  0  0  0
   -1.0758    1.9722    0.0000 C   0  0  0  0  0  0  0  0  0  0  0  0
    3.9198    1.5643    0.0000 C   0  0  0  0  0  0  0  0  0  0  0  0
   -0.3585    3.1965    0.0000 C   0  0  0  0  0  0  0  0  0  0  0  0
    0.9645   -2.4793    0.0000 C   0  0  0  0  0  0  0  0  0  0  0  0
   -1.0634    2.7884    0.0000 C   0  0  0  0  0  0  0  0  0  0  0  0
    3.9198    0.7357    0.0000 C   0  0  0  0  0  0  0  0  0  0  0  0
    4.6370    1.9722    0.0000 C   0  0  0  0  0  0  0  0  0  0  0  0
    0.1237   -2.4669    0.0000 C   0  0  0  0  0  0  0  0  0  0  0  0
   -2.4979    1.9722    0.0000 C   0  0  0  0  0  0  0  0  0  0  0  0
    5.3543    1.5643    0.0000 C   0  0  0  0  0  0  0  0  0  0  0  0
    4.6494    0.3277    0.0000 C   0  0  0  0  0  0  0  0  0  0  0  0
   -3.2150    1.5643    0.0000 C   0  0  3  0  0  0  0  0  0  0  0  0
   -0.2720   -1.7868    0.0000 C   0  0  0  0  0  0  0  0  0  0  0  0
   -0.2596   -3.1965    0.0000 C   0  0  0  0  0  0  0  0  0  0  0  0
   -3.9198    1.9722    0.0000 C   0  0  0  0  0  0  0  0  0  0  0  0
   -5.3543    1.9599    0.0000 C   0  0  0  0  0  0  0  0  0  0  0  0
  1 20  1  0  0  0  0
  1 28  1  0  0  0  0
  2 29  1  0  0  0  0
  2 30  1  0  0  0  0
  3 31  1  0  0  0  0
  4 10  2  0  0  0  0
  4 11  1  0  0  0  0
  5 11  2  0  0  0  0
  5 13  1  0  0  0  0
  6  8  1  0  0  0  0
  6 16  1  0  0  0  0
  6 23  1  0  0  0  0
  7 13  1  0  0  0  0
  7 21  1  0  0  0  0
  8 17  2  0  0  0  0
  9 34  1  0  0  0  0
  9 35  1  0  0  0  0
 10 12  1  0  0  0  0
 10 15  1  0  0  0  0
 11 14  1  0  0  0  0
 12 16  2  0  0  0  0
 12 17  1  0  0  0  0
 13 15  2  0  0  0  0
 14 18  2  0  0  0  0
 14 19  1  0  0  0  0
 18 20  1  0  0  0  0
 19 22  2  0  0  0  0
 20 24  2  0  0  0  0
 21 25  1  0  0  0  0
 21 26  1  0  0  0  0
 22 24  1  0  0  0  0
 23 27  1  0  0  0  0
 25 30  1  0  0  0  0
 26 29  1  0  0  0  0
 27 32  1  0  0  0  0
 27 33  1  0  0  0  0
 28 31  1  0  0  0  0
 31 34  1  0  0  0  0
M  END
> <PUBCHEM_COMPOUND_ID_TYPE>
0

> <PUBCHEM_TOTAL_CHARGE>
0

> <PUBCHEM_SUBSTANCE_ID>
310942987

> <PUBCHEM_SUBSTANCE_VERSION>
1

> <PUBCHEM_EXT_DATASOURCE_NAME>
4488

> <PUBCHEM_EXT_DATASOURCE_REGID>
SCHEMBL16121046

> <PUBCHEM_SUBSTANCE_COMMENT>
InChI=1S/C26H36N6O3/c1-18(2)15-32-16-20(13-28-32)24-12-25(29-21-7-9-34-10-8-21)31-26(30-24)19-5-4-6-23(11-19)35-17-22(33)14-27-3/h4-6,11-13,16,18,21-22,27,33H,7-10,14-15,17H2,1-3H3,(H,29,30,31)
InChIKey=WTLFIMWRRICGHY-UHFFFAOYSA-N

> <PUBCHEM_SUBSTANCE_SYNONYM>
SCHEMBL16121046

> <PUBCHEM_XREF_EXT_ID>
SCHEMBL16121046

> <PUBCHEM_EXT_DATASOURCE_URL>
https://www.surechembl.org/

> <PUBCHEM_EXT_SUBSTANCE_URL>
https://www.surechembl.org/chemical/SCHEMBL16121046

> <PUBCHEM_CID_ASSOCIATIONS>
85472559  1

> <PUBCHEM_COORDINATE_TYPE>
1
3

$$$$
