310932557
  -OEChem-07211613022D

 38 43  0     1  0  0  0  0  0999 V2000
    0.0000   -4.3403    0.0000 F   0  0  0  0  0  0  0  0  0  0  0  0
    0.8250   -2.8696    0.0000 O   0  0  0  0  0  0  0  0  0  0  0  0
    4.1610   -2.8696    0.0000 O   0  0  0  0  0  0  0  0  0  0  0  0
    2.6544   -5.8828    0.0000 O   0  0  0  0  0  0  0  0  0  0  0  0
    4.5197   -5.0219    0.0000 O   0  0  0  0  0  0  0  0  0  0  0  0
    2.9414   -3.5871    0.0000 N   0  0  0  0  0  0  0  0  0  0  0  0
    4.1610   -4.3045    0.0000 N   0  0  0  0  0  0  0  0  0  0  0  0
    4.9860   -2.9055    0.0000 N   0  0  0  0  0  0  0  0  0  0  0  0
    2.4751    0.0000    0.0000 N   0  0  0  0  0  0  0  0  0  0  0  0
    2.5109   -2.8696    0.0000 C   0  0  3  0  0  0  0  0  0  0  0  0
    2.0805   -3.5871    0.0000 C   0  0  0  0  0  0  0  0  0  0  0  0
    2.0805   -2.1163    0.0000 C   0  0  0  0  0  0  0  0  0  0  0  0
    3.7305   -3.5871    0.0000 C   0  0  3  0  0  0  0  0  0  0  0  0
    1.2555   -3.5871    0.0000 C   0  0  0  0  0  0  0  0  0  0  0  0
    1.2555   -2.1163    0.0000 C   0  0  0  0  0  0  0  0  0  0  0  0
    2.9414   -2.1522    0.0000 C   0  0  0  0  0  0  0  0  0  0  0  0
    4.5555   -3.5871    0.0000 C   0  0  0  0  0  0  0  0  0  0  0  0
    2.5109   -4.3045    0.0000 C   0  0  0  0  0  0  0  0  0  0  0  0
    0.8250   -4.3045    0.0000 C   0  0  0  0  0  0  0  0  0  0  0  0
    2.5109   -1.3990    0.0000 C   0  0  0  0  0  0  0  0  0  0  0  0
    3.7305   -2.1522    0.0000 C   0  0  0  0  0  0  0  0  0  0  0  0
    2.0805   -4.9860    0.0000 C   0  0  0  0  0  0  0  0  0  0  0  0
    0.8250   -1.3990    0.0000 C   0  0  0  0  0  0  0  0  0  0  0  0
    1.2555   -4.9860    0.0000 C   0  0  0  0  0  0  0  0  0  0  0  0
    2.0805   -0.7174    0.0000 C   0  0  0  0  0  0  0  0  0  0  0  0
    4.9501   -4.3045    0.0000 C   0  0  0  0  0  0  0  0  0  0  0  0
    1.2555   -0.7174    0.0000 C   0  0  0  0  0  0  0  0  0  0  0  0
    5.7751   -4.3045    0.0000 C   0  0  0  0  0  0  0  0  0  0  0  0
    5.8110   -2.8696    0.0000 C   0  0  0  0  0  0  0  0  0  0  0  0
    6.2056   -3.6229    0.0000 C   0  0  0  0  0  0  0  0  0  0  0  0
    3.6946   -5.0219    0.0000 C   0  0  0  0  0  0  0  0  0  0  0  0
    3.4795   -5.8828    0.0000 C   0  0  0  0  0  0  0  0  0  0  0  0
    3.3001   -5.7393    0.0000 C   0  0  0  0  0  0  0  0  0  0  0  0
    2.4751   -5.7393    0.0000 C   0  0  0  0  0  0  0  0  0  0  0  0
    3.6946   -6.4567    0.0000 C   0  0  0  0  0  0  0  0  0  0  0  0
    2.0446   -6.4567    0.0000 C   0  0  0  0  0  0  0  0  0  0  0  0
    3.2642   -7.1741    0.0000 C   0  0  0  0  0  0  0  0  0  0  0  0
    2.4392   -7.1741    0.0000 C   0  0  0  0  0  0  0  0  0  0  0  0
  1 19  1  0  0  0  0
  2 14  1  0  0  0  0
  2 15  1  0  0  0  0
  3 13  1  0  0  0  0
  3 21  1  0  0  0  0
  4 22  1  0  0  0  0
  4 32  1  0  0  0  0
  5 26  1  0  0  0  0
  5 31  1  0  0  0  0
  6 10  1  0  0  0  0
  6 13  1  0  0  0  0
  7 13  1  0  0  0  0
  8 17  1  0  0  0  0
  8 29  2  0  0  0  0
  9 25  1  0  0  0  0
 10 11  1  0  0  0  0
 10 12  1  0  0  0  0
 10 16  1  0  0  0  0
 11 14  2  0  0  0  0
 11 18  1  0  0  0  0
 12 15  2  0  0  0  0
 12 20  1  0  0  0  0
 13 17  1  0  0  0  0
 14 19  1  0  0  0  0
 15 23  1  0  0  0  0
 16 21  1  0  0  0  0
 17 26  2  0  0  0  0
 18 22  2  0  0  0  0
 19 24  2  0  0  0  0
 20 25  2  0  0  0  0
 22 24  1  0  0  0  0
 23 27  2  0  0  0  0
 25 27  1  0  0  0  0
 26 28  1  0  0  0  0
 28 30  2  0  0  0  0
 29 30  1  0  0  0  0
 31 33  1  0  0  0  0
 33 34  2  0  0  0  0
 33 35  1  0  0  0  0
 34 36  1  0  0  0  0
 35 37  2  0  0  0  0
 36 38  2  0  0  0  0
 37 38  1  0  0  0  0
M  END
> <PUBCHEM_COMPOUND_ID_TYPE>
0

> <PUBCHEM_TOTAL_CHARGE>
0

> <PUBCHEM_SUBSTANCE_ID>
310932557

> <PUBCHEM_SUBSTANCE_VERSION>
1

> <PUBCHEM_EXT_DATASOURCE_NAME>
4488

> <PUBCHEM_EXT_DATASOURCE_REGID>
SCHEMBL16109934

> <PUBCHEM_SUBSTANCE_COMMENT>
InChI=1S/C29H27FN4O4/c1-35-20-15-22-26(23(30)16-20)38-24-10-9-19(31)14-21(24)28(22)11-13-37-29(32,34-28)27-25(8-5-12-33-27)36-17-18-6-3-2-4-7-18/h2-10,12,14-16,34H,11,13,17,31-32H2,1H3
InChIKey=MCDGVYDUPQXCJA-UHFFFAOYSA-N

> <PUBCHEM_SUBSTANCE_SYNONYM>
SCHEMBL16109934

> <PUBCHEM_XREF_EXT_ID>
SCHEMBL16109934

> <PUBCHEM_EXT_DATASOURCE_URL>
https://www.surechembl.org/

> <PUBCHEM_EXT_SUBSTANCE_URL>
https://www.surechembl.org/chemical/SCHEMBL16109934

> <PUBCHEM_CID_ASSOCIATIONS>
117601081  1

> <PUBCHEM_COORDINATE_TYPE>
1
3

$$$$
