310930519
  -OEChem-07211613022D

 33 36  0     1  0  0  0  0  0999 V2000
    1.8785    5.3986    0.0000 Cl  0  0  0  0  0  0  0  0  0  0  0  0
    4.7123    0.7903    0.0000 S   0  0  0  0  0  0  0  0  0  0  0  0
    3.7425   -0.5446    0.0000 F   0  0  0  0  0  0  0  0  0  0  0  0
    2.4003    2.4701    0.0000 F   0  0  0  0  0  0  0  0  0  0  0  0
    4.7986    1.6108    0.0000 O   0  0  0  0  0  0  0  0  0  0  0  0
    4.6261   -0.0302    0.0000 O   0  0  0  0  0  0  0  0  0  0  0  0
    1.4304    1.1353    0.0000 O   0  0  0  0  0  0  0  0  0  0  0  0
    5.5328    0.7041    0.0000 N   0  0  0  0  0  0  0  0  0  0  0  0
    5.7628    2.1562    0.0000 N   0  0  0  0  0  0  0  0  0  0  0  0
    6.8427    1.3715    0.0000 N   0  0  0  0  0  0  0  0  0  0  0  0
    6.4302    2.6411    0.0000 N   0  0  0  0  0  0  0  0  0  0  0  0
    7.0977    2.1562    0.0000 N   0  0  0  0  0  0  0  0  0  0  0  0
   -1.0310    1.3940    0.0000 N   0  0  0  0  0  0  0  0  0  0  0  0
    3.8919    0.8766    0.0000 C   0  0  0  0  0  0  0  0  0  0  0  0
    3.4069    0.2091    0.0000 C   0  0  0  0  0  0  0  0  0  0  0  0
    3.5563    1.6302    0.0000 C   0  0  0  0  0  0  0  0  0  0  0  0
    2.2509    1.0490    0.0000 C   0  0  0  0  0  0  0  0  0  0  0  0
    2.7358    1.7165    0.0000 C   0  0  0  0  0  0  0  0  0  0  0  0
    2.5865    0.2954    0.0000 C   0  0  0  0  0  0  0  0  0  0  0  0
    6.0177    1.3715    0.0000 C   0  0  0  0  0  0  0  0  0  0  0  0
    0.2744    1.9752    0.0000 C   0  0  3  0  0  0  0  0  0  0  0  0
   -0.0612    2.7289    0.0000 C   0  0  3  0  0  0  0  0  0  0  0  0
    1.0949    1.8889    0.0000 C   0  0  0  0  0  0  0  0  0  0  0  0
    0.4237    3.3963    0.0000 C   0  0  0  0  0  0  0  0  0  0  0  0
   -0.2105    1.3077    0.0000 C   0  0  0  0  0  0  0  0  0  0  0  0
   -0.8817    2.8151    0.0000 C   0  0  0  0  0  0  0  0  0  0  0  0
    0.0882    4.1500    0.0000 C   0  0  0  0  0  0  0  0  0  0  0  0
    1.2442    3.3101    0.0000 C   0  0  0  0  0  0  0  0  0  0  0  0
   -1.3666    2.1477    0.0000 C   0  0  0  0  0  0  0  0  0  0  0  0
    6.4302    3.4661    0.0000 C   0  0  0  0  0  0  0  0  0  0  0  0
    1.3936    4.7312    0.0000 C   0  0  0  0  0  0  0  0  0  0  0  0
    0.5731    4.8174    0.0000 C   0  0  0  0  0  0  0  0  0  0  0  0
    1.7291    3.9775    0.0000 C   0  0  0  0  0  0  0  0  0  0  0  0
  1 31  1  0  0  0  0
  2  5  2  0  0  0  0
  2  6  2  0  0  0  0
  2  8  1  0  0  0  0
  2 14  1  0  0  0  0
  3 15  1  0  0  0  0
  4 18  1  0  0  0  0
  7 17  1  0  0  0  0
  7 23  1  0  0  0  0
  8 20  1  0  0  0  0
  9 11  1  0  0  0  0
  9 20  2  0  0  0  0
 10 12  2  0  0  0  0
 10 20  1  0  0  0  0
 11 12  1  0  0  0  0
 11 30  1  0  0  0  0
 13 25  1  0  0  0  0
 13 29  1  0  0  0  0
 14 15  2  0  0  0  0
 14 16  1  0  0  0  0
 15 19  1  0  0  0  0
 16 18  2  0  0  0  0
 17 18  1  0  0  0  0
 17 19  2  0  0  0  0
 21 22  1  0  0  0  0
 21 23  1  0  0  0  0
 21 25  1  0  0  0  0
 22 24  1  0  0  0  0
 22 26  1  0  0  0  0
 24 27  2  0  0  0  0
 24 28  1  0  0  0  0
 26 29  1  0  0  0  0
 27 32  1  0  0  0  0
 28 33  2  0  0  0  0
 31 32  2  0  0  0  0
 31 33  1  0  0  0  0
M  END
> <PUBCHEM_COMPOUND_ID_TYPE>
0

> <PUBCHEM_TOTAL_CHARGE>
0

> <PUBCHEM_SUBSTANCE_ID>
310930519

> <PUBCHEM_SUBSTANCE_VERSION>
1

> <PUBCHEM_EXT_DATASOURCE_NAME>
4488

> <PUBCHEM_EXT_DATASOURCE_REGID>
SCHEMBL16107811

> <PUBCHEM_SUBSTANCE_COMMENT>
InChI=1S/C20H21ClF2N6O3S/c1-29-26-20(25-28-29)27-33(30,31)19-9-16(22)18(8-17(19)23)32-11-13-10-24-7-6-15(13)12-2-4-14(21)5-3-12/h2-5,8-9,13,15,24H,6-7,10-11H2,1H3,(H,26,27)
InChIKey=CIWLISOIRPBFNI-UHFFFAOYSA-N

> <PUBCHEM_SUBSTANCE_SYNONYM>
SCHEMBL16107811

> <PUBCHEM_XREF_EXT_ID>
SCHEMBL16107811

> <PUBCHEM_EXT_DATASOURCE_URL>
https://www.surechembl.org/

> <PUBCHEM_EXT_SUBSTANCE_URL>
https://www.surechembl.org/chemical/SCHEMBL16107811

> <PUBCHEM_CID_ASSOCIATIONS>
78111187  1

> <PUBCHEM_COORDINATE_TYPE>
1
3

$$$$
