310936268
  -OEChem-07211613022D

 22 24  0     1  0  0  0  0  0999 V2000
   -5.2947   -5.3943    0.0000 F   0  0  0  0  0  0  0  0  0  0  0  0
   -4.4329   -1.9046    0.0000 O   0  0  0  0  0  0  0  0  0  0  0  0
   -3.2768   -1.0647    0.0000 O   0  0  0  0  0  0  0  0  0  0  0  0
   -0.5955   -3.0405    0.0000 N   0  0  0  0  0  0  0  0  0  0  0  0
    0.0720   -3.5254    0.0000 N   0  0  0  0  0  0  0  0  0  0  0  0
   -3.3824   -3.2704    0.0000 C   0  0  3  0  0  0  0  0  0  0  0  0
   -3.1275   -2.4858    0.0000 C   0  0  3  0  0  0  0  0  0  0  0  0
   -2.0475   -3.2704    0.0000 C   0  0  0  0  0  0  0  0  0  0  0  0
   -4.1670   -3.5254    0.0000 C   0  0  0  0  0  0  0  0  0  0  0  0
   -2.7150   -3.7554    0.0000 C   0  0  0  0  0  0  0  0  0  0  0  0
   -1.2629   -3.5254    0.0000 C   0  0  0  0  0  0  0  0  0  0  0  0
   -2.3025   -2.4858    0.0000 C   0  0  0  0  0  0  0  0  0  0  0  0
   -4.3385   -4.3323    0.0000 C   0  0  0  0  0  0  0  0  0  0  0  0
   -3.6124   -1.8184    0.0000 C   0  0  0  0  0  0  0  0  0  0  0  0
   -4.7801   -2.9733    0.0000 C   0  0  0  0  0  0  0  0  0  0  0  0
   -5.1232   -4.5873    0.0000 C   0  0  0  0  0  0  0  0  0  0  0  0
   -1.0080   -4.3100    0.0000 C   0  0  0  0  0  0  0  0  0  0  0  0
   -5.5647   -3.2283    0.0000 C   0  0  0  0  0  0  0  0  0  0  0  0
   -0.1830   -4.3100    0.0000 C   0  0  0  0  0  0  0  0  0  0  0  0
   -5.7363   -4.0353    0.0000 C   0  0  0  0  0  0  0  0  0  0  0  0
   -3.7254   -4.8844    0.0000 C   0  0  0  0  0  0  0  0  0  0  0  0
   -0.5955   -2.2155    0.0000 C   0  0  0  0  0  0  0  0  0  0  0  0
  1 16  1  0  0  0  0
  2 14  2  0  0  0  0
  3 14  1  0  0  0  0
  4  5  1  0  0  0  0
  4 11  1  0  0  0  0
  4 22  1  0  0  0  0
  5 19  2  0  0  0  0
  6  7  1  0  0  0  0
  6  9  1  0  0  0  0
  6 10  1  0  0  0  0
  7 12  1  0  0  0  0
  7 14  1  0  0  0  0
  8 10  2  0  0  0  0
  8 11  1  0  0  0  0
  8 12  1  0  0  0  0
  9 13  2  0  0  0  0
  9 15  1  0  0  0  0
 11 17  2  0  0  0  0
 13 16  1  0  0  0  0
 13 21  1  0  0  0  0
 15 18  2  0  0  0  0
 16 20  2  0  0  0  0
 17 19  1  0  0  0  0
 18 20  1  0  0  0  0
M  END
> <PUBCHEM_COMPOUND_ID_TYPE>
0

> <PUBCHEM_TOTAL_CHARGE>
0

> <PUBCHEM_SUBSTANCE_ID>
310936268

> <PUBCHEM_SUBSTANCE_VERSION>
1

> <PUBCHEM_EXT_DATASOURCE_NAME>
4488

> <PUBCHEM_EXT_DATASOURCE_REGID>
SCHEMBL16113887

> <PUBCHEM_SUBSTANCE_COMMENT>
InChI=1S/C17H17FN2O2/c1-10-12(4-3-5-15(10)18)13-8-11(9-14(13)17(21)22)16-6-7-19-20(16)2/h3-8,13-14H,9H2,1-2H3,(H,21,22)
InChIKey=DSQVBQMLOSKQJL-UHFFFAOYSA-N

> <PUBCHEM_SUBSTANCE_SYNONYM>
SCHEMBL16113887

> <PUBCHEM_XREF_EXT_ID>
SCHEMBL16113887

> <PUBCHEM_EXT_DATASOURCE_URL>
https://www.surechembl.org/

> <PUBCHEM_EXT_SUBSTANCE_URL>
https://www.surechembl.org/chemical/SCHEMBL16113887

> <PUBCHEM_CID_ASSOCIATIONS>
117604214  1

> <PUBCHEM_COORDINATE_TYPE>
1
3

$$$$
