310932378
  -OEChem-07211613022D

 30 33  0     1  0  0  0  0  0999 V2000
    2.8474   -2.1197    0.0000 O   0  0  0  0  0  0  0  0  0  0  0  0
    0.1266   -2.3728    0.0000 O   0  0  0  0  0  0  0  0  0  0  0  0
    7.3399   -2.2146    0.0000 O   0  0  0  0  0  0  0  0  0  0  0  0
    8.0359   -2.6259    0.0000 O   0  0  0  0  0  0  0  0  0  0  0  0
    3.7649   -0.9807    0.0000 N   0  0  0  0  0  0  0  0  0  0  0  0
    3.6699   -0.1582    0.0000 N   0  0  0  0  0  0  0  0  0  0  0  0
    5.1886   -0.9807    0.0000 N   0  0  0  0  0  0  0  0  0  0  0  0
    0.0000   -0.9807    0.0000 N   0  0  0  0  0  0  0  0  0  0  0  0
    6.6122   -3.4485    0.0000 N   0  0  0  0  0  0  0  0  0  0  0  0
    2.4361   -0.6960    0.0000 C   0  0  0  0  0  0  0  0  0  0  0  0
    3.0055   -1.2971    0.0000 C   0  0  0  0  0  0  0  0  0  0  0  0
    4.4609   -1.3921    0.0000 C   0  0  0  0  0  0  0  0  0  0  0  0
    1.6135   -0.7909    0.0000 C   0  0  0  0  0  0  0  0  0  0  0  0
    2.8474    0.0000    0.0000 C   0  0  0  0  0  0  0  0  0  0  0  0
    4.4609   -2.2146    0.0000 C   0  0  0  0  0  0  0  0  0  0  0  0
    1.2971   -1.5819    0.0000 C   0  0  0  0  0  0  0  0  0  0  0  0
    5.8846   -2.2146    0.0000 C   0  0  0  0  0  0  0  0  0  0  0  0
    1.1706   -0.1582    0.0000 C   0  0  0  0  0  0  0  0  0  0  0  0
    5.8846   -1.3921    0.0000 C   0  0  0  0  0  0  0  0  0  0  0  0
    5.1886   -2.6259    0.0000 C   0  0  0  0  0  0  0  0  0  0  0  0
    0.4746   -1.6451    0.0000 C   0  0  0  0  0  0  0  0  0  0  0  0
    6.6122   -2.6259    0.0000 C   0  0  0  0  0  0  0  0  0  0  0  0
    0.3164   -0.2215    0.0000 C   0  0  0  0  0  0  0  0  0  0  0  0
    7.3399   -3.8598    0.0000 C   0  0  0  0  0  0  0  0  0  0  0  0
    8.0676   -3.4485    0.0000 C   0  0  3  0  0  0  0  0  0  0  0  0
    8.7636   -3.8598    0.0000 C   0  0  0  0  0  0  0  0  0  0  0  0
    0.6011   -3.0372    0.0000 C   0  0  0  0  0  0  0  0  0  0  0  0
    8.7953   -2.2146    0.0000 C   0  0  0  0  0  0  0  0  0  0  0  0
    9.4913   -3.4801    0.0000 C   0  0  0  0  0  0  0  0  0  0  0  0
    9.4913   -2.6259    0.0000 C   0  0  0  0  0  0  0  0  0  0  0  0
  1 11  1  0  0  0  0
  2 21  1  0  0  0  0
  2 27  1  0  0  0  0
  3 22  2  0  0  0  0
  4 25  1  0  0  0  0
  4 28  1  0  0  0  0
  5  6  1  0  0  0  0
  5 11  1  0  0  0  0
  5 12  1  0  0  0  0
  6 14  2  0  0  0  0
  7 12  2  0  0  0  0
  7 19  1  0  0  0  0
  8 21  1  0  0  0  0
  8 23  2  0  0  0  0
  9 22  1  0  0  0  0
  9 24  1  0  0  0  0
 10 11  2  0  0  0  0
 10 13  1  0  0  0  0
 10 14  1  0  0  0  0
 12 15  1  0  0  0  0
 13 16  1  0  0  0  0
 13 18  2  0  0  0  0
 15 20  2  0  0  0  0
 16 21  2  0  0  0  0
 17 19  2  0  0  0  0
 17 20  1  0  0  0  0
 17 22  1  0  0  0  0
 18 23  1  0  0  0  0
 24 25  1  0  0  0  0
 25 26  1  0  0  0  0
 26 29  1  0  0  0  0
 28 30  1  0  0  0  0
 29 30  1  0  0  0  0
M  END
> <PUBCHEM_COMPOUND_ID_TYPE>
0

> <PUBCHEM_TOTAL_CHARGE>
0

> <PUBCHEM_SUBSTANCE_ID>
310932378

> <PUBCHEM_SUBSTANCE_VERSION>
1

> <PUBCHEM_EXT_DATASOURCE_NAME>
4488

> <PUBCHEM_EXT_DATASOURCE_REGID>
SCHEMBL16109744

> <PUBCHEM_SUBSTANCE_COMMENT>
InChI=1S/C21H23N5O4/c1-29-19-10-14(7-8-22-19)17-13-25-26(21(17)28)18-6-5-15(11-23-18)20(27)24-12-16-4-2-3-9-30-16/h5-8,10-11,13,16,28H,2-4,9,12H2,1H3,(H,24,27)
InChIKey=QTGOQPFNTNEKQE-UHFFFAOYSA-N

> <PUBCHEM_SUBSTANCE_SYNONYM>
SCHEMBL16109744

> <PUBCHEM_XREF_EXT_ID>
SCHEMBL16109744

> <PUBCHEM_EXT_DATASOURCE_URL>
https://www.surechembl.org/

> <PUBCHEM_EXT_SUBSTANCE_URL>
https://www.surechembl.org/chemical/SCHEMBL16109744

> <PUBCHEM_CID_ASSOCIATIONS>
117600933  1

> <PUBCHEM_COORDINATE_TYPE>
1
3

$$$$
