310935134
  -OEChem-07211613022D

 15 16  0     1  0  0  0  0  0999 V2000
    2.5110   -1.3771    0.0000 O   0  0  0  0  0  0  0  0  0  0  0  0
   -0.1710   -0.4197    0.0000 O   0  0  0  0  0  0  0  0  0  0  0  0
    0.5763    0.3930    0.0000 N   0  0  0  0  0  0  0  0  0  0  0  0
    1.0590   -1.1471    0.0000 C   0  0  3  0  0  0  0  0  0  0  0  0
    1.4640   -0.4284    0.0000 C   0  0  0  0  0  0  0  0  0  0  0  0
    1.7264   -1.6320    0.0000 C   0  0  3  0  0  0  0  0  0  0  0  0
    0.6540   -0.4284    0.0000 C   0  0  0  0  0  0  0  0  0  0  0  0
    0.3915   -1.6320    0.0000 C   0  0  0  0  0  0  0  0  0  0  0  0
    1.4715   -2.4167    0.0000 C   0  0  0  0  0  0  0  0  0  0  0  0
    0.6465   -2.4167    0.0000 C   0  0  0  0  0  0  0  0  0  0  0  0
    1.0440    0.2817    0.0000 C   0  0  0  0  0  0  0  0  0  0  0  0
    2.2889   -0.4197    0.0000 C   0  0  0  0  0  0  0  0  0  0  0  0
    1.4490    1.0005    0.0000 C   0  0  0  0  0  0  0  0  0  0  0  0
    2.6939    0.2990    0.0000 C   0  0  0  0  0  0  0  0  0  0  0  0
    2.2740    1.0091    0.0000 C   0  0  0  0  0  0  0  0  0  0  0  0
  1  6  1  0  0  0  0
  2  7  2  0  0  0  0
  3  7  1  0  0  0  0
  4  5  1  0  0  0  0
  4  6  1  0  0  0  0
  4  7  1  0  0  0  0
  4  8  1  0  0  0  0
  5 11  2  0  0  0  0
  5 12  1  0  0  0  0
  6  9  1  0  0  0  0
  8 10  1  0  0  0  0
  9 10  1  0  0  0  0
 11 13  1  0  0  0  0
 12 14  2  0  0  0  0
 13 15  2  0  0  0  0
 14 15  1  0  0  0  0
M  END
> <PUBCHEM_COMPOUND_ID_TYPE>
0

> <PUBCHEM_TOTAL_CHARGE>
0

> <PUBCHEM_SUBSTANCE_ID>
310935134

> <PUBCHEM_SUBSTANCE_VERSION>
1

> <PUBCHEM_EXT_DATASOURCE_NAME>
4488

> <PUBCHEM_EXT_DATASOURCE_REGID>
SCHEMBL16112661

> <PUBCHEM_SUBSTANCE_COMMENT>
InChI=1S/C12H15NO2/c13-11(15)12(8-4-7-10(12)14)9-5-2-1-3-6-9/h1-3,5-6,10,14H,4,7-8H2,(H2,13,15)
InChIKey=PDOALXMOKYSACS-UHFFFAOYSA-N

> <PUBCHEM_SUBSTANCE_SYNONYM>
SCHEMBL16112661

> <PUBCHEM_XREF_EXT_ID>
SCHEMBL16112661

> <PUBCHEM_EXT_DATASOURCE_URL>
https://www.surechembl.org/

> <PUBCHEM_EXT_SUBSTANCE_URL>
https://www.surechembl.org/chemical/SCHEMBL16112661

> <PUBCHEM_CID_ASSOCIATIONS>
117603222  1

> <PUBCHEM_COORDINATE_TYPE>
1
3

$$$$
