310931829
  -OEChem-07211613022D

 31 34  0     1  0  0  0  0  0999 V2000
    4.0182   -2.7448    0.0000 O   0  0  0  0  0  0  0  0  0  0  0  0
    8.4891   -2.8297    0.0000 O   0  0  0  0  0  0  0  0  0  0  0  0
    4.9237   -1.6130    0.0000 N   0  0  0  0  0  0  0  0  0  0  0  0
    4.8388   -0.7923    0.0000 N   0  0  0  0  0  0  0  0  0  0  0  0
    6.3386   -1.6130    0.0000 N   0  0  0  0  0  0  0  0  0  0  0  0
    7.7817   -4.0748    0.0000 N   0  0  0  0  0  0  0  0  0  0  0  0
    5.7726   -4.7539    0.0000 N   0  0  3  0  0  0  0  0  0  0  0  0
    0.0000   -2.4619    0.0000 N   0  0  0  0  0  0  0  0  0  0  0  0
    3.5938   -1.3300    0.0000 C   0  0  0  0  0  0  0  0  0  0  0  0
    4.1880   -1.9525    0.0000 C   0  0  0  0  0  0  0  0  0  0  0  0
    2.8014   -1.4149    0.0000 C   0  0  0  0  0  0  0  0  0  0  0  0
    5.6311   -2.0091    0.0000 C   0  0  0  0  0  0  0  0  0  0  0  0
    4.0182   -0.6225    0.0000 C   0  0  0  0  0  0  0  0  0  0  0  0
    2.2921   -0.7640    0.0000 C   0  0  0  0  0  0  0  0  0  0  0  0
    7.0460   -2.8297    0.0000 C   0  0  0  0  0  0  0  0  0  0  0  0
    5.6311   -2.8297    0.0000 C   0  0  0  0  0  0  0  0  0  0  0  0
    7.7817   -3.2258    0.0000 C   0  0  0  0  0  0  0  0  0  0  0  0
    2.4619   -2.1789    0.0000 C   0  0  0  0  0  0  0  0  0  0  0  0
    7.0460   -2.0091    0.0000 C   0  0  0  0  0  0  0  0  0  0  0  0
    6.3386   -3.2258    0.0000 C   0  0  0  0  0  0  0  0  0  0  0  0
    7.0743   -4.4710    0.0000 C   0  0  3  0  0  0  0  0  0  0  0  0
    1.4714   -0.8772    0.0000 C   0  0  0  0  0  0  0  0  0  0  0  0
    1.1602   -1.6130    0.0000 C   0  0  0  0  0  0  0  0  0  0  0  0
    1.6412   -2.2638    0.0000 C   0  0  0  0  0  0  0  0  0  0  0  0
    6.3102   -4.1314    0.0000 C   0  0  0  0  0  0  0  0  0  0  0  0
    6.9611   -5.2916    0.0000 C   0  0  0  0  0  0  0  0  0  0  0  0
    2.6316    0.0000    0.0000 C   0  0  0  0  0  0  0  0  0  0  0  0
    6.1688   -5.4613    0.0000 C   0  0  0  0  0  0  0  0  0  0  0  0
    8.4891   -4.4710    0.0000 C   0  0  0  0  0  0  0  0  0  0  0  0
    0.3396   -1.6978    0.0000 C   0  0  0  0  0  0  0  0  0  0  0  0
    4.9520   -4.6691    0.0000 C   0  0  0  0  0  0  0  0  0  0  0  0
  1 10  1  0  0  0  0
  2 17  2  0  0  0  0
  3  4  1  0  0  0  0
  3 10  1  0  0  0  0
  3 12  1  0  0  0  0
  4 13  2  0  0  0  0
  5 12  2  0  0  0  0
  5 19  1  0  0  0  0
  6 17  1  0  0  0  0
  6 21  1  0  0  0  0
  6 29  1  0  0  0  0
  7 25  1  0  0  0  0
  7 28  1  0  0  0  0
  7 31  1  0  0  0  0
  8 30  3  0  0  0  0
  9 10  2  0  0  0  0
  9 11  1  0  0  0  0
  9 13  1  0  0  0  0
 11 14  1  0  0  0  0
 11 18  2  0  0  0  0
 12 16  1  0  0  0  0
 14 22  2  0  0  0  0
 14 27  1  0  0  0  0
 15 17  1  0  0  0  0
 15 19  2  0  0  0  0
 15 20  1  0  0  0  0
 16 20  2  0  0  0  0
 18 24  1  0  0  0  0
 21 25  1  0  0  0  0
 21 26  1  0  0  0  0
 22 23  1  0  0  0  0
 23 24  2  0  0  0  0
 23 30  1  0  0  0  0
 26 28  1  0  0  0  0
M  END
> <PUBCHEM_COMPOUND_ID_TYPE>
0

> <PUBCHEM_TOTAL_CHARGE>
0

> <PUBCHEM_SUBSTANCE_ID>
310931829

> <PUBCHEM_SUBSTANCE_VERSION>
1

> <PUBCHEM_EXT_DATASOURCE_NAME>
4488

> <PUBCHEM_EXT_DATASOURCE_REGID>
SCHEMBL16109162

> <PUBCHEM_SUBSTANCE_COMMENT>
InChI=1S/C23H24N6O2/c1-15-10-16(11-24)4-6-19(15)20-13-26-29(23(20)31)21-7-5-17(12-25-21)22(30)28(3)18-8-9-27(2)14-18/h4-7,10,12-13,18,31H,8-9,14H2,1-3H3
InChIKey=OCLGDKFHIPBUHW-UHFFFAOYSA-N

> <PUBCHEM_SUBSTANCE_SYNONYM>
SCHEMBL16109162

> <PUBCHEM_XREF_EXT_ID>
SCHEMBL16109162

> <PUBCHEM_EXT_DATASOURCE_URL>
https://www.surechembl.org/

> <PUBCHEM_EXT_SUBSTANCE_URL>
https://www.surechembl.org/chemical/SCHEMBL16109162

> <PUBCHEM_CID_ASSOCIATIONS>
117600502  1

> <PUBCHEM_COORDINATE_TYPE>
1
3

$$$$
