310947602
  -OEChem-07211613022D

 26 25  0     1  0  0  0  0  0999 V2000
    6.0081   -0.8092    0.0000 P   0  0  0  0  0  0  0  0  0  0  0  0
    4.5005    0.9201    0.0000 O   0  0  0  0  0  0  0  0  0  0  0  0
    6.0745    1.7182    0.0000 O   0  0  0  0  0  0  0  0  0  0  0  0
    6.0081    0.9201    0.0000 N   0  0  0  0  0  0  0  0  0  0  0  0
    5.1877   -0.3436    0.0000 C   0  0  3  0  0  0  0  0  0  0  0  0
    5.2099    0.5210    0.0000 C   0  0  0  0  0  0  0  0  0  0  0  0
    4.5227   -0.7649    0.0000 C   0  0  0  0  0  0  0  0  0  0  0  0
    3.1038   -0.7649    0.0000 C   0  0  0  0  0  0  0  0  0  0  0  0
    3.7910   -0.3657    0.0000 C   0  0  0  0  0  0  0  0  0  0  0  0
    2.3722   -0.3436    0.0000 C   0  0  0  0  0  0  0  0  0  0  0  0
    0.2882   -0.8092    0.0000 C   0  0  0  0  0  0  0  0  0  0  0  0
    1.7292   -0.7870    0.0000 C   0  0  0  0  0  0  0  0  0  0  0  0
    0.9533   -0.3657    0.0000 C   0  0  0  0  0  0  0  0  0  0  0  0
   -2.5717   -0.7870    0.0000 C   0  0  0  0  0  0  0  0  0  0  0  0
   -0.4655   -0.3879    0.0000 C   0  0  0  0  0  0  0  0  0  0  0  0
   -1.8845   -0.3879    0.0000 C   0  0  0  0  0  0  0  0  0  0  0  0
   -1.1750   -0.7870    0.0000 C   0  0  0  0  0  0  0  0  0  0  0  0
    3.1260   -1.6960    0.0000 C   0  0  0  0  0  0  0  0  0  0  0  0
   -3.3255   -0.3879    0.0000 C   0  0  0  0  0  0  0  0  0  0  0  0
   -3.9684   -0.7870    0.0000 C   0  0  0  0  0  0  0  0  0  0  0  0
    0.2882   -1.7182    0.0000 C   0  0  0  0  0  0  0  0  0  0  0  0
   -4.6779   -0.3879    0.0000 C   0  0  0  0  0  0  0  0  0  0  0  0
   -2.5495   -1.6960    0.0000 C   0  0  0  0  0  0  0  0  0  0  0  0
   -5.3872   -0.8092    0.0000 C   0  0  0  0  0  0  0  0  0  0  0  0
   -5.3650   -1.7182    0.0000 C   0  0  0  0  0  0  0  0  0  0  0  0
   -6.0745   -0.3879    0.0000 C   0  0  0  0  0  0  0  0  0  0  0  0
  1  5  1  0  0  0  0
  2  6  2  0  0  0  0
  3  4  2  0  0  0  0
  4  6  1  0  0  0  0
  5  6  1  0  0  0  0
  5  7  1  0  0  0  0
  7  9  1  0  0  0  0
  8  9  2  0  0  0  0
  8 10  1  0  0  0  0
  8 18  1  0  0  0  0
 10 12  1  0  0  0  0
 11 13  2  0  0  0  0
 11 15  1  0  0  0  0
 11 21  1  0  0  0  0
 12 13  1  0  0  0  0
 14 16  2  0  0  0  0
 14 19  1  0  0  0  0
 14 23  1  0  0  0  0
 15 17  1  0  0  0  0
 16 17  1  0  0  0  0
 19 20  1  0  0  0  0
 20 22  1  0  0  0  0
 22 24  1  0  0  0  0
 24 25  1  0  0  0  0
 24 26  1  0  0  0  0
M  END
> <PUBCHEM_COMPOUND_ID_TYPE>
0

> <PUBCHEM_TOTAL_CHARGE>
0

> <PUBCHEM_SUBSTANCE_ID>
310947602

> <PUBCHEM_SUBSTANCE_VERSION>
1

> <PUBCHEM_EXT_DATASOURCE_NAME>
4488

> <PUBCHEM_EXT_DATASOURCE_REGID>
SCHEMBL16125765

> <PUBCHEM_SUBSTANCE_COMMENT>
InChI=1S/C22H38NO2P/c1-17(2)9-6-10-18(3)11-7-12-19(4)13-8-14-20(5)15-16-21(26)22(24)23-25/h11,13,15,17,21H,6-10,12,14,16,26H2,1-5H3/b18-11+,19-13+,20-15+
InChIKey=YDSVPZCNQBPREK-QIRCYJPOSA-N

> <PUBCHEM_SUBSTANCE_SYNONYM>
SCHEMBL16125765

> <PUBCHEM_XREF_EXT_ID>
SCHEMBL16125765

> <PUBCHEM_EXT_DATASOURCE_URL>
https://www.surechembl.org/

> <PUBCHEM_EXT_SUBSTANCE_URL>
https://www.surechembl.org/chemical/SCHEMBL16125765

> <PUBCHEM_CID_ASSOCIATIONS>
117613323  1

> <PUBCHEM_COORDINATE_TYPE>
1
3

$$$$
