310947807
  -OEChem-07211613022D

 27 29  0     1  0  0  0  0  0999 V2000
    3.3504   -2.1326    0.0000 S   0  0  0  0  0  0  0  0  0  0  0  0
    2.5220   -2.1326    0.0000 O   0  0  0  0  0  0  0  0  0  0  0  0
    0.2720   -2.1326    0.0000 O   0  0  0  0  0  0  0  0  0  0  0  0
   -0.0248    1.4650    0.0000 O   0  0  0  0  0  0  0  0  0  0  0  0
    3.7583   -2.8373    0.0000 O   0  0  0  0  0  0  0  0  0  0  0  0
    3.7583   -1.4155    0.0000 O   0  0  0  0  0  0  0  0  0  0  0  0
    4.1787   -2.1326    0.0000 O   0  0  0  0  0  0  0  0  0  0  0  0
   -1.4589    0.6491    0.0000 O   0  0  0  0  0  0  0  0  0  0  0  0
    0.7047   -0.5873    0.0000 N   0  0  0  0  0  0  0  0  0  0  0  0
    2.1388   -1.4155    0.0000 N   0  0  0  0  0  0  0  0  0  0  0  0
   -0.7171    0.2411    0.0000 N   0  0  0  0  0  0  0  0  0  0  0  0
   -3.5358   -0.1422    0.0000 N   0  0  0  0  0  0  0  0  0  0  0  0
   -3.5976    2.8373    0.0000 N   0  0  0  0  0  0  0  0  0  0  0  0
    0.7047   -1.3908    0.0000 C   0  0  0  0  0  0  0  0  0  0  0  0
    2.1140   -0.5996    0.0000 C   0  0  3  0  0  0  0  0  0  0  0  0
    0.7047    0.2287    0.0000 C   0  0  3  0  0  0  0  0  0  0  0  0
    1.4217   -0.9952    0.0000 C   0  0  0  0  0  0  0  0  0  0  0  0
    2.1264    0.2411    0.0000 C   0  0  0  0  0  0  0  0  0  0  0  0
    1.4094    0.6491    0.0000 C   0  0  0  0  0  0  0  0  0  0  0  0
   -0.0618    0.6243    0.0000 C   0  0  0  0  0  0  0  0  0  0  0  0
   -2.9548    0.4636    0.0000 C   0  0  3  0  0  0  0  0  0  0  0  0
   -2.1512    0.2411    0.0000 C   0  0  0  0  0  0  0  0  0  0  0  0
   -3.1649    1.2425    0.0000 C   0  0  0  0  0  0  0  0  0  0  0  0
   -3.9685    1.4650    0.0000 C   0  0  0  0  0  0  0  0  0  0  0  0
   -2.5838    1.8359    0.0000 C   0  0  0  0  0  0  0  0  0  0  0  0
   -4.1787    2.2562    0.0000 C   0  0  0  0  0  0  0  0  0  0  0  0
   -2.7941    2.6148    0.0000 C   0  0  0  0  0  0  0  0  0  0  0  0
  1  2  1  0  0  0  0
  1  5  2  0  0  0  0
  1  6  2  0  0  0  0
  1  7  1  0  0  0  0
  2 10  1  0  0  0  0
  3 14  2  0  0  0  0
  4 20  2  0  0  0  0
  8 11  1  0  0  0  0
  8 22  1  0  0  0  0
  9 14  1  0  0  0  0
  9 16  1  0  0  0  0
  9 17  1  0  0  0  0
 10 14  1  0  0  0  0
 10 15  1  0  0  0  0
 11 20  1  0  0  0  0
 12 21  1  0  0  0  0
 13 26  1  0  0  0  0
 13 27  1  0  0  0  0
 15 17  1  1  0  0  0
 15 18  1  0  0  0  0
 16 19  1  0  0  0  0
 16 20  1  6  0  0  0
 18 19  1  0  0  0  0
 21 22  1  0  0  0  0
 21 23  1  0  0  0  0
 23 24  1  0  0  0  0
 23 25  1  0  0  0  0
 24 26  1  0  0  0  0
 25 27  1  0  0  0  0
M  END
> <PUBCHEM_COMPOUND_ID_TYPE>
0

> <PUBCHEM_TOTAL_CHARGE>
0

> <PUBCHEM_SUBSTANCE_ID>
310947807

> <PUBCHEM_SUBSTANCE_VERSION>
1

> <PUBCHEM_EXT_DATASOURCE_NAME>
4488

> <PUBCHEM_EXT_DATASOURCE_REGID>
SCHEMBL16125979

> <PUBCHEM_SUBSTANCE_COMMENT>
InChI=1S/C14H25N5O7S/c15-11(9-3-5-16-6-4-9)8-25-17-13(20)12-2-1-10-7-18(12)14(21)19(10)26-27(22,23)24/h9-12,16H,1-8,15H2,(H,17,20)(H,22,23,24)/t10-,11?,12+/m1/s1
InChIKey=FALMUOQCIZOTNJ-LWALXPGCSA-N

> <PUBCHEM_SUBSTANCE_SYNONYM>
SCHEMBL16125979

> <PUBCHEM_XREF_EXT_ID>
SCHEMBL16125979

> <PUBCHEM_EXT_DATASOURCE_URL>
https://www.surechembl.org/

> <PUBCHEM_EXT_SUBSTANCE_URL>
https://www.surechembl.org/chemical/SCHEMBL16125979

> <PUBCHEM_CID_ASSOCIATIONS>
86269336  1

> <PUBCHEM_COORDINATE_TYPE>
1
3

> <PUBCHEM_BONDANNOTATIONS>
15  17  5
16  20  6

$$$$
