310943587
  -OEChem-07211613022D

 26 28  0     1  0  0  0  0  0999 V2000
   -2.2728   -0.8108    0.0000 N   0  0  3  0  0  0  0  0  0  0  0  0
   -4.0542   -0.2703    0.0000 N   0  0  3  0  0  0  0  0  0  0  0  0
    2.2114   -1.7077    0.0000 N   0  0  0  0  0  0  0  0  0  0  0  0
    4.8897    0.8723    0.0000 N   0  0  0  0  0  0  0  0  0  0  0  0
    0.6020    0.0245    0.0000 C   0  0  0  0  0  0  0  0  0  0  0  0
    0.6020   -0.7863    0.0000 C   0  0  0  0  0  0  0  0  0  0  0  0
    1.3268    0.4546    0.0000 C   0  0  0  0  0  0  0  0  0  0  0  0
   -0.8354   -0.8108    0.0000 C   0  0  0  0  0  0  0  0  0  0  0  0
   -0.0983   -1.1917    0.0000 C   0  0  0  0  0  0  0  0  0  0  0  0
   -0.1229    0.4300    0.0000 C   0  0  0  0  0  0  0  0  0  0  0  0
   -0.8231    0.0245    0.0000 C   0  0  0  0  0  0  0  0  0  0  0  0
   -1.5480   -1.2040    0.0000 C   0  0  0  0  0  0  0  0  0  0  0  0
    1.3268    1.2654    0.0000 C   0  0  0  0  0  0  0  0  0  0  0  0
    2.0516    0.0492    0.0000 C   0  0  0  0  0  0  0  0  0  0  0  0
    1.4989   -1.3022    0.0000 C   0  0  0  0  0  0  0  0  0  0  0  0
    2.7519    1.2900    0.0000 C   0  0  0  0  0  0  0  0  0  0  0  0
    2.0271    1.6831    0.0000 C   0  0  0  0  0  0  0  0  0  0  0  0
    2.7519    0.4669    0.0000 C   0  0  0  0  0  0  0  0  0  0  0  0
   -2.9362   -1.2654    0.0000 C   0  0  0  0  0  0  0  0  0  0  0  0
   -2.2114    0.0123    0.0000 C   0  0  0  0  0  0  0  0  0  0  0  0
   -3.7470   -1.0320    0.0000 C   0  0  0  0  0  0  0  0  0  0  0  0
    3.4645    1.7077    0.0000 C   0  0  0  0  0  0  0  0  0  0  0  0
   -2.8257    0.5774    0.0000 C   0  0  0  0  0  0  0  0  0  0  0  0
   -3.6365    0.4546    0.0000 C   0  0  0  0  0  0  0  0  0  0  0  0
    4.1771    1.2900    0.0000 C   0  0  0  0  0  0  0  0  0  0  0  0
   -4.8897   -0.2825    0.0000 C   0  0  0  0  0  0  0  0  0  0  0  0
  1 12  1  0  0  0  0
  1 19  1  0  0  0  0
  1 20  1  0  0  0  0
  2 21  1  0  0  0  0
  2 24  1  0  0  0  0
  2 26  1  0  0  0  0
  3 15  3  0  0  0  0
  4 25  3  0  0  0  0
  5  6  1  0  0  0  0
  5  7  1  0  0  0  0
  5 10  2  0  0  0  0
  6  9  2  0  0  0  0
  6 15  1  0  0  0  0
  7 13  2  0  0  0  0
  7 14  1  0  0  0  0
  8  9  1  0  0  0  0
  8 11  2  0  0  0  0
  8 12  1  0  0  0  0
 10 11  1  0  0  0  0
 13 17  1  0  0  0  0
 14 18  2  0  0  0  0
 16 17  2  0  0  0  0
 16 18  1  0  0  0  0
 16 22  1  0  0  0  0
 19 21  1  0  0  0  0
 20 23  1  0  0  0  0
 22 25  1  0  0  0  0
 23 24  1  0  0  0  0
M  END
> <PUBCHEM_COMPOUND_ID_TYPE>
0

> <PUBCHEM_TOTAL_CHARGE>
0

> <PUBCHEM_SUBSTANCE_ID>
310943587

> <PUBCHEM_SUBSTANCE_VERSION>
1

> <PUBCHEM_EXT_DATASOURCE_NAME>
4488

> <PUBCHEM_EXT_DATASOURCE_REGID>
SCHEMBL16121654

> <PUBCHEM_SUBSTANCE_COMMENT>
InChI=1S/C22H24N4/c1-25-11-2-12-26(14-13-25)17-19-5-8-22(21(15-19)16-24)20-6-3-18(4-7-20)9-10-23/h3-8,15H,2,9,11-14,17H2,1H3
InChIKey=VXFFDFOSGRUCSU-UHFFFAOYSA-N

> <PUBCHEM_SUBSTANCE_SYNONYM>
SCHEMBL16121654

> <PUBCHEM_XREF_EXT_ID>
SCHEMBL16121654

> <PUBCHEM_EXT_DATASOURCE_URL>
https://www.surechembl.org/

> <PUBCHEM_EXT_SUBSTANCE_URL>
https://www.surechembl.org/chemical/SCHEMBL16121654

> <PUBCHEM_CID_ASSOCIATIONS>
86302152  1

> <PUBCHEM_COORDINATE_TYPE>
1
3

$$$$
