310938709
  -OEChem-07211613022D

 36 40  0     1  0  0  0  0  0999 V2000
   -4.2831   -1.3034    0.0000 O   0  0  0  0  0  0  0  0  0  0  0  0
    1.0689   -0.2251    0.0000 O   0  0  0  0  0  0  0  0  0  0  0  0
    5.5207   -0.6522    0.0000 O   0  0  0  0  0  0  0  0  0  0  0  0
    4.8062   -1.8898    0.0000 O   0  0  0  0  0  0  0  0  0  0  0  0
   -1.8081   -1.3034    0.0000 N   0  0  0  0  0  0  0  0  0  0  0  0
   -1.3956   -2.0180    0.0000 N   0  0  0  0  0  0  0  0  0  0  0  0
   -0.0855   -1.3504    0.0000 N   0  0  0  0  0  0  0  0  0  0  0  0
   -0.0855   -2.6854    0.0000 N   0  0  0  0  0  0  0  0  0  0  0  0
   -3.0456   -0.5889    0.0000 C   0  0  0  0  0  0  0  0  0  0  0  0
   -2.6331   -1.3034    0.0000 C   0  0  0  0  0  0  0  0  0  0  0  0
   -3.8706   -0.5889    0.0000 C   0  0  0  0  0  0  0  0  0  0  0  0
   -3.8706   -2.0180    0.0000 C   0  0  3  0  0  0  0  0  0  0  0  0
   -3.0456   -2.0180    0.0000 C   0  0  0  0  0  0  0  0  0  0  0  0
   -2.6331    0.1256    0.0000 C   0  0  0  0  0  0  0  0  0  0  0  0
   -4.2831   -2.7325    0.0000 C   0  0  0  0  0  0  0  0  0  0  0  0
   -4.2831    0.1256    0.0000 C   0  0  0  0  0  0  0  0  0  0  0  0
   -3.0456    0.8400    0.0000 C   0  0  0  0  0  0  0  0  0  0  0  0
   -0.5706   -2.0180    0.0000 C   0  0  3  0  0  0  0  0  0  0  0  0
    0.6990   -1.6054    0.0000 C   0  0  0  0  0  0  0  0  0  0  0  0
   -3.8706    0.8400    0.0000 C   0  0  0  0  0  0  0  0  0  0  0  0
    1.2824   -1.0220    0.0000 C   0  0  0  0  0  0  0  0  0  0  0  0
    0.6990   -2.4305    0.0000 C   0  0  0  0  0  0  0  0  0  0  0  0
   -5.1082   -2.7325    0.0000 C   0  0  0  0  0  0  0  0  0  0  0  0
   -3.8706   -3.4469    0.0000 C   0  0  0  0  0  0  0  0  0  0  0  0
    2.6627   -0.6522    0.0000 C   0  0  0  0  0  0  0  0  0  0  0  0
    2.0793   -1.2356    0.0000 C   0  0  0  0  0  0  0  0  0  0  0  0
   -2.6331    1.5545    0.0000 C   0  0  0  0  0  0  0  0  0  0  0  0
    4.0918   -0.6522    0.0000 C   0  0  0  0  0  0  0  0  0  0  0  0
    3.3772   -1.0647    0.0000 C   0  0  0  0  0  0  0  0  0  0  0  0
   -5.5207   -3.4469    0.0000 C   0  0  0  0  0  0  0  0  0  0  0  0
   -4.2831   -4.1614    0.0000 C   0  0  0  0  0  0  0  0  0  0  0  0
    2.6627    0.1728    0.0000 C   0  0  0  0  0  0  0  0  0  0  0  0
   -5.1082   -4.1614    0.0000 C   0  0  0  0  0  0  0  0  0  0  0  0
    4.0918    0.1728    0.0000 C   0  0  0  0  0  0  0  0  0  0  0  0
    4.8062   -1.0647    0.0000 C   0  0  0  0  0  0  0  0  0  0  0  0
    3.3772    0.5853    0.0000 C   0  0  0  0  0  0  0  0  0  0  0  0
  1 11  1  0  0  0  0
  1 12  1  0  0  0  0
  2 21  2  0  0  0  0
  3 35  2  0  0  0  0
  4 35  1  0  0  0  0
  5  6  1  0  0  0  0
  5 10  2  0  0  0  0
  6 18  1  0  0  0  0
  7 18  1  0  0  0  0
  7 19  2  0  0  0  0
  8 18  1  0  0  0  0
  8 22  2  0  0  0  0
  9 10  1  0  0  0  0
  9 11  2  0  0  0  0
  9 14  1  0  0  0  0
 10 13  1  0  0  0  0
 11 16  1  0  0  0  0
 12 13  1  0  0  0  0
 12 15  1  0  0  0  0
 14 17  2  0  0  0  0
 15 23  2  0  0  0  0
 15 24  1  0  0  0  0
 16 20  2  0  0  0  0
 17 20  1  0  0  0  0
 17 27  1  0  0  0  0
 19 21  1  0  0  0  0
 19 22  1  0  0  0  0
 21 26  1  0  0  0  0
 23 30  1  0  0  0  0
 24 31  2  0  0  0  0
 25 26  1  0  0  0  0
 25 29  2  0  0  0  0
 25 32  1  0  0  0  0
 28 29  1  0  0  0  0
 28 34  2  0  0  0  0
 28 35  1  0  0  0  0
 30 33  2  0  0  0  0
 31 33  1  0  0  0  0
 32 36  2  0  0  0  0
 34 36  1  0  0  0  0
M  END
> <PUBCHEM_COMPOUND_ID_TYPE>
0

> <PUBCHEM_TOTAL_CHARGE>
0

> <PUBCHEM_SUBSTANCE_ID>
310938709

> <PUBCHEM_SUBSTANCE_VERSION>
1

> <PUBCHEM_EXT_DATASOURCE_NAME>
4488

> <PUBCHEM_EXT_DATASOURCE_REGID>
SCHEMBL16116623

> <PUBCHEM_SUBSTANCE_COMMENT>
InChI=1S/C28H24N4O4/c1-17-10-11-25-21(12-17)22(15-26(36-25)19-7-3-2-4-8-19)31-32-28-29-16-23(30-28)24(33)14-18-6-5-9-20(13-18)27(34)35/h2-13,16,26,28,32H,14-15H2,1H3,(H,34,35)/b31-22+
InChIKey=YCKYIVNVFDBTOJ-DFKUXCBWSA-N

> <PUBCHEM_SUBSTANCE_SYNONYM>
SCHEMBL16116623

> <PUBCHEM_XREF_EXT_ID>
SCHEMBL16116623

> <PUBCHEM_EXT_DATASOURCE_URL>
https://www.surechembl.org/

> <PUBCHEM_EXT_SUBSTANCE_URL>
https://www.surechembl.org/chemical/SCHEMBL16116623

> <PUBCHEM_CID_ASSOCIATIONS>
117606138  1

> <PUBCHEM_COORDINATE_TYPE>
1
3

$$$$
