310929047
  -OEChem-07211613022D

 60 65  0     1  0  0  0  0  0999 V2000
    1.4558   -0.7280    0.0000 S   0  0  0  0  0  0  0  0  0  0  0  0
    3.7852   -2.1352    0.0000 O   0  0  0  0  0  0  0  0  0  0  0  0
    6.5028   -1.9411    0.0000 O   0  0  0  0  0  0  0  0  0  0  0  0
    2.9117   -4.9014    0.0000 O   0  0  0  0  0  0  0  0  0  0  0  0
    0.9705   -1.5044    0.0000 O   0  0  0  0  0  0  0  0  0  0  0  0
    1.8441    0.0000    0.0000 O   0  0  0  0  0  0  0  0  0  0  0  0
    9.4630   -6.9395    0.0000 O   0  0  0  0  0  0  0  0  0  0  0  0
   10.8703   -3.5911    0.0000 O   0  0  0  0  0  0  0  0  0  0  0  0
   14.5584   -2.3294    0.0000 O   0  0  0  0  0  0  0  0  0  0  0  0
    3.5911   -3.6396    0.0000 N   0  0  0  0  0  0  0  0  0  0  0  0
    2.1838   -1.1162    0.0000 N   0  0  0  0  0  0  0  0  0  0  0  0
    4.3190   -4.9014    0.0000 N   0  0  0  0  0  0  0  0  0  0  0  0
    7.9586   -4.4161    0.0000 N   0  0  0  0  0  0  0  0  0  0  0  0
    8.7350   -3.1543    0.0000 N   0  0  0  0  0  0  0  0  0  0  0  0
   11.5982   -4.8528    0.0000 N   0  0  0  0  0  0  0  0  0  0  0  0
   13.0541   -3.1543    0.0000 N   0  0  3  0  0  0  0  0  0  0  0  0
    2.8631   -3.2029    0.0000 C   0  0  0  0  0  0  0  0  0  0  0  0
    4.3190   -3.2029    0.0000 C   0  0  0  0  0  0  0  0  0  0  0  0
    4.3190   -2.4264    0.0000 C   0  0  0  0  0  0  0  0  0  0  0  0
    2.8631   -2.3779    0.0000 C   0  0  0  0  0  0  0  0  0  0  0  0
    5.0469   -1.9896    0.0000 C   0  0  0  0  0  0  0  0  0  0  0  0
    2.1352   -1.9896    0.0000 C   0  0  0  0  0  0  0  0  0  0  0  0
    1.4558   -3.2514    0.0000 C   0  0  0  0  0  0  0  0  0  0  0  0
    2.1352   -3.6396    0.0000 C   0  0  0  0  0  0  0  0  0  0  0  0
    5.7748   -2.3779    0.0000 C   0  0  0  0  0  0  0  0  0  0  0  0
    3.5911   -4.4646    0.0000 C   0  0  0  0  0  0  0  0  0  0  0  0
    5.0469   -3.6396    0.0000 C   0  0  0  0  0  0  0  0  0  0  0  0
    1.4558   -2.3779    0.0000 C   0  0  0  0  0  0  0  0  0  0  0  0
    0.6794   -3.6396    0.0000 C   0  0  0  0  0  0  0  0  0  0  0  0
    5.7748   -3.2029    0.0000 C   0  0  0  0  0  0  0  0  0  0  0  0
    3.5911   -1.9896    0.0000 C   0  0  0  0  0  0  0  0  0  0  0  0
    5.0469   -1.1646    0.0000 C   0  0  0  0  0  0  0  0  0  0  0  0
    3.5911   -1.1646    0.0000 C   0  0  0  0  0  0  0  0  0  0  0  0
    4.3190   -0.7280    0.0000 C   0  0  0  0  0  0  0  0  0  0  0  0
    7.2307   -2.3779    0.0000 C   0  0  0  0  0  0  0  0  0  0  0  0
    0.2912   -2.9117    0.0000 C   0  0  0  0  0  0  0  0  0  0  0  0
    0.0000   -4.0763    0.0000 C   0  0  0  0  0  0  0  0  0  0  0  0
    1.1162   -4.3675    0.0000 C   0  0  0  0  0  0  0  0  0  0  0  0
    7.2307   -3.2029    0.0000 C   0  0  0  0  0  0  0  0  0  0  0  0
    3.7367   -1.3103    0.0000 C   0  0  0  0  0  0  0  0  0  0  0  0
    7.9586   -3.5911    0.0000 C   0  0  0  0  0  0  0  0  0  0  0  0
    7.9586   -1.9411    0.0000 C   0  0  0  0  0  0  0  0  0  0  0  0
    0.7280   -0.2912    0.0000 C   0  0  0  0  0  0  0  0  0  0  0  0
    8.7350   -4.8528    0.0000 C   0  0  0  0  0  0  0  0  0  0  0  0
    8.6865   -2.3294    0.0000 C   0  0  0  0  0  0  0  0  0  0  0  0
   10.1423   -4.8528    0.0000 C   0  0  0  0  0  0  0  0  0  0  0  0
    9.4630   -4.4161    0.0000 C   0  0  0  0  0  0  0  0  0  0  0  0
    8.7350   -5.6778    0.0000 C   0  0  0  0  0  0  0  0  0  0  0  0
    9.4630   -6.1146    0.0000 C   0  0  0  0  0  0  0  0  0  0  0  0
   10.1423   -5.6778    0.0000 C   0  0  0  0  0  0  0  0  0  0  0  0
   10.8703   -4.4161    0.0000 C   0  0  0  0  0  0  0  0  0  0  0  0
   13.8305   -1.8926    0.0000 C   0  0  0  0  0  0  0  0  0  0  0  0
   13.1026   -2.3294    0.0000 C   0  0  0  0  0  0  0  0  0  0  0  0
   12.3261   -4.4161    0.0000 C   0  0  0  0  0  0  0  0  0  0  0  0
   12.3261   -3.5911    0.0000 C   0  0  0  0  0  0  0  0  0  0  0  0
   13.8305   -3.5911    0.0000 C   0  0  0  0  0  0  0  0  0  0  0  0
   14.5099   -3.1543    0.0000 C   0  0  0  0  0  0  0  0  0  0  0  0
   10.1423   -7.3763    0.0000 C   0  0  0  0  0  0  0  0  0  0  0  0
   13.8305   -1.0676    0.0000 C   0  0  0  0  0  0  0  0  0  0  0  0
   14.5584   -1.5044    0.0000 C   0  0  0  0  0  0  0  0  0  0  0  0
  1  5  2  0  0  0  0
  1  6  2  0  0  0  0
  1 11  1  0  0  0  0
  1 43  1  0  0  0  0
  2 20  1  0  0  0  0
  2 40  1  0  0  0  0
  3 25  1  0  0  0  0
  3 35  1  0  0  0  0
  4 26  2  0  0  0  0
  7 49  1  0  0  0  0
  7 58  1  0  0  0  0
  8 51  2  0  0  0  0
  9 52  1  0  0  0  0
  9 57  1  0  0  0  0
 10 17  1  0  0  0  0
 10 18  1  0  0  0  0
 10 26  1  0  0  0  0
 11 22  1  0  0  0  0
 12 26  1  0  0  0  0
 13 41  1  0  0  0  0
 13 44  1  0  0  0  0
 14 41  2  0  0  0  0
 14 45  1  0  0  0  0
 15 51  1  0  0  0  0
 15 54  1  0  0  0  0
 16 53  1  0  0  0  0
 16 55  1  0  0  0  0
 16 56  1  0  0  0  0
 17 20  1  0  0  0  0
 17 24  2  0  0  0  0
 18 19  1  0  0  0  0
 18 27  2  0  0  0  0
 19 21  2  0  0  0  0
 19 31  1  0  0  0  0
 20 22  2  0  0  0  0
 21 25  1  0  0  0  0
 21 32  1  0  0  0  0
 22 28  1  0  0  0  0
 23 24  1  0  0  0  0
 23 28  2  0  0  0  0
 23 29  1  0  0  0  0
 25 30  2  0  0  0  0
 27 30  1  0  0  0  0
 29 36  1  0  0  0  0
 29 37  1  0  0  0  0
 29 38  1  0  0  0  0
 31 33  2  0  0  0  0
 32 34  2  0  0  0  0
 33 34  1  0  0  0  0
 35 39  2  0  0  0  0
 35 42  1  0  0  0  0
 39 41  1  0  0  0  0
 42 45  2  0  0  0  0
 44 47  1  0  0  0  0
 44 48  2  0  0  0  0
 46 47  2  0  0  0  0
 46 50  1  0  0  0  0
 46 51  1  0  0  0  0
 48 49  1  0  0  0  0
 49 50  2  0  0  0  0
 52 53  1  0  0  0  0
 52 59  1  0  0  0  0
 52 60  1  0  0  0  0
 54 55  1  0  0  0  0
 56 57  1  0  0  0  0
M  END
> <PUBCHEM_COMPOUND_ID_TYPE>
0

> <PUBCHEM_TOTAL_CHARGE>
0

> <PUBCHEM_SUBSTANCE_ID>
310929047

> <PUBCHEM_SUBSTANCE_VERSION>
1

> <PUBCHEM_EXT_DATASOURCE_NAME>
4488

> <PUBCHEM_EXT_DATASOURCE_REGID>
SCHEMBL16106209

> <PUBCHEM_SUBSTANCE_COMMENT>
InChI=1S/C44H53N7O8S/c1-43(2,3)29-23-35(49-60(8,54)55)40(57-7)37(24-29)51(42(45)53)36-13-14-38(34-12-10-9-11-33(34)36)59-31-15-16-46-39(26-31)48-30-21-28(22-32(25-30)56-6)41(52)47-17-18-50-19-20-58-44(4,5)27-50/h9-16,21-26,49H,17-20,27H2,1-8H3,(H2,45,53)(H,46,48)(H,47,52)
InChIKey=PHTIIRXCXALQIA-UHFFFAOYSA-N

> <PUBCHEM_SUBSTANCE_SYNONYM>
SCHEMBL16106209

> <PUBCHEM_XREF_EXT_ID>
SCHEMBL16106209

> <PUBCHEM_EXT_DATASOURCE_URL>
https://www.surechembl.org/

> <PUBCHEM_EXT_SUBSTANCE_URL>
https://www.surechembl.org/chemical/SCHEMBL16106209

> <PUBCHEM_CID_ASSOCIATIONS>
117598561  1

> <PUBCHEM_COORDINATE_TYPE>
1
3

$$$$
