310936013
  -OEChem-07211613022D

 26 27  0     1  0  0  0  0  0999 V2000
    0.8226   -1.4182    0.0000 Cl  0  0  0  0  0  0  0  0  0  0  0  0
    0.0000   -2.8365    0.0000 Cl  0  0  0  0  0  0  0  0  0  0  0  0
    4.4816   -3.5173    0.0000 O   0  0  0  0  0  0  0  0  0  0  0  0
    1.2481   -4.9355    0.0000 O   0  0  0  0  0  0  0  0  0  0  0  0
    5.7297   -1.4182    0.0000 O   0  0  0  0  0  0  0  0  0  0  0  0
    4.4816   -0.7091    0.0000 O   0  0  0  0  0  0  0  0  0  0  0  0
    4.4816   -2.1273    0.0000 N   0  0  0  0  0  0  0  0  0  0  0  0
    3.2619   -5.6446    0.0000 N   0  0  0  0  0  0  0  0  0  0  0  0
    3.2619   -2.8365    0.0000 C   0  0  3  0  0  0  0  0  0  0  0  0
    2.4677   -2.8365    0.0000 C   0  0  0  0  0  0  0  0  0  0  0  0
    3.6874   -3.5173    0.0000 C   0  0  3  0  0  0  0  0  0  0  0  0
    3.2619   -4.2264    0.0000 C   0  0  0  0  0  0  0  0  0  0  0  0
    2.0422   -2.1273    0.0000 C   0  0  0  0  0  0  0  0  0  0  0  0
    1.2481   -2.1273    0.0000 C   0  0  0  0  0  0  0  0  0  0  0  0
    2.0422   -3.5456    0.0000 C   0  0  0  0  0  0  0  0  0  0  0  0
    3.6874   -2.1273    0.0000 C   0  0  0  0  0  0  0  0  0  0  0  0
    0.8226   -2.8365    0.0000 C   0  0  0  0  0  0  0  0  0  0  0  0
    2.4394   -4.2547    0.0000 C   0  0  0  0  0  0  0  0  0  0  0  0
    3.6590   -4.9638    0.0000 C   0  0  0  0  0  0  0  0  0  0  0  0
    1.2481   -3.5456    0.0000 C   0  0  0  0  0  0  0  0  0  0  0  0
    2.0422   -4.9638    0.0000 C   0  0  0  0  0  0  0  0  0  0  0  0
    2.4394   -5.6729    0.0000 C   0  0  0  0  0  0  0  0  0  0  0  0
    4.9071   -1.4182    0.0000 C   0  0  0  0  0  0  0  0  0  0  0  0
    0.8226   -5.6446    0.0000 C   0  0  0  0  0  0  0  0  0  0  0  0
    6.1268   -0.7091    0.0000 C   0  0  0  0  0  0  0  0  0  0  0  0
    5.7013    0.0000    0.0000 C   0  0  0  0  0  0  0  0  0  0  0  0
  1 14  1  0  0  0  0
  2 17  1  0  0  0  0
  3 11  1  0  0  0  0
  4 21  1  0  0  0  0
  4 24  1  0  0  0  0
  5 23  1  0  0  0  0
  5 25  1  0  0  0  0
  6 23  2  0  0  0  0
  7 16  1  0  0  0  0
  7 23  1  0  0  0  0
  8 19  1  0  0  0  0
  8 22  2  0  0  0  0
  9 10  1  0  0  0  0
  9 11  1  0  0  0  0
  9 16  1  0  0  0  0
 10 13  1  0  0  0  0
 10 15  2  0  0  0  0
 11 12  1  0  0  0  0
 12 18  1  0  0  0  0
 12 19  2  0  0  0  0
 13 14  2  0  0  0  0
 14 17  1  0  0  0  0
 15 20  1  0  0  0  0
 17 20  2  0  0  0  0
 18 21  2  0  0  0  0
 21 22  1  0  0  0  0
 25 26  1  0  0  0  0
M  END
> <PUBCHEM_COMPOUND_ID_TYPE>
0

> <PUBCHEM_TOTAL_CHARGE>
0

> <PUBCHEM_SUBSTANCE_ID>
310936013

> <PUBCHEM_SUBSTANCE_VERSION>
1

> <PUBCHEM_EXT_DATASOURCE_NAME>
4488

> <PUBCHEM_EXT_DATASOURCE_REGID>
SCHEMBL16113616

> <PUBCHEM_SUBSTANCE_COMMENT>
InChI=1S/C18H20Cl2N2O4/c1-3-26-18(24)22-10-14(11-4-5-15(19)16(20)7-11)17(23)12-6-13(25-2)9-21-8-12/h4-9,14,17,23H,3,10H2,1-2H3,(H,22,24)
InChIKey=REOXINQLNWHPSK-UHFFFAOYSA-N

> <PUBCHEM_SUBSTANCE_SYNONYM>
SCHEMBL16113616

> <PUBCHEM_XREF_EXT_ID>
SCHEMBL16113616

> <PUBCHEM_EXT_DATASOURCE_URL>
https://www.surechembl.org/

> <PUBCHEM_EXT_SUBSTANCE_URL>
https://www.surechembl.org/chemical/SCHEMBL16113616

> <PUBCHEM_CID_ASSOCIATIONS>
117603982  1

> <PUBCHEM_COORDINATE_TYPE>
1
3

$$$$
