310933219
  -OEChem-07211613022D

 18 20  0     1  0  0  0  0  0999 V2000
    3.2412    0.0000    0.0000 O   0  0  0  0  0  0  0  0  0  0  0  0
    4.3608   -1.9447    0.0000 O   0  0  0  0  0  0  0  0  0  0  0  0
    5.0877   -0.7072    0.0000 O   0  0  0  0  0  0  0  0  0  0  0  0
    0.0000   -2.3572    0.0000 O   0  0  0  0  0  0  0  0  0  0  0  0
    3.6537   -0.7072    0.0000 C   0  0  3  0  0  0  0  0  0  0  0  0
    2.8483   -0.7072    0.0000 C   0  0  3  0  0  0  0  0  0  0  0  0
    4.3608   -1.1197    0.0000 C   0  0  0  0  0  0  0  0  0  0  0  0
    2.1215   -1.1197    0.0000 C   0  0  0  0  0  0  0  0  0  0  0  0
    3.4376   -1.5125    0.0000 C   0  0  0  0  0  0  0  0  0  0  0  0
    2.1215   -1.9447    0.0000 C   0  0  0  0  0  0  0  0  0  0  0  0
    1.4144   -0.7268    0.0000 C   0  0  0  0  0  0  0  0  0  0  0  0
    5.0877   -2.3572    0.0000 C   0  0  0  0  0  0  0  0  0  0  0  0
    1.4144   -2.3572    0.0000 C   0  0  0  0  0  0  0  0  0  0  0  0
    0.7072   -1.1197    0.0000 C   0  0  0  0  0  0  0  0  0  0  0  0
    0.6875   -1.9447    0.0000 C   0  0  0  0  0  0  0  0  0  0  0  0
    5.8931   -2.3572    0.0000 C   0  0  0  0  0  0  0  0  0  0  0  0
    5.5002   -3.0840    0.0000 C   0  0  0  0  0  0  0  0  0  0  0  0
    0.0000   -3.1822    0.0000 C   0  0  0  0  0  0  0  0  0  0  0  0
  1  5  1  0  0  0  0
  1  6  1  0  0  0  0
  2  7  1  0  0  0  0
  2 12  1  0  0  0  0
  3  7  2  0  0  0  0
  4 15  1  0  0  0  0
  4 18  1  0  0  0  0
  5  6  1  0  0  0  0
  5  7  1  0  0  0  0
  5  9  1  0  0  0  0
  6  8  1  0  0  0  0
  8 10  2  0  0  0  0
  8 11  1  0  0  0  0
 10 13  1  0  0  0  0
 11 14  2  0  0  0  0
 12 16  1  0  0  0  0
 12 17  1  0  0  0  0
 13 15  2  0  0  0  0
 14 15  1  0  0  0  0
 16 17  1  0  0  0  0
M  END
> <PUBCHEM_COMPOUND_ID_TYPE>
0

> <PUBCHEM_TOTAL_CHARGE>
0

> <PUBCHEM_SUBSTANCE_ID>
310933219

> <PUBCHEM_SUBSTANCE_VERSION>
1

> <PUBCHEM_EXT_DATASOURCE_NAME>
4488

> <PUBCHEM_EXT_DATASOURCE_REGID>
SCHEMBL16110628

> <PUBCHEM_SUBSTANCE_COMMENT>
InChI=1S/C14H16O4/c1-14(13(15)17-11-7-8-11)12(18-14)9-3-5-10(16-2)6-4-9/h3-6,11-12H,7-8H2,1-2H3
InChIKey=OMHKYAGDDATPFI-UHFFFAOYSA-N

> <PUBCHEM_SUBSTANCE_SYNONYM>
SCHEMBL16110628

> <PUBCHEM_XREF_EXT_ID>
SCHEMBL16110628

> <PUBCHEM_EXT_DATASOURCE_URL>
https://www.surechembl.org/

> <PUBCHEM_EXT_SUBSTANCE_URL>
https://www.surechembl.org/chemical/SCHEMBL16110628

> <PUBCHEM_CID_ASSOCIATIONS>
117601654  1

> <PUBCHEM_COORDINATE_TYPE>
1
3

$$$$
