310933724
  -OEChem-07211613022D

 34 37  0     1  0  0  0  0  0999 V2000
    1.6482   -0.7064    0.0000 Cl  0  0  0  0  0  0  0  0  0  0  0  0
    2.5115   -2.1583    0.0000 S   0  0  0  0  0  0  0  0  0  0  0  0
    4.9446   -4.9838    0.0000 S   0  0  0  0  0  0  0  0  0  0  0  0
    2.5115   -3.0609    0.0000 O   0  0  0  0  0  0  0  0  0  0  0  0
    2.5115   -1.3343    0.0000 O   0  0  0  0  0  0  0  0  0  0  0  0
    4.1989   -5.4155    0.0000 O   0  0  0  0  0  0  0  0  0  0  0  0
    5.6509   -4.5914    0.0000 O   0  0  0  0  0  0  0  0  0  0  0  0
    3.2964   -2.1583    0.0000 N   0  0  3  0  0  0  0  0  0  0  0  0
    4.5129   -4.2774    0.0000 N   0  0  0  0  0  0  0  0  0  0  0  0
    3.2964   -0.7456    0.0000 N   0  0  0  0  0  0  0  0  0  0  0  0
    3.7281   -2.8647    0.0000 C   0  0  0  0  0  0  0  0  0  0  0  0
    1.6874   -2.1583    0.0000 C   0  0  0  0  0  0  0  0  0  0  0  0
    3.7281   -1.4520    0.0000 C   0  0  0  0  0  0  0  0  0  0  0  0
    1.2558   -1.4520    0.0000 C   0  0  0  0  0  0  0  0  0  0  0  0
    3.2964   -3.5711    0.0000 C   0  0  0  0  0  0  0  0  0  0  0  0
    4.5129   -2.8647    0.0000 C   0  0  0  0  0  0  0  0  0  0  0  0
    5.3370   -5.6901    0.0000 C   0  0  0  0  0  0  0  0  0  0  0  0
    3.6888   -4.2774    0.0000 C   0  0  0  0  0  0  0  0  0  0  0  0
    4.9446   -3.5711    0.0000 C   0  0  0  0  0  0  0  0  0  0  0  0
    1.2558   -2.8647    0.0000 C   0  0  0  0  0  0  0  0  0  0  0  0
    4.5521   -1.4520    0.0000 C   0  0  0  0  0  0  0  0  0  0  0  0
    0.4317   -1.4520    0.0000 C   0  0  0  0  0  0  0  0  0  0  0  0
    6.1611   -5.6901    0.0000 C   0  0  0  0  0  0  0  0  0  0  0  0
    4.9053   -6.4358    0.0000 C   0  0  0  0  0  0  0  0  0  0  0  0
    0.4317   -2.8647    0.0000 C   0  0  0  0  0  0  0  0  0  0  0  0
    0.0000   -2.1583    0.0000 C   0  0  0  0  0  0  0  0  0  0  0  0
    3.6888    0.0000    0.0000 C   0  0  0  0  0  0  0  0  0  0  0  0
    4.9053   -0.7064    0.0000 C   0  0  0  0  0  0  0  0  0  0  0  0
    6.1611   -7.1421    0.0000 C   0  0  0  0  0  0  0  0  0  0  0  0
    6.5535   -6.3965    0.0000 C   0  0  0  0  0  0  0  0  0  0  0  0
    5.3370   -7.1421    0.0000 C   0  0  0  0  0  0  0  0  0  0  0  0
    4.5129    0.0000    0.0000 C   0  0  0  0  0  0  0  0  0  0  0  0
    6.5535   -7.8485    0.0000 C   0  0  0  0  0  0  0  0  0  0  0  0
    7.4169   -7.8485    0.0000 C   0  0  0  0  0  0  0  0  0  0  0  0
  1 14  1  0  0  0  0
  2  4  2  0  0  0  0
  2  5  2  0  0  0  0
  2  8  1  0  0  0  0
  2 12  1  0  0  0  0
  3  6  2  0  0  0  0
  3  7  2  0  0  0  0
  3  9  1  0  0  0  0
  3 17  1  0  0  0  0
  8 11  1  0  0  0  0
  8 13  1  0  0  0  0
  9 18  1  0  0  0  0
  9 19  1  0  0  0  0
 10 13  1  0  0  0  0
 10 27  2  0  0  0  0
 11 15  1  0  0  0  0
 11 16  1  0  0  0  0
 12 14  1  0  0  0  0
 12 20  2  0  0  0  0
 13 21  2  0  0  0  0
 14 22  2  0  0  0  0
 15 18  1  0  0  0  0
 16 19  1  0  0  0  0
 17 23  2  0  0  0  0
 17 24  1  0  0  0  0
 20 25  1  0  0  0  0
 21 28  1  0  0  0  0
 22 26  1  0  0  0  0
 23 30  1  0  0  0  0
 24 31  2  0  0  0  0
 25 26  2  0  0  0  0
 27 32  1  0  0  0  0
 28 32  2  0  0  0  0
 29 30  2  0  0  0  0
 29 31  1  0  0  0  0
 29 33  1  0  0  0  0
 33 34  1  0  0  0  0
M  END
> <PUBCHEM_COMPOUND_ID_TYPE>
0

> <PUBCHEM_TOTAL_CHARGE>
0

> <PUBCHEM_SUBSTANCE_ID>
310933724

> <PUBCHEM_SUBSTANCE_VERSION>
1

> <PUBCHEM_EXT_DATASOURCE_NAME>
4488

> <PUBCHEM_EXT_DATASOURCE_REGID>
SCHEMBL16111159

> <PUBCHEM_SUBSTANCE_COMMENT>
InChI=1S/C24H26ClN3O4S2/c1-2-19-10-12-21(13-11-19)33(29,30)27-17-14-20(15-18-27)28(24-9-5-6-16-26-24)34(31,32)23-8-4-3-7-22(23)25/h3-13,16,20H,2,14-15,17-18H2,1H3
InChIKey=BQTPXOSKBCVNHW-UHFFFAOYSA-N

> <PUBCHEM_SUBSTANCE_SYNONYM>
SCHEMBL16111159

> <PUBCHEM_XREF_EXT_ID>
SCHEMBL16111159

> <PUBCHEM_EXT_DATASOURCE_URL>
https://www.surechembl.org/

> <PUBCHEM_EXT_SUBSTANCE_URL>
https://www.surechembl.org/chemical/SCHEMBL16111159

> <PUBCHEM_CID_ASSOCIATIONS>
86273832  1

> <PUBCHEM_COORDINATE_TYPE>
1
3

$$$$
