310934715
  -OEChem-07211613022D

 39 44  0     1  0  0  0  0  0999 V2000
    2.9003   -7.0739    0.0000 O   0  0  0  0  0  0  0  0  0  0  0  0
    5.9775   -3.9260    0.0000 O   0  0  0  0  0  0  0  0  0  0  0  0
    0.7428   -3.3247    0.0000 N   0  0  3  0  0  0  0  0  0  0  0  0
    0.0000   -2.0868    0.0000 N   0  0  0  0  0  0  0  0  0  0  0  0
    0.7428   -0.8488    0.0000 N   0  0  0  0  0  0  0  0  0  0  0  0
    3.6077   -5.8006    0.0000 N   0  0  0  0  0  0  0  0  0  0  0  0
    5.0579   -2.5113    0.0000 N   0  0  0  0  0  0  0  0  0  0  0  0
    5.0579   -4.9871    0.0000 N   0  0  0  0  0  0  0  0  0  0  0  0
    1.4502   -2.0868    0.0000 C   0  0  0  0  0  0  0  0  0  0  0  0
    0.7428   -2.5113    0.0000 C   0  0  0  0  0  0  0  0  0  0  0  0
    1.4502   -1.2379    0.0000 C   0  0  0  0  0  0  0  0  0  0  0  0
    2.8649   -2.0868    0.0000 C   0  0  0  0  0  0  0  0  0  0  0  0
    2.1575   -0.8488    0.0000 C   0  0  0  0  0  0  0  0  0  0  0  0
    2.1575   -2.5113    0.0000 C   0  0  0  0  0  0  0  0  0  0  0  0
    1.4502   -4.5980    0.0000 C   0  0  0  0  0  0  0  0  0  0  0  0
    0.7428   -5.0225    0.0000 C   0  0  0  0  0  0  0  0  0  0  0  0
    1.4502   -3.7492    0.0000 C   0  0  0  0  0  0  0  0  0  0  0  0
    2.8649   -1.2379    0.0000 C   0  0  0  0  0  0  0  0  0  0  0  0
    0.0353   -3.7492    0.0000 C   0  0  0  0  0  0  0  0  0  0  0  0
    3.6077   -2.5113    0.0000 C   0  0  0  0  0  0  0  0  0  0  0  0
    2.1929   -5.8006    0.0000 C   0  0  0  0  0  0  0  0  0  0  0  0
    2.1575   -4.9871    0.0000 C   0  0  0  0  0  0  0  0  0  0  0  0
    0.0353   -4.5980    0.0000 C   0  0  0  0  0  0  0  0  0  0  0  0
    0.0000   -1.2379    0.0000 C   0  0  0  0  0  0  0  0  0  0  0  0
    0.7428   -5.8006    0.0000 C   0  0  0  0  0  0  0  0  0  0  0  0
    2.9003   -6.2251    0.0000 C   0  0  0  0  0  0  0  0  0  0  0  0
    1.4502   -6.2251    0.0000 C   0  0  0  0  0  0  0  0  0  0  0  0
    2.1575    0.0000    0.0000 C   0  0  0  0  0  0  0  0  0  0  0  0
    4.3505   -2.0868    0.0000 C   0  0  0  0  0  0  0  0  0  0  0  0
    3.6430   -3.3247    0.0000 C   0  0  0  0  0  0  0  0  0  0  0  0
    4.3505   -3.7492    0.0000 C   0  0  0  0  0  0  0  0  0  0  0  0
    5.0932   -3.3601    0.0000 C   0  0  0  0  0  0  0  0  0  0  0  0
    4.3505   -6.2604    0.0000 C   0  0  0  0  0  0  0  0  0  0  0  0
    3.6077   -4.9871    0.0000 C   0  0  0  0  0  0  0  0  0  0  0  0
    4.3505   -4.5627    0.0000 C   0  0  0  0  0  0  0  0  0  0  0  0
    5.0579   -5.8360    0.0000 C   0  0  0  0  0  0  0  0  0  0  0  0
    5.8006   -4.5627    0.0000 C   0  0  0  0  0  0  0  0  0  0  0  0
    6.5080   -3.3247    0.0000 C   0  0  0  0  0  0  0  0  0  0  0  0
    5.8006   -3.7492    0.0000 C   0  0  0  0  0  0  0  0  0  0  0  0
  1 26  2  0  0  0  0
  2 32  1  0  0  0  0
  2 38  1  0  0  0  0
  3 10  1  0  0  0  0
  3 17  1  0  0  0  0
  3 19  1  0  0  0  0
  4 10  1  0  0  0  0
  4 24  2  0  0  0  0
  5 11  2  0  0  0  0
  5 24  1  0  0  0  0
  6 26  1  0  0  0  0
  6 33  1  0  0  0  0
  6 34  1  0  0  0  0
  7 29  1  0  0  0  0
  7 32  2  0  0  0  0
  8 35  1  0  0  0  0
  8 36  1  0  0  0  0
  8 37  1  0  0  0  0
  9 10  2  0  0  0  0
  9 11  1  0  0  0  0
  9 14  1  0  0  0  0
 11 13  1  0  0  0  0
 12 14  2  0  0  0  0
 12 18  1  0  0  0  0
 12 20  1  0  0  0  0
 13 18  2  0  0  0  0
 13 28  1  0  0  0  0
 15 16  2  0  0  0  0
 15 17  1  0  0  0  0
 15 22  1  0  0  0  0
 16 23  1  0  0  0  0
 16 25  1  0  0  0  0
 19 23  1  0  0  0  0
 20 29  2  0  0  0  0
 20 30  1  0  0  0  0
 21 22  2  0  0  0  0
 21 26  1  0  0  0  0
 21 27  1  0  0  0  0
 25 27  2  0  0  0  0
 30 31  2  0  0  0  0
 31 32  1  0  0  0  0
 33 36  1  0  0  0  0
 34 35  1  0  0  0  0
 37 39  1  0  0  0  0
M  END
> <PUBCHEM_COMPOUND_ID_TYPE>
0

> <PUBCHEM_TOTAL_CHARGE>
0

> <PUBCHEM_SUBSTANCE_ID>
310934715

> <PUBCHEM_SUBSTANCE_VERSION>
1

> <PUBCHEM_EXT_DATASOURCE_NAME>
4488

> <PUBCHEM_EXT_DATASOURCE_REGID>
SCHEMBL16112216

> <PUBCHEM_SUBSTANCE_COMMENT>
InChI=1S/C31H34N6O2/c1-4-35-11-13-36(14-12-35)31(38)23-6-5-22-9-10-37(19-26(22)16-23)30-27-17-25(15-21(2)29(27)33-20-34-30)24-7-8-28(39-3)32-18-24/h5-8,15-18,20H,4,9-14,19H2,1-3H3
InChIKey=PAIKFYXOSMGZLI-UHFFFAOYSA-N

> <PUBCHEM_SUBSTANCE_SYNONYM>
SCHEMBL16112216

> <PUBCHEM_XREF_EXT_ID>
SCHEMBL16112216

> <PUBCHEM_EXT_DATASOURCE_URL>
https://www.surechembl.org/

> <PUBCHEM_EXT_SUBSTANCE_URL>
https://www.surechembl.org/chemical/SCHEMBL16112216

> <PUBCHEM_CID_ASSOCIATIONS>
117602874  1

> <PUBCHEM_COORDINATE_TYPE>
1
3

$$$$
