310947226
  -OEChem-07211613022D

 29 31  0     1  0  0  0  0  0999 V2000
   -0.3160   -5.3734    0.0000 F   0  0  0  0  0  0  0  0  0  0  0  0
    0.6944   -6.3838    0.0000 F   0  0  0  0  0  0  0  0  0  0  0  0
    0.4809   -5.5869    0.0000 F   0  0  0  0  0  0  0  0  0  0  0  0
   -1.6962   -5.7432    0.0000 O   0  0  0  0  0  0  0  0  0  0  0  0
   -0.0575  -10.0107    0.0000 N   0  0  0  0  0  0  0  0  0  0  0  0
   -0.8421  -10.2657    0.0000 N   0  0  0  0  0  0  0  0  0  0  0  0
    1.3714   -9.1857    0.0000 N   0  0  3  0  0  0  0  0  0  0  0  0
   -1.0557   -8.1339    0.0000 C   0  0  0  0  0  0  0  0  0  0  0  0
   -0.6858   -6.7536    0.0000 C   0  0  0  0  0  0  0  0  0  0  0  0
   -0.8421   -8.9308    0.0000 C   0  0  0  0  0  0  0  0  0  0  0  0
   -1.4827   -6.5401    0.0000 C   0  0  0  0  0  0  0  0  0  0  0  0
   -1.8526   -7.9204    0.0000 C   0  0  0  0  0  0  0  0  0  0  0  0
   -0.4723   -7.5505    0.0000 C   0  0  0  0  0  0  0  0  0  0  0  0
   -0.1025   -6.1703    0.0000 C   0  0  0  0  0  0  0  0  0  0  0  0
   -2.0661   -7.1235    0.0000 C   0  0  0  0  0  0  0  0  0  0  0  0
   -0.0575   -9.1857    0.0000 C   0  0  0  0  0  0  0  0  0  0  0  0
   -1.3271   -9.5982    0.0000 C   0  0  0  0  0  0  0  0  0  0  0  0
    0.6570   -8.7732    0.0000 C   0  0  0  0  0  0  0  0  0  0  0  0
   -2.4931   -5.5297    0.0000 C   0  0  0  0  0  0  0  0  0  0  0  0
   -2.4359   -8.5037    0.0000 C   0  0  0  0  0  0  0  0  0  0  0  0
   -3.0765   -6.1131    0.0000 C   0  0  0  0  0  0  0  0  0  0  0  0
   -2.7067   -4.7328    0.0000 C   0  0  0  0  0  0  0  0  0  0  0  0
    2.0859   -8.7732    0.0000 C   0  0  0  0  0  0  0  0  0  0  0  0
   -3.8734   -5.8995    0.0000 C   0  0  0  0  0  0  0  0  0  0  0  0
   -3.5035   -4.5193    0.0000 C   0  0  0  0  0  0  0  0  0  0  0  0
   -4.0869   -5.1027    0.0000 C   0  0  0  0  0  0  0  0  0  0  0  0
    1.3714  -10.0107    0.0000 C   0  0  0  0  0  0  0  0  0  0  0  0
    2.8004   -9.1857    0.0000 C   0  0  0  0  0  0  0  0  0  0  0  0
    3.5148   -8.7732    0.0000 C   0  0  0  0  0  0  0  0  0  0  0  0
  1 14  1  0  0  0  0
  2 14  1  0  0  0  0
  3 14  1  0  0  0  0
  4 11  1  0  0  0  0
  4 19  1  0  0  0  0
  5  6  1  0  0  0  0
  5 16  2  0  0  0  0
  6 17  1  0  0  0  0
  7 18  1  0  0  0  0
  7 23  1  0  0  0  0
  7 27  1  0  0  0  0
  8 10  1  0  0  0  0
  8 12  2  0  0  0  0
  8 13  1  0  0  0  0
  9 11  1  0  0  0  0
  9 13  2  0  0  0  0
  9 14  1  0  0  0  0
 10 16  1  0  0  0  0
 10 17  2  0  0  0  0
 11 15  2  0  0  0  0
 12 15  1  0  0  0  0
 12 20  1  0  0  0  0
 16 18  1  0  0  0  0
 19 21  2  0  0  0  0
 19 22  1  0  0  0  0
 21 24  1  0  0  0  0
 22 25  2  0  0  0  0
 23 28  1  0  0  0  0
 24 26  2  0  0  0  0
 25 26  1  0  0  0  0
 28 29  1  0  0  0  0
M  END
> <PUBCHEM_COMPOUND_ID_TYPE>
0

> <PUBCHEM_TOTAL_CHARGE>
0

> <PUBCHEM_SUBSTANCE_ID>
310947226

> <PUBCHEM_SUBSTANCE_VERSION>
1

> <PUBCHEM_EXT_DATASOURCE_NAME>
4488

> <PUBCHEM_EXT_DATASOURCE_REGID>
SCHEMBL16125381

> <PUBCHEM_SUBSTANCE_COMMENT>
InChI=1S/C22H24F3N3O/c1-4-10-28(3)14-20-18(13-26-27-20)17-12-19(22(23,24)25)21(11-15(17)2)29-16-8-6-5-7-9-16/h5-9,11-13H,4,10,14H2,1-3H3,(H,26,27)
InChIKey=AFRRGIZARLPRGJ-UHFFFAOYSA-N

> <PUBCHEM_SUBSTANCE_SYNONYM>
SCHEMBL16125381

> <PUBCHEM_XREF_EXT_ID>
SCHEMBL16125381

> <PUBCHEM_EXT_DATASOURCE_URL>
https://www.surechembl.org/

> <PUBCHEM_EXT_SUBSTANCE_URL>
https://www.surechembl.org/chemical/SCHEMBL16125381

> <PUBCHEM_CID_ASSOCIATIONS>
117613041  1

> <PUBCHEM_COORDINATE_TYPE>
1
3

$$$$
