310941521
  -OEChem-07211613022D

 31 35  0     1  0  0  0  0  0999 V2000
   -2.6317    2.1285    0.0000 Br  0  0  0  0  0  0  0  0  0  0  0  0
   -2.1533   -2.2440    0.0000 O   0  0  0  0  0  0  0  0  0  0  0  0
   -0.0083    1.3695    0.0000 O   0  0  0  0  0  0  0  0  0  0  0  0
   -0.6023   -1.4685    0.0000 N   0  0  0  0  0  0  0  0  0  0  0  0
   -3.1927   -1.2210    0.0000 N   0  0  0  0  0  0  0  0  0  0  0  0
   -0.8662    0.6270    0.0000 N   0  0  0  0  0  0  0  0  0  0  0  0
    2.1698    1.6335    0.0000 N   0  0  3  0  0  0  0  0  0  0  0  0
    3.7868    1.3035    0.0000 N   0  0  0  0  0  0  0  0  0  0  0  0
   -1.9222   -0.7920    0.0000 C   0  0  0  0  0  0  0  0  0  0  0  0
   -1.0973   -0.8085    0.0000 C   0  0  0  0  0  0  0  0  0  0  0  0
   -2.4172   -0.1320    0.0000 C   0  0  0  0  0  0  0  0  0  0  0  0
   -0.6023   -0.1320    0.0000 C   0  0  0  0  0  0  0  0  0  0  0  0
    0.1898   -0.3960    0.0000 C   0  0  0  0  0  0  0  0  0  0  0  0
   -2.4172   -1.4520    0.0000 C   0  0  0  0  0  0  0  0  0  0  0  0
   -3.1927   -0.3795    0.0000 C   0  0  0  0  0  0  0  0  0  0  0  0
    0.1732   -1.2210    0.0000 C   0  0  0  0  0  0  0  0  0  0  0  0
   -2.2357    0.6435    0.0000 C   0  0  0  0  0  0  0  0  0  0  0  0
   -3.7868    0.1485    0.0000 C   0  0  0  0  0  0  0  0  0  0  0  0
    0.8827    0.0000    0.0000 C   0  0  0  0  0  0  0  0  0  0  0  0
    0.8993   -1.6170    0.0000 C   0  0  0  0  0  0  0  0  0  0  0  0
   -2.8462    1.2045    0.0000 C   0  0  0  0  0  0  0  0  0  0  0  0
   -3.6218    0.9570    0.0000 C   0  0  0  0  0  0  0  0  0  0  0  0
    1.6087   -0.4125    0.0000 C   0  0  0  0  0  0  0  0  0  0  0  0
    1.6087   -1.2210    0.0000 C   0  0  0  0  0  0  0  0  0  0  0  0
    0.8167    1.2045    0.0000 C   0  0  0  0  0  0  0  0  0  0  0  0
    1.3612    1.8150    0.0000 C   0  0  0  0  0  0  0  0  0  0  0  0
    2.4172    0.8745    0.0000 C   0  0  0  0  0  0  0  0  0  0  0  0
    2.7308    2.2440    0.0000 C   0  0  0  0  0  0  0  0  0  0  0  0
    3.2257    0.6930    0.0000 C   0  0  3  0  0  0  0  0  0  0  0  0
    3.5227    2.0790    0.0000 C   0  0  0  0  0  0  0  0  0  0  0  0
    3.5062   -0.0825    0.0000 C   0  0  0  0  0  0  0  0  0  0  0  0
  1 21  1  0  0  0  0
  2 14  2  0  0  0  0
  3  6  1  0  0  0  0
  3 25  1  0  0  0  0
  4 10  1  0  0  0  0
  4 16  1  0  0  0  0
  5 14  1  0  0  0  0
  5 15  1  0  0  0  0
  6 12  2  0  0  0  0
  7 26  1  0  0  0  0
  7 27  1  0  0  0  0
  7 28  1  0  0  0  0
  8 29  1  0  0  0  0
  8 30  1  0  0  0  0
  9 10  2  0  0  0  0
  9 11  1  0  0  0  0
  9 14  1  0  0  0  0
 10 12  1  0  0  0  0
 11 15  2  0  0  0  0
 11 17  1  0  0  0  0
 12 13  1  0  0  0  0
 13 16  2  0  0  0  0
 13 19  1  0  0  0  0
 15 18  1  0  0  0  0
 16 20  1  0  0  0  0
 17 21  2  0  0  0  0
 18 22  2  0  0  0  0
 19 23  2  0  0  0  0
 20 24  2  0  0  0  0
 21 22  1  0  0  0  0
 23 24  1  0  0  0  0
 25 26  1  0  0  0  0
 27 29  1  0  0  0  0
 28 30  1  0  0  0  0
 29 31  1  0  0  0  0
M  END
> <PUBCHEM_COMPOUND_ID_TYPE>
0

> <PUBCHEM_TOTAL_CHARGE>
0

> <PUBCHEM_SUBSTANCE_ID>
310941521

> <PUBCHEM_SUBSTANCE_VERSION>
1

> <PUBCHEM_EXT_DATASOURCE_NAME>
4488

> <PUBCHEM_EXT_DATASOURCE_REGID>
SCHEMBL16119552

> <PUBCHEM_SUBSTANCE_COMMENT>
InChI=1S/C23H24BrN5O2/c1-14-13-29(9-8-25-14)10-11-31-28-21-16-4-2-3-5-18(16)26-22(21)20-17-12-15(24)6-7-19(17)27-23(20)30/h2-7,12,14,25-26H,8-11,13H2,1H3,(H,27,30)/b22-20-,28-21+
InChIKey=GBBXKOBBZZLXKO-NXGRKYSHSA-N

> <PUBCHEM_SUBSTANCE_SYNONYM>
SCHEMBL16119552

> <PUBCHEM_XREF_EXT_ID>
SCHEMBL16119552

> <PUBCHEM_EXT_DATASOURCE_URL>
https://www.surechembl.org/

> <PUBCHEM_EXT_SUBSTANCE_URL>
https://www.surechembl.org/chemical/SCHEMBL16119552

> <PUBCHEM_CID_ASSOCIATIONS>
117608336  1

> <PUBCHEM_COORDINATE_TYPE>
1
3

$$$$
