310932384
  -OEChem-07211613022D

 15 16  0     1  0  0  0  0  0999 V2000
    0.4267    0.0000    0.0000 O   0  0  0  0  0  0  0  0  0  0  0  0
    1.5361   -1.9629    0.0000 O   0  0  0  0  0  0  0  0  0  0  0  0
    2.2473   -0.7396    0.0000 O   0  0  0  0  0  0  0  0  0  0  0  0
    0.0000   -0.7396    0.0000 C   0  0  0  0  0  0  0  0  0  0  0  0
    0.8250   -0.7396    0.0000 C   0  0  3  0  0  0  0  0  0  0  0  0
    0.7396   -1.1379    0.0000 C   0  0  0  0  0  0  0  0  0  0  0  0
    2.1620   -1.1379    0.0000 C   0  0  0  0  0  0  0  0  0  0  0  0
    1.5361   -1.1379    0.0000 C   0  0  0  0  0  0  0  0  0  0  0  0
    1.4508   -0.7396    0.0000 C   0  0  0  0  0  0  0  0  0  0  0  0
    2.2473   -2.3896    0.0000 C   0  0  0  0  0  0  0  0  0  0  0  0
    2.2758   -3.2146    0.0000 C   0  0  0  0  0  0  0  0  0  0  0  0
    2.9870   -3.6128    0.0000 C   0  0  0  0  0  0  0  0  0  0  0  0
    2.9870   -4.4663    0.0000 C   0  0  0  0  0  0  0  0  0  0  0  0
    3.7266   -4.8645    0.0000 C   0  0  0  0  0  0  0  0  0  0  0  0
    3.7266   -5.6895    0.0000 C   0  0  0  0  0  0  0  0  0  0  0  0
  1  4  1  0  0  0  0
  1  5  1  0  0  0  0
  2  8  1  0  0  0  0
  2 10  1  0  0  0  0
  3  8  2  0  0  0  0
  4  5  1  0  0  0  0
  4  6  1  0  0  0  0
  4  7  1  0  0  0  0
  5  8  1  0  0  0  0
  6  9  1  0  0  0  0
  7  9  1  0  0  0  0
 10 11  1  0  0  0  0
 11 12  1  0  0  0  0
 12 13  1  0  0  0  0
 13 14  1  0  0  0  0
 14 15  1  0  0  0  0
M  END
> <PUBCHEM_COMPOUND_ID_TYPE>
0

> <PUBCHEM_TOTAL_CHARGE>
0

> <PUBCHEM_SUBSTANCE_ID>
310932384

> <PUBCHEM_SUBSTANCE_VERSION>
1

> <PUBCHEM_EXT_DATASOURCE_NAME>
4488

> <PUBCHEM_EXT_DATASOURCE_REGID>
SCHEMBL16109750

> <PUBCHEM_SUBSTANCE_COMMENT>
InChI=1S/C12H20O3/c1-2-3-4-5-9-14-11(13)10-12(15-10)7-6-8-12/h10H,2-9H2,1H3
InChIKey=FYQDNGBGZDTISV-UHFFFAOYSA-N

> <PUBCHEM_SUBSTANCE_SYNONYM>
SCHEMBL16109750

> <PUBCHEM_XREF_EXT_ID>
SCHEMBL16109750

> <PUBCHEM_EXT_DATASOURCE_URL>
https://www.surechembl.org/

> <PUBCHEM_EXT_SUBSTANCE_URL>
https://www.surechembl.org/chemical/SCHEMBL16109750

> <PUBCHEM_CID_ASSOCIATIONS>
117600939  1

> <PUBCHEM_COORDINATE_TYPE>
1
3

$$$$
