310940570
  -OEChem-07211613022D

 11 11  0     1  0  0  0  0  0999 V2000
   -0.2151    1.0756    0.0000 N   0  0  0  0  0  0  0  0  0  0  0  0
    0.3325    0.4498    0.0000 C   0  0  3  0  0  0  0  0  0  0  0  0
   -0.0782   -0.3128    0.0000 C   0  0  3  0  0  0  0  0  0  0  0  0
    1.2124    0.3911    0.0000 C   0  0  0  0  0  0  0  0  0  0  0  0
    0.3715   -1.0756    0.0000 C   0  0  0  0  0  0  0  0  0  0  0  0
   -0.9973    0.6844    0.0000 C   0  0  0  0  0  0  0  0  0  0  0  0
    1.6231   -0.3520    0.0000 C   0  0  0  0  0  0  0  0  0  0  0  0
    1.1929   -1.0560    0.0000 C   0  0  0  0  0  0  0  0  0  0  0  0
   -0.6844   -0.1955    0.0000 C   0  0  0  0  0  0  0  0  0  0  0  0
   -1.6231    1.0560    0.0000 C   0  0  0  0  0  0  0  0  0  0  0  0
   -0.9191    0.0587    0.0000 C   0  0  0  0  0  0  0  0  0  0  0  0
  1  2  1  0  0  0  0
  1  6  1  0  0  0  0
  2  3  1  0  0  0  0
  2  4  1  0  0  0  0
  3  5  1  0  0  0  0
  3  9  1  0  0  0  0
  4  7  1  0  0  0  0
  5  8  2  0  0  0  0
  6 10  1  0  0  0  0
  6 11  1  0  0  0  0
  7  8  1  0  0  0  0
M  END
> <PUBCHEM_COMPOUND_ID_TYPE>
0

> <PUBCHEM_TOTAL_CHARGE>
0

> <PUBCHEM_SUBSTANCE_ID>
310940570

> <PUBCHEM_SUBSTANCE_VERSION>
1

> <PUBCHEM_EXT_DATASOURCE_NAME>
4488

> <PUBCHEM_EXT_DATASOURCE_REGID>
SCHEMBL16118524

> <PUBCHEM_SUBSTANCE_COMMENT>
InChI=1S/C10H19N/c1-8(2)11-10-7-5-4-6-9(10)3/h4,6,8-11H,5,7H2,1-3H3
InChIKey=MFNVKZRFYINVJX-UHFFFAOYSA-N

> <PUBCHEM_SUBSTANCE_SYNONYM>
SCHEMBL16118524

> <PUBCHEM_XREF_EXT_ID>
SCHEMBL16118524

> <PUBCHEM_EXT_DATASOURCE_URL>
https://www.surechembl.org/

> <PUBCHEM_EXT_SUBSTANCE_URL>
https://www.surechembl.org/chemical/SCHEMBL16118524

> <PUBCHEM_CID_ASSOCIATIONS>
117607568  1

> <PUBCHEM_COORDINATE_TYPE>
1
3

$$$$
