310940059
  -OEChem-07211613022D

 15 16  0     1  0  0  0  0  0999 V2000
    1.5877    3.0516    0.0000 Cl  0  0  0  0  0  0  0  0  0  0  0  0
    1.5877    6.1306    0.0000 F   0  0  0  0  0  0  0  0  0  0  0  0
    0.7627    6.1306    0.0000 F   0  0  0  0  0  0  0  0  0  0  0  0
    4.4456    3.0516    0.0000 O   0  0  0  0  0  0  0  0  0  0  0  0
    4.4456    4.7016    0.0000 N   0  0  0  0  0  0  0  0  0  0  0  0
    1.5877    4.7016    0.0000 C   0  0  3  0  0  0  0  0  0  0  0  0
    1.1752    5.4161    0.0000 C   0  0  0  0  0  0  0  0  0  0  0  0
    2.3021    4.2891    0.0000 C   0  0  0  0  0  0  0  0  0  0  0  0
    0.7627    4.7016    0.0000 C   0  0  0  0  0  0  0  0  0  0  0  0
    2.3021    3.4641    0.0000 C   0  0  0  0  0  0  0  0  0  0  0  0
    3.0166    4.7016    0.0000 C   0  0  0  0  0  0  0  0  0  0  0  0
    3.7311    4.2891    0.0000 C   0  0  0  0  0  0  0  0  0  0  0  0
    3.7311    3.4641    0.0000 C   0  0  0  0  0  0  0  0  0  0  0  0
    3.0166    3.0516    0.0000 C   0  0  0  0  0  0  0  0  0  0  0  0
    4.4456    2.2266    0.0000 C   0  0  0  0  0  0  0  0  0  0  0  0
  1 10  1  0  0  0  0
  2  7  1  0  0  0  0
  3  7  1  0  0  0  0
  4 13  1  0  0  0  0
  4 15  1  0  0  0  0
  5 12  1  0  0  0  0
  6  7  1  0  0  0  0
  6  8  1  0  0  0  0
  6  9  1  0  0  0  0
  7  9  1  0  0  0  0
  8 10  2  0  0  0  0
  8 11  1  0  0  0  0
 10 14  1  0  0  0  0
 11 12  2  0  0  0  0
 12 13  1  0  0  0  0
 13 14  2  0  0  0  0
M  END
> <PUBCHEM_COMPOUND_ID_TYPE>
0

> <PUBCHEM_TOTAL_CHARGE>
0

> <PUBCHEM_SUBSTANCE_ID>
310940059

> <PUBCHEM_SUBSTANCE_VERSION>
1

> <PUBCHEM_EXT_DATASOURCE_NAME>
4488

> <PUBCHEM_EXT_DATASOURCE_REGID>
SCHEMBL16117989

> <PUBCHEM_SUBSTANCE_COMMENT>
InChI=1S/C10H10ClF2NO/c1-15-9-3-7(11)5(2-8(9)14)6-4-10(6,12)13/h2-3,6H,4,14H2,1H3
InChIKey=WDKQQNACFGBUIC-UHFFFAOYSA-N

> <PUBCHEM_SUBSTANCE_SYNONYM>
SCHEMBL16117989

> <PUBCHEM_XREF_EXT_ID>
SCHEMBL16117989

> <PUBCHEM_EXT_DATASOURCE_URL>
https://www.surechembl.org/

> <PUBCHEM_EXT_SUBSTANCE_URL>
https://www.surechembl.org/chemical/SCHEMBL16117989

> <PUBCHEM_CID_ASSOCIATIONS>
117607205  1

> <PUBCHEM_COORDINATE_TYPE>
1
3

$$$$
