310930871
  -OEChem-07211613022D

 28 32  0     1  0  0  0  0  0999 V2000
    0.4074   -2.7706    0.0000 O   0  0  0  0  0  0  0  0  0  0  0  0
    1.8742   -2.5261    0.0000 N   0  0  0  0  0  0  0  0  0  0  0  0
    2.2816   -3.8298    0.0000 N   0  0  0  0  0  0  0  0  0  0  0  0
    3.3410   -2.7706    0.0000 N   0  0  0  0  0  0  0  0  0  0  0  0
    1.1815   -8.1486    0.0000 N   0  0  0  0  0  0  0  0  0  0  0  0
    1.4668   -3.8298    0.0000 C   0  0  3  0  0  0  0  0  0  0  0  0
    1.1815   -3.0150    0.0000 C   0  0  0  0  0  0  0  0  0  0  0  0
    0.9371   -4.4817    0.0000 C   0  0  0  0  0  0  0  0  0  0  0  0
    1.8334   -4.5632    0.0000 C   0  0  0  0  0  0  0  0  0  0  0  0
    2.5261   -3.0150    0.0000 C   0  0  0  0  0  0  0  0  0  0  0  0
    0.8556   -5.3374    0.0000 C   0  0  0  0  0  0  0  0  0  0  0  0
    0.1630   -4.8484    0.0000 C   0  0  0  0  0  0  0  0  0  0  0  0
    1.8742   -1.7112    0.0000 C   0  0  0  0  0  0  0  0  0  0  0  0
    1.3853   -5.2559    0.0000 C   0  0  0  0  0  0  0  0  0  0  0  0
    2.6483   -4.6040    0.0000 C   0  0  0  0  0  0  0  0  0  0  0  0
    1.7519   -5.9892    0.0000 C   0  0  0  0  0  0  0  0  0  0  0  0
    3.0557   -5.3781    0.0000 C   0  0  0  0  0  0  0  0  0  0  0  0
    1.1408   -1.2630    0.0000 C   0  0  0  0  0  0  0  0  0  0  0  0
    2.5668   -1.2630    0.0000 C   0  0  0  0  0  0  0  0  0  0  0  0
    2.5668   -6.0707    0.0000 C   0  0  0  0  0  0  0  0  0  0  0  0
    1.3038   -6.7226    0.0000 C   0  0  0  0  0  0  0  0  0  0  0  0
    1.1408   -0.4481    0.0000 C   0  0  0  0  0  0  0  0  0  0  0  0
    2.5668   -0.4481    0.0000 C   0  0  0  0  0  0  0  0  0  0  0  0
    1.6297   -7.4559    0.0000 C   0  0  0  0  0  0  0  0  0  0  0  0
    0.4481   -6.6819    0.0000 C   0  0  0  0  0  0  0  0  0  0  0  0
    1.8742    0.0000    0.0000 C   0  0  0  0  0  0  0  0  0  0  0  0
    0.0000   -7.3745    0.0000 C   0  0  0  0  0  0  0  0  0  0  0  0
    0.3667   -8.1078    0.0000 C   0  0  0  0  0  0  0  0  0  0  0  0
  1  7  2  0  0  0  0
  2  7  1  0  0  0  0
  2 10  1  0  0  0  0
  2 13  1  0  0  0  0
  3  6  1  0  0  0  0
  3 10  1  0  0  0  0
  4 10  2  3  0  0  0
  5 24  1  0  0  0  0
  5 28  2  0  0  0  0
  6  7  1  0  0  0  0
  6  8  1  0  0  0  0
  6  9  1  0  0  0  0
  8 11  1  0  0  0  0
  8 12  1  0  0  0  0
  9 14  1  0  0  0  0
  9 15  2  0  0  0  0
 11 12  1  0  0  0  0
 13 18  1  0  0  0  0
 13 19  1  0  0  0  0
 14 16  2  0  0  0  0
 15 17  1  0  0  0  0
 16 20  1  0  0  0  0
 16 21  1  0  0  0  0
 17 20  2  0  0  0  0
 18 22  1  0  0  0  0
 19 23  1  0  0  0  0
 21 24  2  0  0  0  0
 21 25  1  0  0  0  0
 22 26  1  0  0  0  0
 23 26  1  0  0  0  0
 25 27  2  0  0  0  0
 27 28  1  0  0  0  0
M  END
> <PUBCHEM_COMPOUND_ID_TYPE>
0

> <PUBCHEM_TOTAL_CHARGE>
0

> <PUBCHEM_SUBSTANCE_ID>
310930871

> <PUBCHEM_SUBSTANCE_VERSION>
1

> <PUBCHEM_EXT_DATASOURCE_NAME>
4488

> <PUBCHEM_EXT_DATASOURCE_REGID>
SCHEMBL16108169

> <PUBCHEM_SUBSTANCE_COMMENT>
InChI=1S/C23H26N4O/c24-22-26-23(18-11-12-18,21(28)27(22)20-9-2-1-3-10-20)19-8-4-6-16(14-19)17-7-5-13-25-15-17/h4-8,13-15,18,20H,1-3,9-12H2,(H2,24,26)
InChIKey=XDWUXRTXFPUVJX-UHFFFAOYSA-N

> <PUBCHEM_SUBSTANCE_SYNONYM>
SCHEMBL16108169

> <PUBCHEM_XREF_EXT_ID>
SCHEMBL16108169

> <PUBCHEM_EXT_DATASOURCE_URL>
https://www.surechembl.org/

> <PUBCHEM_EXT_SUBSTANCE_URL>
https://www.surechembl.org/chemical/SCHEMBL16108169

> <PUBCHEM_CID_ASSOCIATIONS>
86274086  1

> <PUBCHEM_COORDINATE_TYPE>
1
3

$$$$
