310933008
  -OEChem-07211613022D

 30 32  0     1  0  0  0  0  0999 V2000
    3.9914   -2.7419    0.0000 O   0  0  0  0  0  0  0  0  0  0  0  0
    8.4688   -2.8114    0.0000 O   0  0  0  0  0  0  0  0  0  0  0  0
    9.2324   -6.5252    0.0000 O   0  0  0  0  0  0  0  0  0  0  0  0
    4.8938   -1.5966    0.0000 N   0  0  0  0  0  0  0  0  0  0  0  0
    4.8244   -0.7636    0.0000 N   0  0  0  0  0  0  0  0  0  0  0  0
    6.3516   -1.5966    0.0000 N   0  0  0  0  0  0  0  0  0  0  0  0
    7.7746   -4.0608    0.0000 N   0  0  0  0  0  0  0  0  0  0  0  0
    0.0000   -2.4643    0.0000 N   0  0  0  0  0  0  0  0  0  0  0  0
    3.6096   -1.3189    0.0000 C   0  0  0  0  0  0  0  0  0  0  0  0
    4.1650   -1.9436    0.0000 C   0  0  0  0  0  0  0  0  0  0  0  0
    2.7766   -1.4231    0.0000 C   0  0  0  0  0  0  0  0  0  0  0  0
    5.6227   -2.0130    0.0000 C   0  0  0  0  0  0  0  0  0  0  0  0
    3.9914   -0.6247    0.0000 C   0  0  0  0  0  0  0  0  0  0  0  0
    2.2907   -0.7636    0.0000 C   0  0  0  0  0  0  0  0  0  0  0  0
    2.4643   -2.1866    0.0000 C   0  0  0  0  0  0  0  0  0  0  0  0
    5.6227   -2.8114    0.0000 C   0  0  0  0  0  0  0  0  0  0  0  0
    7.0457   -2.8114    0.0000 C   0  0  0  0  0  0  0  0  0  0  0  0
    1.4577   -0.8677    0.0000 C   0  0  0  0  0  0  0  0  0  0  0  0
    1.1454   -1.5966    0.0000 C   0  0  0  0  0  0  0  0  0  0  0  0
    7.0457   -2.0130    0.0000 C   0  0  0  0  0  0  0  0  0  0  0  0
    6.3516   -3.2278    0.0000 C   0  0  0  0  0  0  0  0  0  0  0  0
    1.6313   -2.2561    0.0000 C   0  0  0  0  0  0  0  0  0  0  0  0
    7.7746   -3.2278    0.0000 C   0  0  0  0  0  0  0  0  0  0  0  0
    2.6031    0.0000    0.0000 C   0  0  0  0  0  0  0  0  0  0  0  0
    0.3124   -1.7007    0.0000 C   0  0  0  0  0  0  0  0  0  0  0  0
    8.5035   -4.4774    0.0000 C   0  0  0  0  0  0  0  0  0  0  0  0
    8.5035   -5.3104    0.0000 C   0  0  3  0  0  0  0  0  0  0  0  0
    9.1977   -5.6922    0.0000 C   0  0  0  0  0  0  0  0  0  0  0  0
    7.7746   -5.7268    0.0000 C   0  0  0  0  0  0  0  0  0  0  0  0
    9.9265   -6.9416    0.0000 C   0  0  0  0  0  0  0  0  0  0  0  0
  1 10  1  0  0  0  0
  2 23  2  0  0  0  0
  3 28  1  0  0  0  0
  3 30  1  0  0  0  0
  4  5  1  0  0  0  0
  4 10  1  0  0  0  0
  4 12  1  0  0  0  0
  5 13  2  0  0  0  0
  6 12  2  0  0  0  0
  6 20  1  0  0  0  0
  7 23  1  0  0  0  0
  7 26  1  0  0  0  0
  8 25  3  0  0  0  0
  9 10  2  0  0  0  0
  9 11  1  0  0  0  0
  9 13  1  0  0  0  0
 11 14  1  0  0  0  0
 11 15  2  0  0  0  0
 12 16  1  0  0  0  0
 14 18  2  0  0  0  0
 14 24  1  0  0  0  0
 15 22  1  0  0  0  0
 16 21  2  0  0  0  0
 17 20  2  0  0  0  0
 17 21  1  0  0  0  0
 17 23  1  0  0  0  0
 18 19  1  0  0  0  0
 19 22  2  0  0  0  0
 19 25  1  0  0  0  0
 26 27  1  0  0  0  0
 27 28  1  0  0  0  0
 27 29  1  0  0  0  0
M  END
> <PUBCHEM_COMPOUND_ID_TYPE>
0

> <PUBCHEM_TOTAL_CHARGE>
0

> <PUBCHEM_SUBSTANCE_ID>
310933008

> <PUBCHEM_SUBSTANCE_VERSION>
1

> <PUBCHEM_EXT_DATASOURCE_NAME>
4488

> <PUBCHEM_EXT_DATASOURCE_REGID>
SCHEMBL16110407

> <PUBCHEM_SUBSTANCE_COMMENT>
InChI=1S/C22H23N5O3/c1-14(13-30-3)10-25-21(28)17-5-7-20(24-11-17)27-22(29)19(12-26-27)18-6-4-16(9-23)8-15(18)2/h4-8,11-12,14,29H,10,13H2,1-3H3,(H,25,28)
InChIKey=WRVCHODDYGQYLN-UHFFFAOYSA-N

> <PUBCHEM_SUBSTANCE_SYNONYM>
SCHEMBL16110407

> <PUBCHEM_XREF_EXT_ID>
SCHEMBL16110407

> <PUBCHEM_EXT_DATASOURCE_URL>
https://www.surechembl.org/

> <PUBCHEM_EXT_SUBSTANCE_URL>
https://www.surechembl.org/chemical/SCHEMBL16110407

> <PUBCHEM_CID_ASSOCIATIONS>
117601478  1

> <PUBCHEM_COORDINATE_TYPE>
1
3

$$$$
