310936415
  -OEChem-07211613022D

 28 31  0     1  0  0  0  0  0999 V2000
    7.1693   -2.0443    0.0000 F   0  0  0  0  0  0  0  0  0  0  0  0
    3.5990   -0.8350    0.0000 O   0  0  0  0  0  0  0  0  0  0  0  0
    5.1827   -0.9790    0.0000 O   0  0  0  0  0  0  0  0  0  0  0  0
    1.4396   -5.3266    0.0000 N   0  0  0  0  0  0  0  0  0  0  0  0
    0.0288   -4.4917    0.0000 N   0  0  0  0  0  0  0  0  0  0  0  0
    4.3189   -2.0443    0.0000 C   0  0  3  0  0  0  0  0  0  0  0  0
    5.0099   -1.6412    0.0000 C   0  0  0  0  0  0  0  0  0  0  0  0
    4.2901   -1.2093    0.0000 C   0  0  0  0  0  0  0  0  0  0  0  0
    4.3189   -2.8793    0.0000 C   0  0  0  0  0  0  0  0  0  0  0  0
    3.5990   -1.6412    0.0000 C   0  0  0  0  0  0  0  0  0  0  0  0
    5.7297   -2.0443    0.0000 C   0  0  0  0  0  0  0  0  0  0  0  0
    2.8793   -2.8793    0.0000 C   0  0  0  0  0  0  0  0  0  0  0  0
    2.1594   -3.2823    0.0000 C   0  0  0  0  0  0  0  0  0  0  0  0
    3.5990   -3.2823    0.0000 C   0  0  0  0  0  0  0  0  0  0  0  0
    2.8793   -2.0443    0.0000 C   0  0  0  0  0  0  0  0  0  0  0  0
    5.0099   -0.8062    0.0000 C   0  0  0  0  0  0  0  0  0  0  0  0
    6.4495   -1.6124    0.0000 C   0  0  0  0  0  0  0  0  0  0  0  0
    1.4396   -4.5204    0.0000 C   0  0  0  0  0  0  0  0  0  0  0  0
    2.1594   -4.1174    0.0000 C   0  0  0  0  0  0  0  0  0  0  0  0
    0.7486   -4.0885    0.0000 C   0  0  0  0  0  0  0  0  0  0  0  0
    1.4396   -2.8793    0.0000 C   0  0  0  0  0  0  0  0  0  0  0  0
    5.7297   -0.3743    0.0000 C   0  0  0  0  0  0  0  0  0  0  0  0
    6.4495   -0.8062    0.0000 C   0  0  0  0  0  0  0  0  0  0  0  0
    0.7486   -3.2823    0.0000 C   0  0  0  0  0  0  0  0  0  0  0  0
    5.7297   -2.8504    0.0000 C   0  0  0  0  0  0  0  0  0  0  0  0
    0.7198   -5.7585    0.0000 C   0  0  0  0  0  0  0  0  0  0  0  0
    0.0000   -5.3554    0.0000 C   0  0  0  0  0  0  0  0  0  0  0  0
    3.5703    0.0000    0.0000 C   0  0  0  0  0  0  0  0  0  0  0  0
  1 17  1  0  0  0  0
  2  8  1  0  0  0  0
  2 28  1  0  0  0  0
  3  8  2  0  0  0  0
  4 18  2  0  0  0  0
  4 26  1  0  0  0  0
  5 20  2  0  0  0  0
  5 27  1  0  0  0  0
  6  7  1  0  0  0  0
  6  8  1  0  0  0  0
  6  9  1  0  0  0  0
  6 10  1  0  0  0  0
  7 11  1  0  0  0  0
  7 16  2  0  0  0  0
  9 14  1  0  0  0  0
 10 15  1  0  0  0  0
 11 17  2  0  0  0  0
 11 25  1  0  0  0  0
 12 13  1  0  0  0  0
 12 14  2  0  0  0  0
 12 15  1  0  0  0  0
 13 19  2  0  0  0  0
 13 21  1  0  0  0  0
 16 22  1  0  0  0  0
 17 23  1  0  0  0  0
 18 19  1  0  0  0  0
 18 20  1  0  0  0  0
 20 24  1  0  0  0  0
 21 24  2  0  0  0  0
 22 23  2  0  0  0  0
 26 27  2  0  0  0  0
M  END
> <PUBCHEM_COMPOUND_ID_TYPE>
0

> <PUBCHEM_TOTAL_CHARGE>
0

> <PUBCHEM_SUBSTANCE_ID>
310936415

> <PUBCHEM_SUBSTANCE_VERSION>
1

> <PUBCHEM_EXT_DATASOURCE_NAME>
4488

> <PUBCHEM_EXT_DATASOURCE_REGID>
SCHEMBL16114056

> <PUBCHEM_SUBSTANCE_COMMENT>
InChI=1S/C23H21FN2O2/c1-15-18(4-3-5-19(15)24)23(22(27)28-2)10-8-16(9-11-23)17-6-7-20-21(14-17)26-13-12-25-20/h3-8,12-14H,9-11H2,1-2H3
InChIKey=YPBWGLQMWYTVQZ-UHFFFAOYSA-N

> <PUBCHEM_SUBSTANCE_SYNONYM>
SCHEMBL16114056

> <PUBCHEM_XREF_EXT_ID>
SCHEMBL16114056

> <PUBCHEM_EXT_DATASOURCE_URL>
https://www.surechembl.org/

> <PUBCHEM_EXT_SUBSTANCE_URL>
https://www.surechembl.org/chemical/SCHEMBL16114056

> <PUBCHEM_CID_ASSOCIATIONS>
117604350  1

> <PUBCHEM_COORDINATE_TYPE>
1
3

$$$$
