310931306
  -OEChem-07211613022D

 45 48  0     1  0  0  0  0  0999 V2000
    2.8579    2.4751    0.0000 F   0  0  0  0  0  0  0  0  0  0  0  0
    4.2869    0.0000    0.0000 F   0  0  0  0  0  0  0  0  0  0  0  0
   -5.1119    0.0000    0.0000 F   0  0  0  0  0  0  0  0  0  0  0  0
   -5.8264   -0.4125    0.0000 F   0  0  0  0  0  0  0  0  0  0  0  0
   -5.8264   -1.2375    0.0000 F   0  0  0  0  0  0  0  0  0  0  0  0
    2.5007   -3.3001    0.0000 F   0  0  0  0  0  0  0  0  0  0  0  0
    3.2152   -2.8876    0.0000 F   0  0  0  0  0  0  0  0  0  0  0  0
    3.2152   -2.0625    0.0000 F   0  0  0  0  0  0  0  0  0  0  0  0
    1.4290    0.0000    0.0000 O   0  0  0  0  0  0  0  0  0  0  0  0
    4.2869    2.4751    0.0000 O   0  0  0  0  0  0  0  0  0  0  0  0
    5.0014    1.2375    0.0000 O   0  0  0  0  0  0  0  0  0  0  0  0
   -4.0402   -3.3001    0.0000 O   0  0  0  0  0  0  0  0  0  0  0  0
   -3.6829   -0.8250    0.0000 N   0  0  0  0  0  0  0  0  0  0  0  0
    1.0718   -2.4751    0.0000 N   0  0  0  0  0  0  0  0  0  0  0  0
   -1.5395    0.4125    0.0000 C   0  0  3  0  0  0  0  0  0  0  0  0
   -0.7145    0.4125    0.0000 C   0  0  3  0  0  0  0  0  0  0  0  0
   -1.0718   -3.7126    0.0000 C   0  0  3  0  0  0  0  0  0  0  0  0
   -1.1270    1.1270    0.0000 C   0  0  0  0  0  0  0  0  0  0  0  0
   -1.8968   -3.7126    0.0000 C   0  0  3  0  0  0  0  0  0  0  0  0
   -2.2540    0.0000    0.0000 C   0  0  0  0  0  0  0  0  0  0  0  0
   -0.3572   -3.3001    0.0000 C   0  0  0  0  0  0  0  0  0  0  0  0
   -1.4843   -4.4270    0.0000 C   0  0  0  0  0  0  0  0  0  0  0  0
    0.0000    0.0000    0.0000 C   0  0  0  0  0  0  0  0  0  0  0  0
   -2.9685    0.4125    0.0000 C   0  0  0  0  0  0  0  0  0  0  0  0
   -2.2540   -0.8250    0.0000 C   0  0  0  0  0  0  0  0  0  0  0  0
    3.5724    1.2375    0.0000 C   0  0  0  0  0  0  0  0  0  0  0  0
   -2.6112   -3.3001    0.0000 C   0  0  0  0  0  0  0  0  0  0  0  0
    2.1435    0.4125    0.0000 C   0  0  0  0  0  0  0  0  0  0  0  0
    0.3572   -3.7126    0.0000 C   0  0  0  0  0  0  0  0  0  0  0  0
   -0.3572   -2.4751    0.0000 C   0  0  0  0  0  0  0  0  0  0  0  0
    2.8579    1.6500    0.0000 C   0  0  0  0  0  0  0  0  0  0  0  0
    3.5724    0.4125    0.0000 C   0  0  0  0  0  0  0  0  0  0  0  0
    0.7145    0.4125    0.0000 C   0  0  0  0  0  0  0  0  0  0  0  0
   -3.6829    0.0000    0.0000 C   0  0  0  0  0  0  0  0  0  0  0  0
   -2.9685   -1.2375    0.0000 C   0  0  0  0  0  0  0  0  0  0  0  0
    2.1435    1.2375    0.0000 C   0  0  0  0  0  0  0  0  0  0  0  0
    2.8579    0.0000    0.0000 C   0  0  0  0  0  0  0  0  0  0  0  0
    1.0718   -3.3001    0.0000 C   0  0  0  0  0  0  0  0  0  0  0  0
    0.3572   -2.0625    0.0000 C   0  0  0  0  0  0  0  0  0  0  0  0
    4.2869    1.6500    0.0000 C   0  0  0  0  0  0  0  0  0  0  0  0
   -4.3975   -1.2375    0.0000 C   0  0  0  0  0  0  0  0  0  0  0  0
    1.7862   -2.0625    0.0000 C   0  0  0  0  0  0  0  0  0  0  0  0
   -3.3257   -3.7126    0.0000 C   0  0  0  0  0  0  0  0  0  0  0  0
   -5.1119   -0.8250    0.0000 C   0  0  0  0  0  0  0  0  0  0  0  0
    2.5007   -2.4751    0.0000 C   0  0  0  0  0  0  0  0  0  0  0  0
  1 31  1  0  0  0  0
  2 32  1  0  0  0  0
  3 44  1  0  0  0  0
  4 44  1  0  0  0  0
  5 44  1  0  0  0  0
  6 45  1  0  0  0  0
  7 45  1  0  0  0  0
  8 45  1  0  0  0  0
  9 28  1  0  0  0  0
  9 33  1  0  0  0  0
 10 40  2  0  0  0  0
 11 40  1  0  0  0  0
 12 43  1  0  0  0  0
 13 34  1  0  0  0  0
 13 35  1  0  0  0  0
 13 41  1  0  0  0  0
 14 38  1  0  0  0  0
 14 39  1  0  0  0  0
 14 42  1  0  0  0  0
 15 16  1  0  0  0  0
 15 18  1  1  0  0  0
 15 20  1  0  0  0  0
 16 18  1  0  0  0  0
 16 23  1  1  0  0  0
 17 19  1  0  0  0  0
 17 21  1  0  0  0  0
 17 22  1  1  0  0  0
 19 22  1  0  0  0  0
 19 27  1  1  0  0  0
 20 24  1  0  0  0  0
 20 25  1  0  0  0  0
 21 29  1  0  0  0  0
 21 30  1  0  0  0  0
 23 33  1  0  0  0  0
 24 34  1  0  0  0  0
 25 35  1  0  0  0  0
 26 31  2  0  0  0  0
 26 32  1  0  0  0  0
 26 40  1  0  0  0  0
 27 43  1  0  0  0  0
 28 36  2  0  0  0  0
 28 37  1  0  0  0  0
 29 38  1  0  0  0  0
 30 39  1  0  0  0  0
 31 36  1  0  0  0  0
 32 37  2  0  0  0  0
 41 44  1  0  0  0  0
 42 45  1  0  0  0  0
M  END
> <PUBCHEM_COMPOUND_ID_TYPE>
0

> <PUBCHEM_TOTAL_CHARGE>
0

> <PUBCHEM_SUBSTANCE_ID>
310931306

> <PUBCHEM_SUBSTANCE_VERSION>
1

> <PUBCHEM_EXT_DATASOURCE_NAME>
4488

> <PUBCHEM_EXT_DATASOURCE_REGID>
SCHEMBL16108624

> <PUBCHEM_SUBSTANCE_COMMENT>
InChI=1S/C19H22F5NO3.C12H20F3NO/c20-15-8-13(9-16(21)17(15)18(26)27)28-6-3-12-7-14(12)11-1-4-25(5-2-11)10-19(22,23)24;13-12(14,15)8-16-4-1-9(2-5-16)11-7-10(11)3-6-17/h8-9,11-12,14H,1-7,10H2,(H,26,27);9-11,17H,1-8H2/t12-,14-;10-,11-/m11/s1
InChIKey=MIPZKWMVOVVLLO-FQXRMXEZSA-N

> <PUBCHEM_SUBSTANCE_SYNONYM>
SCHEMBL16108624

> <PUBCHEM_XREF_EXT_ID>
SCHEMBL16108624

> <PUBCHEM_EXT_DATASOURCE_URL>
https://www.surechembl.org/

> <PUBCHEM_EXT_SUBSTANCE_URL>
https://www.surechembl.org/chemical/SCHEMBL16108624

> <PUBCHEM_CID_ASSOCIATIONS>
117600122  1
71522974  2
89524425  2

> <PUBCHEM_COORDINATE_TYPE>
1
3

> <PUBCHEM_BONDANNOTATIONS>
15  18  5
16  23  5
17  22  5
19  27  5

$$$$
