310929921
  -OEChem-07211613022D

 19 18  0     1  0  0  0  0  0999 V2000
    2.0731   -2.8793    0.0000 S   0  0  0  0  0  0  0  0  0  0  0  0
    2.0731   -3.7143    0.0000 O   0  0  0  0  0  0  0  0  0  0  0  0
    2.1019   -2.0731    0.0000 O   0  0  0  0  0  0  0  0  0  0  0  0
    1.2381   -2.8505    0.0000 C   0  0  3  0  0  0  0  0  0  0  0  0
    2.9081   -2.8793    0.0000 C   0  0  3  0  0  0  0  0  0  0  0  0
    0.8350   -3.5703    0.0000 C   0  0  0  0  0  0  0  0  0  0  0  0
    3.3400   -2.1882    0.0000 C   0  0  0  0  0  0  0  0  0  0  0  0
    0.8350   -2.1307    0.0000 C   0  0  0  0  0  0  0  0  0  0  0  0
    3.3112   -3.6279    0.0000 C   0  0  0  0  0  0  0  0  0  0  0  0
    1.2381   -1.4109    0.0000 C   0  0  0  0  0  0  0  0  0  0  0  0
    2.9081   -4.3189    0.0000 C   0  0  0  0  0  0  0  0  0  0  0  0
    0.0000   -3.5703    0.0000 C   0  0  0  0  0  0  0  0  0  0  0  0
    1.2381   -4.2902    0.0000 C   0  0  0  0  0  0  0  0  0  0  0  0
    4.1462   -2.1882    0.0000 C   0  0  0  0  0  0  0  0  0  0  0  0
    2.9369   -1.4684    0.0000 C   0  0  0  0  0  0  0  0  0  0  0  0
    0.8350   -0.7198    0.0000 C   0  0  0  0  0  0  0  0  0  0  0  0
    3.3112   -5.0388    0.0000 C   0  0  0  0  0  0  0  0  0  0  0  0
    1.2669    0.0000    0.0000 C   0  0  0  0  0  0  0  0  0  0  0  0
    2.8793   -5.7586    0.0000 C   0  0  0  0  0  0  0  0  0  0  0  0
  1  2  2  0  0  0  0
  1  3  2  0  0  0  0
  1  4  1  0  0  0  0
  1  5  1  0  0  0  0
  4  6  1  0  0  0  0
  4  8  1  0  0  0  0
  5  7  1  0  0  0  0
  5  9  1  0  0  0  0
  6 12  1  0  0  0  0
  6 13  1  0  0  0  0
  7 14  1  0  0  0  0
  7 15  1  0  0  0  0
  8 10  1  0  0  0  0
  9 11  1  0  0  0  0
 10 16  1  0  0  0  0
 11 17  1  0  0  0  0
 16 18  1  0  0  0  0
 17 19  1  0  0  0  0
M  END
> <PUBCHEM_COMPOUND_ID_TYPE>
0

> <PUBCHEM_TOTAL_CHARGE>
0

> <PUBCHEM_SUBSTANCE_ID>
310929921

> <PUBCHEM_SUBSTANCE_VERSION>
1

> <PUBCHEM_EXT_DATASOURCE_NAME>
4488

> <PUBCHEM_EXT_DATASOURCE_REGID>
SCHEMBL16107138

> <PUBCHEM_SUBSTANCE_COMMENT>
InChI=1S/C16H34O2S/c1-7-9-11-15(13(3)4)19(17,18)16(14(5)6)12-10-8-2/h13-16H,7-12H2,1-6H3
InChIKey=NCQJMIGAAITPBW-UHFFFAOYSA-N

> <PUBCHEM_SUBSTANCE_SYNONYM>
SCHEMBL16107138

> <PUBCHEM_XREF_EXT_ID>
SCHEMBL16107138

> <PUBCHEM_EXT_DATASOURCE_URL>
https://www.surechembl.org/

> <PUBCHEM_EXT_SUBSTANCE_URL>
https://www.surechembl.org/chemical/SCHEMBL16107138

> <PUBCHEM_CID_ASSOCIATIONS>
117599183  1

> <PUBCHEM_COORDINATE_TYPE>
1
3

$$$$
