310943710
  -OEChem-07211613022D

 27 29  0     1  0  0  0  0  0999 V2000
    4.1697    0.7347    0.0000 O   0  0  0  0  0  0  0  0  0  0  0  0
    3.4349    2.1912    0.0000 O   0  0  0  0  0  0  0  0  0  0  0  0
   -2.2750   -1.3921    0.0000 N   0  0  3  0  0  0  0  0  0  0  0  0
   -4.0408   -0.8636    0.0000 N   0  0  3  0  0  0  0  0  0  0  0  0
    2.0430   -2.1912    0.0000 N   0  0  0  0  0  0  0  0  0  0  0  0
    0.5994   -0.5414    0.0000 C   0  0  0  0  0  0  0  0  0  0  0  0
    1.3083   -0.1031    0.0000 C   0  0  0  0  0  0  0  0  0  0  0  0
    0.5864   -1.3662    0.0000 C   0  0  0  0  0  0  0  0  0  0  0  0
   -0.8313   -1.3791    0.0000 C   0  0  0  0  0  0  0  0  0  0  0  0
   -0.1095   -1.7916    0.0000 C   0  0  0  0  0  0  0  0  0  0  0  0
   -0.1354   -0.1418    0.0000 C   0  0  0  0  0  0  0  0  0  0  0  0
   -0.8184   -0.5414    0.0000 C   0  0  0  0  0  0  0  0  0  0  0  0
    2.0301   -0.5285    0.0000 C   0  0  0  0  0  0  0  0  0  0  0  0
    1.3083    0.7089    0.0000 C   0  0  0  0  0  0  0  0  0  0  0  0
    2.7390    0.7347    0.0000 C   0  0  0  0  0  0  0  0  0  0  0  0
   -1.5532   -1.8045    0.0000 C   0  0  0  0  0  0  0  0  0  0  0  0
    2.7260   -0.1031    0.0000 C   0  0  0  0  0  0  0  0  0  0  0  0
    2.0171    1.1213    0.0000 C   0  0  0  0  0  0  0  0  0  0  0  0
    1.3212   -1.7916    0.0000 C   0  0  0  0  0  0  0  0  0  0  0  0
    3.4479    1.1471    0.0000 C   0  0  0  0  0  0  0  0  0  0  0  0
   -2.9452   -1.8690    0.0000 C   0  0  0  0  0  0  0  0  0  0  0  0
   -2.2105   -0.5542    0.0000 C   0  0  0  0  0  0  0  0  0  0  0  0
   -3.7443   -1.6370    0.0000 C   0  0  0  0  0  0  0  0  0  0  0  0
   -2.8292   -0.0129    0.0000 C   0  0  0  0  0  0  0  0  0  0  0  0
   -3.6412   -0.1418    0.0000 C   0  0  0  0  0  0  0  0  0  0  0  0
   -4.8786   -0.8636    0.0000 C   0  0  0  0  0  0  0  0  0  0  0  0
    4.8786    1.1471    0.0000 C   0  0  0  0  0  0  0  0  0  0  0  0
  1 20  1  0  0  0  0
  1 27  1  0  0  0  0
  2 20  2  0  0  0  0
  3 16  1  0  0  0  0
  3 21  1  0  0  0  0
  3 22  1  0  0  0  0
  4 23  1  0  0  0  0
  4 25  1  0  0  0  0
  4 26  1  0  0  0  0
  5 19  3  0  0  0  0
  6  7  1  0  0  0  0
  6  8  1  0  0  0  0
  6 11  2  0  0  0  0
  7 13  2  0  0  0  0
  7 14  1  0  0  0  0
  8 10  2  0  0  0  0
  8 19  1  0  0  0  0
  9 10  1  0  0  0  0
  9 12  2  0  0  0  0
  9 16  1  0  0  0  0
 11 12  1  0  0  0  0
 13 17  1  0  0  0  0
 14 18  2  0  0  0  0
 15 17  2  0  0  0  0
 15 18  1  0  0  0  0
 15 20  1  0  0  0  0
 21 23  1  0  0  0  0
 22 24  1  0  0  0  0
 24 25  1  0  0  0  0
M  END
> <PUBCHEM_COMPOUND_ID_TYPE>
0

> <PUBCHEM_TOTAL_CHARGE>
0

> <PUBCHEM_SUBSTANCE_ID>
310943710

> <PUBCHEM_SUBSTANCE_VERSION>
1

> <PUBCHEM_EXT_DATASOURCE_NAME>
4488

> <PUBCHEM_EXT_DATASOURCE_REGID>
SCHEMBL16121778

> <PUBCHEM_SUBSTANCE_COMMENT>
InChI=1S/C22H25N3O2/c1-24-10-3-11-25(13-12-24)16-17-4-9-21(20(14-17)15-23)18-5-7-19(8-6-18)22(26)27-2/h4-9,14H,3,10-13,16H2,1-2H3
InChIKey=ZGZLQGWIXBTXOL-UHFFFAOYSA-N

> <PUBCHEM_SUBSTANCE_SYNONYM>
SCHEMBL16121778

> <PUBCHEM_XREF_EXT_ID>
SCHEMBL16121778

> <PUBCHEM_EXT_DATASOURCE_URL>
https://www.surechembl.org/

> <PUBCHEM_EXT_SUBSTANCE_URL>
https://www.surechembl.org/chemical/SCHEMBL16121778

> <PUBCHEM_CID_ASSOCIATIONS>
86300760  1

> <PUBCHEM_COORDINATE_TYPE>
1
3

$$$$
