310939014
  -OEChem-07211613022D

 15 17  0     1  0  0  0  0  0999 V2000
    0.0797   -1.3063    0.0000 N   0  0  0  0  0  0  0  0  0  0  0  0
    0.0797    0.3437    0.0000 C   0  0  3  0  0  0  0  0  0  0  0  0
    0.0797   -0.4812    0.0000 C   0  0  3  0  0  0  0  0  0  0  0  0
   -0.6348    0.7563    0.0000 C   0  0  3  0  0  0  0  0  0  0  0  0
   -0.6348   -0.8937    0.0000 C   0  0  3  0  0  0  0  0  0  0  0  0
   -0.4121   -0.0628    0.0000 C   0  0  0  0  0  0  0  0  0  0  0  0
    0.0797    1.1688    0.0000 C   0  0  0  0  0  0  0  0  0  0  0  0
    0.8643    0.5987    0.0000 C   0  0  0  0  0  0  0  0  0  0  0  0
    0.8643   -0.7361    0.0000 C   0  0  0  0  0  0  0  0  0  0  0  0
   -1.3492    0.3437    0.0000 C   0  0  0  0  0  0  0  0  0  0  0  0
   -1.3492   -0.4812    0.0000 C   0  0  0  0  0  0  0  0  0  0  0  0
    1.3492   -0.0688    0.0000 C   0  0  0  0  0  0  0  0  0  0  0  0
   -0.6348   -1.7188    0.0000 C   0  0  0  0  0  0  0  0  0  0  0  0
    1.0323    1.7188    0.0000 H   1  0  0  0  0  0  0  0  0  0  0  0
   -0.8729    1.7188    0.0000 H   1  0  0  0  0  0  0  0  0  0  0  0
  1  3  1  0  0  0  0
  1 13  1  0  0  0  0
  2  3  1  0  0  0  0
  2  4  1  0  0  0  0
  2  7  1  0  0  0  0
  2  8  1  0  0  0  0
  3  5  1  0  0  0  0
  3  9  1  0  0  0  0
  4  6  1  0  0  0  0
  4 10  1  0  0  0  0
  5  6  1  0  0  0  0
  5 11  1  0  0  0  0
  7 14  1  0  0  0  0
  7 15  1  0  0  0  0
  8 12  1  0  0  0  0
  9 12  1  0  0  0  0
 10 11  1  0  0  0  0
M  ISO  2  14   2  15   2
M  END
> <PUBCHEM_COMPOUND_ID_TYPE>
0

> <PUBCHEM_TOTAL_CHARGE>
0

> <PUBCHEM_SUBSTANCE_ID>
310939014

> <PUBCHEM_SUBSTANCE_VERSION>
1

> <PUBCHEM_EXT_DATASOURCE_NAME>
4488

> <PUBCHEM_EXT_DATASOURCE_REGID>
SCHEMBL16116933

> <PUBCHEM_SUBSTANCE_COMMENT>
InChI=1S/C12H21N/c1-11-6-3-7-12(11,13-2)10-5-4-9(11)8-10/h9-10,13H,3-8H2,1-2H3/i1D2
InChIKey=DPPQHBAUKYRAOC-DICFDUPASA-N

> <PUBCHEM_SUBSTANCE_SYNONYM>
SCHEMBL16116933

> <PUBCHEM_XREF_EXT_ID>
SCHEMBL16116933

> <PUBCHEM_EXT_DATASOURCE_URL>
https://www.surechembl.org/

> <PUBCHEM_EXT_SUBSTANCE_URL>
https://www.surechembl.org/chemical/SCHEMBL16116933

> <PUBCHEM_CID_ASSOCIATIONS>
117606397  1

> <PUBCHEM_COORDINATE_TYPE>
1
3

$$$$
