310937692
  -OEChem-07211613022D

 38 42  0     1  0  0  0  0  0999 V2000
    4.2430   -4.9809    0.0000 O   0  0  0  0  0  0  0  0  0  0  0  0
    2.8287   -2.4597    0.0000 O   0  0  0  0  0  0  0  0  0  0  0  0
    1.4143  -12.2986    0.0000 O   0  0  0  0  0  0  0  0  0  0  0  0
    2.8287  -12.2986    0.0000 O   0  0  0  0  0  0  0  0  0  0  0  0
    0.7994   -4.3660    0.0000 N   0  0  3  0  0  0  0  0  0  0  0  0
    3.5666   -3.7511    0.0000 N   0  0  0  0  0  0  0  0  0  0  0  0
    2.0908   -9.4084    0.0000 N   0  0  0  0  0  0  0  0  0  0  0  0
    1.4143   -8.2400    0.0000 N   0  0  0  0  0  0  0  0  0  0  0  0
    2.0908  -11.0687    0.0000 N   0  0  0  0  0  0  0  0  0  0  0  0
    3.5666   -1.2298    0.0000 N   0  0  0  0  0  0  0  0  0  0  0  0
    2.0908   -4.5505    0.0000 C   0  0  0  0  0  0  0  0  0  0  0  0
    1.4143   -4.9194    0.0000 C   0  0  0  0  0  0  0  0  0  0  0  0
    2.8287   -4.9194    0.0000 C   0  0  0  0  0  0  0  0  0  0  0  0
    2.0908   -6.1493    0.0000 C   0  0  0  0  0  0  0  0  0  0  0  0
    1.4143   -5.7804    0.0000 C   0  0  0  0  0  0  0  0  0  0  0  0
    2.8287   -5.7804    0.0000 C   0  0  0  0  0  0  0  0  0  0  0  0
    2.0908   -6.9487    0.0000 C   0  0  0  0  0  0  0  0  0  0  0  0
    3.5666   -4.5505    0.0000 C   0  0  0  0  0  0  0  0  0  0  0  0
    1.9678   -3.6896    0.0000 C   0  0  0  0  0  0  0  0  0  0  0  0
    1.1684   -3.6281    0.0000 C   0  0  0  0  0  0  0  0  0  0  0  0
    2.0908   -8.6090    0.0000 C   0  0  0  0  0  0  0  0  0  0  0  0
    1.3528   -7.3791    0.0000 C   0  0  0  0  0  0  0  0  0  0  0  0
    2.8287   -7.3791    0.0000 C   0  0  0  0  0  0  0  0  0  0  0  0
    4.3045   -2.5212    0.0000 C   0  0  0  0  0  0  0  0  0  0  0  0
    2.8287   -8.1786    0.0000 C   0  0  0  0  0  0  0  0  0  0  0  0
    0.0000   -4.5505    0.0000 C   0  0  0  0  0  0  0  0  0  0  0  0
    4.2430   -3.3206    0.0000 C   0  0  0  0  0  0  0  0  0  0  0  0
    3.5666   -2.0293    0.0000 C   0  0  0  0  0  0  0  0  0  0  0  0
    4.9809   -2.0908    0.0000 C   0  0  0  0  0  0  0  0  0  0  0  0
    1.4143   -9.8389    0.0000 C   0  0  0  0  0  0  0  0  0  0  0  0
    2.8287   -9.8389    0.0000 C   0  0  0  0  0  0  0  0  0  0  0  0
    4.3045   -0.7994    0.0000 C   0  0  0  0  0  0  0  0  0  0  0  0
    4.9809   -1.2914    0.0000 C   0  0  0  0  0  0  0  0  0  0  0  0
    2.8287  -10.6382    0.0000 C   0  0  0  0  0  0  0  0  0  0  0  0
    1.4143  -10.6382    0.0000 C   0  0  0  0  0  0  0  0  0  0  0  0
    2.0908  -11.8681    0.0000 C   0  0  0  0  0  0  0  0  0  0  0  0
    5.7188   -2.4597    0.0000 C   0  0  0  0  0  0  0  0  0  0  0  0
    4.3045    0.0000    0.0000 C   0  0  0  0  0  0  0  0  0  0  0  0
  1 18  2  0  0  0  0
  2 28  2  0  0  0  0
  3 36  2  0  0  0  0
  4 36  1  0  0  0  0
  5 12  1  0  0  0  0
  5 20  1  0  0  0  0
  5 26  1  0  0  0  0
  6 18  1  0  0  0  0
  6 27  1  0  0  0  0
  7 21  1  0  0  0  0
  7 30  1  0  0  0  0
  7 31  1  0  0  0  0
  8 21  1  0  0  0  0
  8 22  2  0  0  0  0
  9 34  1  0  0  0  0
  9 35  1  0  0  0  0
  9 36  1  0  0  0  0
 10 28  1  0  0  0  0
 10 32  1  0  0  0  0
 11 12  2  0  0  0  0
 11 13  1  0  0  0  0
 11 19  1  0  0  0  0
 12 15  1  0  0  0  0
 13 16  2  0  0  0  0
 13 18  1  0  0  0  0
 14 15  2  0  0  0  0
 14 16  1  0  0  0  0
 14 17  1  0  0  0  0
 17 22  1  0  0  0  0
 17 23  2  0  0  0  0
 19 20  1  0  0  0  0
 21 25  2  0  0  0  0
 23 25  1  0  0  0  0
 24 27  1  0  0  0  0
 24 28  1  0  0  0  0
 24 29  2  0  0  0  0
 29 33  1  0  0  0  0
 29 37  1  0  0  0  0
 30 35  1  0  0  0  0
 31 34  1  0  0  0  0
 32 33  2  0  0  0  0
 32 38  1  0  0  0  0
M  END
> <PUBCHEM_COMPOUND_ID_TYPE>
0

> <PUBCHEM_TOTAL_CHARGE>
0

> <PUBCHEM_SUBSTANCE_ID>
310937692

> <PUBCHEM_SUBSTANCE_VERSION>
1

> <PUBCHEM_EXT_DATASOURCE_NAME>
4488

> <PUBCHEM_EXT_DATASOURCE_REGID>
SCHEMBL16115485

> <PUBCHEM_SUBSTANCE_COMMENT>
InChI=1S/C28H32N6O4/c1-17-12-18(2)31-27(36)23(17)16-30-26(35)22-13-20(14-24-21(22)6-7-32(24)3)19-4-5-25(29-15-19)33-8-10-34(11-9-33)28(37)38/h4-5,12-15H,6-11,16H2,1-3H3,(H,30,35)(H,31,36)(H,37,38)
InChIKey=NJWMEPLPRYWYLX-UHFFFAOYSA-N

> <PUBCHEM_SUBSTANCE_SYNONYM>
SCHEMBL16115485

> <PUBCHEM_XREF_EXT_ID>
SCHEMBL16115485

> <PUBCHEM_EXT_DATASOURCE_URL>
https://www.surechembl.org/

> <PUBCHEM_EXT_SUBSTANCE_URL>
https://www.surechembl.org/chemical/SCHEMBL16115485

> <PUBCHEM_CID_ASSOCIATIONS>
117605373  1

> <PUBCHEM_COORDINATE_TYPE>
1
3

$$$$
