310935524
  -OEChem-07211613022D

 42 47  0     1  0  0  0  0  0999 V2000
    3.2919   -5.7279    0.0000 Cl  0  0  0  0  0  0  0  0  0  0  0  0
    5.7938   -5.7609    0.0000 S   0  0  0  0  0  0  0  0  0  0  0  0
    0.0000   -2.8311    0.0000 O   0  0  0  0  0  0  0  0  0  0  0  0
    5.7938   -4.8720    0.0000 O   0  0  0  0  0  0  0  0  0  0  0  0
    5.7938   -6.5838    0.0000 O   0  0  0  0  0  0  0  0  0  0  0  0
    3.7528   -0.7242    0.0000 N   0  0  3  0  0  0  0  0  0  0  0  0
    5.0367    0.0000    0.0000 N   0  0  0  0  0  0  0  0  0  0  0  0
    6.2546   -0.7572    0.0000 N   0  0  0  0  0  0  0  0  0  0  0  0
    3.3248   -4.3124    0.0000 N   0  0  0  0  0  0  0  0  0  0  0  0
    1.2180   -3.5553    0.0000 N   0  0  0  0  0  0  0  0  0  0  0  0
    4.9708   -5.7609    0.0000 N   0  0  0  0  0  0  0  0  0  0  0  0
    2.4360   -5.7609    0.0000 N   0  0  0  0  0  0  0  0  0  0  0  0
    5.0037   -1.4814    0.0000 C   0  0  0  0  0  0  0  0  0  0  0  0
    4.6087   -0.7242    0.0000 C   0  0  0  0  0  0  0  0  0  0  0  0
    5.8267   -1.4814    0.0000 C   0  0  0  0  0  0  0  0  0  0  0  0
    4.9708   -2.8969    0.0000 C   0  0  0  0  0  0  0  0  0  0  0  0
    4.5758   -2.1726    0.0000 C   0  0  0  0  0  0  0  0  0  0  0  0
    6.2217   -2.1726    0.0000 C   0  0  0  0  0  0  0  0  0  0  0  0
    4.5428   -3.5882    0.0000 C   0  0  0  0  0  0  0  0  0  0  0  0
    2.5019   -1.4484    0.0000 C   0  0  0  0  0  0  0  0  0  0  0  0
    5.8267   -2.8969    0.0000 C   0  0  0  0  0  0  0  0  0  0  0  0
    3.3248   -1.4484    0.0000 C   0  0  0  0  0  0  0  0  0  0  0  0
    2.0739   -0.7242    0.0000 C   0  0  0  0  0  0  0  0  0  0  0  0
    3.3577    0.0000    0.0000 C   0  0  0  0  0  0  0  0  0  0  0  0
    5.8596   -0.0329    0.0000 C   0  0  0  0  0  0  0  0  0  0  0  0
    1.2509   -2.1397    0.0000 C   0  0  0  0  0  0  0  0  0  0  0  0
    2.0739   -2.1397    0.0000 C   0  0  0  0  0  0  0  0  0  0  0  0
    2.5019    0.0000    0.0000 C   0  0  0  0  0  0  0  0  0  0  0  0
    4.9708   -4.3124    0.0000 C   0  0  0  0  0  0  0  0  0  0  0  0
    4.5758   -5.0367    0.0000 C   0  0  0  0  0  0  0  0  0  0  0  0
    3.7199   -3.5882    0.0000 C   0  0  0  0  0  0  0  0  0  0  0  0
    1.2838   -0.6913    0.0000 C   0  0  0  0  0  0  0  0  0  0  0  0
    0.8230   -2.8640    0.0000 C   0  0  0  0  0  0  0  0  0  0  0  0
    3.7199   -5.0367    0.0000 C   0  0  0  0  0  0  0  0  0  0  0  0
    0.8559   -1.4155    0.0000 C   0  0  0  0  0  0  0  0  0  0  0  0
    7.0776   -2.1726    0.0000 C   0  0  0  0  0  0  0  0  0  0  0  0
    2.0739   -3.5882    0.0000 C   0  0  0  0  0  0  0  0  0  0  0  0
    0.7901   -4.2795    0.0000 C   0  0  0  0  0  0  0  0  0  0  0  0
    2.4689   -4.3124    0.0000 C   0  0  0  0  0  0  0  0  0  0  0  0
    1.1851   -5.0037    0.0000 C   0  0  0  0  0  0  0  0  0  0  0  0
    2.0410   -5.0367    0.0000 C   0  0  0  0  0  0  0  0  0  0  0  0
    6.6167   -5.7609    0.0000 C   0  0  0  0  0  0  0  0  0  0  0  0
  1 34  1  0  0  0  0
  2  4  2  0  0  0  0
  2  5  2  0  0  0  0
  2 11  1  0  0  0  0
  2 42  1  0  0  0  0
  3 33  2  0  0  0  0
  6 14  1  0  0  0  0
  6 22  1  0  0  0  0
  6 24  1  0  0  0  0
  7 14  1  0  0  0  0
  7 25  2  0  0  0  0
  8 15  2  0  0  0  0
  8 25  1  0  0  0  0
  9 31  2  0  0  0  0
  9 34  1  0  0  0  0
 10 33  1  0  0  0  0
 10 37  1  0  0  0  0
 10 38  1  0  0  0  0
 11 30  1  0  0  0  0
 12 41  1  0  0  0  0
 13 14  2  0  0  0  0
 13 15  1  0  0  0  0
 13 17  1  0  0  0  0
 15 18  1  0  0  0  0
 16 17  2  0  0  0  0
 16 19  1  0  0  0  0
 16 21  1  0  0  0  0
 18 21  2  0  0  0  0
 18 36  1  0  0  0  0
 19 29  2  0  0  0  0
 19 31  1  0  0  0  0
 20 22  1  0  0  0  0
 20 23  2  0  0  0  0
 20 27  1  0  0  0  0
 23 28  1  0  0  0  0
 23 32  1  0  0  0  0
 24 28  1  0  0  0  0
 26 27  2  0  0  0  0
 26 33  1  0  0  0  0
 26 35  1  0  0  0  0
 29 30  1  0  0  0  0
 30 34  2  0  0  0  0
 32 35  2  0  0  0  0
 37 39  1  0  0  0  0
 38 40  1  0  0  0  0
 39 41  1  0  0  0  0
 40 41  1  0  0  0  0
M  END
> <PUBCHEM_COMPOUND_ID_TYPE>
0

> <PUBCHEM_TOTAL_CHARGE>
0

> <PUBCHEM_SUBSTANCE_ID>
310935524

> <PUBCHEM_SUBSTANCE_VERSION>
1

> <PUBCHEM_EXT_DATASOURCE_NAME>
4488

> <PUBCHEM_EXT_DATASOURCE_REGID>
SCHEMBL16113093

> <PUBCHEM_SUBSTANCE_COMMENT>
InChI=1S/C30H32ClN7O3S/c1-18-11-21(22-14-26(28(31)33-15-22)36-42(2,40)41)13-25-27(18)34-17-35-29(25)38-8-5-19-3-4-20(12-23(19)16-38)30(39)37-9-6-24(32)7-10-37/h3-4,11-15,17,24,36H,5-10,16,32H2,1-2H3
InChIKey=SANMYWNNEKHSJS-UHFFFAOYSA-N

> <PUBCHEM_SUBSTANCE_SYNONYM>
SCHEMBL16113093

> <PUBCHEM_XREF_EXT_ID>
SCHEMBL16113093

> <PUBCHEM_EXT_DATASOURCE_URL>
https://www.surechembl.org/

> <PUBCHEM_EXT_SUBSTANCE_URL>
https://www.surechembl.org/chemical/SCHEMBL16113093

> <PUBCHEM_CID_ASSOCIATIONS>
86300033  1

> <PUBCHEM_COORDINATE_TYPE>
1
3

$$$$
