310932971
  -OEChem-07211613022D

 31 34  0     1  0  0  0  0  0999 V2000
    4.0210   -2.1044    0.0000 O   0  0  0  0  0  0  0  0  0  0  0  0
    8.4553   -2.1796    0.0000 O   0  0  0  0  0  0  0  0  0  0  0  0
   11.2737   -3.7955    0.0000 O   0  0  0  0  0  0  0  0  0  0  0  0
    4.8853   -0.9770    0.0000 N   0  0  0  0  0  0  0  0  0  0  0  0
    4.8101   -0.1503    0.0000 N   0  0  0  0  0  0  0  0  0  0  0  0
    6.3133   -0.9770    0.0000 N   0  0  0  0  0  0  0  0  0  0  0  0
    7.7413   -3.4197    0.0000 N   0  0  0  0  0  0  0  0  0  0  0  0
    0.0000   -1.8038    0.0000 N   0  0  0  0  0  0  0  0  0  0  0  0
    3.6076   -0.7140    0.0000 C   0  0  0  0  0  0  0  0  0  0  0  0
    4.1713   -1.3153    0.0000 C   0  0  0  0  0  0  0  0  0  0  0  0
    5.5993   -1.3904    0.0000 C   0  0  0  0  0  0  0  0  0  0  0  0
    2.7809   -0.7891    0.0000 C   0  0  0  0  0  0  0  0  0  0  0  0
    4.0210    0.0000    0.0000 C   0  0  0  0  0  0  0  0  0  0  0  0
    5.5993   -2.1796    0.0000 C   0  0  0  0  0  0  0  0  0  0  0  0
    7.0273   -2.1796    0.0000 C   0  0  0  0  0  0  0  0  0  0  0  0
    2.4426   -1.5407    0.0000 C   0  0  0  0  0  0  0  0  0  0  0  0
    2.2923   -0.1503    0.0000 C   0  0  0  0  0  0  0  0  0  0  0  0
    7.0273   -1.3904    0.0000 C   0  0  0  0  0  0  0  0  0  0  0  0
    6.3133   -2.5930    0.0000 C   0  0  0  0  0  0  0  0  0  0  0  0
    7.7413   -2.5930    0.0000 C   0  0  0  0  0  0  0  0  0  0  0  0
    1.1649   -0.9770    0.0000 C   0  0  0  0  0  0  0  0  0  0  0  0
    1.6535   -1.6535    0.0000 C   0  0  0  0  0  0  0  0  0  0  0  0
    1.5032   -0.2255    0.0000 C   0  0  0  0  0  0  0  0  0  0  0  0
    0.3382   -1.0898    0.0000 C   0  0  0  0  0  0  0  0  0  0  0  0
    8.4553   -3.8331    0.0000 C   0  0  0  0  0  0  0  0  0  0  0  0
    9.8458   -3.8331    0.0000 C   0  0  3  0  0  0  0  0  0  0  0  0
    9.1693   -3.4197    0.0000 C   0  0  0  0  0  0  0  0  0  0  0  0
   10.5598   -3.4197    0.0000 C   0  0  0  0  0  0  0  0  0  0  0  0
    9.8458   -4.6598    0.0000 C   0  0  0  0  0  0  0  0  0  0  0  0
   10.5973   -5.0356    0.0000 C   0  0  0  0  0  0  0  0  0  0  0  0
   11.2737   -4.6222    0.0000 C   0  0  0  0  0  0  0  0  0  0  0  0
  1 10  1  0  0  0  0
  2 20  2  0  0  0  0
  3 28  1  0  0  0  0
  3 31  1  0  0  0  0
  4  5  1  0  0  0  0
  4 10  1  0  0  0  0
  4 11  1  0  0  0  0
  5 13  2  0  0  0  0
  6 11  2  0  0  0  0
  6 18  1  0  0  0  0
  7 20  1  0  0  0  0
  7 25  1  0  0  0  0
  8 24  3  0  0  0  0
  9 10  2  0  0  0  0
  9 12  1  0  0  0  0
  9 13  1  0  0  0  0
 11 14  1  0  0  0  0
 12 16  2  0  0  0  0
 12 17  1  0  0  0  0
 14 19  2  0  0  0  0
 15 18  2  0  0  0  0
 15 19  1  0  0  0  0
 15 20  1  0  0  0  0
 16 22  1  0  0  0  0
 17 23  2  0  0  0  0
 21 22  2  0  0  0  0
 21 23  1  0  0  0  0
 21 24  1  0  0  0  0
 25 27  1  0  0  0  0
 26 27  1  0  0  0  0
 26 28  1  0  0  0  0
 26 29  1  0  0  0  0
 29 30  1  0  0  0  0
 30 31  1  0  0  0  0
M  END
> <PUBCHEM_COMPOUND_ID_TYPE>
0

> <PUBCHEM_TOTAL_CHARGE>
0

> <PUBCHEM_SUBSTANCE_ID>
310932971

> <PUBCHEM_SUBSTANCE_VERSION>
1

> <PUBCHEM_EXT_DATASOURCE_NAME>
4488

> <PUBCHEM_EXT_DATASOURCE_REGID>
SCHEMBL16110368

> <PUBCHEM_SUBSTANCE_COMMENT>
InChI=1S/C23H23N5O3/c24-12-16-3-5-18(6-4-16)20-14-27-28(23(20)30)21-8-7-19(13-26-21)22(29)25-10-9-17-2-1-11-31-15-17/h3-8,13-14,17,30H,1-2,9-11,15H2,(H,25,29)
InChIKey=KGFRUOSAAJXDCS-UHFFFAOYSA-N

> <PUBCHEM_SUBSTANCE_SYNONYM>
SCHEMBL16110368

> <PUBCHEM_XREF_EXT_ID>
SCHEMBL16110368

> <PUBCHEM_EXT_DATASOURCE_URL>
https://www.surechembl.org/

> <PUBCHEM_EXT_SUBSTANCE_URL>
https://www.surechembl.org/chemical/SCHEMBL16110368

> <PUBCHEM_CID_ASSOCIATIONS>
117601448  1

> <PUBCHEM_COORDINATE_TYPE>
1
3

$$$$
