310934709
  -OEChem-07211613022D

 20 21  0     1  0  0  0  0  0999 V2000
   -2.3150    0.3263    0.0000 O   0  0  0  0  0  0  0  0  0  0  0  0
   -2.8579   -3.3682    0.0000 O   0  0  0  0  0  0  0  0  0  0  0  0
    0.0000   -3.3682    0.0000 O   0  0  0  0  0  0  0  0  0  0  0  0
   -0.7144   -2.1307    0.0000 O   0  0  0  0  0  0  0  0  0  0  0  0
   -3.5724   -2.9557    0.0000 N   0  0  0  0  0  0  0  0  0  0  0  0
   -2.8579   -0.8932    0.0000 C   0  0  0  0  0  0  0  0  0  0  0  0
   -2.1434   -2.1307    0.0000 C   0  0  0  0  0  0  0  0  0  0  0  0
   -2.1434   -0.4807    0.0000 C   0  0  0  0  0  0  0  0  0  0  0  0
   -2.1434   -2.9557    0.0000 C   0  0  3  0  0  0  0  0  0  0  0  0
   -2.8579   -1.7182    0.0000 C   0  0  0  0  0  0  0  0  0  0  0  0
   -1.4290   -1.7182    0.0000 C   0  0  0  0  0  0  0  0  0  0  0  0
   -1.4290   -0.8932    0.0000 C   0  0  0  0  0  0  0  0  0  0  0  0
   -3.4710   -0.3412    0.0000 C   0  0  0  0  0  0  0  0  0  0  0  0
   -1.4290   -3.3682    0.0000 C   0  0  0  0  0  0  0  0  0  0  0  0
   -0.7144   -2.9557    0.0000 C   0  0  0  0  0  0  0  0  0  0  0  0
   -3.1354    0.4125    0.0000 C   0  0  0  0  0  0  0  0  0  0  0  0
    0.7144   -2.9557    0.0000 C   0  0  0  0  0  0  0  0  0  0  0  0
    0.7144   -2.1307    0.0000 C   0  0  0  0  0  0  0  0  0  0  0  0
    1.4290   -2.5432    0.0000 C   0  0  0  0  0  0  0  0  0  0  0  0
    1.4290   -3.3682    0.0000 C   0  0  0  0  0  0  0  0  0  0  0  0
  1  8  1  0  0  0  0
  1 16  1  0  0  0  0
  2  5  1  0  0  0  0
  2  9  1  0  0  0  0
  3 15  1  0  0  0  0
  3 17  1  0  0  0  0
  4 15  2  0  0  0  0
  6  8  1  0  0  0  0
  6 10  2  0  0  0  0
  6 13  1  0  0  0  0
  7  9  1  0  0  0  0
  7 10  1  0  0  0  0
  7 11  2  0  0  0  0
  8 12  2  0  0  0  0
  9 14  1  0  0  0  0
 11 12  1  0  0  0  0
 13 16  1  0  0  0  0
 14 15  1  0  0  0  0
 17 18  1  0  0  0  0
 17 19  1  0  0  0  0
 17 20  1  0  0  0  0
M  END
> <PUBCHEM_COMPOUND_ID_TYPE>
0

> <PUBCHEM_TOTAL_CHARGE>
0

> <PUBCHEM_SUBSTANCE_ID>
310934709

> <PUBCHEM_SUBSTANCE_VERSION>
1

> <PUBCHEM_EXT_DATASOURCE_NAME>
4488

> <PUBCHEM_EXT_DATASOURCE_REGID>
SCHEMBL16112210

> <PUBCHEM_SUBSTANCE_COMMENT>
InChI=1S/C15H21NO4/c1-15(2,3)19-14(17)9-13(20-16)10-4-5-12-11(8-10)6-7-18-12/h4-5,8,13H,6-7,9,16H2,1-3H3
InChIKey=YYOWLLRPQZGAAP-UHFFFAOYSA-N

> <PUBCHEM_SUBSTANCE_SYNONYM>
SCHEMBL16112210

> <PUBCHEM_XREF_EXT_ID>
SCHEMBL16112210

> <PUBCHEM_EXT_DATASOURCE_URL>
https://www.surechembl.org/

> <PUBCHEM_EXT_SUBSTANCE_URL>
https://www.surechembl.org/chemical/SCHEMBL16112210

> <PUBCHEM_CID_ASSOCIATIONS>
117602868  1

> <PUBCHEM_COORDINATE_TYPE>
1
3

$$$$
