310939041
  -OEChem-07211613022D

 24 23  0     1  0  0  0  0  0999 V2000
   -0.0053    0.4898    0.0000 O   0  0  0  0  0  0  0  0  0  0  0  0
   -0.7197    1.7273    0.0000 O   0  0  0  0  0  0  0  0  0  0  0  0
   -0.5070   -1.7273    0.0000 O   0  0  0  0  0  0  0  0  0  0  0  0
    2.8526    0.4898    0.0000 O   0  0  0  0  0  0  0  0  0  0  0  0
   -1.4342   -0.3352    0.0000 N   0  0  0  0  0  0  0  0  0  0  0  0
   -1.4342    0.4898    0.0000 C   0  0  3  0  0  0  0  0  0  0  0  0
   -0.7197    0.9023    0.0000 C   0  0  0  0  0  0  0  0  0  0  0  0
   -2.1487    0.9023    0.0000 C   0  0  0  0  0  0  0  0  0  0  0  0
   -0.5070   -0.9023    0.0000 C   0  0  0  0  0  0  0  0  0  0  0  0
   -2.2932   -0.2836    0.0000 C   0  0  0  0  0  0  0  0  0  0  0  0
   -2.1487    1.7273    0.0000 C   0  0  0  0  0  0  0  0  0  0  0  0
   -2.8631    0.4898    0.0000 C   0  0  0  0  0  0  0  0  0  0  0  0
    0.7092    0.9023    0.0000 C   0  0  0  0  0  0  0  0  0  0  0  0
   -1.5787   -0.6961    0.0000 C   0  0  0  0  0  0  0  0  0  0  0  0
    1.4237    0.4898    0.0000 C   0  0  0  0  0  0  0  0  0  0  0  0
   -0.8643   -0.2836    0.0000 C   0  0  0  0  0  0  0  0  0  0  0  0
   -0.1498   -0.6961    0.0000 C   0  0  0  0  0  0  0  0  0  0  0  0
    2.1382    0.9023    0.0000 C   0  0  0  0  0  0  0  0  0  0  0  0
    0.5647   -0.2836    0.0000 C   0  0  0  0  0  0  0  0  0  0  0  0
    1.2791   -0.6961    0.0000 C   0  0  0  0  0  0  0  0  0  0  0  0
    1.9936   -0.2836    0.0000 C   0  0  0  0  0  0  0  0  0  0  0  0
    2.7081   -0.6961    0.0000 C   0  0  0  0  0  0  0  0  0  0  0  0
    1.0324   -0.4898    0.0000 C   0  0  0  0  0  0  0  0  0  0  0  0
    2.1089   -0.4898    0.0000 C   0  0  0  0  0  0  0  0  0  0  0  0
  1  7  1  0  0  0  0
  1 13  1  0  0  0  0
  2  7  2  0  0  0  0
  3  9  2  0  0  0  0
  4 18  1  0  0  0  0
  5  6  1  0  0  0  0
  5  9  1  0  0  0  0
  6  7  1  0  0  0  0
  6  8  1  0  0  0  0
  8 11  1  0  0  0  0
  8 12  1  0  0  0  0
  9 10  1  0  0  0  0
 10 14  1  0  0  0  0
 13 15  1  0  0  0  0
 14 16  1  0  0  0  0
 15 18  1  0  0  0  0
 16 17  1  0  0  0  0
 17 19  1  0  0  0  0
 19 20  1  0  0  0  0
 20 21  1  0  0  0  0
 21 22  1  0  0  0  0
 22 23  1  0  0  0  0
 23 24  2  0  0  0  0
M  END
> <PUBCHEM_COMPOUND_ID_TYPE>
0

> <PUBCHEM_TOTAL_CHARGE>
0

> <PUBCHEM_SUBSTANCE_ID>
310939041

> <PUBCHEM_SUBSTANCE_VERSION>
1

> <PUBCHEM_EXT_DATASOURCE_NAME>
4488

> <PUBCHEM_EXT_DATASOURCE_REGID>
SCHEMBL16116960

> <PUBCHEM_SUBSTANCE_COMMENT>
InChI=1S/C19H35NO4/c1-4-5-6-7-8-9-10-11-13-17(22)20-18(16(2)3)19(23)24-15-12-14-21/h4,16,18,21H,1,5-15H2,2-3H3,(H,20,22)
InChIKey=VMDPABVNKBREPP-UHFFFAOYSA-N

> <PUBCHEM_SUBSTANCE_SYNONYM>
SCHEMBL16116960

> <PUBCHEM_XREF_EXT_ID>
SCHEMBL16116960

> <PUBCHEM_EXT_DATASOURCE_URL>
https://www.surechembl.org/

> <PUBCHEM_EXT_SUBSTANCE_URL>
https://www.surechembl.org/chemical/SCHEMBL16116960

> <PUBCHEM_CID_ASSOCIATIONS>
117606411  1

> <PUBCHEM_COORDINATE_TYPE>
1
3

$$$$
