310941059
  -OEChem-07211613022D

 40 43  0     1  0  0  0  0  0999 V2000
    5.0372    0.6468    0.0000 O   0  0  0  0  0  0  0  0  0  0  0  0
    3.9086   -1.3075    0.0000 O   0  0  0  0  0  0  0  0  0  0  0  0
    1.7617    0.7570    0.0000 O   0  0  0  0  0  0  0  0  0  0  0  0
   -0.3716   -1.3075    0.0000 O   0  0  0  0  0  0  0  0  0  0  0  0
   -2.5186    0.7570    0.0000 O   0  0  0  0  0  0  0  0  0  0  0  0
   -5.3675    0.7570    0.0000 O   0  0  0  0  0  0  0  0  0  0  0  0
    2.4910   -0.4679    0.0000 N   0  0  0  0  0  0  0  0  0  0  0  0
    0.3441   -0.0550    0.0000 N   0  0  0  0  0  0  0  0  0  0  0  0
   -1.8029   -0.4679    0.0000 N   0  0  0  0  0  0  0  0  0  0  0  0
   -3.9362   -0.0550    0.0000 N   0  0  0  0  0  0  0  0  0  0  0  0
    3.1930   -1.7066    0.0000 N   0  0  0  0  0  0  0  0  0  0  0  0
    4.6243   -0.0138    0.0000 C   0  0  3  0  0  0  0  0  0  0  0  0
    3.9224   -0.4266    0.0000 C   0  0  0  0  0  0  0  0  0  0  0  0
    4.2389    0.6606    0.0000 C   0  0  0  0  0  0  0  0  0  0  0  0
    3.1930   -0.0413    0.0000 C   0  0  3  0  0  0  0  0  0  0  0  0
    5.3675   -0.4541    0.0000 C   0  0  0  0  0  0  0  0  0  0  0  0
    3.1930    1.2799    0.0000 C   0  0  0  0  0  0  0  0  0  0  0  0
    1.7754   -0.0550    0.0000 C   0  0  0  0  0  0  0  0  0  0  0  0
    1.0735   -0.4404    0.0000 C   0  0  3  0  0  0  0  0  0  0  0  0
    2.4910    1.7066    0.0000 C   0  0  0  0  0  0  0  0  0  0  0  0
    1.0597   -1.2799    0.0000 C   0  0  0  0  0  0  0  0  0  0  0  0
   -0.3579   -0.4266    0.0000 C   0  0  0  0  0  0  0  0  0  0  0  0
    1.7754    1.2937    0.0000 C   0  0  0  0  0  0  0  0  0  0  0  0
    2.4910    2.5048    0.0000 C   0  0  0  0  0  0  0  0  0  0  0  0
    1.7892   -1.6928    0.0000 C   0  0  0  0  0  0  0  0  0  0  0  0
   -1.0872   -0.0413    0.0000 C   0  0  3  0  0  0  0  0  0  0  0  0
    1.0735    1.6928    0.0000 C   0  0  0  0  0  0  0  0  0  0  0  0
    1.7617    2.9177    0.0000 C   0  0  0  0  0  0  0  0  0  0  0  0
    2.4773   -1.2799    0.0000 C   0  0  0  0  0  0  0  0  0  0  0  0
    1.7754   -2.5186    0.0000 C   0  0  0  0  0  0  0  0  0  0  0  0
   -2.5186   -0.0550    0.0000 C   0  0  0  0  0  0  0  0  0  0  0  0
    1.0735    2.5186    0.0000 C   0  0  0  0  0  0  0  0  0  0  0  0
   -3.2067   -0.4404    0.0000 C   0  0  0  0  0  0  0  0  0  0  0  0
   -1.0735    0.7982    0.0000 C   0  0  0  0  0  0  0  0  0  0  0  0
    2.5048   -2.9177    0.0000 C   0  0  0  0  0  0  0  0  0  0  0  0
    3.2067   -2.5186    0.0000 C   0  0  0  0  0  0  0  0  0  0  0  0
   -3.9362    0.7707    0.0000 C   0  0  0  0  0  0  0  0  0  0  0  0
   -4.6243   -0.4404    0.0000 C   0  0  0  0  0  0  0  0  0  0  0  0
   -4.6655    1.1974    0.0000 C   0  0  0  0  0  0  0  0  0  0  0  0
   -5.3675   -0.0413    0.0000 C   0  0  0  0  0  0  0  0  0  0  0  0
  1 12  1  0  0  0  0
  1 14  1  0  0  0  0
  2 13  2  0  0  0  0
  3 18  2  0  0  0  0
  4 22  2  0  0  0  0
  5 31  2  0  0  0  0
  6 39  1  0  0  0  0
  6 40  1  0  0  0  0
  7 15  1  0  0  0  0
  7 18  1  0  0  0  0
  8 19  1  0  0  0  0
  8 22  1  0  0  0  0
  9 26  1  0  0  0  0
  9 31  1  0  0  0  0
 10 33  1  0  0  0  0
 10 37  1  0  0  0  0
 10 38  1  0  0  0  0
 11 29  2  0  0  0  0
 11 36  1  0  0  0  0
 12 13  1  0  0  0  0
 12 14  1  0  0  0  0
 12 16  1  0  0  0  0
 13 15  1  0  0  0  0
 15 17  1  0  0  0  0
 17 20  1  0  0  0  0
 18 19  1  0  0  0  0
 19 21  1  0  0  0  0
 20 23  2  0  0  0  0
 20 24  1  0  0  0  0
 21 25  1  0  0  0  0
 22 26  1  0  0  0  0
 23 27  1  0  0  0  0
 24 28  2  0  0  0  0
 25 29  1  0  0  0  0
 25 30  2  0  0  0  0
 26 34  1  0  0  0  0
 27 32  2  0  0  0  0
 28 32  1  0  0  0  0
 30 35  1  0  0  0  0
 31 33  1  0  0  0  0
 35 36  2  0  0  0  0
 37 39  1  0  0  0  0
 38 40  1  0  0  0  0
M  END
> <PUBCHEM_COMPOUND_ID_TYPE>
0

> <PUBCHEM_TOTAL_CHARGE>
0

> <PUBCHEM_SUBSTANCE_ID>
310941059

> <PUBCHEM_SUBSTANCE_VERSION>
1

> <PUBCHEM_EXT_DATASOURCE_NAME>
4488

> <PUBCHEM_EXT_DATASOURCE_REGID>
SCHEMBL16119019

> <PUBCHEM_SUBSTANCE_COMMENT>
InChI=1S/C29H37N5O6/c1-20(31-25(35)18-34-11-13-39-14-12-34)27(37)33-24(16-22-9-6-10-30-17-22)28(38)32-23(26(36)29(2)19-40-29)15-21-7-4-3-5-8-21/h3-10,17,20,23-24H,11-16,18-19H2,1-2H3,(H,31,35)(H,32,38)(H,33,37)
InChIKey=MGVJOPNNIACKPR-UHFFFAOYSA-N

> <PUBCHEM_SUBSTANCE_SYNONYM>
SCHEMBL16119019

> <PUBCHEM_XREF_EXT_ID>
SCHEMBL16119019

> <PUBCHEM_EXT_DATASOURCE_URL>
https://www.surechembl.org/

> <PUBCHEM_EXT_SUBSTANCE_URL>
https://www.surechembl.org/chemical/SCHEMBL16119019

> <PUBCHEM_CID_ASSOCIATIONS>
117607951  1

> <PUBCHEM_COORDINATE_TYPE>
1
3

$$$$
