310945143
  -OEChem-07211613022D

 33 37  0     1  0  0  0  0  0999 V2000
    3.5143    2.6358    0.0000 O   0  0  0  0  0  0  0  0  0  0  0  0
   -4.2279   -0.4739    0.0000 O   0  0  0  0  0  0  0  0  0  0  0  0
    2.0234    0.3035    0.0000 N   0  0  0  0  0  0  0  0  0  0  0  0
    4.2279    1.3897    0.0000 N   0  0  0  0  0  0  0  0  0  0  0  0
    4.2279   -1.1022    0.0000 N   0  0  0  0  0  0  0  0  0  0  0  0
   -0.9265    0.9745    0.0000 N   0  0  0  0  0  0  0  0  0  0  0  0
   -0.9265   -1.9116    0.0000 N   0  0  0  0  0  0  0  0  0  0  0  0
   -2.9925   -1.1875    0.0000 N   0  0  0  0  0  0  0  0  0  0  0  0
    3.5143    0.1437    0.0000 C   0  0  3  0  0  0  0  0  0  0  0  0
    2.7795    0.5697    0.0000 C   0  0  0  0  0  0  0  0  0  0  0  0
    2.8008    1.3897    0.0000 C   0  0  0  0  0  0  0  0  0  0  0  0
    1.5336    0.9745    0.0000 C   0  0  0  0  0  0  0  0  0  0  0  0
    2.0127    1.6454    0.0000 C   0  0  0  0  0  0  0  0  0  0  0  0
    3.5037    1.7945    0.0000 C   0  0  0  0  0  0  0  0  0  0  0  0
    4.2172    0.5591    0.0000 C   0  0  0  0  0  0  0  0  0  0  0  0
    0.7135    0.9851    0.0000 C   0  0  0  0  0  0  0  0  0  0  0  0
    4.2172   -0.2715    0.0000 C   0  0  0  0  0  0  0  0  0  0  0  0
    2.8008   -0.2715    0.0000 C   0  0  0  0  0  0  0  0  0  0  0  0
    0.2982    0.2609    0.0000 C   0  0  0  0  0  0  0  0  0  0  0  0
   -0.5218    0.2609    0.0000 C   0  0  0  0  0  0  0  0  0  0  0  0
    2.7902   -1.0916    0.0000 C   0  0  0  0  0  0  0  0  0  0  0  0
    0.3088    1.6879    0.0000 C   0  0  0  0  0  0  0  0  0  0  0  0
   -0.9372   -0.4739    0.0000 C   0  0  0  0  0  0  0  0  0  0  0  0
    3.5250   -1.5176    0.0000 C   0  0  0  0  0  0  0  0  0  0  0  0
   -0.5218    1.6986    0.0000 C   0  0  0  0  0  0  0  0  0  0  0  0
   -1.7572   -0.4633    0.0000 C   0  0  0  0  0  0  0  0  0  0  0  0
   -2.1725   -1.1981    0.0000 C   0  0  0  0  0  0  0  0  0  0  0  0
   -0.5325   -1.1767    0.0000 C   0  0  0  0  0  0  0  0  0  0  0  0
   -1.7678   -1.9009    0.0000 C   0  0  0  0  0  0  0  0  0  0  0  0
   -3.3866   -0.4633    0.0000 C   0  0  0  0  0  0  0  0  0  0  0  0
   -2.1831   -2.6358    0.0000 C   0  0  0  0  0  0  0  0  0  0  0  0
   -2.9925    0.2715    0.0000 C   0  0  0  0  0  0  0  0  0  0  0  0
   -3.4611    0.9637    0.0000 C   0  0  0  0  0  0  0  0  0  0  0  0
  1 14  2  0  0  0  0
  2 30  2  0  0  0  0
  3 10  1  0  0  0  0
  3 12  1  0  0  0  0
  4 14  1  0  0  0  0
  4 15  1  0  0  0  0
  5 17  1  0  0  0  0
  5 24  1  0  0  0  0
  6 20  1  0  0  0  0
  6 25  2  0  0  0  0
  7 28  2  0  0  0  0
  7 29  1  0  0  0  0
  8 27  1  0  0  0  0
  8 30  1  0  0  0  0
  9 10  1  0  0  0  0
  9 15  1  0  0  0  0
  9 17  1  0  0  0  0
  9 18  1  0  0  0  0
 10 11  2  0  0  0  0
 11 13  1  0  0  0  0
 11 14  1  0  0  0  0
 12 13  2  0  0  0  0
 12 16  1  0  0  0  0
 16 19  1  0  0  0  0
 16 22  2  0  0  0  0
 18 21  1  0  0  0  0
 19 20  2  0  0  0  0
 20 23  1  0  0  0  0
 21 24  1  0  0  0  0
 22 25  1  0  0  0  0
 23 26  2  0  0  0  0
 23 28  1  0  0  0  0
 26 27  1  0  0  0  0
 27 29  2  0  0  0  0
 29 31  1  0  0  0  0
 30 32  1  0  0  0  0
 32 33  2  0  0  0  0
M  END
> <PUBCHEM_COMPOUND_ID_TYPE>
0

> <PUBCHEM_TOTAL_CHARGE>
0

> <PUBCHEM_SUBSTANCE_ID>
310945143

> <PUBCHEM_SUBSTANCE_VERSION>
1

> <PUBCHEM_EXT_DATASOURCE_NAME>
4488

> <PUBCHEM_EXT_DATASOURCE_REGID>
SCHEMBL16123233

> <PUBCHEM_SUBSTANCE_COMMENT>
InChI=1S/C25H26N6O2/c1-3-22(32)30-19-10-17(12-28-15(19)2)20-9-16(5-8-27-20)21-11-18-23(31-21)25(14-29-24(18)33)6-4-7-26-13-25/h3,5,8-12,26,31H,1,4,6-7,13-14H2,2H3,(H,29,33)(H,30,32)
InChIKey=CGKCWRGAGJDVPL-UHFFFAOYSA-N

> <PUBCHEM_SUBSTANCE_SYNONYM>
SCHEMBL16123233

> <PUBCHEM_XREF_EXT_ID>
SCHEMBL16123233

> <PUBCHEM_EXT_DATASOURCE_URL>
https://www.surechembl.org/

> <PUBCHEM_EXT_SUBSTANCE_URL>
https://www.surechembl.org/chemical/SCHEMBL16123233

> <PUBCHEM_CID_ASSOCIATIONS>
86302142  1

> <PUBCHEM_COORDINATE_TYPE>
1
3

$$$$
