310939608
  -OEChem-07211613022D

 31 33  0     1  0  0  0  0  0999 V2000
    1.7309   -2.4910    0.0000 O   0  0  0  0  0  0  0  0  0  0  0  0
   -1.4289    0.8410    0.0000 O   0  0  0  0  0  0  0  0  0  0  0  0
    5.0013    2.0785    0.0000 O   0  0  0  0  0  0  0  0  0  0  0  0
   -2.8579    0.0160    0.0000 O   0  0  0  0  0  0  0  0  0  0  0  0
    1.4289    0.0160    0.0000 N   0  0  0  0  0  0  0  0  0  0  0  0
    2.1434    1.2535    0.0000 N   0  0  0  0  0  0  0  0  0  0  0  0
    2.5559   -2.4910    0.0000 N   0  0  0  0  0  0  0  0  0  0  0  0
    3.5724    1.2535    0.0000 N   0  0  0  0  0  0  0  0  0  0  0  0
   -4.2868    0.8410    0.0000 N   0  0  0  0  0  0  0  0  0  0  0  0
    2.1434   -1.2215    0.0000 C   0  0  0  0  0  0  0  0  0  0  0  0
    2.1434   -0.3965    0.0000 C   0  0  0  0  0  0  0  0  0  0  0  0
    1.4289    0.8410    0.0000 C   0  0  0  0  0  0  0  0  0  0  0  0
    1.4760   -1.7064    0.0000 C   0  0  0  0  0  0  0  0  0  0  0  0
    2.8109   -1.7064    0.0000 C   0  0  0  0  0  0  0  0  0  0  0  0
    2.8579    0.0160    0.0000 C   0  0  0  0  0  0  0  0  0  0  0  0
    0.7145    1.2535    0.0000 C   0  0  0  0  0  0  0  0  0  0  0  0
    2.8579    0.8410    0.0000 C   0  0  0  0  0  0  0  0  0  0  0  0
    0.0000    0.8410    0.0000 C   0  0  0  0  0  0  0  0  0  0  0  0
    0.7145    2.0785    0.0000 C   0  0  0  0  0  0  0  0  0  0  0  0
   -0.7145    1.2535    0.0000 C   0  0  0  0  0  0  0  0  0  0  0  0
    0.6791   -1.4929    0.0000 C   0  0  0  0  0  0  0  0  0  0  0  0
    3.6077   -1.4929    0.0000 C   0  0  0  0  0  0  0  0  0  0  0  0
    0.0000    2.4910    0.0000 C   0  0  0  0  0  0  0  0  0  0  0  0
   -0.7145    2.0785    0.0000 C   0  0  0  0  0  0  0  0  0  0  0  0
    3.5724    2.0785    0.0000 C   0  0  0  0  0  0  0  0  0  0  0  0
   -2.1434    1.2535    0.0000 C   0  0  0  0  0  0  0  0  0  0  0  0
    4.2868    2.4910    0.0000 C   0  0  0  0  0  0  0  0  0  0  0  0
   -2.8579    0.8410    0.0000 C   0  0  3  0  0  0  0  0  0  0  0  0
   -3.5724    1.2535    0.0000 C   0  0  0  0  0  0  0  0  0  0  0  0
    5.0013    1.2535    0.0000 C   0  0  0  0  0  0  0  0  0  0  0  0
   -5.0013    1.2535    0.0000 C   0  0  0  0  0  0  0  0  0  0  0  0
  1  7  1  0  0  0  0
  1 13  1  0  0  0  0
  2 20  1  0  0  0  0
  2 26  1  0  0  0  0
  3 27  1  0  0  0  0
  3 30  1  0  0  0  0
  4 28  1  0  0  0  0
  5 11  2  0  0  0  0
  5 12  1  0  0  0  0
  6 12  2  0  0  0  0
  6 17  1  0  0  0  0
  7 14  2  0  0  0  0
  8 17  1  0  0  0  0
  8 25  1  0  0  0  0
  9 29  1  0  0  0  0
  9 31  1  0  0  0  0
 10 11  1  0  0  0  0
 10 13  2  0  0  0  0
 10 14  1  0  0  0  0
 11 15  1  0  0  0  0
 12 16  1  0  0  0  0
 13 21  1  0  0  0  0
 14 22  1  0  0  0  0
 15 17  2  0  0  0  0
 16 18  2  0  0  0  0
 16 19  1  0  0  0  0
 18 20  1  0  0  0  0
 19 23  2  0  0  0  0
 20 24  2  0  0  0  0
 23 24  1  0  0  0  0
 25 27  1  0  0  0  0
 26 28  1  0  0  0  0
 28 29  1  0  0  0  0
M  END
> <PUBCHEM_COMPOUND_ID_TYPE>
0

> <PUBCHEM_TOTAL_CHARGE>
0

> <PUBCHEM_SUBSTANCE_ID>
310939608

> <PUBCHEM_SUBSTANCE_VERSION>
1

> <PUBCHEM_EXT_DATASOURCE_NAME>
4488

> <PUBCHEM_EXT_DATASOURCE_REGID>
SCHEMBL16117538

> <PUBCHEM_SUBSTANCE_COMMENT>
InChI=1S/C22H29N5O4/c1-14-21(15(2)31-27-14)19-11-20(24-8-9-29-4)26-22(25-19)16-6-5-7-18(10-16)30-13-17(28)12-23-3/h5-7,10-11,17,23,28H,8-9,12-13H2,1-4H3,(H,24,25,26)
InChIKey=ZPSPGMNIUPAILS-UHFFFAOYSA-N

> <PUBCHEM_SUBSTANCE_SYNONYM>
SCHEMBL16117538

> <PUBCHEM_XREF_EXT_ID>
SCHEMBL16117538

> <PUBCHEM_EXT_DATASOURCE_URL>
https://www.surechembl.org/

> <PUBCHEM_EXT_SUBSTANCE_URL>
https://www.surechembl.org/chemical/SCHEMBL16117538

> <PUBCHEM_CID_ASSOCIATIONS>
117606863  1

> <PUBCHEM_COORDINATE_TYPE>
1
3

$$$$
