310947758
  -OEChem-07211613022D

 23 24  0     1  0  0  0  0  0999 V2000
   -2.3469    1.2181    0.0000 O   0  0  0  0  0  0  0  0  0  0  0  0
   -0.2684   -1.8999    0.0000 N   0  0  0  0  0  0  0  0  0  0  0  0
    0.3990   -2.3849    0.0000 N   0  0  0  0  0  0  0  0  0  0  0  0
   -0.9667    0.8483    0.0000 N   0  0  0  0  0  0  0  0  0  0  0  0
    2.0490   -0.4008    0.0000 N   0  0  3  0  0  0  0  0  0  0  0  0
    3.6990    1.0281    0.0000 N   0  0  0  0  0  0  0  0  0  0  0  0
   -0.0135   -1.1153    0.0000 C   0  0  0  0  0  0  0  0  0  0  0  0
   -0.5968   -0.5320    0.0000 C   0  0  0  0  0  0  0  0  0  0  0  0
    0.8115   -1.1153    0.0000 C   0  0  0  0  0  0  0  0  0  0  0  0
    1.0665   -1.8999    0.0000 C   0  0  0  0  0  0  0  0  0  0  0  0
   -0.3833    0.2649    0.0000 C   0  0  0  0  0  0  0  0  0  0  0  0
   -1.3937   -0.7455    0.0000 C   0  0  0  0  0  0  0  0  0  0  0  0
    1.2240   -0.4008    0.0000 C   0  0  0  0  0  0  0  0  0  0  0  0
   -1.7635    0.6348    0.0000 C   0  0  0  0  0  0  0  0  0  0  0  0
   -1.9771   -0.1621    0.0000 C   0  0  0  0  0  0  0  0  0  0  0  0
    2.4615    0.3136    0.0000 C   0  0  0  0  0  0  0  0  0  0  0  0
   -3.1438    1.0046    0.0000 C   0  0  0  0  0  0  0  0  0  0  0  0
    2.4615   -1.1153    0.0000 C   0  0  0  0  0  0  0  0  0  0  0  0
   -3.7272    1.5880    0.0000 C   0  0  0  0  0  0  0  0  0  0  0  0
    3.2865    0.3136    0.0000 C   0  0  0  0  0  0  0  0  0  0  0  0
   -4.5240    1.3744    0.0000 C   0  0  0  0  0  0  0  0  0  0  0  0
   -3.5136    2.3849    0.0000 C   0  0  0  0  0  0  0  0  0  0  0  0
    4.5240    1.0281    0.0000 C   0  0  0  0  0  0  0  0  0  0  0  0
  1 14  1  0  0  0  0
  1 17  1  0  0  0  0
  2  3  1  0  0  0  0
  2  7  2  0  0  0  0
  3 10  1  0  0  0  0
  4 11  2  0  0  0  0
  4 14  1  0  0  0  0
  5 13  1  0  0  0  0
  5 16  1  0  0  0  0
  5 18  1  0  0  0  0
  6 20  1  0  0  0  0
  6 23  1  0  0  0  0
  7  8  1  0  0  0  0
  7  9  1  0  0  0  0
  8 11  1  0  0  0  0
  8 12  2  0  0  0  0
  9 10  2  0  0  0  0
  9 13  1  0  0  0  0
 12 15  1  0  0  0  0
 14 15  2  0  0  0  0
 16 20  1  0  0  0  0
 17 19  1  0  0  0  0
 19 21  1  0  0  0  0
 19 22  1  0  0  0  0
M  END
> <PUBCHEM_COMPOUND_ID_TYPE>
0

> <PUBCHEM_TOTAL_CHARGE>
0

> <PUBCHEM_SUBSTANCE_ID>
310947758

> <PUBCHEM_SUBSTANCE_VERSION>
1

> <PUBCHEM_EXT_DATASOURCE_NAME>
4488

> <PUBCHEM_EXT_DATASOURCE_REGID>
SCHEMBL16125930

> <PUBCHEM_SUBSTANCE_COMMENT>
InChI=1S/C17H27N5O/c1-13(2)12-23-16-6-5-14(9-19-16)17-15(10-20-21-17)11-22(4)8-7-18-3/h5-6,9-10,13,18H,7-8,11-12H2,1-4H3,(H,20,21)
InChIKey=BZJUQKTXCGHPLL-UHFFFAOYSA-N

> <PUBCHEM_SUBSTANCE_SYNONYM>
SCHEMBL16125930

> <PUBCHEM_XREF_EXT_ID>
SCHEMBL16125930

> <PUBCHEM_EXT_DATASOURCE_URL>
https://www.surechembl.org/

> <PUBCHEM_EXT_SUBSTANCE_URL>
https://www.surechembl.org/chemical/SCHEMBL16125930

> <PUBCHEM_CID_ASSOCIATIONS>
86302010  1

> <PUBCHEM_COORDINATE_TYPE>
1
3

$$$$
