310934660
  -OEChem-07211613022D

 26 28  0     1  0  0  0  0  0999 V2000
    0.8449   -4.3331    0.0000 Br  0  0  0  0  0  0  0  0  0  0  0  0
    5.3946   -0.7150    0.0000 S   0  0  0  0  0  0  0  0  0  0  0  0
    0.0000   -2.9248    0.0000 F   0  0  0  0  0  0  0  0  0  0  0  0
    2.4699    0.0000    0.0000 O   0  0  0  0  0  0  0  0  0  0  0  0
    1.6466   -1.4299    0.0000 O   0  0  0  0  0  0  0  0  0  0  0  0
    1.6682   -2.8815    0.0000 O   0  0  0  0  0  0  0  0  0  0  0  0
    3.3148   -1.4516    0.0000 N   0  0  0  0  0  0  0  0  0  0  0  0
    2.4699   -1.4299    0.0000 N   0  0  0  0  0  0  0  0  0  0  0  0
    3.7047   -0.7150    0.0000 C   0  0  0  0  0  0  0  0  0  0  0  0
    2.8815   -0.7150    0.0000 C   0  0  0  0  0  0  0  0  0  0  0  0
    4.1598   -1.4299    0.0000 C   0  0  0  0  0  0  0  0  0  0  0  0
    4.1598   -0.0216    0.0000 C   0  0  0  0  0  0  0  0  0  0  0  0
    2.6432   -1.6249    0.0000 C   0  0  0  0  0  0  0  0  0  0  0  0
    2.0799   -2.1665    0.0000 C   0  0  0  0  0  0  0  0  0  0  0  0
    4.9614   -1.4299    0.0000 C   0  0  0  0  0  0  0  0  0  0  0  0
    4.9614   -0.0216    0.0000 C   0  0  0  0  0  0  0  0  0  0  0  0
    1.2349   -2.1882    0.0000 C   0  0  0  0  0  0  0  0  0  0  0  0
    0.8449   -2.9031    0.0000 C   0  0  0  0  0  0  0  0  0  0  0  0
    2.4915   -2.8815    0.0000 C   0  0  0  0  0  0  0  0  0  0  0  0
    1.2566   -3.6181    0.0000 C   0  0  0  0  0  0  0  0  0  0  0  0
    1.3866   -2.3182    0.0000 C   0  0  3  0  0  0  0  0  0  0  0  0
    2.0799   -3.6181    0.0000 C   0  0  0  0  0  0  0  0  0  0  0  0
    0.4116   -2.1449    0.0000 C   0  0  0  0  0  0  0  0  0  0  0  0
    1.3866   -3.7481    0.0000 C   0  0  0  0  0  0  0  0  0  0  0  0
    0.1517   -3.0332    0.0000 C   0  0  0  0  0  0  0  0  0  0  0  0
    0.4116   -3.5748    0.0000 C   0  0  0  0  0  0  0  0  0  0  0  0
  1 20  1  0  0  0  0
  2 15  1  0  0  0  0
  2 16  1  0  0  0  0
  3 18  1  0  0  0  0
  4 10  2  0  0  0  0
  5  8  1  0  0  0  0
  5 21  1  0  0  0  0
  6 21  1  0  0  0  0
  6 24  1  0  0  0  0
  7  9  1  0  0  0  0
  7 13  1  0  0  0  0
  8 10  1  0  0  0  0
  9 10  1  0  0  0  0
  9 11  1  0  0  0  0
  9 12  1  0  0  0  0
 11 15  1  0  0  0  0
 12 16  1  0  0  0  0
 13 14  1  0  0  0  0
 14 17  2  0  0  0  0
 14 19  1  0  0  0  0
 17 18  1  0  0  0  0
 18 20  2  0  0  0  0
 19 22  2  0  0  0  0
 20 22  1  0  0  0  0
 21 23  1  0  0  0  0
 23 25  1  0  0  0  0
 24 26  1  0  0  0  0
 25 26  1  0  0  0  0
M  END
> <PUBCHEM_COMPOUND_ID_TYPE>
0

> <PUBCHEM_TOTAL_CHARGE>
0

> <PUBCHEM_SUBSTANCE_ID>
310934660

> <PUBCHEM_SUBSTANCE_VERSION>
1

> <PUBCHEM_EXT_DATASOURCE_NAME>
4488

> <PUBCHEM_EXT_DATASOURCE_REGID>
SCHEMBL16112158

> <PUBCHEM_SUBSTANCE_COMMENT>
InChI=1S/C18H24BrFN2O3S/c19-14-5-4-13(11-15(14)20)12-21-18(6-9-26-10-7-18)17(23)22-25-16-3-1-2-8-24-16/h4-5,11,16,21H,1-3,6-10,12H2,(H,22,23)
InChIKey=NMVUJOHPGDVBJZ-UHFFFAOYSA-N

> <PUBCHEM_SUBSTANCE_SYNONYM>
SCHEMBL16112158

> <PUBCHEM_XREF_EXT_ID>
SCHEMBL16112158

> <PUBCHEM_EXT_DATASOURCE_URL>
https://www.surechembl.org/

> <PUBCHEM_EXT_SUBSTANCE_URL>
https://www.surechembl.org/chemical/SCHEMBL16112158

> <PUBCHEM_CID_ASSOCIATIONS>
117602826  1

> <PUBCHEM_COORDINATE_TYPE>
1
3

$$$$
