310946268
  -OEChem-07211613022D

 24 25  0     1  0  0  0  0  0999 V2000
    3.5465    7.8422    0.0000 S   0  0  0  0  0  0  0  0  0  0  0  0
    2.7215    7.8422    0.0000 O   0  0  0  0  0  0  0  0  0  0  0  0
   -0.1364    7.8422    0.0000 O   0  0  0  0  0  0  0  0  0  0  0  0
   -0.1364   11.1422    0.0000 O   0  0  0  0  0  0  0  0  0  0  0  0
    3.9590    7.1278    0.0000 O   0  0  0  0  0  0  0  0  0  0  0  0
    3.9590    8.5567    0.0000 O   0  0  0  0  0  0  0  0  0  0  0  0
    4.3715    7.8422    0.0000 O   0  0  0  0  0  0  0  0  0  0  0  0
   -1.5654   10.3172    0.0000 O   0  0  0  0  0  0  0  0  0  0  0  0
    0.5780    9.0797    0.0000 N   0  0  0  0  0  0  0  0  0  0  0  0
    2.0070    8.2547    0.0000 N   0  0  0  0  0  0  0  0  0  0  0  0
   -0.8509    9.9047    0.0000 N   0  0  0  0  0  0  0  0  0  0  0  0
   -3.5777    9.7339    0.0000 N   0  0  0  0  0  0  0  0  0  0  0  0
    0.5780    8.2547    0.0000 C   0  0  0  0  0  0  0  0  0  0  0  0
    2.0070    9.0797    0.0000 C   0  0  3  0  0  0  0  0  0  0  0  0
    0.5780    9.9047    0.0000 C   0  0  3  0  0  0  0  0  0  0  0  0
    1.2925    8.6672    0.0000 C   0  0  0  0  0  0  0  0  0  0  0  0
    2.0070    9.9047    0.0000 C   0  0  0  0  0  0  0  0  0  0  0  0
    1.2925   10.3172    0.0000 C   0  0  0  0  0  0  0  0  0  0  0  0
   -0.1364   10.3172    0.0000 C   0  0  0  0  0  0  0  0  0  0  0  0
   -2.2798    9.9047    0.0000 C   0  0  0  0  0  0  0  0  0  0  0  0
   -2.9943   10.3172    0.0000 C   0  0  3  0  0  0  0  0  0  0  0  0
   -3.2078   11.1141    0.0000 C   0  0  0  0  0  0  0  0  0  0  0  0
   -4.3746    9.9474    0.0000 C   0  0  0  0  0  0  0  0  0  0  0  0
   -2.6245   11.6975    0.0000 C   0  0  0  0  0  0  0  0  0  0  0  0
  1  2  1  0  0  0  0
  1  5  2  0  0  0  0
  1  6  2  0  0  0  0
  1  7  1  0  0  0  0
  2 10  1  0  0  0  0
  3 13  2  0  0  0  0
  4 19  2  0  0  0  0
  8 11  1  0  0  0  0
  8 20  1  0  0  0  0
  9 13  1  0  0  0  0
  9 15  1  0  0  0  0
  9 16  1  0  0  0  0
 10 13  1  0  0  0  0
 10 14  1  0  0  0  0
 11 19  1  0  0  0  0
 12 21  1  0  0  0  0
 12 23  1  0  0  0  0
 14 16  1  6  0  0  0
 14 17  1  0  0  0  0
 15 18  1  0  0  0  0
 15 19  1  6  0  0  0
 17 18  1  0  0  0  0
 20 21  1  0  0  0  0
 21 22  1  0  0  0  0
 22 24  1  0  0  0  0
M  END
> <PUBCHEM_COMPOUND_ID_TYPE>
0

> <PUBCHEM_TOTAL_CHARGE>
0

> <PUBCHEM_SUBSTANCE_ID>
310946268

> <PUBCHEM_SUBSTANCE_VERSION>
1

> <PUBCHEM_EXT_DATASOURCE_NAME>
4488

> <PUBCHEM_EXT_DATASOURCE_REGID>
SCHEMBL16124386

> <PUBCHEM_SUBSTANCE_COMMENT>
InChI=1S/C12H22N4O7S/c1-3-8(13-2)7-22-14-11(17)10-5-4-9-6-15(10)12(18)16(9)23-24(19,20)21/h8-10,13H,3-7H2,1-2H3,(H,14,17)(H,19,20,21)/t8?,9-,10+/m1/s1
InChIKey=WDTGHVACLXNAOJ-XVBQNVSMSA-N

> <PUBCHEM_SUBSTANCE_SYNONYM>
SCHEMBL16124386

> <PUBCHEM_XREF_EXT_ID>
SCHEMBL16124386

> <PUBCHEM_EXT_DATASOURCE_URL>
https://www.surechembl.org/

> <PUBCHEM_EXT_SUBSTANCE_URL>
https://www.surechembl.org/chemical/SCHEMBL16124386

> <PUBCHEM_CID_ASSOCIATIONS>
117612216  1

> <PUBCHEM_COORDINATE_TYPE>
1
3

> <PUBCHEM_BONDANNOTATIONS>
14  16  6
15  19  6

$$$$
