310947204
  -OEChem-07211613022D

 57 59  0     1  0  0  0  0  0999 V2000
   -3.3929   -2.0203    0.0000 S   0  0  0  0  0  0  0  0  0  0  0  0
   -3.7217   -3.7632    0.0000 O   0  0  0  0  0  0  0  0  0  0  0  0
   -5.6150   -4.0652    0.0000 O   0  0  0  0  0  0  0  0  0  0  0  0
   -5.3131   -2.9382    0.0000 O   0  0  0  0  0  0  0  0  0  0  0  0
   -1.8259   -4.0418    0.0000 O   0  0  0  0  0  0  0  0  0  0  0  0
   -6.7419   -3.7632    0.0000 O   0  0  0  0  0  0  0  0  0  0  0  0
   -4.1073   -2.4328    0.0000 O   0  0  0  0  0  0  0  0  0  0  0  0
   -4.9275   -5.6976    0.0000 O   0  0  0  0  0  0  0  0  0  0  0  0
   -7.9526   -3.2578    0.0000 O   0  0  0  0  0  0  0  0  0  0  0  0
   -4.8614   -8.5361    0.0000 O   0  0  0  0  0  0  0  0  0  0  0  0
   -9.8861   -8.4335    0.0000 O   0  0  0  0  0  0  0  0  0  0  0  0
   -3.8054   -1.3058    0.0000 O   0  0  0  0  0  0  0  0  0  0  0  0
   -2.9804   -2.7348    0.0000 O   0  0  0  0  0  0  0  0  0  0  0  0
   -2.6784   -1.6078    0.0000 O   0  0  0  0  0  0  0  0  0  0  0  0
   -7.6423   -9.5746    0.0000 O   0  0  0  0  0  0  0  0  0  0  0  0
   -7.1223   -8.4335    0.0000 O   0  0  0  0  0  0  0  0  0  0  0  0
   -9.1302   -3.9768    0.0000 O   0  0  0  0  0  0  0  0  0  0  0  0
   -5.9560   -5.5207    0.0000 O   0  0  0  0  0  0  0  0  0  0  0  0
   -9.9331   -5.8861    0.0000 O   0  0  0  0  0  0  0  0  0  0  0  0
   -9.1901   -2.5433    0.0000 O   0  0  0  0  0  0  0  0  0  0  0  0
   -3.6900   -4.9831    0.0000 N   0  0  0  0  0  0  0  0  0  0  0  0
   -6.3605   -8.6937    0.0000 N   0  0  0  0  0  0  0  0  0  0  0  0
   -8.5042   -8.3611    0.0000 N   0  0  0  0  0  0  0  0  0  0  0  0
   -7.3363   -5.0655    0.0000 N   0  0  0  0  0  0  0  0  0  0  0  0
   -7.3363   -5.8905    0.0000 N   0  0  0  0  0  0  0  0  0  0  0  0
   -8.5042   -5.0611    0.0000 N   0  0  0  0  0  0  0  0  0  0  0  0
   -8.5042   -5.8861    0.0000 N   0  0  0  0  0  0  0  0  0  0  0  0
   -4.9006   -4.4777    0.0000 C   0  0  3  0  0  0  0  0  0  0  0  0
   -4.1025   -4.2686    0.0000 C   0  0  3  0  0  0  0  0  0  0  0  0
   -5.3131   -3.7632    0.0000 C   0  0  3  0  0  0  0  0  0  0  0  0
   -4.5198   -3.9723    0.0000 C   0  0  3  0  0  0  0  0  0  0  0  0
   -3.3092   -4.4777    0.0000 C   0  0  3  0  0  0  0  0  0  0  0  0
   -6.3295   -4.4777    0.0000 C   0  0  3  0  0  0  0  0  0  0  0  0
   -4.1073   -3.2578    0.0000 C   0  0  0  0  0  0  0  0  0  0  0  0
   -4.1025   -5.6976    0.0000 C   0  0  0  0  0  0  0  0  0  0  0  0
   -7.1227   -4.2686    0.0000 C   0  0  0  0  0  0  0  0  0  0  0  0
   -7.5401   -3.9723    0.0000 C   0  0  3  0  0  0  0  0  0  0  0  0
   -5.5759   -8.9486    0.0000 C   0  0  0  0  0  0  0  0  0  0  0  0
   -9.1716   -8.8460    0.0000 C   0  0  0  0  0  0  0  0  0  0  0  0
   -6.8454   -9.3611    0.0000 C   0  0  0  0  0  0  0  0  0  0  0  0
   -7.8367   -8.8460    0.0000 C   0  0  0  0  0  0  0  0  0  0  0  0
   -5.5759   -9.7736    0.0000 C   0  0  3  0  0  0  0  0  0  0  0  0
   -8.9167   -9.6306    0.0000 C   0  0  3  0  0  0  0  0  0  0  0  0
   -6.3605  -10.0286    0.0000 C   0  0  0  0  0  0  0  0  0  0  0  0
   -8.0917   -9.6306    0.0000 C   0  0  0  0  0  0  0  0  0  0  0  0
   -8.3333   -3.7632    0.0000 C   0  0  3  0  0  0  0  0  0  0  0  0
   -6.5741   -7.8968    0.0000 C   0  0  0  0  0  0  0  0  0  0  0  0
   -8.5042   -7.5361    0.0000 C   0  0  0  0  0  0  0  0  0  0  0  0
   -3.6900   -6.4120    0.0000 C   0  0  0  0  0  0  0  0  0  0  0  0
   -5.9907   -7.3134    0.0000 C   0  0  0  0  0  0  0  0  0  0  0  0
   -6.5394   -6.1040    0.0000 C   0  0  0  0  0  0  0  0  0  0  0  0
   -7.9208   -4.4777    0.0000 C   0  0  0  0  0  0  0  0  0  0  0  0
   -9.2187   -7.1236    0.0000 C   0  0  0  0  0  0  0  0  0  0  0  0
   -4.8614  -10.1861    0.0000 C   0  0  0  0  0  0  0  0  0  0  0  0
   -9.3292  -10.3451    0.0000 C   0  0  0  0  0  0  0  0  0  0  0  0
   -9.2187   -6.2986    0.0000 C   0  0  0  0  0  0  0  0  0  0  0  0
   -8.7776   -3.2578    0.0000 C   0  0  0  0  0  0  0  0  0  0  0  0
  1  7  1  0  0  0  0
  1 12  2  0  0  0  0
  1 13  2  0  0  0  0
  1 14  1  0  0  0  0
  2 31  1  0  0  0  0
  2 32  1  0  0  0  0
  3 28  1  0  0  0  0
  3 33  1  0  0  0  0
  4 30  1  0  0  0  0
  5 32  1  0  0  0  0
  6 33  1  0  0  0  0
  6 37  1  0  0  0  0
  7 34  1  0  0  0  0
  8 35  2  0  0  0  0
  9 37  1  0  0  0  0
  9 57  1  0  0  0  0
 10 38  2  0  0  0  0
 11 39  2  0  0  0  0
 15 40  2  0  0  0  0
 16 41  2  0  0  0  0
 17 46  1  0  0  0  0
 18 51  2  0  0  0  0
 19 56  2  0  0  0  0
 20 57  2  0  0  0  0
 21 29  1  0  0  0  0
 21 35  1  0  0  0  0
 22 38  1  0  0  0  0
 22 40  1  0  0  0  0
 22 47  1  0  0  0  0
 23 39  1  0  0  0  0
 23 41  1  0  0  0  0
 23 48  1  0  0  0  0
 24 25  1  0  0  0  0
 24 36  2  0  0  0  0
 25 51  1  0  0  0  0
 26 27  1  0  0  0  0
 26 52  2  0  0  0  0
 27 56  1  0  0  0  0
 28 29  1  0  0  0  0
 28 30  1  0  0  0  0
 29 32  1  0  0  0  0
 30 31  1  0  0  0  0
 31 34  1  0  0  0  0
 33 36  1  0  0  0  0
 35 49  1  0  0  0  0
 37 46  1  0  0  0  0
 38 42  1  0  0  0  0
 39 43  1  0  0  0  0
 40 44  1  0  0  0  0
 41 45  1  0  0  0  0
 42 44  1  0  0  0  0
 42 54  1  0  0  0  0
 43 45  1  0  0  0  0
 43 55  1  0  0  0  0
 46 52  1  0  0  0  0
 47 50  1  0  0  0  0
 48 53  1  0  0  0  0
 50 51  1  0  0  0  0
 53 56  1  0  0  0  0
M  END
> <PUBCHEM_COMPOUND_ID_TYPE>
0

> <PUBCHEM_TOTAL_CHARGE>
0

> <PUBCHEM_SUBSTANCE_ID>
310947204

> <PUBCHEM_SUBSTANCE_VERSION>
1

> <PUBCHEM_EXT_DATASOURCE_NAME>
4488

> <PUBCHEM_EXT_DATASOURCE_REGID>
SCHEMBL16125358

> <PUBCHEM_SUBSTANCE_COMMENT>
InChI=1S/C30H43N7O19S/c1-14-8-21(43)36(27(14)46)6-4-19(41)34-31-10-17(40)30(52-13-38)56-23(11-32-35-20(42)5-7-37-22(44)9-15(2)28(37)47)55-26-24(33-16(3)39)29(48)54-18(25(26)45)12-53-57(49,50)51/h10-11,13-15,17-18,23-26,29-30,40,45,48H,4-9,12H2,1-3H3,(H,33,39)(H,34,41)(H,35,42)(H,49,50,51)/b31-10+,32-11-
InChIKey=PWVRRNYKALESIF-IZYRDXIRSA-N

> <PUBCHEM_SUBSTANCE_SYNONYM>
SCHEMBL16125358

> <PUBCHEM_XREF_EXT_ID>
SCHEMBL16125358

> <PUBCHEM_EXT_DATASOURCE_URL>
https://www.surechembl.org/

> <PUBCHEM_EXT_SUBSTANCE_URL>
https://www.surechembl.org/chemical/SCHEMBL16125358

> <PUBCHEM_CID_ASSOCIATIONS>
117613027  1

> <PUBCHEM_COORDINATE_TYPE>
1
3

$$$$
