310938359
  -OEChem-07211613022D

 17 18  0     1  0  0  0  0  0999 V2000
   -2.8579   -1.6821    0.0000 O   0  0  0  0  0  0  0  0  0  0  0  0
   -2.1434   -0.4446    0.0000 O   0  0  0  0  0  0  0  0  0  0  0  0
   -3.5724    0.3804    0.0000 N   0  0  0  0  0  0  0  0  0  0  0  0
   -2.9049    0.8654    0.0000 N   0  0  0  0  0  0  0  0  0  0  0  0
   -3.5724   -0.4446    0.0000 C   0  0  3  0  0  0  0  0  0  0  0  0
   -2.8579   -0.8571    0.0000 C   0  0  0  0  0  0  0  0  0  0  0  0
   -4.2868   -0.8571    0.0000 C   0  0  0  0  0  0  0  0  0  0  0  0
   -4.2398    0.8654    0.0000 C   0  0  0  0  0  0  0  0  0  0  0  0
   -5.0013   -0.4446    0.0000 C   0  0  0  0  0  0  0  0  0  0  0  0
   -5.7158   -0.8571    0.0000 C   0  0  0  0  0  0  0  0  0  0  0  0
   -3.1599    1.6500    0.0000 C   0  0  0  0  0  0  0  0  0  0  0  0
   -3.9849    1.6500    0.0000 C   0  0  0  0  0  0  0  0  0  0  0  0
   -5.7158   -1.6821    0.0000 C   0  0  0  0  0  0  0  0  0  0  0  0
   -6.4302   -0.4446    0.0000 C   0  0  0  0  0  0  0  0  0  0  0  0
   -6.4302   -2.0946    0.0000 C   0  0  0  0  0  0  0  0  0  0  0  0
   -7.1447   -0.8571    0.0000 C   0  0  0  0  0  0  0  0  0  0  0  0
   -7.1447   -1.6821    0.0000 C   0  0  0  0  0  0  0  0  0  0  0  0
  1  6  2  0  0  0  0
  2  6  1  0  0  0  0
  3  4  1  0  0  0  0
  3  5  1  0  0  0  0
  3  8  1  0  0  0  0
  4 11  2  0  0  0  0
  5  6  1  0  0  0  0
  5  7  1  0  0  0  0
  7  9  1  0  0  0  0
  8 12  2  0  0  0  0
  9 10  1  0  0  0  0
 10 13  2  0  0  0  0
 10 14  1  0  0  0  0
 11 12  1  0  0  0  0
 13 15  1  0  0  0  0
 14 16  2  0  0  0  0
 15 17  2  0  0  0  0
 16 17  1  0  0  0  0
M  END
> <PUBCHEM_COMPOUND_ID_TYPE>
0

> <PUBCHEM_TOTAL_CHARGE>
0

> <PUBCHEM_SUBSTANCE_ID>
310938359

> <PUBCHEM_SUBSTANCE_VERSION>
1

> <PUBCHEM_EXT_DATASOURCE_NAME>
4488

> <PUBCHEM_EXT_DATASOURCE_REGID>
SCHEMBL16116244

> <PUBCHEM_SUBSTANCE_COMMENT>
InChI=1S/C13H14N2O2/c16-13(17)12(15-10-4-9-14-15)8-7-11-5-2-1-3-6-11/h1-6,9-10,12H,7-8H2,(H,16,17)
InChIKey=HYJGCPFLCPTHOM-UHFFFAOYSA-N

> <PUBCHEM_SUBSTANCE_SYNONYM>
SCHEMBL16116244

> <PUBCHEM_XREF_EXT_ID>
SCHEMBL16116244

> <PUBCHEM_EXT_DATASOURCE_URL>
https://www.surechembl.org/

> <PUBCHEM_EXT_SUBSTANCE_URL>
https://www.surechembl.org/chemical/SCHEMBL16116244

> <PUBCHEM_CID_ASSOCIATIONS>
117605842  1

> <PUBCHEM_COORDINATE_TYPE>
1
3

$$$$
