310949026
  -OEChem-07211613022D

 22 23  0     1  0  0  0  0  0999 V2000
    2.1619    1.3181    0.0000 Cl  0  0  0  0  0  0  0  0  0  0  0  0
   -0.7060    1.3291    0.0000 F   0  0  0  0  0  0  0  0  0  0  0  0
   -3.5847   -1.1747    0.0000 F   0  0  0  0  0  0  0  0  0  0  0  0
    2.8678    0.0717    0.0000 O   0  0  0  0  0  0  0  0  0  0  0  0
    2.1508   -1.1747    0.0000 O   0  0  0  0  0  0  0  0  0  0  0  0
    0.7169   -0.3364    0.0000 N   0  0  0  0  0  0  0  0  0  0  0  0
    0.7280    2.1563    0.0000 N   0  0  0  0  0  0  0  0  0  0  0  0
   -0.0110    0.0827    0.0000 C   0  0  0  0  0  0  0  0  0  0  0  0
    1.4339    0.0717    0.0000 C   0  0  0  0  0  0  0  0  0  0  0  0
    0.0110    0.9210    0.0000 C   0  0  0  0  0  0  0  0  0  0  0  0
    1.4449    0.8989    0.0000 C   0  0  0  0  0  0  0  0  0  0  0  0
    0.7280    1.3181    0.0000 C   0  0  0  0  0  0  0  0  0  0  0  0
   -0.7169   -0.3254    0.0000 C   0  0  0  0  0  0  0  0  0  0  0  0
    2.1508   -0.3143    0.0000 C   0  0  0  0  0  0  0  0  0  0  0  0
   -1.4449    0.0717    0.0000 C   0  0  0  0  0  0  0  0  0  0  0  0
   -0.7280   -1.1637    0.0000 C   0  0  0  0  0  0  0  0  0  0  0  0
   -2.1399   -1.1747    0.0000 C   0  0  0  0  0  0  0  0  0  0  0  0
   -2.1288   -0.3475    0.0000 C   0  0  0  0  0  0  0  0  0  0  0  0
   -1.4229   -1.5828    0.0000 C   0  0  0  0  0  0  0  0  0  0  0  0
   -2.8568   -1.5828    0.0000 C   0  0  3  0  0  0  0  0  0  0  0  0
    3.5847   -0.3475    0.0000 C   0  0  0  0  0  0  0  0  0  0  0  0
   -2.8457   -2.1563    0.0000 C   0  0  0  0  0  0  0  0  0  0  0  0
  1 11  1  0  0  0  0
  2 10  1  0  0  0  0
  3 20  1  0  0  0  0
  4 14  1  0  0  0  0
  4 21  1  0  0  0  0
  5 14  2  0  0  0  0
  6  8  2  0  0  0  0
  6  9  1  0  0  0  0
  7 12  1  0  0  0  0
  8 10  1  0  0  0  0
  8 13  1  0  0  0  0
  9 11  2  0  0  0  0
  9 14  1  0  0  0  0
 10 12  2  0  0  0  0
 11 12  1  0  0  0  0
 13 15  2  0  0  0  0
 13 16  1  0  0  0  0
 15 18  1  0  0  0  0
 16 19  2  0  0  0  0
 17 18  2  0  0  0  0
 17 19  1  0  0  0  0
 17 20  1  0  0  0  0
 20 22  1  0  0  0  0
M  END
> <PUBCHEM_COMPOUND_ID_TYPE>
0

> <PUBCHEM_TOTAL_CHARGE>
0

> <PUBCHEM_SUBSTANCE_ID>
310949026

> <PUBCHEM_SUBSTANCE_VERSION>
1

> <PUBCHEM_EXT_DATASOURCE_NAME>
4488

> <PUBCHEM_EXT_DATASOURCE_REGID>
SCHEMBL16127216

> <PUBCHEM_SUBSTANCE_COMMENT>
InChI=1S/C15H13ClF2N2O2/c1-7(17)8-3-5-9(6-4-8)13-11(18)12(19)10(16)14(20-13)15(21)22-2/h3-7H,1-2H3,(H2,19,20)
InChIKey=BYVVZITVHZSLPN-UHFFFAOYSA-N

> <PUBCHEM_SUBSTANCE_SYNONYM>
SCHEMBL16127216

> <PUBCHEM_XREF_EXT_ID>
SCHEMBL16127216

> <PUBCHEM_EXT_DATASOURCE_URL>
https://www.surechembl.org/

> <PUBCHEM_EXT_SUBSTANCE_URL>
https://www.surechembl.org/chemical/SCHEMBL16127216

> <PUBCHEM_CID_ASSOCIATIONS>
117614531  1

> <PUBCHEM_COORDINATE_TYPE>
1
3

$$$$
