310939728
  -OEChem-07211613022D

 17 18  0     1  0  0  0  0  0999 V2000
   -1.1941   -4.2611    0.0000 N   0  0  3  0  0  0  0  0  0  0  0  0
    1.3449   -5.0861    0.0000 N   0  0  3  0  0  0  0  0  0  0  0  0
    0.0754   -4.6736    0.0000 C   0  0  0  0  0  0  0  0  0  0  0  0
   -0.7092   -4.9285    0.0000 C   0  0  0  0  0  0  0  0  0  0  0  0
    0.8600   -4.4187    0.0000 C   0  0  0  0  0  0  0  0  0  0  0  0
    0.0754   -3.8486    0.0000 C   0  0  0  0  0  0  0  0  0  0  0  0
    0.0754   -5.4986    0.0000 C   0  0  0  0  0  0  0  0  0  0  0  0
   -2.0191   -4.2611    0.0000 C   0  0  0  0  0  0  0  0  0  0  0  0
    2.1699   -5.0861    0.0000 C   0  0  0  0  0  0  0  0  0  0  0  0
   -0.7092   -3.5937    0.0000 C   0  0  0  0  0  0  0  0  0  0  0  0
    0.8600   -5.7535    0.0000 C   0  0  0  0  0  0  0  0  0  0  0  0
    2.1699   -5.9111    0.0000 C   0  0  0  0  0  0  0  0  0  0  0  0
    2.1699   -4.2611    0.0000 C   0  0  0  0  0  0  0  0  0  0  0  0
   -2.0191   -5.0861    0.0000 C   0  0  0  0  0  0  0  0  0  0  0  0
   -2.0191   -3.4361    0.0000 C   0  0  0  0  0  0  0  0  0  0  0  0
    2.9949   -5.0861    0.0000 C   0  0  0  0  0  0  0  0  0  0  0  0
   -2.8441   -4.2611    0.0000 C   0  0  0  0  0  0  0  0  0  0  0  0
  1  4  1  0  0  0  0
  1  8  1  0  0  0  0
  1 10  1  0  0  0  0
  2  5  1  0  0  0  0
  2  9  1  0  0  0  0
  2 11  1  0  0  0  0
  3  4  1  0  0  0  0
  3  5  1  0  0  0  0
  3  6  1  0  0  0  0
  3  7  1  0  0  0  0
  6 10  1  0  0  0  0
  7 11  1  0  0  0  0
  8 14  1  0  0  0  0
  8 15  1  0  0  0  0
  8 17  1  0  0  0  0
  9 12  1  0  0  0  0
  9 13  1  0  0  0  0
  9 16  1  0  0  0  0
M  END
> <PUBCHEM_COMPOUND_ID_TYPE>
0

> <PUBCHEM_TOTAL_CHARGE>
0

> <PUBCHEM_SUBSTANCE_ID>
310939728

> <PUBCHEM_SUBSTANCE_VERSION>
1

> <PUBCHEM_EXT_DATASOURCE_NAME>
4488

> <PUBCHEM_EXT_DATASOURCE_REGID>
SCHEMBL16117658

> <PUBCHEM_SUBSTANCE_COMMENT>
InChI=1S/C15H30N2/c1-13(2,3)16-9-7-15(11-16)8-10-17(12-15)14(4,5)6/h7-12H2,1-6H3
InChIKey=IWEUNBNRFBEFFI-UHFFFAOYSA-N

> <PUBCHEM_SUBSTANCE_SYNONYM>
SCHEMBL16117658

> <PUBCHEM_XREF_EXT_ID>
SCHEMBL16117658

> <PUBCHEM_EXT_DATASOURCE_URL>
https://www.surechembl.org/

> <PUBCHEM_EXT_SUBSTANCE_URL>
https://www.surechembl.org/chemical/SCHEMBL16117658

> <PUBCHEM_CID_ASSOCIATIONS>
117606953  1

> <PUBCHEM_COORDINATE_TYPE>
1
3

> <PUBCHEM_BONDANNOTATIONS>
8  14  3
8  15  3
9  12  3
9  13  3

$$$$
