310942339
  -OEChem-07211613022D

 38 41  0     1  0  0  0  0  0999 V2000
    5.1927    2.5223    0.0000 F   0  0  0  0  0  0  0  0  0  0  0  0
    5.7033    1.8790    0.0000 F   0  0  0  0  0  0  0  0  0  0  0  0
    5.3969    1.1131    0.0000 F   0  0  0  0  0  0  0  0  0  0  0  0
   -1.4143   -2.4815    0.0000 O   0  0  0  0  0  0  0  0  0  0  0  0
   -2.8542   -0.0102    0.0000 O   0  0  0  0  0  0  0  0  0  0  0  0
   -4.2839   -2.4917    0.0000 O   0  0  0  0  0  0  0  0  0  0  0  0
    0.5872   -0.9497    0.0000 N   0  0  0  0  0  0  0  0  0  0  0  0
    1.3939   -1.1233    0.0000 N   0  0  0  0  0  0  0  0  0  0  0  0
   -2.1393   -1.2458    0.0000 N   0  0  0  0  0  0  0  0  0  0  0  0
    2.9563    0.7863    0.0000 N   0  0  0  0  0  0  0  0  0  0  0  0
   -4.9987   -1.2561    0.0000 N   0  0  0  0  0  0  0  0  0  0  0  0
    0.1787   -0.2451    0.0000 C   0  0  0  0  0  0  0  0  0  0  0  0
   -0.7097   -1.2356    0.0000 C   0  0  0  0  0  0  0  0  0  0  0  0
    0.0460   -1.5624    0.0000 C   0  0  0  0  0  0  0  0  0  0  0  0
   -0.6178   -0.4084    0.0000 C   0  0  0  0  0  0  0  0  0  0  0  0
    0.5055    0.5208    0.0000 C   0  0  3  0  0  0  0  0  0  0  0  0
   -1.4143   -1.6339    0.0000 C   0  0  0  0  0  0  0  0  0  0  0  0
    0.3013   -2.3487    0.0000 C   0  0  0  0  0  0  0  0  0  0  0  0
    1.3122    0.6025    0.0000 C   0  0  0  0  0  0  0  0  0  0  0  0
   -1.2509    0.1327    0.0000 C   0  0  0  0  0  0  0  0  0  0  0  0
    1.6594   -1.9096    0.0000 C   0  0  0  0  0  0  0  0  0  0  0  0
    1.1182   -2.5223    0.0000 C   0  0  0  0  0  0  0  0  0  0  0  0
    0.0153    1.1845    0.0000 C   0  0  0  0  0  0  0  0  0  0  0  0
    1.6594    1.3582    0.0000 C   0  0  0  0  0  0  0  0  0  0  0  0
    1.8024   -0.0511    0.0000 C   0  0  0  0  0  0  0  0  0  0  0  0
   -3.5690   -1.2561    0.0000 C   0  0  0  0  0  0  0  0  0  0  0  0
   -2.8338   -1.6645    0.0000 C   0  0  0  0  0  0  0  0  0  0  0  0
   -3.5588   -0.4289    0.0000 C   0  0  0  0  0  0  0  0  0  0  0  0
   -4.2839   -1.6339    0.0000 C   0  0  0  0  0  0  0  0  0  0  0  0
    2.4763    1.4501    0.0000 C   0  0  0  0  0  0  0  0  0  0  0  0
    2.6193    0.0306    0.0000 C   0  0  0  0  0  0  0  0  0  0  0  0
   -4.2941   -0.0306    0.0000 C   0  0  0  0  0  0  0  0  0  0  0  0
   -4.9884   -0.4289    0.0000 C   0  0  0  0  0  0  0  0  0  0  0  0
    3.7733    0.8782    0.0000 C   0  0  0  0  0  0  0  0  0  0  0  0
    4.0796    1.6441    0.0000 C   0  0  0  0  0  0  0  0  0  0  0  0
   -5.7033    0.0000    0.0000 C   0  0  0  0  0  0  0  0  0  0  0  0
    4.9067    1.7666    0.0000 C   0  0  0  0  0  0  0  0  0  0  0  0
   -2.8746    0.8272    0.0000 C   0  0  0  0  0  0  0  0  0  0  0  0
  1 37  1  0  0  0  0
  2 37  1  0  0  0  0
  3 37  1  0  0  0  0
  4 17  2  0  0  0  0
  5 28  1  0  0  0  0
  5 38  1  0  0  0  0
  6 29  2  0  0  0  0
  7  8  1  0  0  0  0
  7 12  1  0  0  0  0
  7 14  1  0  0  0  0
  8 21  2  0  0  0  0
  9 17  1  0  0  0  0
  9 27  1  0  0  0  0
 10 30  1  0  0  0  0
 10 31  1  0  0  0  0
 10 34  1  0  0  0  0
 11 29  1  0  0  0  0
 11 33  1  0  0  0  0
 12 15  2  0  0  0  0
 12 16  1  0  0  0  0
 13 14  2  0  0  0  0
 13 15  1  0  0  0  0
 13 17  1  0  0  0  0
 14 18  1  0  0  0  0
 15 20  1  0  0  0  0
 16 19  1  0  0  0  0
 16 23  1  0  0  0  0
 18 22  2  0  0  0  0
 19 24  1  0  0  0  0
 19 25  1  0  0  0  0
 21 22  1  0  0  0  0
 24 30  1  0  0  0  0
 25 31  1  0  0  0  0
 26 27  1  0  0  0  0
 26 28  2  0  0  0  0
 26 29  1  0  0  0  0
 28 32  1  0  0  0  0
 32 33  2  0  0  0  0
 33 36  1  0  0  0  0
 34 35  1  0  0  0  0
 35 37  1  0  0  0  0
M  END
> <PUBCHEM_COMPOUND_ID_TYPE>
0

> <PUBCHEM_TOTAL_CHARGE>
0

> <PUBCHEM_SUBSTANCE_ID>
310942339

> <PUBCHEM_SUBSTANCE_VERSION>
1

> <PUBCHEM_EXT_DATASOURCE_NAME>
4488

> <PUBCHEM_EXT_DATASOURCE_REGID>
SCHEMBL16120375

> <PUBCHEM_SUBSTANCE_COMMENT>
InChI=1S/C27H34F3N5O3/c1-16-14-22(38-4)20(25(36)33-16)15-31-26(37)23-18(3)24(35-21(23)6-5-10-32-35)17(2)19-7-11-34(12-8-19)13-9-27(28,29)30/h5-6,10,14,17,19H,7-9,11-13,15H2,1-4H3,(H,31,37)(H,33,36)
InChIKey=GNXQEUQSTLVVPS-UHFFFAOYSA-N

> <PUBCHEM_SUBSTANCE_SYNONYM>
SCHEMBL16120375

> <PUBCHEM_XREF_EXT_ID>
SCHEMBL16120375

> <PUBCHEM_EXT_DATASOURCE_URL>
https://www.surechembl.org/

> <PUBCHEM_EXT_SUBSTANCE_URL>
https://www.surechembl.org/chemical/SCHEMBL16120375

> <PUBCHEM_CID_ASSOCIATIONS>
117608963  1

> <PUBCHEM_COORDINATE_TYPE>
1
3

$$$$
