310940835
  -OEChem-07211613022D

 39 44  0     1  0  0  0  0  0999 V2000
   -0.5106    1.1209    0.0000 O   0  0  0  0  0  0  0  0  0  0  0  0
    0.9341    3.3625    0.0000 O   0  0  0  0  0  0  0  0  0  0  0  0
    2.8520    1.1457    0.0000 O   0  0  0  0  0  0  0  0  0  0  0  0
    3.4746   -1.4322    0.0000 O   0  0  0  0  0  0  0  0  0  0  0  0
    1.4322   -3.4622    0.0000 O   0  0  0  0  0  0  0  0  0  0  0  0
    0.7098   -0.6850    0.0000 N   0  0  0  0  0  0  0  0  0  0  0  0
    1.6688    2.1172    0.0000 N   0  0  0  0  0  0  0  0  0  0  0  0
   -1.8805   -0.9465    0.0000 N   0  0  0  0  0  0  0  0  0  0  0  0
   -1.8930    0.3986    0.0000 N   0  0  0  0  0  0  0  0  0  0  0  0
   -0.2864   -1.7436    0.0000 N   0  0  0  0  0  0  0  0  0  0  0  0
   -0.5729   -0.2616    0.0000 C   0  0  0  0  0  0  0  0  0  0  0  0
    0.7098    0.1495    0.0000 C   0  0  3  0  0  0  0  0  0  0  0  0
   -0.0747   -0.9341    0.0000 C   0  0  0  0  0  0  0  0  0  0  0  0
   -0.0747    0.3986    0.0000 C   0  0  0  0  0  0  0  0  0  0  0  0
   -1.4073   -0.2491    0.0000 C   0  0  0  0  0  0  0  0  0  0  0  0
    1.2952   -1.2703    0.0000 C   0  0  0  0  0  0  0  0  0  0  0  0
    1.2952    0.7348    0.0000 C   0  0  0  0  0  0  0  0  0  0  0  0
    2.4409    1.8805    0.0000 C   0  0  0  0  0  0  0  0  0  0  0  0
    1.6813    2.9516    0.0000 C   0  0  0  0  0  0  0  0  0  0  0  0
    2.9391    2.5530    0.0000 C   0  0  3  0  0  0  0  0  0  0  0  0
    2.4534    3.2255    0.0000 C   0  0  3  0  0  0  0  0  0  0  0  0
   -2.6900   -0.6725    0.0000 C   0  0  0  0  0  0  0  0  0  0  0  0
   -2.6775    0.1495    0.0000 C   0  0  0  0  0  0  0  0  0  0  0  0
    1.0959    1.5318    0.0000 C   0  0  0  0  0  0  0  0  0  0  0  0
    1.0835   -2.0798    0.0000 C   0  0  0  0  0  0  0  0  0  0  0  0
    2.1172   -1.0711    0.0000 C   0  0  0  0  0  0  0  0  0  0  0  0
    2.6775   -1.6314    0.0000 C   0  0  0  0  0  0  0  0  0  0  0  0
    1.6688   -2.6527    0.0000 C   0  0  0  0  0  0  0  0  0  0  0  0
    2.8021    3.9603    0.0000 C   0  0  0  0  0  0  0  0  0  0  0  0
    3.7735    2.6277    0.0000 C   0  0  0  0  0  0  0  0  0  0  0  0
   -3.3875   -1.0959    0.0000 C   0  0  0  0  0  0  0  0  0  0  0  0
   -3.3999    0.5480    0.0000 C   0  0  0  0  0  0  0  0  0  0  0  0
    2.4659   -2.4409    0.0000 C   0  0  0  0  0  0  0  0  0  0  0  0
    3.6116    4.0475    0.0000 C   0  0  0  0  0  0  0  0  0  0  0  0
    4.1098    3.3750    0.0000 C   0  0  0  0  0  0  0  0  0  0  0  0
   -4.1098   -0.6725    0.0000 C   0  0  0  0  0  0  0  0  0  0  0  0
   -4.1098    0.1370    0.0000 C   0  0  0  0  0  0  0  0  0  0  0  0
    4.0724   -2.0175    0.0000 C   0  0  0  0  0  0  0  0  0  0  0  0
    2.0424   -4.0475    0.0000 C   0  0  0  0  0  0  0  0  0  0  0  0
  1 14  2  0  0  0  0
  2 19  2  0  0  0  0
  3 18  2  0  0  0  0
  4 27  1  0  0  0  0
  4 38  1  0  0  0  0
  5 28  1  0  0  0  0
  5 39  1  0  0  0  0
  6 12  1  0  0  0  0
  6 13  1  0  0  0  0
  6 16  1  0  0  0  0
  7 18  1  0  0  0  0
  7 19  1  0  0  0  0
  7 24  1  0  0  0  0
  8 15  2  0  0  0  0
  8 22  1  0  0  0  0
  9 15  1  0  0  0  0
  9 23  1  0  0  0  0
 10 13  1  0  0  0  0
 11 13  2  0  0  0  0
 11 14  1  0  0  0  0
 11 15  1  0  0  0  0
 12 14  1  0  0  0  0
 12 17  1  0  0  0  0
 16 25  2  0  0  0  0
 16 26  1  0  0  0  0
 17 24  1  0  0  0  0
 18 20  1  0  0  0  0
 19 21  1  0  0  0  0
 20 21  1  0  0  0  0
 20 30  1  0  0  0  0
 21 29  1  0  0  0  0
 22 23  2  0  0  0  0
 22 31  1  0  0  0  0
 23 32  1  0  0  0  0
 25 28  1  0  0  0  0
 26 27  2  0  0  0  0
 27 33  1  0  0  0  0
 28 33  2  0  0  0  0
 29 34  2  0  0  0  0
 30 35  2  0  0  0  0
 31 36  2  0  0  0  0
 32 37  2  0  0  0  0
 34 35  1  0  0  0  0
 36 37  1  0  0  0  0
M  END
> <PUBCHEM_COMPOUND_ID_TYPE>
0

> <PUBCHEM_TOTAL_CHARGE>
0

> <PUBCHEM_SUBSTANCE_ID>
310940835

> <PUBCHEM_SUBSTANCE_VERSION>
1

> <PUBCHEM_EXT_DATASOURCE_NAME>
4488

> <PUBCHEM_EXT_DATASOURCE_REGID>
SCHEMBL16118794

> <PUBCHEM_SUBSTANCE_COMMENT>
InChI=1S/C29H27N5O5/c1-38-17-13-16(14-18(15-17)39-2)34-23(11-12-33-28(36)19-7-3-4-8-20(19)29(33)37)25(35)24(26(34)30)27-31-21-9-5-6-10-22(21)32-27/h3-10,13-15,19-20,23H,11-12,30H2,1-2H3,(H,31,32)
InChIKey=MFBIMQLMNASCJA-UHFFFAOYSA-N

> <PUBCHEM_SUBSTANCE_SYNONYM>
SCHEMBL16118794

> <PUBCHEM_XREF_EXT_ID>
SCHEMBL16118794

> <PUBCHEM_EXT_DATASOURCE_URL>
https://www.surechembl.org/

> <PUBCHEM_EXT_SUBSTANCE_URL>
https://www.surechembl.org/chemical/SCHEMBL16118794

> <PUBCHEM_CID_ASSOCIATIONS>
117607754  1

> <PUBCHEM_COORDINATE_TYPE>
1
3

$$$$
