310942890
  -OEChem-07211613022D

 35 38  0     1  0  0  0  0  0999 V2000
    0.7692    0.1950    0.0000 Cl  0  0  0  0  0  0  0  0  0  0  0  0
   -3.8458    2.7299    0.0000 Cl  0  0  0  0  0  0  0  0  0  0  0  0
    2.2425    2.7083    0.0000 S   0  0  0  0  0  0  0  0  0  0  0  0
    3.7808    1.8633    0.0000 S   0  0  0  0  0  0  0  0  0  0  0  0
    0.8125    3.5533    0.0000 F   0  0  0  0  0  0  0  0  0  0  0  0
   -0.6608    1.0617    0.0000 O   0  0  0  0  0  0  0  0  0  0  0  0
    1.8308    3.4233    0.0000 O   0  0  0  0  0  0  0  0  0  0  0  0
    2.6541    1.9717    0.0000 O   0  0  0  0  0  0  0  0  0  0  0  0
   -4.3008   -3.5533    0.0000 O   0  0  0  0  0  0  0  0  0  0  0  0
    2.9791    3.0983    0.0000 N   0  0  0  0  0  0  0  0  0  0  0  0
    4.4741    3.0333    0.0000 N   0  0  0  0  0  0  0  0  0  0  0  0
   -3.5641   -1.4733    0.0000 N   0  0  3  0  0  0  0  0  0  0  0  0
   -5.0158   -2.2966    0.0000 N   0  0  0  0  0  0  0  0  0  0  0  0
    1.5058    2.2966    0.0000 C   0  0  0  0  0  0  0  0  0  0  0  0
    0.7692    2.7083    0.0000 C   0  0  0  0  0  0  0  0  0  0  0  0
    0.0542    1.4733    0.0000 C   0  0  0  0  0  0  0  0  0  0  0  0
    0.7692    1.0617    0.0000 C   0  0  0  0  0  0  0  0  0  0  0  0
    1.4841    1.4516    0.0000 C   0  0  0  0  0  0  0  0  0  0  0  0
    0.0758    2.2966    0.0000 C   0  0  0  0  0  0  0  0  0  0  0  0
   -1.4191    1.4733    0.0000 C   0  0  0  0  0  0  0  0  0  0  0  0
    3.7158    2.6866    0.0000 C   0  0  0  0  0  0  0  0  0  0  0  0
   -2.1125    1.0617    0.0000 C   0  0  0  0  0  0  0  0  0  0  0  0
   -1.4191    2.2966    0.0000 C   0  0  0  0  0  0  0  0  0  0  0  0
   -2.8274    1.4733    0.0000 C   0  0  0  0  0  0  0  0  0  0  0  0
   -2.8491    2.3183    0.0000 C   0  0  0  0  0  0  0  0  0  0  0  0
   -2.1342    0.1950    0.0000 C   0  0  0  0  0  0  0  0  0  0  0  0
   -2.1125    2.7299    0.0000 C   0  0  0  0  0  0  0  0  0  0  0  0
    4.6041    1.6683    0.0000 C   0  0  0  0  0  0  0  0  0  0  0  0
    5.0158    2.4266    0.0000 C   0  0  0  0  0  0  0  0  0  0  0  0
   -2.8274   -0.1950    0.0000 C   0  0  0  0  0  0  0  0  0  0  0  0
   -2.8708   -1.0617    0.0000 C   0  0  0  0  0  0  0  0  0  0  0  0
   -3.5858   -2.3183    0.0000 C   0  0  0  0  0  0  0  0  0  0  0  0
   -4.2792   -2.6866    0.0000 C   0  0  0  0  0  0  0  0  0  0  0  0
   -4.3225   -1.0617    0.0000 C   0  0  0  0  0  0  0  0  0  0  0  0
   -5.0158   -1.4516    0.0000 C   0  0  0  0  0  0  0  0  0  0  0  0
  1 17  1  0  0  0  0
  2 25  1  0  0  0  0
  3  7  2  0  0  0  0
  3  8  2  0  0  0  0
  3 10  1  0  0  0  0
  3 14  1  0  0  0  0
  4 21  1  0  0  0  0
  4 28  1  0  0  0  0
  5 15  1  0  0  0  0
  6 16  1  0  0  0  0
  6 20  1  0  0  0  0
  9 33  2  0  0  0  0
 10 21  1  0  0  0  0
 11 21  2  0  0  0  0
 11 29  1  0  0  0  0
 12 31  1  0  0  0  0
 12 32  1  0  0  0  0
 12 34  1  0  0  0  0
 13 33  1  0  0  0  0
 13 35  1  0  0  0  0
 14 15  1  0  0  0  0
 14 18  2  0  0  0  0
 15 19  2  0  0  0  0
 16 17  2  0  0  0  0
 16 19  1  0  0  0  0
 17 18  1  0  0  0  0
 20 22  1  0  0  0  0
 20 23  2  0  0  0  0
 22 24  2  0  0  0  0
 22 26  1  0  0  0  0
 23 27  1  0  0  0  0
 24 25  1  0  0  0  0
 25 27  2  0  0  0  0
 26 30  1  0  0  0  0
 28 29  2  0  0  0  0
 30 31  1  0  0  0  0
 32 33  1  0  0  0  0
 34 35  1  0  0  0  0
M  END
> <PUBCHEM_COMPOUND_ID_TYPE>
0

> <PUBCHEM_TOTAL_CHARGE>
0

> <PUBCHEM_SUBSTANCE_ID>
310942890

> <PUBCHEM_SUBSTANCE_VERSION>
1

> <PUBCHEM_EXT_DATASOURCE_NAME>
4488

> <PUBCHEM_EXT_DATASOURCE_REGID>
SCHEMBL16120948

> <PUBCHEM_SUBSTANCE_COMMENT>
InChI=1S/C22H21Cl2FN4O4S2/c23-15-3-4-18(14(10-15)2-1-7-29-8-5-26-21(30)13-29)33-19-12-17(25)20(11-16(19)24)35(31,32)28-22-27-6-9-34-22/h3-4,6,9-12H,1-2,5,7-8,13H2,(H,26,30)(H,27,28)
InChIKey=CQWRAXNBFGRDHE-UHFFFAOYSA-N

> <PUBCHEM_SUBSTANCE_SYNONYM>
SCHEMBL16120948

> <PUBCHEM_XREF_EXT_ID>
SCHEMBL16120948

> <PUBCHEM_EXT_DATASOURCE_URL>
https://www.surechembl.org/

> <PUBCHEM_EXT_SUBSTANCE_URL>
https://www.surechembl.org/chemical/SCHEMBL16120948

> <PUBCHEM_CID_ASSOCIATIONS>
117609376  1

> <PUBCHEM_COORDINATE_TYPE>
1
3

$$$$
