310935658
  -OEChem-07211613022D

 30 34  0     1  0  0  0  0  0999 V2000
    5.3136   -4.4590    0.0000 S   0  0  0  0  0  0  0  0  0  0  0  0
    1.3748   -0.4459    0.0000 O   0  0  0  0  0  0  0  0  0  0  0  0
    0.0372   -0.5574    0.0000 O   0  0  0  0  0  0  0  0  0  0  0  0
    4.5704   -7.4316    0.0000 O   0  0  0  0  0  0  0  0  0  0  0  0
    2.6382   -3.2699    0.0000 N   0  0  0  0  0  0  0  0  0  0  0  0
    5.9824   -5.7595    0.0000 N   0  0  0  0  0  0  0  0  0  0  0  0
    4.2731   -3.0841    0.0000 N   0  0  0  0  0  0  0  0  0  0  0  0
    6.6512   -4.4590    0.0000 N   0  0  0  0  0  0  0  0  0  0  0  0
    5.9824   -7.4316    0.0000 N   0  0  0  0  0  0  0  0  0  0  0  0
    1.3377   -2.6382    0.0000 C   0  0  0  0  0  0  0  0  0  0  0  0
    5.9824   -4.9420    0.0000 C   0  0  0  0  0  0  0  0  0  0  0  0
    1.1891   -1.2262    0.0000 C   0  0  0  0  0  0  0  0  0  0  0  0
    1.8207   -3.3071    0.0000 C   0  0  3  0  0  0  0  0  0  0  0  0
    0.3344   -1.3005    0.0000 C   0  0  0  0  0  0  0  0  0  0  0  0
    5.5737   -3.6786    0.0000 C   0  0  0  0  0  0  0  0  0  0  0  0
    1.6721   -1.9322    0.0000 C   0  0  0  0  0  0  0  0  0  0  0  0
    0.4831   -2.7126    0.0000 C   0  0  0  0  0  0  0  0  0  0  0  0
    5.0907   -3.0098    0.0000 C   0  0  0  0  0  0  0  0  0  0  0  0
    0.0000   -2.0809    0.0000 C   0  0  0  0  0  0  0  0  0  0  0  0
    6.3912   -3.6786    0.0000 C   0  0  0  0  0  0  0  0  0  0  0  0
    3.1212   -3.9016    0.0000 C   0  0  0  0  0  0  0  0  0  0  0  0
    2.9726   -2.4896    0.0000 C   0  0  0  0  0  0  0  0  0  0  0  0
    3.7901   -2.4153    0.0000 C   0  0  0  0  0  0  0  0  0  0  0  0
    3.9388   -3.8273    0.0000 C   0  0  0  0  0  0  0  0  0  0  0  0
    5.2764   -6.1682    0.0000 C   0  0  0  0  0  0  0  0  0  0  0  0
    6.6884   -6.1682    0.0000 C   0  0  0  0  0  0  0  0  0  0  0  0
    0.6688    0.0000    0.0000 C   0  0  0  0  0  0  0  0  0  0  0  0
    5.2764   -7.0229    0.0000 C   0  0  0  0  0  0  0  0  0  0  0  0
    1.4492   -4.0874    0.0000 C   0  0  0  0  0  0  0  0  0  0  0  0
    6.6884   -7.0229    0.0000 C   0  0  0  0  0  0  0  0  0  0  0  0
  1 11  1  0  0  0  0
  1 15  1  0  0  0  0
  2 12  1  0  0  0  0
  2 27  1  0  0  0  0
  3 14  1  0  0  0  0
  3 27  1  0  0  0  0
  4 28  2  0  0  0  0
  5 13  1  0  0  0  0
  5 21  1  0  0  0  0
  5 22  1  0  0  0  0
  6 11  1  0  0  0  0
  6 25  1  0  0  0  0
  6 26  1  0  0  0  0
  7 18  1  0  0  0  0
  7 23  1  0  0  0  0
  7 24  1  0  0  0  0
  8 11  2  0  0  0  0
  8 20  1  0  0  0  0
  9 28  1  0  0  0  0
  9 30  1  0  0  0  0
 10 13  1  0  0  0  0
 10 16  2  0  0  0  0
 10 17  1  0  0  0  0
 12 14  2  0  0  0  0
 12 16  1  0  0  0  0
 13 29  1  0  0  0  0
 14 19  1  0  0  0  0
 15 18  1  0  0  0  0
 15 20  2  0  0  0  0
 17 19  2  0  0  0  0
 21 24  1  0  0  0  0
 22 23  1  0  0  0  0
 25 28  1  0  0  0  0
 26 30  1  0  0  0  0
M  END
> <PUBCHEM_COMPOUND_ID_TYPE>
0

> <PUBCHEM_TOTAL_CHARGE>
0

> <PUBCHEM_SUBSTANCE_ID>
310935658

> <PUBCHEM_SUBSTANCE_VERSION>
1

> <PUBCHEM_EXT_DATASOURCE_NAME>
4488

> <PUBCHEM_EXT_DATASOURCE_REGID>
SCHEMBL16113239

> <PUBCHEM_SUBSTANCE_COMMENT>
InChI=1S/C21H27N5O3S/c1-15(16-2-3-18-19(10-16)29-14-28-18)25-8-6-24(7-9-25)12-17-11-23-21(30-17)26-5-4-22-20(27)13-26/h2-3,10-11,15H,4-9,12-14H2,1H3,(H,22,27)
InChIKey=FFDLKEHZJUFFJM-UHFFFAOYSA-N

> <PUBCHEM_SUBSTANCE_SYNONYM>
SCHEMBL16113239

> <PUBCHEM_XREF_EXT_ID>
SCHEMBL16113239

> <PUBCHEM_EXT_DATASOURCE_URL>
https://www.surechembl.org/

> <PUBCHEM_EXT_SUBSTANCE_URL>
https://www.surechembl.org/chemical/SCHEMBL16113239

> <PUBCHEM_CID_ASSOCIATIONS>
117603669  1

> <PUBCHEM_COORDINATE_TYPE>
1
3

$$$$
