310941794
  -OEChem-07211613022D

 28 33  0     1  0  0  0  0  0999 V2000
    3.6935    1.2844    0.0000 S   0  0  0  0  0  0  0  0  0  0  0  0
    0.0139   -1.6732    0.0000 O   0  0  0  0  0  0  0  0  0  0  0  0
    3.4852    2.0897    0.0000 O   0  0  0  0  0  0  0  0  0  0  0  0
    4.2907    1.8675    0.0000 O   0  0  0  0  0  0  0  0  0  0  0  0
    2.0134   -0.1458    0.0000 N   0  0  0  0  0  0  0  0  0  0  0  0
    2.9299   -1.1317    0.0000 N   0  0  0  0  0  0  0  0  0  0  0  0
    3.3325   -0.3957    0.0000 N   0  0  0  0  0  0  0  0  0  0  0  0
    2.9160    1.0206    0.0000 N   0  0  0  0  0  0  0  0  0  0  0  0
   -3.8046   -1.5343    0.0000 C   0  0  3  0  0  0  0  0  0  0  0  0
   -3.5963   -1.8954    0.0000 C   0  0  3  0  0  0  0  0  0  0  0  0
   -2.9021   -1.9231    0.0000 C   0  0  0  0  0  0  0  0  0  0  0  0
   -3.6797   -0.8818    0.0000 C   0  0  0  0  0  0  0  0  0  0  0  0
   -4.3323   -2.0897    0.0000 C   0  0  0  0  0  0  0  0  0  0  0  0
   -2.1939   -1.5482    0.0000 C   0  0  0  0  0  0  0  0  0  0  0  0
   -3.0270   -0.5068    0.0000 C   0  0  0  0  0  0  0  0  0  0  0  0
   -2.1800   -0.7012    0.0000 C   0  0  0  0  0  0  0  0  0  0  0  0
    0.5832   -0.3263    0.0000 C   0  0  0  0  0  0  0  0  0  0  0  0
    2.1106   -0.9651    0.0000 C   0  0  0  0  0  0  0  0  0  0  0  0
    0.6664   -1.1595    0.0000 C   0  0  0  0  0  0  0  0  0  0  0  0
    2.7494    0.2013    0.0000 C   0  0  0  0  0  0  0  0  0  0  0  0
    1.2358    0.1597    0.0000 C   0  0  0  0  0  0  0  0  0  0  0  0
   -0.2361   -0.0070    0.0000 C   0  0  0  0  0  0  0  0  0  0  0  0
   -1.4024   -1.8537    0.0000 C   0  0  0  0  0  0  0  0  0  0  0  0
    1.4580   -1.4788    0.0000 C   0  0  0  0  0  0  0  0  0  0  0  0
   -0.9998   -0.1041    0.0000 C   0  0  0  0  0  0  0  0  0  0  0  0
   -0.7082    0.6178    0.0000 C   0  0  0  0  0  0  0  0  0  0  0  0
   -0.7637   -1.3538    0.0000 C   0  0  0  0  0  0  0  0  0  0  0  0
    4.3323    0.7567    0.0000 C   0  0  0  0  0  0  0  0  0  0  0  0
  1  3  2  0  0  0  0
  1  4  2  0  0  0  0
  1  8  1  0  0  0  0
  1 28  1  0  0  0  0
  2 19  1  0  0  0  0
  2 27  1  0  0  0  0
  5 18  1  0  0  0  0
  5 20  1  0  0  0  0
  5 21  1  0  0  0  0
  6  7  1  0  0  0  0
  6 18  2  0  0  0  0
  7 20  2  0  0  0  0
  8 20  1  0  0  0  0
  9 11  1  0  0  0  0
  9 12  1  0  0  0  0
  9 13  1  0  0  0  0
 10 11  1  0  0  0  0
 10 12  1  0  0  0  0
 10 13  1  0  0  0  0
 11 14  2  0  0  0  0
 12 15  2  0  0  0  0
 14 16  1  0  0  0  0
 14 23  1  0  0  0  0
 15 16  1  0  0  0  0
 17 19  1  0  0  0  0
 17 21  2  0  0  0  0
 17 22  1  0  0  0  0
 18 24  1  0  0  0  0
 19 24  2  0  0  0  0
 22 25  1  0  0  0  0
 22 26  1  0  0  0  0
 23 27  1  0  0  0  0
 25 26  1  0  0  0  0
M  END
> <PUBCHEM_COMPOUND_ID_TYPE>
0

> <PUBCHEM_TOTAL_CHARGE>
0

> <PUBCHEM_SUBSTANCE_ID>
310941794

> <PUBCHEM_SUBSTANCE_VERSION>
1

> <PUBCHEM_EXT_DATASOURCE_NAME>
4488

> <PUBCHEM_EXT_DATASOURCE_REGID>
SCHEMBL16119825

> <PUBCHEM_SUBSTANCE_COMMENT>
InChI=1S/C20H22N4O3S/c1-28(25,26)23-20-22-21-18-9-17(16(10-24(18)20)11-2-3-11)27-7-6-12-4-5-13-14-8-15(13)19(12)14/h5,9-11,14-15H,2-4,6-8H2,1H3,(H,22,23)
InChIKey=NZDKAOHKDPNTQP-UHFFFAOYSA-N

> <PUBCHEM_SUBSTANCE_SYNONYM>
SCHEMBL16119825

> <PUBCHEM_XREF_EXT_ID>
SCHEMBL16119825

> <PUBCHEM_EXT_DATASOURCE_URL>
https://www.surechembl.org/

> <PUBCHEM_EXT_SUBSTANCE_URL>
https://www.surechembl.org/chemical/SCHEMBL16119825

> <PUBCHEM_CID_ASSOCIATIONS>
117608543  1

> <PUBCHEM_COORDINATE_TYPE>
1
3

$$$$
