310942292
  -OEChem-07211613022D

 20 21  0     1  0  0  0  0  0999 V2000
    0.5284    1.3296    0.0000 S   0  0  0  0  0  0  0  0  0  0  0  0
   -2.0981   -1.8353    0.0000 O   0  0  0  0  0  0  0  0  0  0  0  0
   -2.8159   -0.6281    0.0000 O   0  0  0  0  0  0  0  0  0  0  0  0
    0.5284    1.3296    0.0000 O   0  0  0  0  0  0  0  0  0  0  0  0
    0.5284    1.3296    0.0000 O   0  0  0  0  0  0  0  0  0  0  0  0
   -0.1241   -0.2366    0.0000 N   0  0  0  0  0  0  0  0  0  0  0  0
    0.7079   -0.3671    0.0000 N   0  0  0  0  0  0  0  0  0  0  0  0
    0.5284    1.3296    0.0000 N   0  0  0  0  0  0  0  0  0  0  0  0
   -0.5972    0.4486    0.0000 C   0  0  0  0  0  0  0  0  0  0  0  0
   -0.6462   -0.8728    0.0000 C   0  0  0  0  0  0  0  0  0  0  0  0
   -1.4129   -0.5628    0.0000 C   0  0  0  0  0  0  0  0  0  0  0  0
   -1.3640    0.2366    0.0000 C   0  0  0  0  0  0  0  0  0  0  0  0
   -0.2709    1.2154    0.0000 C   0  0  3  0  0  0  0  0  0  0  0  0
   -2.0981   -1.0033    0.0000 C   0  0  0  0  0  0  0  0  0  0  0  0
   -0.3362   -1.6069    0.0000 C   0  0  0  0  0  0  0  0  0  0  0  0
   -2.0491    0.7423    0.0000 C   0  0  0  0  0  0  0  0  0  0  0  0
    1.0015   -1.1175    0.0000 C   0  0  0  0  0  0  0  0  0  0  0  0
    0.4632   -1.7538    0.0000 C   0  0  0  0  0  0  0  0  0  0  0  0
   -0.8256    1.8353    0.0000 C   0  0  0  0  0  0  0  0  0  0  0  0
    2.8159   -1.0294    0.0000 C   0  0  0  0  0  0  0  0  0  0  0  0
  1  4  2  0  0  0  0
  1  5  2  0  0  0  0
  1  8  1  0  0  0  0
  1 20  1  0  0  0  0
  2 14  2  0  0  0  0
  3 14  1  0  0  0  0
  6  7  1  0  0  0  0
  6  9  1  0  0  0  0
  6 10  1  0  0  0  0
  7 17  2  0  0  0  0
  8 13  1  0  0  0  0
  9 12  2  0  0  0  0
  9 13  1  0  0  0  0
 10 11  2  0  0  0  0
 10 15  1  0  0  0  0
 11 12  1  0  0  0  0
 11 14  1  0  0  0  0
 12 16  1  0  0  0  0
 13 19  1  0  0  0  0
 15 18  2  0  0  0  0
 17 18  1  0  0  0  0
M  END
> <PUBCHEM_COMPOUND_ID_TYPE>
0

> <PUBCHEM_TOTAL_CHARGE>
0

> <PUBCHEM_SUBSTANCE_ID>
310942292

> <PUBCHEM_SUBSTANCE_VERSION>
1

> <PUBCHEM_EXT_DATASOURCE_NAME>
4488

> <PUBCHEM_EXT_DATASOURCE_REGID>
SCHEMBL16120327

> <PUBCHEM_SUBSTANCE_COMMENT>
InChI=1S/C12H15N3O4S/c1-7-10(12(16)17)9-5-4-6-13-15(9)11(7)8(2)14-20(3,18)19/h4-6,8,14H,1-3H3,(H,16,17)
InChIKey=OOSTULKFPMYUSD-UHFFFAOYSA-N

> <PUBCHEM_SUBSTANCE_SYNONYM>
SCHEMBL16120327

> <PUBCHEM_XREF_EXT_ID>
SCHEMBL16120327

> <PUBCHEM_EXT_DATASOURCE_URL>
https://www.surechembl.org/

> <PUBCHEM_EXT_SUBSTANCE_URL>
https://www.surechembl.org/chemical/SCHEMBL16120327

> <PUBCHEM_CID_ASSOCIATIONS>
117608940  1

> <PUBCHEM_COORDINATE_TYPE>
1
3

$$$$
