310949468
  -OEChem-07211613022D

 28 31  0     1  0  0  0  0  0999 V2000
   -3.4547    0.6924    0.0000 F   0  0  0  0  0  0  0  0  0  0  0  0
   -3.7788    1.7679    0.0000 F   0  0  0  0  0  0  0  0  0  0  0  0
   -2.6886    2.0773    0.0000 F   0  0  0  0  0  0  0  0  0  0  0  0
   -0.1989    2.2245    0.0000 O   0  0  0  0  0  0  0  0  0  0  0  0
    2.7328   -0.0884    0.0000 N   0  0  0  0  0  0  0  0  0  0  0  0
    0.5083    1.0018    0.0000 N   0  0  0  0  0  0  0  0  0  0  0  0
    2.7328    1.2523    0.0000 N   0  0  0  0  0  0  0  0  0  0  0  0
    3.2190    0.5745    0.0000 N   0  0  0  0  0  0  0  0  0  0  0  0
    3.7788   -1.1491    0.0000 N   0  0  0  0  0  0  0  0  0  0  0  0
    3.7788   -1.9741    0.0000 N   0  0  0  0  0  0  0  0  0  0  0  0
    1.9373    0.1620    0.0000 C   0  0  0  0  0  0  0  0  0  0  0  0
    1.9520    0.9870    0.0000 C   0  0  0  0  0  0  0  0  0  0  0  0
   -0.2136    1.3848    0.0000 C   0  0  0  0  0  0  0  0  0  0  0  0
    0.4935    0.1620    0.0000 C   0  0  3  0  0  0  0  0  0  0  0  0
    1.2301    1.4143    0.0000 C   0  0  0  0  0  0  0  0  0  0  0  0
   -0.9208    1.0018    0.0000 C   0  0  0  0  0  0  0  0  0  0  0  0
    1.2449   -0.2505    0.0000 C   0  0  0  0  0  0  0  0  0  0  0  0
    2.9833   -0.8692    0.0000 C   0  0  0  0  0  0  0  0  0  0  0  0
   -1.6279    1.4143    0.0000 C   0  0  0  0  0  0  0  0  0  0  0  0
   -2.3498    0.9870    0.0000 C   0  0  0  0  0  0  0  0  0  0  0  0
   -3.0716    1.3995    0.0000 C   0  0  0  0  0  0  0  0  0  0  0  0
   -0.9355    0.1620    0.0000 C   0  0  0  0  0  0  0  0  0  0  0  0
   -2.3498    0.1620    0.0000 C   0  0  0  0  0  0  0  0  0  0  0  0
    2.5119   -1.5911    0.0000 C   0  0  0  0  0  0  0  0  0  0  0  0
   -1.6279   -0.2505    0.0000 C   0  0  0  0  0  0  0  0  0  0  0  0
   -0.2136   -0.2505    0.0000 C   0  0  0  0  0  0  0  0  0  0  0  0
   -1.6279    2.2393    0.0000 C   0  0  0  0  0  0  0  0  0  0  0  0
    2.9833   -2.2393    0.0000 C   0  0  0  0  0  0  0  0  0  0  0  0
  1 21  1  0  0  0  0
  2 21  1  0  0  0  0
  3 21  1  0  0  0  0
  4 13  2  0  0  0  0
  5  8  1  0  0  0  0
  5 11  1  0  0  0  0
  5 18  1  0  0  0  0
  6 13  1  0  0  0  0
  6 14  1  0  0  0  0
  6 15  1  0  0  0  0
  7  8  2  0  0  0  0
  7 12  1  0  0  0  0
  9 10  1  0  0  0  0
  9 18  1  0  0  0  0
 10 28  2  0  0  0  0
 11 12  2  0  0  0  0
 11 17  1  0  0  0  0
 12 15  1  0  0  0  0
 13 16  1  0  0  0  0
 14 17  1  0  0  0  0
 14 26  1  0  0  0  0
 16 19  2  0  0  0  0
 16 22  1  0  0  0  0
 18 24  2  0  0  0  0
 19 20  1  0  0  0  0
 19 27  1  0  0  0  0
 20 21  1  0  0  0  0
 20 23  2  0  0  0  0
 22 25  2  0  0  0  0
 23 25  1  0  0  0  0
 24 28  1  0  0  0  0
M  END
> <PUBCHEM_COMPOUND_ID_TYPE>
0

> <PUBCHEM_TOTAL_CHARGE>
0

> <PUBCHEM_SUBSTANCE_ID>
310949468

> <PUBCHEM_SUBSTANCE_VERSION>
1

> <PUBCHEM_EXT_DATASOURCE_NAME>
4488

> <PUBCHEM_EXT_DATASOURCE_REGID>
SCHEMBL16127662

> <PUBCHEM_SUBSTANCE_COMMENT>
InChI=1S/C18H17F3N6O/c1-10-8-15-14(23-25-27(15)16-6-7-22-24-16)9-26(10)17(28)12-4-3-5-13(11(12)2)18(19,20)21/h3-7,10H,8-9H2,1-2H3,(H,22,24)
InChIKey=DFBQVWUVWWXOKB-UHFFFAOYSA-N

> <PUBCHEM_SUBSTANCE_SYNONYM>
SCHEMBL16127662

> <PUBCHEM_XREF_EXT_ID>
SCHEMBL16127662

> <PUBCHEM_EXT_DATASOURCE_URL>
https://www.surechembl.org/

> <PUBCHEM_EXT_SUBSTANCE_URL>
https://www.surechembl.org/chemical/SCHEMBL16127662

> <PUBCHEM_CID_ASSOCIATIONS>
90408953  1

> <PUBCHEM_COORDINATE_TYPE>
1
3

$$$$
