310944765
  -OEChem-07211613022D

 33 36  0     1  0  0  0  0  0999 V2000
   -3.7147   -0.9318    0.0000 Cl  0  0  0  0  0  0  0  0  0  0  0  0
   -2.8326    1.9753    0.0000 Cl  0  0  0  0  0  0  0  0  0  0  0  0
   -4.2613    2.7953    0.0000 Cl  0  0  0  0  0  0  0  0  0  0  0  0
   -0.6833   -0.9194    0.0000 O   0  0  0  0  0  0  0  0  0  0  0  0
    0.7454    1.5654    0.0000 O   0  0  0  0  0  0  0  0  0  0  0  0
    4.9695   -1.1803    0.0000 O   0  0  0  0  0  0  0  0  0  0  0  0
    1.4909    0.3230    0.0000 N   0  0  0  0  0  0  0  0  0  0  0  0
    3.5531   -1.1803    0.0000 N   0  0  0  0  0  0  0  0  0  0  0  0
   -0.6709    0.7330    0.0000 N   0  0  0  0  0  0  0  0  0  0  0  0
    2.2736   -0.7703    0.0000 C   0  0  3  0  0  0  0  0  0  0  0  0
    2.7581   -0.0870    0.0000 C   0  0  3  0  0  0  0  0  0  0  0  0
   -2.8202    0.3230    0.0000 C   0  0  0  0  0  0  0  0  0  0  0  0
   -3.5531    0.7454    0.0000 C   0  0  0  0  0  0  0  0  0  0  0  0
    1.4909   -0.5093    0.0000 C   0  0  0  0  0  0  0  0  0  0  0  0
    2.2612    0.5714    0.0000 C   0  0  0  0  0  0  0  0  0  0  0  0
   -1.3915    0.3354    0.0000 C   0  0  0  0  0  0  0  0  0  0  0  0
    2.7581   -1.4287    0.0000 C   0  0  0  0  0  0  0  0  0  0  0  0
    3.5531   -0.3478    0.0000 C   0  0  0  0  0  0  0  0  0  0  0  0
   -2.8326   -0.5093    0.0000 C   0  0  0  0  0  0  0  0  0  0  0  0
   -2.1244    0.7205    0.0000 C   0  0  0  0  0  0  0  0  0  0  0  0
   -1.4039   -0.4969    0.0000 C   0  0  0  0  0  0  0  0  0  0  0  0
    0.7454    0.7205    0.0000 C   0  0  0  0  0  0  0  0  0  0  0  0
   -3.5407    1.5654    0.0000 C   0  0  0  0  0  0  0  0  0  0  0  0
   -2.0996   -0.9194    0.0000 C   0  0  0  0  0  0  0  0  0  0  0  0
    4.2613   -1.5902    0.0000 C   0  0  0  0  0  0  0  0  0  0  0  0
   -4.2613    1.9753    0.0000 C   0  0  0  0  0  0  0  0  0  0  0  0
   -4.2738    0.3354    0.0000 C   0  0  0  0  0  0  0  0  0  0  0  0
    0.0497    0.3230    0.0000 C   0  0  0  0  0  0  0  0  0  0  0  0
   -4.9695    1.5654    0.0000 C   0  0  0  0  0  0  0  0  0  0  0  0
   -4.9695    0.7454    0.0000 C   0  0  0  0  0  0  0  0  0  0  0  0
    4.2613   -2.4227    0.0000 C   0  0  0  0  0  0  0  0  0  0  0  0
    0.0372   -0.5093    0.0000 C   0  0  0  0  0  0  0  0  0  0  0  0
    3.5283   -2.7953    0.0000 C   0  0  0  0  0  0  0  0  0  0  0  0
  1 19  1  0  0  0  0
  2 23  1  0  0  0  0
  3 26  1  0  0  0  0
  4 21  1  0  0  0  0
  4 32  1  0  0  0  0
  5 22  2  0  0  0  0
  6 25  2  0  0  0  0
  7 14  1  0  0  0  0
  7 15  1  0  0  0  0
  7 22  1  0  0  0  0
  8 17  1  0  0  0  0
  8 18  1  0  0  0  0
  8 25  1  0  0  0  0
  9 16  1  0  0  0  0
  9 28  1  0  0  0  0
 10 11  1  0  0  0  0
 10 14  1  0  0  0  0
 10 17  1  0  0  0  0
 11 15  1  0  0  0  0
 11 18  1  0  0  0  0
 12 13  1  0  0  0  0
 12 19  1  0  0  0  0
 12 20  2  0  0  0  0
 13 23  1  0  0  0  0
 13 27  2  0  0  0  0
 16 20  1  0  0  0  0
 16 21  2  0  0  0  0
 19 24  2  0  0  0  0
 21 24  1  0  0  0  0
 22 28  1  0  0  0  0
 23 26  2  0  0  0  0
 25 31  1  0  0  0  0
 26 29  1  0  0  0  0
 27 30  1  0  0  0  0
 29 30  2  0  0  0  0
 31 33  2  0  0  0  0
M  END
> <PUBCHEM_COMPOUND_ID_TYPE>
0

> <PUBCHEM_TOTAL_CHARGE>
0

> <PUBCHEM_SUBSTANCE_ID>
310944765

> <PUBCHEM_SUBSTANCE_VERSION>
1

> <PUBCHEM_EXT_DATASOURCE_NAME>
4488

> <PUBCHEM_EXT_DATASOURCE_REGID>
SCHEMBL16122844

> <PUBCHEM_SUBSTANCE_COMMENT>
InChI=1S/C24H24Cl3N3O3/c1-3-22(31)29-10-14-12-30(13-15(14)11-29)23(32)9-28-20-7-17(19(26)8-21(20)33-2)16-5-4-6-18(25)24(16)27/h3-8,14-15,28H,1,9-13H2,2H3
InChIKey=DFVJNSYOZUBINZ-UHFFFAOYSA-N

> <PUBCHEM_SUBSTANCE_SYNONYM>
SCHEMBL16122844

> <PUBCHEM_XREF_EXT_ID>
SCHEMBL16122844

> <PUBCHEM_EXT_DATASOURCE_URL>
https://www.surechembl.org/

> <PUBCHEM_EXT_SUBSTANCE_URL>
https://www.surechembl.org/chemical/SCHEMBL16122844

> <PUBCHEM_CID_ASSOCIATIONS>
117610981  1

> <PUBCHEM_COORDINATE_TYPE>
1
3

$$$$
