310935506
  -OEChem-07211613022D

 37 42  0     1  0  0  0  0  0999 V2000
    5.6598   -2.6884    0.0000 F   0  0  0  0  0  0  0  0  0  0  0  0
    5.2825   -3.4430    0.0000 F   0  0  0  0  0  0  0  0  0  0  0  0
    3.5374   -5.7541    0.0000 O   0  0  0  0  0  0  0  0  0  0  0  0
    0.7075   -3.3015    0.0000 N   0  0  3  0  0  0  0  0  0  0  0  0
    3.5374   -2.4526    0.0000 N   0  0  3  0  0  0  0  0  0  0  0  0
    0.0000   -2.0752    0.0000 N   0  0  0  0  0  0  0  0  0  0  0  0
    0.7075   -0.8018    0.0000 N   0  0  0  0  0  0  0  0  0  0  0  0
    2.8299   -6.9804    0.0000 N   0  0  0  0  0  0  0  0  0  0  0  0
    2.8299   -9.4330    0.0000 N   0  0  0  0  0  0  0  0  0  0  0  0
    1.4149   -2.0752    0.0000 C   0  0  0  0  0  0  0  0  0  0  0  0
    0.7075   -2.4526    0.0000 C   0  0  0  0  0  0  0  0  0  0  0  0
    1.4621   -1.2263    0.0000 C   0  0  0  0  0  0  0  0  0  0  0  0
    2.8299   -2.0752    0.0000 C   0  0  0  0  0  0  0  0  0  0  0  0
    2.1224   -2.4526    0.0000 C   0  0  0  0  0  0  0  0  0  0  0  0
    2.1224   -0.8490    0.0000 C   0  0  0  0  0  0  0  0  0  0  0  0
    2.8299   -1.2263    0.0000 C   0  0  0  0  0  0  0  0  0  0  0  0
    1.4149   -4.5279    0.0000 C   0  0  0  0  0  0  0  0  0  0  0  0
    1.4149   -3.6788    0.0000 C   0  0  0  0  0  0  0  0  0  0  0  0
    0.7075   -4.9523    0.0000 C   0  0  0  0  0  0  0  0  0  0  0  0
    4.8580   -2.7355    0.0000 C   0  0  0  0  0  0  0  0  0  0  0  0
    0.0000   -3.6788    0.0000 C   0  0  0  0  0  0  0  0  0  0  0  0
    4.2920   -2.1224    0.0000 C   0  0  0  0  0  0  0  0  0  0  0  0
    0.0000   -1.2263    0.0000 C   0  0  0  0  0  0  0  0  0  0  0  0
    2.1224   -5.7541    0.0000 C   0  0  0  0  0  0  0  0  0  0  0  0
    3.6317   -3.3015    0.0000 C   0  0  0  0  0  0  0  0  0  0  0  0
    2.1224   -4.9052    0.0000 C   0  0  0  0  0  0  0  0  0  0  0  0
    0.0000   -4.5279    0.0000 C   0  0  0  0  0  0  0  0  0  0  0  0
    4.4335   -3.4902    0.0000 C   0  0  0  0  0  0  0  0  0  0  0  0
    0.7075   -5.7541    0.0000 C   0  0  0  0  0  0  0  0  0  0  0  0
    2.8299   -6.1315    0.0000 C   0  0  0  0  0  0  0  0  0  0  0  0
    1.4149   -6.1315    0.0000 C   0  0  0  0  0  0  0  0  0  0  0  0
    2.1224    0.0000    0.0000 C   0  0  0  0  0  0  0  0  0  0  0  0
    3.5374   -7.3577    0.0000 C   0  0  0  0  0  0  0  0  0  0  0  0
    2.1224   -7.3577    0.0000 C   0  0  0  0  0  0  0  0  0  0  0  0
    3.5374   -8.2067    0.0000 C   0  0  0  0  0  0  0  0  0  0  0  0
    2.1224   -8.2067    0.0000 C   0  0  0  0  0  0  0  0  0  0  0  0
    2.8299   -8.6311    0.0000 C   0  0  0  0  0  0  0  0  0  0  0  0
  1 20  1  0  0  0  0
  2 20  1  0  0  0  0
  3 30  2  0  0  0  0
  4 11  1  0  0  0  0
  4 18  1  0  0  0  0
  4 21  1  0  0  0  0
  5 13  1  0  0  0  0
  5 22  1  0  0  0  0
  5 25  1  0  0  0  0
  6 11  1  0  0  0  0
  6 23  2  0  0  0  0
  7 12  2  0  0  0  0
  7 23  1  0  0  0  0
  8 30  1  0  0  0  0
  8 33  1  0  0  0  0
  8 34  1  0  0  0  0
  9 37  1  0  0  0  0
 10 11  2  0  0  0  0
 10 12  1  0  0  0  0
 10 14  1  0  0  0  0
 12 15  1  0  0  0  0
 13 14  2  0  0  0  0
 13 16  1  0  0  0  0
 15 16  2  0  0  0  0
 15 32  1  0  0  0  0
 17 18  1  0  0  0  0
 17 19  2  0  0  0  0
 17 26  1  0  0  0  0
 19 27  1  0  0  0  0
 19 29  1  0  0  0  0
 20 22  1  0  0  0  0
 20 28  1  0  0  0  0
 21 27  1  0  0  0  0
 24 26  2  0  0  0  0
 24 30  1  0  0  0  0
 24 31  1  0  0  0  0
 25 28  1  0  0  0  0
 29 31  2  0  0  0  0
 33 35  1  0  0  0  0
 34 36  1  0  0  0  0
 35 37  1  0  0  0  0
 36 37  1  0  0  0  0
M  END
> <PUBCHEM_COMPOUND_ID_TYPE>
0

> <PUBCHEM_TOTAL_CHARGE>
0

> <PUBCHEM_SUBSTANCE_ID>
310935506

> <PUBCHEM_SUBSTANCE_VERSION>
1

> <PUBCHEM_EXT_DATASOURCE_NAME>
4488

> <PUBCHEM_EXT_DATASOURCE_REGID>
SCHEMBL16113073

> <PUBCHEM_SUBSTANCE_COMMENT>
InChI=1S/C28H32F2N6O/c1-18-12-23(36-11-7-28(29,30)16-36)14-24-25(18)32-17-33-26(24)35-8-4-19-2-3-20(13-21(19)15-35)27(37)34-9-5-22(31)6-10-34/h2-3,12-14,17,22H,4-11,15-16,31H2,1H3
InChIKey=ZPILCGUJBWFPPU-UHFFFAOYSA-N

> <PUBCHEM_SUBSTANCE_SYNONYM>
SCHEMBL16113073

> <PUBCHEM_XREF_EXT_ID>
SCHEMBL16113073

> <PUBCHEM_EXT_DATASOURCE_URL>
https://www.surechembl.org/

> <PUBCHEM_EXT_SUBSTANCE_URL>
https://www.surechembl.org/chemical/SCHEMBL16113073

> <PUBCHEM_CID_ASSOCIATIONS>
117603538  1

> <PUBCHEM_COORDINATE_TYPE>
1
3

$$$$
