310930752
  -OEChem-07211613022D

 40 44  0     1  0  0  0  0  0999 V2000
    1.5126    2.2715    0.0000 F   0  0  0  0  0  0  0  0  0  0  0  0
    0.8771    3.2500    0.0000 F   0  0  0  0  0  0  0  0  0  0  0  0
    0.5341    1.6360    0.0000 F   0  0  0  0  0  0  0  0  0  0  0  0
    2.8579   -2.4750    0.0000 F   0  0  0  0  0  0  0  0  0  0  0  0
   -1.4289   -5.7750    0.0000 F   0  0  0  0  0  0  0  0  0  0  0  0
   -2.2539   -4.9500    0.0000 F   0  0  0  0  0  0  0  0  0  0  0  0
   -0.6039   -4.9500    0.0000 F   0  0  0  0  0  0  0  0  0  0  0  0
    1.4289   -2.4750    0.0000 O   0  0  0  0  0  0  0  0  0  0  0  0
   -0.7145   -3.7125    0.0000 O   0  0  0  0  0  0  0  0  0  0  0  0
    0.7145   -1.2375    0.0000 N   0  0  0  0  0  0  0  0  0  0  0  0
    1.4289    0.0000    0.0000 N   0  0  0  0  0  0  0  0  0  0  0  0
    0.0000    0.8250    0.0000 N   0  0  0  0  0  0  0  0  0  0  0  0
   -1.2574    3.2820    0.0000 N   0  0  0  0  0  0  0  0  0  0  0  0
   -1.4289    0.8250    0.0000 N   0  0  0  0  0  0  0  0  0  0  0  0
   -2.1434    2.0625    0.0000 N   0  0  0  0  0  0  0  0  0  0  0  0
    0.7145   -0.4125    0.0000 C   0  0  0  0  0  0  0  0  0  0  0  0
   -0.7145    2.0625    0.0000 C   0  0  0  0  0  0  0  0  0  0  0  0
    2.1434   -1.2375    0.0000 C   0  0  0  0  0  0  0  0  0  0  0  0
    1.4289   -1.6500    0.0000 C   0  0  0  0  0  0  0  0  0  0  0  0
   -0.1014    2.6145    0.0000 C   0  0  0  0  0  0  0  0  0  0  0  0
    2.1434   -0.4125    0.0000 C   0  0  0  0  0  0  0  0  0  0  0  0
   -0.7145    1.2375    0.0000 C   0  0  0  0  0  0  0  0  0  0  0  0
   -1.4289    2.4750    0.0000 C   0  0  0  0  0  0  0  0  0  0  0  0
    0.0000    0.0000    0.0000 C   0  0  3  0  0  0  0  0  0  0  0  0
    0.0000   -1.6500    0.0000 C   0  0  0  0  0  0  0  0  0  0  0  0
    0.7056    2.4430    0.0000 C   0  0  0  0  0  0  0  0  0  0  0  0
    2.8579   -1.6500    0.0000 C   0  0  0  0  0  0  0  0  0  0  0  0
   -0.4369    3.3682    0.0000 C   0  0  0  0  0  0  0  0  0  0  0  0
    2.8579    0.0000    0.0000 C   0  0  0  0  0  0  0  0  0  0  0  0
    0.0000   -2.4750    0.0000 C   0  0  0  0  0  0  0  0  0  0  0  0
   -0.7145   -1.2375    0.0000 C   0  0  0  0  0  0  0  0  0  0  0  0
    3.5724   -1.2375    0.0000 C   0  0  0  0  0  0  0  0  0  0  0  0
   -2.1434    1.2375    0.0000 C   0  0  0  0  0  0  0  0  0  0  0  0
    3.5724   -0.4125    0.0000 C   0  0  0  0  0  0  0  0  0  0  0  0
   -0.7145   -2.8875    0.0000 C   0  0  0  0  0  0  0  0  0  0  0  0
   -0.7145   -0.4125    0.0000 C   0  0  0  0  0  0  0  0  0  0  0  0
   -1.4289   -1.6500    0.0000 C   0  0  0  0  0  0  0  0  0  0  0  0
   -1.4289   -2.4750    0.0000 C   0  0  0  0  0  0  0  0  0  0  0  0
   -1.4289   -4.1250    0.0000 C   0  0  0  0  0  0  0  0  0  0  0  0
   -1.4289   -4.9500    0.0000 C   0  0  0  0  0  0  0  0  0  0  0  0
  1 26  1  0  0  0  0
  2 26  1  0  0  0  0
  3 26  1  0  0  0  0
  4 27  1  0  0  0  0
  5 40  1  0  0  0  0
  6 40  1  0  0  0  0
  7 40  1  0  0  0  0
  8 19  2  0  0  0  0
  9 35  1  0  0  0  0
  9 39  1  0  0  0  0
 10 16  1  0  0  0  0
 10 19  1  0  0  0  0
 10 25  1  0  0  0  0
 11 16  2  0  0  0  0
 11 21  1  0  0  0  0
 12 22  1  0  0  0  0
 12 24  1  0  0  0  0
 13 23  1  0  0  0  0
 13 28  1  0  0  0  0
 14 22  2  0  0  0  0
 14 33  1  0  0  0  0
 15 23  1  0  0  0  0
 15 33  2  0  0  0  0
 16 24  1  0  0  0  0
 17 20  1  0  0  0  0
 17 22  1  0  0  0  0
 17 23  2  0  0  0  0
 18 19  1  0  0  0  0
 18 21  1  0  0  0  0
 18 27  2  0  0  0  0
 20 26  1  0  0  0  0
 20 28  2  0  0  0  0
 21 29  2  0  0  0  0
 24 36  1  0  0  0  0
 25 30  2  0  0  0  0
 25 31  1  0  0  0  0
 27 32  1  0  0  0  0
 29 34  1  0  0  0  0
 30 35  1  0  0  0  0
 31 37  2  0  0  0  0
 32 34  2  0  0  0  0
 35 38  2  0  0  0  0
 37 38  1  0  0  0  0
 39 40  1  0  0  0  0
M  END
> <PUBCHEM_COMPOUND_ID_TYPE>
0

> <PUBCHEM_TOTAL_CHARGE>
0

> <PUBCHEM_SUBSTANCE_ID>
310930752

> <PUBCHEM_SUBSTANCE_VERSION>
1

> <PUBCHEM_EXT_DATASOURCE_NAME>
4488

> <PUBCHEM_EXT_DATASOURCE_REGID>
SCHEMBL16108049

> <PUBCHEM_SUBSTANCE_COMMENT>
InChI=1S/C25H17F7N6O2/c1-12(36-21-18-15(25(30,31)32)9-33-20(18)34-11-35-21)22-37-17-7-3-6-16(26)19(17)23(39)38(22)13-4-2-5-14(8-13)40-10-24(27,28)29/h2-9,11-12H,10H2,1H3,(H2,33,34,35,36)
InChIKey=QJGRAQLAZAWQBB-UHFFFAOYSA-N

> <PUBCHEM_SUBSTANCE_SYNONYM>
SCHEMBL16108049

> <PUBCHEM_XREF_EXT_ID>
SCHEMBL16108049

> <PUBCHEM_EXT_DATASOURCE_URL>
https://www.surechembl.org/

> <PUBCHEM_EXT_SUBSTANCE_URL>
https://www.surechembl.org/chemical/SCHEMBL16108049

> <PUBCHEM_CID_ASSOCIATIONS>
117599772  1

> <PUBCHEM_COORDINATE_TYPE>
1
3

$$$$
