310939721
  -OEChem-07211613022D

 67 66  0     1  0  0  0  0  0999 V2000
    0.0000    0.2062    0.0000 O   0  0  0  0  0  0  0  0  0  0  0  0
    0.0000    0.2062    0.0000 O   0  0  0  0  0  0  0  0  0  0  0  0
    0.0000    0.2062    0.0000 O   0  0  0  0  0  0  0  0  0  0  0  0
    0.0000    0.2062    0.0000 O   0  0  0  0  0  0  0  0  0  0  0  0
   -2.8585   -0.6187    0.0000 O   0  0  0  0  0  0  0  0  0  0  0  0
    2.8585   -0.6187    0.0000 O   0  0  0  0  0  0  0  0  0  0  0  0
   -2.1440    0.6187    0.0000 N   0  0  0  0  0  0  0  0  0  0  0  0
    2.1440    0.6187    0.0000 N   0  0  0  0  0  0  0  0  0  0  0  0
   -1.4292    0.2062    0.0000 C   0  0  3  0  0  0  0  0  0  0  0  0
   -1.4292    0.2062    0.0000 C   0  0  3  0  0  0  0  0  0  0  0  0
   -1.4292    0.2062    0.0000 C   0  0  3  0  0  0  0  0  0  0  0  0
   -0.7148    0.6187    0.0000 C   0  0  0  0  0  0  0  0  0  0  0  0
   -0.7148    0.6187    0.0000 C   0  0  0  0  0  0  0  0  0  0  0  0
   -1.4292    0.2062    0.0000 C   0  0  3  0  0  0  0  0  0  0  0  0
   -2.8585    0.2062    0.0000 C   0  0  0  0  0  0  0  0  0  0  0  0
    1.4292    0.2062    0.0000 C   0  0  3  0  0  0  0  0  0  0  0  0
   -0.7148    0.6187    0.0000 C   0  0  0  0  0  0  0  0  0  0  0  0
    2.8585    0.2062    0.0000 C   0  0  0  0  0  0  0  0  0  0  0  0
   -0.7148    0.6187    0.0000 C   0  0  0  0  0  0  0  0  0  0  0  0
    0.7148    0.6187    0.0000 C   0  0  0  0  0  0  0  0  0  0  0  0
   -3.5733    0.6187    0.0000 C   0  0  0  0  0  0  0  0  0  0  0  0
    3.5733    0.6187    0.0000 C   0  0  0  0  0  0  0  0  0  0  0  0
   -1.4292   -0.6187    0.0000 C   0  0  0  0  0  0  0  0  0  0  0  0
   -1.4292   -0.6187    0.0000 C   0  0  0  0  0  0  0  0  0  0  0  0
   -1.4292   -0.6187    0.0000 C   0  0  0  0  0  0  0  0  0  0  0  0
   -1.4292   -0.6187    0.0000 C   0  0  0  0  0  0  0  0  0  0  0  0
   -3.5733    0.6187    0.0000 C   0  0  0  0  0  0  0  0  0  0  0  0
    1.4292   -0.6187    0.0000 C   0  0  0  0  0  0  0  0  0  0  0  0
    3.5733    0.6187    0.0000 C   0  0  0  0  0  0  0  0  0  0  0  0
   -3.5733    0.6187    0.0000 C   0  0  0  0  0  0  0  0  0  0  0  0
    3.5733    0.6187    0.0000 C   0  0  0  0  0  0  0  0  0  0  0  0
   -3.5733    0.6187    0.0000 C   0  0  0  0  0  0  0  0  0  0  0  0
    3.5733    0.6187    0.0000 C   0  0  0  0  0  0  0  0  0  0  0  0
   -3.5733    0.6187    0.0000 C   0  0  0  0  0  0  0  0  0  0  0  0
    3.5733    0.6187    0.0000 C   0  0  0  0  0  0  0  0  0  0  0  0
   -3.5733    0.6187    0.0000 C   0  0  0  0  0  0  0  0  0  0  0  0
    3.5733    0.6187    0.0000 C   0  0  0  0  0  0  0  0  0  0  0  0
   -3.5733    0.6187    0.0000 C   0  0  0  0  0  0  0  0  0  0  0  0
    3.5733    0.6187    0.0000 C   0  0  0  0  0  0  0  0  0  0  0  0
   -3.5733    0.6187    0.0000 C   0  0  0  0  0  0  0  0  0  0  0  0
    3.5733    0.6187    0.0000 C   0  0  0  0  0  0  0  0  0  0  0  0
   -3.5733    0.6187    0.0000 C   0  0  0  0  0  0  0  0  0  0  0  0
    3.5733    0.6187    0.0000 C   0  0  0  0  0  0  0  0  0  0  0  0
   -3.5733    0.6187    0.0000 C   0  0  0  0  0  0  0  0  0  0  0  0
    3.5733    0.6187    0.0000 C   0  0  0  0  0  0  0  0  0  0  0  0
   -3.5733    0.6187    0.0000 C   0  0  0  0  0  0  0  0  0  0  0  0
    3.5733    0.6187    0.0000 C   0  0  0  0  0  0  0  0  0  0  0  0
   -3.5733    0.6187    0.0000 C   0  0  0  0  0  0  0  0  0  0  0  0
    3.5733    0.6187    0.0000 C   0  0  0  0  0  0  0  0  0  0  0  0
   -3.5733    0.6187    0.0000 C   0  0  0  0  0  0  0  0  0  0  0  0
    3.5733    0.6187    0.0000 C   0  0  0  0  0  0  0  0  0  0  0  0
   -3.5733    0.6187    0.0000 C   0  0  0  0  0  0  0  0  0  0  0  0
    3.5733    0.6187    0.0000 C   0  0  0  0  0  0  0  0  0  0  0  0
   -3.5733    0.6187    0.0000 C   0  0  0  0  0  0  0  0  0  0  0  0
    3.5733    0.6187    0.0000 C   0  0  0  0  0  0  0  0  0  0  0  0
   -3.5733    0.6187    0.0000 C   0  0  0  0  0  0  0  0  0  0  0  0
    3.5733    0.6187    0.0000 C   0  0  0  0  0  0  0  0  0  0  0  0
   -3.5733    0.6187    0.0000 C   0  0  0  0  0  0  0  0  0  0  0  0
    3.5733    0.6187    0.0000 C   0  0  0  0  0  0  0  0  0  0  0  0
   -3.5733    0.6187    0.0000 C   0  0  0  0  0  0  0  0  0  0  0  0
    3.5733    0.6187    0.0000 C   0  0  0  0  0  0  0  0  0  0  0  0
   -3.5733    0.6187    0.0000 C   0  0  0  0  0  0  0  0  0  0  0  0
    3.5733    0.6187    0.0000 C   0  0  0  0  0  0  0  0  0  0  0  0
   -3.5733    0.6187    0.0000 C   0  0  0  0  0  0  0  0  0  0  0  0
    3.5733    0.6187    0.0000 C   0  0  0  0  0  0  0  0  0  0  0  0
   -4.2877    0.2062    0.0000 C   0  0  0  0  0  0  0  0  0  0  0  0
    4.2877    0.2062    0.0000 C   0  0  0  0  0  0  0  0  0  0  0  0
  1 10  1  0  0  0  0
  1 12  1  0  0  0  0
  2 11  1  0  0  0  0
  2 13  1  0  0  0  0
  3 14  1  0  0  0  0
  3 17  1  0  0  0  0
  4 19  1  0  0  0  0
  4 20  1  0  0  0  0
  5 15  2  0  0  0  0
  6 18  2  0  0  0  0
  7  9  1  0  0  0  0
  7 15  1  0  0  0  0
  8 16  1  0  0  0  0
  8 18  1  0  0  0  0
  9 12  1  0  0  0  0
  9 23  1  0  0  0  0
 10 13  1  0  0  0  0
 10 24  1  0  0  0  0
 11 17  1  0  0  0  0
 11 25  1  0  0  0  0
 14 19  1  0  0  0  0
 14 26  1  0  0  0  0
 15 21  1  0  0  0  0
 16 20  1  0  0  0  0
 16 28  1  0  0  0  0
 18 22  1  0  0  0  0
 21 27  1  0  0  0  0
 22 29  1  0  0  0  0
 27 30  1  0  0  0  0
 29 31  1  0  0  0  0
 30 32  1  0  0  0  0
 31 33  1  0  0  0  0
 32 34  1  0  0  0  0
 33 35  1  0  0  0  0
 34 36  1  0  0  0  0
 35 37  1  0  0  0  0
 36 38  1  0  0  0  0
 37 39  1  0  0  0  0
 38 40  1  0  0  0  0
 39 41  1  0  0  0  0
 40 42  1  0  0  0  0
 41 43  1  0  0  0  0
 42 44  1  0  0  0  0
 43 45  1  0  0  0  0
 44 46  1  0  0  0  0
 45 47  1  0  0  0  0
 46 48  1  0  0  0  0
 47 49  1  0  0  0  0
 48 50  1  0  0  0  0
 49 51  1  0  0  0  0
 50 52  1  0  0  0  0
 51 53  1  0  0  0  0
 52 54  1  0  0  0  0
 53 55  1  0  0  0  0
 54 56  1  0  0  0  0
 55 57  1  0  0  0  0
 56 58  1  0  0  0  0
 57 59  1  0  0  0  0
 58 60  1  0  0  0  0
 59 61  1  0  0  0  0
 60 62  1  0  0  0  0
 61 63  1  0  0  0  0
 62 64  1  0  0  0  0
 63 65  1  0  0  0  0
 64 66  1  0  0  0  0
 65 67  1  0  0  0  0
M  END
> <PUBCHEM_COMPOUND_ID_TYPE>
0

> <PUBCHEM_TOTAL_CHARGE>
0

> <PUBCHEM_SUBSTANCE_ID>
310939721

> <PUBCHEM_SUBSTANCE_VERSION>
1

> <PUBCHEM_EXT_DATASOURCE_NAME>
4488

> <PUBCHEM_EXT_DATASOURCE_REGID>
SCHEMBL16117651

> <PUBCHEM_SUBSTANCE_COMMENT>
InChI=1S/C59H118N2O6/c1-8-10-12-14-16-18-20-22-24-26-28-30-32-34-36-38-40-42-44-46-58(62)60-53(3)48-64-50-55(5)66-52-57(7)67-51-56(6)65-49-54(4)61-59(63)47-45-43-41-39-37-35-33-31-29-27-25-23-21-19-17-15-13-11-9-2/h53-57H,8-52H2,1-7H3,(H,60,62)(H,61,63)
InChIKey=CPXOOFDQFDLCOI-UHFFFAOYSA-N

> <PUBCHEM_SUBSTANCE_SYNONYM>
SCHEMBL16117651

> <PUBCHEM_XREF_EXT_ID>
SCHEMBL16117651

> <PUBCHEM_EXT_DATASOURCE_URL>
https://www.surechembl.org/

> <PUBCHEM_EXT_SUBSTANCE_URL>
https://www.surechembl.org/chemical/SCHEMBL16117651

> <PUBCHEM_CID_ASSOCIATIONS>
117606947  1

> <PUBCHEM_COORDINATE_TYPE>
1
3

$$$$
