310935647
  -OEChem-07211613022D

 14 13  0     1  0  0  0  0  0999 V2000
    0.8246   -2.0748    0.0000 S   0  0  0  0  0  0  0  0  0  0  0  0
    0.8246   -2.8728    0.0000 O   0  0  0  0  0  0  0  0  0  0  0  0
    0.0000   -2.0748    0.0000 O   0  0  0  0  0  0  0  0  0  0  0  0
    1.6758   -2.0748    0.0000 O   0  0  0  0  0  0  0  0  0  0  0  0
    1.5428    0.0000    0.0000 O   0  0  0  0  0  0  0  0  0  0  0  0
    2.2610   -1.2502    0.0000 O   0  0  0  0  0  0  0  0  0  0  0  0
    0.8246   -1.2502    0.0000 C   0  0  3  0  0  0  0  0  0  0  0  0
    1.5428   -0.8246    0.0000 C   0  0  0  0  0  0  0  0  0  0  0  0
    0.1064   -0.8246    0.0000 C   0  0  0  0  0  0  0  0  0  0  0  0
    1.5428   -3.2983    0.0000 C   0  0  0  0  0  0  0  0  0  0  0  0
    1.5694   -4.0963    0.0000 C   0  0  0  0  0  0  0  0  0  0  0  0
    2.2876   -4.4953    0.0000 C   0  0  0  0  0  0  0  0  0  0  0  0
    2.3142   -5.3199    0.0000 C   0  0  0  0  0  0  0  0  0  0  0  0
    3.0057   -4.0697    0.0000 C   0  0  0  0  0  0  0  0  0  0  0  0
  1  2  1  0  0  0  0
  1  3  2  0  0  0  0
  1  4  2  0  0  0  0
  1  7  1  0  0  0  0
  2 10  1  0  0  0  0
  5  8  2  0  0  0  0
  6  8  1  0  0  0  0
  7  8  1  0  0  0  0
  7  9  1  0  0  0  0
 10 11  1  0  0  0  0
 11 12  1  0  0  0  0
 12 13  1  0  0  0  0
 12 14  1  0  0  0  0
M  END
> <PUBCHEM_COMPOUND_ID_TYPE>
0

> <PUBCHEM_TOTAL_CHARGE>
0

> <PUBCHEM_SUBSTANCE_ID>
310935647

> <PUBCHEM_SUBSTANCE_VERSION>
1

> <PUBCHEM_EXT_DATASOURCE_NAME>
4488

> <PUBCHEM_EXT_DATASOURCE_REGID>
SCHEMBL16113225

> <PUBCHEM_SUBSTANCE_COMMENT>
InChI=1S/C8H16O5S/c1-6(2)4-5-13-14(11,12)7(3)8(9)10/h6-7H,4-5H2,1-3H3,(H,9,10)
InChIKey=ZAVPGKHJNAGOIU-UHFFFAOYSA-N

> <PUBCHEM_SUBSTANCE_SYNONYM>
SCHEMBL16113225

> <PUBCHEM_XREF_EXT_ID>
SCHEMBL16113225

> <PUBCHEM_EXT_DATASOURCE_URL>
https://www.surechembl.org/

> <PUBCHEM_EXT_SUBSTANCE_URL>
https://www.surechembl.org/chemical/SCHEMBL16113225

> <PUBCHEM_CID_ASSOCIATIONS>
117603659  1

> <PUBCHEM_COORDINATE_TYPE>
1
3

$$$$
