310945766
  -OEChem-07211613022D

 41 43  0     1  0  0  0  0  0999 V2000
    3.4493    2.3774    0.0000 S   0  0  0  0  0  0  0  0  0  0  0  0
    4.7960   -1.3742    0.0000 O   0  0  0  0  0  0  0  0  0  0  0  0
    3.6692    0.5909    0.0000 O   0  0  0  0  0  0  0  0  0  0  0  0
    1.3055   -1.3605    0.0000 O   0  0  0  0  0  0  0  0  0  0  0  0
    3.0370    3.0920    0.0000 O   0  0  0  0  0  0  0  0  0  0  0  0
    3.8753    1.6491    0.0000 O   0  0  0  0  0  0  0  0  0  0  0  0
   -0.8383    0.7146    0.0000 O   0  0  0  0  0  0  0  0  0  0  0  0
   -2.9821   -1.3605    0.0000 O   0  0  0  0  0  0  0  0  0  0  0  0
   -5.1258   -0.9345    0.0000 O   0  0  0  0  0  0  0  0  0  0  0  0
    2.0338   -0.1100    0.0000 N   0  0  0  0  0  0  0  0  0  0  0  0
   -0.1100   -0.5222    0.0000 N   0  0  0  0  0  0  0  0  0  0  0  0
   -2.2675   -0.1100    0.0000 N   0  0  0  0  0  0  0  0  0  0  0  0
    4.3975   -0.6184    0.0000 C   0  0  3  0  0  0  0  0  0  0  0  0
    3.6692   -0.2199    0.0000 C   0  0  0  0  0  0  0  0  0  0  0  0
    3.9990   -1.3330    0.0000 C   0  0  0  0  0  0  0  0  0  0  0  0
    2.9821   -0.6184    0.0000 C   0  0  3  0  0  0  0  0  0  0  0  0
    5.1258   -0.2199    0.0000 C   0  0  0  0  0  0  0  0  0  0  0  0
    2.9683   -1.6903    0.0000 C   0  0  0  0  0  0  0  0  0  0  0  0
    1.3192   -0.4672    0.0000 C   0  0  0  0  0  0  0  0  0  0  0  0
    0.5909   -0.0825    0.0000 C   0  0  3  0  0  0  0  0  0  0  0  0
    2.2537   -2.1026    0.0000 C   0  0  0  0  0  0  0  0  0  0  0  0
    0.6046    0.7558    0.0000 C   0  0  0  0  0  0  0  0  0  0  0  0
    1.3192    1.1681    0.0000 C   0  0  0  0  0  0  0  0  0  0  0  0
    2.7484    1.9926    0.0000 C   0  0  0  0  0  0  0  0  0  0  0  0
   -0.8383   -0.0962    0.0000 C   0  0  0  0  0  0  0  0  0  0  0  0
    1.3330    1.9926    0.0000 C   0  0  0  0  0  0  0  0  0  0  0  0
    2.0338    0.7558    0.0000 C   0  0  0  0  0  0  0  0  0  0  0  0
    1.4979   -1.7865    0.0000 C   0  0  0  0  0  0  0  0  0  0  0  0
    2.1438   -2.9270    0.0000 C   0  0  0  0  0  0  0  0  0  0  0  0
    2.0201    2.3912    0.0000 C   0  0  0  0  0  0  0  0  0  0  0  0
    2.7484    1.1681    0.0000 C   0  0  0  0  0  0  0  0  0  0  0  0
   -1.5254   -0.4947    0.0000 C   0  0  3  0  0  0  0  0  0  0  0  0
    0.9482   -2.3912    0.0000 C   0  0  0  0  0  0  0  0  0  0  0  0
    1.3605   -3.0920    0.0000 C   0  0  0  0  0  0  0  0  0  0  0  0
    4.2051    2.8034    0.0000 C   0  0  0  0  0  0  0  0  0  0  0  0
   -2.9683   -0.4672    0.0000 C   0  0  0  0  0  0  0  0  0  0  0  0
   -1.5391   -1.3330    0.0000 C   0  0  0  0  0  0  0  0  0  0  0  0
   -3.6967   -0.0825    0.0000 C   0  0  0  0  0  0  0  0  0  0  0  0
   -4.4113   -0.4947    0.0000 C   0  0  0  0  0  0  0  0  0  0  0  0
   -4.3975   -1.3330    0.0000 C   0  0  0  0  0  0  0  0  0  0  0  0
   -5.1258   -0.0962    0.0000 C   0  0  0  0  0  0  0  0  0  0  0  0
  1  5  2  0  0  0  0
  1  6  2  0  0  0  0
  1 24  1  0  0  0  0
  1 35  1  0  0  0  0
  2 13  1  0  0  0  0
  2 15  1  0  0  0  0
  3 14  2  0  0  0  0
  4 19  2  0  0  0  0
  7 25  2  0  0  0  0
  8 36  2  0  0  0  0
  9 39  1  0  0  0  0
 10 16  1  0  0  0  0
 10 19  1  0  0  0  0
 11 20  1  0  0  0  0
 11 25  1  0  0  0  0
 12 32  1  0  0  0  0
 12 36  1  0  0  0  0
 13 14  1  0  0  0  0
 13 15  1  0  0  0  0
 13 17  1  0  0  0  0
 14 16  1  0  0  0  0
 16 18  1  0  0  0  0
 18 21  1  0  0  0  0
 19 20  1  0  0  0  0
 20 22  1  0  0  0  0
 21 28  1  0  0  0  0
 21 29  1  0  0  0  0
 22 23  1  0  0  0  0
 23 26  2  0  0  0  0
 23 27  1  0  0  0  0
 24 30  2  0  0  0  0
 24 31  1  0  0  0  0
 25 32  1  0  0  0  0
 26 30  1  0  0  0  0
 27 31  2  0  0  0  0
 28 33  1  0  0  0  0
 29 34  1  0  0  0  0
 32 37  1  0  0  0  0
 33 34  1  0  0  0  0
 36 38  1  0  0  0  0
 38 39  1  0  0  0  0
 39 40  1  0  0  0  0
 39 41  1  0  0  0  0
M  END
> <PUBCHEM_COMPOUND_ID_TYPE>
0

> <PUBCHEM_TOTAL_CHARGE>
0

> <PUBCHEM_SUBSTANCE_ID>
310945766

> <PUBCHEM_SUBSTANCE_VERSION>
1

> <PUBCHEM_EXT_DATASOURCE_NAME>
4488

> <PUBCHEM_EXT_DATASOURCE_REGID>
SCHEMBL16123870

> <PUBCHEM_SUBSTANCE_COMMENT>
InChI=1S/C29H43N3O8S/c1-18(30-24(33)16-28(2,3)37)26(35)32-23(15-20-10-12-21(13-11-20)41(5,38)39)27(36)31-22(14-19-8-6-7-9-19)25(34)29(4)17-40-29/h10-13,18-19,22-23,37H,6-9,14-17H2,1-5H3,(H,30,33)(H,31,36)(H,32,35)
InChIKey=MZUKAQSGKTXSCG-UHFFFAOYSA-N

> <PUBCHEM_SUBSTANCE_SYNONYM>
SCHEMBL16123870

> <PUBCHEM_XREF_EXT_ID>
SCHEMBL16123870

> <PUBCHEM_EXT_DATASOURCE_URL>
https://www.surechembl.org/

> <PUBCHEM_EXT_SUBSTANCE_URL>
https://www.surechembl.org/chemical/SCHEMBL16123870

> <PUBCHEM_CID_ASSOCIATIONS>
117611754  1

> <PUBCHEM_COORDINATE_TYPE>
1
3

$$$$
