310933621
  -OEChem-07211613022D

 32 36  0     1  0  0  0  0  0999 V2000
    5.9815   -0.7104    0.0000 Cl  0  0  0  0  0  0  0  0  0  0  0  0
    2.2688   -0.0229    0.0000 O   0  0  0  0  0  0  0  0  0  0  0  0
    0.0000   -3.5064    0.0000 O   0  0  0  0  0  0  0  0  0  0  0  0
    5.5002   -2.3834    0.0000 O   0  0  0  0  0  0  0  0  0  0  0  0
    4.1939   -1.7188    0.0000 N   0  0  0  0  0  0  0  0  0  0  0  0
    4.1939   -3.0481    0.0000 N   0  0  0  0  0  0  0  0  0  0  0  0
    1.4667   -1.4438    0.0000 N   0  0  0  0  0  0  0  0  0  0  0  0
    0.3896   -4.2168    0.0000 N   0  0  0  0  0  0  0  0  0  0  0  0
    2.6813   -0.7334    0.0000 C   0  0  3  0  0  0  0  0  0  0  0  0
    2.6813   -1.5584    0.0000 C   0  0  0  0  0  0  0  0  0  0  0  0
    3.4147   -1.9480    0.0000 C   0  0  0  0  0  0  0  0  0  0  0  0
    3.4147   -2.8188    0.0000 C   0  0  0  0  0  0  0  0  0  0  0  0
    3.5064   -0.7334    0.0000 C   0  0  0  0  0  0  0  0  0  0  0  0
    1.8563   -0.7563    0.0000 C   0  0  0  0  0  0  0  0  0  0  0  0
    1.9938   -2.8188    0.0000 C   0  0  0  0  0  0  0  0  0  0  0  0
    1.9938   -1.9480    0.0000 C   0  0  0  0  0  0  0  0  0  0  0  0
    2.6813   -3.2085    0.0000 C   0  0  0  0  0  0  0  0  0  0  0  0
    1.2834   -3.2313    0.0000 C   0  0  0  0  0  0  0  0  0  0  0  0
    4.6752   -2.3834    0.0000 C   0  0  0  0  0  0  0  0  0  0  0  0
    0.5271   -2.9106    0.0000 C   0  0  0  0  0  0  0  0  0  0  0  0
    1.1917   -4.0335    0.0000 C   0  0  0  0  0  0  0  0  0  0  0  0
    3.9189    0.0000    0.0000 C   0  0  0  0  0  0  0  0  0  0  0  0
    3.9189   -1.4209    0.0000 C   0  0  0  0  0  0  0  0  0  0  0  0
    1.4438   -0.0229    0.0000 C   0  0  0  0  0  0  0  0  0  0  0  0
    4.7210    0.0000    0.0000 C   0  0  0  0  0  0  0  0  0  0  0  0
    4.7439   -1.4209    0.0000 C   0  0  0  0  0  0  0  0  0  0  0  0
    5.1565   -0.7104    0.0000 C   0  0  0  0  0  0  0  0  0  0  0  0
    0.6417   -1.4896    0.0000 C   0  0  0  0  0  0  0  0  0  0  0  0
    0.6188   -0.0688    0.0000 C   0  0  0  0  0  0  0  0  0  0  0  0
    0.2291   -0.7792    0.0000 C   0  0  0  0  0  0  0  0  0  0  0  0
    0.3438   -2.0855    0.0000 C   0  0  0  0  0  0  0  0  0  0  0  0
    1.8105   -4.5835    0.0000 C   0  0  0  0  0  0  0  0  0  0  0  0
  1 27  1  0  0  0  0
  2  9  1  0  0  0  0
  3  8  1  0  0  0  0
  3 20  1  0  0  0  0
  4 19  2  0  0  0  0
  5 11  1  0  0  0  0
  5 19  1  0  0  0  0
  6 12  1  0  0  0  0
  6 19  1  0  0  0  0
  7 14  1  0  0  0  0
  7 28  2  0  0  0  0
  8 21  2  0  0  0  0
  9 10  1  0  0  0  0
  9 13  1  0  0  0  0
  9 14  1  0  0  0  0
 10 11  1  0  0  0  0
 10 16  2  0  0  0  0
 11 12  2  0  0  0  0
 12 17  1  0  0  0  0
 13 22  2  0  0  0  0
 13 23  1  0  0  0  0
 14 24  2  0  0  0  0
 15 16  1  0  0  0  0
 15 17  2  0  0  0  0
 15 18  1  0  0  0  0
 18 20  2  0  0  0  0
 18 21  1  0  0  0  0
 20 31  1  0  0  0  0
 21 32  1  0  0  0  0
 22 25  1  0  0  0  0
 23 26  2  0  0  0  0
 24 29  1  0  0  0  0
 25 27  2  0  0  0  0
 26 27  1  0  0  0  0
 28 30  1  0  0  0  0
 29 30  2  0  0  0  0
M  END
> <PUBCHEM_COMPOUND_ID_TYPE>
0

> <PUBCHEM_TOTAL_CHARGE>
0

> <PUBCHEM_SUBSTANCE_ID>
310933621

> <PUBCHEM_SUBSTANCE_VERSION>
1

> <PUBCHEM_EXT_DATASOURCE_NAME>
4488

> <PUBCHEM_EXT_DATASOURCE_REGID>
SCHEMBL16111051

> <PUBCHEM_SUBSTANCE_COMMENT>
InChI=1S/C24H19ClN4O3/c1-13-21(14(2)32-29-13)15-11-18(22-19(12-15)27-23(30)28-22)24(31,20-5-3-4-10-26-20)16-6-8-17(25)9-7-16/h3-12,31H,1-2H3,(H2,27,28,30)
InChIKey=NHLHKDPDEBCBDF-UHFFFAOYSA-N

> <PUBCHEM_SUBSTANCE_SYNONYM>
SCHEMBL16111051

> <PUBCHEM_XREF_EXT_ID>
SCHEMBL16111051

> <PUBCHEM_EXT_DATASOURCE_URL>
https://www.surechembl.org/

> <PUBCHEM_EXT_SUBSTANCE_URL>
https://www.surechembl.org/chemical/SCHEMBL16111051

> <PUBCHEM_CID_ASSOCIATIONS>
117601995  1

> <PUBCHEM_COORDINATE_TYPE>
1
3

$$$$
