310937638
  -OEChem-07211613022D

 23 22  0     1  0  0  0  0  0999 V2000
    6.2702    0.0000    0.0000 O   0  0  0  0  0  0  0  0  0  0  0  0
    6.9853   -1.2101    0.0000 O   0  0  0  0  0  0  0  0  0  0  0  0
    4.8951   -2.4751    0.0000 C   0  0  3  0  0  0  0  0  0  0  0  0
    5.6102   -1.2101    0.0000 C   0  0  0  0  0  0  0  0  0  0  0  0
    5.6102   -2.0351    0.0000 C   0  0  0  0  0  0  0  0  0  0  0  0
    6.2702   -0.8250    0.0000 C   0  0  0  0  0  0  0  0  0  0  0  0
    4.8951   -3.2451    0.0000 C   0  0  0  0  0  0  0  0  0  0  0  0
    4.1801   -2.0351    0.0000 C   0  0  0  0  0  0  0  0  0  0  0  0
    4.1801   -3.6851    0.0000 C   0  0  0  0  0  0  0  0  0  0  0  0
    4.8951   -0.8250    0.0000 C   0  0  0  0  0  0  0  0  0  0  0  0
    4.1801   -4.4551    0.0000 C   0  0  0  0  0  0  0  0  0  0  0  0
    3.4651   -4.8951    0.0000 C   0  0  0  0  0  0  0  0  0  0  0  0
    3.4651   -2.4751    0.0000 C   0  0  0  0  0  0  0  0  0  0  0  0
    3.5201   -5.7202    0.0000 C   0  0  0  0  0  0  0  0  0  0  0  0
    2.8051   -6.1052    0.0000 C   0  0  0  0  0  0  0  0  0  0  0  0
    2.8051   -6.9302    0.0000 C   0  0  0  0  0  0  0  0  0  0  0  0
    2.0901   -7.3152    0.0000 C   0  0  0  0  0  0  0  0  0  0  0  0
    2.0901   -8.1403    0.0000 C   0  0  0  0  0  0  0  0  0  0  0  0
    1.3750   -8.5803    0.0000 C   0  0  0  0  0  0  0  0  0  0  0  0
    1.3750   -9.3503    0.0000 C   0  0  0  0  0  0  0  0  0  0  0  0
    0.6600   -9.7903    0.0000 C   0  0  0  0  0  0  0  0  0  0  0  0
    0.6600  -10.6153    0.0000 C   0  0  0  0  0  0  0  0  0  0  0  0
    0.0000  -11.0003    0.0000 C   0  0  0  0  0  0  0  0  0  0  0  0
  1  6  2  0  0  0  0
  2  6  1  0  0  0  0
  3  5  1  0  0  0  0
  3  7  1  0  0  0  0
  3  8  1  0  0  0  0
  4  5  1  0  0  0  0
  4  6  1  0  0  0  0
  4 10  2  0  0  0  0
  7  9  1  0  0  0  0
  8 13  1  0  0  0  0
  9 11  1  0  0  0  0
 11 12  1  0  0  0  0
 12 14  1  0  0  0  0
 14 15  1  0  0  0  0
 15 16  1  0  0  0  0
 16 17  1  0  0  0  0
 17 18  1  0  0  0  0
 18 19  1  0  0  0  0
 19 20  1  0  0  0  0
 20 21  1  0  0  0  0
 21 22  1  0  0  0  0
 22 23  1  0  0  0  0
M  END
> <PUBCHEM_COMPOUND_ID_TYPE>
0

> <PUBCHEM_TOTAL_CHARGE>
0

> <PUBCHEM_SUBSTANCE_ID>
310937638

> <PUBCHEM_SUBSTANCE_VERSION>
1

> <PUBCHEM_EXT_DATASOURCE_NAME>
4488

> <PUBCHEM_EXT_DATASOURCE_REGID>
SCHEMBL16115425

> <PUBCHEM_SUBSTANCE_COMMENT>
InChI=1S/C21H40O2/c1-4-6-7-8-9-10-11-12-13-14-15-16-17-20(5-2)18-19(3)21(22)23/h20H,3-18H2,1-2H3,(H,22,23)
InChIKey=COOWDDCNRCDGSC-UHFFFAOYSA-N

> <PUBCHEM_SUBSTANCE_SYNONYM>
SCHEMBL16115425

> <PUBCHEM_XREF_EXT_ID>
SCHEMBL16115425

> <PUBCHEM_EXT_DATASOURCE_URL>
https://www.surechembl.org/

> <PUBCHEM_EXT_SUBSTANCE_URL>
https://www.surechembl.org/chemical/SCHEMBL16115425

> <PUBCHEM_CID_ASSOCIATIONS>
117605331  1

> <PUBCHEM_COORDINATE_TYPE>
1
3

$$$$
