310932909
  -OEChem-07211613022D

 31 35  0     1  0  0  0  0  0999 V2000
    3.1070   -0.0230    0.0000 O   0  0  0  0  0  0  0  0  0  0  0  0
    3.9125    0.0000    0.0000 O   0  0  0  0  0  0  0  0  0  0  0  0
    0.0000   -3.5212    0.0000 O   0  0  0  0  0  0  0  0  0  0  0  0
    5.5466   -2.3935    0.0000 O   0  0  0  0  0  0  0  0  0  0  0  0
    4.2117   -1.7261    0.0000 N   0  0  0  0  0  0  0  0  0  0  0  0
    4.2117   -3.0609    0.0000 N   0  0  0  0  0  0  0  0  0  0  0  0
    1.4730   -1.4499    0.0000 N   0  0  0  0  0  0  0  0  0  0  0  0
    0.3913   -4.2347    0.0000 N   0  0  0  0  0  0  0  0  0  0  0  0
    2.6927   -0.7365    0.0000 C   0  0  3  0  0  0  0  0  0  0  0  0
    2.7157   -1.5650    0.0000 C   0  0  0  0  0  0  0  0  0  0  0  0
    3.4292   -1.9563    0.0000 C   0  0  0  0  0  0  0  0  0  0  0  0
    3.4292   -2.8308    0.0000 C   0  0  0  0  0  0  0  0  0  0  0  0
    3.5212   -0.7365    0.0000 C   0  0  3  0  0  0  0  0  0  0  0  0
    1.8642   -0.7365    0.0000 C   0  0  0  0  0  0  0  0  0  0  0  0
    2.0023   -2.8308    0.0000 C   0  0  0  0  0  0  0  0  0  0  0  0
    2.0023   -1.9563    0.0000 C   0  0  0  0  0  0  0  0  0  0  0  0
    2.7157   -3.2220    0.0000 C   0  0  0  0  0  0  0  0  0  0  0  0
    1.3118   -3.2451    0.0000 C   0  0  0  0  0  0  0  0  0  0  0  0
    4.7180   -2.3935    0.0000 C   0  0  0  0  0  0  0  0  0  0  0  0
    0.5524   -2.9229    0.0000 C   0  0  0  0  0  0  0  0  0  0  0  0
    1.2198   -4.0506    0.0000 C   0  0  0  0  0  0  0  0  0  0  0  0
    3.9355   -1.4269    0.0000 C   0  0  0  0  0  0  0  0  0  0  0  0
    1.4499   -0.0230    0.0000 C   0  0  0  0  0  0  0  0  0  0  0  0
    4.7640   -0.0230    0.0000 C   0  0  0  0  0  0  0  0  0  0  0  0
    4.7640   -1.4499    0.0000 C   0  0  0  0  0  0  0  0  0  0  0  0
    0.6444   -1.4960    0.0000 C   0  0  0  0  0  0  0  0  0  0  0  0
    0.6214   -0.0691    0.0000 C   0  0  0  0  0  0  0  0  0  0  0  0
    5.1553   -0.7135    0.0000 C   0  0  0  0  0  0  0  0  0  0  0  0
    0.2302   -0.7825    0.0000 C   0  0  0  0  0  0  0  0  0  0  0  0
    0.3683   -2.0943    0.0000 C   0  0  0  0  0  0  0  0  0  0  0  0
    1.8412   -4.6029    0.0000 C   0  0  0  0  0  0  0  0  0  0  0  0
  1  9  1  0  0  0  0
  2 13  1  0  0  0  0
  2 24  1  0  0  0  0
  3  8  1  0  0  0  0
  3 20  1  0  0  0  0
  4 19  2  0  0  0  0
  5 11  1  0  0  0  0
  5 19  1  0  0  0  0
  6 12  1  0  0  0  0
  6 19  1  0  0  0  0
  7 14  1  0  0  0  0
  7 26  2  0  0  0  0
  8 21  2  0  0  0  0
  9 10  1  0  0  0  0
  9 13  1  0  0  0  0
  9 14  1  0  0  0  0
 10 11  1  0  0  0  0
 10 16  2  0  0  0  0
 11 12  2  0  0  0  0
 12 17  1  0  0  0  0
 13 22  1  0  0  0  0
 14 23  2  0  0  0  0
 15 16  1  0  0  0  0
 15 17  2  0  0  0  0
 15 18  1  0  0  0  0
 18 20  2  0  0  0  0
 18 21  1  0  0  0  0
 20 30  1  0  0  0  0
 21 31  1  0  0  0  0
 22 25  1  0  0  0  0
 23 27  1  0  0  0  0
 24 28  1  0  0  0  0
 25 28  1  0  0  0  0
 26 29  1  0  0  0  0
 27 29  2  0  0  0  0
M  END
> <PUBCHEM_COMPOUND_ID_TYPE>
0

> <PUBCHEM_TOTAL_CHARGE>
0

> <PUBCHEM_SUBSTANCE_ID>
310932909

> <PUBCHEM_SUBSTANCE_VERSION>
1

> <PUBCHEM_EXT_DATASOURCE_NAME>
4488

> <PUBCHEM_EXT_DATASOURCE_REGID>
SCHEMBL16110303

> <PUBCHEM_SUBSTANCE_COMMENT>
InChI=1S/C23H24N4O4/c1-13-20(14(2)31-27-13)15-11-16(21-17(12-15)25-22(28)26-21)23(29,18-7-3-5-9-24-18)19-8-4-6-10-30-19/h3,5,7,9,11-12,19,29H,4,6,8,10H2,1-2H3,(H2,25,26,28)
InChIKey=AYNSBUYGSFEMAZ-UHFFFAOYSA-N

> <PUBCHEM_SUBSTANCE_SYNONYM>
SCHEMBL16110303

> <PUBCHEM_XREF_EXT_ID>
SCHEMBL16110303

> <PUBCHEM_EXT_DATASOURCE_URL>
https://www.surechembl.org/

> <PUBCHEM_EXT_SUBSTANCE_URL>
https://www.surechembl.org/chemical/SCHEMBL16110303

> <PUBCHEM_CID_ASSOCIATIONS>
117601391  1

> <PUBCHEM_COORDINATE_TYPE>
1
3

$$$$
