310943820
  -OEChem-07211613022D

 41 45  0     1  0  0  0  0  0999 V2000
    2.4376    3.5790    0.0000 O   0  0  0  0  0  0  0  0  0  0  0  0
    3.2317    2.1232    0.0000 N   0  0  0  0  0  0  0  0  0  0  0  0
   -3.2757    0.0607    0.0000 N   0  0  3  0  0  0  0  0  0  0  0  0
   -1.1361    3.1599    0.0000 N   0  0  0  0  0  0  0  0  0  0  0  0
    4.9964    1.5828    0.0000 N   0  0  3  0  0  0  0  0  0  0  0  0
   -5.0515    0.5901    0.0000 N   0  0  3  0  0  0  0  0  0  0  0  0
    1.0258   -3.5790    0.0000 N   0  0  0  0  0  0  0  0  0  0  0  0
    0.2978    1.3070    0.0000 C   0  0  0  0  0  0  0  0  0  0  0  0
    1.0147    0.8989    0.0000 C   0  0  0  0  0  0  0  0  0  0  0  0
   -0.4191    0.8989    0.0000 C   0  0  0  0  0  0  0  0  0  0  0  0
    1.7316    2.1342    0.0000 C   0  0  0  0  0  0  0  0  0  0  0  0
    1.0037   -0.0386    0.0000 C   0  0  0  0  0  0  0  0  0  0  0  0
    1.7206    1.3070    0.0000 C   0  0  0  0  0  0  0  0  0  0  0  0
   -1.1361    1.3070    0.0000 C   0  0  0  0  0  0  0  0  0  0  0  0
    0.3088    2.1342    0.0000 C   0  0  0  0  0  0  0  0  0  0  0  0
    1.0258    2.5423    0.0000 C   0  0  0  0  0  0  0  0  0  0  0  0
    2.4265    2.5423    0.0000 C   0  0  0  0  0  0  0  0  0  0  0  0
   -0.4301    0.0607    0.0000 C   0  0  0  0  0  0  0  0  0  0  0  0
   -1.8419    0.8879    0.0000 C   0  0  0  0  0  0  0  0  0  0  0  0
   -1.8419    0.0717    0.0000 C   0  0  0  0  0  0  0  0  0  0  0  0
    1.7206   -0.4467    0.0000 C   0  0  0  0  0  0  0  0  0  0  0  0
    0.3198   -0.4467    0.0000 C   0  0  0  0  0  0  0  0  0  0  0  0
   -1.1250   -0.3474    0.0000 C   0  0  0  0  0  0  0  0  0  0  0  0
   -1.1361    2.3327    0.0000 C   0  0  0  0  0  0  0  0  0  0  0  0
    1.0258   -1.6931    0.0000 C   0  0  0  0  0  0  0  0  0  0  0  0
    1.7206   -1.2739    0.0000 C   0  0  0  0  0  0  0  0  0  0  0  0
    0.3088   -1.2849    0.0000 C   0  0  0  0  0  0  0  0  0  0  0  0
   -2.5478   -0.3585    0.0000 C   0  0  0  0  0  0  0  0  0  0  0  0
    3.5294    1.3622    0.0000 C   0  0  0  0  0  0  0  0  0  0  0  0
    3.6397    2.8401    0.0000 C   0  0  0  0  0  0  0  0  0  0  0  0
    4.3235    1.1085    0.0000 C   0  0  0  0  0  0  0  0  0  0  0  0
    1.0258   -2.7409    0.0000 C   0  0  0  0  0  0  0  0  0  0  0  0
    4.4449    2.9615    0.0000 C   0  0  0  0  0  0  0  0  0  0  0  0
   -3.9596   -0.4136    0.0000 C   0  0  0  0  0  0  0  0  0  0  0  0
   -3.2206    0.8768    0.0000 C   0  0  0  0  0  0  0  0  0  0  0  0
    5.0515    2.4100    0.0000 C   0  0  0  0  0  0  0  0  0  0  0  0
   -4.7537   -0.1599    0.0000 C   0  0  0  0  0  0  0  0  0  0  0  0
   -3.8272    1.4394    0.0000 C   0  0  0  0  0  0  0  0  0  0  0  0
   -4.6324    1.3180    0.0000 C   0  0  0  0  0  0  0  0  0  0  0  0
    5.8897    1.0533    0.0000 C   0  0  0  0  0  0  0  0  0  0  0  0
   -5.8897    0.5901    0.0000 C   0  0  0  0  0  0  0  0  0  0  0  0
  1 17  2  0  0  0  0
  2 17  1  0  0  0  0
  2 29  1  0  0  0  0
  2 30  1  0  0  0  0
  3 28  1  0  0  0  0
  3 34  1  0  0  0  0
  3 35  1  0  0  0  0
  4 24  3  0  0  0  0
  5 31  1  0  0  0  0
  5 36  1  0  0  0  0
  5 40  1  0  0  0  0
  6 37  1  0  0  0  0
  6 39  1  0  0  0  0
  6 41  1  0  0  0  0
  7 32  3  0  0  0  0
  8  9  2  0  0  0  0
  8 10  1  0  0  0  0
  8 15  1  0  0  0  0
  9 12  1  0  0  0  0
  9 13  1  0  0  0  0
 10 14  2  0  0  0  0
 10 18  1  0  0  0  0
 11 13  2  0  0  0  0
 11 16  1  0  0  0  0
 11 17  1  0  0  0  0
 12 21  2  0  0  0  0
 12 22  1  0  0  0  0
 14 19  1  0  0  0  0
 14 24  1  0  0  0  0
 15 16  2  0  0  0  0
 18 23  2  0  0  0  0
 19 20  2  0  0  0  0
 20 23  1  0  0  0  0
 20 28  1  0  0  0  0
 21 26  1  0  0  0  0
 22 27  2  0  0  0  0
 25 26  2  0  0  0  0
 25 27  1  0  0  0  0
 25 32  1  0  0  0  0
 29 31  1  0  0  0  0
 30 33  1  0  0  0  0
 33 36  1  0  0  0  0
 34 37  1  0  0  0  0
 35 38  1  0  0  0  0
 38 39  1  0  0  0  0
M  END
> <PUBCHEM_COMPOUND_ID_TYPE>
0

> <PUBCHEM_TOTAL_CHARGE>
0

> <PUBCHEM_SUBSTANCE_ID>
310943820

> <PUBCHEM_SUBSTANCE_VERSION>
1

> <PUBCHEM_EXT_DATASOURCE_NAME>
4488

> <PUBCHEM_EXT_DATASOURCE_REGID>
SCHEMBL16121891

> <PUBCHEM_SUBSTANCE_COMMENT>
InChI=1S/C34H38N6O/c1-37-13-3-15-39(19-17-37)25-27-7-11-31(30(21-27)24-36)32-12-10-29(34(41)40-16-4-14-38(2)18-20-40)22-33(32)28-8-5-26(23-35)6-9-28/h5-12,21-22H,3-4,13-20,25H2,1-2H3
InChIKey=DITVUDCUHRPWJE-UHFFFAOYSA-N

> <PUBCHEM_SUBSTANCE_SYNONYM>
SCHEMBL16121891

> <PUBCHEM_XREF_EXT_ID>
SCHEMBL16121891

> <PUBCHEM_EXT_DATASOURCE_URL>
https://www.surechembl.org/

> <PUBCHEM_EXT_SUBSTANCE_URL>
https://www.surechembl.org/chemical/SCHEMBL16121891

> <PUBCHEM_CID_ASSOCIATIONS>
117610165  1

> <PUBCHEM_COORDINATE_TYPE>
1
3

$$$$
