310940550
  -OEChem-07211613022D

 20 21  0     1  0  0  0  0  0999 V2000
   -1.2183    0.8291    0.0000 O   0  0  0  0  0  0  0  0  0  0  0  0
    2.6227   -1.6244    0.0000 O   0  0  0  0  0  0  0  0  0  0  0  0
   -0.5246   -0.3892    0.0000 O   0  0  0  0  0  0  0  0  0  0  0  0
    2.6735   -0.1353    0.0000 O   0  0  0  0  0  0  0  0  0  0  0  0
    0.1693    0.8122    0.0000 N   0  0  0  0  0  0  0  0  0  0  0  0
    1.4213   -0.9306    0.0000 N   0  0  0  0  0  0  0  0  0  0  0  0
    0.8291    0.4399    0.0000 C   0  0  3  0  0  0  0  0  0  0  0  0
   -0.5415    0.5246    0.0000 C   0  0  0  0  0  0  0  0  0  0  0  0
    0.7953   -0.3892    0.0000 C   0  0  0  0  0  0  0  0  0  0  0  0
    2.2504   -0.7783    0.0000 C   0  0  0  0  0  0  0  0  0  0  0  0
    0.2369    1.7259    0.0000 C   0  0  0  0  0  0  0  0  0  0  0  0
    1.5737    0.7952    0.0000 C   0  0  0  0  0  0  0  0  0  0  0  0
    1.3029   -1.6752    0.0000 C   0  0  0  0  0  0  0  0  0  0  0  0
   -1.9627    0.4908    0.0000 C   0  0  0  0  0  0  0  0  0  0  0  0
    2.0304   -2.0813    0.0000 C   0  0  0  0  0  0  0  0  0  0  0  0
    0.9645    2.0813    0.0000 C   0  0  0  0  0  0  0  0  0  0  0  0
    1.6413    1.6075    0.0000 C   0  0  0  0  0  0  0  0  0  0  0  0
   -2.6565    0.9137    0.0000 C   0  0  0  0  0  0  0  0  0  0  0  0
   -2.6735    0.1015    0.0000 C   0  0  0  0  0  0  0  0  0  0  0  0
   -1.9289   -0.3554    0.0000 C   0  0  0  0  0  0  0  0  0  0  0  0
  1  8  1  0  0  0  0
  1 14  1  0  0  0  0
  2 10  1  0  0  0  0
  2 15  1  0  0  0  0
  3  8  2  0  0  0  0
  4 10  2  0  0  0  0
  5  7  1  0  0  0  0
  5  8  1  0  0  0  0
  5 11  1  0  0  0  0
  6  9  1  0  0  0  0
  6 10  1  0  0  0  0
  6 13  1  0  0  0  0
  7  9  1  0  0  0  0
  7 12  1  0  0  0  0
 11 16  1  0  0  0  0
 12 17  1  0  0  0  0
 13 15  2  0  0  0  0
 14 18  1  0  0  0  0
 14 19  1  0  0  0  0
 14 20  1  0  0  0  0
 16 17  1  0  0  0  0
M  END
> <PUBCHEM_COMPOUND_ID_TYPE>
0

> <PUBCHEM_TOTAL_CHARGE>
0

> <PUBCHEM_SUBSTANCE_ID>
310940550

> <PUBCHEM_SUBSTANCE_VERSION>
1

> <PUBCHEM_EXT_DATASOURCE_NAME>
4488

> <PUBCHEM_EXT_DATASOURCE_REGID>
SCHEMBL16118504

> <PUBCHEM_SUBSTANCE_COMMENT>
InChI=1S/C14H22N2O4/c1-14(2,3)20-13(18)16-7-5-4-6-11(16)10-15-8-9-19-12(15)17/h8-9,11H,4-7,10H2,1-3H3
InChIKey=LYDPMLMCENGONY-UHFFFAOYSA-N

> <PUBCHEM_SUBSTANCE_SYNONYM>
SCHEMBL16118504

> <PUBCHEM_XREF_EXT_ID>
SCHEMBL16118504

> <PUBCHEM_EXT_DATASOURCE_URL>
https://www.surechembl.org/

> <PUBCHEM_EXT_SUBSTANCE_URL>
https://www.surechembl.org/chemical/SCHEMBL16118504

> <PUBCHEM_CID_ASSOCIATIONS>
117607549  1

> <PUBCHEM_COORDINATE_TYPE>
1
3

$$$$
