310934206
  -OEChem-07211613022D

 40 45  0     1  0  0  0  0  0999 V2000
    5.4411    0.0000    0.0000 Cl  0  0  0  0  0  0  0  0  0  0  0  0
    0.9068   -2.0296    0.0000 F   0  0  0  0  0  0  0  0  0  0  0  0
    3.0228   -8.6366    0.0000 F   0  0  0  0  0  0  0  0  0  0  0  0
    5.8729   -5.0092    0.0000 O   0  0  0  0  0  0  0  0  0  0  0  0
    4.6206   -4.3183    0.0000 N   0  0  0  0  0  0  0  0  0  0  0  0
    7.1252   -2.8501    0.0000 N   0  0  0  0  0  0  0  0  0  0  0  0
    2.8933   -4.3615    0.0000 N   0  0  0  0  0  0  0  0  0  0  0  0
    2.9364   -5.7002    0.0000 N   0  0  0  0  0  0  0  0  0  0  0  0
    7.9457   -2.8933    0.0000 N   0  0  0  0  0  0  0  0  0  0  0  0
    8.1184   -3.7137    0.0000 N   0  0  0  0  0  0  0  0  0  0  0  0
    7.4275   -4.1456    0.0000 N   0  0  0  0  0  0  0  0  0  0  0  0
    4.2320   -5.0092    0.0000 C   0  0  3  0  0  0  0  0  0  0  0  0
    5.8729   -2.1592    0.0000 C   0  0  0  0  0  0  0  0  0  0  0  0
    5.4411   -2.8933    0.0000 C   0  0  0  0  0  0  0  0  0  0  0  0
    3.4114   -5.0524    0.0000 C   0  0  0  0  0  0  0  0  0  0  0  0
    6.6934   -2.1592    0.0000 C   0  0  0  0  0  0  0  0  0  0  0  0
    5.4411   -4.3183    0.0000 C   0  0  0  0  0  0  0  0  0  0  0  0
    5.8729   -3.5842    0.0000 C   0  0  0  0  0  0  0  0  0  0  0  0
    4.1888   -3.5842    0.0000 C   0  0  0  0  0  0  0  0  0  0  0  0
    4.6206   -2.8933    0.0000 C   0  0  0  0  0  0  0  0  0  0  0  0
    2.1160   -4.6206    0.0000 C   0  0  0  0  0  0  0  0  0  0  0  0
    5.4411   -1.4250    0.0000 C   0  0  0  0  0  0  0  0  0  0  0  0
    4.6638   -5.7434    0.0000 C   0  0  0  0  0  0  0  0  0  0  0  0
    7.0820   -1.4250    0.0000 C   0  0  0  0  0  0  0  0  0  0  0  0
    1.4682   -4.1456    0.0000 C   0  0  0  0  0  0  0  0  0  0  0  0
    2.1160   -5.4411    0.0000 C   0  0  0  0  0  0  0  0  0  0  0  0
    5.8297   -0.7341    0.0000 C   0  0  0  0  0  0  0  0  0  0  0  0
    4.2320   -6.4775    0.0000 C   0  0  0  0  0  0  0  0  0  0  0  0
    6.6934   -0.6910    0.0000 C   0  0  0  0  0  0  0  0  0  0  0  0
    6.7797   -3.5842    0.0000 C   0  0  0  0  0  0  0  0  0  0  0  0
    1.5114   -3.3251    0.0000 C   0  0  0  0  0  0  0  0  0  0  0  0
    0.6910   -4.4911    0.0000 C   0  0  0  0  0  0  0  0  0  0  0  0
    4.6638   -7.1684    0.0000 C   0  0  0  0  0  0  0  0  0  0  0  0
    3.4114   -6.4775    0.0000 C   0  0  0  0  0  0  0  0  0  0  0  0
    0.8205   -2.8501    0.0000 C   0  0  0  0  0  0  0  0  0  0  0  0
    0.0000   -4.0160    0.0000 C   0  0  0  0  0  0  0  0  0  0  0  0
    0.0864   -3.1955    0.0000 C   0  0  0  0  0  0  0  0  0  0  0  0
    4.2751   -7.9025    0.0000 C   0  0  0  0  0  0  0  0  0  0  0  0
    3.0228   -7.2116    0.0000 C   0  0  0  0  0  0  0  0  0  0  0  0
    3.4114   -7.9025    0.0000 C   0  0  0  0  0  0  0  0  0  0  0  0
  1 27  1  0  0  0  0
  2 35  1  0  0  0  0
  3 40  1  0  0  0  0
  4 17  2  0  0  0  0
  5 12  1  0  0  0  0
  5 17  1  0  0  0  0
  5 19  1  0  0  0  0
  6  9  1  0  0  0  0
  6 16  1  0  0  0  0
  6 30  1  0  0  0  0
  7 15  2  0  0  0  0
  7 21  1  0  0  0  0
  8 15  1  0  0  0  0
  8 26  1  0  0  0  0
  9 10  2  0  0  0  0
 10 11  1  0  0  0  0
 11 30  2  0  0  0  0
 12 15  1  0  0  0  0
 12 23  1  0  0  0  0
 13 14  1  0  0  0  0
 13 16  1  0  0  0  0
 13 22  2  0  0  0  0
 14 18  2  0  0  0  0
 14 20  1  0  0  0  0
 16 24  2  0  0  0  0
 17 18  1  0  0  0  0
 19 20  2  0  0  0  0
 21 25  1  0  0  0  0
 21 26  2  0  0  0  0
 22 27  1  0  0  0  0
 23 28  1  0  0  0  0
 24 29  1  0  0  0  0
 25 31  1  0  0  0  0
 25 32  2  0  0  0  0
 27 29  2  0  0  0  0
 28 33  2  0  0  0  0
 28 34  1  0  0  0  0
 31 35  2  0  0  0  0
 32 36  1  0  0  0  0
 33 38  1  0  0  0  0
 34 39  2  0  0  0  0
 35 37  1  0  0  0  0
 36 37  2  0  0  0  0
 38 40  2  0  0  0  0
 39 40  1  0  0  0  0
M  END
> <PUBCHEM_COMPOUND_ID_TYPE>
0

> <PUBCHEM_TOTAL_CHARGE>
0

> <PUBCHEM_SUBSTANCE_ID>
310934206

> <PUBCHEM_SUBSTANCE_VERSION>
1

> <PUBCHEM_EXT_DATASOURCE_NAME>
4488

> <PUBCHEM_EXT_DATASOURCE_REGID>
SCHEMBL16111661

> <PUBCHEM_SUBSTANCE_COMMENT>
InChI=1S/C29H20ClF2N7O/c30-21-6-9-26(39-17-34-36-37-39)24(15-21)19-10-11-38(28(40)14-19)27(12-18-4-7-22(31)8-5-18)29-33-16-25(35-29)20-2-1-3-23(32)13-20/h1-11,13-17,27H,12H2,(H,33,35)
InChIKey=AGFMMMBSQRTXTD-UHFFFAOYSA-N

> <PUBCHEM_SUBSTANCE_SYNONYM>
SCHEMBL16111661

> <PUBCHEM_XREF_EXT_ID>
SCHEMBL16111661

> <PUBCHEM_EXT_DATASOURCE_URL>
https://www.surechembl.org/

> <PUBCHEM_EXT_SUBSTANCE_URL>
https://www.surechembl.org/chemical/SCHEMBL16111661

> <PUBCHEM_CID_ASSOCIATIONS>
86301703  1

> <PUBCHEM_COORDINATE_TYPE>
1
3

$$$$
