310936109
  -OEChem-07211613022D

 21 23  0     1  0  0  0  0  0999 V2000
    0.4664    2.6447    0.0000 O   0  0  0  0  0  0  0  0  0  0  0  0
   -0.6283    1.7263    0.0000 O   0  0  0  0  0  0  0  0  0  0  0  0
    0.7144    1.2375    0.0000 C   0  0  3  0  0  0  0  0  0  0  0  0
    1.3079    1.8106    0.0000 C   0  0  3  0  0  0  0  0  0  0  0  0
    0.0000    0.8250    0.0000 C   0  0  0  0  0  0  0  0  0  0  0  0
    1.0762    0.4960    0.0000 C   0  0  0  0  0  0  0  0  0  0  0  0
    1.8931    0.6108    0.0000 C   0  0  0  0  0  0  0  0  0  0  0  0
    0.1842    1.8695    0.0000 C   0  0  0  0  0  0  0  0  0  0  0  0
    2.0363    1.4233    0.0000 C   0  0  0  0  0  0  0  0  0  0  0  0
    2.4662    0.0174    0.0000 C   0  0  0  0  0  0  0  0  0  0  0  0
   -0.7144    1.2375    0.0000 C   0  0  0  0  0  0  0  0  0  0  0  0
    0.0000    0.0000    0.0000 C   0  0  0  0  0  0  0  0  0  0  0  0
    1.1931    2.6276    0.0000 C   0  0  0  0  0  0  0  0  0  0  0  0
    2.2388   -0.7757    0.0000 C   0  0  0  0  0  0  0  0  0  0  0  0
    3.2667    0.2169    0.0000 C   0  0  0  0  0  0  0  0  0  0  0  0
   -1.4290    0.8250    0.0000 C   0  0  0  0  0  0  0  0  0  0  0  0
   -0.7144   -0.4125    0.0000 C   0  0  0  0  0  0  0  0  0  0  0  0
   -1.4290    0.0000    0.0000 C   0  0  0  0  0  0  0  0  0  0  0  0
    2.8119   -1.3691    0.0000 C   0  0  0  0  0  0  0  0  0  0  0  0
    3.8398   -0.3765    0.0000 C   0  0  0  0  0  0  0  0  0  0  0  0
    3.6124   -1.1696    0.0000 C   0  0  0  0  0  0  0  0  0  0  0  0
  1  8  2  0  0  0  0
  2  8  1  0  0  0  0
  3  4  1  0  0  0  0
  3  5  1  0  0  0  0
  3  6  1  0  0  0  0
  3  8  1  0  0  0  0
  4  9  1  0  0  0  0
  4 13  1  0  0  0  0
  5 11  2  0  0  0  0
  5 12  1  0  0  0  0
  6  7  2  0  0  0  0
  7  9  1  0  0  0  0
  7 10  1  0  0  0  0
 10 14  2  0  0  0  0
 10 15  1  0  0  0  0
 11 16  1  0  0  0  0
 12 17  2  0  0  0  0
 14 19  1  0  0  0  0
 15 20  2  0  0  0  0
 16 18  2  0  0  0  0
 17 18  1  0  0  0  0
 19 21  2  0  0  0  0
 20 21  1  0  0  0  0
M  END
> <PUBCHEM_COMPOUND_ID_TYPE>
0

> <PUBCHEM_TOTAL_CHARGE>
0

> <PUBCHEM_SUBSTANCE_ID>
310936109

> <PUBCHEM_SUBSTANCE_VERSION>
1

> <PUBCHEM_EXT_DATASOURCE_NAME>
4488

> <PUBCHEM_EXT_DATASOURCE_REGID>
SCHEMBL16113716

> <PUBCHEM_SUBSTANCE_COMMENT>
InChI=1S/C19H18O2/c1-14-12-16(15-8-4-2-5-9-15)13-19(14,18(20)21)17-10-6-3-7-11-17/h2-11,13-14H,12H2,1H3,(H,20,21)
InChIKey=UZSOMJNXXPIAPY-UHFFFAOYSA-N

> <PUBCHEM_SUBSTANCE_SYNONYM>
SCHEMBL16113716

> <PUBCHEM_XREF_EXT_ID>
SCHEMBL16113716

> <PUBCHEM_EXT_DATASOURCE_URL>
https://www.surechembl.org/

> <PUBCHEM_EXT_SUBSTANCE_URL>
https://www.surechembl.org/chemical/SCHEMBL16113716

> <PUBCHEM_CID_ASSOCIATIONS>
117604075  1

> <PUBCHEM_COORDINATE_TYPE>
1
3

$$$$
