310946012
  -OEChem-07211613022D

 36 39  0     1  0  0  0  0  0999 V2000
    3.6577    1.0441    0.0000 O   0  0  0  0  0  0  0  0  0  0  0  0
    1.3898    1.0441    0.0000 O   0  0  0  0  0  0  0  0  0  0  0  0
    0.6707    0.6154    0.0000 O   0  0  0  0  0  0  0  0  0  0  0  0
   -0.0484    1.0441    0.0000 O   0  0  0  0  0  0  0  0  0  0  0  0
   -2.9248   -3.1184    0.0000 O   0  0  0  0  0  0  0  0  0  0  0  0
   -2.2057    3.1184    0.0000 O   0  0  0  0  0  0  0  0  0  0  0  0
    1.3898   -0.6154    0.0000 N   0  0  0  0  0  0  0  0  0  0  0  0
   -0.7675   -0.2005    0.0000 N   0  0  0  0  0  0  0  0  0  0  0  0
   -1.4866    1.8738    0.0000 N   0  0  0  0  0  0  0  0  0  0  0  0
    2.8418    1.0717    0.0000 C   0  0  3  0  0  0  0  0  0  0  0  0
    2.1227    0.6430    0.0000 C   0  0  0  0  0  0  0  0  0  0  0  0
    3.2567    0.3664    0.0000 C   0  0  0  0  0  0  0  0  0  0  0  0
    2.0951   -0.1729    0.0000 C   0  0  3  0  0  0  0  0  0  0  0  0
    2.8418    1.9153    0.0000 C   0  0  0  0  0  0  0  0  0  0  0  0
    2.8279   -0.6015    0.0000 C   0  0  0  0  0  0  0  0  0  0  0  0
    0.6707   -0.2005    0.0000 C   0  0  0  0  0  0  0  0  0  0  0  0
   -0.0345   -0.5877    0.0000 C   0  0  3  0  0  0  0  0  0  0  0  0
    2.8279   -1.4313    0.0000 C   0  0  0  0  0  0  0  0  0  0  0  0
   -0.0484   -1.4174    0.0000 C   0  0  0  0  0  0  0  0  0  0  0  0
   -0.7813    0.6569    0.0000 C   0  0  0  0  0  0  0  0  0  0  0  0
   -1.4866    1.0717    0.0000 C   0  0  0  0  0  0  0  0  0  0  0  0
   -0.7675   -1.8323    0.0000 C   0  0  0  0  0  0  0  0  0  0  0  0
    3.4917   -1.9153    0.0000 C   0  0  0  0  0  0  0  0  0  0  0  0
    2.1780   -1.9014    0.0000 C   0  0  0  0  0  0  0  0  0  0  0  0
   -2.1918    0.6569    0.0000 C   0  0  0  0  0  0  0  0  0  0  0  0
   -1.4866   -1.4451    0.0000 C   0  0  0  0  0  0  0  0  0  0  0  0
   -0.7675   -2.6758    0.0000 C   0  0  0  0  0  0  0  0  0  0  0  0
   -2.2057    2.3025    0.0000 C   0  0  0  0  0  0  0  0  0  0  0  0
    3.2428   -2.7035    0.0000 C   0  0  0  0  0  0  0  0  0  0  0  0
    2.4270   -2.7035    0.0000 C   0  0  0  0  0  0  0  0  0  0  0  0
   -2.2057   -2.6758    0.0000 C   0  0  0  0  0  0  0  0  0  0  0  0
   -2.1918   -1.8323    0.0000 C   0  0  0  0  0  0  0  0  0  0  0  0
   -1.4866   -3.0769    0.0000 C   0  0  0  0  0  0  0  0  0  0  0  0
   -2.9248    1.0717    0.0000 C   0  0  0  0  0  0  0  0  0  0  0  0
   -2.9109    1.9014    0.0000 C   0  0  0  0  0  0  0  0  0  0  0  0
   -3.6577   -2.6897    0.0000 C   0  0  0  0  0  0  0  0  0  0  0  0
  1 10  1  0  0  0  0
  1 12  1  0  0  0  0
  2 11  2  0  0  0  0
  3 16  2  0  0  0  0
  4 20  2  0  0  0  0
  5 31  1  0  0  0  0
  5 36  1  0  0  0  0
  6 28  2  0  0  0  0
  7 13  1  0  0  0  0
  7 16  1  0  0  0  0
  8 17  1  0  0  0  0
  8 20  1  0  0  0  0
  9 21  1  0  0  0  0
  9 28  1  0  0  0  0
 10 11  1  0  0  0  0
 10 12  1  0  0  0  0
 10 14  1  0  0  0  0
 11 13  1  0  0  0  0
 13 15  1  0  0  0  0
 15 18  1  0  0  0  0
 16 17  1  0  0  0  0
 17 19  1  0  0  0  0
 18 23  2  0  0  0  0
 18 24  1  0  0  0  0
 19 22  1  0  0  0  0
 20 21  1  0  0  0  0
 21 25  2  0  0  0  0
 22 26  2  0  0  0  0
 22 27  1  0  0  0  0
 23 29  1  0  0  0  0
 24 30  1  0  0  0  0
 25 34  1  0  0  0  0
 26 32  1  0  0  0  0
 27 33  2  0  0  0  0
 28 35  1  0  0  0  0
 29 30  1  0  0  0  0
 31 32  2  0  0  0  0
 31 33  1  0  0  0  0
 34 35  2  0  0  0  0
M  END
> <PUBCHEM_COMPOUND_ID_TYPE>
0

> <PUBCHEM_TOTAL_CHARGE>
0

> <PUBCHEM_SUBSTANCE_ID>
310946012

> <PUBCHEM_SUBSTANCE_VERSION>
1

> <PUBCHEM_EXT_DATASOURCE_NAME>
4488

> <PUBCHEM_EXT_DATASOURCE_REGID>
SCHEMBL16124118

> <PUBCHEM_SUBSTANCE_COMMENT>
InChI=1S/C27H31N3O6/c1-27(16-36-27)24(32)21(14-17-6-3-4-7-17)29-26(34)22(15-18-10-12-19(35-2)13-11-18)30-25(33)20-8-5-9-23(31)28-20/h5-6,8-13,21-22H,3-4,7,14-16H2,1-2H3,(H,28,31)(H,29,34)(H,30,33)
InChIKey=BRZYATGASAQTBI-UHFFFAOYSA-N

> <PUBCHEM_SUBSTANCE_SYNONYM>
SCHEMBL16124118

> <PUBCHEM_XREF_EXT_ID>
SCHEMBL16124118

> <PUBCHEM_EXT_DATASOURCE_URL>
https://www.surechembl.org/

> <PUBCHEM_EXT_SUBSTANCE_URL>
https://www.surechembl.org/chemical/SCHEMBL16124118

> <PUBCHEM_CID_ASSOCIATIONS>
117611983  1

> <PUBCHEM_COORDINATE_TYPE>
1
3

$$$$
