310928818
  -OEChem-07211613022D

 13 14  0     1  0  0  0  0  0999 V2000
    0.4189   -1.3210    0.0000 S   0  0  0  0  0  0  0  0  0  0  0  0
    0.5051    1.1495    0.0000 N   0  0  0  0  0  0  0  0  0  0  0  0
   -0.2956   -0.0835    0.0000 C   0  0  0  0  0  0  0  0  0  0  0  0
    0.4189    0.3290    0.0000 C   0  0  3  0  0  0  0  0  0  0  0  0
   -0.2956   -0.9085    0.0000 C   0  0  0  0  0  0  0  0  0  0  0  0
   -1.0101    0.3290    0.0000 C   0  0  0  0  0  0  0  0  0  0  0  0
    1.1725   -0.0066    0.0000 C   0  0  0  0  0  0  0  0  0  0  0  0
   -1.0101   -1.3210    0.0000 C   0  0  0  0  0  0  0  0  0  0  0  0
   -1.7246   -0.0835    0.0000 C   0  0  0  0  0  0  0  0  0  0  0  0
    1.3121    1.3210    0.0000 C   0  0  0  0  0  0  0  0  0  0  0  0
    1.7246    0.6065    0.0000 C   0  0  0  0  0  0  0  0  0  0  0  0
   -1.7246   -0.9085    0.0000 C   0  0  0  0  0  0  0  0  0  0  0  0
    1.1333   -0.9085    0.0000 C   0  0  0  0  0  0  0  0  0  0  0  0
  1  5  1  0  0  0  0
  1 13  1  0  0  0  0
  2  4  1  0  0  0  0
  2 10  1  0  0  0  0
  3  4  1  0  0  0  0
  3  5  1  0  0  0  0
  3  6  2  0  0  0  0
  4  7  1  0  0  0  0
  5  8  2  0  0  0  0
  6  9  1  0  0  0  0
  7 11  1  0  0  0  0
  8 12  1  0  0  0  0
  9 12  2  0  0  0  0
 10 11  1  0  0  0  0
M  END
> <PUBCHEM_COMPOUND_ID_TYPE>
0

> <PUBCHEM_TOTAL_CHARGE>
0

> <PUBCHEM_SUBSTANCE_ID>
310928818

> <PUBCHEM_SUBSTANCE_VERSION>
1

> <PUBCHEM_EXT_DATASOURCE_NAME>
11752

> <PUBCHEM_EXT_DATASOURCE_REGID>
BD285731

> <PUBCHEM_SUBSTANCE_SYNONYM>
2-(2-(Methylthio)phenyl)pyrrolidine
383127-60-4

> <PUBCHEM_GENERIC_REGISTRY_NAME>
383127-60-4

> <PUBCHEM_XREF_EXT_ID>
BD285731

> <PUBCHEM_EXT_DATASOURCE_URL>
http://www.bidepharmatech.com/en/index.html

> <PUBCHEM_EXT_SUBSTANCE_URL>
http://www.bidepharmatech.com/en/goodsview_goodscode_BD285731.html

> <PUBCHEM_CID_ASSOCIATIONS>
4330139  1

> <PUBCHEM_COORDINATE_TYPE>
1
3

$$$$
