310935078
  -OEChem-07211613022D

 23 25  0     1  0  0  0  0  0999 V2000
    5.7277   -0.6559    0.0000 F   0  0  0  0  0  0  0  0  0  0  0  0
    4.5691   -2.9076    0.0000 O   0  0  0  0  0  0  0  0  0  0  0  0
    5.3998   -1.4866    0.0000 O   0  0  0  0  0  0  0  0  0  0  0  0
    4.5691   -1.4866    0.0000 N   0  0  0  0  0  0  0  0  0  0  0  0
    0.8307   -4.3723    0.0000 N   0  0  0  0  0  0  0  0  0  0  0  0
    3.3448   -2.1861    0.0000 C   0  0  3  0  0  0  0  0  0  0  0  0
    3.7165   -1.4647    0.0000 C   0  0  0  0  0  0  0  0  0  0  0  0
    2.8638   -2.8638    0.0000 C   0  0  0  0  0  0  0  0  0  0  0  0
    4.1537   -2.1861    0.0000 C   0  0  0  0  0  0  0  0  0  0  0  0
    2.0769   -2.6015    0.0000 C   0  0  3  0  0  0  0  0  0  0  0  0
    2.8638   -1.5303    0.0000 C   0  0  0  0  0  0  0  0  0  0  0  0
    4.7002   -1.5959    0.0000 C   0  0  0  0  0  0  0  0  0  0  0  0
    2.0769   -1.7927    0.0000 C   0  0  0  0  0  0  0  0  0  0  0  0
    3.2792   -0.7651    0.0000 C   0  0  0  0  0  0  0  0  0  0  0  0
    1.4210   -3.0825    0.0000 C   0  0  0  0  0  0  0  0  0  0  0  0
    4.8970   -0.6996    0.0000 C   0  0  0  0  0  0  0  0  0  0  0  0
    3.6509   -0.0437    0.0000 C   0  0  0  0  0  0  0  0  0  0  0  0
    4.4816    0.0000    0.0000 C   0  0  0  0  0  0  0  0  0  0  0  0
    4.9844   -2.0987    0.0000 C   0  0  0  0  0  0  0  0  0  0  0  0
    1.4866   -3.9133    0.0000 C   0  0  0  0  0  0  0  0  0  0  0  0
    0.6559   -2.7546    0.0000 C   0  0  0  0  0  0  0  0  0  0  0  0
    0.0000   -3.2355    0.0000 C   0  0  0  0  0  0  0  0  0  0  0  0
    0.0656   -4.0662    0.0000 C   0  0  0  0  0  0  0  0  0  0  0  0
  1 16  1  0  0  0  0
  2  9  2  0  0  0  0
  3  4  1  0  0  0  0
  4  9  1  0  0  0  0
  5 20  1  0  0  0  0
  5 23  2  0  0  0  0
  6  7  1  0  0  0  0
  6  8  1  0  0  0  0
  6  9  1  0  0  0  0
  6 11  1  0  0  0  0
  7 12  1  0  0  0  0
  7 14  2  0  0  0  0
  8 10  1  0  0  0  0
 10 13  1  0  0  0  0
 10 15  1  0  0  0  0
 11 13  1  0  0  0  0
 12 16  2  0  0  0  0
 12 19  1  0  0  0  0
 14 17  1  0  0  0  0
 15 20  2  0  0  0  0
 15 21  1  0  0  0  0
 16 18  1  0  0  0  0
 17 18  2  0  0  0  0
 21 22  2  0  0  0  0
 22 23  1  0  0  0  0
M  END
> <PUBCHEM_COMPOUND_ID_TYPE>
0

> <PUBCHEM_TOTAL_CHARGE>
0

> <PUBCHEM_SUBSTANCE_ID>
310935078

> <PUBCHEM_SUBSTANCE_VERSION>
1

> <PUBCHEM_EXT_DATASOURCE_NAME>
4488

> <PUBCHEM_EXT_DATASOURCE_REGID>
SCHEMBL16112604

> <PUBCHEM_SUBSTANCE_COMMENT>
InChI=1S/C18H19FN2O2/c1-12-15(5-2-6-16(12)19)18(17(22)21-23)8-7-13(10-18)14-4-3-9-20-11-14/h2-6,9,11,13,23H,7-8,10H2,1H3,(H,21,22)
InChIKey=FQCQYLHWAYISOF-UHFFFAOYSA-N

> <PUBCHEM_SUBSTANCE_SYNONYM>
SCHEMBL16112604

> <PUBCHEM_XREF_EXT_ID>
SCHEMBL16112604

> <PUBCHEM_EXT_DATASOURCE_URL>
https://www.surechembl.org/

> <PUBCHEM_EXT_SUBSTANCE_URL>
https://www.surechembl.org/chemical/SCHEMBL16112604

> <PUBCHEM_CID_ASSOCIATIONS>
86273207  1

> <PUBCHEM_COORDINATE_TYPE>
1
3

$$$$
