310940914
  -OEChem-07211613022D

  8  8  0     1  0  0  0  0  0999 V2000
    1.3615    0.0565    0.0000 I   0  0  0  0  0  0  0  0  0  0  0  0
   -0.9524    1.1428    0.0000 O   0  0  0  0  0  0  0  0  0  0  0  0
    0.6843   -1.1428    0.0000 O   0  0  0  0  0  0  0  0  0  0  0  0
   -0.0494    0.1693    0.0000 C   0  0  3  0  0  0  0  0  0  0  0  0
    0.6984   -0.2399    0.0000 C   0  0  0  0  0  0  0  0  0  0  0  0
   -0.1199    0.9877    0.0000 C   0  0  0  0  0  0  0  0  0  0  0  0
   -0.7972   -0.1693    0.0000 C   0  0  0  0  0  0  0  0  0  0  0  0
   -1.3615    0.4374    0.0000 C   0  0  0  0  0  0  0  0  0  0  0  0
  1  5  1  0  0  0  0
  2  6  1  0  0  0  0
  2  8  1  0  0  0  0
  3  5  2  0  0  0  0
  4  5  1  0  0  0  0
  4  6  1  0  0  0  0
  4  7  1  0  0  0  0
  7  8  1  0  0  0  0
M  END
> <PUBCHEM_COMPOUND_ID_TYPE>
0

> <PUBCHEM_TOTAL_CHARGE>
0

> <PUBCHEM_SUBSTANCE_ID>
310940914

> <PUBCHEM_SUBSTANCE_VERSION>
1

> <PUBCHEM_EXT_DATASOURCE_NAME>
4488

> <PUBCHEM_EXT_DATASOURCE_REGID>
SCHEMBL16118873

> <PUBCHEM_SUBSTANCE_COMMENT>
InChI=1S/C5H7IO2/c6-5(7)4-1-2-8-3-4/h4H,1-3H2
InChIKey=XVYNVTKUBJJIPF-UHFFFAOYSA-N

> <PUBCHEM_SUBSTANCE_SYNONYM>
SCHEMBL16118873

> <PUBCHEM_XREF_EXT_ID>
SCHEMBL16118873

> <PUBCHEM_EXT_DATASOURCE_URL>
https://www.surechembl.org/

> <PUBCHEM_EXT_SUBSTANCE_URL>
https://www.surechembl.org/chemical/SCHEMBL16118873

> <PUBCHEM_CID_ASSOCIATIONS>
117607823  1

> <PUBCHEM_COORDINATE_TYPE>
1
3

$$$$
