310931477
  -OEChem-07211613022D

 33 36  0     1  0  0  0  0  0999 V2000
    0.3665    0.5465    0.0000 Cl  0  0  0  0  0  0  0  0  0  0  0  0
    5.6873   -0.4311    0.0000 S   0  0  0  0  0  0  0  0  0  0  0  0
    7.3400   -0.9187    0.0000 S   0  0  0  0  0  0  0  0  0  0  0  0
    6.0304   -2.0451    0.0000 F   0  0  0  0  0  0  0  0  0  0  0  0
    2.8919   -1.0253    0.0000 F   0  0  0  0  0  0  0  0  0  0  0  0
    5.1353    0.1820    0.0000 O   0  0  0  0  0  0  0  0  0  0  0  0
    6.2394   -1.0442    0.0000 O   0  0  0  0  0  0  0  0  0  0  0  0
    3.2349   -2.6393    0.0000 O   0  0  0  0  0  0  0  0  0  0  0  0
    6.3004    0.1209    0.0000 N   0  0  0  0  0  0  0  0  0  0  0  0
    7.7525    0.3509    0.0000 N   0  0  0  0  0  0  0  0  0  0  0  0
    8.1650   -0.9187    0.0000 N   0  0  0  0  0  0  0  0  0  0  0  0
    1.3957   -4.2954    0.0000 N   0  0  0  0  0  0  0  0  0  0  0  0
    5.0742   -0.9832    0.0000 C   0  0  0  0  0  0  0  0  0  0  0  0
    5.2458   -1.7901    0.0000 C   0  0  0  0  0  0  0  0  0  0  0  0
    4.2896   -0.7282    0.0000 C   0  0  0  0  0  0  0  0  0  0  0  0
    3.8480   -2.0872    0.0000 C   0  0  0  0  0  0  0  0  0  0  0  0
    3.6765   -1.2802    0.0000 C   0  0  0  0  0  0  0  0  0  0  0  0
    4.6327   -2.3422    0.0000 C   0  0  0  0  0  0  0  0  0  0  0  0
    7.0850   -0.1340    0.0000 C   0  0  0  0  0  0  0  0  0  0  0  0
    1.8372   -2.9363    0.0000 C   0  0  3  0  0  0  0  0  0  0  0  0
    1.0526   -2.6814    0.0000 C   0  0  3  0  0  0  0  0  0  0  0  0
    2.4503   -2.3843    0.0000 C   0  0  0  0  0  0  0  0  0  0  0  0
    0.8811   -1.8744    0.0000 C   0  0  0  0  0  0  0  0  0  0  0  0
    8.4199   -0.1340    0.0000 C   0  0  0  0  0  0  0  0  0  0  0  0
    2.0088   -3.7433    0.0000 C   0  0  0  0  0  0  0  0  0  0  0  0
    0.4395   -3.2334    0.0000 C   0  0  0  0  0  0  0  0  0  0  0  0
    7.7525    1.1759    0.0000 C   0  0  0  0  0  0  0  0  0  0  0  0
    0.0965   -1.6195    0.0000 C   0  0  0  0  0  0  0  0  0  0  0  0
    1.4942   -1.3224    0.0000 C   0  0  0  0  0  0  0  0  0  0  0  0
    0.6110   -4.0404    0.0000 C   0  0  0  0  0  0  0  0  0  0  0  0
    0.5380   -0.2605    0.0000 C   0  0  0  0  0  0  0  0  0  0  0  0
   -0.0751   -0.8125    0.0000 C   0  0  0  0  0  0  0  0  0  0  0  0
    1.3226   -0.5154    0.0000 C   0  0  0  0  0  0  0  0  0  0  0  0
  1 31  1  0  0  0  0
  2  6  2  0  0  0  0
  2  7  2  0  0  0  0
  2  9  1  0  0  0  0
  2 13  1  0  0  0  0
  3 11  1  0  0  0  0
  3 19  1  0  0  0  0
  4 14  1  0  0  0  0
  5 17  1  0  0  0  0
  8 16  1  0  0  0  0
  8 22  1  0  0  0  0
  9 19  2  0  0  0  0
 10 19  1  0  0  0  0
 10 24  1  0  0  0  0
 10 27  1  0  0  0  0
 11 24  2  0  0  0  0
 12 25  1  0  0  0  0
 12 30  1  0  0  0  0
 13 14  2  0  0  0  0
 13 15  1  0  0  0  0
 14 18  1  0  0  0  0
 15 17  2  0  0  0  0
 16 17  1  0  0  0  0
 16 18  2  0  0  0  0
 20 21  1  0  0  0  0
 20 22  1  0  0  0  0
 20 25  1  0  0  0  0
 21 23  1  0  0  0  0
 21 26  1  0  0  0  0
 23 28  2  0  0  0  0
 23 29  1  0  0  0  0
 26 30  1  0  0  0  0
 28 32  1  0  0  0  0
 29 33  2  0  0  0  0
 31 32  2  0  0  0  0
 31 33  1  0  0  0  0
M  END
> <PUBCHEM_COMPOUND_ID_TYPE>
0

> <PUBCHEM_TOTAL_CHARGE>
0

> <PUBCHEM_SUBSTANCE_ID>
310931477

> <PUBCHEM_SUBSTANCE_VERSION>
1

> <PUBCHEM_EXT_DATASOURCE_NAME>
4488

> <PUBCHEM_EXT_DATASOURCE_REGID>
SCHEMBL16108802

> <PUBCHEM_SUBSTANCE_COMMENT>
InChI=1S/C21H21ClF2N4O3S2/c1-28-12-26-32-21(28)27-33(29,30)20-9-17(23)19(8-18(20)24)31-11-14-10-25-7-6-16(14)13-2-4-15(22)5-3-13/h2-5,8-9,12,14,16,25H,6-7,10-11H2,1H3/b27-21-
InChIKey=NXIMQZNDYXUIQS-MEFGMAGPSA-N

> <PUBCHEM_SUBSTANCE_SYNONYM>
SCHEMBL16108802

> <PUBCHEM_XREF_EXT_ID>
SCHEMBL16108802

> <PUBCHEM_EXT_DATASOURCE_URL>
https://www.surechembl.org/

> <PUBCHEM_EXT_SUBSTANCE_URL>
https://www.surechembl.org/chemical/SCHEMBL16108802

> <PUBCHEM_CID_ASSOCIATIONS>
117600243  1

> <PUBCHEM_COORDINATE_TYPE>
1
3

$$$$
