310945261
  -OEChem-07211613022D

 20 21  0     1  0  0  0  0  0999 V2000
    1.4435   -1.2476    0.0000 O   0  0  0  0  0  0  0  0  0  0  0  0
   -2.2272   -0.0103    0.0000 O   0  0  0  0  0  0  0  0  0  0  0  0
    0.6805   -2.4850    0.0000 O   0  0  0  0  0  0  0  0  0  0  0  0
   -0.7837    2.4850    0.0000 O   0  0  0  0  0  0  0  0  0  0  0  0
   -0.0618   -1.2476    0.0000 N   0  0  0  0  0  0  0  0  0  0  0  0
   -0.0618    1.2476    0.0000 N   0  0  0  0  0  0  0  0  0  0  0  0
   -0.7837    0.0103    0.0000 C   0  0  3  0  0  0  0  0  0  0  0  0
   -1.5055    0.4434    0.0000 C   0  0  0  0  0  0  0  0  0  0  0  0
   -0.0413   -0.4228    0.0000 C   0  0  0  0  0  0  0  0  0  0  0  0
   -1.4848   -0.4228    0.0000 C   0  0  0  0  0  0  0  0  0  0  0  0
   -0.0618    0.4021    0.0000 C   0  0  0  0  0  0  0  0  0  0  0  0
    0.6805   -1.6601    0.0000 C   0  0  0  0  0  0  0  0  0  0  0  0
   -1.4848    1.2476    0.0000 C   0  0  0  0  0  0  0  0  0  0  0  0
   -0.7630   -1.6807    0.0000 C   0  0  0  0  0  0  0  0  0  0  0  0
   -0.7837    1.6601    0.0000 C   0  0  0  0  0  0  0  0  0  0  0  0
   -1.5055   -1.2476    0.0000 C   0  0  0  0  0  0  0  0  0  0  0  0
    1.4642   -0.4021    0.0000 C   0  0  0  0  0  0  0  0  0  0  0  0
    2.2272   -0.3609    0.0000 C   0  0  0  0  0  0  0  0  0  0  0  0
    0.6805   -0.4021    0.0000 C   0  0  0  0  0  0  0  0  0  0  0  0
    1.4435    0.4434    0.0000 C   0  0  0  0  0  0  0  0  0  0  0  0
  1 12  1  0  0  0  0
  1 17  1  0  0  0  0
  2  8  2  0  0  0  0
  3 12  2  0  0  0  0
  4 15  2  0  0  0  0
  5  9  1  0  0  0  0
  5 12  1  0  0  0  0
  5 14  1  0  0  0  0
  6 11  1  0  0  0  0
  6 15  1  0  0  0  0
  7  8  1  0  0  0  0
  7  9  1  0  0  0  0
  7 10  1  0  0  0  0
  7 11  1  0  0  0  0
  8 13  1  0  0  0  0
 10 16  1  0  0  0  0
 13 15  1  0  0  0  0
 14 16  1  0  0  0  0
 17 18  1  0  0  0  0
 17 19  1  0  0  0  0
 17 20  1  0  0  0  0
M  END
> <PUBCHEM_COMPOUND_ID_TYPE>
0

> <PUBCHEM_TOTAL_CHARGE>
0

> <PUBCHEM_SUBSTANCE_ID>
310945261

> <PUBCHEM_SUBSTANCE_VERSION>
1

> <PUBCHEM_EXT_DATASOURCE_NAME>
4488

> <PUBCHEM_EXT_DATASOURCE_REGID>
SCHEMBL16123355

> <PUBCHEM_SUBSTANCE_COMMENT>
InChI=1S/C14H22N2O4/c1-13(2,3)20-12(19)16-6-4-5-14(9-16)8-15-11(18)7-10(14)17/h4-9H2,1-3H3,(H,15,18)
InChIKey=GXVKGUPTYYZXER-UHFFFAOYSA-N

> <PUBCHEM_SUBSTANCE_SYNONYM>
SCHEMBL16123355

> <PUBCHEM_XREF_EXT_ID>
SCHEMBL16123355

> <PUBCHEM_EXT_DATASOURCE_URL>
https://www.surechembl.org/

> <PUBCHEM_EXT_SUBSTANCE_URL>
https://www.surechembl.org/chemical/SCHEMBL16123355

> <PUBCHEM_CID_ASSOCIATIONS>
117611328  1

> <PUBCHEM_COORDINATE_TYPE>
1
3

$$$$
