310941919
  -OEChem-07211613022D

 23 22  0     1  0  0  0  0  0999 V2000
    0.3500    1.6124    0.0000 O   0  0  0  0  0  0  0  0  0  0  0  0
   -0.3624    2.8623    0.0000 O   0  0  0  0  0  0  0  0  0  0  0  0
   -0.3624   -0.4749    0.0000 O   0  0  0  0  0  0  0  0  0  0  0  0
    3.2373    1.6124    0.0000 O   0  0  0  0  0  0  0  0  0  0  0  0
   -0.9374    0.7750    0.0000 N   0  0  0  0  0  0  0  0  0  0  0  0
   -1.0625    1.6249    0.0000 C   0  0  3  0  0  0  0  0  0  0  0  0
   -0.3624    2.0123    0.0000 C   0  0  0  0  0  0  0  0  0  0  0  0
   -1.7999    2.0249    0.0000 C   0  0  0  0  0  0  0  0  0  0  0  0
   -0.3500    0.3875    0.0000 C   0  0  0  0  0  0  0  0  0  0  0  0
   -2.5248    1.6124    0.0000 C   0  0  0  0  0  0  0  0  0  0  0  0
    0.3624    0.7750    0.0000 C   0  0  0  0  0  0  0  0  0  0  0  0
    1.0749    2.0249    0.0000 C   0  0  0  0  0  0  0  0  0  0  0  0
    1.8249    1.6124    0.0000 C   0  0  0  0  0  0  0  0  0  0  0  0
    1.0749    0.3875    0.0000 C   0  0  0  0  0  0  0  0  0  0  0  0
   -3.2373    2.0123    0.0000 C   0  0  0  0  0  0  0  0  0  0  0  0
   -2.5123    0.7875    0.0000 C   0  0  0  0  0  0  0  0  0  0  0  0
    2.5248    2.0249    0.0000 C   0  0  3  0  0  0  0  0  0  0  0  0
    1.0499   -0.4249    0.0000 C   0  0  0  0  0  0  0  0  0  0  0  0
    1.7999   -0.8124    0.0000 C   0  0  0  0  0  0  0  0  0  0  0  0
    2.5374    2.8498    0.0000 C   0  0  0  0  0  0  0  0  0  0  0  0
    1.7249   -1.5999    0.0000 C   0  0  0  0  0  0  0  0  0  0  0  0
    2.4749   -2.0123    0.0000 C   0  0  0  0  0  0  0  0  0  0  0  0
    2.4623   -2.8623    0.0000 C   0  0  0  0  0  0  0  0  0  0  0  0
  1  7  1  0  0  0  0
  1 12  1  0  0  0  0
  2  7  2  0  0  0  0
  3  9  2  0  0  0  0
  4 17  1  0  0  0  0
  5  6  1  0  0  0  0
  5  9  1  0  0  0  0
  6  7  1  0  0  0  0
  6  8  1  0  0  0  0
  8 10  1  0  0  0  0
  9 11  1  0  0  0  0
 10 15  1  0  0  0  0
 10 16  1  0  0  0  0
 11 14  1  0  0  0  0
 12 13  1  0  0  0  0
 13 17  1  0  0  0  0
 14 18  1  0  0  0  0
 17 20  1  0  0  0  0
 18 19  1  0  0  0  0
 19 21  1  0  0  0  0
 21 22  1  0  0  0  0
 22 23  1  0  0  0  0
M  END
> <PUBCHEM_COMPOUND_ID_TYPE>
0

> <PUBCHEM_TOTAL_CHARGE>
0

> <PUBCHEM_SUBSTANCE_ID>
310941919

> <PUBCHEM_SUBSTANCE_VERSION>
1

> <PUBCHEM_EXT_DATASOURCE_NAME>
4488

> <PUBCHEM_EXT_DATASOURCE_REGID>
SCHEMBL16119951

> <PUBCHEM_SUBSTANCE_COMMENT>
InChI=1S/C18H35NO4/c1-5-6-7-8-9-10-17(21)19-16(13-14(2)3)18(22)23-12-11-15(4)20/h14-16,20H,5-13H2,1-4H3,(H,19,21)
InChIKey=WPPHCLSYNRCZMG-UHFFFAOYSA-N

> <PUBCHEM_SUBSTANCE_SYNONYM>
SCHEMBL16119951

> <PUBCHEM_XREF_EXT_ID>
SCHEMBL16119951

> <PUBCHEM_EXT_DATASOURCE_URL>
https://www.surechembl.org/

> <PUBCHEM_EXT_SUBSTANCE_URL>
https://www.surechembl.org/chemical/SCHEMBL16119951

> <PUBCHEM_CID_ASSOCIATIONS>
71526061  1

> <PUBCHEM_COORDINATE_TYPE>
1
3

$$$$
