310933866
  -OEChem-07211613022D

 39 44  0     1  0  0  0  0  0999 V2000
    5.4114    0.0000    0.0000 Cl  0  0  0  0  0  0  0  0  0  0  0  0
    3.0063   -8.5895    0.0000 F   0  0  0  0  0  0  0  0  0  0  0  0
    2.8775   -4.3377    0.0000 O   0  0  0  0  0  0  0  0  0  0  0  0
    5.8408   -4.9819    0.0000 O   0  0  0  0  0  0  0  0  0  0  0  0
    4.6383   -4.2947    0.0000 N   0  0  0  0  0  0  0  0  0  0  0  0
    7.0863   -2.8345    0.0000 N   0  0  0  0  0  0  0  0  0  0  0  0
    2.9204   -5.6690    0.0000 N   0  0  0  0  0  0  0  0  0  0  0  0
    2.1474   -5.4114    0.0000 N   0  0  0  0  0  0  0  0  0  0  0  0
    7.9023   -2.8775    0.0000 N   0  0  0  0  0  0  0  0  0  0  0  0
    8.0741   -3.6935    0.0000 N   0  0  0  0  0  0  0  0  0  0  0  0
    7.3869   -4.1229    0.0000 N   0  0  0  0  0  0  0  0  0  0  0  0
    0.0000   -3.9941    0.0000 N   0  0  0  0  0  0  0  0  0  0  0  0
    4.2089   -4.9819    0.0000 C   0  0  3  0  0  0  0  0  0  0  0  0
    5.8408   -2.1474    0.0000 C   0  0  0  0  0  0  0  0  0  0  0  0
    5.4114   -2.8775    0.0000 C   0  0  0  0  0  0  0  0  0  0  0  0
    3.3928   -5.0249    0.0000 C   0  0  0  0  0  0  0  0  0  0  0  0
    6.6568   -2.1474    0.0000 C   0  0  0  0  0  0  0  0  0  0  0  0
    5.4114   -4.2947    0.0000 C   0  0  0  0  0  0  0  0  0  0  0  0
    5.8838   -3.5646    0.0000 C   0  0  0  0  0  0  0  0  0  0  0  0
    4.2089   -3.5646    0.0000 C   0  0  0  0  0  0  0  0  0  0  0  0
    4.6383   -2.8775    0.0000 C   0  0  0  0  0  0  0  0  0  0  0  0
    2.1044   -4.5954    0.0000 C   0  0  0  0  0  0  0  0  0  0  0  0
    4.6383   -5.7120    0.0000 C   0  0  0  0  0  0  0  0  0  0  0  0
    5.4114   -1.4172    0.0000 C   0  0  0  0  0  0  0  0  0  0  0  0
    7.0433   -1.4172    0.0000 C   0  0  0  0  0  0  0  0  0  0  0  0
    5.8408   -0.7301    0.0000 C   0  0  0  0  0  0  0  0  0  0  0  0
    1.4602   -4.1229    0.0000 C   0  0  0  0  0  0  0  0  0  0  0  0
    4.2518   -6.4421    0.0000 C   0  0  0  0  0  0  0  0  0  0  0  0
    6.6568   -0.6872    0.0000 C   0  0  0  0  0  0  0  0  0  0  0  0
    6.7427   -3.5646    0.0000 C   0  0  0  0  0  0  0  0  0  0  0  0
    0.6872   -4.4236    0.0000 C   0  0  0  0  0  0  0  0  0  0  0  0
    1.5032   -3.3069    0.0000 C   0  0  0  0  0  0  0  0  0  0  0  0
    4.6383   -7.1293    0.0000 C   0  0  0  0  0  0  0  0  0  0  0  0
    3.3928   -6.4421    0.0000 C   0  0  0  0  0  0  0  0  0  0  0  0
    4.2518   -7.8593    0.0000 C   0  0  0  0  0  0  0  0  0  0  0  0
    3.0063   -7.1722    0.0000 C   0  0  0  0  0  0  0  0  0  0  0  0
    3.4358   -7.8593    0.0000 C   0  0  0  0  0  0  0  0  0  0  0  0
    0.8589   -2.7915    0.0000 C   0  0  0  0  0  0  0  0  0  0  0  0
    0.0859   -3.1351    0.0000 C   0  0  0  0  0  0  0  0  0  0  0  0
  1 26  1  0  0  0  0
  2 37  1  0  0  0  0
  3 16  1  0  0  0  0
  3 22  1  0  0  0  0
  4 18  2  0  0  0  0
  5 13  1  0  0  0  0
  5 18  1  0  0  0  0
  5 20  1  0  0  0  0
  6  9  1  0  0  0  0
  6 17  1  0  0  0  0
  6 30  1  0  0  0  0
  7  8  1  0  0  0  0
  7 16  2  0  0  0  0
  8 22  2  0  0  0  0
  9 10  2  0  0  0  0
 10 11  1  0  0  0  0
 11 30  2  0  0  0  0
 12 31  1  0  0  0  0
 12 39  2  0  0  0  0
 13 16  1  0  0  0  0
 13 23  1  0  0  0  0
 14 15  1  0  0  0  0
 14 17  1  0  0  0  0
 14 24  2  0  0  0  0
 15 19  2  0  0  0  0
 15 21  1  0  0  0  0
 17 25  2  0  0  0  0
 18 19  1  0  0  0  0
 20 21  2  0  0  0  0
 22 27  1  0  0  0  0
 23 28  1  0  0  0  0
 24 26  1  0  0  0  0
 25 29  1  0  0  0  0
 26 29  2  0  0  0  0
 27 31  2  0  0  0  0
 27 32  1  0  0  0  0
 28 33  2  0  0  0  0
 28 34  1  0  0  0  0
 32 38  2  0  0  0  0
 33 35  1  0  0  0  0
 34 36  2  0  0  0  0
 35 37  2  0  0  0  0
 36 37  1  0  0  0  0
 38 39  1  0  0  0  0
M  END
> <PUBCHEM_COMPOUND_ID_TYPE>
0

> <PUBCHEM_TOTAL_CHARGE>
0

> <PUBCHEM_SUBSTANCE_ID>
310933866

> <PUBCHEM_SUBSTANCE_VERSION>
1

> <PUBCHEM_EXT_DATASOURCE_NAME>
4488

> <PUBCHEM_EXT_DATASOURCE_REGID>
SCHEMBL16111305

> <PUBCHEM_SUBSTANCE_COMMENT>
InChI=1S/C27H18ClFN8O2/c28-20-5-8-23(37-16-31-34-35-37)22(14-20)18-9-11-36(25(38)13-18)24(12-17-3-6-21(29)7-4-17)27-33-32-26(39-27)19-2-1-10-30-15-19/h1-11,13-16,24H,12H2
InChIKey=LAHHVIQTDQKRFL-UHFFFAOYSA-N

> <PUBCHEM_SUBSTANCE_SYNONYM>
SCHEMBL16111305

> <PUBCHEM_XREF_EXT_ID>
SCHEMBL16111305

> <PUBCHEM_EXT_DATASOURCE_URL>
https://www.surechembl.org/

> <PUBCHEM_EXT_SUBSTANCE_URL>
https://www.surechembl.org/chemical/SCHEMBL16111305

> <PUBCHEM_CID_ASSOCIATIONS>
117602203  1

> <PUBCHEM_COORDINATE_TYPE>
1
3

$$$$
