310931356
  -OEChem-07211613022D

 21 23  0     1  0  0  0  0  0999 V2000
    3.5321   -1.6103    0.0000 O   0  0  0  0  0  0  0  0  0  0  0  0
    4.6489   -3.5581    0.0000 O   0  0  0  0  0  0  0  0  0  0  0  0
    5.3502   -2.3115    0.0000 O   0  0  0  0  0  0  0  0  0  0  0  0
    0.7791    0.0000    0.0000 O   0  0  0  0  0  0  0  0  0  0  0  0
    3.1166   -2.3115    0.0000 C   0  0  3  0  0  0  0  0  0  0  0  0
    3.9477   -2.3115    0.0000 C   0  0  3  0  0  0  0  0  0  0  0  0
    2.5452   -1.7401    0.0000 C   0  0  0  0  0  0  0  0  0  0  0  0
    4.6489   -2.7270    0.0000 C   0  0  0  0  0  0  0  0  0  0  0  0
    2.3894   -2.7270    0.0000 C   0  0  0  0  0  0  0  0  0  0  0  0
    1.7401   -1.9479    0.0000 C   0  0  0  0  0  0  0  0  0  0  0  0
    2.7270   -0.9350    0.0000 C   0  0  0  0  0  0  0  0  0  0  0  0
    1.1427   -1.3765    0.0000 C   0  0  0  0  0  0  0  0  0  0  0  0
    2.1556   -0.3636    0.0000 C   0  0  0  0  0  0  0  0  0  0  0  0
    1.3765   -0.5714    0.0000 C   0  0  0  0  0  0  0  0  0  0  0  0
    5.3502   -3.9477    0.0000 C   0  0  0  0  0  0  0  0  0  0  0  0
    6.0773   -3.5581    0.0000 C   0  0  0  0  0  0  0  0  0  0  0  0
    5.3761   -4.7788    0.0000 C   0  0  0  0  0  0  0  0  0  0  0  0
    6.7786   -3.9737    0.0000 C   0  0  0  0  0  0  0  0  0  0  0  0
    6.0773   -5.1943    0.0000 C   0  0  0  0  0  0  0  0  0  0  0  0
    6.8046   -4.8047    0.0000 C   0  0  0  0  0  0  0  0  0  0  0  0
    0.0000   -0.2078    0.0000 C   0  0  0  0  0  0  0  0  0  0  0  0
  1  5  1  0  0  0  0
  1  6  1  0  0  0  0
  2  8  1  0  0  0  0
  2 15  1  0  0  0  0
  3  8  2  0  0  0  0
  4 14  1  0  0  0  0
  4 21  1  0  0  0  0
  5  6  1  0  0  0  0
  5  7  1  0  0  0  0
  5  9  1  0  0  0  0
  6  8  1  0  0  0  0
  7 10  2  0  0  0  0
  7 11  1  0  0  0  0
 10 12  1  0  0  0  0
 11 13  2  0  0  0  0
 12 14  2  0  0  0  0
 13 14  1  0  0  0  0
 15 16  1  0  0  0  0
 15 17  1  0  0  0  0
 16 18  1  0  0  0  0
 17 19  1  0  0  0  0
 18 20  1  0  0  0  0
 19 20  1  0  0  0  0
M  END
> <PUBCHEM_COMPOUND_ID_TYPE>
0

> <PUBCHEM_TOTAL_CHARGE>
0

> <PUBCHEM_SUBSTANCE_ID>
310931356

> <PUBCHEM_SUBSTANCE_VERSION>
1

> <PUBCHEM_EXT_DATASOURCE_NAME>
4488

> <PUBCHEM_EXT_DATASOURCE_REGID>
SCHEMBL16108676

> <PUBCHEM_SUBSTANCE_COMMENT>
InChI=1S/C17H22O4/c1-17(12-8-10-13(19-2)11-9-12)15(21-17)16(18)20-14-6-4-3-5-7-14/h8-11,14-15H,3-7H2,1-2H3
InChIKey=KNTRXXPDXYEBTQ-UHFFFAOYSA-N

> <PUBCHEM_SUBSTANCE_SYNONYM>
SCHEMBL16108676

> <PUBCHEM_XREF_EXT_ID>
SCHEMBL16108676

> <PUBCHEM_EXT_DATASOURCE_URL>
https://www.surechembl.org/

> <PUBCHEM_EXT_SUBSTANCE_URL>
https://www.surechembl.org/chemical/SCHEMBL16108676

> <PUBCHEM_CID_ASSOCIATIONS>
117600159  1

> <PUBCHEM_COORDINATE_TYPE>
1
3

$$$$
