310945591
  -OEChem-07211613022D

 11 10  0     1  0  0  0  0  0999 V2000
    0.2963    0.2619    0.0000 N   0  0  3  0  0  0  0  0  0  0  0  0
   -1.2198   -0.5651    0.0000 N   0  0  0  0  0  0  0  0  0  0  0  0
   -2.4465   -0.0138    0.0000 N   0  0  0  0  0  0  0  0  0  0  0  0
    2.4465    0.6753    0.0000 N   0  0  0  0  0  0  0  0  0  0  0  0
   -0.4203    0.6892    0.0000 C   0  0  0  0  0  0  0  0  0  0  0  0
    1.0130    0.6892    0.0000 C   0  0  0  0  0  0  0  0  0  0  0  0
   -1.1233    0.2756    0.0000 C   0  0  0  0  0  0  0  0  0  0  0  0
    0.3239   -0.5651    0.0000 C   0  0  0  0  0  0  0  0  0  0  0  0
   -2.0329   -0.6892    0.0000 C   0  0  0  0  0  0  0  0  0  0  0  0
    1.7573    0.2894    0.0000 C   0  0  0  0  0  0  0  0  0  0  0  0
   -1.9089    0.5927    0.0000 C   0  0  0  0  0  0  0  0  0  0  0  0
  1  5  1  0  0  0  0
  1  6  1  0  0  0  0
  1  8  1  0  0  0  0
  2  7  1  0  0  0  0
  2  9  1  0  0  0  0
  3  9  2  0  0  0  0
  3 11  1  0  0  0  0
  4 10  1  0  0  0  0
  5  7  1  0  0  0  0
  6 10  1  0  0  0  0
M  END
> <PUBCHEM_COMPOUND_ID_TYPE>
0

> <PUBCHEM_TOTAL_CHARGE>
0

> <PUBCHEM_SUBSTANCE_ID>
310945591

> <PUBCHEM_SUBSTANCE_VERSION>
1

> <PUBCHEM_EXT_DATASOURCE_NAME>
4488

> <PUBCHEM_EXT_DATASOURCE_REGID>
SCHEMBL16123690

> <PUBCHEM_SUBSTANCE_COMMENT>
InChI=1S/C7H18N4/c1-9-7-10-4-6-11(2)5-3-8/h7H,3-6,8H2,1-2H3,(H,9,10)
InChIKey=RGQPAVHPAGCXKH-UHFFFAOYSA-N

> <PUBCHEM_SUBSTANCE_SYNONYM>
SCHEMBL16123690

> <PUBCHEM_XREF_EXT_ID>
SCHEMBL16123690

> <PUBCHEM_EXT_DATASOURCE_URL>
https://www.surechembl.org/

> <PUBCHEM_EXT_SUBSTANCE_URL>
https://www.surechembl.org/chemical/SCHEMBL16123690

> <PUBCHEM_CID_ASSOCIATIONS>
117611618  1

> <PUBCHEM_COORDINATE_TYPE>
1
3

$$$$
