310934147
  -OEChem-07211613022D

 28 31  0     1  0  0  0  0  0999 V2000
   -1.2382   -5.3793    0.0000 F   0  0  0  0  0  0  0  0  0  0  0  0
    1.6197   -5.3834    0.0000 F   0  0  0  0  0  0  0  0  0  0  0  0
    0.9094   -2.4949    0.0000 O   0  0  0  0  0  0  0  0  0  0  0  0
   -0.5195   -2.4928    0.0000 O   0  0  0  0  0  0  0  0  0  0  0  0
    3.5380   -0.3343    0.0000 O   0  0  0  0  0  0  0  0  0  0  0  0
    3.8932   -1.7183    0.0000 O   0  0  0  0  0  0  0  0  0  0  0  0
    0.9106   -1.6699    0.0000 C   0  0  0  0  0  0  0  0  0  0  0  0
    1.1407   -0.9495    0.0000 C   0  0  0  0  0  0  0  0  0  0  0  0
    0.9807   -0.1341    0.0000 C   0  0  0  0  0  0  0  0  0  0  0  0
    0.1351   -2.0602    0.0000 C   0  0  0  0  0  0  0  0  0  0  0  0
    1.6411   -2.0402    0.0000 C   0  0  0  0  0  0  0  0  0  0  0  0
    0.5004   -1.3997    0.0000 C   0  0  0  0  0  0  0  0  0  0  0  0
    1.9362   -1.4148    0.0000 C   0  0  0  0  0  0  0  0  0  0  0  0
    1.3626   -0.1549    0.0000 C   0  0  0  0  0  0  0  0  0  0  0  0
    0.1943   -2.9064    0.0000 C   0  0  0  0  0  0  0  0  0  0  0  0
    0.1932   -3.7314    0.0000 C   0  0  0  0  0  0  0  0  0  0  0  0
    2.1618    0.0502    0.0000 C   0  0  0  0  0  0  0  0  0  0  0  0
    0.9070   -4.1449    0.0000 C   0  0  0  0  0  0  0  0  0  0  0  0
   -0.5219   -4.1428    0.0000 C   0  0  0  0  0  0  0  0  0  0  0  0
   -0.5231   -4.9678    0.0000 C   0  0  0  0  0  0  0  0  0  0  0  0
    0.9058   -4.9699    0.0000 C   0  0  0  0  0  0  0  0  0  0  0  0
    0.1908   -5.3814    0.0000 C   0  0  0  0  0  0  0  0  0  0  0  0
    2.7389   -0.5393    0.0000 C   0  0  0  0  0  0  0  0  0  0  0  0
    4.1152   -0.9238    0.0000 C   0  0  3  0  0  0  0  0  0  0  0  0
    4.9143   -0.7187    0.0000 C   0  0  0  0  0  0  0  0  0  0  0  0
    4.4704   -2.3078    0.0000 C   0  0  0  0  0  0  0  0  0  0  0  0
    5.4914   -1.3082    0.0000 C   0  0  0  0  0  0  0  0  0  0  0  0
    5.2695   -2.1028    0.0000 C   0  0  0  0  0  0  0  0  0  0  0  0
  1 20  1  0  0  0  0
  2 21  1  0  0  0  0
  3  7  1  0  0  0  0
  3 15  1  0  0  0  0
  4 15  2  0  0  0  0
  5 23  1  0  0  0  0
  5 24  1  0  0  0  0
  6 24  1  0  0  0  0
  6 26  1  0  0  0  0
  7  9  1  0  0  0  0
  7 10  1  0  0  0  0
  7 11  1  0  0  0  0
  8  9  1  0  0  0  0
  8 12  1  0  0  0  0
  8 13  1  0  0  0  0
  8 14  1  0  0  0  0
 10 12  1  0  0  0  0
 11 13  1  0  0  0  0
 14 17  1  0  0  0  0
 15 16  1  0  0  0  0
 16 18  2  0  0  0  0
 16 19  1  0  0  0  0
 17 23  1  0  0  0  0
 18 21  1  0  0  0  0
 19 20  2  0  0  0  0
 20 22  1  0  0  0  0
 21 22  2  0  0  0  0
 24 25  1  0  0  0  0
 25 27  1  0  0  0  0
 26 28  1  0  0  0  0
 27 28  1  0  0  0  0
M  END
> <PUBCHEM_COMPOUND_ID_TYPE>
0

> <PUBCHEM_TOTAL_CHARGE>
0

> <PUBCHEM_SUBSTANCE_ID>
310934147

> <PUBCHEM_SUBSTANCE_VERSION>
1

> <PUBCHEM_EXT_DATASOURCE_NAME>
4488

> <PUBCHEM_EXT_DATASOURCE_REGID>
SCHEMBL16111597

> <PUBCHEM_SUBSTANCE_COMMENT>
InChI=1S/C22H28F2O4/c23-17-12-16(13-18(24)14-17)20(25)28-22-8-6-21(15-22,7-9-22)5-3-11-27-19-4-1-2-10-26-19/h12-14,19H,1-11,15H2
InChIKey=FQIBBTXDFIVGFF-UHFFFAOYSA-N

> <PUBCHEM_SUBSTANCE_SYNONYM>
SCHEMBL16111597

> <PUBCHEM_XREF_EXT_ID>
SCHEMBL16111597

> <PUBCHEM_EXT_DATASOURCE_URL>
https://www.surechembl.org/

> <PUBCHEM_EXT_SUBSTANCE_URL>
https://www.surechembl.org/chemical/SCHEMBL16111597

> <PUBCHEM_CID_ASSOCIATIONS>
117602423  1

> <PUBCHEM_COORDINATE_TYPE>
1
3

$$$$
