310944828
  -OEChem-07211613022D

 30 33  0     1  0  0  0  0  0999 V2000
    0.8514    1.0116    0.0000 S   0  0  0  0  0  0  0  0  0  0  0  0
    2.9948   -0.7111    0.0000 F   0  0  0  0  0  0  0  0  0  0  0  0
    3.8161   -1.5124    0.0000 F   0  0  0  0  0  0  0  0  0  0  0  0
    2.9948   -2.3137    0.0000 F   0  0  0  0  0  0  0  0  0  0  0  0
    0.4907   -0.0701    0.0000 O   0  0  0  0  0  0  0  0  0  0  0  0
   -2.3538    1.5925    0.0000 O   0  0  0  0  0  0  0  0  0  0  0  0
   -3.8161   -0.9115    0.0000 O   0  0  0  0  0  0  0  0  0  0  0  0
   -0.8514    0.5909    0.0000 N   0  0  0  0  0  0  0  0  0  0  0  0
   -2.3538   -0.9115    0.0000 N   0  0  0  0  0  0  0  0  0  0  0  0
   -0.8514   -0.7512    0.0000 N   0  0  0  0  0  0  0  0  0  0  0  0
    0.5709    2.3137    0.0000 N   0  0  0  0  0  0  0  0  0  0  0  0
   -1.6326    0.3305    0.0000 C   0  0  0  0  0  0  0  0  0  0  0  0
   -1.6526   -0.4907    0.0000 C   0  0  0  0  0  0  0  0  0  0  0  0
   -0.3506   -0.0500    0.0000 C   0  0  0  0  0  0  0  0  0  0  0  0
   -2.3538    0.7312    0.0000 C   0  0  0  0  0  0  0  0  0  0  0  0
   -3.0348    0.2304    0.0000 C   0  0  3  0  0  0  0  0  0  0  0  0
   -3.0749   -0.4708    0.0000 C   0  0  0  0  0  0  0  0  0  0  0  0
   -0.5509    1.3923    0.0000 C   0  0  0  0  0  0  0  0  0  0  0  0
    0.8915   -0.8113    0.0000 C   0  0  0  0  0  0  0  0  0  0  0  0
    0.2304    1.5525    0.0000 C   0  0  0  0  0  0  0  0  0  0  0  0
   -2.3338   -1.7729    0.0000 C   0  0  0  0  0  0  0  0  0  0  0  0
   -3.7961    0.7312    0.0000 C   0  0  0  0  0  0  0  0  0  0  0  0
    2.1534   -1.5124    0.0000 C   0  0  0  0  0  0  0  0  0  0  0  0
    1.7528   -0.8113    0.0000 C   0  0  0  0  0  0  0  0  0  0  0  0
    0.5108   -1.5324    0.0000 C   0  0  0  0  0  0  0  0  0  0  0  0
    2.9948   -1.5124    0.0000 C   0  0  0  0  0  0  0  0  0  0  0  0
    1.7528   -2.2336    0.0000 C   0  0  0  0  0  0  0  0  0  0  0  0
    0.9115   -2.2336    0.0000 C   0  0  0  0  0  0  0  0  0  0  0  0
    1.5925    1.4123    0.0000 C   0  0  0  0  0  0  0  0  0  0  0  0
    1.4323    2.2136    0.0000 C   0  0  0  0  0  0  0  0  0  0  0  0
  1 20  1  0  0  0  0
  1 29  1  0  0  0  0
  2 26  1  0  0  0  0
  3 26  1  0  0  0  0
  4 26  1  0  0  0  0
  5 14  1  0  0  0  0
  5 19  1  0  0  0  0
  6 15  2  0  0  0  0
  7 17  2  0  0  0  0
  8 12  1  0  0  0  0
  8 14  1  0  0  0  0
  8 18  1  0  0  0  0
  9 13  1  0  0  0  0
  9 17  1  0  0  0  0
  9 21  1  0  0  0  0
 10 13  1  0  0  0  0
 10 14  2  0  0  0  0
 11 20  2  0  0  0  0
 11 30  1  0  0  0  0
 12 13  2  0  0  0  0
 12 15  1  0  0  0  0
 15 16  1  0  0  0  0
 16 17  1  0  0  0  0
 16 22  1  0  0  0  0
 18 20  1  0  0  0  0
 19 24  1  0  0  0  0
 19 25  2  0  0  0  0
 23 24  2  0  0  0  0
 23 26  1  0  0  0  0
 23 27  1  0  0  0  0
 25 28  1  0  0  0  0
 27 28  2  0  0  0  0
 29 30  2  0  0  0  0
M  END
> <PUBCHEM_COMPOUND_ID_TYPE>
0

> <PUBCHEM_TOTAL_CHARGE>
0

> <PUBCHEM_SUBSTANCE_ID>
310944828

> <PUBCHEM_SUBSTANCE_VERSION>
1

> <PUBCHEM_EXT_DATASOURCE_NAME>
4488

> <PUBCHEM_EXT_DATASOURCE_REGID>
SCHEMBL16122907

> <PUBCHEM_SUBSTANCE_COMMENT>
InChI=1S/C19H15F3N4O3S/c1-10-15(27)14-16(25(2)17(10)28)24-18(26(14)9-13-23-6-7-30-13)29-12-5-3-4-11(8-12)19(20,21)22/h3-8,10H,9H2,1-2H3
InChIKey=GBNBQLRVCGJTCI-UHFFFAOYSA-N

> <PUBCHEM_SUBSTANCE_SYNONYM>
SCHEMBL16122907

> <PUBCHEM_XREF_EXT_ID>
SCHEMBL16122907

> <PUBCHEM_EXT_DATASOURCE_URL>
https://www.surechembl.org/

> <PUBCHEM_EXT_SUBSTANCE_URL>
https://www.surechembl.org/chemical/SCHEMBL16122907

> <PUBCHEM_CID_ASSOCIATIONS>
117611035  1

> <PUBCHEM_COORDINATE_TYPE>
1
3

> <PUBCHEM_BONDANNOTATIONS>
15  16  3

$$$$
