310931355
  -OEChem-07211613022D

 20 22  0     1  0  0  0  0  0999 V2000
    3.2780    0.0000    0.0000 O   0  0  0  0  0  0  0  0  0  0  0  0
    4.3978   -1.9342    0.0000 O   0  0  0  0  0  0  0  0  0  0  0  0
    5.1104   -0.7126    0.0000 O   0  0  0  0  0  0  0  0  0  0  0  0
    0.0000   -2.3618    0.0000 O   0  0  0  0  0  0  0  0  0  0  0  0
    3.6852   -0.7126    0.0000 C   0  0  3  0  0  0  0  0  0  0  0  0
    2.8504   -0.7126    0.0000 C   0  0  3  0  0  0  0  0  0  0  0  0
    4.3978   -1.1198    0.0000 C   0  0  0  0  0  0  0  0  0  0  0  0
    2.1378   -1.1198    0.0000 C   0  0  0  0  0  0  0  0  0  0  0  0
    3.4612   -1.5066    0.0000 C   0  0  0  0  0  0  0  0  0  0  0  0
    2.1378   -1.9546    0.0000 C   0  0  0  0  0  0  0  0  0  0  0  0
    1.4252   -0.7126    0.0000 C   0  0  0  0  0  0  0  0  0  0  0  0
    5.1104   -2.3618    0.0000 C   0  0  0  0  0  0  0  0  0  0  0  0
    4.0516   -2.0971    0.0000 C   0  0  0  0  0  0  0  0  0  0  0  0
    1.4252   -2.3618    0.0000 C   0  0  0  0  0  0  0  0  0  0  0  0
    0.7329   -1.1198    0.0000 C   0  0  0  0  0  0  0  0  0  0  0  0
    0.7126   -1.9342    0.0000 C   0  0  0  0  0  0  0  0  0  0  0  0
    5.8841   -2.1378    0.0000 C   0  0  0  0  0  0  0  0  0  0  0  0
    5.3140   -3.1762    0.0000 C   0  0  0  0  0  0  0  0  0  0  0  0
    6.1080   -2.9522    0.0000 C   0  0  0  0  0  0  0  0  0  0  0  0
    0.0000   -3.1762    0.0000 C   0  0  0  0  0  0  0  0  0  0  0  0
  1  5  1  0  0  0  0
  1  6  1  0  0  0  0
  2  7  1  0  0  0  0
  2 12  1  0  0  0  0
  3  7  2  0  0  0  0
  4 16  1  0  0  0  0
  4 20  1  0  0  0  0
  5  6  1  0  0  0  0
  5  7  1  0  0  0  0
  5  9  1  0  0  0  0
  6  8  1  0  0  0  0
  8 10  2  0  0  0  0
  8 11  1  0  0  0  0
  9 13  1  0  0  0  0
 10 14  1  0  0  0  0
 11 15  2  0  0  0  0
 12 17  1  0  0  0  0
 12 18  1  0  0  0  0
 14 16  2  0  0  0  0
 15 16  1  0  0  0  0
 17 19  1  0  0  0  0
 18 19  1  0  0  0  0
M  END
> <PUBCHEM_COMPOUND_ID_TYPE>
0

> <PUBCHEM_TOTAL_CHARGE>
0

> <PUBCHEM_SUBSTANCE_ID>
310931355

> <PUBCHEM_SUBSTANCE_VERSION>
1

> <PUBCHEM_EXT_DATASOURCE_NAME>
4488

> <PUBCHEM_EXT_DATASOURCE_REGID>
SCHEMBL16108675

> <PUBCHEM_SUBSTANCE_COMMENT>
InChI=1S/C16H20O4/c1-3-16(15(17)19-13-5-4-6-13)14(20-16)11-7-9-12(18-2)10-8-11/h7-10,13-14H,3-6H2,1-2H3
InChIKey=GNUINDRIVCCFQU-UHFFFAOYSA-N

> <PUBCHEM_SUBSTANCE_SYNONYM>
SCHEMBL16108675

> <PUBCHEM_XREF_EXT_ID>
SCHEMBL16108675

> <PUBCHEM_EXT_DATASOURCE_URL>
https://www.surechembl.org/

> <PUBCHEM_EXT_SUBSTANCE_URL>
https://www.surechembl.org/chemical/SCHEMBL16108675

> <PUBCHEM_CID_ASSOCIATIONS>
117600158  1

> <PUBCHEM_COORDINATE_TYPE>
1
3

$$$$
