310945773
  -OEChem-07211613022D

 43 47  0     1  0  0  0  0  0999 V2000
    5.4019    0.9872    0.0000 O   0  0  0  0  0  0  0  0  0  0  0  0
    4.2617   -0.9872    0.0000 O   0  0  0  0  0  0  0  0  0  0  0  0
    1.8702    0.9733    0.0000 O   0  0  0  0  0  0  0  0  0  0  0  0
   -2.4681    0.9733    0.0000 O   0  0  0  0  0  0  0  0  0  0  0  0
   -0.2989   -1.1124    0.0000 O   0  0  0  0  0  0  0  0  0  0  0  0
    4.0531   -2.7670    0.0000 O   0  0  0  0  0  0  0  0  0  0  0  0
    2.6071   -0.2642    0.0000 N   0  0  0  0  0  0  0  0  0  0  0  0
    0.4380    0.1391    0.0000 N   0  0  0  0  0  0  0  0  0  0  0  0
   -1.7311   -0.2642    0.0000 N   0  0  0  0  0  0  0  0  0  0  0  0
    4.9987    0.3059    0.0000 C   0  0  3  0  0  0  0  0  0  0  0  0
    4.2756   -0.0973    0.0000 C   0  0  0  0  0  0  0  0  0  0  0  0
    4.5954    1.0011    0.0000 C   0  0  0  0  0  0  0  0  0  0  0  0
    3.5526    0.2920    0.0000 C   0  0  3  0  0  0  0  0  0  0  0  0
    5.7356   -0.1112    0.0000 C   0  0  0  0  0  0  0  0  0  0  0  0
    3.5526    1.3627    0.0000 C   0  0  0  0  0  0  0  0  0  0  0  0
    1.8841    0.1530    0.0000 C   0  0  0  0  0  0  0  0  0  0  0  0
    1.1749   -0.2503    0.0000 C   0  0  3  0  0  0  0  0  0  0  0  0
   -3.1911   -0.2364    0.0000 C   0  0  0  0  0  0  0  0  0  0  0  0
   -4.0949   -1.2514    0.0000 C   0  0  0  0  0  0  0  0  0  0  0  0
   -4.4981   -0.5423    0.0000 C   0  0  0  0  0  0  0  0  0  0  0  0
    2.8156    1.8076    0.0000 C   0  0  0  0  0  0  0  0  0  0  0  0
   -3.2884   -1.0706    0.0000 C   0  0  0  0  0  0  0  0  0  0  0  0
   -3.9419    0.0695    0.0000 C   0  0  0  0  0  0  0  0  0  0  0  0
   -2.4681    0.1530    0.0000 C   0  0  0  0  0  0  0  0  0  0  0  0
   -0.2850   -0.2225    0.0000 C   0  0  0  0  0  0  0  0  0  0  0  0
    1.1610   -1.0845    0.0000 C   0  0  0  0  0  0  0  0  0  0  0  0
   -1.0081    0.1668    0.0000 C   0  0  3  0  0  0  0  0  0  0  0  0
   -4.4981   -1.9605    0.0000 C   0  0  0  0  0  0  0  0  0  0  0  0
   -5.3324   -0.5423    0.0000 C   0  0  0  0  0  0  0  0  0  0  0  0
    1.8841   -1.4878    0.0000 C   0  0  0  0  0  0  0  0  0  0  0  0
    2.0509    1.4739    0.0000 C   0  0  0  0  0  0  0  0  0  0  0  0
    2.7322    2.6001    0.0000 C   0  0  0  0  0  0  0  0  0  0  0  0
   -5.3324   -1.9605    0.0000 C   0  0  0  0  0  0  0  0  0  0  0  0
   -5.7356   -1.2653    0.0000 C   0  0  0  0  0  0  0  0  0  0  0  0
    1.5225    2.0578    0.0000 C   0  0  0  0  0  0  0  0  0  0  0  0
    1.9258    2.7670    0.0000 C   0  0  0  0  0  0  0  0  0  0  0  0
    1.8980   -2.3360    0.0000 C   0  0  0  0  0  0  0  0  0  0  0  0
    2.5932   -1.0985    0.0000 C   0  0  0  0  0  0  0  0  0  0  0  0
    3.3162   -2.3221    0.0000 C   0  0  0  0  0  0  0  0  0  0  0  0
   -0.9942    1.0150    0.0000 C   0  0  0  0  0  0  0  0  0  0  0  0
    2.6071   -2.7392    0.0000 C   0  0  0  0  0  0  0  0  0  0  0  0
    3.3301   -1.5017    0.0000 C   0  0  0  0  0  0  0  0  0  0  0  0
    4.8040   -2.3221    0.0000 C   0  0  0  0  0  0  0  0  0  0  0  0
  1 10  1  0  0  0  0
  1 12  1  0  0  0  0
  2 11  2  0  0  0  0
  3 16  2  0  0  0  0
  4 24  2  0  0  0  0
  5 25  2  0  0  0  0
  6 39  1  0  0  0  0
  6 43  1  0  0  0  0
  7 13  1  0  0  0  0
  7 16  1  0  0  0  0
  8 17  1  0  0  0  0
  8 25  1  0  0  0  0
  9 24  1  0  0  0  0
  9 27  1  0  0  0  0
 10 11  1  0  0  0  0
 10 12  1  0  0  0  0
 10 14  1  0  0  0  0
 11 13  1  0  0  0  0
 13 15  1  0  0  0  0
 15 21  1  0  0  0  0
 16 17  1  0  0  0  0
 17 26  1  0  0  0  0
 18 22  2  0  0  0  0
 18 23  1  0  0  0  0
 18 24  1  0  0  0  0
 19 20  1  0  0  0  0
 19 22  1  0  0  0  0
 19 28  2  0  0  0  0
 20 23  1  0  0  0  0
 20 29  2  0  0  0  0
 21 31  1  0  0  0  0
 21 32  1  0  0  0  0
 25 27  1  0  0  0  0
 26 30  1  0  0  0  0
 27 40  1  0  0  0  0
 28 33  1  0  0  0  0
 29 34  1  0  0  0  0
 30 37  2  0  0  0  0
 30 38  1  0  0  0  0
 31 35  1  0  0  0  0
 32 36  1  0  0  0  0
 33 34  2  0  0  0  0
 35 36  1  0  0  0  0
 37 41  1  0  0  0  0
 38 42  2  0  0  0  0
 39 41  2  0  0  0  0
 39 42  1  0  0  0  0
M  END
> <PUBCHEM_COMPOUND_ID_TYPE>
0

> <PUBCHEM_TOTAL_CHARGE>
0

> <PUBCHEM_SUBSTANCE_ID>
310945773

> <PUBCHEM_SUBSTANCE_VERSION>
1

> <PUBCHEM_EXT_DATASOURCE_NAME>
4488

> <PUBCHEM_EXT_DATASOURCE_REGID>
SCHEMBL16123877

> <PUBCHEM_SUBSTANCE_COMMENT>
InChI=1S/C34H41N3O6/c1-21(35-32(40)26-18-24-10-6-7-11-25(24)19-26)31(39)37-29(17-23-12-14-27(42-3)15-13-23)33(41)36-28(16-22-8-4-5-9-22)30(38)34(2)20-43-34/h6-7,10-15,18,21-22,28-29H,4-5,8-9,16-17,19-20H2,1-3H3,(H,35,40)(H,36,41)(H,37,39)
InChIKey=YDMYZPONOBAVHY-UHFFFAOYSA-N

> <PUBCHEM_SUBSTANCE_SYNONYM>
SCHEMBL16123877

> <PUBCHEM_XREF_EXT_ID>
SCHEMBL16123877

> <PUBCHEM_EXT_DATASOURCE_URL>
https://www.surechembl.org/

> <PUBCHEM_EXT_SUBSTANCE_URL>
https://www.surechembl.org/chemical/SCHEMBL16123877

> <PUBCHEM_CID_ASSOCIATIONS>
117611761  1

> <PUBCHEM_COORDINATE_TYPE>
1
3

$$$$
