310942012
  -OEChem-07211613022D

 24 25  0     1  0  0  0  0  0999 V2000
    2.5607    1.1866    0.0000 O   0  0  0  0  0  0  0  0  0  0  0  0
   -4.1845   -0.9507    0.0000 O   0  0  0  0  0  0  0  0  0  0  0  0
    2.1859    2.5745    0.0000 O   0  0  0  0  0  0  0  0  0  0  0  0
   -0.7425   -1.7696    0.0000 N   0  0  0  0  0  0  0  0  0  0  0  0
   -1.2283   -2.4358    0.0000 N   0  0  0  0  0  0  0  0  0  0  0  0
   -0.1596   -0.1457    0.0000 N   0  0  3  0  0  0  0  0  0  0  0  0
    1.1727    1.6030    0.0000 N   0  0  0  0  0  0  0  0  0  0  0  0
   -2.0194   -1.3393    0.0000 C   0  0  0  0  0  0  0  0  0  0  0  0
   -1.2422   -1.0756    0.0000 C   0  0  0  0  0  0  0  0  0  0  0  0
   -2.0194   -2.1443    0.0000 C   0  0  0  0  0  0  0  0  0  0  0  0
   -2.7411   -0.9368    0.0000 C   0  0  0  0  0  0  0  0  0  0  0  0
   -2.7272   -2.5745    0.0000 C   0  0  0  0  0  0  0  0  0  0  0  0
   -0.9646   -0.2984    0.0000 C   0  0  0  0  0  0  0  0  0  0  0  0
   -3.4350   -1.3393    0.0000 C   0  0  0  0  0  0  0  0  0  0  0  0
   -3.4350   -2.1720    0.0000 C   0  0  0  0  0  0  0  0  0  0  0  0
    1.9638    1.7835    0.0000 C   0  0  0  0  0  0  0  0  0  0  0  0
    0.1041    0.6593    0.0000 C   0  0  0  0  0  0  0  0  0  0  0  0
    3.3934    1.4504    0.0000 C   0  0  0  0  0  0  0  0  0  0  0  0
    0.9091    0.8397    0.0000 C   0  0  0  0  0  0  0  0  0  0  0  0
    0.4233   -0.7564    0.0000 C   0  0  0  0  0  0  0  0  0  0  0  0
    0.5760    2.1998    0.0000 C   0  0  0  0  0  0  0  0  0  0  0  0
    3.9763    0.8258    0.0000 C   0  0  0  0  0  0  0  0  0  0  0  0
    3.5738    2.2414    0.0000 C   0  0  0  0  0  0  0  0  0  0  0  0
    4.1845    1.6446    0.0000 C   0  0  0  0  0  0  0  0  0  0  0  0
  1 16  1  0  0  0  0
  1 18  1  0  0  0  0
  2 14  1  0  0  0  0
  3 16  2  0  0  0  0
  4  5  1  0  0  0  0
  4  9  2  0  0  0  0
  5 10  1  0  0  0  0
  6 13  1  0  0  0  0
  6 17  1  0  0  0  0
  6 20  1  0  0  0  0
  7 16  1  0  0  0  0
  7 19  1  0  0  0  0
  7 21  1  0  0  0  0
  8  9  1  0  0  0  0
  8 10  1  0  0  0  0
  8 11  2  0  0  0  0
  9 13  1  0  0  0  0
 10 12  2  0  0  0  0
 11 14  1  0  0  0  0
 12 15  1  0  0  0  0
 14 15  2  0  0  0  0
 17 19  1  0  0  0  0
 18 22  1  0  0  0  0
 18 23  1  0  0  0  0
 18 24  1  0  0  0  0
M  END
> <PUBCHEM_COMPOUND_ID_TYPE>
0

> <PUBCHEM_TOTAL_CHARGE>
0

> <PUBCHEM_SUBSTANCE_ID>
310942012

> <PUBCHEM_SUBSTANCE_VERSION>
1

> <PUBCHEM_EXT_DATASOURCE_NAME>
4488

> <PUBCHEM_EXT_DATASOURCE_REGID>
SCHEMBL16120046

> <PUBCHEM_SUBSTANCE_COMMENT>
InChI=1S/C17H26N4O3/c1-17(2,3)24-16(23)21(5)9-8-20(4)11-15-13-10-12(22)6-7-14(13)18-19-15/h6-7,10,22H,8-9,11H2,1-5H3,(H,18,19)
InChIKey=QFELMYFNJWEAQK-UHFFFAOYSA-N

> <PUBCHEM_SUBSTANCE_SYNONYM>
SCHEMBL16120046

> <PUBCHEM_XREF_EXT_ID>
SCHEMBL16120046

> <PUBCHEM_EXT_DATASOURCE_URL>
https://www.surechembl.org/

> <PUBCHEM_EXT_SUBSTANCE_URL>
https://www.surechembl.org/chemical/SCHEMBL16120046

> <PUBCHEM_CID_ASSOCIATIONS>
117608703  1

> <PUBCHEM_COORDINATE_TYPE>
1
3

$$$$
