310936187
  -OEChem-07211613022D

 33 34  0     1  0  0  0  0  0999 V2000
    3.8103   -3.7023    0.0000 Cl  0  0  0  0  0  0  0  0  0  0  0  0
    5.2426   -4.5400    0.0000 Cl  0  0  0  0  0  0  0  0  0  0  0  0
    2.1619   -0.8107    0.0000 Cl  0  0  0  0  0  0  0  0  0  0  0  0
    0.7296    0.0000    0.0000 Cl  0  0  0  0  0  0  0  0  0  0  0  0
    5.9452    0.0000    0.0000 O   0  0  0  0  0  0  0  0  0  0  0  0
    6.1344   -3.4590    0.0000 O   0  5  0  0  0  0  0  0  0  0  0  0
    5.4047   -2.2430    0.0000 O   0  0  0  0  0  0  0  0  0  0  0  0
    6.1344   -2.6484    0.0000 N   0  3  0  0  0  0  0  0  0  0  0  0
    3.8103   -0.4054    0.0000 N   0  0  0  0  0  0  0  0  0  0  0  0
    1.4322   -4.5400    0.0000 N   0  0  0  0  0  0  0  0  0  0  0  0
    6.6749   -1.2161    0.0000 C   0  0  0  0  0  0  0  0  0  0  0  0
    5.9452   -0.8107    0.0000 C   0  0  3  0  0  0  0  0  0  0  0  0
    5.2426   -1.2161    0.0000 C   0  0  3  0  0  0  0  0  0  0  0  0
    5.2426   -2.0538    0.0000 C   0  0  0  0  0  0  0  0  0  0  0  0
    6.6749   -2.0538    0.0000 C   0  0  0  0  0  0  0  0  0  0  0  0
    4.5400   -2.4862    0.0000 C   0  0  0  0  0  0  0  0  0  0  0  0
    7.4045   -0.8107    0.0000 C   0  0  0  0  0  0  0  0  0  0  0  0
    4.5400   -3.2969    0.0000 C   0  0  0  0  0  0  0  0  0  0  0  0
    5.9723   -2.4862    0.0000 C   0  0  0  0  0  0  0  0  0  0  0  0
    5.2426   -3.7023    0.0000 C   0  0  0  0  0  0  0  0  0  0  0  0
    7.4045   -2.4592    0.0000 C   0  0  0  0  0  0  0  0  0  0  0  0
    4.5129   -0.8107    0.0000 C   0  0  0  0  0  0  0  0  0  0  0  0
    5.9723   -3.2969    0.0000 C   0  0  0  0  0  0  0  0  0  0  0  0
    8.1071   -1.2161    0.0000 C   0  0  0  0  0  0  0  0  0  0  0  0
    8.1071   -2.0538    0.0000 C   0  0  0  0  0  0  0  0  0  0  0  0
    1.4322   -1.2431    0.0000 C   0  0  0  0  0  0  0  0  0  0  0  0
    0.7296   -0.8107    0.0000 C   0  0  0  0  0  0  0  0  0  0  0  0
    0.7296   -2.4862    0.0000 C   0  0  0  0  0  0  0  0  0  0  0  0
    1.4322   -2.0538    0.0000 C   0  0  0  0  0  0  0  0  0  0  0  0
    0.0000   -1.2431    0.0000 C   0  0  0  0  0  0  0  0  0  0  0  0
    0.0000   -2.0538    0.0000 C   0  0  0  0  0  0  0  0  0  0  0  0
    0.7296   -3.2969    0.0000 C   0  0  0  0  0  0  0  0  0  0  0  0
    1.4322   -3.7293    0.0000 C   0  0  0  0  0  0  0  0  0  0  0  0
  1 18  1  0  0  0  0
  2 20  1  0  0  0  0
  3 26  1  0  0  0  0
  4 27  1  0  0  0  0
  5 12  1  0  0  0  0
  6  8  1  0  0  0  0
  7  8  2  0  0  0  0
  8 15  1  0  0  0  0
  9 22  3  0  0  0  0
 10 33  3  0  0  0  0
 11 12  1  0  0  0  0
 11 15  1  0  0  0  0
 11 17  2  0  0  0  0
 12 13  1  0  0  0  0
 13 14  1  0  0  0  0
 13 22  1  0  0  0  0
 14 16  1  0  0  0  0
 14 19  2  0  0  0  0
 15 21  2  0  0  0  0
 16 18  2  0  0  0  0
 17 24  1  0  0  0  0
 18 20  1  0  0  0  0
 19 23  1  0  0  0  0
 20 23  2  0  0  0  0
 21 25  1  0  0  0  0
 24 25  2  0  0  0  0
 26 27  1  0  0  0  0
 26 29  2  0  0  0  0
 27 30  2  0  0  0  0
 28 29  1  0  0  0  0
 28 31  2  0  0  0  0
 28 32  1  0  0  0  0
 30 31  1  0  0  0  0
 32 33  1  0  0  0  0
M  CHG  2   6  -1   8   1
M  END
> <PUBCHEM_COMPOUND_ID_TYPE>
0

> <PUBCHEM_TOTAL_CHARGE>
0

> <PUBCHEM_SUBSTANCE_ID>
310936187

> <PUBCHEM_SUBSTANCE_VERSION>
1

> <PUBCHEM_EXT_DATASOURCE_NAME>
4488

> <PUBCHEM_EXT_DATASOURCE_REGID>
SCHEMBL16113797

> <PUBCHEM_SUBSTANCE_COMMENT>
InChI=1S/C15H10Cl2N2O3.C8H5Cl2N/c16-12-6-5-9(7-13(12)17)11(8-18)15(20)10-3-1-2-4-14(10)19(21)22;9-7-2-1-6(3-4-11)5-8(7)10/h1-7,11,15,20H;1-2,5H,3H2
InChIKey=NRWASCXIVSTKCL-UHFFFAOYSA-N

> <PUBCHEM_SUBSTANCE_SYNONYM>
SCHEMBL16113797

> <PUBCHEM_XREF_EXT_ID>
SCHEMBL16113797

> <PUBCHEM_EXT_DATASOURCE_URL>
https://www.surechembl.org/

> <PUBCHEM_EXT_SUBSTANCE_URL>
https://www.surechembl.org/chemical/SCHEMBL16113797

> <PUBCHEM_CID_ASSOCIATIONS>
117604143  1
76690  2
117604144  2

> <PUBCHEM_COORDINATE_TYPE>
1
3

$$$$
