310949610
  -OEChem-07211613022D

 23 24  0     1  0  0  0  0  0999 V2000
   -1.4522   -0.8137    0.0000 O   0  0  0  0  0  0  0  0  0  0  0  0
    1.4110   -1.6788    0.0000 O   0  0  0  0  0  0  0  0  0  0  0  0
    0.6901   -0.4223    0.0000 N   0  0  0  0  0  0  0  0  0  0  0  0
    2.8736   -0.8342    0.0000 N   0  0  0  0  0  0  0  0  0  0  0  0
    3.6152   -0.4429    0.0000 N   0  0  0  0  0  0  0  0  0  0  0  0
   -2.1733    0.4223    0.0000 C   0  0  0  0  0  0  0  0  0  0  0  0
   -1.4317    0.8549    0.0000 C   0  0  0  0  0  0  0  0  0  0  0  0
   -2.2145   -0.3811    0.0000 C   0  0  0  0  0  0  0  0  0  0  0  0
    1.4110   -0.8342    0.0000 C   0  0  0  0  0  0  0  0  0  0  0  0
    2.1320   -0.4429    0.0000 C   0  0  3  0  0  0  0  0  0  0  0  0
   -2.8943    0.8342    0.0000 C   0  0  0  0  0  0  0  0  0  0  0  0
   -2.8736   -0.7931    0.0000 C   0  0  0  0  0  0  0  0  0  0  0  0
    0.0103   -0.8137    0.0000 C   0  0  0  0  0  0  0  0  0  0  0  0
   -3.5946    0.4223    0.0000 C   0  0  0  0  0  0  0  0  0  0  0  0
   -0.7725   -0.4017    0.0000 C   0  0  0  0  0  0  0  0  0  0  0  0
   -3.6152   -0.4017    0.0000 C   0  0  0  0  0  0  0  0  0  0  0  0
    2.1938    0.3811    0.0000 C   0  0  0  0  0  0  0  0  0  0  0  0
   -1.4317    1.6788    0.0000 C   0  0  0  0  0  0  0  0  0  0  0  0
   -0.6901    1.2462    0.0000 C   0  0  0  0  0  0  0  0  0  0  0  0
   -0.6901    0.4223    0.0000 C   0  0  0  0  0  0  0  0  0  0  0  0
    2.8943    0.7931    0.0000 C   0  0  0  0  0  0  0  0  0  0  0  0
    0.7313    0.4017    0.0000 C   0  0  0  0  0  0  0  0  0  0  0  0
    3.6152    0.4223    0.0000 C   0  0  0  0  0  0  0  0  0  0  0  0
  1  8  1  0  0  0  0
  1 15  1  0  0  0  0
  2  9  2  0  0  0  0
  3  9  1  0  0  0  0
  3 13  1  0  0  0  0
  3 22  1  0  0  0  0
  4  5  1  0  0  0  0
  4 10  1  0  0  0  0
  5 23  2  0  0  0  0
  6  7  1  0  0  0  0
  6  8  1  0  0  0  0
  6 11  2  0  0  0  0
  7 18  1  0  0  0  0
  7 19  1  0  0  0  0
  7 20  1  0  0  0  0
  8 12  2  0  0  0  0
  9 10  1  0  0  0  0
 10 17  1  0  0  0  0
 11 14  1  0  0  0  0
 12 16  1  0  0  0  0
 13 15  1  0  0  0  0
 14 16  2  0  0  0  0
 17 21  2  0  0  0  0
 21 23  1  0  0  0  0
M  END
> <PUBCHEM_COMPOUND_ID_TYPE>
0

> <PUBCHEM_TOTAL_CHARGE>
0

> <PUBCHEM_SUBSTANCE_ID>
310949610

> <PUBCHEM_SUBSTANCE_VERSION>
1

> <PUBCHEM_EXT_DATASOURCE_NAME>
4488

> <PUBCHEM_EXT_DATASOURCE_REGID>
SCHEMBL16127807

> <PUBCHEM_SUBSTANCE_COMMENT>
InChI=1S/C18H25N3O2/c1-18(2,3)14-8-5-6-10-16(14)23-13-12-21(4)17(22)15-9-7-11-19-20-15/h5-11,15,20H,12-13H2,1-4H3
InChIKey=LPLFYLZPKVDDSI-UHFFFAOYSA-N

> <PUBCHEM_SUBSTANCE_SYNONYM>
SCHEMBL16127807

> <PUBCHEM_XREF_EXT_ID>
SCHEMBL16127807

> <PUBCHEM_EXT_DATASOURCE_URL>
https://www.surechembl.org/

> <PUBCHEM_EXT_SUBSTANCE_URL>
https://www.surechembl.org/chemical/SCHEMBL16127807

> <PUBCHEM_CID_ASSOCIATIONS>
117615002  1

> <PUBCHEM_COORDINATE_TYPE>
1
3

$$$$
