310943558
  -OEChem-07211613022D

 41 45  0     1  0  0  0  0  0999 V2000
   -0.5819   -2.6819    0.0000 F   0  0  0  0  0  0  0  0  0  0  0  0
    2.6284   -2.6685    0.0000 F   0  0  0  0  0  0  0  0  0  0  0  0
    2.4412    2.6819    0.0000 O   0  0  0  0  0  0  0  0  0  0  0  0
    3.2170    1.2373    0.0000 N   0  0  0  0  0  0  0  0  0  0  0  0
   -3.2705   -0.8360    0.0000 N   0  0  3  0  0  0  0  0  0  0  0  0
   -1.1437    2.2539    0.0000 N   0  0  0  0  0  0  0  0  0  0  0  0
    4.9827    0.6889    0.0000 N   0  0  3  0  0  0  0  0  0  0  0  0
   -5.0361   -0.3009    0.0000 N   0  0  3  0  0  0  0  0  0  0  0  0
    0.3009    0.4213    0.0000 C   0  0  0  0  0  0  0  0  0  0  0  0
    1.0233    0.0067    0.0000 C   0  0  0  0  0  0  0  0  0  0  0  0
   -0.4080   -0.0067    0.0000 C   0  0  0  0  0  0  0  0  0  0  0  0
    1.0233   -0.9296    0.0000 C   0  0  0  0  0  0  0  0  0  0  0  0
    1.7322    1.2640    0.0000 C   0  0  0  0  0  0  0  0  0  0  0  0
    1.7188    0.4080    0.0000 C   0  0  0  0  0  0  0  0  0  0  0  0
   -1.1303    0.4080    0.0000 C   0  0  0  0  0  0  0  0  0  0  0  0
    0.3143    1.2506    0.0000 C   0  0  0  0  0  0  0  0  0  0  0  0
    1.0233    1.6253    0.0000 C   0  0  0  0  0  0  0  0  0  0  0  0
    2.4278    1.6520    0.0000 C   0  0  0  0  0  0  0  0  0  0  0  0
   -0.4213   -0.8226    0.0000 C   0  0  0  0  0  0  0  0  0  0  0  0
    1.7322   -1.3443    0.0000 C   0  0  0  0  0  0  0  0  0  0  0  0
    0.3277   -1.3309    0.0000 C   0  0  0  0  0  0  0  0  0  0  0  0
   -1.8392   -0.0201    0.0000 C   0  0  0  0  0  0  0  0  0  0  0  0
   -1.8392   -0.8226    0.0000 C   0  0  0  0  0  0  0  0  0  0  0  0
   -1.1036   -1.2239    0.0000 C   0  0  0  0  0  0  0  0  0  0  0  0
    0.3009   -2.1602    0.0000 C   0  0  0  0  0  0  0  0  0  0  0  0
    1.7054   -2.1469    0.0000 C   0  0  0  0  0  0  0  0  0  0  0  0
   -1.1437    1.4246    0.0000 C   0  0  0  0  0  0  0  0  0  0  0  0
    1.0233   -2.5616    0.0000 C   0  0  0  0  0  0  0  0  0  0  0  0
   -2.5215   -1.2506    0.0000 C   0  0  0  0  0  0  0  0  0  0  0  0
    3.5247    0.4749    0.0000 C   0  0  0  0  0  0  0  0  0  0  0  0
    3.6450    1.9463    0.0000 C   0  0  0  0  0  0  0  0  0  0  0  0
    4.3139    0.2207    0.0000 C   0  0  0  0  0  0  0  0  0  0  0  0
    4.4476    2.0667    0.0000 C   0  0  0  0  0  0  0  0  0  0  0  0
   -3.9393   -1.3042    0.0000 C   0  0  0  0  0  0  0  0  0  0  0  0
   -3.2036   -0.0067    0.0000 C   0  0  0  0  0  0  0  0  0  0  0  0
    5.0495    1.4781    0.0000 C   0  0  0  0  0  0  0  0  0  0  0  0
   -4.7285   -1.0634    0.0000 C   0  0  0  0  0  0  0  0  0  0  0  0
   -3.8055    0.5284    0.0000 C   0  0  0  0  0  0  0  0  0  0  0  0
   -4.6215    0.4080    0.0000 C   0  0  0  0  0  0  0  0  0  0  0  0
    5.8655    0.1806    0.0000 C   0  0  0  0  0  0  0  0  0  0  0  0
   -5.8655   -0.3143    0.0000 C   0  0  0  0  0  0  0  0  0  0  0  0
  1 25  1  0  0  0  0
  2 26  1  0  0  0  0
  3 18  2  0  0  0  0
  4 18  1  0  0  0  0
  4 30  1  0  0  0  0
  4 31  1  0  0  0  0
  5 29  1  0  0  0  0
  5 34  1  0  0  0  0
  5 35  1  0  0  0  0
  6 27  3  0  0  0  0
  7 32  1  0  0  0  0
  7 36  1  0  0  0  0
  7 40  1  0  0  0  0
  8 37  1  0  0  0  0
  8 39  1  0  0  0  0
  8 41  1  0  0  0  0
  9 10  2  0  0  0  0
  9 11  1  0  0  0  0
  9 16  1  0  0  0  0
 10 12  1  0  0  0  0
 10 14  1  0  0  0  0
 11 15  2  0  0  0  0
 11 19  1  0  0  0  0
 12 20  2  0  0  0  0
 12 21  1  0  0  0  0
 13 14  2  0  0  0  0
 13 17  1  0  0  0  0
 13 18  1  0  0  0  0
 15 22  1  0  0  0  0
 15 27  1  0  0  0  0
 16 17  2  0  0  0  0
 19 24  2  0  0  0  0
 20 26  1  0  0  0  0
 21 25  2  0  0  0  0
 22 23  2  0  0  0  0
 23 24  1  0  0  0  0
 23 29  1  0  0  0  0
 25 28  1  0  0  0  0
 26 28  2  0  0  0  0
 30 32  1  0  0  0  0
 31 33  1  0  0  0  0
 33 36  1  0  0  0  0
 34 37  1  0  0  0  0
 35 38  1  0  0  0  0
 38 39  1  0  0  0  0
M  END
> <PUBCHEM_COMPOUND_ID_TYPE>
0

> <PUBCHEM_TOTAL_CHARGE>
0

> <PUBCHEM_SUBSTANCE_ID>
310943558

> <PUBCHEM_SUBSTANCE_VERSION>
1

> <PUBCHEM_EXT_DATASOURCE_NAME>
4488

> <PUBCHEM_EXT_DATASOURCE_REGID>
SCHEMBL16121625

> <PUBCHEM_SUBSTANCE_COMMENT>
InChI=1S/C33H37F2N5O/c1-37-9-3-11-39(15-13-37)23-24-5-7-30(27(17-24)22-36)31-8-6-25(33(41)40-12-4-10-38(2)14-16-40)20-32(31)26-18-28(34)21-29(35)19-26/h5-8,17-21H,3-4,9-16,23H2,1-2H3
InChIKey=GJKYYODWXYUAFC-UHFFFAOYSA-N

> <PUBCHEM_SUBSTANCE_SYNONYM>
SCHEMBL16121625

> <PUBCHEM_XREF_EXT_ID>
SCHEMBL16121625

> <PUBCHEM_EXT_DATASOURCE_URL>
https://www.surechembl.org/

> <PUBCHEM_EXT_SUBSTANCE_URL>
https://www.surechembl.org/chemical/SCHEMBL16121625

> <PUBCHEM_CID_ASSOCIATIONS>
86301846  1

> <PUBCHEM_COORDINATE_TYPE>
1
3

$$$$
