310937178
  -OEChem-07211613022D

 82 90  0     1  0  0  0  0  0999 V2000
    4.1801   -8.3116    0.0000 Cl  0  0  0  0  0  0  0  0  0  0  0  0
    1.5182   -6.6373    0.0000 S   0  0  0  0  0  0  0  0  0  0  0  0
    1.4413   -2.3113    0.0000 S   0  0  0  0  0  0  0  0  0  0  0  0
   -2.2031   -7.1465    0.0000 S   0  0  0  0  0  0  0  0  0  0  0  0
   -4.3935   -5.8366    0.0000 F   0  0  0  0  0  0  0  0  0  0  0  0
    3.1637   -5.1221    0.0000 O   0  0  0  0  0  0  0  0  0  0  0  0
    0.6078   -5.4241    0.0000 O   0  0  0  0  0  0  0  0  0  0  0  0
    1.9262   -4.4077    0.0000 O   0  0  0  0  0  0  0  0  0  0  0  0
    1.0673   -6.6212    0.0000 O   0  0  0  0  0  0  0  0  0  0  0  0
    4.8946   -4.5991    0.0000 O   0  0  0  0  0  0  0  0  0  0  0  0
    6.3235   -7.0741    0.0000 O   0  0  0  0  0  0  0  0  0  0  0  0
   -0.1067   -6.6616    0.0000 O   0  0  0  0  0  0  0  0  0  0  0  0
   -4.3935   -3.3616    0.0000 O   0  0  0  0  0  0  0  0  0  0  0  0
   -1.5356   -3.3616    0.0000 O   0  0  0  0  0  0  0  0  0  0  0  0
    5.2262   -2.9787    0.0000 O   0  0  0  0  0  0  0  0  0  0  0  0
    5.2262   -0.1208    0.0000 O   0  0  0  0  0  0  0  0  0  0  0  0
    2.6742   -7.3048    0.0000 N   0  0  0  0  0  0  0  0  0  0  0  0
    1.4413   -3.6462    0.0000 N   0  0  0  0  0  0  0  0  0  0  0  0
   -0.8682   -7.1465    0.0000 N   0  0  0  0  0  0  0  0  0  0  0  0
    2.7512   -5.8366    0.0000 C   0  0  3  0  0  0  0  0  0  0  0  0
    3.4656   -6.2491    0.0000 C   0  0  0  0  0  0  0  0  0  0  0  0
    2.3387   -6.5511    0.0000 C   0  0  0  0  0  0  0  0  0  0  0  0
    2.0367   -5.4241    0.0000 C   0  0  0  0  0  0  0  0  0  0  0  0
    4.1801   -5.8366    0.0000 C   0  0  0  0  0  0  0  0  0  0  0  0
    4.8946   -6.2491    0.0000 C   0  0  0  0  0  0  0  0  0  0  0  0
    3.4656   -7.0741    0.0000 C   0  0  0  0  0  0  0  0  0  0  0  0
    5.6091   -5.8366    0.0000 C   0  0  0  0  0  0  0  0  0  0  0  0
    4.1801   -7.4866    0.0000 C   0  0  0  0  0  0  0  0  0  0  0  0
    2.7512   -4.4077    0.0000 C   0  0  0  0  0  0  0  0  0  0  0  0
    4.8946   -7.0741    0.0000 C   0  0  0  0  0  0  0  0  0  0  0  0
    1.3222   -5.8366    0.0000 C   0  0  0  0  0  0  0  0  0  0  0  0
    1.3467   -7.4443    0.0000 C   0  0  0  0  0  0  0  0  0  0  0  0
    2.0611   -7.8568    0.0000 C   0  0  0  0  0  0  0  0  0  0  0  0
    5.6091   -5.0116    0.0000 C   0  0  0  0  0  0  0  0  0  0  0  0
    6.3235   -6.2491    0.0000 C   0  0  0  0  0  0  0  0  0  0  0  0
    3.1637   -3.6932    0.0000 C   0  0  0  0  0  0  0  0  0  0  0  0
    2.7512   -2.9787    0.0000 C   0  0  3  0  0  0  0  0  0  0  0  0
    3.1637   -2.2643    0.0000 C   0  0  0  0  0  0  0  0  0  0  0  0
    1.9262   -2.9787    0.0000 C   0  0  0  0  0  0  0  0  0  0  0  0
    6.3235   -4.5991    0.0000 C   0  0  0  0  0  0  0  0  0  0  0  0
    7.0380   -5.8366    0.0000 C   0  0  0  0  0  0  0  0  0  0  0  0
   -0.1067   -5.8366    0.0000 C   0  0  0  0  0  0  0  0  0  0  0  0
   -1.5356   -5.8366    0.0000 C   0  0  3  0  0  0  0  0  0  0  0  0
   -2.2501   -5.4241    0.0000 C   0  0  0  0  0  0  0  0  0  0  0  0
    0.5930   -7.7798    0.0000 C   0  0  0  0  0  0  0  0  0  0  0  0
    4.4012   -1.5498    0.0000 C   0  0  0  0  0  0  0  0  0  0  0  0
    7.0380   -5.0116    0.0000 C   0  0  0  0  0  0  0  0  0  0  0  0
    3.9887   -2.2643    0.0000 C   0  0  0  0  0  0  0  0  0  0  0  0
   -2.9646   -4.1866    0.0000 C   0  0  0  0  0  0  0  0  0  0  0  0
    5.2262   -1.5498    0.0000 C   0  0  0  0  0  0  0  0  0  0  0  0
   -2.9646   -3.3616    0.0000 C   0  0  0  0  0  0  0  0  0  0  0  0
   -0.8212   -5.4241    0.0000 C   0  0  0  0  0  0  0  0  0  0  0  0
   -1.5356   -6.6616    0.0000 C   0  0  0  0  0  0  0  0  0  0  0  0
    2.7512   -1.5498    0.0000 C   0  0  0  0  0  0  0  0  0  0  0  0
   -2.2501   -4.5991    0.0000 C   0  0  0  0  0  0  0  0  0  0  0  0
   -2.9646   -5.8366    0.0000 C   0  0  0  0  0  0  0  0  0  0  0  0
   -3.6791   -2.9491    0.0000 C   0  0  0  0  0  0  0  0  0  0  0  0
   -2.2501   -2.9491    0.0000 C   0  0  0  0  0  0  0  0  0  0  0  0
    5.6387   -2.2643    0.0000 C   0  0  0  0  0  0  0  0  0  0  0  0
    5.6387   -0.8353    0.0000 C   0  0  0  0  0  0  0  0  0  0  0  0
   -3.6791   -4.5991    0.0000 C   0  0  0  0  0  0  0  0  0  0  0  0
    3.9887   -0.8353    0.0000 C   0  0  0  0  0  0  0  0  0  0  0  0
   -3.6791   -5.4241    0.0000 C   0  0  0  0  0  0  0  0  0  0  0  0
    0.6566   -2.5662    0.0000 C   0  0  0  0  0  0  0  0  0  0  0  0
    3.1637   -0.8353    0.0000 C   0  0  0  0  0  0  0  0  0  0  0  0
    0.6566   -3.3912    0.0000 C   0  0  0  0  0  0  0  0  0  0  0  0
   -1.9481   -7.9312    0.0000 C   0  0  0  0  0  0  0  0  0  0  0  0
    4.8946   -3.7741    0.0000 C   0  0  0  0  0  0  0  0  0  0  0  0
    7.0380   -7.4866    0.0000 C   0  0  0  0  0  0  0  0  0  0  0  0
   -3.6791   -2.1241    0.0000 C   0  0  0  0  0  0  0  0  0  0  0  0
   -2.2501   -2.1241    0.0000 C   0  0  0  0  0  0  0  0  0  0  0  0
    6.4637   -2.2643    0.0000 C   0  0  0  0  0  0  0  0  0  0  0  0
    6.4637   -0.8353    0.0000 C   0  0  0  0  0  0  0  0  0  0  0  0
   -1.1231   -7.9312    0.0000 C   0  0  0  0  0  0  0  0  0  0  0  0
   -2.9646   -1.7116    0.0000 C   0  0  0  0  0  0  0  0  0  0  0  0
    6.8762   -1.5498    0.0000 C   0  0  0  0  0  0  0  0  0  0  0  0
   -0.0108   -2.0813    0.0000 C   0  0  0  0  0  0  0  0  0  0  0  0
   -2.4331   -8.5986    0.0000 C   0  0  0  0  0  0  0  0  0  0  0  0
   -4.3935   -4.1866    0.0000 C   0  0  0  0  0  0  0  0  0  0  0  0
   -1.5356   -4.1866    0.0000 C   0  0  0  0  0  0  0  0  0  0  0  0
    4.4012   -2.9787    0.0000 C   0  0  0  0  0  0  0  0  0  0  0  0
    5.6387    0.5936    0.0000 C   0  0  0  0  0  0  0  0  0  0  0  0
  1 28  1  0  0  0  0
  2 22  1  0  0  0  0
  2 32  1  0  0  0  0
  3 39  1  0  0  0  0
  3 64  1  0  0  0  0
  4 53  1  0  0  0  0
  4 67  1  0  0  0  0
  5 63  1  0  0  0  0
  6 20  1  0  0  0  0
  6 29  1  0  0  0  0
  7 31  1  0  0  0  0
  7 42  1  0  0  0  0
  8 29  2  0  0  0  0
  9 31  2  0  0  0  0
 10 34  1  0  0  0  0
 10 68  1  0  0  0  0
 11 35  1  0  0  0  0
 11 69  1  0  0  0  0
 12 42  2  0  0  0  0
 13 57  1  0  0  0  0
 13 79  1  0  0  0  0
 14 58  1  0  0  0  0
 14 80  1  0  0  0  0
 15 59  1  0  0  0  0
 15 81  1  0  0  0  0
 16 60  1  0  0  0  0
 16 82  1  0  0  0  0
 17 22  2  0  0  0  0
 17 33  1  0  0  0  0
 18 39  2  0  0  0  0
 18 66  1  0  0  0  0
 19 53  2  0  0  0  0
 19 74  1  0  0  0  0
 20 21  1  0  0  0  0
 20 22  1  0  0  0  0
 20 23  1  0  0  0  0
 21 24  1  0  0  0  0
 21 26  2  0  0  0  0
 23 31  1  0  0  0  0
 24 25  2  0  0  0  0
 25 27  1  0  0  0  0
 25 30  1  0  0  0  0
 26 28  1  0  0  0  0
 27 34  2  0  0  0  0
 27 35  1  0  0  0  0
 28 30  2  0  0  0  0
 29 36  1  0  0  0  0
 32 33  2  0  0  0  0
 32 45  1  0  0  0  0
 34 40  1  0  0  0  0
 35 41  2  0  0  0  0
 36 37  1  0  0  0  0
 37 38  1  0  0  0  0
 37 39  1  0  0  0  0
 38 48  1  0  0  0  0
 38 54  2  0  0  0  0
 40 47  2  0  0  0  0
 41 47  1  0  0  0  0
 42 52  1  0  0  0  0
 43 44  1  0  0  0  0
 43 52  1  0  0  0  0
 43 53  1  0  0  0  0
 44 55  1  0  0  0  0
 44 56  2  0  0  0  0
 46 48  2  0  0  0  0
 46 50  1  0  0  0  0
 46 62  1  0  0  0  0
 49 51  1  0  0  0  0
 49 55  2  0  0  0  0
 49 61  1  0  0  0  0
 50 59  2  0  0  0  0
 50 60  1  0  0  0  0
 51 57  2  0  0  0  0
 51 58  1  0  0  0  0
 54 65  1  0  0  0  0
 56 63  1  0  0  0  0
 57 70  1  0  0  0  0
 58 71  2  0  0  0  0
 59 72  1  0  0  0  0
 60 73  2  0  0  0  0
 61 63  2  0  0  0  0
 62 65  2  0  0  0  0
 64 66  2  0  0  0  0
 64 77  1  0  0  0  0
 67 74  2  0  0  0  0
 67 78  1  0  0  0  0
 70 75  2  0  0  0  0
 71 75  1  0  0  0  0
 72 76  2  0  0  0  0
 73 76  1  0  0  0  0
M  END
> <PUBCHEM_COMPOUND_ID_TYPE>
0

> <PUBCHEM_TOTAL_CHARGE>
0

> <PUBCHEM_SUBSTANCE_ID>
310937178

> <PUBCHEM_SUBSTANCE_VERSION>
1

> <PUBCHEM_EXT_DATASOURCE_NAME>
4488

> <PUBCHEM_EXT_DATASOURCE_REGID>
SCHEMBL16114903

> <PUBCHEM_SUBSTANCE_COMMENT>
InChI=1S/C63H57ClFN3O11S3/c1-35-32-66-60(80-35)46(38-14-10-15-39(22-38)57-48(72-4)16-11-17-49(57)73-5)30-55(70)79-63(62-68-34-37(3)82-62,43-24-42(25-44(64)28-43)59-52(76-8)20-13-21-53(59)77-9)31-56(71)78-54(69)29-47(61-67-33-36(2)81-61)40-23-41(27-45(65)26-40)58-50(74-6)18-12-19-51(58)75-7/h10-28,32-34,46-47H,29-31H2,1-9H3
InChIKey=BETLQSHWIRKWRT-UHFFFAOYSA-N

> <PUBCHEM_SUBSTANCE_SYNONYM>
SCHEMBL16114903

> <PUBCHEM_XREF_EXT_ID>
SCHEMBL16114903

> <PUBCHEM_EXT_DATASOURCE_URL>
https://www.surechembl.org/

> <PUBCHEM_EXT_SUBSTANCE_URL>
https://www.surechembl.org/chemical/SCHEMBL16114903

> <PUBCHEM_CID_ASSOCIATIONS>
117604997  1

> <PUBCHEM_COORDINATE_TYPE>
1
3

$$$$
