310931146
  -OEChem-07211613022D

 32 35  0     1  0  0  0  0  0999 V2000
    4.8946    6.9509    0.0000 Cl  0  0  0  0  0  0  0  0  0  0  0  0
    6.3235    2.8259    0.0000 S   0  0  0  0  0  0  0  0  0  0  0  0
    6.3706    1.1035    0.0000 S   0  0  0  0  0  0  0  0  0  0  0  0
    3.4656    2.8259    0.0000 F   0  0  0  0  0  0  0  0  0  0  0  0
    4.8946    5.3009    0.0000 F   0  0  0  0  0  0  0  0  0  0  0  0
    3.4656    4.4759    0.0000 O   0  0  0  0  0  0  0  0  0  0  0  0
    5.9110    2.1114    0.0000 O   0  0  0  0  0  0  0  0  0  0  0  0
    6.7360    3.5404    0.0000 O   0  0  0  0  0  0  0  0  0  0  0  0
    7.0380    2.4134    0.0000 N   0  0  0  0  0  0  0  0  0  0  0  0
    7.7054    1.1035    0.0000 N   0  0  0  0  0  0  0  0  0  0  0  0
    6.6255    0.3188    0.0000 N   0  0  0  0  0  0  0  0  0  0  0  0
    0.6078    4.4759    0.0000 N   0  0  0  0  0  0  0  0  0  0  0  0
    5.6091    3.2384    0.0000 C   0  0  0  0  0  0  0  0  0  0  0  0
    4.1801    4.0634    0.0000 C   0  0  0  0  0  0  0  0  0  0  0  0
    4.1801    3.2384    0.0000 C   0  0  0  0  0  0  0  0  0  0  0  0
    4.8946    4.4759    0.0000 C   0  0  0  0  0  0  0  0  0  0  0  0
    4.8946    2.8259    0.0000 C   0  0  0  0  0  0  0  0  0  0  0  0
    5.6091    4.0634    0.0000 C   0  0  0  0  0  0  0  0  0  0  0  0
    7.0380    1.5884    0.0000 C   0  0  0  0  0  0  0  0  0  0  0  0
    2.0367    4.4759    0.0000 C   0  0  3  0  0  0  0  0  0  0  0  0
    2.0367    5.3009    0.0000 C   0  0  3  0  0  0  0  0  0  0  0  0
    2.7512    4.0634    0.0000 C   0  0  0  0  0  0  0  0  0  0  0  0
    2.7512    5.7134    0.0000 C   0  0  0  0  0  0  0  0  0  0  0  0
    1.3222    4.0634    0.0000 C   0  0  0  0  0  0  0  0  0  0  0  0
    1.3222    5.7134    0.0000 C   0  0  0  0  0  0  0  0  0  0  0  0
    7.4505    0.3188    0.0000 C   0  0  0  0  0  0  0  0  0  0  0  0
    2.7512    6.5384    0.0000 C   0  0  0  0  0  0  0  0  0  0  0  0
    3.4656    5.3009    0.0000 C   0  0  0  0  0  0  0  0  0  0  0  0
    0.6078    5.3009    0.0000 C   0  0  0  0  0  0  0  0  0  0  0  0
    4.1801    6.5384    0.0000 C   0  0  0  0  0  0  0  0  0  0  0  0
    3.4656    6.9509    0.0000 C   0  0  0  0  0  0  0  0  0  0  0  0
    4.1801    5.7134    0.0000 C   0  0  0  0  0  0  0  0  0  0  0  0
  1 30  1  0  0  0  0
  2  7  2  0  0  0  0
  2  8  2  0  0  0  0
  2  9  1  0  0  0  0
  2 13  1  0  0  0  0
  3 11  1  0  0  0  0
  3 19  1  0  0  0  0
  4 15  1  0  0  0  0
  5 16  1  0  0  0  0
  6 14  1  0  0  0  0
  6 22  1  0  0  0  0
  9 19  1  0  0  0  0
 10 19  2  0  0  0  0
 10 26  1  0  0  0  0
 11 26  2  0  0  0  0
 12 24  1  0  0  0  0
 12 29  1  0  0  0  0
 13 17  2  0  0  0  0
 13 18  1  0  0  0  0
 14 15  2  0  0  0  0
 14 16  1  0  0  0  0
 15 17  1  0  0  0  0
 16 18  2  0  0  0  0
 20 21  1  0  0  0  0
 20 22  1  0  0  0  0
 20 24  1  0  0  0  0
 21 23  1  0  0  0  0
 21 25  1  0  0  0  0
 23 27  2  0  0  0  0
 23 28  1  0  0  0  0
 25 29  1  0  0  0  0
 27 31  1  0  0  0  0
 28 32  2  0  0  0  0
 30 31  2  0  0  0  0
 30 32  1  0  0  0  0
M  END
> <PUBCHEM_COMPOUND_ID_TYPE>
0

> <PUBCHEM_TOTAL_CHARGE>
0

> <PUBCHEM_SUBSTANCE_ID>
310931146

> <PUBCHEM_SUBSTANCE_VERSION>
1

> <PUBCHEM_EXT_DATASOURCE_NAME>
4488

> <PUBCHEM_EXT_DATASOURCE_REGID>
SCHEMBL16108451

> <PUBCHEM_SUBSTANCE_COMMENT>
InChI=1S/C20H19ClF2N4O3S2/c21-14-3-1-12(2-4-14)16-5-6-24-9-13(16)10-30-19-17(22)7-15(8-18(19)23)32(28,29)27-20-25-11-26-31-20/h1-4,7-8,11,13,16,24H,5-6,9-10H2,(H,25,26,27)
InChIKey=AIMQEUIPEMHQBY-UHFFFAOYSA-N

> <PUBCHEM_SUBSTANCE_SYNONYM>
SCHEMBL16108451

> <PUBCHEM_XREF_EXT_ID>
SCHEMBL16108451

> <PUBCHEM_EXT_DATASOURCE_URL>
https://www.surechembl.org/

> <PUBCHEM_EXT_SUBSTANCE_URL>
https://www.surechembl.org/chemical/SCHEMBL16108451

> <PUBCHEM_CID_ASSOCIATIONS>
78111429  1

> <PUBCHEM_COORDINATE_TYPE>
1
3

$$$$
