310932917
  -OEChem-07211613022D

 24 26  0     1  0  0  0  0  0999 V2000
    3.5359   -1.6265    0.0000 O   0  0  0  0  0  0  0  0  0  0  0  0
    4.6674   -3.5830    0.0000 O   0  0  0  0  0  0  0  0  0  0  0  0
    5.3746   -2.3337    0.0000 O   0  0  0  0  0  0  0  0  0  0  0  0
    0.7779    0.0000    0.0000 O   0  0  0  0  0  0  0  0  0  0  0  0
    3.1351   -2.3337    0.0000 C   0  0  3  0  0  0  0  0  0  0  0  0
    3.9602   -2.3337    0.0000 C   0  0  3  0  0  0  0  0  0  0  0  0
    2.5458   -1.7444    0.0000 C   0  0  0  0  0  0  0  0  0  0  0  0
    2.4044   -2.7580    0.0000 C   0  0  0  0  0  0  0  0  0  0  0  0
    4.6674   -2.7580    0.0000 C   0  0  0  0  0  0  0  0  0  0  0  0
    1.7444   -1.9801    0.0000 C   0  0  0  0  0  0  0  0  0  0  0  0
    2.7580   -0.9665    0.0000 C   0  0  0  0  0  0  0  0  0  0  0  0
    2.4044   -3.5830    0.0000 C   0  0  0  0  0  0  0  0  0  0  0  0
    1.6972   -2.3572    0.0000 C   0  0  0  0  0  0  0  0  0  0  0  0
    1.1551   -1.3908    0.0000 C   0  0  0  0  0  0  0  0  0  0  0  0
    2.1687   -0.3772    0.0000 C   0  0  0  0  0  0  0  0  0  0  0  0
    5.3746   -3.9838    0.0000 C   0  0  0  0  0  0  0  0  0  0  0  0
    1.3672   -0.5893    0.0000 C   0  0  0  0  0  0  0  0  0  0  0  0
    1.6972   -4.0074    0.0000 C   0  0  0  0  0  0  0  0  0  0  0  0
    0.9900   -2.7580    0.0000 C   0  0  0  0  0  0  0  0  0  0  0  0
    0.9900   -3.5830    0.0000 C   0  0  0  0  0  0  0  0  0  0  0  0
    4.9503   -4.7146    0.0000 C   0  0  0  0  0  0  0  0  0  0  0  0
    6.0818   -4.3845    0.0000 C   0  0  0  0  0  0  0  0  0  0  0  0
    5.7753   -3.2766    0.0000 C   0  0  0  0  0  0  0  0  0  0  0  0
    0.0000   -0.2121    0.0000 C   0  0  0  0  0  0  0  0  0  0  0  0
  1  5  1  0  0  0  0
  1  6  1  0  0  0  0
  2  9  1  0  0  0  0
  2 16  1  0  0  0  0
  3  9  2  0  0  0  0
  4 17  1  0  0  0  0
  4 24  1  0  0  0  0
  5  6  1  0  0  0  0
  5  7  1  0  0  0  0
  5  8  1  0  0  0  0
  6  9  1  0  0  0  0
  7 10  2  0  0  0  0
  7 11  1  0  0  0  0
  8 12  2  0  0  0  0
  8 13  1  0  0  0  0
 10 14  1  0  0  0  0
 11 15  2  0  0  0  0
 12 18  1  0  0  0  0
 13 19  2  0  0  0  0
 14 17  2  0  0  0  0
 15 17  1  0  0  0  0
 16 21  1  0  0  0  0
 16 22  1  0  0  0  0
 16 23  1  0  0  0  0
 18 20  2  0  0  0  0
 19 20  1  0  0  0  0
M  END
> <PUBCHEM_COMPOUND_ID_TYPE>
0

> <PUBCHEM_TOTAL_CHARGE>
0

> <PUBCHEM_SUBSTANCE_ID>
310932917

> <PUBCHEM_SUBSTANCE_VERSION>
1

> <PUBCHEM_EXT_DATASOURCE_NAME>
4488

> <PUBCHEM_EXT_DATASOURCE_REGID>
SCHEMBL16110311

> <PUBCHEM_SUBSTANCE_COMMENT>
InChI=1S/C20H22O4/c1-19(2,3)24-18(21)17-20(23-17,14-8-6-5-7-9-14)15-10-12-16(22-4)13-11-15/h5-13,17H,1-4H3
InChIKey=JTBPFWHQAAXRHC-UHFFFAOYSA-N

> <PUBCHEM_SUBSTANCE_SYNONYM>
SCHEMBL16110311

> <PUBCHEM_XREF_EXT_ID>
SCHEMBL16110311

> <PUBCHEM_EXT_DATASOURCE_URL>
https://www.surechembl.org/

> <PUBCHEM_EXT_SUBSTANCE_URL>
https://www.surechembl.org/chemical/SCHEMBL16110311

> <PUBCHEM_CID_ASSOCIATIONS>
117601398  1

> <PUBCHEM_COORDINATE_TYPE>
1
3

$$$$
