310930484
  -OEChem-07211613022D

 33 36  0     1  0  0  0  0  0999 V2000
    6.3235    2.8259    0.0000 S   0  0  0  0  0  0  0  0  0  0  0  0
    6.3706    1.1035    0.0000 S   0  0  0  0  0  0  0  0  0  0  0  0
    4.8946    2.0009    0.0000 F   0  0  0  0  0  0  0  0  0  0  0  0
    4.8946    5.3009    0.0000 F   0  0  0  0  0  0  0  0  0  0  0  0
    3.4656    7.7759    0.0000 F   0  0  0  0  0  0  0  0  0  0  0  0
    4.8946    6.9509    0.0000 F   0  0  0  0  0  0  0  0  0  0  0  0
    3.4656    4.4759    0.0000 O   0  0  0  0  0  0  0  0  0  0  0  0
    5.9110    2.1114    0.0000 O   0  0  0  0  0  0  0  0  0  0  0  0
    6.7360    3.5404    0.0000 O   0  0  0  0  0  0  0  0  0  0  0  0
    7.0380    2.4134    0.0000 N   0  0  0  0  0  0  0  0  0  0  0  0
    7.7054    1.1035    0.0000 N   0  0  0  0  0  0  0  0  0  0  0  0
    6.6255    0.3188    0.0000 N   0  0  0  0  0  0  0  0  0  0  0  0
    0.6078    4.4759    0.0000 N   0  0  0  0  0  0  0  0  0  0  0  0
    5.6091    3.2384    0.0000 C   0  0  0  0  0  0  0  0  0  0  0  0
    4.8946    2.8259    0.0000 C   0  0  0  0  0  0  0  0  0  0  0  0
    4.1801    4.0634    0.0000 C   0  0  0  0  0  0  0  0  0  0  0  0
    5.6091    4.0634    0.0000 C   0  0  0  0  0  0  0  0  0  0  0  0
    4.8946    4.4759    0.0000 C   0  0  0  0  0  0  0  0  0  0  0  0
    4.1801    3.2384    0.0000 C   0  0  0  0  0  0  0  0  0  0  0  0
    7.0380    1.5884    0.0000 C   0  0  0  0  0  0  0  0  0  0  0  0
    2.0367    5.3009    0.0000 C   0  0  3  0  0  0  0  0  0  0  0  0
    2.0367    4.4759    0.0000 C   0  0  3  0  0  0  0  0  0  0  0  0
    2.7512    5.7134    0.0000 C   0  0  0  0  0  0  0  0  0  0  0  0
    2.7512    4.0634    0.0000 C   0  0  0  0  0  0  0  0  0  0  0  0
    2.7512    6.5384    0.0000 C   0  0  0  0  0  0  0  0  0  0  0  0
    1.3222    5.7134    0.0000 C   0  0  0  0  0  0  0  0  0  0  0  0
    1.3222    4.0634    0.0000 C   0  0  0  0  0  0  0  0  0  0  0  0
    3.4656    5.3009    0.0000 C   0  0  0  0  0  0  0  0  0  0  0  0
    3.4656    6.9509    0.0000 C   0  0  0  0  0  0  0  0  0  0  0  0
    4.1801    6.5384    0.0000 C   0  0  0  0  0  0  0  0  0  0  0  0
    7.4505    0.3188    0.0000 C   0  0  0  0  0  0  0  0  0  0  0  0
    4.1801    5.7134    0.0000 C   0  0  0  0  0  0  0  0  0  0  0  0
    0.6078    5.3009    0.0000 C   0  0  0  0  0  0  0  0  0  0  0  0
  1  8  2  0  0  0  0
  1  9  2  0  0  0  0
  1 10  1  0  0  0  0
  1 14  1  0  0  0  0
  2 12  1  0  0  0  0
  2 20  1  0  0  0  0
  3 15  1  0  0  0  0
  4 18  1  0  0  0  0
  5 29  1  0  0  0  0
  6 30  1  0  0  0  0
  7 16  1  0  0  0  0
  7 24  1  0  0  0  0
 10 20  1  0  0  0  0
 11 20  2  0  0  0  0
 11 31  1  0  0  0  0
 12 31  2  0  0  0  0
 13 27  1  0  0  0  0
 13 33  1  0  0  0  0
 14 15  2  0  0  0  0
 14 17  1  0  0  0  0
 15 19  1  0  0  0  0
 16 18  1  0  0  0  0
 16 19  2  0  0  0  0
 17 18  2  0  0  0  0
 21 22  1  0  0  0  0
 21 23  1  0  0  0  0
 21 26  1  0  0  0  0
 22 24  1  0  0  0  0
 22 27  1  0  0  0  0
 23 25  2  0  0  0  0
 23 28  1  0  0  0  0
 25 29  1  0  0  0  0
 26 33  1  0  0  0  0
 28 32  2  0  0  0  0
 29 30  2  0  0  0  0
 30 32  1  0  0  0  0
M  END
> <PUBCHEM_COMPOUND_ID_TYPE>
0

> <PUBCHEM_TOTAL_CHARGE>
0

> <PUBCHEM_SUBSTANCE_ID>
310930484

> <PUBCHEM_SUBSTANCE_VERSION>
1

> <PUBCHEM_EXT_DATASOURCE_NAME>
4488

> <PUBCHEM_EXT_DATASOURCE_REGID>
SCHEMBL16107774

> <PUBCHEM_SUBSTANCE_COMMENT>
InChI=1S/C20H18F4N4O3S2/c21-14-2-1-11(5-15(14)22)13-3-4-25-8-12(13)9-31-18-6-17(24)19(7-16(18)23)33(29,30)28-20-26-10-27-32-20/h1-2,5-7,10,12-13,25H,3-4,8-9H2,(H,26,27,28)
InChIKey=PMQFDCUYRHLMLM-UHFFFAOYSA-N

> <PUBCHEM_SUBSTANCE_SYNONYM>
SCHEMBL16107774

> <PUBCHEM_XREF_EXT_ID>
SCHEMBL16107774

> <PUBCHEM_EXT_DATASOURCE_URL>
https://www.surechembl.org/

> <PUBCHEM_EXT_SUBSTANCE_URL>
https://www.surechembl.org/chemical/SCHEMBL16107774

> <PUBCHEM_CID_ASSOCIATIONS>
78111253  1

> <PUBCHEM_COORDINATE_TYPE>
1
3

$$$$
