310939434
  -OEChem-07211613022D

 20 21  0     1  0  0  0  0  0999 V2000
   -2.2940    9.2521    0.0000 O   0  0  0  0  0  0  0  0  0  0  0  0
   -1.5795   10.4896    0.0000 C   0  0  0  0  0  0  0  0  0  0  0  0
   -1.5795   12.1396    0.0000 C   0  0  0  0  0  0  0  0  0  0  0  0
   -2.2940    8.4271    0.0000 C   0  0  0  0  0  0  0  0  0  0  0  0
   -0.8650   10.9021    0.0000 C   0  0  0  0  0  0  0  0  0  0  0  0
   -2.2940   10.9021    0.0000 C   0  0  0  0  0  0  0  0  0  0  0  0
   -0.8650   11.7271    0.0000 C   0  0  0  0  0  0  0  0  0  0  0  0
   -2.2940   11.7271    0.0000 C   0  0  0  0  0  0  0  0  0  0  0  0
   -1.5795    9.6646    0.0000 C   0  0  0  0  0  0  0  0  0  0  0  0
   -1.5809   12.9646    0.0000 C   0  0  3  0  0  0  0  0  0  0  0  0
   -2.2940    6.7771    0.0000 C   0  0  0  0  0  0  0  0  0  0  0  0
   -1.5795    8.0146    0.0000 C   0  0  0  0  0  0  0  0  0  0  0  0
   -3.0084    8.0146    0.0000 C   0  0  0  0  0  0  0  0  0  0  0  0
   -1.5795    7.1896    0.0000 C   0  0  0  0  0  0  0  0  0  0  0  0
   -3.0084    7.1896    0.0000 C   0  0  0  0  0  0  0  0  0  0  0  0
   -2.6575   12.9646    0.0000 C   0  0  0  0  0  0  0  0  0  0  0  0
   -2.2940    5.9521    0.0000 C   0  0  0  0  0  0  0  0  0  0  0  0
   -0.4077   12.9646    0.0000 C   0  0  0  0  0  0  0  0  0  0  0  0
   -3.4825   12.9646    0.0000 C   0  0  0  0  0  0  0  0  0  0  0  0
   -1.5795    5.5396    0.0000 C   0  0  0  0  0  0  0  0  0  0  0  0
  1  4  1  0  0  0  0
  1  9  1  0  0  0  0
  2  5  2  0  0  0  0
  2  6  1  0  0  0  0
  2  9  1  0  0  0  0
  3  7  2  0  0  0  0
  3  8  1  0  0  0  0
  3 10  1  0  0  0  0
  4 12  2  0  0  0  0
  4 13  1  0  0  0  0
  5  7  1  0  0  0  0
  6  8  2  0  0  0  0
 10 16  1  0  0  0  0
 10 18  1  0  0  0  0
 11 14  2  0  0  0  0
 11 15  1  0  0  0  0
 11 17  1  0  0  0  0
 12 14  1  0  0  0  0
 13 15  2  0  0  0  0
 16 19  1  0  0  0  0
 17 20  2  0  0  0  0
M  END
> <PUBCHEM_COMPOUND_ID_TYPE>
0

> <PUBCHEM_TOTAL_CHARGE>
0

> <PUBCHEM_SUBSTANCE_ID>
310939434

> <PUBCHEM_SUBSTANCE_VERSION>
1

> <PUBCHEM_EXT_DATASOURCE_NAME>
4488

> <PUBCHEM_EXT_DATASOURCE_REGID>
SCHEMBL16117356

> <PUBCHEM_SUBSTANCE_COMMENT>
InChI=1S/C19H22O/c1-4-15(3)18-10-6-17(7-11-18)14-20-19-12-8-16(5-2)9-13-19/h5-13,15H,2,4,14H2,1,3H3
InChIKey=LKAOTTJROQIZNT-UHFFFAOYSA-N

> <PUBCHEM_SUBSTANCE_SYNONYM>
SCHEMBL16117356

> <PUBCHEM_XREF_EXT_ID>
SCHEMBL16117356

> <PUBCHEM_EXT_DATASOURCE_URL>
https://www.surechembl.org/

> <PUBCHEM_EXT_SUBSTANCE_URL>
https://www.surechembl.org/chemical/SCHEMBL16117356

> <PUBCHEM_CID_ASSOCIATIONS>
117606758  1

> <PUBCHEM_COORDINATE_TYPE>
1
3

$$$$
