310946599
  -OEChem-07211613022D

 24 23  0     1  0  0  0  0  0999 V2000
   -7.1628  -10.5336    0.0000 S   0  0  0  0  0  0  0  0  0  0  0  0
   -6.4483   -9.2962    0.0000 O   0  0  0  0  0  0  0  0  0  0  0  0
   -7.1628  -13.0086    0.0000 O   0  0  0  0  0  0  0  0  0  0  0  0
   -6.4483  -11.7711    0.0000 O   0  0  0  0  0  0  0  0  0  0  0  0
   -9.2982  -10.9461    0.0000 O   0  0  0  0  0  0  0  0  0  0  0  0
   -7.8773   -9.2962    0.0000 O   0  0  0  0  0  0  0  0  0  0  0  0
  -10.0126  -14.6585    0.0000 O   0  0  0  0  0  0  0  0  0  0  0  0
   -8.5837  -14.6585    0.0000 O   0  5  0  0  0  0  0  0  0  0  0  0
   -9.2982  -13.4211    0.0000 O   0  0  0  0  0  0  0  0  0  0  0  0
   -8.5918  -12.1836    0.0000 N   0  0  0  0  0  0  0  0  0  0  0  0
   -9.2982  -14.2460    0.0000 N   0  3  0  0  0  0  0  0  0  0  0  0
   -7.8773  -11.7711    0.0000 C   0  0  3  0  0  0  0  0  0  0  0  0
   -7.1628  -12.1836    0.0000 C   0  0  0  0  0  0  0  0  0  0  0  0
   -7.8773  -10.9461    0.0000 C   0  0  0  0  0  0  0  0  0  0  0  0
   -9.2982  -11.7711    0.0000 C   0  0  0  0  0  0  0  0  0  0  0  0
   -7.1628   -9.7087    0.0000 C   0  0  0  0  0  0  0  0  0  0  0  0
  -10.0126  -12.1836    0.0000 C   0  0  0  0  0  0  0  0  0  0  0  0
  -10.0126  -13.0086    0.0000 C   0  0  0  0  0  0  0  0  0  0  0  0
  -10.7271  -13.4211    0.0000 C   0  0  0  0  0  0  0  0  0  0  0  0
   -5.7340   -9.7087    0.0000 C   0  0  0  0  0  0  0  0  0  0  0  0
  -10.7271  -14.2460    0.0000 C   0  0  0  0  0  0  0  0  0  0  0  0
   -5.0196   -9.2962    0.0000 C   0  0  0  0  0  0  0  0  0  0  0  0
   -4.3051   -9.7087    0.0000 C   0  0  0  0  0  0  0  0  0  0  0  0
   -3.5907   -9.2962    0.0000 C   0  0  0  0  0  0  0  0  0  0  0  0
  1 14  1  0  0  0  0
  1 16  1  0  0  0  0
  2 16  1  0  0  0  0
  2 20  1  0  0  0  0
  3 13  2  0  0  0  0
  4 13  1  0  0  0  0
  5 15  2  0  0  0  0
  6 16  2  0  0  0  0
  7 11  1  0  0  0  0
  7 21  1  0  0  0  0
  8 11  1  0  0  0  0
  9 11  2  0  0  0  0
 10 12  1  0  0  0  0
 10 15  1  0  0  0  0
 12 13  1  0  0  0  0
 12 14  1  0  0  0  0
 15 17  1  0  0  0  0
 17 18  1  0  0  0  0
 18 19  1  0  0  0  0
 19 21  1  0  0  0  0
 20 22  1  0  0  0  0
 22 23  1  0  0  0  0
 23 24  1  0  0  0  0
M  CHG  2   8  -1  11   1
M  END
> <PUBCHEM_COMPOUND_ID_TYPE>
0

> <PUBCHEM_TOTAL_CHARGE>
0

> <PUBCHEM_SUBSTANCE_ID>
310946599

> <PUBCHEM_SUBSTANCE_VERSION>
1

> <PUBCHEM_EXT_DATASOURCE_NAME>
4488

> <PUBCHEM_EXT_DATASOURCE_REGID>
SCHEMBL16124720

> <PUBCHEM_SUBSTANCE_COMMENT>
InChI=1S/C13H22N2O8S/c1-2-3-7-22-13(19)24-9-10(12(17)18)14-11(16)6-4-5-8-23-15(20)21/h10H,2-9H2,1H3,(H,14,16)(H,17,18)
InChIKey=UJTFBTPZUQWJDN-UHFFFAOYSA-N

> <PUBCHEM_SUBSTANCE_SYNONYM>
SCHEMBL16124720

> <PUBCHEM_XREF_EXT_ID>
SCHEMBL16124720

> <PUBCHEM_EXT_DATASOURCE_URL>
https://www.surechembl.org/

> <PUBCHEM_EXT_SUBSTANCE_URL>
https://www.surechembl.org/chemical/SCHEMBL16124720

> <PUBCHEM_CID_ASSOCIATIONS>
117612499  1

> <PUBCHEM_COORDINATE_TYPE>
1
3

$$$$
