310933051
  -OEChem-07211613022D

 46 51  0     1  0  0  0  0  0999 V2000
    0.0000   -1.2375    0.0000 Cl  0  0  0  0  0  0  0  0  0  0  0  0
    1.4249   -0.4125    0.0000 F   0  0  0  0  0  0  0  0  0  0  0  0
    5.7749   -1.3125    0.0000 O   0  0  0  0  0  0  0  0  0  0  0  0
    6.4873   -1.7250    0.0000 O   0  0  0  0  0  0  0  0  0  0  0  0
    2.1000   -6.6374    0.0000 O   0  0  0  0  0  0  0  0  0  0  0  0
   10.1247   -0.4500    0.0000 O   0  0  0  0  0  0  0  0  0  0  0  0
   10.8372   -1.7250    0.0000 O   0  0  0  0  0  0  0  0  0  0  0  0
    5.0249   -2.5124    0.0000 N   0  0  0  0  0  0  0  0  0  0  0  0
    4.3124   -5.4374    0.0000 N   0  0  0  0  0  0  0  0  0  0  0  0
    7.1998   -2.9625    0.0000 N   0  0  0  0  0  0  0  0  0  0  0  0
    3.5999   -1.6875    0.0000 N   0  0  0  0  0  0  0  0  0  0  0  0
    5.7749   -2.9625    0.0000 C   0  0  3  0  0  0  0  0  0  0  0  0
    5.7749   -3.7874    0.0000 C   0  0  0  0  0  0  0  0  0  0  0  0
    5.0249   -4.1999    0.0000 C   0  0  0  0  0  0  0  0  0  0  0  0
    5.0249   -5.0249    0.0000 C   0  0  0  0  0  0  0  0  0  0  0  0
    5.0249   -1.6875    0.0000 C   0  0  0  0  0  0  0  0  0  0  0  0
    6.4873   -2.5500    0.0000 C   0  0  0  0  0  0  0  0  0  0  0  0
    4.3124   -3.7874    0.0000 C   0  0  0  0  0  0  0  0  0  0  0  0
    4.3124   -2.9625    0.0000 C   0  0  0  0  0  0  0  0  0  0  0  0
    6.4873   -4.1999    0.0000 C   0  0  0  0  0  0  0  0  0  0  0  0
    4.3124   -1.2750    0.0000 C   0  0  0  0  0  0  0  0  0  0  0  0
    5.7373   -5.4749    0.0000 C   0  0  0  0  0  0  0  0  0  0  0  0
    6.4873   -5.0624    0.0000 C   0  0  0  0  0  0  0  0  0  0  0  0
    2.8874   -1.2750    0.0000 C   0  0  0  0  0  0  0  0  0  0  0  0
    2.1375   -1.6875    0.0000 C   0  0  0  0  0  0  0  0  0  0  0  0
    4.3124   -0.4500    0.0000 C   0  0  0  0  0  0  0  0  0  0  0  0
    4.3124   -6.2999    0.0000 C   0  0  0  0  0  0  0  0  0  0  0  0
    3.5999   -5.0249    0.0000 C   0  0  0  0  0  0  0  0  0  0  0  0
    7.9498   -2.5500    0.0000 C   0  0  0  0  0  0  0  0  0  0  0  0
    1.4249   -1.2750    0.0000 C   0  0  0  0  0  0  0  0  0  0  0  0
    2.8874   -0.4125    0.0000 C   0  0  0  0  0  0  0  0  0  0  0  0
    3.6374    0.0000    0.0000 C   0  0  0  0  0  0  0  0  0  0  0  0
    3.5624   -6.6748    0.0000 C   0  0  0  0  0  0  0  0  0  0  0  0
    2.8500   -5.4374    0.0000 C   0  0  0  0  0  0  0  0  0  0  0  0
    2.8500   -6.2623    0.0000 C   0  0  0  0  0  0  0  0  0  0  0  0
    2.1375   -2.5124    0.0000 C   0  0  0  0  0  0  0  0  0  0  0  0
    0.7125   -1.6875    0.0000 C   0  0  0  0  0  0  0  0  0  0  0  0
    7.9498   -1.7250    0.0000 C   0  0  0  0  0  0  0  0  0  0  0  0
    8.6623   -2.9625    0.0000 C   0  0  0  0  0  0  0  0  0  0  0  0
    1.4249   -2.9249    0.0000 C   0  0  0  0  0  0  0  0  0  0  0  0
    0.7125   -2.5124    0.0000 C   0  0  0  0  0  0  0  0  0  0  0  0
    9.3748   -1.7250    0.0000 C   0  0  0  0  0  0  0  0  0  0  0  0
    8.6623   -1.2750    0.0000 C   0  0  0  0  0  0  0  0  0  0  0  0
    9.3748   -2.5500    0.0000 C   0  0  0  0  0  0  0  0  0  0  0  0
   10.1247   -1.2750    0.0000 C   0  0  0  0  0  0  0  0  0  0  0  0
    2.1000   -7.4998    0.0000 C   0  0  0  0  0  0  0  0  0  0  0  0
  1 37  1  0  0  0  0
  2 30  1  0  0  0  0
  3 16  2  0  0  0  0
  4 17  2  0  0  0  0
  5 35  1  0  0  0  0
  5 46  1  0  0  0  0
  6 45  2  0  0  0  0
  7 45  1  0  0  0  0
  8 12  1  0  0  0  0
  8 16  1  0  0  0  0
  8 19  1  0  0  0  0
  9 15  1  0  0  0  0
  9 27  1  0  0  0  0
  9 28  1  0  0  0  0
 10 17  1  0  0  0  0
 10 29  1  0  0  0  0
 11 21  1  0  0  0  0
 11 24  2  0  0  0  0
 12 13  1  0  0  0  0
 12 17  1  0  0  0  0
 13 14  2  0  0  0  0
 13 20  1  0  0  0  0
 14 15  1  0  0  0  0
 14 18  1  0  0  0  0
 15 22  2  0  0  0  0
 16 21  1  0  0  0  0
 18 19  1  0  0  0  0
 20 23  2  0  0  0  0
 21 26  2  0  0  0  0
 22 23  1  0  0  0  0
 24 25  1  0  0  0  0
 24 31  1  0  0  0  0
 25 30  1  0  0  0  0
 25 36  2  0  0  0  0
 26 32  1  0  0  0  0
 27 33  1  0  0  0  0
 28 34  1  0  0  0  0
 29 38  2  0  0  0  0
 29 39  1  0  0  0  0
 30 37  2  0  0  0  0
 31 32  2  0  0  0  0
 33 35  1  0  0  0  0
 34 35  1  0  0  0  0
 36 40  1  0  0  0  0
 37 41  1  0  0  0  0
 38 43  1  0  0  0  0
 39 44  2  0  0  0  0
 40 41  2  0  0  0  0
 42 43  2  0  0  0  0
 42 44  1  0  0  0  0
 42 45  1  0  0  0  0
M  END
> <PUBCHEM_COMPOUND_ID_TYPE>
0

> <PUBCHEM_TOTAL_CHARGE>
0

> <PUBCHEM_SUBSTANCE_ID>
310933051

> <PUBCHEM_SUBSTANCE_VERSION>
1

> <PUBCHEM_EXT_DATASOURCE_NAME>
4488

> <PUBCHEM_EXT_DATASOURCE_REGID>
SCHEMBL16110452

> <PUBCHEM_SUBSTANCE_COMMENT>
InChI=1S/C35H32ClFN4O5/c1-46-23-15-18-40(19-16-23)30-10-3-5-25-24(30)17-20-41(32(25)33(42)38-22-13-11-21(12-14-22)35(44)45)34(43)29-9-4-8-28(39-29)26-6-2-7-27(36)31(26)37/h2-14,23,32H,15-20H2,1H3,(H,38,42)(H,44,45)
InChIKey=MOWBZALNHWFSAX-UHFFFAOYSA-N

> <PUBCHEM_SUBSTANCE_SYNONYM>
SCHEMBL16110452

> <PUBCHEM_XREF_EXT_ID>
SCHEMBL16110452

> <PUBCHEM_EXT_DATASOURCE_URL>
https://www.surechembl.org/

> <PUBCHEM_EXT_SUBSTANCE_URL>
https://www.surechembl.org/chemical/SCHEMBL16110452

> <PUBCHEM_CID_ASSOCIATIONS>
117601512  1

> <PUBCHEM_COORDINATE_TYPE>
1
3

$$$$
