310936226
  -OEChem-07211613022D

 31 33  0     1  0  0  0  0  0999 V2000
    2.4238   -1.2223    0.0000 S   0  0  0  0  0  0  0  0  0  0  0  0
    1.7195    0.0000    0.0000 F   0  0  0  0  0  0  0  0  0  0  0  0
    0.9944   -1.2430    0.0000 F   0  0  0  0  0  0  0  0  0  0  0  0
    2.4238   -0.3936    0.0000 F   0  0  0  0  0  0  0  0  0  0  0  0
    3.1490   -1.6366    0.0000 O   0  0  0  0  0  0  0  0  0  0  0  0
    4.5577   -1.6366    0.0000 O   0  0  0  0  0  0  0  0  0  0  0  0
    2.8175   -0.5179    0.0000 O   0  0  0  0  0  0  0  0  0  0  0  0
    2.0095   -1.9474    0.0000 O   0  0  0  0  0  0  0  0  0  0  0  0
    5.2620   -3.6876    0.0000 O   0  0  0  0  0  0  0  0  0  0  0  0
    5.9664   -2.4653    0.0000 O   0  0  0  0  0  0  0  0  0  0  0  0
    2.4031   -3.7290    0.0000 N   0  0  0  0  0  0  0  0  0  0  0  0
    1.6574   -3.9569    0.0000 N   0  0  0  0  0  0  0  0  0  0  0  0
    2.3824   -2.8796    0.0000 C   0  0  0  0  0  0  0  0  0  0  0  0
    3.1490   -2.4653    0.0000 C   0  0  0  0  0  0  0  0  0  0  0  0
    3.8326   -2.8589    0.0000 C   0  0  0  0  0  0  0  0  0  0  0  0
    1.6366   -2.6517    0.0000 C   0  0  0  0  0  0  0  0  0  0  0  0
    1.1187   -3.3147    0.0000 C   0  0  0  0  0  0  0  0  0  0  0  0
    3.8533   -3.7083    0.0000 C   0  0  0  0  0  0  0  0  0  0  0  0
    4.5577   -2.4653    0.0000 C   0  0  3  0  0  0  0  0  0  0  0  0
    3.1490   -4.1434    0.0000 C   0  0  0  0  0  0  0  0  0  0  0  0
    1.7195   -0.8286    0.0000 C   0  0  0  0  0  0  0  0  0  0  0  0
    1.2637   -1.9059    0.0000 C   0  0  0  0  0  0  0  0  0  0  0  0
    0.3315   -3.2318    0.0000 C   0  0  0  0  0  0  0  0  0  0  0  0
    5.2620   -2.8589    0.0000 C   0  0  0  0  0  0  0  0  0  0  0  0
    4.5577   -4.1019    0.0000 C   0  0  0  0  0  0  0  0  0  0  0  0
    0.4765   -1.8231    0.0000 C   0  0  0  0  0  0  0  0  0  0  0  0
    3.8533   -1.2223    0.0000 C   0  0  0  0  0  0  0  0  0  0  0  0
    0.0000   -2.4860    0.0000 C   0  0  0  0  0  0  0  0  0  0  0  0
    3.1490   -0.7872    0.0000 C   0  0  0  0  0  0  0  0  0  0  0  0
    4.2677   -0.4972    0.0000 C   0  0  0  0  0  0  0  0  0  0  0  0
    3.4182   -1.9059    0.0000 C   0  0  0  0  0  0  0  0  0  0  0  0
  1  5  1  0  0  0  0
  1  7  2  0  0  0  0
  1  8  2  0  0  0  0
  1 21  1  0  0  0  0
  2 21  1  0  0  0  0
  3 21  1  0  0  0  0
  4 21  1  0  0  0  0
  5 14  1  0  0  0  0
  6 19  1  0  0  0  0
  6 27  1  0  0  0  0
  9 24  2  0  0  0  0
 10 24  1  0  0  0  0
 11 12  1  0  0  0  0
 11 13  1  0  0  0  0
 11 20  1  0  0  0  0
 12 17  2  0  0  0  0
 13 14  1  0  0  0  0
 13 16  2  0  0  0  0
 14 15  2  0  0  0  0
 15 18  1  0  0  0  0
 15 19  1  0  0  0  0
 16 17  1  0  0  0  0
 16 22  1  0  0  0  0
 17 23  1  0  0  0  0
 18 20  2  0  0  0  0
 18 25  1  0  0  0  0
 19 24  1  0  0  0  0
 22 26  2  0  0  0  0
 23 28  2  0  0  0  0
 26 28  1  0  0  0  0
 27 29  1  0  0  0  0
 27 30  1  0  0  0  0
 27 31  1  0  0  0  0
M  END
> <PUBCHEM_COMPOUND_ID_TYPE>
0

> <PUBCHEM_TOTAL_CHARGE>
0

> <PUBCHEM_SUBSTANCE_ID>
310936226

> <PUBCHEM_SUBSTANCE_VERSION>
1

> <PUBCHEM_EXT_DATASOURCE_NAME>
4488

> <PUBCHEM_EXT_DATASOURCE_REGID>
SCHEMBL16113839

> <PUBCHEM_SUBSTANCE_COMMENT>
InChI=1S/C19H19F3N2O6S/c1-10-9-24-14(11-7-5-6-8-12(11)23-24)15(30-31(27,28)19(20,21)22)13(10)16(17(25)26)29-18(2,3)4/h5-9,16H,1-4H3,(H,25,26)
InChIKey=PCWTXVOGVIVYIW-UHFFFAOYSA-N

> <PUBCHEM_SUBSTANCE_SYNONYM>
SCHEMBL16113839

> <PUBCHEM_XREF_EXT_ID>
SCHEMBL16113839

> <PUBCHEM_EXT_DATASOURCE_URL>
https://www.surechembl.org/

> <PUBCHEM_EXT_SUBSTANCE_URL>
https://www.surechembl.org/chemical/SCHEMBL16113839

> <PUBCHEM_CID_ASSOCIATIONS>
117604179  1

> <PUBCHEM_COORDINATE_TYPE>
1
3

$$$$
