310934084
  -OEChem-07211613022D

 24 27  0     1  0  0  0  0  0999 V2000
    0.5756   -1.0984    0.0000 O   0  0  0  0  0  0  0  0  0  0  0  0
   -1.7047   -0.4323    0.0000 O   0  0  0  0  0  0  0  0  0  0  0  0
   -1.3133   -0.1434    0.0000 N   0  0  0  0  0  0  0  0  0  0  0  0
    0.0143   -0.2830    0.0000 N   0  0  0  0  0  0  0  0  0  0  0  0
   -0.0548    0.9669    0.0000 N   0  0  0  0  0  0  0  0  0  0  0  0
   -1.1418   -0.9504    0.0000 C   0  0  3  0  0  0  0  0  0  0  0  0
   -1.1418   -1.7754    0.0000 C   0  0  0  0  0  0  0  0  0  0  0  0
   -1.9623   -1.0366    0.0000 C   0  0  0  0  0  0  0  0  0  0  0  0
   -0.3213   -1.0366    0.0000 C   0  0  0  0  0  0  0  0  0  0  0  0
   -0.5988    0.2691    0.0000 C   0  0  0  0  0  0  0  0  0  0  0  0
   -2.0670    0.1921    0.0000 C   0  0  0  0  0  0  0  0  0  0  0  0
   -0.7293   -2.4899    0.0000 C   0  0  0  0  0  0  0  0  0  0  0  0
   -1.5543   -2.4899    0.0000 C   0  0  0  0  0  0  0  0  0  0  0  0
   -0.8150   -0.8250    0.0000 C   0  0  0  0  0  0  0  0  0  0  0  0
   -2.2978   -1.7903    0.0000 C   0  0  0  0  0  0  0  0  0  0  0  0
   -2.7344   -0.2928    0.0000 C   0  0  0  0  0  0  0  0  0  0  0  0
   -2.1532    1.0126    0.0000 C   0  0  0  0  0  0  0  0  0  0  0  0
   -0.6569   -1.6178    0.0000 C   0  0  0  0  0  0  0  0  0  0  0  0
   -1.9218   -2.4996    0.0000 C   0  0  0  0  0  0  0  0  0  0  0  0
   -0.9924   -2.3715    0.0000 C   0  0  0  0  0  0  0  0  0  0  0  0
   -3.4881    0.0428    0.0000 C   0  0  0  0  0  0  0  0  0  0  0  0
   -2.9069    1.3482    0.0000 C   0  0  0  0  0  0  0  0  0  0  0  0
   -3.5743    0.8632    0.0000 C   0  0  0  0  0  0  0  0  0  0  0  0
   -1.4076    0.5172    0.0000 C   0  0  0  0  0  0  0  0  0  0  0  0
  1  9  2  0  0  0  0
  2 14  1  0  0  0  0
  2 24  1  0  0  0  0
  3  6  1  0  0  0  0
  3 10  1  0  0  0  0
  3 11  1  0  0  0  0
  4  9  1  0  0  0  0
  4 10  1  0  0  0  0
  5 10  2  3  0  0  0
  6  7  1  0  0  0  0
  6  8  1  0  0  0  0
  6  9  1  0  0  0  0
  7 12  1  0  0  0  0
  7 13  1  0  0  0  0
  8 14  2  0  0  0  0
  8 15  1  0  0  0  0
 11 16  1  0  0  0  0
 11 17  1  0  0  0  0
 12 13  1  0  0  0  0
 14 18  1  0  0  0  0
 15 19  2  0  0  0  0
 16 21  1  0  0  0  0
 17 22  1  0  0  0  0
 18 20  2  0  0  0  0
 19 20  1  0  0  0  0
 21 23  1  0  0  0  0
 22 23  1  0  0  0  0
M  END
> <PUBCHEM_COMPOUND_ID_TYPE>
0

> <PUBCHEM_TOTAL_CHARGE>
0

> <PUBCHEM_SUBSTANCE_ID>
310934084

> <PUBCHEM_SUBSTANCE_VERSION>
1

> <PUBCHEM_EXT_DATASOURCE_NAME>
4488

> <PUBCHEM_EXT_DATASOURCE_REGID>
SCHEMBL16111530

> <PUBCHEM_SUBSTANCE_COMMENT>
InChI=1S/C19H25N3O2/c1-24-16-10-6-5-9-15(16)19(13-11-12-13)17(23)21-18(20)22(19)14-7-3-2-4-8-14/h5-6,9-10,13-14H,2-4,7-8,11-12H2,1H3,(H2,20,21,23)
InChIKey=NSQYHQYFJOGWDV-UHFFFAOYSA-N

> <PUBCHEM_SUBSTANCE_SYNONYM>
SCHEMBL16111530

> <PUBCHEM_XREF_EXT_ID>
SCHEMBL16111530

> <PUBCHEM_EXT_DATASOURCE_URL>
https://www.surechembl.org/

> <PUBCHEM_EXT_SUBSTANCE_URL>
https://www.surechembl.org/chemical/SCHEMBL16111530

> <PUBCHEM_CID_ASSOCIATIONS>
117602369  1

> <PUBCHEM_COORDINATE_TYPE>
1
3

$$$$
