310941641
  -OEChem-07211613022D

 36 39  0     1  0  0  0  0  0999 V2000
   -2.4714    1.0421    0.0000 S   0  0  0  0  0  0  0  0  0  0  0  0
   -1.6476   -1.8759    0.0000 F   0  0  0  0  0  0  0  0  0  0  0  0
   -0.2283   -1.8659    0.0000 F   0  0  0  0  0  0  0  0  0  0  0  0
   -0.9429   -2.2828    0.0000 F   0  0  0  0  0  0  0  0  0  0  0  0
   -0.2481    2.2828    0.0000 O   0  0  0  0  0  0  0  0  0  0  0  0
    1.1811    0.6253    0.0000 O   0  0  0  0  0  0  0  0  0  0  0  0
    0.4764   -0.6154    0.0000 N   0  0  0  0  0  0  0  0  0  0  0  0
   -1.6674    2.2828    0.0000 N   0  0  0  0  0  0  0  0  0  0  0  0
    2.6103   -0.1985    0.0000 N   0  0  0  0  0  0  0  0  0  0  0  0
   -3.1265    2.2034    0.0000 N   0  0  0  0  0  0  0  0  0  0  0  0
   -3.6823    1.5881    0.0000 N   0  0  0  0  0  0  0  0  0  0  0  0
    4.0296    0.6253    0.0000 N   0  0  0  0  0  0  0  0  0  0  0  0
   -0.9429   -0.5955    0.0000 C   0  0  0  0  0  0  0  0  0  0  0  0
   -0.2481   -0.1687    0.0000 C   0  0  0  0  0  0  0  0  0  0  0  0
   -0.9528   -1.4491    0.0000 C   0  0  0  0  0  0  0  0  0  0  0  0
   -0.9528    1.0620    0.0000 C   0  0  0  0  0  0  0  0  0  0  0  0
   -0.2481    0.6452    0.0000 C   0  0  0  0  0  0  0  0  0  0  0  0
   -1.6576   -0.1786    0.0000 C   0  0  0  0  0  0  0  0  0  0  0  0
   -0.9627    1.8858    0.0000 C   0  0  0  0  0  0  0  0  0  0  0  0
   -1.6576    0.6551    0.0000 C   0  0  0  0  0  0  0  0  0  0  0  0
    1.1811   -0.1985    0.0000 C   0  0  0  0  0  0  0  0  0  0  0  0
   -2.3820    1.8957    0.0000 C   0  0  0  0  0  0  0  0  0  0  0  0
   -3.2654    0.9032    0.0000 C   0  0  0  0  0  0  0  0  0  0  0  0
    1.9056   -0.5955    0.0000 C   0  0  3  0  0  0  0  0  0  0  0  0
   -3.6029    0.1290    0.0000 C   0  0  0  0  0  0  0  0  0  0  0  0
    3.3052   -0.5955    0.0000 C   0  0  0  0  0  0  0  0  0  0  0  0
    2.6203    0.6452    0.0000 C   0  0  0  0  0  0  0  0  0  0  0  0
   -4.4267    0.0298    0.0000 C   0  0  0  0  0  0  0  0  0  0  0  0
   -3.1265   -0.5260    0.0000 C   0  0  0  0  0  0  0  0  0  0  0  0
    1.9056   -1.4491    0.0000 C   0  0  0  0  0  0  0  0  0  0  0  0
    4.0296   -0.1786    0.0000 C   0  0  0  0  0  0  0  0  0  0  0  0
    3.3052    1.0521    0.0000 C   0  0  0  0  0  0  0  0  0  0  0  0
   -4.7443   -0.7246    0.0000 C   0  0  0  0  0  0  0  0  0  0  0  0
   -3.4441   -1.2903    0.0000 C   0  0  0  0  0  0  0  0  0  0  0  0
   -4.2679   -1.3796    0.0000 C   0  0  0  0  0  0  0  0  0  0  0  0
    4.7443    1.0421    0.0000 C   0  0  0  0  0  0  0  0  0  0  0  0
  1 22  1  0  0  0  0
  1 23  1  0  0  0  0
  2 15  1  0  0  0  0
  3 15  1  0  0  0  0
  4 15  1  0  0  0  0
  5 19  2  0  0  0  0
  6 21  2  0  0  0  0
  7 14  1  0  0  0  0
  7 21  1  0  0  0  0
  8 19  1  0  0  0  0
  8 22  1  0  0  0  0
  9 24  1  0  0  0  0
  9 26  1  0  0  0  0
  9 27  1  0  0  0  0
 10 11  1  0  0  0  0
 10 22  2  0  0  0  0
 11 23  2  0  0  0  0
 12 31  1  0  0  0  0
 12 32  1  0  0  0  0
 12 36  1  0  0  0  0
 13 14  2  0  0  0  0
 13 15  1  0  0  0  0
 13 18  1  0  0  0  0
 14 17  1  0  0  0  0
 16 17  2  0  0  0  0
 16 19  1  0  0  0  0
 16 20  1  0  0  0  0
 18 20  2  0  0  0  0
 21 24  1  0  0  0  0
 23 25  1  0  0  0  0
 24 30  1  0  0  0  0
 25 28  2  0  0  0  0
 25 29  1  0  0  0  0
 26 31  1  0  0  0  0
 27 32  1  0  0  0  0
 28 33  1  0  0  0  0
 29 34  2  0  0  0  0
 33 35  2  0  0  0  0
 34 35  1  0  0  0  0
M  END
> <PUBCHEM_COMPOUND_ID_TYPE>
0

> <PUBCHEM_TOTAL_CHARGE>
0

> <PUBCHEM_SUBSTANCE_ID>
310941641

> <PUBCHEM_SUBSTANCE_VERSION>
1

> <PUBCHEM_EXT_DATASOURCE_NAME>
4488

> <PUBCHEM_EXT_DATASOURCE_REGID>
SCHEMBL16119672

> <PUBCHEM_SUBSTANCE_COMMENT>
InChI=1S/C24H25F3N6O2S/c1-15(33-12-10-32(2)11-13-33)20(34)28-19-14-17(8-9-18(19)24(25,26)27)21(35)29-23-31-30-22(36-23)16-6-4-3-5-7-16/h3-9,14-15H,10-13H2,1-2H3,(H,28,34)(H,29,31,35)
InChIKey=RDJNTVVRRTZZNI-UHFFFAOYSA-N

> <PUBCHEM_SUBSTANCE_SYNONYM>
SCHEMBL16119672

> <PUBCHEM_XREF_EXT_ID>
SCHEMBL16119672

> <PUBCHEM_EXT_DATASOURCE_URL>
https://www.surechembl.org/

> <PUBCHEM_EXT_SUBSTANCE_URL>
https://www.surechembl.org/chemical/SCHEMBL16119672

> <PUBCHEM_CID_ASSOCIATIONS>
117608427  1

> <PUBCHEM_COORDINATE_TYPE>
1
3

$$$$
