310947638
  -OEChem-07211613022D

 27 26  0     1  0  0  0  0  0999 V2000
   -2.2537   -0.6924    0.0000 S   0  0  0  0  0  0  0  0  0  0  0  0
   -2.9680   -0.2799    0.0000 S   0  0  0  0  0  0  0  0  0  0  0  0
   -0.1105    0.5450    0.0000 O   0  0  0  0  0  0  0  0  0  0  0  0
    4.9924    1.0164    0.0000 O   0  0  0  0  0  0  0  0  0  0  0  0
   -5.1112   -1.5174    0.0000 O   0  0  0  0  0  0  0  0  0  0  0  0
   -6.0134   -0.1695    0.0000 O   0  0  0  0  0  0  0  0  0  0  0  0
    3.3595    1.0164    0.0000 O   0  0  0  0  0  0  0  0  0  0  0  0
    0.6038   -0.6924    0.0000 N   0  0  0  0  0  0  0  0  0  0  0  0
   -0.8248   -1.5174    0.0000 N   0  0  0  0  0  0  0  0  0  0  0  0
   -4.3969    0.5450    0.0000 N   0  0  0  0  0  0  0  0  0  0  0  0
    4.8904   -0.6924    0.0000 N   0  0  0  0  0  0  0  0  0  0  0  0
   -0.8248   -0.6924    0.0000 C   0  0  3  0  0  0  0  0  0  0  0  0
   -0.1105   -0.2799    0.0000 C   0  0  0  0  0  0  0  0  0  0  0  0
   -4.3969   -0.2799    0.0000 C   0  0  3  0  0  0  0  0  0  0  0  0
   -1.5393   -0.2799    0.0000 C   0  0  0  0  0  0  0  0  0  0  0  0
   -5.1112   -0.6924    0.0000 C   0  0  0  0  0  0  0  0  0  0  0  0
   -3.6825   -0.6924    0.0000 C   0  0  0  0  0  0  0  0  0  0  0  0
    4.1759   -0.2799    0.0000 C   0  0  3  0  0  0  0  0  0  0  0  0
    4.1759    0.5450    0.0000 C   0  0  0  0  0  0  0  0  0  0  0  0
    1.3183   -0.2799    0.0000 C   0  0  0  0  0  0  0  0  0  0  0  0
    3.4615   -0.6924    0.0000 C   0  0  0  0  0  0  0  0  0  0  0  0
    2.0327   -0.6924    0.0000 C   0  0  0  0  0  0  0  0  0  0  0  0
    2.7471   -0.2799    0.0000 C   0  0  0  0  0  0  0  0  0  0  0  0
   -1.3479   -2.4305    0.0000 C   0  0  0  0  0  0  0  0  0  0  0  0
    4.9924    1.9590    0.0000 C   0  0  0  0  0  0  0  0  0  0  0  0
   -5.1112    0.9575    0.0000 C   0  0  0  0  0  0  0  0  0  0  0  0
    5.8088    2.4305    0.0000 C   0  0  0  0  0  0  0  0  0  0  0  0
  1  2  1  0  0  0  0
  1 15  1  0  0  0  0
  2 17  1  0  0  0  0
  3 13  2  0  0  0  0
  4 19  1  0  0  0  0
  4 25  1  0  0  0  0
  5 16  2  0  0  0  0
  6 16  1  0  0  0  0
  7 19  2  0  0  0  0
  8 13  1  0  0  0  0
  8 20  1  0  0  0  0
  9 12  1  0  0  0  0
  9 24  1  0  0  0  0
 10 14  1  0  0  0  0
 10 26  1  0  0  0  0
 11 18  1  0  0  0  0
 12 13  1  0  0  0  0
 12 15  1  0  0  0  0
 14 16  1  0  0  0  0
 14 17  1  0  0  0  0
 18 19  1  0  0  0  0
 18 21  1  0  0  0  0
 20 22  1  0  0  0  0
 21 23  1  0  0  0  0
 22 23  1  0  0  0  0
 25 27  1  0  0  0  0
M  END
> <PUBCHEM_COMPOUND_ID_TYPE>
0

> <PUBCHEM_TOTAL_CHARGE>
0

> <PUBCHEM_SUBSTANCE_ID>
310947638

> <PUBCHEM_SUBSTANCE_VERSION>
1

> <PUBCHEM_EXT_DATASOURCE_NAME>
4488

> <PUBCHEM_EXT_DATASOURCE_REGID>
SCHEMBL16125805

> <PUBCHEM_SUBSTANCE_COMMENT>
InChI=1S/C16H32N4O5S2/c1-4-25-16(24)11(17)7-5-6-8-20-14(21)12(18-2)9-26-27-10-13(19-3)15(22)23/h11-13,18-19H,4-10,17H2,1-3H3,(H,20,21)(H,22,23)
InChIKey=GJWOWFTUHNVWMW-UHFFFAOYSA-N

> <PUBCHEM_SUBSTANCE_SYNONYM>
SCHEMBL16125805

> <PUBCHEM_XREF_EXT_ID>
SCHEMBL16125805

> <PUBCHEM_EXT_DATASOURCE_URL>
https://www.surechembl.org/

> <PUBCHEM_EXT_SUBSTANCE_URL>
https://www.surechembl.org/chemical/SCHEMBL16125805

> <PUBCHEM_CID_ASSOCIATIONS>
117613354  1

> <PUBCHEM_COORDINATE_TYPE>
1
3

$$$$
