310935851
  -OEChem-07211613022D

 27 30  0     1  0  0  0  0  0999 V2000
    8.2114   -1.4720    0.0000 F   0  0  0  0  0  0  0  0  0  0  0  0
    1.1387   -0.0305    0.0000 O   0  0  0  0  0  0  0  0  0  0  0  0
    6.8537   -1.1595    0.0000 O   0  0  0  0  0  0  0  0  0  0  0  0
    5.9673   -0.5012    0.0000 O   0  0  0  0  0  0  0  0  0  0  0  0
    0.6538   -0.6979    0.0000 N   0  0  0  0  0  0  0  0  0  0  0  0
    5.3725   -1.8005    0.0000 C   0  0  3  0  0  0  0  0  0  0  0  0
    6.1296   -2.1281    0.0000 C   0  0  0  0  0  0  0  0  0  0  0  0
    4.0668   -1.5229    0.0000 C   0  0  0  0  0  0  0  0  0  0  0  0
    4.8204   -1.1874    0.0000 C   0  0  0  0  0  0  0  0  0  0  0  0
    4.9600   -2.5150    0.0000 C   0  0  0  0  0  0  0  0  0  0  0  0
    6.0449   -1.3226    0.0000 C   0  0  0  0  0  0  0  0  0  0  0  0
    6.7919   -1.6362    0.0000 C   0  0  0  0  0  0  0  0  0  0  0  0
    3.3523   -1.1104    0.0000 C   0  0  0  0  0  0  0  0  0  0  0  0
    4.1530   -2.3434    0.0000 C   0  0  0  0  0  0  0  0  0  0  0  0
    1.9233   -1.1104    0.0000 C   0  0  0  0  0  0  0  0  0  0  0  0
    6.2244   -2.9477    0.0000 C   0  0  0  0  0  0  0  0  0  0  0  0
    7.5491   -1.9639    0.0000 C   0  0  0  0  0  0  0  0  0  0  0  0
    2.6378   -1.5229    0.0000 C   0  0  0  0  0  0  0  0  0  0  0  0
    1.9233   -0.2854    0.0000 C   0  0  0  0  0  0  0  0  0  0  0  0
    7.6439   -2.7834    0.0000 C   0  0  0  0  0  0  0  0  0  0  0  0
    3.3523   -0.2854    0.0000 C   0  0  0  0  0  0  0  0  0  0  0  0
    1.1387   -1.3654    0.0000 C   0  0  0  0  0  0  0  0  0  0  0  0
    6.9816   -3.2753    0.0000 C   0  0  0  0  0  0  0  0  0  0  0  0
    2.6378    0.1271    0.0000 C   0  0  0  0  0  0  0  0  0  0  0  0
    7.1969   -0.9175    0.0000 C   0  0  0  0  0  0  0  0  0  0  0  0
    8.4011   -3.1111    0.0000 C   0  0  0  0  0  0  0  0  0  0  0  0
    0.8838   -2.1500    0.0000 C   0  0  0  0  0  0  0  0  0  0  0  0
  1 17  1  0  0  0  0
  2  5  1  0  0  0  0
  2 19  1  0  0  0  0
  3 11  2  0  0  0  0
  4 11  1  0  0  0  0
  5 22  2  0  0  0  0
  6  7  1  0  0  0  0
  6  9  1  0  0  0  0
  6 10  1  0  0  0  0
  6 11  1  0  0  0  0
  7 12  2  0  0  0  0
  7 16  1  0  0  0  0
  8  9  2  0  0  0  0
  8 13  1  0  0  0  0
  8 14  1  0  0  0  0
 10 14  1  0  0  0  0
 12 17  1  0  0  0  0
 12 25  1  0  0  0  0
 13 18  1  0  0  0  0
 13 21  2  0  0  0  0
 15 18  2  0  0  0  0
 15 19  1  0  0  0  0
 15 22  1  0  0  0  0
 16 23  2  0  0  0  0
 17 20  2  0  0  0  0
 19 24  2  0  0  0  0
 20 23  1  0  0  0  0
 20 26  1  0  0  0  0
 21 24  1  0  0  0  0
 22 27  1  0  0  0  0
M  END
> <PUBCHEM_COMPOUND_ID_TYPE>
0

> <PUBCHEM_TOTAL_CHARGE>
0

> <PUBCHEM_SUBSTANCE_ID>
310935851

> <PUBCHEM_SUBSTANCE_VERSION>
1

> <PUBCHEM_EXT_DATASOURCE_NAME>
4488

> <PUBCHEM_EXT_DATASOURCE_REGID>
SCHEMBL16113443

> <PUBCHEM_SUBSTANCE_COMMENT>
InChI=1S/C22H20FNO3/c1-12-4-6-18(13(2)20(12)23)22(21(25)26)9-8-16(11-22)15-5-7-19-17(10-15)14(3)24-27-19/h4-7,10-11H,8-9H2,1-3H3,(H,25,26)
InChIKey=NLGNZMIWSYKBNS-UHFFFAOYSA-N

> <PUBCHEM_SUBSTANCE_SYNONYM>
SCHEMBL16113443

> <PUBCHEM_XREF_EXT_ID>
SCHEMBL16113443

> <PUBCHEM_EXT_DATASOURCE_URL>
https://www.surechembl.org/

> <PUBCHEM_EXT_SUBSTANCE_URL>
https://www.surechembl.org/chemical/SCHEMBL16113443

> <PUBCHEM_CID_ASSOCIATIONS>
117603842  1

> <PUBCHEM_COORDINATE_TYPE>
1
3

$$$$
