310940144
  -OEChem-07211613022D

 11 12  0     1  0  0  0  0  0999 V2000
    3.1041   -4.7099    0.0000 O   0  0  0  0  0  0  0  0  0  0  0  0
    3.1041   -7.1849    0.0000 N   0  0  0  0  0  0  0  0  0  0  0  0
    3.8186   -5.9474    0.0000 C   0  0  3  0  0  0  0  0  0  0  0  0
    3.8186   -6.7724    0.0000 C   0  0  3  0  0  0  0  0  0  0  0  0
    3.1041   -5.5349    0.0000 C   0  0  0  0  0  0  0  0  0  0  0  0
    4.5330   -5.5349    0.0000 C   0  0  0  0  0  0  0  0  0  0  0  0
    2.3896   -5.9474    0.0000 C   0  0  0  0  0  0  0  0  0  0  0  0
    4.5330   -7.1849    0.0000 C   0  0  0  0  0  0  0  0  0  0  0  0
    2.3896   -6.7724    0.0000 C   0  0  0  0  0  0  0  0  0  0  0  0
    5.2475   -5.9474    0.0000 C   0  0  0  0  0  0  0  0  0  0  0  0
    5.2475   -6.7724    0.0000 C   0  0  0  0  0  0  0  0  0  0  0  0
  1  5  2  0  0  0  0
  2  4  1  0  0  0  0
  2  9  1  0  0  0  0
  3  4  1  0  0  0  0
  3  5  1  0  0  0  0
  3  6  1  0  0  0  0
  4  8  1  0  0  0  0
  5  7  1  0  0  0  0
  6 10  2  0  0  0  0
  7  9  2  0  0  0  0
  8 11  2  0  0  0  0
 10 11  1  0  0  0  0
M  END
> <PUBCHEM_COMPOUND_ID_TYPE>
0

> <PUBCHEM_TOTAL_CHARGE>
0

> <PUBCHEM_SUBSTANCE_ID>
310940144

> <PUBCHEM_SUBSTANCE_VERSION>
1

> <PUBCHEM_EXT_DATASOURCE_NAME>
4488

> <PUBCHEM_EXT_DATASOURCE_REGID>
SCHEMBL16118077

> <PUBCHEM_SUBSTANCE_COMMENT>
InChI=1S/C9H9NO/c11-9-5-6-10-8-4-2-1-3-7(8)9/h1-8,10H
InChIKey=GPSRYDLJIDTNGA-UHFFFAOYSA-N

> <PUBCHEM_SUBSTANCE_SYNONYM>
SCHEMBL16118077

> <PUBCHEM_XREF_EXT_ID>
SCHEMBL16118077

> <PUBCHEM_EXT_DATASOURCE_URL>
https://www.surechembl.org/

> <PUBCHEM_EXT_SUBSTANCE_URL>
https://www.surechembl.org/chemical/SCHEMBL16118077

> <PUBCHEM_CID_ASSOCIATIONS>
21847975  1

> <PUBCHEM_COORDINATE_TYPE>
1
3

$$$$
