310934220
  -OEChem-07211613022D

  9  8  0     1  0  0  0  0  0999 V2000
    2.9039   -2.0459    0.0000 S   0  0  0  0  0  0  0  0  0  0  0  0
    1.4684   -2.0789    0.0000 N   0  0  0  0  0  0  0  0  0  0  0  0
    2.2109   -3.2999    0.0000 N   0  0  0  0  0  0  0  0  0  0  0  0
    2.1614    0.0000    0.0000 N   0  0  0  0  0  0  0  0  0  0  0  0
    1.4520   -1.2375    0.0000 C   0  0  3  0  0  0  0  0  0  0  0  0
    2.1944   -2.4749    0.0000 C   0  0  0  0  0  0  0  0  0  0  0  0
    2.1614   -0.8250    0.0000 C   0  0  0  0  0  0  0  0  0  0  0  0
    0.7095   -0.8415    0.0000 C   0  0  0  0  0  0  0  0  0  0  0  0
    0.0000   -1.2375    0.0000 C   0  0  0  0  0  0  0  0  0  0  0  0
  1  6  2  0  0  0  0
  2  5  1  0  0  0  0
  2  6  1  0  0  0  0
  3  6  1  0  0  0  0
  4  7  3  0  0  0  0
  5  7  1  0  0  0  0
  5  8  1  0  0  0  0
  8  9  1  0  0  0  0
M  END
> <PUBCHEM_COMPOUND_ID_TYPE>
0

> <PUBCHEM_TOTAL_CHARGE>
0

> <PUBCHEM_SUBSTANCE_ID>
310934220

> <PUBCHEM_SUBSTANCE_VERSION>
1

> <PUBCHEM_EXT_DATASOURCE_NAME>
4488

> <PUBCHEM_EXT_DATASOURCE_REGID>
SCHEMBL16111676

> <PUBCHEM_SUBSTANCE_COMMENT>
InChI=1S/C5H9N3S/c1-2-4(3-6)8-5(7)9/h4H,2H2,1H3,(H3,7,8,9)
InChIKey=ZODHXFMUSIYFBE-UHFFFAOYSA-N

> <PUBCHEM_SUBSTANCE_SYNONYM>
SCHEMBL16111676

> <PUBCHEM_XREF_EXT_ID>
SCHEMBL16111676

> <PUBCHEM_EXT_DATASOURCE_URL>
https://www.surechembl.org/

> <PUBCHEM_EXT_SUBSTANCE_URL>
https://www.surechembl.org/chemical/SCHEMBL16111676

> <PUBCHEM_CID_ASSOCIATIONS>
117602483  1

> <PUBCHEM_COORDINATE_TYPE>
1
3

$$$$
