310946592
  -OEChem-07211613022D

 19 18  0     1  0  0  0  0  0999 V2000
    1.4399   13.3229    0.0000 O   0  0  0  0  0  0  0  0  0  0  0  0
    2.5494    9.1822    0.0000 O   0  0  0  0  0  0  0  0  0  0  0  0
    1.5962   11.1458    0.0000 O   0  0  0  0  0  0  0  0  0  0  0  0
    2.4503   14.3334    0.0000 O   0  0  0  0  0  0  0  0  0  0  0  0
    4.9636   14.1906    0.0000 O   0  0  0  0  0  0  0  0  0  0  0  0
    3.9297    8.8123    0.0000 O   0  5  0  0  0  0  0  0  0  0  0  0
    3.5598   10.1926    0.0000 O   0  0  0  0  0  0  0  0  0  0  0  0
    3.3463    9.3957    0.0000 N   0  3  0  0  0  0  0  0  0  0  0  0
    4.2491   12.1281    0.0000 N   0  0  0  0  0  0  0  0  0  0  0  0
    4.2491   12.9531    0.0000 C   0  0  3  0  0  0  0  0  0  0  0  0
    2.2368   13.5365    0.0000 C   0  0  0  0  0  0  0  0  0  0  0  0
    3.5346   13.3656    0.0000 C   0  0  0  0  0  0  0  0  0  0  0  0
    2.8202   12.9531    0.0000 C   0  0  0  0  0  0  0  0  0  0  0  0
    4.9636   13.3656    0.0000 C   0  0  0  0  0  0  0  0  0  0  0  0
    1.2264   12.5261    0.0000 C   0  0  0  0  0  0  0  0  0  0  0  0
    1.8098   11.9427    0.0000 C   0  0  0  0  0  0  0  0  0  0  0  0
    1.9661    9.7655    0.0000 C   0  0  0  0  0  0  0  0  0  0  0  0
    2.1796   10.5624    0.0000 C   0  0  0  0  0  0  0  0  0  0  0  0
    5.6781   12.9531    0.0000 C   0  0  0  0  0  0  0  0  0  0  0  0
  1 11  1  0  0  0  0
  1 15  1  0  0  0  0
  2  8  1  0  0  0  0
  2 17  1  0  0  0  0
  3 16  1  0  0  0  0
  3 18  1  0  0  0  0
  4 11  2  0  0  0  0
  5 14  2  0  0  0  0
  6  8  1  0  0  0  0
  7  8  2  0  0  0  0
  9 10  1  0  0  0  0
 10 12  1  0  0  0  0
 10 14  1  0  0  0  0
 11 13  1  0  0  0  0
 12 13  1  0  0  0  0
 14 19  1  0  0  0  0
 15 16  1  0  0  0  0
 17 18  1  0  0  0  0
M  CHG  2   6  -1   8   1
M  END
> <PUBCHEM_COMPOUND_ID_TYPE>
0

> <PUBCHEM_TOTAL_CHARGE>
0

> <PUBCHEM_SUBSTANCE_ID>
310946592

> <PUBCHEM_SUBSTANCE_VERSION>
1

> <PUBCHEM_EXT_DATASOURCE_NAME>
4488

> <PUBCHEM_EXT_DATASOURCE_REGID>
SCHEMBL16124713

> <PUBCHEM_SUBSTANCE_COMMENT>
InChI=1S/C10H18N2O7/c1-8(13)9(11)2-3-10(14)18-6-4-17-5-7-19-12(15)16/h9H,2-7,11H2,1H3
InChIKey=BQMHVGXNJVYQOU-UHFFFAOYSA-N

> <PUBCHEM_SUBSTANCE_SYNONYM>
SCHEMBL16124713

> <PUBCHEM_XREF_EXT_ID>
SCHEMBL16124713

> <PUBCHEM_EXT_DATASOURCE_URL>
https://www.surechembl.org/

> <PUBCHEM_EXT_SUBSTANCE_URL>
https://www.surechembl.org/chemical/SCHEMBL16124713

> <PUBCHEM_CID_ASSOCIATIONS>
117612492  1

> <PUBCHEM_COORDINATE_TYPE>
1
3

$$$$
