310932878
  -OEChem-07211613022D

 40 44  0     1  0  0  0  0  0999 V2000
    0.0000   -3.0583    0.0000 Cl  0  0  0  0  0  0  0  0  0  0  0  0
    1.6331   -2.9099    0.0000 F   0  0  0  0  0  0  0  0  0  0  0  0
    4.6023   -5.7900    0.0000 O   0  0  0  0  0  0  0  0  0  0  0  0
    3.8897   -3.7115    0.0000 O   0  0  0  0  0  0  0  0  0  0  0  0
    7.4825    0.0000    0.0000 O   0  0  0  0  0  0  0  0  0  0  0  0
    8.1951   -1.2174    0.0000 O   0  0  0  0  0  0  0  0  0  0  0  0
    5.3149   -4.5429    0.0000 N   0  0  0  0  0  0  0  0  0  0  0  0
    2.5832   -4.2460    0.0000 N   0  0  0  0  0  0  0  0  0  0  0  0
    3.9788   -3.8600    0.0000 N   0  0  0  0  0  0  0  0  0  0  0  0
    2.9990   -3.5334    0.0000 N   0  0  0  0  0  0  0  0  0  0  0  0
    4.6023   -2.4645    0.0000 N   0  0  0  0  0  0  0  0  0  0  0  0
    5.3149   -3.7115    0.0000 C   0  0  3  0  0  0  0  0  0  0  0  0
    6.0572   -3.2959    0.0000 C   0  0  0  0  0  0  0  0  0  0  0  0
    6.7699   -3.7115    0.0000 C   0  0  0  0  0  0  0  0  0  0  0  0
    4.6023   -4.9586    0.0000 C   0  0  0  0  0  0  0  0  0  0  0  0
    3.8897   -4.5133    0.0000 C   0  0  0  0  0  0  0  0  0  0  0  0
    4.6023   -3.2959    0.0000 C   0  0  0  0  0  0  0  0  0  0  0  0
    7.4825   -3.3255    0.0000 C   0  0  0  0  0  0  0  0  0  0  0  0
    6.0276   -4.9586    0.0000 C   0  0  0  0  0  0  0  0  0  0  0  0
    6.7699   -4.5429    0.0000 C   0  0  0  0  0  0  0  0  0  0  0  0
    6.2057   -2.6426    0.0000 C   0  0  0  0  0  0  0  0  0  0  0  0
    3.1474   -4.8695    0.0000 C   0  0  0  0  0  0  0  0  0  0  0  0
    1.7518   -4.3054    0.0000 C   0  0  0  0  0  0  0  0  0  0  0  0
    7.4825   -2.4942    0.0000 C   0  0  0  0  0  0  0  0  0  0  0  0
    8.1654   -3.7412    0.0000 C   0  0  0  0  0  0  0  0  0  0  0  0
    6.9183   -2.2269    0.0000 C   0  0  0  0  0  0  0  0  0  0  0  0
    1.2768   -3.6521    0.0000 C   0  0  0  0  0  0  0  0  0  0  0  0
    5.3447   -2.0488    0.0000 C   0  0  0  0  0  0  0  0  0  0  0  0
    1.4252   -5.0774    0.0000 C   0  0  0  0  0  0  0  0  0  0  0  0
    0.4750   -3.7412    0.0000 C   0  0  0  0  0  0  0  0  0  0  0  0
    0.5939   -5.1665    0.0000 C   0  0  0  0  0  0  0  0  0  0  0  0
    0.1188   -4.4835    0.0000 C   0  0  0  0  0  0  0  0  0  0  0  0
    5.3447   -1.2174    0.0000 C   0  0  0  0  0  0  0  0  0  0  0  0
    6.0572   -2.4645    0.0000 C   0  0  0  0  0  0  0  0  0  0  0  0
    8.9077   -3.3255    0.0000 C   0  0  0  0  0  0  0  0  0  0  0  0
    8.1654   -4.5429    0.0000 C   0  0  0  0  0  0  0  0  0  0  0  0
    6.7699   -1.2174    0.0000 C   0  0  0  0  0  0  0  0  0  0  0  0
    6.0572   -0.8017    0.0000 C   0  0  0  0  0  0  0  0  0  0  0  0
    6.7699   -2.0488    0.0000 C   0  0  0  0  0  0  0  0  0  0  0  0
    7.4825   -0.8017    0.0000 C   0  0  0  0  0  0  0  0  0  0  0  0
  1 30  1  0  0  0  0
  2 27  1  0  0  0  0
  3 15  2  0  0  0  0
  4 17  2  0  0  0  0
  5 40  2  0  0  0  0
  6 40  1  0  0  0  0
  7 12  1  0  0  0  0
  7 15  1  0  0  0  0
  7 19  1  0  0  0  0
  8 10  1  0  0  0  0
  8 22  1  0  0  0  0
  8 23  1  0  0  0  0
  9 10  2  0  0  0  0
  9 16  1  0  0  0  0
 11 17  1  0  0  0  0
 11 28  1  0  0  0  0
 12 13  1  0  0  0  0
 12 17  1  0  0  0  0
 13 14  2  0  0  0  0
 13 21  1  0  0  0  0
 14 18  1  0  0  0  0
 14 20  1  0  0  0  0
 15 16  1  0  0  0  0
 16 22  2  0  0  0  0
 18 24  2  0  0  0  0
 18 25  1  0  0  0  0
 19 20  1  0  0  0  0
 21 26  2  0  0  0  0
 23 27  1  0  0  0  0
 23 29  2  0  0  0  0
 24 26  1  0  0  0  0
 25 35  2  0  0  0  0
 25 36  1  0  0  0  0
 27 30  2  0  0  0  0
 28 33  2  0  0  0  0
 28 34  1  0  0  0  0
 29 31  1  0  0  0  0
 30 32  1  0  0  0  0
 31 32  2  0  0  0  0
 33 38  1  0  0  0  0
 34 39  2  0  0  0  0
 37 38  2  0  0  0  0
 37 39  1  0  0  0  0
 37 40  1  0  0  0  0
M  END
> <PUBCHEM_COMPOUND_ID_TYPE>
0

> <PUBCHEM_TOTAL_CHARGE>
0

> <PUBCHEM_SUBSTANCE_ID>
310932878

> <PUBCHEM_SUBSTANCE_VERSION>
1

> <PUBCHEM_EXT_DATASOURCE_NAME>
4488

> <PUBCHEM_EXT_DATASOURCE_REGID>
SCHEMBL16110271

> <PUBCHEM_SUBSTANCE_COMMENT>
InChI=1S/C29H23ClFN5O4/c1-16(2)19-5-3-6-21-20(19)13-14-35(26(21)27(37)32-18-11-9-17(10-12-18)29(39)40)28(38)23-15-36(34-33-23)24-8-4-7-22(30)25(24)31/h3-12,15,26H,1,13-14H2,2H3,(H,32,37)(H,39,40)
InChIKey=JCVXAUSYJPWAPW-UHFFFAOYSA-N

> <PUBCHEM_SUBSTANCE_SYNONYM>
SCHEMBL16110271

> <PUBCHEM_XREF_EXT_ID>
SCHEMBL16110271

> <PUBCHEM_EXT_DATASOURCE_URL>
https://www.surechembl.org/

> <PUBCHEM_EXT_SUBSTANCE_URL>
https://www.surechembl.org/chemical/SCHEMBL16110271

> <PUBCHEM_CID_ASSOCIATIONS>
117601361  1

> <PUBCHEM_COORDINATE_TYPE>
1
3

$$$$
