310941276
  -OEChem-07211613022D

 42 45  0     1  0  0  0  0  0999 V2000
    5.1620    0.7842    0.0000 O   0  0  0  0  0  0  0  0  0  0  0  0
    4.0294   -1.1616    0.0000 O   0  0  0  0  0  0  0  0  0  0  0  0
    1.6625    0.7696    0.0000 O   0  0  0  0  0  0  0  0  0  0  0  0
   -0.4864   -1.2924    0.0000 O   0  0  0  0  0  0  0  0  0  0  0  0
    3.8116   -2.9476    0.0000 O   0  0  0  0  0  0  0  0  0  0  0  0
   -2.6354    0.7696    0.0000 O   0  0  0  0  0  0  0  0  0  0  0  0
   -5.4959    0.7696    0.0000 O   0  0  0  0  0  0  0  0  0  0  0  0
    2.3886   -0.4646    0.0000 N   0  0  0  0  0  0  0  0  0  0  0  0
    0.2395   -0.0580    0.0000 N   0  0  0  0  0  0  0  0  0  0  0  0
   -1.9095   -0.4646    0.0000 N   0  0  0  0  0  0  0  0  0  0  0  0
   -4.0584   -0.0580    0.0000 N   0  0  0  0  0  0  0  0  0  0  0  0
    4.7554    0.1162    0.0000 C   0  0  3  0  0  0  0  0  0  0  0  0
    4.0439   -0.2903    0.0000 C   0  0  0  0  0  0  0  0  0  0  0  0
    4.3634    0.7986    0.0000 C   0  0  0  0  0  0  0  0  0  0  0  0
    3.3180    0.1016    0.0000 C   0  0  3  0  0  0  0  0  0  0  0  0
    5.4959   -0.3049    0.0000 C   0  0  0  0  0  0  0  0  0  0  0  0
    3.3325    1.1616    0.0000 C   0  0  0  0  0  0  0  0  0  0  0  0
    1.6625   -0.0436    0.0000 C   0  0  0  0  0  0  0  0  0  0  0  0
    2.5919    1.5972    0.0000 C   0  0  0  0  0  0  0  0  0  0  0  0
    0.9801   -0.4356    0.0000 C   0  0  3  0  0  0  0  0  0  0  0  0
    2.5193    2.4104    0.0000 C   0  0  0  0  0  0  0  0  0  0  0  0
    1.8513    1.2633    0.0000 C   0  0  0  0  0  0  0  0  0  0  0  0
    0.9657   -1.2633    0.0000 C   0  0  0  0  0  0  0  0  0  0  0  0
    1.6916   -1.6698    0.0000 C   0  0  0  0  0  0  0  0  0  0  0  0
    1.7206    2.5702    0.0000 C   0  0  0  0  0  0  0  0  0  0  0  0
   -0.4574   -0.4065    0.0000 C   0  0  0  0  0  0  0  0  0  0  0  0
    1.3141    1.8731    0.0000 C   0  0  0  0  0  0  0  0  0  0  0  0
   -1.1834   -0.0145    0.0000 C   0  0  3  0  0  0  0  0  0  0  0  0
    3.1583    2.9476    0.0000 C   0  0  0  0  0  0  0  0  0  0  0  0
    2.3741   -1.2778    0.0000 C   0  0  0  0  0  0  0  0  0  0  0  0
    1.6916   -2.4975    0.0000 C   0  0  0  0  0  0  0  0  0  0  0  0
    3.1146   -2.4975    0.0000 C   0  0  0  0  0  0  0  0  0  0  0  0
    3.1146   -1.6843    0.0000 C   0  0  0  0  0  0  0  0  0  0  0  0
    2.3886   -2.9041    0.0000 C   0  0  0  0  0  0  0  0  0  0  0  0
   -2.6354   -0.0436    0.0000 C   0  0  0  0  0  0  0  0  0  0  0  0
   -3.3180   -0.4356    0.0000 C   0  0  0  0  0  0  0  0  0  0  0  0
   -1.1689    0.8132    0.0000 C   0  0  0  0  0  0  0  0  0  0  0  0
   -4.0584    0.7986    0.0000 C   0  0  0  0  0  0  0  0  0  0  0  0
   -4.7700   -0.4211    0.0000 C   0  0  0  0  0  0  0  0  0  0  0  0
   -4.7990    1.2052    0.0000 C   0  0  0  0  0  0  0  0  0  0  0  0
   -5.4815   -0.0290    0.0000 C   0  0  0  0  0  0  0  0  0  0  0  0
    4.5667   -2.4975    0.0000 C   0  0  0  0  0  0  0  0  0  0  0  0
  1 12  1  0  0  0  0
  1 14  1  0  0  0  0
  2 13  2  0  0  0  0
  3 18  2  0  0  0  0
  4 26  2  0  0  0  0
  5 32  1  0  0  0  0
  5 42  1  0  0  0  0
  6 35  2  0  0  0  0
  7 40  1  0  0  0  0
  7 41  1  0  0  0  0
  8 15  1  0  0  0  0
  8 18  1  0  0  0  0
  9 20  1  0  0  0  0
  9 26  1  0  0  0  0
 10 28  1  0  0  0  0
 10 35  1  0  0  0  0
 11 36  1  0  0  0  0
 11 38  1  0  0  0  0
 11 39  1  0  0  0  0
 12 13  1  0  0  0  0
 12 14  1  0  0  0  0
 12 16  1  0  0  0  0
 13 15  1  0  0  0  0
 15 17  1  0  0  0  0
 17 19  1  0  0  0  0
 18 20  1  0  0  0  0
 19 21  2  0  0  0  0
 19 22  1  0  0  0  0
 20 23  1  0  0  0  0
 21 25  1  0  0  0  0
 21 29  1  0  0  0  0
 22 27  1  0  0  0  0
 23 24  1  0  0  0  0
 24 30  2  0  0  0  0
 24 31  1  0  0  0  0
 25 27  1  0  0  0  0
 26 28  1  0  0  0  0
 28 37  1  0  0  0  0
 30 33  1  0  0  0  0
 31 34  2  0  0  0  0
 32 33  2  0  0  0  0
 32 34  1  0  0  0  0
 35 36  1  0  0  0  0
 38 40  1  0  0  0  0
 39 41  1  0  0  0  0
M  END
> <PUBCHEM_COMPOUND_ID_TYPE>
0

> <PUBCHEM_TOTAL_CHARGE>
0

> <PUBCHEM_SUBSTANCE_ID>
310941276

> <PUBCHEM_SUBSTANCE_VERSION>
1

> <PUBCHEM_EXT_DATASOURCE_NAME>
4488

> <PUBCHEM_EXT_DATASOURCE_REGID>
SCHEMBL16119236

> <PUBCHEM_SUBSTANCE_COMMENT>
InChI=1S/C31H44N4O7/c1-20-6-5-7-23(20)17-25(28(37)31(3)19-42-31)33-30(39)26(16-22-8-10-24(40-4)11-9-22)34-29(38)21(2)32-27(36)18-35-12-14-41-15-13-35/h8-11,21,25-26H,5-7,12-19H2,1-4H3,(H,32,36)(H,33,39)(H,34,38)
InChIKey=DRVDPXBMAJCBRV-UHFFFAOYSA-N

> <PUBCHEM_SUBSTANCE_SYNONYM>
SCHEMBL16119236

> <PUBCHEM_XREF_EXT_ID>
SCHEMBL16119236

> <PUBCHEM_EXT_DATASOURCE_URL>
https://www.surechembl.org/

> <PUBCHEM_EXT_SUBSTANCE_URL>
https://www.surechembl.org/chemical/SCHEMBL16119236

> <PUBCHEM_CID_ASSOCIATIONS>
86297716  1

> <PUBCHEM_COORDINATE_TYPE>
1
3

$$$$
