310943421
  -OEChem-07211613022D

 38 42  0     1  0  0  0  0  0999 V2000
    4.2704    2.2808    0.0000 F   0  0  0  0  0  0  0  0  0  0  0  0
    5.3543    1.9735    0.0000 F   0  0  0  0  0  0  0  0  0  0  0  0
    5.0145    0.8896    0.0000 F   0  0  0  0  0  0  0  0  0  0  0  0
    1.7794    2.4102    0.0000 O   0  0  0  0  0  0  0  0  0  0  0  0
   -5.3543    2.4102    0.0000 O   0  0  0  0  0  0  0  0  0  0  0  0
   -1.6014   -2.8308    0.0000 O   0  0  0  0  0  0  0  0  0  0  0  0
   -2.4911   -0.8896    0.0000 N   0  0  3  0  0  0  0  0  0  0  0  0
   -3.2190    0.3559    0.0000 N   0  0  0  0  0  0  0  0  0  0  0  0
   -3.9308    1.5852    0.0000 N   0  0  0  0  0  0  0  0  0  0  0  0
   -0.3559    2.8308    0.0000 N   0  0  0  0  0  0  0  0  0  0  0  0
    1.0676    1.1809    0.0000 N   0  0  0  0  0  0  0  0  0  0  0  0
   -1.7794    1.1809    0.0000 C   0  0  0  0  0  0  0  0  0  0  0  0
   -1.0838    1.5852    0.0000 C   0  0  0  0  0  0  0  0  0  0  0  0
   -2.4911   -0.0647    0.0000 C   0  0  0  0  0  0  0  0  0  0  0  0
   -3.2028    1.1809    0.0000 C   0  0  0  0  0  0  0  0  0  0  0  0
   -1.7955    0.3397    0.0000 C   0  0  0  0  0  0  0  0  0  0  0  0
   -2.5073    1.5852    0.0000 C   0  0  0  0  0  0  0  0  0  0  0  0
   -1.0676    2.4102    0.0000 C   0  0  0  0  0  0  0  0  0  0  0  0
   -0.3397    1.1809    0.0000 C   0  0  0  0  0  0  0  0  0  0  0  0
    0.3397    1.5852    0.0000 C   0  0  0  0  0  0  0  0  0  0  0  0
   -1.8279   -1.3750    0.0000 C   0  0  0  0  0  0  0  0  0  0  0  0
   -3.1382   -1.3588    0.0000 C   0  0  0  0  0  0  0  0  0  0  0  0
    2.5073    1.1809    0.0000 C   0  0  0  0  0  0  0  0  0  0  0  0
    0.3559    2.4102    0.0000 C   0  0  0  0  0  0  0  0  0  0  0  0
    1.7632    1.5691    0.0000 C   0  0  0  0  0  0  0  0  0  0  0  0
    3.9308    1.1809    0.0000 C   0  0  0  0  0  0  0  0  0  0  0  0
   -2.0867   -2.1676    0.0000 C   0  0  3  0  0  0  0  0  0  0  0  0
    4.6425    1.5852    0.0000 C   0  0  0  0  0  0  0  0  0  0  0  0
    3.2028    1.5691    0.0000 C   0  0  0  0  0  0  0  0  0  0  0  0
   -3.9308    2.4102    0.0000 C   0  0  0  0  0  0  0  0  0  0  0  0
   -4.6263    1.1809    0.0000 C   0  0  0  0  0  0  0  0  0  0  0  0
   -2.9117   -2.1514    0.0000 C   0  0  0  0  0  0  0  0  0  0  0  0
   -1.7955    2.7984    0.0000 C   0  0  0  0  0  0  0  0  0  0  0  0
    2.5073    0.3397    0.0000 C   0  0  0  0  0  0  0  0  0  0  0  0
    3.9146    0.3559    0.0000 C   0  0  0  0  0  0  0  0  0  0  0  0
    3.2352   -0.0485    0.0000 C   0  0  0  0  0  0  0  0  0  0  0  0
   -4.6586    2.8146    0.0000 C   0  0  0  0  0  0  0  0  0  0  0  0
   -5.3543    1.5852    0.0000 C   0  0  0  0  0  0  0  0  0  0  0  0
  1 28  1  0  0  0  0
  2 28  1  0  0  0  0
  3 28  1  0  0  0  0
  4 25  2  0  0  0  0
  5 37  1  0  0  0  0
  5 38  1  0  0  0  0
  6 27  1  0  0  0  0
  7 14  1  0  0  0  0
  7 21  1  0  0  0  0
  7 22  1  0  0  0  0
  8 14  1  0  0  0  0
  8 15  2  0  0  0  0
  9 15  1  0  0  0  0
  9 30  1  0  0  0  0
  9 31  1  0  0  0  0
 10 18  2  0  0  0  0
 10 24  1  0  0  0  0
 11 20  1  0  0  0  0
 11 25  1  0  0  0  0
 12 13  1  0  0  0  0
 12 16  1  0  0  0  0
 12 17  2  0  0  0  0
 13 18  1  0  0  0  0
 13 19  2  0  0  0  0
 14 16  2  0  0  0  0
 15 17  1  0  0  0  0
 18 33  1  0  0  0  0
 19 20  1  0  0  0  0
 20 24  2  0  0  0  0
 21 27  1  0  0  0  0
 22 32  1  0  0  0  0
 23 25  1  0  0  0  0
 23 29  1  0  0  0  0
 23 34  2  0  0  0  0
 26 28  1  0  0  0  0
 26 29  2  0  0  0  0
 26 35  1  0  0  0  0
 27 32  1  0  0  0  0
 30 37  1  0  0  0  0
 31 38  1  0  0  0  0
 34 36  1  0  0  0  0
 35 36  2  0  0  0  0
M  END
> <PUBCHEM_COMPOUND_ID_TYPE>
0

> <PUBCHEM_TOTAL_CHARGE>
0

> <PUBCHEM_SUBSTANCE_ID>
310943421

> <PUBCHEM_SUBSTANCE_VERSION>
1

> <PUBCHEM_EXT_DATASOURCE_NAME>
4488

> <PUBCHEM_EXT_DATASOURCE_REGID>
SCHEMBL16121485

> <PUBCHEM_SUBSTANCE_COMMENT>
InChI=1S/C27H28F3N5O3/c1-17-23(14-21(15-31-17)32-26(37)18-3-2-4-20(11-18)27(28,29)30)19-12-24(34-7-9-38-10-8-34)33-25(13-19)35-6-5-22(36)16-35/h2-4,11-15,22,36H,5-10,16H2,1H3,(H,32,37)
InChIKey=UEGPFRZAQXWYCA-UHFFFAOYSA-N

> <PUBCHEM_SUBSTANCE_SYNONYM>
SCHEMBL16121485

> <PUBCHEM_XREF_EXT_ID>
SCHEMBL16121485

> <PUBCHEM_EXT_DATASOURCE_URL>
https://www.surechembl.org/

> <PUBCHEM_EXT_SUBSTANCE_URL>
https://www.surechembl.org/chemical/SCHEMBL16121485

> <PUBCHEM_CID_ASSOCIATIONS>
117609845  1

> <PUBCHEM_COORDINATE_TYPE>
1
3

$$$$
