310931709
  -OEChem-07211613022D

 24 26  0     1  0  0  0  0  0999 V2000
    3.5454   -1.6159    0.0000 O   0  0  0  0  0  0  0  0  0  0  0  0
    4.6790   -3.5936    0.0000 O   0  0  0  0  0  0  0  0  0  0  0  0
    5.4026   -2.3395    0.0000 O   0  0  0  0  0  0  0  0  0  0  0  0
    0.7959    0.0000    0.0000 O   0  0  0  0  0  0  0  0  0  0  0  0
    3.1354   -2.3395    0.0000 C   0  0  3  0  0  0  0  0  0  0  0  0
    3.9554   -2.3395    0.0000 C   0  0  3  0  0  0  0  0  0  0  0  0
    2.5566   -1.7606    0.0000 C   0  0  0  0  0  0  0  0  0  0  0  0
    2.4119   -2.7495    0.0000 C   0  0  0  0  0  0  0  0  0  0  0  0
    4.6790   -2.7495    0.0000 C   0  0  0  0  0  0  0  0  0  0  0  0
    1.7365   -1.9777    0.0000 C   0  0  0  0  0  0  0  0  0  0  0  0
    2.7495   -0.9647    0.0000 C   0  0  0  0  0  0  0  0  0  0  0  0
    2.4119   -3.5936    0.0000 C   0  0  0  0  0  0  0  0  0  0  0  0
    1.6883   -2.3636    0.0000 C   0  0  0  0  0  0  0  0  0  0  0  0
    1.1577   -1.3989    0.0000 C   0  0  0  0  0  0  0  0  0  0  0  0
    2.1707   -0.3859    0.0000 C   0  0  0  0  0  0  0  0  0  0  0  0
    1.6883   -4.0037    0.0000 C   0  0  0  0  0  0  0  0  0  0  0  0
    0.9889   -2.7495    0.0000 C   0  0  0  0  0  0  0  0  0  0  0  0
    1.3748   -0.6030    0.0000 C   0  0  0  0  0  0  0  0  0  0  0  0
    0.9647   -3.5936    0.0000 C   0  0  0  0  0  0  0  0  0  0  0  0
    5.4026   -4.0037    0.0000 C   0  0  0  0  0  0  0  0  0  0  0  0
    0.2653   -4.0037    0.0000 C   0  0  0  0  0  0  0  0  0  0  0  0
    6.1020   -3.5696    0.0000 C   0  0  0  0  0  0  0  0  0  0  0  0
    5.4026   -4.8237    0.0000 C   0  0  0  0  0  0  0  0  0  0  0  0
    0.0000   -0.2171    0.0000 C   0  0  0  0  0  0  0  0  0  0  0  0
  1  5  1  0  0  0  0
  1  6  1  0  0  0  0
  2  9  1  0  0  0  0
  2 20  1  0  0  0  0
  3  9  2  0  0  0  0
  4 18  1  0  0  0  0
  4 24  1  0  0  0  0
  5  6  1  0  0  0  0
  5  7  1  0  0  0  0
  5  8  1  0  0  0  0
  6  9  1  0  0  0  0
  7 10  2  0  0  0  0
  7 11  1  0  0  0  0
  8 12  2  0  0  0  0
  8 13  1  0  0  0  0
 10 14  1  0  0  0  0
 11 15  2  0  0  0  0
 12 16  1  0  0  0  0
 13 17  2  0  0  0  0
 14 18  2  0  0  0  0
 15 18  1  0  0  0  0
 16 19  2  0  0  0  0
 17 19  1  0  0  0  0
 19 21  1  0  0  0  0
 20 22  1  0  0  0  0
 20 23  1  0  0  0  0
M  END
> <PUBCHEM_COMPOUND_ID_TYPE>
0

> <PUBCHEM_TOTAL_CHARGE>
0

> <PUBCHEM_SUBSTANCE_ID>
310931709

> <PUBCHEM_SUBSTANCE_VERSION>
1

> <PUBCHEM_EXT_DATASOURCE_NAME>
4488

> <PUBCHEM_EXT_DATASOURCE_REGID>
SCHEMBL16109038

> <PUBCHEM_SUBSTANCE_COMMENT>
InChI=1S/C20H22O4/c1-13(2)23-19(21)18-20(24-18,15-7-5-14(3)6-8-15)16-9-11-17(22-4)12-10-16/h5-13,18H,1-4H3
InChIKey=WITRNBTXNIEUSO-UHFFFAOYSA-N

> <PUBCHEM_SUBSTANCE_SYNONYM>
SCHEMBL16109038

> <PUBCHEM_XREF_EXT_ID>
SCHEMBL16109038

> <PUBCHEM_EXT_DATASOURCE_URL>
https://www.surechembl.org/

> <PUBCHEM_EXT_SUBSTANCE_URL>
https://www.surechembl.org/chemical/SCHEMBL16109038

> <PUBCHEM_CID_ASSOCIATIONS>
117600408  1

> <PUBCHEM_COORDINATE_TYPE>
1
3

$$$$
