310946779
  -OEChem-07211613022D

 19 20  0     1  0  0  0  0  0999 V2000
   -2.4206    1.9695    0.0000 O   0  0  0  0  0  0  0  0  0  0  0  0
   -2.0514   -1.8855    0.0000 N   0  0  0  0  0  0  0  0  0  0  0  0
   -1.5665   -2.5529    0.0000 N   0  0  0  0  0  0  0  0  0  0  0  0
   -1.4102    0.9591    0.0000 N   0  0  0  0  0  0  0  0  0  0  0  0
   -2.7905    0.5893    0.0000 N   0  0  0  0  0  0  0  0  0  0  0  0
    0.6470   -1.4730    0.0000 N   0  0  3  0  0  0  0  0  0  0  0  0
    2.7905   -1.0605    0.0000 N   0  0  0  0  0  0  0  0  0  0  0  0
   -1.5665   -1.2180    0.0000 C   0  0  0  0  0  0  0  0  0  0  0  0
   -1.7800   -0.4211    0.0000 C   0  0  0  0  0  0  0  0  0  0  0  0
   -0.7819   -1.4730    0.0000 C   0  0  0  0  0  0  0  0  0  0  0  0
   -0.7819   -2.2980    0.0000 C   0  0  0  0  0  0  0  0  0  0  0  0
   -1.1967    0.1622    0.0000 C   0  0  0  0  0  0  0  0  0  0  0  0
   -2.5769   -0.2076    0.0000 C   0  0  0  0  0  0  0  0  0  0  0  0
   -0.0674   -1.0605    0.0000 C   0  0  0  0  0  0  0  0  0  0  0  0
   -2.2071    1.1726    0.0000 C   0  0  0  0  0  0  0  0  0  0  0  0
    1.3615   -1.0605    0.0000 C   0  0  0  0  0  0  0  0  0  0  0  0
    0.6470   -2.2980    0.0000 C   0  0  0  0  0  0  0  0  0  0  0  0
    2.0760   -1.4730    0.0000 C   0  0  0  0  0  0  0  0  0  0  0  0
   -1.8373    2.5529    0.0000 C   0  0  0  0  0  0  0  0  0  0  0  0
  1 15  1  0  0  0  0
  1 19  1  0  0  0  0
  2  3  1  0  0  0  0
  2  8  2  0  0  0  0
  3 11  1  0  0  0  0
  4 12  2  0  0  0  0
  4 15  1  0  0  0  0
  5 13  1  0  0  0  0
  5 15  2  0  0  0  0
  6 14  1  0  0  0  0
  6 16  1  0  0  0  0
  6 17  1  0  0  0  0
  7 18  1  0  0  0  0
  8  9  1  0  0  0  0
  8 10  1  0  0  0  0
  9 12  1  0  0  0  0
  9 13  2  0  0  0  0
 10 11  2  0  0  0  0
 10 14  1  0  0  0  0
 16 18  1  0  0  0  0
M  END
> <PUBCHEM_COMPOUND_ID_TYPE>
0

> <PUBCHEM_TOTAL_CHARGE>
0

> <PUBCHEM_SUBSTANCE_ID>
310946779

> <PUBCHEM_SUBSTANCE_VERSION>
1

> <PUBCHEM_EXT_DATASOURCE_NAME>
4488

> <PUBCHEM_EXT_DATASOURCE_REGID>
SCHEMBL16124903

> <PUBCHEM_SUBSTANCE_COMMENT>
InChI=1S/C12H18N6O/c1-18(4-3-13)8-10-7-16-17-11(10)9-5-14-12(19-2)15-6-9/h5-7H,3-4,8,13H2,1-2H3,(H,16,17)
InChIKey=QTLHMWYTHXUPCP-UHFFFAOYSA-N

> <PUBCHEM_SUBSTANCE_SYNONYM>
SCHEMBL16124903

> <PUBCHEM_XREF_EXT_ID>
SCHEMBL16124903

> <PUBCHEM_EXT_DATASOURCE_URL>
https://www.surechembl.org/

> <PUBCHEM_EXT_SUBSTANCE_URL>
https://www.surechembl.org/chemical/SCHEMBL16124903

> <PUBCHEM_CID_ASSOCIATIONS>
86295923  1

> <PUBCHEM_COORDINATE_TYPE>
1
3

$$$$
