310941609
  -OEChem-07211613022D

 31 34  0     1  0  0  0  0  0999 V2000
    1.5194    2.3779    0.0000 S   0  0  0  0  0  0  0  0  0  0  0  0
   -0.8155   -0.2833    0.0000 O   0  0  0  0  0  0  0  0  0  0  0  0
    0.6095   -0.2833    0.0000 O   0  0  0  0  0  0  0  0  0  0  0  0
    4.4038    1.3992    0.0000 O   0  0  0  0  0  0  0  0  0  0  0  0
    1.3821    1.0387    0.0000 N   0  0  0  0  0  0  0  0  0  0  0  0
    2.7728    1.5710    0.0000 N   0  0  0  0  0  0  0  0  0  0  0  0
   -3.6827   -0.2833    0.0000 N   0  0  3  0  0  0  0  0  0  0  0  0
   -0.0944    0.9700    0.0000 C   0  0  0  0  0  0  0  0  0  0  0  0
   -1.5538    0.9872    0.0000 C   0  0  0  0  0  0  0  0  0  0  0  0
    0.6267    1.3992    0.0000 C   0  0  0  0  0  0  0  0  0  0  0  0
   -1.5538    0.1459    0.0000 C   0  0  0  0  0  0  0  0  0  0  0  0
   -0.1288    0.1631    0.0000 C   0  0  0  0  0  0  0  0  0  0  0  0
   -0.8327    1.3821    0.0000 C   0  0  0  0  0  0  0  0  0  0  0  0
    1.9315    1.6739    0.0000 C   0  0  0  0  0  0  0  0  0  0  0  0
   -2.2234   -0.2489    0.0000 C   0  0  0  0  0  0  0  0  0  0  0  0
   -2.9788    0.1459    0.0000 C   0  0  0  0  0  0  0  0  0  0  0  0
    0.7125    2.2062    0.0000 C   0  0  0  0  0  0  0  0  0  0  0  0
   -2.2577    1.3821    0.0000 C   0  0  0  0  0  0  0  0  0  0  0  0
   -2.9445    0.9700    0.0000 C   0  0  0  0  0  0  0  0  0  0  0  0
    3.0818    0.8327    0.0000 C   0  0  0  0  0  0  0  0  0  0  0  0
    3.9231    0.7297    0.0000 C   0  0  0  0  0  0  0  0  0  0  0  0
    2.6183    0.1459    0.0000 C   0  0  0  0  0  0  0  0  0  0  0  0
   -3.6999   -1.1245    0.0000 C   0  0  0  0  0  0  0  0  0  0  0  0
    4.2493   -0.0430    0.0000 C   0  0  0  0  0  0  0  0  0  0  0  0
   -4.4210    0.1288    0.0000 C   0  0  0  0  0  0  0  0  0  0  0  0
    2.9445   -0.5923    0.0000 C   0  0  0  0  0  0  0  0  0  0  0  0
    3.7686   -0.6953    0.0000 C   0  0  0  0  0  0  0  0  0  0  0  0
   -4.4038   -1.5023    0.0000 C   0  0  0  0  0  0  0  0  0  0  0  0
    5.2108    1.3134    0.0000 C   0  0  0  0  0  0  0  0  0  0  0  0
   -5.2108   -1.3306    0.0000 C   0  0  0  0  0  0  0  0  0  0  0  0
   -4.3867   -2.3779    0.0000 C   0  0  0  0  0  0  0  0  0  0  0  0
  1 14  1  0  0  0  0
  1 17  1  0  0  0  0
  2 11  1  0  0  0  0
  2 12  1  0  0  0  0
  3 12  2  0  0  0  0
  4 21  1  0  0  0  0
  4 29  1  0  0  0  0
  5 10  1  0  0  0  0
  5 14  2  0  0  0  0
  6 14  1  0  0  0  0
  6 20  1  0  0  0  0
  7 16  1  0  0  0  0
  7 23  1  0  0  0  0
  7 25  1  0  0  0  0
  8 10  1  0  0  0  0
  8 12  1  0  0  0  0
  8 13  2  0  0  0  0
  9 11  1  0  0  0  0
  9 13  1  0  0  0  0
  9 18  2  0  0  0  0
 10 17  2  0  0  0  0
 11 15  2  0  0  0  0
 15 16  1  0  0  0  0
 16 19  2  0  0  0  0
 18 19  1  0  0  0  0
 20 21  1  0  0  0  0
 20 22  2  0  0  0  0
 21 24  2  0  0  0  0
 22 26  1  0  0  0  0
 23 28  1  0  0  0  0
 24 27  1  0  0  0  0
 26 27  2  0  0  0  0
 28 30  1  0  0  0  0
 28 31  1  0  0  0  0
M  END
> <PUBCHEM_COMPOUND_ID_TYPE>
0

> <PUBCHEM_TOTAL_CHARGE>
0

> <PUBCHEM_SUBSTANCE_ID>
310941609

> <PUBCHEM_SUBSTANCE_VERSION>
1

> <PUBCHEM_EXT_DATASOURCE_NAME>
4488

> <PUBCHEM_EXT_DATASOURCE_REGID>
SCHEMBL16119640

> <PUBCHEM_SUBSTANCE_COMMENT>
InChI=1S/C24H25N3O3S/c1-15(2)13-27(3)17-10-9-16-11-18(23(28)30-22(16)12-17)20-14-31-24(26-20)25-19-7-5-6-8-21(19)29-4/h5-12,14-15H,13H2,1-4H3,(H,25,26)
InChIKey=RETPVQPXZSKIQR-UHFFFAOYSA-N

> <PUBCHEM_SUBSTANCE_SYNONYM>
SCHEMBL16119640

> <PUBCHEM_XREF_EXT_ID>
SCHEMBL16119640

> <PUBCHEM_EXT_DATASOURCE_URL>
https://www.surechembl.org/

> <PUBCHEM_EXT_SUBSTANCE_URL>
https://www.surechembl.org/chemical/SCHEMBL16119640

> <PUBCHEM_CID_ASSOCIATIONS>
86275216  1

> <PUBCHEM_COORDINATE_TYPE>
1
3

$$$$
