310937475
  -OEChem-07211613022D

 41 44  0     1  0  0  0  0  0999 V2000
    1.4289    6.3536    0.0000 F   0  0  0  0  0  0  0  0  0  0  0  0
    1.1270    5.2266    0.0000 F   0  0  0  0  0  0  0  0  0  0  0  0
    0.3020    6.6555    0.0000 F   0  0  0  0  0  0  0  0  0  0  0  0
   -2.8579    6.3536    0.0000 F   0  0  0  0  0  0  0  0  0  0  0  0
   -2.5559    5.2266    0.0000 F   0  0  0  0  0  0  0  0  0  0  0  0
   -1.7309    6.6555    0.0000 F   0  0  0  0  0  0  0  0  0  0  0  0
    1.5207   -0.2370    0.0000 F   0  0  0  0  0  0  0  0  0  0  0  0
    0.6139   -0.9712    0.0000 F   0  0  0  0  0  0  0  0  0  0  0  0
    0.7864    0.6697    0.0000 F   0  0  0  0  0  0  0  0  0  0  0  0
   -0.0470    2.9812    0.0000 O   0  0  0  0  0  0  0  0  0  0  0  0
   -4.5214   -2.4755    0.0000 O   0  0  0  0  0  0  0  0  0  0  0  0
   -1.1270    2.1965    0.0000 N   0  0  3  0  0  0  0  0  0  0  0  0
   -2.5817    0.1942    0.0000 N   0  0  0  0  0  0  0  0  0  0  0  0
   -1.4257   -0.6457    0.0000 N   0  0  0  0  0  0  0  0  0  0  0  0
   -0.7145    3.4661    0.0000 C   0  0  0  0  0  0  0  0  0  0  0  0
   -0.7145    4.2911    0.0000 C   0  0  0  0  0  0  0  0  0  0  0  0
   -1.3819    2.9812    0.0000 C   0  0  0  0  0  0  0  0  0  0  0  0
   -1.2763    0.7754    0.0000 C   0  0  0  0  0  0  0  0  0  0  0  0
    0.0000    5.5286    0.0000 C   0  0  0  0  0  0  0  0  0  0  0  0
   -1.4289    5.5286    0.0000 C   0  0  0  0  0  0  0  0  0  0  0  0
   -1.7613    0.1080    0.0000 C   0  0  0  0  0  0  0  0  0  0  0  0
   -1.4289    4.7036    0.0000 C   0  0  0  0  0  0  0  0  0  0  0  0
    0.0000    4.7036    0.0000 C   0  0  0  0  0  0  0  0  0  0  0  0
   -1.6119    1.5291    0.0000 C   0  0  0  0  0  0  0  0  0  0  0  0
   -0.7145    5.9411    0.0000 C   0  0  0  0  0  0  0  0  0  0  0  0
    0.7145    5.9411    0.0000 C   0  0  0  0  0  0  0  0  0  0  0  0
   -2.1434    5.9411    0.0000 C   0  0  0  0  0  0  0  0  0  0  0  0
   -0.3020    2.1965    0.0000 C   0  0  0  0  0  0  0  0  0  0  0  0
   -0.1203   -0.0645    0.0000 C   0  0  0  0  0  0  0  0  0  0  0  0
   -0.4559    0.6892    0.0000 C   0  0  0  0  0  0  0  0  0  0  0  0
    0.7002   -0.1507    0.0000 C   0  0  0  0  0  0  0  0  0  0  0  0
   -3.0667   -0.4732    0.0000 C   0  0  0  0  0  0  0  0  0  0  0  0
   -0.6052   -0.7319    0.0000 C   0  0  0  0  0  0  0  0  0  0  0  0
   -2.1665    3.2361    0.0000 C   0  0  0  0  0  0  0  0  0  0  0  0
   -2.9173    0.9479    0.0000 C   0  0  0  0  0  0  0  0  0  0  0  0
   -2.7311   -1.2269    0.0000 C   0  0  0  0  0  0  0  0  0  0  0  0
   -3.8871   -0.3870    0.0000 C   0  0  0  0  0  0  0  0  0  0  0  0
   -3.2160   -1.8943    0.0000 C   0  0  0  0  0  0  0  0  0  0  0  0
   -4.3721   -1.0544    0.0000 C   0  0  0  0  0  0  0  0  0  0  0  0
   -4.0365   -1.8081    0.0000 C   0  0  0  0  0  0  0  0  0  0  0  0
   -2.4324    1.6153    0.0000 C   0  0  0  0  0  0  0  0  0  0  0  0
  1 26  1  0  0  0  0
  2 26  1  0  0  0  0
  3 26  1  0  0  0  0
  4 27  1  0  0  0  0
  5 27  1  0  0  0  0
  6 27  1  0  0  0  0
  7 31  1  0  0  0  0
  8 31  1  0  0  0  0
  9 31  1  0  0  0  0
 10 15  1  0  0  0  0
 10 28  1  0  0  0  0
 11 40  2  0  0  0  0
 12 17  1  0  0  0  0
 12 24  1  0  0  0  0
 12 28  1  0  0  0  0
 13 21  1  0  0  0  0
 13 32  1  0  0  0  0
 13 35  1  0  0  0  0
 14 21  2  0  0  0  0
 14 33  1  0  0  0  0
 15 16  1  6  0  0  0
 15 17  2  0  0  0  0
 16 22  2  0  0  0  0
 16 23  1  0  0  0  0
 17 34  1  6  0  0  0
 18 21  1  0  0  0  0
 18 24  1  0  0  0  0
 18 30  2  0  0  0  0
 19 23  2  0  0  0  0
 19 25  1  0  0  0  0
 19 26  1  0  0  0  0
 20 22  1  0  0  0  0
 20 25  2  0  0  0  0
 20 27  1  0  0  0  0
 29 30  1  0  0  0  0
 29 31  1  0  0  0  0
 29 33  2  0  0  0  0
 32 36  1  0  0  0  0
 32 37  1  0  0  0  0
 35 41  1  0  0  0  0
 36 38  1  0  0  0  0
 37 39  1  0  0  0  0
 38 40  1  0  0  0  0
 39 40  1  0  0  0  0
M  END
> <PUBCHEM_COMPOUND_ID_TYPE>
0

> <PUBCHEM_TOTAL_CHARGE>
0

> <PUBCHEM_SUBSTANCE_ID>
310937475

> <PUBCHEM_SUBSTANCE_VERSION>
1

> <PUBCHEM_EXT_DATASOURCE_NAME>
4488

> <PUBCHEM_EXT_DATASOURCE_REGID>
SCHEMBL16115245

> <PUBCHEM_SUBSTANCE_COMMENT>
InChI=1S/C27H26F9N3O2/c1-3-39(21-4-6-22(40)7-5-21)24-17(10-20(12-37-24)27(34,35)36)13-38-14-41-23(15(38)2)16-8-18(25(28,29)30)11-19(9-16)26(31,32)33/h8-12,21H,3-7,13-14H2,1-2H3
InChIKey=NLTUFYOTMPYZOZ-UHFFFAOYSA-N

> <PUBCHEM_SUBSTANCE_SYNONYM>
SCHEMBL16115245

> <PUBCHEM_XREF_EXT_ID>
SCHEMBL16115245

> <PUBCHEM_EXT_DATASOURCE_URL>
https://www.surechembl.org/

> <PUBCHEM_EXT_SUBSTANCE_URL>
https://www.surechembl.org/chemical/SCHEMBL16115245

> <PUBCHEM_CID_ASSOCIATIONS>
117605215  1

> <PUBCHEM_COORDINATE_TYPE>
1
3

> <PUBCHEM_BONDANNOTATIONS>
15  16  6
17  34  6

$$$$
