310935171
  -OEChem-07211613022D

 26 28  0     1  0  0  0  0  0999 V2000
    6.4808   -0.6695    0.0000 F   0  0  0  0  0  0  0  0  0  0  0  0
    0.0000   -2.8923    0.0000 F   0  0  0  0  0  0  0  0  0  0  0  0
    5.3293   -1.4997    0.0000 O   0  0  0  0  0  0  0  0  0  0  0  0
    5.3293   -2.9191    0.0000 O   0  0  0  0  0  0  0  0  0  0  0  0
    0.1339   -4.5258    0.0000 O   0  0  0  0  0  0  0  0  0  0  0  0
    1.5800   -4.3652    0.0000 N   0  0  0  0  0  0  0  0  0  0  0  0
    4.0974   -2.1960    0.0000 C   0  0  3  0  0  0  0  0  0  0  0  0
    4.4723   -1.4729    0.0000 C   0  0  0  0  0  0  0  0  0  0  0  0
    3.6153   -2.8655    0.0000 C   0  0  0  0  0  0  0  0  0  0  0  0
    2.8387   -2.5977    0.0000 C   0  0  0  0  0  0  0  0  0  0  0  0
    4.9008   -2.1960    0.0000 C   0  0  0  0  0  0  0  0  0  0  0  0
    3.6153   -1.5265    0.0000 C   0  0  0  0  0  0  0  0  0  0  0  0
    5.4632   -1.5800    0.0000 C   0  0  0  0  0  0  0  0  0  0  0  0
    2.8387   -1.7943    0.0000 C   0  0  0  0  0  0  0  0  0  0  0  0
    2.1692   -3.0797    0.0000 C   0  0  0  0  0  0  0  0  0  0  0  0
    4.0170   -0.7766    0.0000 C   0  0  0  0  0  0  0  0  0  0  0  0
    5.6506   -0.6963    0.0000 C   0  0  0  0  0  0  0  0  0  0  0  0
    1.3925   -2.7583    0.0000 C   0  0  0  0  0  0  0  0  0  0  0  0
    2.2228   -3.9099    0.0000 C   0  0  0  0  0  0  0  0  0  0  0  0
    0.7498   -3.2404    0.0000 C   0  0  0  0  0  0  0  0  0  0  0  0
    4.3919   -0.0268    0.0000 C   0  0  0  0  0  0  0  0  0  0  0  0
    5.2221    0.0000    0.0000 C   0  0  0  0  0  0  0  0  0  0  0  0
    0.8034   -4.0706    0.0000 C   0  0  0  0  0  0  0  0  0  0  0  0
    5.7309   -2.1156    0.0000 C   0  0  0  0  0  0  0  0  0  0  0  0
    6.1327   -1.4997    0.0000 C   0  0  0  0  0  0  0  0  0  0  0  0
    0.2142   -5.3561    0.0000 C   0  0  0  0  0  0  0  0  0  0  0  0
  1 17  1  0  0  0  0
  2 20  1  0  0  0  0
  3 11  1  0  0  0  0
  3 25  1  0  0  0  0
  4 11  2  0  0  0  0
  5 23  1  0  0  0  0
  5 26  1  0  0  0  0
  6 19  1  0  0  0  0
  6 23  2  0  0  0  0
  7  8  1  0  0  0  0
  7  9  1  0  0  0  0
  7 11  1  0  0  0  0
  7 12  1  0  0  0  0
  8 13  1  0  0  0  0
  8 16  2  0  0  0  0
  9 10  2  0  0  0  0
 10 14  1  0  0  0  0
 10 15  1  0  0  0  0
 12 14  1  0  0  0  0
 13 17  2  0  0  0  0
 13 24  1  0  0  0  0
 15 18  1  0  0  0  0
 15 19  2  0  0  0  0
 16 21  1  0  0  0  0
 17 22  1  0  0  0  0
 18 20  2  0  0  0  0
 20 23  1  0  0  0  0
 21 22  2  0  0  0  0
M  END
> <PUBCHEM_COMPOUND_ID_TYPE>
0

> <PUBCHEM_TOTAL_CHARGE>
0

> <PUBCHEM_SUBSTANCE_ID>
310935171

> <PUBCHEM_SUBSTANCE_VERSION>
1

> <PUBCHEM_EXT_DATASOURCE_NAME>
4488

> <PUBCHEM_EXT_DATASOURCE_REGID>
SCHEMBL16112699

> <PUBCHEM_SUBSTANCE_COMMENT>
InChI=1S/C20H19F2NO3/c1-12-15(5-4-6-16(12)21)20(19(24)26-3)8-7-13(10-20)14-9-17(22)18(25-2)23-11-14/h4-6,9-11H,7-8H2,1-3H3
InChIKey=VEUGEQIBSXKGEH-UHFFFAOYSA-N

> <PUBCHEM_SUBSTANCE_SYNONYM>
SCHEMBL16112699

> <PUBCHEM_XREF_EXT_ID>
SCHEMBL16112699

> <PUBCHEM_EXT_DATASOURCE_URL>
https://www.surechembl.org/

> <PUBCHEM_EXT_SUBSTANCE_URL>
https://www.surechembl.org/chemical/SCHEMBL16112699

> <PUBCHEM_CID_ASSOCIATIONS>
117603254  1

> <PUBCHEM_COORDINATE_TYPE>
1
3

$$$$
