310943371
  -OEChem-07211613022D

 17 19  0     1  0  0  0  0  0999 V2000
    2.1826    0.5791    0.0000 Br  0  0  0  0  0  0  0  0  0  0  0  0
   -2.1381    1.5590    0.0000 O   0  0  0  0  0  0  0  0  0  0  0  0
    0.7275   -1.9301    0.0000 O   0  0  0  0  0  0  0  0  0  0  0  0
   -0.7572    0.6384    0.0000 N   0  0  0  0  0  0  0  0  0  0  0  0
    0.0000   -0.6830    0.0000 N   0  0  0  0  0  0  0  0  0  0  0  0
    0.0149    0.1633    0.0000 C   0  0  0  0  0  0  0  0  0  0  0  0
   -1.4996    0.2969    0.0000 C   0  0  3  0  0  0  0  0  0  0  0  0
   -0.7275    1.4848    0.0000 C   0  0  3  0  0  0  0  0  0  0  0  0
    0.7275    0.5791    0.0000 C   0  0  0  0  0  0  0  0  0  0  0  0
    0.7424   -1.0690    0.0000 C   0  0  0  0  0  0  0  0  0  0  0  0
   -1.6184    0.9354    0.0000 C   0  0  0  0  0  0  0  0  0  0  0  0
   -1.4402    1.3215    0.0000 C   0  0  0  0  0  0  0  0  0  0  0  0
    1.4699    0.1633    0.0000 C   0  0  0  0  0  0  0  0  0  0  0  0
   -2.1826    0.7127    0.0000 C   0  0  0  0  0  0  0  0  0  0  0  0
   -1.4254    1.9301    0.0000 C   0  0  0  0  0  0  0  0  0  0  0  0
    1.4551   -0.6681    0.0000 C   0  0  0  0  0  0  0  0  0  0  0  0
   -0.7275   -1.1135    0.0000 C   0  0  0  0  0  0  0  0  0  0  0  0
  1 13  1  0  0  0  0
  2 14  1  0  0  0  0
  2 15  1  0  0  0  0
  3 10  2  0  0  0  0
  4  6  1  0  0  0  0
  4  7  1  0  0  0  0
  4  8  1  0  0  0  0
  5  6  1  0  0  0  0
  5 10  1  0  0  0  0
  5 17  1  0  0  0  0
  6  9  2  0  0  0  0
  7 11  1  0  0  0  0
  7 14  1  0  0  0  0
  8 12  1  0  0  0  0
  8 15  1  0  0  0  0
  9 13  1  0  0  0  0
 10 16  1  0  0  0  0
 11 12  1  0  0  0  0
 13 16  2  0  0  0  0
M  END
> <PUBCHEM_COMPOUND_ID_TYPE>
0

> <PUBCHEM_TOTAL_CHARGE>
0

> <PUBCHEM_SUBSTANCE_ID>
310943371

> <PUBCHEM_SUBSTANCE_VERSION>
1

> <PUBCHEM_EXT_DATASOURCE_NAME>
4488

> <PUBCHEM_EXT_DATASOURCE_REGID>
SCHEMBL16121434

> <PUBCHEM_SUBSTANCE_COMMENT>
InChI=1S/C12H15BrN2O2/c1-14-11(4-8(13)5-12(14)16)15-9-2-3-10(15)7-17-6-9/h4-5,9-10H,2-3,6-7H2,1H3
InChIKey=KITQPYABSGHMHZ-UHFFFAOYSA-N

> <PUBCHEM_SUBSTANCE_SYNONYM>
SCHEMBL16121434

> <PUBCHEM_XREF_EXT_ID>
SCHEMBL16121434

> <PUBCHEM_EXT_DATASOURCE_URL>
https://www.surechembl.org/

> <PUBCHEM_EXT_SUBSTANCE_URL>
https://www.surechembl.org/chemical/SCHEMBL16121434

> <PUBCHEM_CID_ASSOCIATIONS>
117609795  1

> <PUBCHEM_COORDINATE_TYPE>
1
3

$$$$
