310932449
  -OEChem-07211613022D

 29 31  0     1  0  0  0  0  0999 V2000
    4.0296   -2.1259    0.0000 O   0  0  0  0  0  0  0  0  0  0  0  0
    8.5351   -2.2210    0.0000 O   0  0  0  0  0  0  0  0  0  0  0  0
    7.8371   -5.9334    0.0000 O   0  0  0  0  0  0  0  0  0  0  0  0
    4.9498   -0.9836    0.0000 N   0  0  0  0  0  0  0  0  0  0  0  0
    4.8546   -0.1587    0.0000 N   0  0  0  0  0  0  0  0  0  0  0  0
    6.3776   -0.9836    0.0000 N   0  0  0  0  0  0  0  0  0  0  0  0
    7.8054   -3.4585    0.0000 N   0  0  0  0  0  0  0  0  0  0  0  0
    0.0000   -1.8403    0.0000 N   0  0  0  0  0  0  0  0  0  0  0  0
    4.1882   -1.3009    0.0000 C   0  0  0  0  0  0  0  0  0  0  0  0
    3.6172   -0.6980    0.0000 C   0  0  0  0  0  0  0  0  0  0  0  0
    5.6478   -1.3961    0.0000 C   0  0  0  0  0  0  0  0  0  0  0  0
    2.7922   -0.7932    0.0000 C   0  0  0  0  0  0  0  0  0  0  0  0
    4.0296    0.0000    0.0000 C   0  0  0  0  0  0  0  0  0  0  0  0
    5.6478   -2.2210    0.0000 C   0  0  0  0  0  0  0  0  0  0  0  0
    7.1073   -2.2210    0.0000 C   0  0  0  0  0  0  0  0  0  0  0  0
    2.4749   -1.5547    0.0000 C   0  0  0  0  0  0  0  0  0  0  0  0
    2.3162   -0.1269    0.0000 C   0  0  0  0  0  0  0  0  0  0  0  0
    7.1073   -1.3961    0.0000 C   0  0  0  0  0  0  0  0  0  0  0  0
    6.3776   -2.6335    0.0000 C   0  0  0  0  0  0  0  0  0  0  0  0
    7.8054   -2.6335    0.0000 C   0  0  0  0  0  0  0  0  0  0  0  0
    1.1740   -0.9836    0.0000 C   0  0  0  0  0  0  0  0  0  0  0  0
    1.6499   -1.6499    0.0000 C   0  0  0  0  0  0  0  0  0  0  0  0
    1.4913   -0.2539    0.0000 C   0  0  0  0  0  0  0  0  0  0  0  0
    8.5351   -3.8710    0.0000 C   0  0  3  0  0  0  0  0  0  0  0  0
    0.3491   -1.0788    0.0000 C   0  0  0  0  0  0  0  0  0  0  0  0
    8.5351   -4.6960    0.0000 C   0  0  0  0  0  0  0  0  0  0  0  0
    9.2649   -3.4585    0.0000 C   0  0  0  0  0  0  0  0  0  0  0  0
    7.8371   -5.1084    0.0000 C   0  0  0  0  0  0  0  0  0  0  0  0
    8.5351   -6.3458    0.0000 C   0  0  0  0  0  0  0  0  0  0  0  0
  1  9  1  0  0  0  0
  2 20  2  0  0  0  0
  3 28  1  0  0  0  0
  3 29  1  0  0  0  0
  4  5  1  0  0  0  0
  4  9  1  0  0  0  0
  4 11  1  0  0  0  0
  5 13  2  0  0  0  0
  6 11  2  0  0  0  0
  6 18  1  0  0  0  0
  7 20  1  0  0  0  0
  7 24  1  0  0  0  0
  8 25  3  0  0  0  0
  9 10  2  0  0  0  0
 10 12  1  0  0  0  0
 10 13  1  0  0  0  0
 11 14  1  0  0  0  0
 12 16  2  0  0  0  0
 12 17  1  0  0  0  0
 14 19  2  0  0  0  0
 15 18  2  0  0  0  0
 15 19  1  0  0  0  0
 15 20  1  0  0  0  0
 16 22  1  0  0  0  0
 17 23  2  0  0  0  0
 21 22  2  0  0  0  0
 21 23  1  0  0  0  0
 21 25  1  0  0  0  0
 24 26  1  0  0  0  0
 24 27  1  0  0  0  0
 26 28  1  0  0  0  0
M  END
> <PUBCHEM_COMPOUND_ID_TYPE>
0

> <PUBCHEM_TOTAL_CHARGE>
0

> <PUBCHEM_SUBSTANCE_ID>
310932449

> <PUBCHEM_SUBSTANCE_VERSION>
1

> <PUBCHEM_EXT_DATASOURCE_NAME>
4488

> <PUBCHEM_EXT_DATASOURCE_REGID>
SCHEMBL16109819

> <PUBCHEM_SUBSTANCE_COMMENT>
InChI=1S/C21H21N5O3/c1-14(9-10-29-2)25-20(27)17-7-8-19(23-12-17)26-21(28)18(13-24-26)16-5-3-15(11-22)4-6-16/h3-8,12-14,28H,9-10H2,1-2H3,(H,25,27)
InChIKey=QFSLOGNYAHXGCK-UHFFFAOYSA-N

> <PUBCHEM_SUBSTANCE_SYNONYM>
SCHEMBL16109819

> <PUBCHEM_XREF_EXT_ID>
SCHEMBL16109819

> <PUBCHEM_EXT_DATASOURCE_URL>
https://www.surechembl.org/

> <PUBCHEM_EXT_SUBSTANCE_URL>
https://www.surechembl.org/chemical/SCHEMBL16109819

> <PUBCHEM_CID_ASSOCIATIONS>
117600991  1

> <PUBCHEM_COORDINATE_TYPE>
1
3

$$$$
