310946408
  -OEChem-07211613022D

 24 25  0     1  0  0  0  0  0999 V2000
   -1.0525    0.8546    0.0000 O   0  0  0  0  0  0  0  0  0  0  0  0
   -3.9104   -0.7954    0.0000 O   0  0  0  0  0  0  0  0  0  0  0  0
   -1.7669   -0.3829    0.0000 O   0  0  0  0  0  0  0  0  0  0  0  0
   -2.4814   -0.7954    0.0000 O   0  0  0  0  0  0  0  0  0  0  0  0
   -3.1959    0.4421    0.0000 N   0  0  0  0  0  0  0  0  0  0  0  0
   -2.4814    0.8546    0.0000 C   0  0  3  0  0  0  0  0  0  0  0  0
   -1.7669    0.4421    0.0000 C   0  0  0  0  0  0  0  0  0  0  0  0
   -3.1959   -0.3829    0.0000 C   0  0  0  0  0  0  0  0  0  0  0  0
   -2.4814    1.6796    0.0000 C   0  0  0  0  0  0  0  0  0  0  0  0
   -3.9104    0.8546    0.0000 C   0  0  0  0  0  0  0  0  0  0  0  0
   -3.9104    1.6796    0.0000 C   0  0  0  0  0  0  0  0  0  0  0  0
   -0.3380    0.4421    0.0000 C   0  0  0  0  0  0  0  0  0  0  0  0
   -3.9104   -1.6204    0.0000 C   0  0  0  0  0  0  0  0  0  0  0  0
   -0.3380   -0.3829    0.0000 C   0  0  0  0  0  0  0  0  0  0  0  0
    0.3765    0.8546    0.0000 C   0  0  0  0  0  0  0  0  0  0  0  0
    1.0909   -0.3829    0.0000 C   0  0  0  0  0  0  0  0  0  0  0  0
    0.3765   -0.7954    0.0000 C   0  0  0  0  0  0  0  0  0  0  0  0
    1.0909    0.4421    0.0000 C   0  0  0  0  0  0  0  0  0  0  0  0
   -4.6248   -2.0329    0.0000 C   0  0  0  0  0  0  0  0  0  0  0  0
   -3.1959   -2.0329    0.0000 C   0  0  0  0  0  0  0  0  0  0  0  0
   -4.7072   -1.4069    0.0000 C   0  0  0  0  0  0  0  0  0  0  0  0
    1.8054   -0.7954    0.0000 C   0  0  0  0  0  0  0  0  0  0  0  0
    1.8054   -1.6204    0.0000 C   0  0  0  0  0  0  0  0  0  0  0  0
    2.5199   -2.0329    0.0000 C   0  0  0  0  0  0  0  0  0  0  0  0
  1  7  1  0  0  0  0
  1 12  1  0  0  0  0
  2  8  1  0  0  0  0
  2 13  1  0  0  0  0
  3  7  2  0  0  0  0
  4  8  2  0  0  0  0
  5  6  1  0  0  0  0
  5  8  1  0  0  0  0
  5 10  1  0  0  0  0
  6  7  1  0  0  0  0
  6  9  1  0  0  0  0
  9 11  1  0  0  0  0
 10 11  1  0  0  0  0
 12 14  2  0  0  0  0
 12 15  1  0  0  0  0
 13 19  1  0  0  0  0
 13 20  1  0  0  0  0
 13 21  1  0  0  0  0
 14 17  1  0  0  0  0
 15 18  2  0  0  0  0
 16 17  2  0  0  0  0
 16 18  1  0  0  0  0
 16 22  1  0  0  0  0
 22 23  1  0  0  0  0
 23 24  1  0  0  0  0
M  END
> <PUBCHEM_COMPOUND_ID_TYPE>
0

> <PUBCHEM_TOTAL_CHARGE>
0

> <PUBCHEM_SUBSTANCE_ID>
310946408

> <PUBCHEM_SUBSTANCE_VERSION>
1

> <PUBCHEM_EXT_DATASOURCE_NAME>
4488

> <PUBCHEM_EXT_DATASOURCE_REGID>
SCHEMBL16124529

> <PUBCHEM_SUBSTANCE_COMMENT>
InChI=1S/C19H27NO4/c1-5-7-14-9-11-15(12-10-14)23-17(21)16-8-6-13-20(16)18(22)24-19(2,3)4/h9-12,16H,5-8,13H2,1-4H3
InChIKey=ZOEKBMNJUZVNST-UHFFFAOYSA-N

> <PUBCHEM_SUBSTANCE_SYNONYM>
SCHEMBL16124529

> <PUBCHEM_XREF_EXT_ID>
SCHEMBL16124529

> <PUBCHEM_EXT_DATASOURCE_URL>
https://www.surechembl.org/

> <PUBCHEM_EXT_SUBSTANCE_URL>
https://www.surechembl.org/chemical/SCHEMBL16124529

> <PUBCHEM_CID_ASSOCIATIONS>
117612325  1

> <PUBCHEM_COORDINATE_TYPE>
1
3

$$$$
