310939603
  -OEChem-07211613022D

 31 34  0     1  0  0  0  0  0999 V2000
   -1.0696   -2.4121    0.0000 O   0  0  0  0  0  0  0  0  0  0  0  0
   -2.4985   -3.2371    0.0000 O   0  0  0  0  0  0  0  0  0  0  0  0
    2.5028   -1.9996    0.0000 N   0  0  0  0  0  0  0  0  0  0  0  0
    1.7883   -3.2371    0.0000 N   0  0  0  0  0  0  0  0  0  0  0  0
    2.5028   -4.4746    0.0000 N   0  0  0  0  0  0  0  0  0  0  0  0
   -3.9275   -2.4121    0.0000 N   0  0  0  0  0  0  0  0  0  0  0  0
    3.9317   -1.9996    0.0000 C   0  0  0  0  0  0  0  0  0  0  0  0
    3.2172   -2.4121    0.0000 C   0  0  0  0  0  0  0  0  0  0  0  0
    4.3442   -1.2851    0.0000 C   0  0  0  0  0  0  0  0  0  0  0  0
    3.5192   -1.2851    0.0000 C   0  0  0  0  0  0  0  0  0  0  0  0
    1.7883   -2.4121    0.0000 C   0  0  0  0  0  0  0  0  0  0  0  0
    2.5028   -3.6496    0.0000 C   0  0  0  0  0  0  0  0  0  0  0  0
    3.2172   -3.2371    0.0000 C   0  0  0  0  0  0  0  0  0  0  0  0
    1.0738   -1.9996    0.0000 C   0  0  0  0  0  0  0  0  0  0  0  0
    4.6462   -2.4121    0.0000 C   0  0  0  0  0  0  0  0  0  0  0  0
    3.2172   -4.8871    0.0000 C   0  0  0  0  0  0  0  0  0  0  0  0
    0.3594   -2.4121    0.0000 C   0  0  0  0  0  0  0  0  0  0  0  0
    1.0738   -1.1746    0.0000 C   0  0  0  0  0  0  0  0  0  0  0  0
   -0.3551   -1.9996    0.0000 C   0  0  0  0  0  0  0  0  0  0  0  0
    1.7883   -4.8871    0.0000 C   0  0  0  0  0  0  0  0  0  0  0  0
    0.3594   -0.7621    0.0000 C   0  0  0  0  0  0  0  0  0  0  0  0
   -0.3551   -1.1746    0.0000 C   0  0  0  0  0  0  0  0  0  0  0  0
    3.2172   -5.7121    0.0000 C   0  0  0  0  0  0  0  0  0  0  0  0
    3.9317   -4.4746    0.0000 C   0  0  0  0  0  0  0  0  0  0  0  0
    3.9317   -6.1246    0.0000 C   0  0  0  0  0  0  0  0  0  0  0  0
    4.6462   -4.8871    0.0000 C   0  0  0  0  0  0  0  0  0  0  0  0
    4.6462   -5.7121    0.0000 C   0  0  0  0  0  0  0  0  0  0  0  0
   -1.7841   -1.9996    0.0000 C   0  0  0  0  0  0  0  0  0  0  0  0
   -2.4985   -2.4121    0.0000 C   0  0  3  0  0  0  0  0  0  0  0  0
   -3.2130   -1.9996    0.0000 C   0  0  0  0  0  0  0  0  0  0  0  0
   -4.6419   -1.9996    0.0000 C   0  0  0  0  0  0  0  0  0  0  0  0
  1 19  1  0  0  0  0
  1 28  1  0  0  0  0
  2 29  1  0  0  0  0
  3  8  1  0  0  0  0
  3 11  2  0  0  0  0
  4 11  1  0  0  0  0
  4 12  2  0  0  0  0
  5 12  1  0  0  0  0
  5 16  1  0  0  0  0
  5 20  1  0  0  0  0
  6 30  1  0  0  0  0
  6 31  1  0  0  0  0
  7  8  1  0  0  0  0
  7  9  1  0  0  0  0
  7 10  1  0  0  0  0
  7 15  1  0  0  0  0
  8 13  2  0  0  0  0
  9 10  1  0  0  0  0
 11 14  1  0  0  0  0
 12 13  1  0  0  0  0
 14 17  2  0  0  0  0
 14 18  1  0  0  0  0
 16 23  1  0  0  0  0
 16 24  1  0  0  0  0
 17 19  1  0  0  0  0
 18 21  2  0  0  0  0
 19 22  2  0  0  0  0
 21 22  1  0  0  0  0
 23 25  1  0  0  0  0
 24 26  1  0  0  0  0
 25 27  1  0  0  0  0
 26 27  1  0  0  0  0
 28 29  1  0  0  0  0
 29 30  1  0  0  0  0
M  END
> <PUBCHEM_COMPOUND_ID_TYPE>
0

> <PUBCHEM_TOTAL_CHARGE>
0

> <PUBCHEM_SUBSTANCE_ID>
310939603

> <PUBCHEM_SUBSTANCE_VERSION>
1

> <PUBCHEM_EXT_DATASOURCE_NAME>
4488

> <PUBCHEM_EXT_DATASOURCE_REGID>
SCHEMBL16117533

> <PUBCHEM_SUBSTANCE_COMMENT>
InChI=1S/C25H36N4O2/c1-25(12-13-25)22-15-23(29(3)19-9-5-4-6-10-19)28-24(27-22)18-8-7-11-21(14-18)31-17-20(30)16-26-2/h7-8,11,14-15,19-20,26,30H,4-6,9-10,12-13,16-17H2,1-3H3
InChIKey=XVEGBWUIXOFTRC-UHFFFAOYSA-N

> <PUBCHEM_SUBSTANCE_SYNONYM>
SCHEMBL16117533

> <PUBCHEM_XREF_EXT_ID>
SCHEMBL16117533

> <PUBCHEM_EXT_DATASOURCE_URL>
https://www.surechembl.org/

> <PUBCHEM_EXT_SUBSTANCE_URL>
https://www.surechembl.org/chemical/SCHEMBL16117533

> <PUBCHEM_CID_ASSOCIATIONS>
117606861  1

> <PUBCHEM_COORDINATE_TYPE>
1
3

$$$$
