310945267
  -OEChem-07211613022D

 42 46  0     1  0  0  0  0  0999 V2000
   -5.2275   -0.0643    0.0000 Cl  0  0  0  0  0  0  0  0  0  0  0  0
   -0.4187    3.0219    0.0000 O   0  0  0  0  0  0  0  0  0  0  0  0
    2.3708   -2.5670    0.0000 O   0  0  0  0  0  0  0  0  0  0  0  0
    1.6388    0.5577    0.0000 O   0  0  0  0  0  0  0  0  0  0  0  0
    3.0743    3.0219    0.0000 O   0  0  0  0  0  0  0  0  0  0  0  0
    1.8614   -3.4047    0.0000 O   0  0  0  0  0  0  0  0  0  0  0  0
    4.5098    0.5577    0.0000 O   0  0  0  0  0  0  0  0  0  0  0  0
    0.2990    1.7779    0.0000 N   0  0  0  0  0  0  0  0  0  0  0  0
   -1.9260    0.7012    0.0000 N   0  0  0  0  0  0  0  0  0  0  0  0
    0.2990   -0.7103    0.0000 N   0  0  0  0  0  0  0  0  0  0  0  0
   -4.8926    1.3712    0.0000 N   0  0  0  0  0  0  0  0  0  0  0  0
   -0.4187    0.5577    0.0000 C   0  0  3  0  0  0  0  0  0  0  0  0
   -1.1364    0.9884    0.0000 C   0  0  0  0  0  0  0  0  0  0  0  0
   -1.1125    1.8018    0.0000 C   0  0  0  0  0  0  0  0  0  0  0  0
   -0.4187    2.2085    0.0000 C   0  0  0  0  0  0  0  0  0  0  0  0
    0.2990    0.9644    0.0000 C   0  0  0  0  0  0  0  0  0  0  0  0
   -2.4044    1.3712    0.0000 C   0  0  0  0  0  0  0  0  0  0  0  0
    0.2990    0.1510    0.0000 C   0  0  0  0  0  0  0  0  0  0  0  0
   -1.9020    2.0411    0.0000 C   0  0  0  0  0  0  0  0  0  0  0  0
   -1.0886    0.1510    0.0000 C   0  0  0  0  0  0  0  0  0  0  0  0
    1.3278    2.3042    0.0000 C   0  0  0  0  0  0  0  0  0  0  0  0
   -3.2418    1.3951    0.0000 C   0  0  0  0  0  0  0  0  0  0  0  0
    2.3565    1.8018    0.0000 C   0  0  0  0  0  0  0  0  0  0  0  0
   -1.1125   -0.6864    0.0000 C   0  0  0  0  0  0  0  0  0  0  0  0
   -0.3709   -1.0931    0.0000 C   0  0  0  0  0  0  0  0  0  0  0  0
    1.8614   -2.8613    0.0000 C   0  0  0  0  0  0  0  0  0  0  0  0
    2.3327    0.9644    0.0000 C   0  0  0  0  0  0  0  0  0  0  0  0
    3.0743    2.2085    0.0000 C   0  0  0  0  0  0  0  0  0  0  0  0
   -3.6485    0.6534    0.0000 C   0  0  0  0  0  0  0  0  0  0  0  0
   -3.6246    2.0888    0.0000 C   0  0  0  0  0  0  0  0  0  0  0  0
    3.0983    0.5816    0.0000 C   0  0  0  0  0  0  0  0  0  0  0  0
    3.7920    1.8018    0.0000 C   0  0  0  0  0  0  0  0  0  0  0  0
    3.7681    0.9884    0.0000 C   0  0  0  0  0  0  0  0  0  0  0  0
   -4.4859    0.6773    0.0000 C   0  0  0  0  0  0  0  0  0  0  0  0
   -4.4619    2.0888    0.0000 C   0  0  0  0  0  0  0  0  0  0  0  0
    2.3821   -2.0009    0.0000 C   0  0  0  0  0  0  0  0  0  0  0  0
    1.6388   -0.2797    0.0000 C   0  0  0  0  0  0  0  0  0  0  0  0
    3.7920    3.4047    0.0000 C   0  0  0  0  0  0  0  0  0  0  0  0
    2.8916   -1.9783    0.0000 C   0  0  0  0  0  0  0  0  0  0  0  0
    1.8614   -2.0009    0.0000 C   0  0  0  0  0  0  0  0  0  0  0  0
    2.3708   -1.4462    0.0000 C   0  0  0  0  0  0  0  0  0  0  0  0
    5.2275    0.9884    0.0000 C   0  0  0  0  0  0  0  0  0  0  0  0
  1 34  1  0  0  0  0
  2 15  2  0  0  0  0
  3 26  1  0  0  0  0
  3 36  1  0  0  0  0
  4 27  1  0  0  0  0
  4 37  1  0  0  0  0
  5 28  1  0  0  0  0
  5 38  1  0  0  0  0
  6 26  2  0  0  0  0
  7 33  1  0  0  0  0
  7 42  1  0  0  0  0
  8 15  1  0  0  0  0
  8 16  1  0  0  0  0
  8 21  1  0  0  0  0
  9 13  1  0  0  0  0
  9 17  1  0  0  0  0
 10 18  1  0  0  0  0
 10 25  1  0  0  0  0
 10 26  1  0  0  0  0
 11 34  1  0  0  0  0
 11 35  1  0  0  0  0
 12 13  1  0  0  0  0
 12 16  1  0  0  0  0
 12 18  1  0  0  0  0
 12 20  1  0  0  0  0
 13 14  2  0  0  0  0
 14 15  1  0  0  0  0
 14 19  1  0  0  0  0
 17 19  2  0  0  0  0
 17 22  1  0  0  0  0
 20 24  1  0  0  0  0
 21 23  1  0  0  0  0
 22 29  1  0  0  0  0
 22 30  2  0  0  0  0
 23 27  2  0  0  0  0
 23 28  1  0  0  0  0
 24 25  1  0  0  0  0
 27 31  1  0  0  0  0
 28 32  2  0  0  0  0
 29 34  2  0  0  0  0
 30 35  1  0  0  0  0
 31 33  2  0  0  0  0
 32 33  1  0  0  0  0
 36 39  1  0  0  0  0
 36 40  1  0  0  0  0
 36 41  1  0  0  0  0
M  END
> <PUBCHEM_COMPOUND_ID_TYPE>
0

> <PUBCHEM_TOTAL_CHARGE>
0

> <PUBCHEM_SUBSTANCE_ID>
310945267

> <PUBCHEM_SUBSTANCE_VERSION>
1

> <PUBCHEM_EXT_DATASOURCE_NAME>
4488

> <PUBCHEM_EXT_DATASOURCE_REGID>
SCHEMBL16123361

> <PUBCHEM_SUBSTANCE_COMMENT>
InChI=1S/C31H39ClN4O6/c1-30(2,3)42-29(38)35-11-7-9-31(17-35)18-36(16-22-24(40-5)13-20(39-4)14-25(22)41-6)28(37)21-15-23(34-27(21)31)19-8-10-33-26(32)12-19/h8,12-15,33-34H,7,9-11,16-18H2,1-6H3
InChIKey=MCFLXVSXRSPHPK-UHFFFAOYSA-N

> <PUBCHEM_SUBSTANCE_SYNONYM>
SCHEMBL16123361

> <PUBCHEM_XREF_EXT_ID>
SCHEMBL16123361

> <PUBCHEM_EXT_DATASOURCE_URL>
https://www.surechembl.org/

> <PUBCHEM_EXT_SUBSTANCE_URL>
https://www.surechembl.org/chemical/SCHEMBL16123361

> <PUBCHEM_CID_ASSOCIATIONS>
117611332  1

> <PUBCHEM_COORDINATE_TYPE>
1
3

$$$$
