310942026
  -OEChem-07211613022D

 41 45  0     1  0  0  0  0  0999 V2000
    3.8736    3.1773    0.0000 F   0  0  0  0  0  0  0  0  0  0  0  0
    4.5146    2.6468    0.0000 F   0  0  0  0  0  0  0  0  0  0  0  0
    4.3709    1.8290    0.0000 F   0  0  0  0  0  0  0  0  0  0  0  0
   -0.7571   -3.1773    0.0000 O   0  0  0  0  0  0  0  0  0  0  0  0
    2.2711   -1.8954    0.0000 O   0  0  0  0  0  0  0  0  0  0  0  0
   -1.8290    0.6244    0.0000 O   0  0  0  0  0  0  0  0  0  0  0  0
   -2.3374   -0.5250    0.0000 O   0  0  0  0  0  0  0  0  0  0  0  0
   -0.7128   -0.8012    0.0000 O   0  0  0  0  0  0  0  0  0  0  0  0
    0.1382    2.5584    0.0000 O   0  0  0  0  0  0  0  0  0  0  0  0
   -4.5146   -2.4038    0.0000 O   0  0  0  0  0  0  0  0  0  0  0  0
   -1.2654   -1.7738    0.0000 N   0  0  0  0  0  0  0  0  0  0  0  0
    0.3813    0.2266    0.0000 N   0  0  0  0  0  0  0  0  0  0  0  0
   -3.4315   -1.4644    0.0000 N   0  0  0  0  0  0  0  0  0  0  0  0
   -2.1164    1.4091    0.0000 N   0  0  0  0  0  0  0  0  0  0  0  0
    0.6244    1.2102    0.0000 N   0  0  0  0  0  0  0  0  0  0  0  0
   -0.0939   -1.1328    0.0000 C   0  0  0  0  0  0  0  0  0  0  0  0
    0.0607   -1.9395    0.0000 C   0  0  0  0  0  0  0  0  0  0  0  0
   -0.6575   -2.3264    0.0000 C   0  0  0  0  0  0  0  0  0  0  0  0
    0.5360   -0.5691    0.0000 C   0  0  0  0  0  0  0  0  0  0  0  0
   -0.9007   -1.0223    0.0000 C   0  0  0  0  0  0  0  0  0  0  0  0
   -2.0722   -1.9285    0.0000 C   0  0  3  0  0  0  0  0  0  0  0  0
    0.8455   -2.2158    0.0000 C   0  0  0  0  0  0  0  0  0  0  0  0
    1.4754   -1.6633    0.0000 C   0  0  0  0  0  0  0  0  0  0  0  0
    1.3096   -0.8676    0.0000 C   0  0  0  0  0  0  0  0  0  0  0  0
   -2.6248   -1.3096    0.0000 C   0  0  0  0  0  0  0  0  0  0  0  0
   -0.4918    0.0166    0.0000 C   0  0  0  0  0  0  0  0  0  0  0  0
   -1.0112    0.6575    0.0000 C   0  0  0  0  0  0  0  0  0  0  0  0
   -0.7791    1.4644    0.0000 C   0  0  0  0  0  0  0  0  0  0  0  0
   -2.3485   -2.7242    0.0000 C   0  0  0  0  0  0  0  0  0  0  0  0
   -0.0166    1.7296    0.0000 C   0  0  0  0  0  0  0  0  0  0  0  0
   -3.6857   -2.2490    0.0000 C   0  0  0  0  0  0  0  0  0  0  0  0
   -3.1552   -2.8789    0.0000 C   0  0  0  0  0  0  0  0  0  0  0  0
   -1.4754    1.9175    0.0000 C   0  0  0  0  0  0  0  0  0  0  0  0
    1.3980    1.4975    0.0000 C   0  0  0  0  0  0  0  0  0  0  0  0
    2.9563    2.0611    0.0000 C   0  0  0  0  0  0  0  0  0  0  0  0
    3.7410    2.3706    0.0000 C   0  0  0  0  0  0  0  0  0  0  0  0
    2.0501    0.9670    0.0000 C   0  0  0  0  0  0  0  0  0  0  0  0
    1.5528    2.3153    0.0000 C   0  0  0  0  0  0  0  0  0  0  0  0
    2.9784   -1.4644    0.0000 C   0  0  0  0  0  0  0  0  0  0  0  0
    2.8016    1.2543    0.0000 C   0  0  0  0  0  0  0  0  0  0  0  0
    2.3264    2.5916    0.0000 C   0  0  0  0  0  0  0  0  0  0  0  0
  1 36  1  0  0  0  0
  2 36  1  0  0  0  0
  3 36  1  0  0  0  0
  4 18  2  0  0  0  0
  5 23  1  0  0  0  0
  5 39  1  0  0  0  0
  6 14  1  0  0  0  0
  6 27  1  0  0  0  0
  7 25  2  0  0  0  0
  8 26  2  0  0  0  0
  9 30  2  0  0  0  0
 10 31  2  0  0  0  0
 11 18  1  0  0  0  0
 11 20  1  0  0  0  0
 11 21  1  0  0  0  0
 12 19  1  0  0  0  0
 12 26  1  0  0  0  0
 13 25  1  0  0  0  0
 13 31  1  0  0  0  0
 14 33  2  0  0  0  0
 15 30  1  0  0  0  0
 15 34  1  0  0  0  0
 16 17  2  0  0  0  0
 16 19  1  0  0  0  0
 16 20  1  0  0  0  0
 17 18  1  0  0  0  0
 17 22  1  0  0  0  0
 19 24  2  0  0  0  0
 21 25  1  0  0  0  0
 21 29  1  0  0  0  0
 22 23  2  0  0  0  0
 23 24  1  0  0  0  0
 26 27  1  0  0  0  0
 27 28  2  0  0  0  0
 28 30  1  0  0  0  0
 28 33  1  0  0  0  0
 29 32  1  0  0  0  0
 31 32  1  0  0  0  0
 34 37  2  0  0  0  0
 34 38  1  0  0  0  0
 35 36  1  0  0  0  0
 35 40  2  0  0  0  0
 35 41  1  0  0  0  0
 37 40  1  0  0  0  0
 38 41  2  0  0  0  0
M  END
> <PUBCHEM_COMPOUND_ID_TYPE>
0

> <PUBCHEM_TOTAL_CHARGE>
0

> <PUBCHEM_SUBSTANCE_ID>
310942026

> <PUBCHEM_SUBSTANCE_VERSION>
1

> <PUBCHEM_EXT_DATASOURCE_NAME>
4488

> <PUBCHEM_EXT_DATASOURCE_REGID>
SCHEMBL16120060

> <PUBCHEM_SUBSTANCE_COMMENT>
InChI=1S/C26H20F3N5O7/c1-40-14-8-15-17(11-34(25(15)39)19-6-7-20(35)33-23(19)37)18(9-14)32-24(38)21-16(10-30-41-21)22(36)31-13-4-2-12(3-5-13)26(27,28)29/h2-5,8-10,19H,6-7,11H2,1H3,(H,31,36)(H,32,38)(H,33,35,37)
InChIKey=LZSQJKRLGFMGCO-UHFFFAOYSA-N

> <PUBCHEM_SUBSTANCE_SYNONYM>
SCHEMBL16120060

> <PUBCHEM_XREF_EXT_ID>
SCHEMBL16120060

> <PUBCHEM_EXT_DATASOURCE_URL>
https://www.surechembl.org/

> <PUBCHEM_EXT_SUBSTANCE_URL>
https://www.surechembl.org/chemical/SCHEMBL16120060

> <PUBCHEM_CID_ASSOCIATIONS>
117608713  1

> <PUBCHEM_COORDINATE_TYPE>
1
3

$$$$
