310937491
  -OEChem-07211613022D

 31 34  0     1  0  0  0  0  0999 V2000
   -0.4934   -2.6664    0.0000 I   0  0  0  0  0  0  0  0  0  0  0  0
   -4.6184   -2.6664    0.0000 O   0  0  0  0  0  0  0  0  0  0  0  0
   -2.2296   -2.0580    0.0000 O   0  0  0  0  0  0  0  0  0  0  0  0
   -5.4434   -1.2375    0.0000 O   0  0  0  0  0  0  0  0  0  0  0  0
    0.7441   -1.9520    0.0000 O   0  0  0  0  0  0  0  0  0  0  0  0
    0.7441   -0.5230    0.0000 O   0  0  0  0  0  0  0  0  0  0  0  0
   -0.4934   -1.2375    0.0000 N   0  0  0  0  0  0  0  0  0  0  0  0
   -1.7309   -0.5230    0.0000 C   0  0  3  0  0  0  0  0  0  0  0  0
   -2.1434   -1.2375    0.0000 C   0  0  3  0  0  0  0  0  0  0  0  0
   -2.1434    0.1914    0.0000 C   0  0  0  0  0  0  0  0  0  0  0  0
   -2.9684   -1.2375    0.0000 C   0  0  0  0  0  0  0  0  0  0  0  0
   -4.2059   -1.9520    0.0000 C   0  0  0  0  0  0  0  0  0  0  0  0
   -4.6184   -1.2375    0.0000 C   0  0  0  0  0  0  0  0  0  0  0  0
   -3.3809   -1.9520    0.0000 C   0  0  0  0  0  0  0  0  0  0  0  0
   -0.9059   -0.5230    0.0000 C   0  0  0  0  0  0  0  0  0  0  0  0
   -3.3809    0.9059    0.0000 C   0  0  0  0  0  0  0  0  0  0  0  0
   -2.9684    0.1914    0.0000 C   0  0  0  0  0  0  0  0  0  0  0  0
   -2.9684    1.6204    0.0000 C   0  0  0  0  0  0  0  0  0  0  0  0
   -3.3809   -0.5230    0.0000 C   0  0  0  0  0  0  0  0  0  0  0  0
   -1.7309    0.9059    0.0000 C   0  0  0  0  0  0  0  0  0  0  0  0
   -4.2059   -0.5230    0.0000 C   0  0  0  0  0  0  0  0  0  0  0  0
   -2.1434    1.6204    0.0000 C   0  0  0  0  0  0  0  0  0  0  0  0
   -4.2059    0.9059    0.0000 C   0  0  0  0  0  0  0  0  0  0  0  0
    0.3316   -1.2375    0.0000 C   0  0  0  0  0  0  0  0  0  0  0  0
   -0.9059   -1.9520    0.0000 C   0  0  3  0  0  0  0  0  0  0  0  0
   -3.3809    2.3349    0.0000 C   0  0  0  0  0  0  0  0  0  0  0  0
   -5.4434   -2.6664    0.0000 C   0  0  0  0  0  0  0  0  0  0  0  0
   -5.8559   -1.9520    0.0000 C   0  0  0  0  0  0  0  0  0  0  0  0
   -4.6184    1.6204    0.0000 C   0  0  0  0  0  0  0  0  0  0  0  0
   -4.2059    2.3349    0.0000 C   0  0  0  0  0  0  0  0  0  0  0  0
   -1.7309   -1.9520    0.0000 C   0  0  0  0  0  0  0  0  0  0  0  0
  1 25  1  0  0  0  0
  2 12  1  0  0  0  0
  2 27  1  0  0  0  0
  3  9  1  0  0  0  0
  4 13  1  0  0  0  0
  4 28  1  0  0  0  0
  5 24  2  0  0  0  0
  6 24  1  0  0  0  0
  7 15  1  0  0  0  0
  7 24  1  0  0  0  0
  7 25  1  0  0  0  0
  8  9  1  0  0  0  0
  8 10  1  0  0  0  0
  8 15  1  0  0  0  0
  9 11  1  0  0  0  0
 10 17  2  0  0  0  0
 10 20  1  0  0  0  0
 11 14  2  0  0  0  0
 11 19  1  0  0  0  0
 12 13  2  0  0  0  0
 12 14  1  0  0  0  0
 13 21  1  0  0  0  0
 16 17  1  0  0  0  0
 16 18  2  0  0  0  0
 16 23  1  0  0  0  0
 18 22  1  0  0  0  0
 18 26  1  0  0  0  0
 19 21  2  0  0  0  0
 20 22  2  0  0  0  0
 23 29  2  0  0  0  0
 25 31  1  0  0  0  0
 26 30  2  0  0  0  0
 27 28  1  0  0  0  0
 29 30  1  0  0  0  0
M  END
> <PUBCHEM_COMPOUND_ID_TYPE>
0

> <PUBCHEM_TOTAL_CHARGE>
0

> <PUBCHEM_SUBSTANCE_ID>
310937491

> <PUBCHEM_SUBSTANCE_VERSION>
1

> <PUBCHEM_EXT_DATASOURCE_NAME>
4488

> <PUBCHEM_EXT_DATASOURCE_REGID>
SCHEMBL16115262

> <PUBCHEM_SUBSTANCE_COMMENT>
InChI=1S/C24H24INO5/c1-15(25)26(24(28)29)14-20(18-7-6-16-4-2-3-5-17(16)12-18)23(27)19-8-9-21-22(13-19)31-11-10-30-21/h2-9,12-13,15,20,23,27H,10-11,14H2,1H3,(H,28,29)
InChIKey=UYOOXFLKLILREV-UHFFFAOYSA-N

> <PUBCHEM_SUBSTANCE_SYNONYM>
SCHEMBL16115262

> <PUBCHEM_XREF_EXT_ID>
SCHEMBL16115262

> <PUBCHEM_EXT_DATASOURCE_URL>
https://www.surechembl.org/

> <PUBCHEM_EXT_SUBSTANCE_URL>
https://www.surechembl.org/chemical/SCHEMBL16115262

> <PUBCHEM_CID_ASSOCIATIONS>
117605229  1

> <PUBCHEM_COORDINATE_TYPE>
1
3

$$$$
