310938432
  -OEChem-07211613022D

 33 36  0     1  0  0  0  0  0999 V2000
    2.1024   -0.4258    0.0000 O   0  0  0  0  0  0  0  0  0  0  0  0
    4.2580   -4.9233    0.0000 O   0  0  0  0  0  0  0  0  0  0  0  0
    5.6685   -2.4749    0.0000 O   0  0  0  0  0  0  0  0  0  0  0  0
    1.4104   -1.6500    0.0000 N   0  0  0  0  0  0  0  0  0  0  0  0
    2.8209   -2.4749    0.0000 N   0  0  0  0  0  0  0  0  0  0  0  0
    2.8209   -1.6500    0.0000 C   0  0  3  0  0  0  0  0  0  0  0  0
    2.1024   -1.2242    0.0000 C   0  0  0  0  0  0  0  0  0  0  0  0
    1.4104   -2.4749    0.0000 C   0  0  3  0  0  0  0  0  0  0  0  0
    3.5395   -1.2242    0.0000 C   0  0  0  0  0  0  0  0  0  0  0  0
    3.5395   -2.8742    0.0000 C   0  0  0  0  0  0  0  0  0  0  0  0
    2.1290   -2.8742    0.0000 C   0  0  0  0  0  0  0  0  0  0  0  0
    0.7185   -1.2242    0.0000 C   0  0  0  0  0  0  0  0  0  0  0  0
    0.7185   -2.8742    0.0000 C   0  0  0  0  0  0  0  0  0  0  0  0
    4.2580   -1.6500    0.0000 C   0  0  0  0  0  0  0  0  0  0  0  0
    3.5395   -0.4258    0.0000 C   0  0  0  0  0  0  0  0  0  0  0  0
    4.2580   -2.4483    0.0000 C   0  0  0  0  0  0  0  0  0  0  0  0
    3.5395   -3.6992    0.0000 C   0  0  0  0  0  0  0  0  0  0  0  0
    4.2580   -4.0983    0.0000 C   0  0  0  0  0  0  0  0  0  0  0  0
    4.9499   -2.8742    0.0000 C   0  0  0  0  0  0  0  0  0  0  0  0
    0.0000   -1.6500    0.0000 C   0  0  0  0  0  0  0  0  0  0  0  0
    0.0000   -2.4483    0.0000 C   0  0  0  0  0  0  0  0  0  0  0  0
    3.0072   -2.6080    0.0000 C   0  0  0  0  0  0  0  0  0  0  0  0
    2.1290   -3.6992    0.0000 C   0  0  0  0  0  0  0  0  0  0  0  0
    4.9499   -3.6992    0.0000 C   0  0  0  0  0  0  0  0  0  0  0  0
    4.9765   -1.2242    0.0000 C   0  0  0  0  0  0  0  0  0  0  0  0
    4.2580    0.0000    0.0000 C   0  0  0  0  0  0  0  0  0  0  0  0
    4.9499   -0.3992    0.0000 C   0  0  0  0  0  0  0  0  0  0  0  0
    3.7258   -3.0338    0.0000 C   0  0  0  0  0  0  0  0  0  0  0  0
    2.8476   -4.0983    0.0000 C   0  0  0  0  0  0  0  0  0  0  0  0
    3.7258   -3.8322    0.0000 C   0  0  0  0  0  0  0  0  0  0  0  0
    5.6685    0.0000    0.0000 C   0  0  0  0  0  0  0  0  0  0  0  0
    4.9765   -5.3225    0.0000 C   0  0  0  0  0  0  0  0  0  0  0  0
    5.6685   -1.6233    0.0000 C   0  0  0  0  0  0  0  0  0  0  0  0
  1  7  2  0  0  0  0
  2 18  1  0  0  0  0
  2 32  1  0  0  0  0
  3 19  1  0  0  0  0
  3 33  1  0  0  0  0
  4  7  1  0  0  0  0
  4  8  1  0  0  0  0
  4 12  1  0  0  0  0
  5  6  1  0  0  0  0
  5 10  1  0  0  0  0
  6  7  1  0  0  0  0
  6  9  1  0  0  0  0
  8 11  1  0  0  0  0
  8 13  1  0  0  0  0
  9 14  2  0  0  0  0
  9 15  1  0  0  0  0
 10 16  2  0  0  0  0
 10 17  1  0  0  0  0
 11 22  2  0  0  0  0
 11 23  1  0  0  0  0
 12 20  1  0  0  0  0
 13 21  1  0  0  0  0
 14 25  1  0  0  0  0
 15 26  2  0  0  0  0
 16 19  1  0  0  0  0
 17 18  2  0  0  0  0
 18 24  1  0  0  0  0
 19 24  2  0  0  0  0
 20 21  1  0  0  0  0
 22 28  1  0  0  0  0
 23 29  2  0  0  0  0
 25 27  2  0  0  0  0
 26 27  1  0  0  0  0
 27 31  1  0  0  0  0
 28 30  2  0  0  0  0
 29 30  1  0  0  0  0
M  END
> <PUBCHEM_COMPOUND_ID_TYPE>
0

> <PUBCHEM_TOTAL_CHARGE>
0

> <PUBCHEM_SUBSTANCE_ID>
310938432

> <PUBCHEM_SUBSTANCE_VERSION>
1

> <PUBCHEM_EXT_DATASOURCE_NAME>
4488

> <PUBCHEM_EXT_DATASOURCE_REGID>
SCHEMBL16116326

> <PUBCHEM_SUBSTANCE_COMMENT>
InChI=1S/C28H32N2O3/c1-20-12-14-22(15-13-20)27(29-23-17-24(32-2)19-25(18-23)33-3)28(31)30-16-8-7-11-26(30)21-9-5-4-6-10-21/h4-6,9-10,12-15,17-19,26-27,29H,7-8,11,16H2,1-3H3
InChIKey=KOFKQAFXWLVSKO-UHFFFAOYSA-N

> <PUBCHEM_SUBSTANCE_SYNONYM>
SCHEMBL16116326

> <PUBCHEM_XREF_EXT_ID>
SCHEMBL16116326

> <PUBCHEM_EXT_DATASOURCE_URL>
https://www.surechembl.org/

> <PUBCHEM_EXT_SUBSTANCE_URL>
https://www.surechembl.org/chemical/SCHEMBL16116326

> <PUBCHEM_CID_ASSOCIATIONS>
117605897  1

> <PUBCHEM_COORDINATE_TYPE>
1
3

$$$$
