310932482
  -OEChem-07211613022D

 27 30  0     1  0  0  0  0  0999 V2000
    3.2921    0.0000    0.0000 O   0  0  0  0  0  0  0  0  0  0  0  0
    4.4114   -1.9533    0.0000 O   0  0  0  0  0  0  0  0  0  0  0  0
    5.1356   -0.7243    0.0000 O   0  0  0  0  0  0  0  0  0  0  0  0
    0.0000   -2.3703    0.0000 O   0  0  0  0  0  0  0  0  0  0  0  0
    3.7091   -0.7243    0.0000 C   0  0  3  0  0  0  0  0  0  0  0  0
    2.8751   -0.7243    0.0000 C   0  0  3  0  0  0  0  0  0  0  0  0
    3.4896   -1.5144    0.0000 C   0  0  0  0  0  0  0  0  0  0  0  0
    4.4114   -1.1193    0.0000 C   0  0  0  0  0  0  0  0  0  0  0  0
    2.1508   -1.1193    0.0000 C   0  0  0  0  0  0  0  0  0  0  0  0
    4.0821   -2.1069    0.0000 C   0  0  0  0  0  0  0  0  0  0  0  0
    2.6995   -1.7338    0.0000 C   0  0  0  0  0  0  0  0  0  0  0  0
    2.1508   -1.9533    0.0000 C   0  0  0  0  0  0  0  0  0  0  0  0
    1.4485   -0.7243    0.0000 C   0  0  0  0  0  0  0  0  0  0  0  0
    5.1356   -2.3703    0.0000 C   0  0  0  0  0  0  0  0  0  0  0  0
    3.8627   -2.8970    0.0000 C   0  0  0  0  0  0  0  0  0  0  0  0
    2.4801   -2.5239    0.0000 C   0  0  0  0  0  0  0  0  0  0  0  0
    3.0507   -3.1165    0.0000 C   0  0  0  0  0  0  0  0  0  0  0  0
    1.4485   -2.3703    0.0000 C   0  0  0  0  0  0  0  0  0  0  0  0
    0.7243   -1.1193    0.0000 C   0  0  0  0  0  0  0  0  0  0  0  0
    0.7243   -1.9533    0.0000 C   0  0  0  0  0  0  0  0  0  0  0  0
    5.8599   -1.9752    0.0000 C   0  0  0  0  0  0  0  0  0  0  0  0
    5.1576   -3.2043    0.0000 C   0  0  0  0  0  0  0  0  0  0  0  0
    2.8531   -3.9066    0.0000 C   0  0  0  0  0  0  0  0  0  0  0  0
    6.5622   -2.3703    0.0000 C   0  0  0  0  0  0  0  0  0  0  0  0
    5.8599   -3.5994    0.0000 C   0  0  0  0  0  0  0  0  0  0  0  0
    6.5842   -3.2043    0.0000 C   0  0  0  0  0  0  0  0  0  0  0  0
    0.0000   -3.1824    0.0000 C   0  0  0  0  0  0  0  0  0  0  0  0
  1  5  1  0  0  0  0
  1  6  1  0  0  0  0
  2  8  1  0  0  0  0
  2 14  1  0  0  0  0
  3  8  2  0  0  0  0
  4 20  1  0  0  0  0
  4 27  1  0  0  0  0
  5  6  1  0  0  0  0
  5  7  1  0  0  0  0
  5  8  1  0  0  0  0
  6  9  1  0  0  0  0
  7 10  2  0  0  0  0
  7 11  1  0  0  0  0
  9 12  2  0  0  0  0
  9 13  1  0  0  0  0
 10 15  1  0  0  0  0
 11 16  2  0  0  0  0
 12 18  1  0  0  0  0
 13 19  2  0  0  0  0
 14 21  1  0  0  0  0
 14 22  1  0  0  0  0
 15 17  2  0  0  0  0
 16 17  1  0  0  0  0
 17 23  1  0  0  0  0
 18 20  2  0  0  0  0
 19 20  1  0  0  0  0
 21 24  1  0  0  0  0
 22 25  1  0  0  0  0
 24 26  1  0  0  0  0
 25 26  1  0  0  0  0
M  END
> <PUBCHEM_COMPOUND_ID_TYPE>
0

> <PUBCHEM_TOTAL_CHARGE>
0

> <PUBCHEM_SUBSTANCE_ID>
310932482

> <PUBCHEM_SUBSTANCE_VERSION>
1

> <PUBCHEM_EXT_DATASOURCE_NAME>
4488

> <PUBCHEM_EXT_DATASOURCE_REGID>
SCHEMBL16109854

> <PUBCHEM_SUBSTANCE_COMMENT>
InChI=1S/C23H26O4/c1-16-8-12-18(13-9-16)23(22(24)26-20-6-4-3-5-7-20)21(27-23)17-10-14-19(25-2)15-11-17/h8-15,20-21H,3-7H2,1-2H3
InChIKey=GXNITENATRSNSX-UHFFFAOYSA-N

> <PUBCHEM_SUBSTANCE_SYNONYM>
SCHEMBL16109854

> <PUBCHEM_XREF_EXT_ID>
SCHEMBL16109854

> <PUBCHEM_EXT_DATASOURCE_URL>
https://www.surechembl.org/

> <PUBCHEM_EXT_SUBSTANCE_URL>
https://www.surechembl.org/chemical/SCHEMBL16109854

> <PUBCHEM_CID_ASSOCIATIONS>
117601021  1

> <PUBCHEM_COORDINATE_TYPE>
1
3

$$$$
