310939902
  -OEChem-07211613022D

 28 30  0     1  0  0  0  0  0999 V2000
    0.7292    2.6979    0.0000 Cl  0  0  0  0  0  0  0  0  0  0  0  0
    0.7292    4.3479    0.0000 Cl  0  0  0  0  0  0  0  0  0  0  0  0
   -0.6997    1.8729    0.0000 O   0  0  0  0  0  0  0  0  0  0  0  0
   -2.1287    4.3479    0.0000 O   0  0  0  0  0  0  0  0  0  0  0  0
    2.1287   -2.7541    0.0000 O   0  0  0  0  0  0  0  0  0  0  0  0
   -1.4142    0.6354    0.0000 N   0  0  0  0  0  0  0  0  0  0  0  0
   -0.4183   -1.2175    0.0000 N   0  0  0  0  0  0  0  0  0  0  0  0
    0.7484   -2.3843    0.0000 N   0  0  0  0  0  0  0  0  0  0  0  0
   -2.1287    2.6979    0.0000 N   0  0  0  0  0  0  0  0  0  0  0  0
   -1.0017   -0.6342    0.0000 C   0  0  3  0  0  0  0  0  0  0  0  0
   -0.7467    0.1505    0.0000 C   0  0  0  0  0  0  0  0  0  0  0  0
   -1.4142    1.4604    0.0000 C   0  0  0  0  0  0  0  0  0  0  0  0
   -1.4142    3.1104    0.0000 C   0  0  0  0  0  0  0  0  0  0  0  0
   -1.8267   -0.6342    0.0000 C   0  0  0  0  0  0  0  0  0  0  0  0
   -2.0816    0.1505    0.0000 C   0  0  0  0  0  0  0  0  0  0  0  0
   -1.4142    3.9354    0.0000 C   0  0  0  0  0  0  0  0  0  0  0  0
   -0.6318   -2.0144    0.0000 C   0  0  0  0  0  0  0  0  0  0  0  0
    0.3786   -1.0040    0.0000 C   0  0  0  0  0  0  0  0  0  0  0  0
    0.0148    3.1104    0.0000 C   0  0  0  0  0  0  0  0  0  0  0  0
    0.0148    3.9354    0.0000 C   0  0  0  0  0  0  0  0  0  0  0  0
   -0.6997    2.6979    0.0000 C   0  0  0  0  0  0  0  0  0  0  0  0
   -2.1287    1.8729    0.0000 C   0  0  0  0  0  0  0  0  0  0  0  0
   -0.6997    4.3479    0.0000 C   0  0  0  0  0  0  0  0  0  0  0  0
   -0.0485   -2.5978    0.0000 C   0  0  0  0  0  0  0  0  0  0  0  0
    0.9619   -1.5874    0.0000 C   0  0  0  0  0  0  0  0  0  0  0  0
    1.3318   -2.9676    0.0000 C   0  0  0  0  0  0  0  0  0  0  0  0
    1.1182   -3.7645    0.0000 C   0  0  0  0  0  0  0  0  0  0  0  0
    1.7016   -4.3479    0.0000 C   0  0  0  0  0  0  0  0  0  0  0  0
  1 19  1  0  0  0  0
  2 20  1  0  0  0  0
  3 12  2  0  0  0  0
  4 16  1  0  0  0  0
  5 26  2  0  0  0  0
  6 11  1  0  0  0  0
  6 12  1  0  0  0  0
  6 15  1  0  0  0  0
  7 10  1  0  0  0  0
  7 17  1  0  0  0  0
  7 18  1  0  0  0  0
  8 24  1  0  0  0  0
  8 25  1  0  0  0  0
  8 26  1  0  0  0  0
  9 13  1  0  0  0  0
  9 22  1  0  0  0  0
 10 11  1  0  0  0  0
 10 14  1  0  0  0  0
 12 22  1  0  0  0  0
 13 16  1  0  0  0  0
 13 21  2  0  0  0  0
 14 15  1  0  0  0  0
 16 23  2  0  0  0  0
 17 24  1  0  0  0  0
 18 25  1  0  0  0  0
 19 20  2  0  0  0  0
 19 21  1  0  0  0  0
 20 23  1  0  0  0  0
 26 27  1  0  0  0  0
 27 28  2  0  0  0  0
M  END
> <PUBCHEM_COMPOUND_ID_TYPE>
0

> <PUBCHEM_TOTAL_CHARGE>
0

> <PUBCHEM_SUBSTANCE_ID>
310939902

> <PUBCHEM_SUBSTANCE_VERSION>
1

> <PUBCHEM_EXT_DATASOURCE_NAME>
4488

> <PUBCHEM_EXT_DATASOURCE_REGID>
SCHEMBL16117832

> <PUBCHEM_SUBSTANCE_COMMENT>
InChI=1S/C19H24Cl2N4O3/c1-2-18(27)24-7-5-23(6-8-24)13-3-4-25(12-13)19(28)11-22-16-9-14(20)15(21)10-17(16)26/h2,9-10,13,22,26H,1,3-8,11-12H2
InChIKey=PHMUDUZJLVABQU-UHFFFAOYSA-N

> <PUBCHEM_SUBSTANCE_SYNONYM>
SCHEMBL16117832

> <PUBCHEM_XREF_EXT_ID>
SCHEMBL16117832

> <PUBCHEM_EXT_DATASOURCE_URL>
https://www.surechembl.org/

> <PUBCHEM_EXT_SUBSTANCE_URL>
https://www.surechembl.org/chemical/SCHEMBL16117832

> <PUBCHEM_CID_ASSOCIATIONS>
86279628  1

> <PUBCHEM_COORDINATE_TYPE>
1
3

$$$$
