310937350
  -OEChem-07211613022D

 18 20  0     1  0  0  0  0  0999 V2000
    0.4999   -0.1173    0.0000 N   0  0  0  0  0  0  0  0  0  0  0  0
    0.6562   -2.9715    0.0000 N   0  0  0  0  0  0  0  0  0  0  0  0
    3.7658   -1.5556    0.0000 N   0  0  0  0  0  0  0  0  0  0  0  0
    2.9556   -4.8586    0.0000 N   0  0  0  0  0  0  0  0  0  0  0  0
    2.1275   -1.3591    0.0000 C   0  0  0  0  0  0  0  0  0  0  0  0
    1.8015   -2.1170    0.0000 C   0  0  0  0  0  0  0  0  0  0  0  0
    1.6113   -0.9304    0.0000 C   0  0  0  0  0  0  0  0  0  0  0  0
    1.9893   -0.5417    0.0000 C   0  0  0  0  0  0  0  0  0  0  0  0
    0.6396   -0.9304    0.0000 C   0  0  3  0  0  0  0  0  0  0  0  0
    1.0605   -0.5572    0.0000 C   0  0  3  0  0  0  0  0  0  0  0  0
    2.9466   -1.4573    0.0000 C   0  0  0  0  0  0  0  0  0  0  0  0
    2.2949   -2.7782    0.0000 C   0  0  0  0  0  0  0  0  0  0  0  0
    0.9822   -2.2136    0.0000 C   0  0  0  0  0  0  0  0  0  0  0  0
    0.1197   -1.6427    0.0000 C   0  0  0  0  0  0  0  0  0  0  0  0
    0.7400   -1.2658    0.0000 C   0  0  0  0  0  0  0  0  0  0  0  0
    1.9689   -3.5361    0.0000 C   0  0  0  0  0  0  0  0  0  0  0  0
    1.1496   -3.6327    0.0000 C   0  0  0  0  0  0  0  0  0  0  0  0
    2.4622   -4.1973    0.0000 C   0  0  0  0  0  0  0  0  0  0  0  0
  9  1  1  1  0  0  0
  1 10  1  0  0  0  0
  2 13  2  0  0  0  0
  2 17  1  0  0  0  0
  3 11  3  0  0  0  0
  4 18  3  0  0  0  0
  5  6  1  0  0  0  0
  5  7  1  0  0  0  0
  5  8  1  0  0  0  0
  5 11  1  6  0  0  0
  6 12  2  0  0  0  0
  6 13  1  0  0  0  0
  7  9  1  0  0  0  0
 10  8  1  6  0  0  0
  9 14  1  0  0  0  0
 10 15  1  0  0  0  0
 12 16  1  0  0  0  0
 14 15  2  0  0  0  0
 16 17  2  0  0  0  0
 16 18  1  0  0  0  0
M  END
> <PUBCHEM_COMPOUND_ID_TYPE>
0

> <PUBCHEM_TOTAL_CHARGE>
0

> <PUBCHEM_SUBSTANCE_ID>
310937350

> <PUBCHEM_SUBSTANCE_VERSION>
1

> <PUBCHEM_EXT_DATASOURCE_NAME>
4488

> <PUBCHEM_EXT_DATASOURCE_REGID>
SCHEMBL16115106

> <PUBCHEM_SUBSTANCE_COMMENT>
InChI=1S/C14H12N4/c15-6-10-3-11(8-17-7-10)14(9-16)4-12-1-2-13(5-14)18-12/h1-3,7-8,12-13,18H,4-5H2/t12-,13+,14+
InChIKey=XIKRFKOTFJFGPY-WDNDVIMCSA-N

> <PUBCHEM_SUBSTANCE_SYNONYM>
SCHEMBL16115106

> <PUBCHEM_XREF_EXT_ID>
SCHEMBL16115106

> <PUBCHEM_EXT_DATASOURCE_URL>
https://www.surechembl.org/

> <PUBCHEM_EXT_SUBSTANCE_URL>
https://www.surechembl.org/chemical/SCHEMBL16115106

> <PUBCHEM_CID_ASSOCIATIONS>
117605123  1

> <PUBCHEM_COORDINATE_TYPE>
1
3

> <PUBCHEM_BONDANNOTATIONS>
9  1  5
5  11  6
10  8  6

$$$$
