310931272
  -OEChem-07211613022D

 24 27  0     1  0  0  0  0  0999 V2000
    4.7204   -3.0202    0.0000 O   0  0  0  0  0  0  0  0  0  0  0  0
    0.4251   -1.1857    0.0000 O   0  0  0  0  0  0  0  0  0  0  0  0
    4.4967   -4.4743    0.0000 O   0  0  0  0  0  0  0  0  0  0  0  0
    0.0000   -1.9016    0.0000 N   0  0  0  0  0  0  0  0  0  0  0  0
    3.4452   -2.5951    0.0000 C   0  0  0  0  0  0  0  0  0  0  0  0
    3.4452   -3.4676    0.0000 C   0  0  0  0  0  0  0  0  0  0  0  0
    2.7293   -2.2148    0.0000 C   0  0  0  0  0  0  0  0  0  0  0  0
    4.2282   -2.3714    0.0000 C   0  0  3  0  0  0  0  0  0  0  0  0
    2.0358   -2.5951    0.0000 C   0  0  0  0  0  0  0  0  0  0  0  0
    1.3199   -2.1924    0.0000 C   0  0  0  0  0  0  0  0  0  0  0  0
    4.2282   -3.6913    0.0000 C   0  0  0  0  0  0  0  0  0  0  0  0
    2.7293   -3.8479    0.0000 C   0  0  0  0  0  0  0  0  0  0  0  0
    4.4967   -1.5883    0.0000 C   0  0  0  0  0  0  0  0  0  0  0  0
    2.0358   -3.4676    0.0000 C   0  0  0  0  0  0  0  0  0  0  0  0
    1.2305   -1.3647    0.0000 C   0  0  0  0  0  0  0  0  0  0  0  0
    0.5593   -2.5280    0.0000 C   0  0  0  0  0  0  0  0  0  0  0  0
    2.7069   -1.3871    0.0000 C   0  0  0  0  0  0  0  0  0  0  0  0
    3.9374   -0.9620    0.0000 C   0  0  0  0  0  0  0  0  0  0  0  0
    5.3020   -1.4094    0.0000 C   0  0  0  0  0  0  0  0  0  0  0  0
    1.8344   -0.8054    0.0000 C   0  0  0  0  0  0  0  0  0  0  0  0
    0.3803   -3.3334    0.0000 C   0  0  0  0  0  0  0  0  0  0  0  0
    4.1835   -0.1790    0.0000 C   0  0  0  0  0  0  0  0  0  0  0  0
    5.5481   -0.6264    0.0000 C   0  0  0  0  0  0  0  0  0  0  0  0
    5.0112    0.0000    0.0000 C   0  0  0  0  0  0  0  0  0  0  0  0
  1  8  1  0  0  0  0
  1 11  1  0  0  0  0
  2  4  1  0  0  0  0
  2 15  1  0  0  0  0
  3 11  2  0  0  0  0
  4 16  2  0  0  0  0
  5  6  2  0  0  0  0
  5  7  1  0  0  0  0
  5  8  1  0  0  0  0
  6 11  1  0  0  0  0
  6 12  1  0  0  0  0
  7  9  2  0  0  0  0
  7 17  1  0  0  0  0
  8 13  1  0  0  0  0
  9 10  1  0  0  0  0
  9 14  1  0  0  0  0
 10 15  2  0  0  0  0
 10 16  1  0  0  0  0
 12 14  2  0  0  0  0
 13 18  2  0  0  0  0
 13 19  1  0  0  0  0
 15 20  1  0  0  0  0
 16 21  1  0  0  0  0
 18 22  1  0  0  0  0
 19 23  2  0  0  0  0
 22 24  2  0  0  0  0
 23 24  1  0  0  0  0
M  END
> <PUBCHEM_COMPOUND_ID_TYPE>
0

> <PUBCHEM_TOTAL_CHARGE>
0

> <PUBCHEM_SUBSTANCE_ID>
310931272

> <PUBCHEM_SUBSTANCE_VERSION>
1

> <PUBCHEM_EXT_DATASOURCE_NAME>
4488

> <PUBCHEM_EXT_DATASOURCE_REGID>
SCHEMBL16108587

> <PUBCHEM_SUBSTANCE_COMMENT>
InChI=1S/C20H17NO3/c1-11-15(18-12(2)21-24-13(18)3)9-10-16-17(11)19(23-20(16)22)14-7-5-4-6-8-14/h4-10,19H,1-3H3
InChIKey=IVMKXIZCOKJNRN-UHFFFAOYSA-N

> <PUBCHEM_SUBSTANCE_SYNONYM>
SCHEMBL16108587

> <PUBCHEM_XREF_EXT_ID>
SCHEMBL16108587

> <PUBCHEM_EXT_DATASOURCE_URL>
https://www.surechembl.org/

> <PUBCHEM_EXT_SUBSTANCE_URL>
https://www.surechembl.org/chemical/SCHEMBL16108587

> <PUBCHEM_CID_ASSOCIATIONS>
86295885  1

> <PUBCHEM_COORDINATE_TYPE>
1
3

$$$$
