310949967
  -OEChem-07211613022D

 29 34  0     1  0  0  0  0  0999 V2000
   -0.1387    1.8587    0.0000 N   0  0  0  0  0  0  0  0  0  0  0  0
    0.6381   -0.5132    0.0000 N   0  0  0  0  0  0  0  0  0  0  0  0
   -0.1387    3.2042    0.0000 N   0  0  0  0  0  0  0  0  0  0  0  0
    2.3580    2.5384    0.0000 N   0  0  0  0  0  0  0  0  0  0  0  0
    0.3468    2.5384    0.0000 C   0  0  0  0  0  0  0  0  0  0  0  0
    0.1248    1.0819    0.0000 C   0  0  0  0  0  0  0  0  0  0  0  0
   -0.9293    2.1222    0.0000 C   0  0  0  0  0  0  0  0  0  0  0  0
   -0.9293    2.9545    0.0000 C   0  0  0  0  0  0  0  0  0  0  0  0
   -0.1664   -0.2913    0.0000 C   0  0  3  0  0  0  0  0  0  0  0  0
    1.1652    0.1387    0.0000 C   0  0  3  0  0  0  0  0  0  0  0  0
    1.1929    2.5245    0.0000 C   0  0  0  0  0  0  0  0  0  0  0  0
   -0.4161    0.4438    0.0000 C   0  0  0  0  0  0  0  0  0  0  0  0
    0.9293    0.8877    0.0000 C   0  0  0  0  0  0  0  0  0  0  0  0
    0.8877   -1.2900    0.0000 C   0  0  0  0  0  0  0  0  0  0  0  0
    0.6519    0.5132    0.0000 C   0  0  0  0  0  0  0  0  0  0  0  0
    0.0139    0.2913    0.0000 C   0  0  0  0  0  0  0  0  0  0  0  0
   -1.6368    1.7061    0.0000 C   0  0  0  0  0  0  0  0  0  0  0  0
   -1.6368    3.3567    0.0000 C   0  0  0  0  0  0  0  0  0  0  0  0
    1.7616    3.1071    0.0000 C   0  0  0  0  0  0  0  0  0  0  0  0
    1.7894    1.9558    0.0000 C   0  0  0  0  0  0  0  0  0  0  0  0
   -2.3580    2.1222    0.0000 C   0  0  0  0  0  0  0  0  0  0  0  0
   -2.3580    2.9545    0.0000 C   0  0  0  0  0  0  0  0  0  0  0  0
    0.2635   -1.8448    0.0000 C   0  0  0  0  0  0  0  0  0  0  0  0
    1.7338   -1.3732    0.0000 C   0  0  0  0  0  0  0  0  0  0  0  0
    0.2081   -2.6632    0.0000 C   0  0  0  0  0  0  0  0  0  0  0  0
    2.2609   -1.9974    0.0000 C   0  0  0  0  0  0  0  0  0  0  0  0
    0.7352   -3.3013    0.0000 C   0  0  0  0  0  0  0  0  0  0  0  0
    2.1916   -2.8297    0.0000 C   0  0  0  0  0  0  0  0  0  0  0  0
    1.5674   -3.3567    0.0000 C   0  0  0  0  0  0  0  0  0  0  0  0
  1  5  1  0  0  0  0
  1  6  1  0  0  0  0
  1  7  1  0  0  0  0
  2  9  1  0  0  0  0
  2 10  1  0  0  0  0
  2 14  1  0  0  0  0
  3  5  2  0  0  0  0
  3  8  1  0  0  0  0
  4 19  1  0  0  0  0
  4 20  1  0  0  0  0
  5 11  1  0  0  0  0
  6 12  1  0  0  0  0
  6 13  1  0  0  0  0
  7  8  1  0  0  0  0
  7 17  2  0  0  0  0
  8 18  2  0  0  0  0
  9 12  1  0  0  0  0
  9 16  1  0  0  0  0
 10 13  1  0  0  0  0
 10 15  1  0  0  0  0
 11 19  1  0  0  0  0
 11 20  1  0  0  0  0
 14 23  1  0  0  0  0
 14 24  1  0  0  0  0
 15 16  1  0  0  0  0
 17 21  1  0  0  0  0
 18 22  1  0  0  0  0
 21 22  2  0  0  0  0
 23 25  1  0  0  0  0
 24 26  1  0  0  0  0
 25 27  1  0  0  0  0
 26 28  1  0  0  0  0
 27 29  1  0  0  0  0
 28 29  1  0  0  0  0
M  END
> <PUBCHEM_COMPOUND_ID_TYPE>
0

> <PUBCHEM_TOTAL_CHARGE>
0

> <PUBCHEM_SUBSTANCE_ID>
310949967

> <PUBCHEM_SUBSTANCE_VERSION>
1

> <PUBCHEM_EXT_DATASOURCE_NAME>
4488

> <PUBCHEM_EXT_DATASOURCE_REGID>
SCHEMBL16128196

> <PUBCHEM_SUBSTANCE_COMMENT>
InChI=1S/C25H36N4/c1-2-4-8-19(9-5-3-1)28-20-12-13-21(28)15-22(14-20)29-24-11-7-6-10-23(24)27-25(29)18-16-26-17-18/h6-7,10-11,18-22,26H,1-5,8-9,12-17H2
InChIKey=SSTIHQYUPFOPIY-UHFFFAOYSA-N

> <PUBCHEM_SUBSTANCE_SYNONYM>
SCHEMBL16128196

> <PUBCHEM_XREF_EXT_ID>
SCHEMBL16128196

> <PUBCHEM_EXT_DATASOURCE_URL>
https://www.surechembl.org/

> <PUBCHEM_EXT_SUBSTANCE_URL>
https://www.surechembl.org/chemical/SCHEMBL16128196

> <PUBCHEM_CID_ASSOCIATIONS>
86274529  1

> <PUBCHEM_COORDINATE_TYPE>
1
3

$$$$
