310932838
  -OEChem-07211613022D

 32 35  0     1  0  0  0  0  0999 V2000
    2.5368   -4.2808    0.0000 O   0  0  0  0  0  0  0  0  0  0  0  0
    5.9931   -1.1098    0.0000 O   0  0  0  0  0  0  0  0  0  0  0  0
    0.4440   -2.1879    0.0000 O   0  0  0  0  0  0  0  0  0  0  0  0
    1.7440   -2.8538    0.0000 N   0  0  0  0  0  0  0  0  0  0  0  0
    1.7757   -1.5220    0.0000 N   0  0  0  0  0  0  0  0  0  0  0  0
    3.9637   -5.1053    0.0000 N   0  0  0  0  0  0  0  0  0  0  0  0
    5.6126   -0.3805    0.0000 N   0  0  0  0  0  0  0  0  0  0  0  0
    3.2661   -3.0441    0.0000 C   0  0  0  0  0  0  0  0  0  0  0  0
    3.2661   -3.8686    0.0000 C   0  0  3  0  0  0  0  0  0  0  0  0
    2.5368   -2.6319    0.0000 C   0  0  0  0  0  0  0  0  0  0  0  0
    2.5685   -1.7757    0.0000 C   0  0  0  0  0  0  0  0  0  0  0  0
    3.9954   -1.7757    0.0000 C   0  0  0  0  0  0  0  0  0  0  0  0
    3.9637   -2.6636    0.0000 C   0  0  0  0  0  0  0  0  0  0  0  0
    3.2661   -4.6930    0.0000 C   0  0  0  0  0  0  0  0  0  0  0  0
    3.2978   -1.3952    0.0000 C   0  0  0  0  0  0  0  0  0  0  0  0
    4.6930   -1.3952    0.0000 C   0  0  0  0  0  0  0  0  0  0  0  0
    3.9954   -4.2808    0.0000 C   0  0  0  0  0  0  0  0  0  0  0  0
    1.2683   -2.1879    0.0000 C   0  0  0  0  0  0  0  0  0  0  0  0
    4.6930   -3.8686    0.0000 C   0  0  0  0  0  0  0  0  0  0  0  0
    5.4540   -1.7123    0.0000 C   0  0  0  0  0  0  0  0  0  0  0  0
    4.7881   -0.5708    0.0000 C   0  0  0  0  0  0  0  0  0  0  0  0
    2.5368   -5.1053    0.0000 C   0  0  0  0  0  0  0  0  0  0  0  0
    3.9954   -5.9296    0.0000 C   0  0  0  0  0  0  0  0  0  0  0  0
    2.5685   -5.9296    0.0000 C   0  0  0  0  0  0  0  0  0  0  0  0
    5.4223   -4.2808    0.0000 C   0  0  0  0  0  0  0  0  0  0  0  0
    4.6930   -3.0441    0.0000 C   0  0  0  0  0  0  0  0  0  0  0  0
    4.6930   -4.6930    0.0000 C   0  0  0  0  0  0  0  0  0  0  0  0
    5.6443   -2.5368    0.0000 C   0  0  0  0  0  0  0  0  0  0  0  0
    4.1857    0.0000    0.0000 C   0  0  0  0  0  0  0  0  0  0  0  0
    3.2661   -6.3419    0.0000 C   0  0  0  0  0  0  0  0  0  0  0  0
    0.0000   -2.8856    0.0000 C   0  0  0  0  0  0  0  0  0  0  0  0
    0.4122   -3.6149    0.0000 C   0  0  0  0  0  0  0  0  0  0  0  0
  1  9  1  0  0  0  0
  2  7  1  0  0  0  0
  2 20  1  0  0  0  0
  3 18  1  0  0  0  0
  3 31  1  0  0  0  0
  4 10  1  0  0  0  0
  4 18  2  0  0  0  0
  5 11  1  0  0  0  0
  5 18  1  0  0  0  0
  6 14  1  0  0  0  0
  6 23  2  0  0  0  0
  7 21  2  0  0  0  0
  8  9  1  0  0  0  0
  8 10  1  0  0  0  0
  8 13  2  0  0  0  0
  9 14  1  0  0  0  0
  9 17  1  0  0  0  0
 10 11  2  0  0  0  0
 11 15  1  0  0  0  0
 12 13  1  0  0  0  0
 12 15  2  0  0  0  0
 12 16  1  0  0  0  0
 14 22  2  0  0  0  0
 16 20  2  0  0  0  0
 16 21  1  0  0  0  0
 17 19  1  0  0  0  0
 19 25  1  0  0  0  0
 19 26  1  0  0  0  0
 19 27  1  0  0  0  0
 20 28  1  0  0  0  0
 21 29  1  0  0  0  0
 22 24  1  0  0  0  0
 23 30  1  0  0  0  0
 24 30  2  0  0  0  0
 31 32  1  0  0  0  0
M  END
> <PUBCHEM_COMPOUND_ID_TYPE>
0

> <PUBCHEM_TOTAL_CHARGE>
0

> <PUBCHEM_SUBSTANCE_ID>
310932838

> <PUBCHEM_SUBSTANCE_VERSION>
1

> <PUBCHEM_EXT_DATASOURCE_NAME>
4488

> <PUBCHEM_EXT_DATASOURCE_REGID>
SCHEMBL16110227

> <PUBCHEM_SUBSTANCE_COMMENT>
InChI=1S/C25H30N4O3/c1-7-31-23-27-19-13-17(21-15(2)29-32-16(21)3)12-18(22(19)28-23)25(30,14-24(4,5)6)20-10-8-9-11-26-20/h8-13,30H,7,14H2,1-6H3,(H,27,28)
InChIKey=RWYFEGWASRUGSL-UHFFFAOYSA-N

> <PUBCHEM_SUBSTANCE_SYNONYM>
SCHEMBL16110227

> <PUBCHEM_XREF_EXT_ID>
SCHEMBL16110227

> <PUBCHEM_EXT_DATASOURCE_URL>
https://www.surechembl.org/

> <PUBCHEM_EXT_SUBSTANCE_URL>
https://www.surechembl.org/chemical/SCHEMBL16110227

> <PUBCHEM_CID_ASSOCIATIONS>
117601326  1

> <PUBCHEM_COORDINATE_TYPE>
1
3

$$$$
