310931952
  -OEChem-07211613022D

 29 31  0     1  0  0  0  0  0999 V2000
    2.9659   -4.9312    0.0000 S   0  0  3  0  0  0  0  0  0  0  0  0
    0.6432    0.0000    0.0000 F   0  0  0  0  0  0  0  0  0  0  0  0
    0.0000   -1.3222    0.0000 F   0  0  0  0  0  0  0  0  0  0  0  0
    0.7861   -1.6437    0.0000 F   0  0  0  0  0  0  0  0  0  0  0  0
    4.3237   -7.1467    0.0000 O   0  0  0  0  0  0  0  0  0  0  0  0
    2.2512   -5.3243    0.0000 O   0  0  0  0  0  0  0  0  0  0  0  0
    1.4651   -1.1792    0.0000 O   0  0  0  0  0  0  0  0  0  0  0  0
    3.6806   -5.3243    0.0000 N   0  0  0  0  0  0  0  0  0  0  0  0
    2.5014   -4.8955    0.0000 N   0  0  0  0  0  0  0  0  0  0  0  0
    1.5008   -5.7888    0.0000 N   0  0  0  0  0  0  0  0  0  0  0  0
    3.6806   -6.1461    0.0000 C   0  0  0  0  0  0  0  0  0  0  0  0
    2.8587   -6.3248    0.0000 C   0  0  3  0  0  0  0  0  0  0  0  0
    2.3227   -5.7173    0.0000 C   0  0  0  0  0  0  0  0  0  0  0  0
    3.5376   -7.0038    0.0000 C   0  0  0  0  0  0  0  0  0  0  0  0
    4.5024   -6.3248    0.0000 C   0  0  0  0  0  0  0  0  0  0  0  0
    1.7867   -4.5024    0.0000 C   0  0  0  0  0  0  0  0  0  0  0  0
    1.7152   -3.6448    0.0000 C   0  0  0  0  0  0  0  0  0  0  0  0
    1.1792   -5.0384    0.0000 C   0  0  0  0  0  0  0  0  0  0  0  0
    2.9659   -4.0736    0.0000 C   0  0  0  0  0  0  0  0  0  0  0  0
    2.6085   -7.1109    0.0000 C   0  0  0  0  0  0  0  0  0  0  0  0
    0.9291   -3.3232    0.0000 C   0  0  0  0  0  0  0  0  0  0  0  0
    2.3584   -3.1803    0.0000 C   0  0  0  0  0  0  0  0  0  0  0  0
    1.5366   -2.0011    0.0000 C   0  0  0  0  0  0  0  0  0  0  0  0
    0.8576   -2.5014    0.0000 C   0  0  0  0  0  0  0  0  0  0  0  0
    2.2870   -2.3584    0.0000 C   0  0  0  0  0  0  0  0  0  0  0  0
    2.2512   -3.6806    0.0000 C   0  0  0  0  0  0  0  0  0  0  0  0
    3.6806   -3.6806    0.0000 C   0  0  0  0  0  0  0  0  0  0  0  0
    2.9659   -3.2518    0.0000 C   0  0  0  0  0  0  0  0  0  0  0  0
    0.7147   -0.8219    0.0000 C   0  0  0  0  0  0  0  0  0  0  0  0
  1  6  2  0  0  0  0
  1  8  1  0  0  0  0
  1 19  1  0  0  0  0
  2 29  1  0  0  0  0
  3 29  1  0  0  0  0
  4 29  1  0  0  0  0
  5 14  1  0  0  0  0
  5 15  1  0  0  0  0
  7 23  1  0  0  0  0
  7 29  1  0  0  0  0
  8 11  1  0  0  0  0
  9 13  2  0  0  0  0
  9 16  1  0  0  0  0
 10 13  1  0  0  0  0
 10 18  1  0  0  0  0
 11 12  1  0  0  0  0
 11 14  1  0  0  0  0
 11 15  1  0  0  0  0
 12 13  1  0  0  0  0
 12 20  1  0  0  0  0
 16 17  1  0  0  0  0
 16 18  2  0  0  0  0
 17 21  2  0  0  0  0
 17 22  1  0  0  0  0
 19 26  1  0  0  0  0
 19 27  1  0  0  0  0
 19 28  1  0  0  0  0
 21 24  1  0  0  0  0
 22 25  2  0  0  0  0
 23 24  2  0  0  0  0
 23 25  1  0  0  0  0
M  END
> <PUBCHEM_COMPOUND_ID_TYPE>
0

> <PUBCHEM_TOTAL_CHARGE>
0

> <PUBCHEM_SUBSTANCE_ID>
310931952

> <PUBCHEM_SUBSTANCE_VERSION>
1

> <PUBCHEM_EXT_DATASOURCE_NAME>
4488

> <PUBCHEM_EXT_DATASOURCE_REGID>
SCHEMBL16109289

> <PUBCHEM_SUBSTANCE_COMMENT>
InChI=1S/C19H24F3N3O3S/c1-12(18(10-27-11-18)25-29(26)17(2,3)4)16-23-9-15(24-16)13-5-7-14(8-6-13)28-19(20,21)22/h5-9,12,25H,10-11H2,1-4H3,(H,23,24)
InChIKey=JMOCGCXSPZUJLM-UHFFFAOYSA-N

> <PUBCHEM_SUBSTANCE_SYNONYM>
SCHEMBL16109289

> <PUBCHEM_XREF_EXT_ID>
SCHEMBL16109289

> <PUBCHEM_EXT_DATASOURCE_URL>
https://www.surechembl.org/

> <PUBCHEM_EXT_SUBSTANCE_URL>
https://www.surechembl.org/chemical/SCHEMBL16109289

> <PUBCHEM_CID_ASSOCIATIONS>
117600601  1

> <PUBCHEM_COORDINATE_TYPE>
1
3

$$$$
