310938127
  -OEChem-07211613022D

 39 43  0     1  0  0  0  0  0999 V2000
    5.0651   -5.3399    0.0000 O   0  0  0  0  0  0  0  0  0  0  0  0
    7.9314   -5.3792    0.0000 O   0  0  0  0  0  0  0  0  0  0  0  0
    7.2638   -2.5914    0.0000 N   0  0  3  0  0  0  0  0  0  0  0  0
    6.4786   -5.3399    0.0000 N   0  0  0  0  0  0  0  0  0  0  0  0
    8.6381   -6.5964    0.0000 N   0  0  0  0  0  0  0  0  0  0  0  0
    2.9055   -2.4737    0.0000 N   0  0  0  0  0  0  0  0  0  0  0  0
    2.1595   -1.2172    0.0000 N   0  0  0  0  0  0  0  0  0  0  0  0
    0.7068   -0.4319    0.0000 N   0  0  0  0  0  0  0  0  0  0  0  0
    6.4786   -3.6908    0.0000 C   0  0  0  0  0  0  0  0  0  0  0  0
    6.4786   -2.8663    0.0000 C   0  0  0  0  0  0  0  0  0  0  0  0
    5.7719   -4.0835    0.0000 C   0  0  0  0  0  0  0  0  0  0  0  0
    5.0651   -2.8663    0.0000 C   0  0  0  0  0  0  0  0  0  0  0  0
    5.7719   -2.4344    0.0000 C   0  0  0  0  0  0  0  0  0  0  0  0
    5.0651   -3.6908    0.0000 C   0  0  0  0  0  0  0  0  0  0  0  0
    7.2638   -3.9264    0.0000 C   0  0  0  0  0  0  0  0  0  0  0  0
    5.7719   -4.9080    0.0000 C   0  0  0  0  0  0  0  0  0  0  0  0
    4.3583   -2.4737    0.0000 C   0  0  0  0  0  0  0  0  0  0  0  0
    7.7743   -3.2589    0.0000 C   0  0  0  0  0  0  0  0  0  0  0  0
    7.5387   -1.8061    0.0000 C   0  0  0  0  0  0  0  0  0  0  0  0
    7.1853   -6.5964    0.0000 C   0  0  0  0  0  0  0  0  0  0  0  0
    3.6123   -2.8663    0.0000 C   0  0  0  0  0  0  0  0  0  0  0  0
    4.3191   -1.6491    0.0000 C   0  0  0  0  0  0  0  0  0  0  0  0
    7.9314   -6.2037    0.0000 C   0  0  0  0  0  0  0  0  0  0  0  0
    2.8663   -1.6491    0.0000 C   0  0  0  0  0  0  0  0  0  0  0  0
    6.4786   -6.1645    0.0000 C   0  0  0  0  0  0  0  0  0  0  0  0
    7.2246   -7.4209    0.0000 C   0  0  0  0  0  0  0  0  0  0  0  0
    3.6123   -1.2172    0.0000 C   0  0  0  0  0  0  0  0  0  0  0  0
    8.6381   -7.4209    0.0000 C   0  0  0  0  0  0  0  0  0  0  0  0
    7.9314   -7.8136    0.0000 C   0  0  0  0  0  0  0  0  0  0  0  0
    6.9890   -1.2172    0.0000 C   0  0  0  0  0  0  0  0  0  0  0  0
    8.3240   -1.6491    0.0000 C   0  0  0  0  0  0  0  0  0  0  0  0
    2.1595   -0.3927    0.0000 C   0  0  0  0  0  0  0  0  0  0  0  0
    1.4528   -1.6491    0.0000 C   0  0  0  0  0  0  0  0  0  0  0  0
    6.5179   -7.8136    0.0000 C   0  0  0  0  0  0  0  0  0  0  0  0
    9.3449   -6.1645    0.0000 C   0  0  0  0  0  0  0  0  0  0  0  0
    9.3841   -7.8528    0.0000 C   0  0  0  0  0  0  0  0  0  0  0  0
    0.7460   -1.2565    0.0000 C   0  0  0  0  0  0  0  0  0  0  0  0
    1.4135    0.0000    0.0000 C   0  0  0  0  0  0  0  0  0  0  0  0
    0.0000   -0.0393    0.0000 C   0  0  0  0  0  0  0  0  0  0  0  0
  1 16  2  0  0  0  0
  2 23  2  0  0  0  0
  3 10  1  0  0  0  0
  3 18  1  0  0  0  0
  3 19  1  0  0  0  0
  4 16  1  0  0  0  0
  4 25  1  0  0  0  0
  5 23  1  0  0  0  0
  5 28  1  0  0  0  0
  5 35  1  0  0  0  0
  6 21  1  0  0  0  0
  6 24  2  0  0  0  0
  7 24  1  0  0  0  0
  7 32  1  0  0  0  0
  7 33  1  0  0  0  0
  8 37  1  0  0  0  0
  8 38  1  0  0  0  0
  8 39  1  0  0  0  0
  9 10  2  0  0  0  0
  9 11  1  0  0  0  0
  9 15  1  0  0  0  0
 10 13  1  0  0  0  0
 11 14  2  0  0  0  0
 11 16  1  0  0  0  0
 12 13  2  0  0  0  0
 12 14  1  0  0  0  0
 12 17  1  0  0  0  0
 15 18  1  0  0  0  0
 17 21  2  0  0  0  0
 17 22  1  0  0  0  0
 19 30  1  0  0  0  0
 19 31  1  0  0  0  0
 20 23  1  0  0  0  0
 20 25  1  0  0  0  0
 20 26  2  0  0  0  0
 22 27  2  0  0  0  0
 24 27  1  0  0  0  0
 26 29  1  0  0  0  0
 26 34  1  0  0  0  0
 28 29  2  0  0  0  0
 28 36  1  0  0  0  0
 32 38  1  0  0  0  0
 33 37  1  0  0  0  0
M  END
> <PUBCHEM_COMPOUND_ID_TYPE>
0

> <PUBCHEM_TOTAL_CHARGE>
0

> <PUBCHEM_SUBSTANCE_ID>
310938127

> <PUBCHEM_SUBSTANCE_VERSION>
1

> <PUBCHEM_EXT_DATASOURCE_NAME>
4488

> <PUBCHEM_EXT_DATASOURCE_REGID>
SCHEMBL16115978

> <PUBCHEM_SUBSTANCE_COMMENT>
InChI=1S/C31H40N6O2/c1-20(2)37-10-9-25-26(30(38)33-19-27-21(3)15-22(4)35(6)31(27)39)16-24(17-28(25)37)23-7-8-29(32-18-23)36-13-11-34(5)12-14-36/h7-8,15-18,20H,9-14,19H2,1-6H3,(H,33,38)
InChIKey=VMNJUTCFLYEKTA-UHFFFAOYSA-N

> <PUBCHEM_SUBSTANCE_SYNONYM>
SCHEMBL16115978

> <PUBCHEM_XREF_EXT_ID>
SCHEMBL16115978

> <PUBCHEM_EXT_DATASOURCE_URL>
https://www.surechembl.org/

> <PUBCHEM_EXT_SUBSTANCE_URL>
https://www.surechembl.org/chemical/SCHEMBL16115978

> <PUBCHEM_CID_ASSOCIATIONS>
86274357  1

> <PUBCHEM_COORDINATE_TYPE>
1
3

$$$$
