310936333
  -OEChem-07211613022D

 22 25  0     1  0  0  0  0  0999 V2000
    3.9963   -1.3833    0.0000 S   0  0  0  0  0  0  0  0  0  0  0  0
    2.2031   -2.7411    0.0000 S   0  0  0  0  0  0  0  0  0  0  0  0
    0.8454   -0.3586    0.0000 O   0  0  0  0  0  0  0  0  0  0  0  0
    0.0000   -1.5114    0.0000 O   0  0  0  0  0  0  0  0  0  0  0  0
    3.9963   -2.7667    0.0000 N   0  0  0  0  0  0  0  0  0  0  0  0
    2.2031   -1.3833    0.0000 N   0  0  0  0  0  0  0  0  0  0  0  0
    7.6853   -0.0256    0.0000 N   0  0  0  0  0  0  0  0  0  0  0  0
    4.7905   -1.6395    0.0000 C   0  0  0  0  0  0  0  0  0  0  0  0
    3.5096   -2.0750    0.0000 C   0  0  0  0  0  0  0  0  0  0  0  0
    4.7905   -2.4849    0.0000 C   0  0  0  0  0  0  0  0  0  0  0  0
    5.5334   -1.2296    0.0000 C   0  0  0  0  0  0  0  0  0  0  0  0
    2.6898   -2.0750    0.0000 C   0  0  0  0  0  0  0  0  0  0  0  0
    6.2251   -1.6395    0.0000 C   0  0  0  0  0  0  0  0  0  0  0  0
    5.5334   -2.9204    0.0000 C   0  0  0  0  0  0  0  0  0  0  0  0
    1.4090   -1.6651    0.0000 C   0  0  3  0  0  0  0  0  0  0  0  0
    6.2251   -2.4849    0.0000 C   0  0  0  0  0  0  0  0  0  0  0  0
    5.5334   -0.4355    0.0000 C   0  0  0  0  0  0  0  0  0  0  0  0
    1.4090   -2.4849    0.0000 C   0  0  0  0  0  0  0  0  0  0  0  0
    6.9680   -1.2296    0.0000 C   0  0  0  0  0  0  0  0  0  0  0  0
    6.9680   -0.4355    0.0000 C   0  0  0  0  0  0  0  0  0  0  0  0
    0.7429   -1.1784    0.0000 C   0  0  0  0  0  0  0  0  0  0  0  0
    6.2251    0.0000    0.0000 C   0  0  0  0  0  0  0  0  0  0  0  0
  1  8  1  0  0  0  0
  1  9  1  0  0  0  0
  2 12  1  0  0  0  0
  2 18  1  0  0  0  0
  3 21  2  0  0  0  0
  4 21  1  0  0  0  0
  5  9  2  0  0  0  0
  5 10  1  0  0  0  0
  6 12  2  0  0  0  0
  6 15  1  0  0  0  0
  7 20  1  0  0  0  0
  8 10  2  0  0  0  0
  8 11  1  0  0  0  0
  9 12  1  0  0  0  0
 10 14  1  0  0  0  0
 11 13  2  0  0  0  0
 11 17  1  0  0  0  0
 13 16  1  0  0  0  0
 13 19  1  0  0  0  0
 14 16  2  0  0  0  0
 15 18  1  0  0  0  0
 15 21  1  0  0  0  0
 17 22  2  0  0  0  0
 19 20  2  0  0  0  0
 20 22  1  0  0  0  0
M  END
> <PUBCHEM_COMPOUND_ID_TYPE>
0

> <PUBCHEM_TOTAL_CHARGE>
0

> <PUBCHEM_SUBSTANCE_ID>
310936333

> <PUBCHEM_SUBSTANCE_VERSION>
1

> <PUBCHEM_EXT_DATASOURCE_NAME>
4488

> <PUBCHEM_EXT_DATASOURCE_REGID>
SCHEMBL16113963

> <PUBCHEM_SUBSTANCE_COMMENT>
InChI=1S/C15H11N3O2S2/c16-8-2-3-9-7(5-8)1-4-10-12(9)22-14(17-10)13-18-11(6-21-13)15(19)20/h1-5,11H,6,16H2,(H,19,20)
InChIKey=HGVLOHHYLUPLGT-UHFFFAOYSA-N

> <PUBCHEM_SUBSTANCE_SYNONYM>
SCHEMBL16113963

> <PUBCHEM_XREF_EXT_ID>
SCHEMBL16113963

> <PUBCHEM_EXT_DATASOURCE_URL>
https://www.surechembl.org/

> <PUBCHEM_EXT_SUBSTANCE_URL>
https://www.surechembl.org/chemical/SCHEMBL16113963

> <PUBCHEM_CID_ASSOCIATIONS>
86281713  1

> <PUBCHEM_COORDINATE_TYPE>
1
3

$$$$
