310934110
  -OEChem-07211613022D

 41 44  0     1  0  0  0  0  0999 V2000
    3.5981   -7.8220    0.0000 Cl  0  0  0  0  0  0  0  0  0  0  0  0
    0.7431   -3.6763    0.0000 O   0  0  0  0  0  0  0  0  0  0  0  0
    2.8550   -1.6426    0.0000 O   0  0  0  0  0  0  0  0  0  0  0  0
    0.0000   -6.5705    0.0000 O   0  5  0  0  0  0  0  0  0  0  0  0
    0.7040   -5.3580    0.0000 O   0  0  0  0  0  0  0  0  0  0  0  0
    5.0061   -3.7155    0.0000 O   0  0  0  0  0  0  0  0  0  0  0  0
    8.6042   -1.6426    0.0000 O   0  0  0  0  0  0  0  0  0  0  0  0
    7.9002   -0.4302    0.0000 O   0  0  0  0  0  0  0  0  0  0  0  0
    2.1510   -3.7155    0.0000 N   0  0  0  0  0  0  0  0  0  0  0  0
    0.7040   -6.1794    0.0000 N   0  3  0  0  0  0  0  0  0  0  0  0
    3.5981   -2.8942    0.0000 N   0  0  0  0  0  0  0  0  0  0  0  0
    4.3021   -2.4639    0.0000 N   0  0  0  0  0  0  0  0  0  0  0  0
    2.1510   -5.3580    0.0000 C   0  0  0  0  0  0  0  0  0  0  0  0
    2.1510   -6.1794    0.0000 C   0  0  0  0  0  0  0  0  0  0  0  0
    1.4471   -4.1066    0.0000 C   0  0  0  0  0  0  0  0  0  0  0  0
    2.1510   -2.8942    0.0000 C   0  0  3  0  0  0  0  0  0  0  0  0
    1.4471   -6.6096    0.0000 C   0  0  0  0  0  0  0  0  0  0  0  0
    1.4079   -4.9279    0.0000 C   0  0  0  0  0  0  0  0  0  0  0  0
    2.8550   -4.9670    0.0000 C   0  0  0  0  0  0  0  0  0  0  0  0
    2.8942   -4.1066    0.0000 C   0  0  0  0  0  0  0  0  0  0  0  0
    2.8550   -6.6096    0.0000 C   0  0  0  0  0  0  0  0  0  0  0  0
    2.8550   -2.4639    0.0000 C   0  0  0  0  0  0  0  0  0  0  0  0
    1.4471   -7.3918    0.0000 C   0  0  0  0  0  0  0  0  0  0  0  0
    2.8550   -7.3918    0.0000 C   0  0  0  0  0  0  0  0  0  0  0  0
    1.4471   -2.4639    0.0000 C   0  0  0  0  0  0  0  0  0  0  0  0
    2.1510   -7.8220    0.0000 C   0  0  0  0  0  0  0  0  0  0  0  0
    1.4471   -1.6426    0.0000 C   0  0  0  0  0  0  0  0  0  0  0  0
    5.0061   -2.8942    0.0000 C   0  0  0  0  0  0  0  0  0  0  0  0
    5.7492   -2.4639    0.0000 C   0  0  0  0  0  0  0  0  0  0  0  0
    0.7431   -1.2124    0.0000 C   0  0  0  0  0  0  0  0  0  0  0  0
    2.1510   -1.2124    0.0000 C   0  0  0  0  0  0  0  0  0  0  0  0
    7.1571   -1.6426    0.0000 C   0  0  0  0  0  0  0  0  0  0  0  0
    5.7492   -1.6426    0.0000 C   0  0  0  0  0  0  0  0  0  0  0  0
    6.4531   -2.8942    0.0000 C   0  0  0  0  0  0  0  0  0  0  0  0
    6.4531   -1.2515    0.0000 C   0  0  0  0  0  0  0  0  0  0  0  0
    7.1571   -2.4639    0.0000 C   0  0  0  0  0  0  0  0  0  0  0  0
    7.9002   -1.2515    0.0000 C   0  0  0  0  0  0  0  0  0  0  0  0
    0.7431   -0.4302    0.0000 C   0  0  0  0  0  0  0  0  0  0  0  0
    2.1510   -0.4302    0.0000 C   0  0  0  0  0  0  0  0  0  0  0  0
    1.4471    0.0000    0.0000 C   0  0  0  0  0  0  0  0  0  0  0  0
    9.3081   -1.2515    0.0000 C   0  0  0  0  0  0  0  0  0  0  0  0
  1 24  1  0  0  0  0
  2 15  2  0  0  0  0
  3 22  2  0  0  0  0
  4 10  1  0  0  0  0
  5 10  2  0  0  0  0
  6 28  2  0  0  0  0
  7 37  1  0  0  0  0
  7 41  1  0  0  0  0
  8 37  2  0  0  0  0
  9 15  1  0  0  0  0
  9 16  1  0  0  0  0
  9 20  1  0  0  0  0
 10 17  1  0  0  0  0
 11 12  1  0  0  0  0
 11 22  1  0  0  0  0
 12 28  1  0  0  0  0
 13 14  1  0  0  0  0
 13 18  2  0  0  0  0
 13 19  1  0  0  0  0
 14 17  1  0  0  0  0
 14 21  2  0  0  0  0
 15 18  1  0  0  0  0
 16 22  1  0  0  0  0
 16 25  1  0  0  0  0
 17 23  2  0  0  0  0
 19 20  2  0  0  0  0
 21 24  1  0  0  0  0
 23 26  1  0  0  0  0
 24 26  2  0  0  0  0
 25 27  1  0  0  0  0
 27 30  2  0  0  0  0
 27 31  1  0  0  0  0
 28 29  1  0  0  0  0
 29 33  2  0  0  0  0
 29 34  1  0  0  0  0
 30 38  1  0  0  0  0
 31 39  2  0  0  0  0
 32 35  2  0  0  0  0
 32 36  1  0  0  0  0
 32 37  1  0  0  0  0
 33 35  1  0  0  0  0
 34 36  2  0  0  0  0
 38 40  2  0  0  0  0
 39 40  1  0  0  0  0
M  CHG  2   4  -1  10   1
M  END
> <PUBCHEM_COMPOUND_ID_TYPE>
0

> <PUBCHEM_TOTAL_CHARGE>
0

> <PUBCHEM_SUBSTANCE_ID>
310934110

> <PUBCHEM_SUBSTANCE_VERSION>
1

> <PUBCHEM_EXT_DATASOURCE_NAME>
4488

> <PUBCHEM_EXT_DATASOURCE_REGID>
SCHEMBL16111556

> <PUBCHEM_SUBSTANCE_COMMENT>
InChI=1S/C29H23ClN4O7/c1-41-29(38)20-9-7-19(8-10-20)27(36)31-32-28(37)25(15-18-5-3-2-4-6-18)33-14-13-21(16-26(33)35)23-17-22(30)11-12-24(23)34(39)40/h2-14,16-17,25H,15H2,1H3,(H,31,36)(H,32,37)
InChIKey=JDEDVJUDHWXCLB-UHFFFAOYSA-N

> <PUBCHEM_SUBSTANCE_SYNONYM>
SCHEMBL16111556

> <PUBCHEM_XREF_EXT_ID>
SCHEMBL16111556

> <PUBCHEM_EXT_DATASOURCE_URL>
https://www.surechembl.org/

> <PUBCHEM_EXT_SUBSTANCE_URL>
https://www.surechembl.org/chemical/SCHEMBL16111556

> <PUBCHEM_CID_ASSOCIATIONS>
117602389  1

> <PUBCHEM_COORDINATE_TYPE>
1
3

$$$$
