310939074
  -OEChem-07211613022D

 22 23  0     1  0  0  0  0  0999 V2000
    2.1434   -0.0030    0.0000 O   0  0  0  0  0  0  0  0  0  0  0  0
    0.7615   -0.0755    0.0000 O   0  0  0  0  0  0  0  0  0  0  0  0
    3.5253   -0.0755    0.0000 O   0  0  0  0  0  0  0  0  0  0  0  0
   -2.8109    1.1620    0.0000 C   0  0  0  0  0  0  0  0  0  0  0  0
   -2.0964    0.7495    0.0000 C   0  0  0  0  0  0  0  0  0  0  0  0
   -2.0964   -0.0755    0.0000 C   0  0  0  0  0  0  0  0  0  0  0  0
    1.4760   -0.4880    0.0000 C   0  0  3  0  0  0  0  0  0  0  0  0
    2.8109   -0.4880    0.0000 C   0  0  0  0  0  0  0  0  0  0  0  0
    2.5559   -1.2726    0.0000 C   0  0  0  0  0  0  0  0  0  0  0  0
   -3.5253    0.7495    0.0000 C   0  0  0  0  0  0  0  0  0  0  0  0
   -1.3819    1.1620    0.0000 C   0  0  0  0  0  0  0  0  0  0  0  0
    1.7309   -1.2726    0.0000 C   0  0  0  0  0  0  0  0  0  0  0  0
   -2.8109   -0.4880    0.0000 C   0  0  0  0  0  0  0  0  0  0  0  0
   -3.5253   -0.0755    0.0000 C   0  0  0  0  0  0  0  0  0  0  0  0
   -2.8109    1.9870    0.0000 C   0  0  0  0  0  0  0  0  0  0  0  0
   -2.8109    0.3370    0.0000 C   0  0  0  0  0  0  0  0  0  0  0  0
   -0.6674    0.7495    0.0000 C   0  0  0  0  0  0  0  0  0  0  0  0
    0.0470    1.1620    0.0000 C   0  0  0  0  0  0  0  0  0  0  0  0
    0.7615    0.7495    0.0000 C   0  0  0  0  0  0  0  0  0  0  0  0
   -1.3819   -0.4880    0.0000 C   0  0  0  0  0  0  0  0  0  0  0  0
    2.9684   -1.9870    0.0000 C   0  0  0  0  0  0  0  0  0  0  0  0
    0.0470    1.9870    0.0000 C   0  0  0  0  0  0  0  0  0  0  0  0
  1  7  1  0  0  0  0
  1  8  1  0  0  0  0
  2  7  1  0  0  0  0
  2 19  1  0  0  0  0
  3  8  2  0  0  0  0
  4  5  1  0  0  0  0
  4 10  1  0  0  0  0
  4 15  1  0  0  0  0
  4 16  1  0  0  0  0
  5  6  2  0  0  0  0
  5 11  1  0  0  0  0
  6 13  1  0  0  0  0
  6 20  1  0  0  0  0
  7 12  1  0  0  0  0
  8  9  1  0  0  0  0
  9 12  2  0  0  0  0
  9 21  1  0  0  0  0
 10 14  1  0  0  0  0
 11 17  2  0  0  0  0
 13 14  1  0  0  0  0
 17 18  1  0  0  0  0
 18 19  2  0  0  0  0
 18 22  1  0  0  0  0
M  END
> <PUBCHEM_COMPOUND_ID_TYPE>
0

> <PUBCHEM_TOTAL_CHARGE>
0

> <PUBCHEM_SUBSTANCE_ID>
310939074

> <PUBCHEM_SUBSTANCE_VERSION>
1

> <PUBCHEM_EXT_DATASOURCE_NAME>
4488

> <PUBCHEM_EXT_DATASOURCE_REGID>
SCHEMBL16116993

> <PUBCHEM_SUBSTANCE_COMMENT>
InChI=1S/C19H26O3/c1-13(12-21-17-11-15(3)18(20)22-17)8-9-16-14(2)7-6-10-19(16,4)5/h8-9,11-12,17H,6-7,10H2,1-5H3/b9-8+,13-12-
InChIKey=OTIYLZVFQIMLQH-FRGMPSNRSA-N

> <PUBCHEM_SUBSTANCE_SYNONYM>
SCHEMBL16116993

> <PUBCHEM_XREF_EXT_ID>
SCHEMBL16116993

> <PUBCHEM_EXT_DATASOURCE_URL>
https://www.surechembl.org/

> <PUBCHEM_EXT_SUBSTANCE_URL>
https://www.surechembl.org/chemical/SCHEMBL16116993

> <PUBCHEM_CID_ASSOCIATIONS>
66559276  1

> <PUBCHEM_COORDINATE_TYPE>
1
3

$$$$
