310949442
  -OEChem-07211613022D

 30 32  0     1  0  0  0  0  0999 V2000
   -1.0113    1.4332    0.0000 F   0  0  0  0  0  0  0  0  0  0  0  0
   -0.7880    2.2398    0.0000 F   0  0  0  0  0  0  0  0  0  0  0  0
    0.0062    2.4508    0.0000 F   0  0  0  0  0  0  0  0  0  0  0  0
    2.5500    0.9121    0.0000 O   0  0  0  0  0  0  0  0  0  0  0  0
    1.0237   -1.7807    0.0000 N   0  0  0  0  0  0  0  0  0  0  0  0
    0.6639   -2.4508    0.0000 N   0  0  0  0  0  0  0  0  0  0  0  0
   -1.6814   -1.3712    0.0000 N   0  0  3  0  0  0  0  0  0  0  0  0
    3.5303   -1.0610    0.0000 N   0  0  0  0  0  0  0  0  0  0  0  0
   -3.8281   -0.9617    0.0000 N   0  0  0  0  0  0  0  0  0  0  0  0
    0.7508   -0.3164    0.0000 C   0  0  0  0  0  0  0  0  0  0  0  0
    0.5274   -1.1230    0.0000 C   0  0  0  0  0  0  0  0  0  0  0  0
    1.5449   -0.0931    0.0000 C   0  0  0  0  0  0  0  0  0  0  0  0
    0.3909    1.0734    0.0000 C   0  0  0  0  0  0  0  0  0  0  0  0
    1.7683    0.7011    0.0000 C   0  0  0  0  0  0  0  0  0  0  0  0
    0.1799    0.2668    0.0000 C   0  0  0  0  0  0  0  0  0  0  0  0
   -0.2544   -1.3712    0.0000 C   0  0  0  0  0  0  0  0  0  0  0  0
    1.1726    1.2719    0.0000 C   0  0  0  0  0  0  0  0  0  0  0  0
   -0.2172    1.6690    0.0000 C   0  0  0  0  0  0  0  0  0  0  0  0
   -0.2544   -2.1901    0.0000 C   0  0  0  0  0  0  0  0  0  0  0  0
   -0.9741   -0.9617    0.0000 C   0  0  0  0  0  0  0  0  0  0  0  0
    2.1406   -0.6887    0.0000 C   0  0  0  0  0  0  0  0  0  0  0  0
    3.1581    0.3288    0.0000 C   0  0  0  0  0  0  0  0  0  0  0  0
    2.9347   -0.4777    0.0000 C   0  0  0  0  0  0  0  0  0  0  0  0
    3.9398    0.5398    0.0000 C   0  0  0  0  0  0  0  0  0  0  0  0
   -2.4135   -0.9617    0.0000 C   0  0  0  0  0  0  0  0  0  0  0  0
    4.5354   -0.0434    0.0000 C   0  0  0  0  0  0  0  0  0  0  0  0
   -1.6690   -2.2026    0.0000 C   0  0  0  0  0  0  0  0  0  0  0  0
    4.3121   -0.8500    0.0000 C   0  0  0  0  0  0  0  0  0  0  0  0
   -3.1084   -1.3712    0.0000 C   0  0  0  0  0  0  0  0  0  0  0  0
   -4.5354   -1.3836    0.0000 C   0  0  0  0  0  0  0  0  0  0  0  0
  1 18  1  0  0  0  0
  2 18  1  0  0  0  0
  3 18  1  0  0  0  0
  4 14  1  0  0  0  0
  4 22  1  0  0  0  0
  5  6  1  0  0  0  0
  5 11  2  0  0  0  0
  6 19  1  0  0  0  0
  7 20  1  0  0  0  0
  7 25  1  0  0  0  0
  7 27  1  0  0  0  0
  8 23  2  0  0  0  0
  8 28  1  0  0  0  0
  9 29  1  0  0  0  0
  9 30  1  0  0  0  0
 10 11  1  0  0  0  0
 10 12  2  0  0  0  0
 10 15  1  0  0  0  0
 11 16  1  0  0  0  0
 12 14  1  0  0  0  0
 12 21  1  0  0  0  0
 13 15  2  0  0  0  0
 13 17  1  0  0  0  0
 13 18  1  0  0  0  0
 14 17  2  0  0  0  0
 16 19  2  0  0  0  0
 16 20  1  0  0  0  0
 22 23  1  0  0  0  0
 22 24  2  0  0  0  0
 24 26  1  0  0  0  0
 25 29  1  0  0  0  0
 26 28  2  0  0  0  0
M  END
> <PUBCHEM_COMPOUND_ID_TYPE>
0

> <PUBCHEM_TOTAL_CHARGE>
0

> <PUBCHEM_SUBSTANCE_ID>
310949442

> <PUBCHEM_SUBSTANCE_VERSION>
1

> <PUBCHEM_EXT_DATASOURCE_NAME>
4488

> <PUBCHEM_EXT_DATASOURCE_REGID>
SCHEMBL16127636

> <PUBCHEM_SUBSTANCE_COMMENT>
InChI=1S/C21H24F3N5O/c1-14-18(20-15(11-27-28-20)13-29(3)8-7-25-2)9-16(21(22,23)24)10-19(14)30-17-5-4-6-26-12-17/h4-6,9-12,25H,7-8,13H2,1-3H3,(H,27,28)
InChIKey=QLNHFRIDSFXLEH-UHFFFAOYSA-N

> <PUBCHEM_SUBSTANCE_SYNONYM>
SCHEMBL16127636

> <PUBCHEM_XREF_EXT_ID>
SCHEMBL16127636

> <PUBCHEM_EXT_DATASOURCE_URL>
https://www.surechembl.org/

> <PUBCHEM_EXT_SUBSTANCE_URL>
https://www.surechembl.org/chemical/SCHEMBL16127636

> <PUBCHEM_CID_ASSOCIATIONS>
85473405  1

> <PUBCHEM_COORDINATE_TYPE>
1
3

$$$$
