310931765
  -OEChem-07211613022D

 30 34  0     1  0  0  0  0  0999 V2000
    5.9547   -3.1134    0.0000 O   0  0  0  0  0  0  0  0  0  0  0  0
    6.9824   -2.0554    0.0000 N   0  0  0  0  0  0  0  0  0  0  0  0
    6.1663   -0.9975    0.0000 N   0  0  0  0  0  0  0  0  0  0  0  0
    7.5869   -0.7255    0.0000 N   0  0  0  0  0  0  0  0  0  0  0  0
    0.0000   -1.6625    0.0000 N   0  0  0  0  0  0  0  0  0  0  0  0
    5.7129   -1.6625    0.0000 C   0  0  3  0  0  0  0  0  0  0  0  0
    6.1965   -2.3274    0.0000 C   0  0  0  0  0  0  0  0  0  0  0  0
    5.3502   -2.3879    0.0000 C   0  0  0  0  0  0  0  0  0  0  0  0
    4.9875   -1.2393    0.0000 C   0  0  0  0  0  0  0  0  0  0  0  0
    6.9522   -1.2091    0.0000 C   0  0  0  0  0  0  0  0  0  0  0  0
    5.4106   -3.2040    0.0000 C   0  0  0  0  0  0  0  0  0  0  0  0
    4.6550   -2.8715    0.0000 C   0  0  0  0  0  0  0  0  0  0  0  0
    7.6474   -2.5088    0.0000 C   0  0  0  0  0  0  0  0  0  0  0  0
    4.2922   -1.6625    0.0000 C   0  0  0  0  0  0  0  0  0  0  0  0
    4.9875   -0.4232    0.0000 C   0  0  0  0  0  0  0  0  0  0  0  0
    3.5668   -1.2695    0.0000 C   0  0  0  0  0  0  0  0  0  0  0  0
    4.2620    0.0000    0.0000 C   0  0  0  0  0  0  0  0  0  0  0  0
    8.4333   -2.1763    0.0000 C   0  0  0  0  0  0  0  0  0  0  0  0
    7.6171   -3.3249    0.0000 C   0  0  0  0  0  0  0  0  0  0  0  0
    3.5668   -0.4232    0.0000 C   0  0  0  0  0  0  0  0  0  0  0  0
    2.8715   -1.6625    0.0000 C   0  0  0  0  0  0  0  0  0  0  0  0
    9.0681   -2.6297    0.0000 C   0  0  0  0  0  0  0  0  0  0  0  0
    8.2821   -3.8086    0.0000 C   0  0  0  0  0  0  0  0  0  0  0  0
    2.1461   -1.2695    0.0000 C   0  0  0  0  0  0  0  0  0  0  0  0
    2.8715   -2.5088    0.0000 C   0  0  0  0  0  0  0  0  0  0  0  0
    9.0378   -3.4459    0.0000 C   0  0  0  0  0  0  0  0  0  0  0  0
    1.4207   -1.6625    0.0000 C   0  0  0  0  0  0  0  0  0  0  0  0
    2.1461   -2.9018    0.0000 C   0  0  0  0  0  0  0  0  0  0  0  0
    1.4207   -2.5088    0.0000 C   0  0  0  0  0  0  0  0  0  0  0  0
    0.7255   -1.2695    0.0000 C   0  0  0  0  0  0  0  0  0  0  0  0
  1  7  2  0  0  0  0
  2  7  1  0  0  0  0
  2 10  1  0  0  0  0
  2 13  1  0  0  0  0
  3  6  1  0  0  0  0
  3 10  1  0  0  0  0
  4 10  2  3  0  0  0
  5 30  3  0  0  0  0
  6  7  1  0  0  0  0
  6  8  1  0  0  0  0
  6  9  1  0  0  0  0
  8 11  1  0  0  0  0
  8 12  1  0  0  0  0
  9 14  2  0  0  0  0
  9 15  1  0  0  0  0
 11 12  1  0  0  0  0
 13 18  1  0  0  0  0
 13 19  1  0  0  0  0
 14 16  1  0  0  0  0
 15 17  2  0  0  0  0
 16 20  2  0  0  0  0
 16 21  1  0  0  0  0
 17 20  1  0  0  0  0
 18 22  1  0  0  0  0
 19 23  1  0  0  0  0
 21 24  1  0  0  0  0
 21 25  2  0  0  0  0
 22 26  1  0  0  0  0
 23 26  1  0  0  0  0
 24 27  2  0  0  0  0
 25 28  1  0  0  0  0
 27 29  1  0  0  0  0
 27 30  1  0  0  0  0
 28 29  2  0  0  0  0
M  END
> <PUBCHEM_COMPOUND_ID_TYPE>
0

> <PUBCHEM_TOTAL_CHARGE>
0

> <PUBCHEM_SUBSTANCE_ID>
310931765

> <PUBCHEM_SUBSTANCE_VERSION>
1

> <PUBCHEM_EXT_DATASOURCE_NAME>
4488

> <PUBCHEM_EXT_DATASOURCE_REGID>
SCHEMBL16109094

> <PUBCHEM_SUBSTANCE_COMMENT>
InChI=1S/C25H26N4O/c26-16-17-6-4-7-18(14-17)19-8-5-9-21(15-19)25(20-12-13-20)23(30)29(24(27)28-25)22-10-2-1-3-11-22/h4-9,14-15,20,22H,1-3,10-13H2,(H2,27,28)
InChIKey=CVJWKPRTKIYMOI-UHFFFAOYSA-N

> <PUBCHEM_SUBSTANCE_SYNONYM>
SCHEMBL16109094

> <PUBCHEM_XREF_EXT_ID>
SCHEMBL16109094

> <PUBCHEM_EXT_DATASOURCE_URL>
https://www.surechembl.org/

> <PUBCHEM_EXT_SUBSTANCE_URL>
https://www.surechembl.org/chemical/SCHEMBL16109094

> <PUBCHEM_CID_ASSOCIATIONS>
86273841  1

> <PUBCHEM_COORDINATE_TYPE>
1
3

$$$$
