310947040
  -OEChem-07211613022D

 34 38  0     1  0  0  0  0  0999 V2000
    1.5086    1.0313    0.0000 O   0  0  0  0  0  0  0  0  0  0  0  0
   -2.7782   -2.2687    0.0000 O   0  0  0  0  0  0  0  0  0  0  0  0
   -4.2071    0.2062    0.0000 O   0  0  0  0  0  0  0  0  0  0  0  0
    0.0797    0.2062    0.0000 N   0  0  0  0  0  0  0  0  0  0  0  0
    1.5086    0.2062    0.0000 N   0  0  0  0  0  0  0  0  0  0  0  0
    1.5086   -1.4437    0.0000 N   0  0  0  0  0  0  0  0  0  0  0  0
   -1.3492    0.2062    0.0000 N   0  0  0  0  0  0  0  0  0  0  0  0
    3.7222    1.2862    0.0000 N   0  0  0  0  0  0  0  0  0  0  0  0
    4.2071    0.6187    0.0000 N   0  0  0  0  0  0  0  0  0  0  0  0
    0.7942   -0.2062    0.0000 C   0  0  0  0  0  0  0  0  0  0  0  0
    0.7942   -1.0313    0.0000 C   0  0  0  0  0  0  0  0  0  0  0  0
   -0.6348   -0.2062    0.0000 C   0  0  0  0  0  0  0  0  0  0  0  0
    2.2231   -0.2062    0.0000 C   0  0  0  0  0  0  0  0  0  0  0  0
    0.0797   -1.4437    0.0000 C   0  0  0  0  0  0  0  0  0  0  0  0
   -0.6348   -1.0313    0.0000 C   0  0  0  0  0  0  0  0  0  0  0  0
    2.9376    0.2062    0.0000 C   0  0  0  0  0  0  0  0  0  0  0  0
    0.0797    1.0313    0.0000 C   0  0  0  0  0  0  0  0  0  0  0  0
    2.2231   -1.0313    0.0000 C   0  0  0  0  0  0  0  0  0  0  0  0
   -2.0637   -0.2062    0.0000 C   0  0  0  0  0  0  0  0  0  0  0  0
    0.7942    1.4437    0.0000 C   0  0  3  0  0  0  0  0  0  0  0  0
    2.9376    1.0313    0.0000 C   0  0  0  0  0  0  0  0  0  0  0  0
    3.7222   -0.0487    0.0000 C   0  0  0  0  0  0  0  0  0  0  0  0
   -2.7782    0.2063    0.0000 C   0  0  0  0  0  0  0  0  0  0  0  0
   -2.0637   -1.0313    0.0000 C   0  0  0  0  0  0  0  0  0  0  0  0
   -2.7782   -1.4437    0.0000 C   0  0  0  0  0  0  0  0  0  0  0  0
   -3.4927   -0.2062    0.0000 C   0  0  0  0  0  0  0  0  0  0  0  0
   -3.4927   -1.0313    0.0000 C   0  0  0  0  0  0  0  0  0  0  0  0
    0.7942    2.2687    0.0000 C   0  0  0  0  0  0  0  0  0  0  0  0
    2.2231    1.4437    0.0000 C   0  0  0  0  0  0  0  0  0  0  0  0
    1.5086    2.6812    0.0000 C   0  0  0  0  0  0  0  0  0  0  0  0
    4.1347    2.0007    0.0000 C   0  0  0  0  0  0  0  0  0  0  0  0
    2.2231    2.2687    0.0000 C   0  0  0  0  0  0  0  0  0  0  0  0
   -3.4927   -2.6812    0.0000 C   0  0  0  0  0  0  0  0  0  0  0  0
   -4.2071    1.0313    0.0000 C   0  0  0  0  0  0  0  0  0  0  0  0
  1 20  1  0  0  0  0
  1 29  1  0  0  0  0
  2 25  1  0  0  0  0
  2 33  1  0  0  0  0
  3 26  1  0  0  0  0
  3 34  1  0  0  0  0
  4 10  1  0  0  0  0
  4 12  1  0  0  0  0
  4 17  1  0  0  0  0
  5 10  1  0  0  0  0
  5 13  2  0  0  0  0
  6 11  1  0  0  0  0
  6 18  2  0  0  0  0
  7 12  2  0  0  0  0
  7 19  1  0  0  0  0
  8  9  1  0  0  0  0
  8 21  1  0  0  0  0
  8 31  1  0  0  0  0
  9 22  2  0  0  0  0
 10 11  2  0  0  0  0
 11 14  1  0  0  0  0
 12 15  1  0  0  0  0
 13 16  1  0  0  0  0
 13 18  1  0  0  0  0
 14 15  2  0  0  0  0
 16 21  2  0  0  0  0
 16 22  1  0  0  0  0
 17 20  1  0  0  0  0
 19 23  2  0  0  0  0
 19 24  1  0  0  0  0
 20 28  1  0  0  0  0
 23 26  1  0  0  0  0
 24 25  2  0  0  0  0
 25 27  1  0  0  0  0
 26 27  2  0  0  0  0
 28 30  1  0  0  0  0
 29 32  1  0  0  0  0
 30 32  1  0  0  0  0
M  END
> <PUBCHEM_COMPOUND_ID_TYPE>
0

> <PUBCHEM_TOTAL_CHARGE>
0

> <PUBCHEM_SUBSTANCE_ID>
310947040

> <PUBCHEM_SUBSTANCE_VERSION>
1

> <PUBCHEM_EXT_DATASOURCE_NAME>
4488

> <PUBCHEM_EXT_DATASOURCE_REGID>
SCHEMBL16125193

> <PUBCHEM_SUBSTANCE_COMMENT>
InChI=1S/C25H28N6O3/c1-30-15-17(13-27-30)23-14-26-22-7-8-24(28-18-10-20(32-2)12-21(11-18)33-3)31(25(22)29-23)16-19-6-4-5-9-34-19/h7-8,10-15,19H,4-6,9,16H2,1-3H3/b28-24+
InChIKey=HIQDTXGCDQRLQX-ZZIIXHQDSA-N

> <PUBCHEM_SUBSTANCE_SYNONYM>
SCHEMBL16125193

> <PUBCHEM_XREF_EXT_ID>
SCHEMBL16125193

> <PUBCHEM_EXT_DATASOURCE_URL>
https://www.surechembl.org/

> <PUBCHEM_EXT_SUBSTANCE_URL>
https://www.surechembl.org/chemical/SCHEMBL16125193

> <PUBCHEM_CID_ASSOCIATIONS>
117612891  1

> <PUBCHEM_COORDINATE_TYPE>
1
3

$$$$
