310939063
  -OEChem-07211613022D

 34 33  0     1  0  0  0  0  0999 V2000
   -2.5005    0.2063    0.0000 O   0  0  0  0  0  0  0  0  0  0  0  0
    2.5005   -0.2063    0.0000 O   0  0  0  0  0  0  0  0  0  0  0  0
   -3.2150    1.4437    0.0000 O   0  0  0  0  0  0  0  0  0  0  0  0
    3.2150   -1.4437    0.0000 O   0  0  0  0  0  0  0  0  0  0  0  0
   -3.2150   -1.8562    0.0000 O   0  0  0  0  0  0  0  0  0  0  0  0
    4.6439    1.8562    0.0000 O   0  0  0  0  0  0  0  0  0  0  0  0
   -3.9294   -0.6187    0.0000 N   0  0  0  0  0  0  0  0  0  0  0  0
    3.9294    0.6187    0.0000 N   0  0  0  0  0  0  0  0  0  0  0  0
   -3.9294    0.2063    0.0000 C   0  0  3  0  0  0  0  0  0  0  0  0
    3.9294   -0.2063    0.0000 C   0  0  3  0  0  0  0  0  0  0  0  0
   -3.2150    0.6187    0.0000 C   0  0  0  0  0  0  0  0  0  0  0  0
    3.2150   -0.6187    0.0000 C   0  0  0  0  0  0  0  0  0  0  0  0
   -4.6439    0.6187    0.0000 C   0  0  0  0  0  0  0  0  0  0  0  0
    4.6439   -0.6187    0.0000 C   0  0  0  0  0  0  0  0  0  0  0  0
   -3.2150   -1.0313    0.0000 C   0  0  0  0  0  0  0  0  0  0  0  0
    4.6439    1.0313    0.0000 C   0  0  0  0  0  0  0  0  0  0  0  0
   -2.5005   -0.6187    0.0000 C   0  0  0  0  0  0  0  0  0  0  0  0
   -1.7862   -0.2063    0.0000 C   0  0  0  0  0  0  0  0  0  0  0  0
   -5.3583    0.2063    0.0000 C   0  0  0  0  0  0  0  0  0  0  0  0
   -4.6439    1.4437    0.0000 C   0  0  0  0  0  0  0  0  0  0  0  0
    1.7862    0.2063    0.0000 C   0  0  0  0  0  0  0  0  0  0  0  0
    4.6439   -1.4437    0.0000 C   0  0  0  0  0  0  0  0  0  0  0  0
    5.3583   -0.2063    0.0000 C   0  0  0  0  0  0  0  0  0  0  0  0
   -1.0716    0.2063    0.0000 C   0  0  0  0  0  0  0  0  0  0  0  0
   -1.7334   -1.0617    0.0000 C   0  0  0  0  0  0  0  0  0  0  0  0
    1.0716   -0.2063    0.0000 C   0  0  0  0  0  0  0  0  0  0  0  0
    5.3583    0.6187    0.0000 C   0  0  0  0  0  0  0  0  0  0  0  0
   -0.3573   -0.2063    0.0000 C   0  0  0  0  0  0  0  0  0  0  0  0
    0.3573    0.2063    0.0000 C   0  0  0  0  0  0  0  0  0  0  0  0
   -0.9662   -0.6187    0.0000 C   0  0  0  0  0  0  0  0  0  0  0  0
   -0.1990   -1.0617    0.0000 C   0  0  0  0  0  0  0  0  0  0  0  0
    0.5683   -0.6187    0.0000 C   0  0  0  0  0  0  0  0  0  0  0  0
    1.3354   -1.0617    0.0000 C   0  0  0  0  0  0  0  0  0  0  0  0
    2.1026   -0.6187    0.0000 C   0  0  0  0  0  0  0  0  0  0  0  0
  1 11  1  0  0  0  0
  1 18  1  0  0  0  0
  2 12  1  0  0  0  0
  2 21  1  0  0  0  0
  3 11  2  0  0  0  0
  4 12  2  0  0  0  0
  5 15  2  0  0  0  0
  6 16  2  0  0  0  0
  7  9  1  0  0  0  0
  7 15  1  0  0  0  0
  8 10  1  0  0  0  0
  8 16  1  0  0  0  0
  9 11  1  0  0  0  0
  9 13  1  0  0  0  0
 10 12  1  0  0  0  0
 10 14  1  0  0  0  0
 13 19  1  0  0  0  0
 13 20  1  0  0  0  0
 14 22  1  0  0  0  0
 14 23  1  0  0  0  0
 15 17  1  0  0  0  0
 16 27  1  0  0  0  0
 17 25  1  0  0  0  0
 18 24  1  0  0  0  0
 21 26  1  0  0  0  0
 24 28  1  0  0  0  0
 25 30  1  0  0  0  0
 26 29  1  0  0  0  0
 28 29  1  0  0  0  0
 30 31  1  0  0  0  0
 31 32  1  0  0  0  0
 32 33  1  0  0  0  0
 33 34  1  0  0  0  0
M  END
> <PUBCHEM_COMPOUND_ID_TYPE>
0

> <PUBCHEM_TOTAL_CHARGE>
0

> <PUBCHEM_SUBSTANCE_ID>
310939063

> <PUBCHEM_SUBSTANCE_VERSION>
1

> <PUBCHEM_EXT_DATASOURCE_NAME>
4488

> <PUBCHEM_EXT_DATASOURCE_REGID>
SCHEMBL16116982

> <PUBCHEM_SUBSTANCE_COMMENT>
InChI=1S/C26H48N2O6/c1-7-8-9-10-13-16-22(30)28-24(20(4)5)26(32)34-18-15-12-11-14-17-33-25(31)23(19(2)3)27-21(6)29/h19-20,23-24H,7-18H2,1-6H3,(H,27,29)(H,28,30)
InChIKey=KIFZBUWUCFRLFX-UHFFFAOYSA-N

> <PUBCHEM_SUBSTANCE_SYNONYM>
SCHEMBL16116982

> <PUBCHEM_XREF_EXT_ID>
SCHEMBL16116982

> <PUBCHEM_EXT_DATASOURCE_URL>
https://www.surechembl.org/

> <PUBCHEM_EXT_SUBSTANCE_URL>
https://www.surechembl.org/chemical/SCHEMBL16116982

> <PUBCHEM_CID_ASSOCIATIONS>
117606427  1

> <PUBCHEM_COORDINATE_TYPE>
1
3

$$$$
