310934972
  -OEChem-07211613022D

 27 30  0     1  0  0  0  0  0999 V2000
    1.7875    0.0000    0.0000 Br  0  0  0  0  0  0  0  0  0  0  0  0
    0.6875   -9.1666    0.0000 O   0  0  0  0  0  0  0  0  0  0  0  0
    2.1083   -9.1666    0.0000 O   0  0  0  0  0  0  0  0  0  0  0  0
    1.4208   -6.3250    0.0000 N   0  0  0  0  0  0  0  0  0  0  0  0
    0.6875   -1.8333    0.0000 N   0  0  0  0  0  0  0  0  0  0  0  0
    2.1542   -1.8333    0.0000 N   0  0  0  0  0  0  0  0  0  0  0  0
    1.4208   -7.9292    0.0000 N   0  0  0  0  0  0  0  0  0  0  0  0
    0.1375   -1.2375    0.0000 N   0  0  0  0  0  0  0  0  0  0  0  0
    1.4208   -1.3750    0.0000 C   0  0  0  0  0  0  0  0  0  0  0  0
    1.4208   -3.0250    0.0000 C   0  0  0  0  0  0  0  0  0  0  0  0
    1.4208   -5.5000    0.0000 C   0  0  0  0  0  0  0  0  0  0  0  0
    1.4208   -3.8500    0.0000 C   0  0  0  0  0  0  0  0  0  0  0  0
    0.7333   -2.6583    0.0000 C   0  0  0  0  0  0  0  0  0  0  0  0
    0.6875   -6.7375    0.0000 C   0  0  3  0  0  0  0  0  0  0  0  0
    2.1083   -6.7375    0.0000 C   0  0  3  0  0  0  0  0  0  0  0  0
    1.2375   -0.5958    0.0000 C   0  0  0  0  0  0  0  0  0  0  0  0
    2.1542   -2.6125    0.0000 C   0  0  0  0  0  0  0  0  0  0  0  0
    0.6875   -5.0875    0.0000 C   0  0  0  0  0  0  0  0  0  0  0  0
    2.1083   -5.0875    0.0000 C   0  0  0  0  0  0  0  0  0  0  0  0
    0.6875   -4.2625    0.0000 C   0  0  0  0  0  0  0  0  0  0  0  0
    2.1083   -4.2625    0.0000 C   0  0  0  0  0  0  0  0  0  0  0  0
    2.1083   -7.5625    0.0000 C   0  0  0  0  0  0  0  0  0  0  0  0
    0.6875   -7.5625    0.0000 C   0  0  0  0  0  0  0  0  0  0  0  0
    0.4583   -0.5042    0.0000 C   0  0  0  0  0  0  0  0  0  0  0  0
    1.4208   -8.7542    0.0000 C   0  0  0  0  0  0  0  0  0  0  0  0
    0.0000   -6.3250    0.0000 C   0  0  0  0  0  0  0  0  0  0  0  0
    2.8417   -6.3250    0.0000 C   0  0  0  0  0  0  0  0  0  0  0  0
  1 16  1  0  0  0  0
  2 25  2  0  0  0  0
  3 25  1  0  0  0  0
  4 11  1  0  0  0  0
  4 14  1  0  0  0  0
  4 15  1  0  0  0  0
  5  8  1  0  0  0  0
  5  9  1  0  0  0  0
  5 13  1  0  0  0  0
  6  9  1  0  0  0  0
  6 17  2  0  0  0  0
  7 22  1  0  0  0  0
  7 23  1  0  0  0  0
  7 25  1  0  0  0  0
  8 24  2  0  0  0  0
  9 16  2  0  0  0  0
 10 12  1  0  0  0  0
 10 13  2  0  0  0  0
 10 17  1  0  0  0  0
 11 18  2  0  0  0  0
 11 19  1  0  0  0  0
 12 20  2  0  0  0  0
 12 21  1  0  0  0  0
 14 23  1  0  0  0  0
 14 26  1  0  0  0  0
 15 22  1  0  0  0  0
 15 27  1  0  0  0  0
 16 24  1  0  0  0  0
 18 20  1  0  0  0  0
 19 21  2  0  0  0  0
M  END
> <PUBCHEM_COMPOUND_ID_TYPE>
0

> <PUBCHEM_TOTAL_CHARGE>
0

> <PUBCHEM_SUBSTANCE_ID>
310934972

> <PUBCHEM_SUBSTANCE_VERSION>
1

> <PUBCHEM_EXT_DATASOURCE_NAME>
4488

> <PUBCHEM_EXT_DATASOURCE_REGID>
SCHEMBL16112488

> <PUBCHEM_SUBSTANCE_COMMENT>
InChI=1S/C19H20BrN5O2/c1-12-9-23(19(26)27)10-13(2)25(12)16-5-3-14(4-6-16)15-7-21-18-17(20)8-22-24(18)11-15/h3-8,11-13H,9-10H2,1-2H3,(H,26,27)
InChIKey=GPDIAWTVGGAHEN-UHFFFAOYSA-N

> <PUBCHEM_SUBSTANCE_SYNONYM>
SCHEMBL16112488

> <PUBCHEM_XREF_EXT_ID>
SCHEMBL16112488

> <PUBCHEM_EXT_DATASOURCE_URL>
https://www.surechembl.org/

> <PUBCHEM_EXT_SUBSTANCE_URL>
https://www.surechembl.org/chemical/SCHEMBL16112488

> <PUBCHEM_CID_ASSOCIATIONS>
117603090  1

> <PUBCHEM_COORDINATE_TYPE>
1
3

$$$$
