310934462
  -OEChem-07211613022D

 18 19  0     1  0  0  0  0  0999 V2000
    4.3539   -1.4002    0.0000 F   0  0  0  0  0  0  0  0  0  0  0  0
    3.4525    0.0000    0.0000 F   0  0  0  0  0  0  0  0  0  0  0  0
    3.1647   -3.6634    0.0000 O   0  0  0  0  0  0  0  0  0  0  0  0
    3.1647   -2.2249    0.0000 O   0  0  0  0  0  0  0  0  0  0  0  0
    0.0000   -3.8360    0.0000 O   0  0  0  0  0  0  0  0  0  0  0  0
    1.9372   -2.9346    0.0000 C   0  0  3  0  0  0  0  0  0  0  0  0
    2.3208   -2.2057    0.0000 C   0  0  0  0  0  0  0  0  0  0  0  0
    3.3182   -2.3400    0.0000 C   0  0  0  0  0  0  0  0  0  0  0  0
    2.7619   -2.9346    0.0000 C   0  0  0  0  0  0  0  0  0  0  0  0
    1.4577   -3.6251    0.0000 C   0  0  0  0  0  0  0  0  0  0  0  0
    1.4577   -2.2825    0.0000 C   0  0  0  0  0  0  0  0  0  0  0  0
    3.5100   -1.4385    0.0000 C   0  0  0  0  0  0  0  0  0  0  0  0
    1.8797   -1.4960    0.0000 C   0  0  0  0  0  0  0  0  0  0  0  0
    0.6713   -3.3565    0.0000 C   0  0  3  0  0  0  0  0  0  0  0  0
    0.6713   -2.5318    0.0000 C   0  0  0  0  0  0  0  0  0  0  0  0
    3.0880   -0.7289    0.0000 C   0  0  0  0  0  0  0  0  0  0  0  0
    2.2441   -0.7672    0.0000 C   0  0  0  0  0  0  0  0  0  0  0  0
    3.5867   -2.8579    0.0000 C   0  0  0  0  0  0  0  0  0  0  0  0
  1 12  1  0  0  0  0
  2 16  1  0  0  0  0
  3  9  2  0  0  0  0
  4  9  1  0  0  0  0
  5 14  1  0  0  0  0
  6  7  1  0  0  0  0
  6  9  1  0  0  0  0
  6 10  1  0  0  0  0
  6 11  1  0  0  0  0
  7  8  1  0  0  0  0
  7 13  2  0  0  0  0
  8 12  2  0  0  0  0
  8 18  1  0  0  0  0
 10 14  1  0  0  0  0
 11 15  1  0  0  0  0
 12 16  1  0  0  0  0
 13 17  1  0  0  0  0
 14 15  1  0  0  0  0
 16 17  2  0  0  0  0
M  END
> <PUBCHEM_COMPOUND_ID_TYPE>
0

> <PUBCHEM_TOTAL_CHARGE>
0

> <PUBCHEM_SUBSTANCE_ID>
310934462

> <PUBCHEM_SUBSTANCE_VERSION>
1

> <PUBCHEM_EXT_DATASOURCE_NAME>
4488

> <PUBCHEM_EXT_DATASOURCE_REGID>
SCHEMBL16111942

> <PUBCHEM_SUBSTANCE_COMMENT>
InChI=1S/C13H14F2O3/c1-7-9(2-3-10(14)11(7)15)13(12(17)18)5-4-8(16)6-13/h2-3,8,16H,4-6H2,1H3,(H,17,18)
InChIKey=CWRWWOBPQILROX-UHFFFAOYSA-N

> <PUBCHEM_SUBSTANCE_SYNONYM>
SCHEMBL16111942

> <PUBCHEM_XREF_EXT_ID>
SCHEMBL16111942

> <PUBCHEM_EXT_DATASOURCE_URL>
https://www.surechembl.org/

> <PUBCHEM_EXT_SUBSTANCE_URL>
https://www.surechembl.org/chemical/SCHEMBL16111942

> <PUBCHEM_CID_ASSOCIATIONS>
117602668  1

> <PUBCHEM_COORDINATE_TYPE>
1
3

$$$$
