310936460
  -OEChem-07211613022D

 57 55  0     1  0  0  0  0  0999 V2000
    9.5931   -5.1656    0.0000 O   0  0  0  0  0  0  0  0  0  0  0  0
    8.9475   -4.0586    0.0000 O   0  0  0  0  0  0  0  0  0  0  0  0
   19.4630   -5.1656    0.0000 O   0  0  0  0  0  0  0  0  0  0  0  0
   10.2388   -4.7965    0.0000 C   0  0  3  0  0  0  0  0  0  0  0  0
    8.9475   -4.7965    0.0000 C   0  0  0  0  0  0  0  0  0  0  0  0
   10.9767   -5.1656    0.0000 C   0  0  0  0  0  0  0  0  0  0  0  0
   10.2388   -3.9664    0.0000 C   0  0  0  0  0  0  0  0  0  0  0  0
    8.2095   -5.1656    0.0000 C   0  0  0  0  0  0  0  0  0  0  0  0
   11.6224   -4.7965    0.0000 C   0  0  0  0  0  0  0  0  0  0  0  0
   10.9767   -3.5974    0.0000 C   0  0  0  0  0  0  0  0  0  0  0  0
    7.5638   -4.7965    0.0000 C   0  0  0  0  0  0  0  0  0  0  0  0
   12.3604   -5.1656    0.0000 C   0  0  0  0  0  0  0  0  0  0  0  0
   10.8845   -2.7673    0.0000 C   0  0  0  0  0  0  0  0  0  0  0  0
    6.8259   -5.1656    0.0000 C   0  0  0  0  0  0  0  0  0  0  0  0
   13.0061   -4.7043    0.0000 C   0  0  0  0  0  0  0  0  0  0  0  0
   11.6224   -2.3983    0.0000 C   0  0  0  0  0  0  0  0  0  0  0  0
    6.1802   -4.7965    0.0000 C   0  0  0  0  0  0  0  0  0  0  0  0
   13.7440   -5.0733    0.0000 C   0  0  0  0  0  0  0  0  0  0  0  0
   11.6224   -1.5681    0.0000 C   0  0  0  0  0  0  0  0  0  0  0  0
   20.1087   -4.7965    0.0000 C   0  0  3  0  0  0  0  0  0  0  0  0
    5.5345   -5.1656    0.0000 C   0  0  0  0  0  0  0  0  0  0  0  0
   20.8466   -5.1656    0.0000 C   0  0  0  0  0  0  0  0  0  0  0  0
   20.1087   -3.9664    0.0000 C   0  0  0  0  0  0  0  0  0  0  0  0
   14.3897   -4.7043    0.0000 C   0  0  0  0  0  0  0  0  0  0  0  0
   12.2681   -1.1991    0.0000 C   0  0  0  0  0  0  0  0  0  0  0  0
   21.4923   -4.7965    0.0000 C   0  0  0  0  0  0  0  0  0  0  0  0
    4.7965   -4.7965    0.0000 C   0  0  0  0  0  0  0  0  0  0  0  0
   20.8466   -3.5974    0.0000 C   0  0  0  0  0  0  0  0  0  0  0  0
   22.2302   -5.1656    0.0000 C   0  0  0  0  0  0  0  0  0  0  0  0
   15.1277   -5.0733    0.0000 C   0  0  0  0  0  0  0  0  0  0  0  0
   20.8466   -2.7673    0.0000 C   0  0  0  0  0  0  0  0  0  0  0  0
    4.1508   -5.1656    0.0000 C   0  0  0  0  0  0  0  0  0  0  0  0
   22.8759   -4.7965    0.0000 C   0  0  0  0  0  0  0  0  0  0  0  0
   12.2681   -0.3690    0.0000 C   0  0  0  0  0  0  0  0  0  0  0  0
   21.4923   -2.3983    0.0000 C   0  0  0  0  0  0  0  0  0  0  0  0
   15.7733   -4.7043    0.0000 C   0  0  0  0  0  0  0  0  0  0  0  0
   23.6139   -5.1656    0.0000 C   0  0  0  0  0  0  0  0  0  0  0  0
    3.4129   -4.7965    0.0000 C   0  0  0  0  0  0  0  0  0  0  0  0
   21.4923   -1.5681    0.0000 C   0  0  0  0  0  0  0  0  0  0  0  0
   24.2596   -4.7965    0.0000 C   0  0  0  0  0  0  0  0  0  0  0  0
    2.7673   -5.1656    0.0000 C   0  0  0  0  0  0  0  0  0  0  0  0
   16.5113   -5.0733    0.0000 C   0  0  0  0  0  0  0  0  0  0  0  0
   24.9053   -5.1656    0.0000 C   0  0  0  0  0  0  0  0  0  0  0  0
   22.2302   -1.1991    0.0000 C   0  0  0  0  0  0  0  0  0  0  0  0
   12.9138    0.0000    0.0000 C   0  0  0  0  0  0  0  0  0  0  0  0
    2.1216   -4.7965    0.0000 C   0  0  0  0  0  0  0  0  0  0  0  0
   25.6432   -4.7965    0.0000 C   0  0  0  0  0  0  0  0  0  0  0  0
   17.1569   -4.6121    0.0000 C   0  0  0  0  0  0  0  0  0  0  0  0
   22.1380   -0.3690    0.0000 C   0  0  0  0  0  0  0  0  0  0  0  0
    1.3836   -5.1656    0.0000 C   0  0  0  0  0  0  0  0  0  0  0  0
   26.2889   -5.1656    0.0000 C   0  0  0  0  0  0  0  0  0  0  0  0
    0.7380   -4.7965    0.0000 C   0  0  0  0  0  0  0  0  0  0  0  0
   27.0268   -4.7965    0.0000 C   0  0  0  0  0  0  0  0  0  0  0  0
   17.8949   -4.9811    0.0000 C   0  0  0  0  0  0  0  0  0  0  0  0
   22.8759    0.0000    0.0000 C   0  0  0  0  0  0  0  0  0  0  0  0
   27.6725   -5.1656    0.0000 C   0  0  0  0  0  0  0  0  0  0  0  0
    0.0000   -5.1656    0.0000 C   0  0  0  0  0  0  0  0  0  0  0  0
  1  4  1  0  0  0  0
  1  5  1  0  0  0  0
  2  5  2  0  0  0  0
  3 20  1  0  0  0  0
  4  6  1  0  0  0  0
  4  7  1  0  0  0  0
  5  8  1  0  0  0  0
  6  9  1  0  0  0  0
  7 10  1  0  0  0  0
  8 11  1  0  0  0  0
  9 12  1  0  0  0  0
 10 13  1  0  0  0  0
 11 14  1  0  0  0  0
 12 15  1  0  0  0  0
 13 16  1  0  0  0  0
 14 17  1  0  0  0  0
 15 18  1  0  0  0  0
 16 19  1  0  0  0  0
 17 21  1  0  0  0  0
 18 24  1  0  0  0  0
 19 25  1  0  0  0  0
 20 22  1  0  0  0  0
 20 23  1  0  0  0  0
 21 27  1  0  0  0  0
 22 26  1  0  0  0  0
 23 28  1  0  0  0  0
 24 30  1  0  0  0  0
 25 34  1  0  0  0  0
 26 29  1  0  0  0  0
 27 32  1  0  0  0  0
 28 31  1  0  0  0  0
 29 33  1  0  0  0  0
 30 36  1  0  0  0  0
 31 35  1  0  0  0  0
 32 38  1  0  0  0  0
 33 37  1  0  0  0  0
 34 45  1  0  0  0  0
 35 39  1  0  0  0  0
 36 42  1  0  0  0  0
 37 40  1  0  0  0  0
 38 41  1  0  0  0  0
 39 44  1  0  0  0  0
 40 43  1  0  0  0  0
 41 46  1  0  0  0  0
 42 48  1  0  0  0  0
 43 47  1  0  0  0  0
 44 49  1  0  0  0  0
 46 50  1  0  0  0  0
 47 51  1  0  0  0  0
 48 54  1  0  0  0  0
 49 55  1  0  0  0  0
 50 52  1  0  0  0  0
 51 53  1  0  0  0  0
 52 57  1  0  0  0  0
 53 56  1  0  0  0  0
M  END
> <PUBCHEM_COMPOUND_ID_TYPE>
0

> <PUBCHEM_TOTAL_CHARGE>
0

> <PUBCHEM_SUBSTANCE_ID>
310936460

> <PUBCHEM_SUBSTANCE_VERSION>
1

> <PUBCHEM_EXT_DATASOURCE_NAME>
4488

> <PUBCHEM_EXT_DATASOURCE_REGID>
SCHEMBL16114103

> <PUBCHEM_SUBSTANCE_COMMENT>
InChI=1S/C34H68O2.C20H42O/c1-4-7-10-13-16-18-19-21-23-26-29-32-34(35)36-33(30-27-24-15-12-9-6-3)31-28-25-22-20-17-14-11-8-5-2;1-3-5-7-9-11-12-13-15-17-19-20(21)18-16-14-10-8-6-4-2/h33H,4-32H2,1-3H3;20-21H,3-19H2,1-2H3
InChIKey=PEANVSOYPIBDIO-UHFFFAOYSA-N

> <PUBCHEM_SUBSTANCE_SYNONYM>
SCHEMBL16114103

> <PUBCHEM_XREF_EXT_ID>
SCHEMBL16114103

> <PUBCHEM_EXT_DATASOURCE_URL>
https://www.surechembl.org/

> <PUBCHEM_EXT_SUBSTANCE_URL>
https://www.surechembl.org/chemical/SCHEMBL16114103

> <PUBCHEM_CID_ASSOCIATIONS>
117604391  1
11983377  2
19028571  2

> <PUBCHEM_COORDINATE_TYPE>
1
3

$$$$
