310946081
  -OEChem-07211613022D

 41 43  0     1  0  0  0  0  0999 V2000
   -3.4641   -1.1392    0.0000 F   0  0  0  0  0  0  0  0  0  0  0  0
   -4.5720   -0.8587    0.0000 F   0  0  0  0  0  0  0  0  0  0  0  0
   -4.2775    0.2632    0.0000 F   0  0  0  0  0  0  0  0  0  0  0  0
    2.4135   -3.0538    0.0000 O   0  0  0  0  0  0  0  0  0  0  0  0
   -2.4264    2.0722    0.0000 O   0  0  0  0  0  0  0  0  0  0  0  0
    4.0591    0.9731    0.0000 O   0  0  0  0  0  0  0  0  0  0  0  0
   -0.2387    2.4929    0.0000 O   0  0  0  0  0  0  0  0  0  0  0  0
    3.5575    0.1482    0.0000 O   0  0  0  0  0  0  0  0  0  0  0  0
   -0.0564   -1.4337    0.0000 N   0  0  0  0  0  0  0  0  0  0  0  0
    0.3643   -0.7185    0.0000 N   0  0  0  0  0  0  0  0  0  0  0  0
    0.7710    0.9784    0.0000 N   0  0  3  0  0  0  0  0  0  0  0  0
    2.0190    2.8014    0.0000 N   0  0  0  0  0  0  0  0  0  0  0  0
   -0.9680   -0.4099    0.0000 C   0  0  0  0  0  0  0  0  0  0  0  0
   -0.8838   -1.2233    0.0000 C   0  0  0  0  0  0  0  0  0  0  0  0
   -0.2247   -0.0734    0.0000 C   0  0  0  0  0  0  0  0  0  0  0  0
   -1.6972    0.0108    0.0000 C   0  0  0  0  0  0  0  0  0  0  0  0
    2.1303   -2.5553    0.0000 C   0  0  3  0  0  0  0  0  0  0  0  0
   -2.4264   -0.4099    0.0000 C   0  0  0  0  0  0  0  0  0  0  0  0
   -3.1837    0.0108    0.0000 C   0  0  0  0  0  0  0  0  0  0  0  0
   -1.6972    0.8241    0.0000 C   0  0  0  0  0  0  0  0  0  0  0  0
   -0.0284    0.7400    0.0000 C   0  0  0  0  0  0  0  0  0  0  0  0
   -2.4404    1.2588    0.0000 C   0  0  0  0  0  0  0  0  0  0  0  0
   -3.8848   -0.4240    0.0000 C   0  0  0  0  0  0  0  0  0  0  0  0
   -3.1556    0.8381    0.0000 C   0  0  0  0  0  0  0  0  0  0  0  0
   -1.5289   -1.7983    0.0000 C   0  0  0  0  0  0  0  0  0  0  0  0
    2.4022   -2.0682    0.0000 C   0  0  0  0  0  0  0  0  0  0  0  0
    2.9800   -3.0538    0.0000 C   0  0  0  0  0  0  0  0  0  0  0  0
    2.9687   -2.0682    0.0000 C   0  0  0  0  0  0  0  0  0  0  0  0
    0.9954    1.7917    0.0000 C   0  0  0  0  0  0  0  0  0  0  0  0
    3.2519   -2.5553    0.0000 C   0  0  0  0  0  0  0  0  0  0  0  0
    1.3880    0.3894    0.0000 C   0  0  0  0  0  0  0  0  0  0  0  0
   -1.7112    2.5069    0.0000 C   0  0  0  0  0  0  0  0  0  0  0  0
    1.7947    2.0161    0.0000 C   0  0  0  0  0  0  0  0  0  0  0  0
    3.5575    0.6833    0.0000 C   0  0  0  0  0  0  0  0  0  0  0  0
   -0.9539    2.1003    0.0000 C   0  0  0  0  0  0  0  0  0  0  0  0
    4.0703    1.5305    0.0000 C   0  0  0  0  0  0  0  0  0  0  0  0
    2.8465    3.0538    0.0000 C   0  0  0  0  0  0  0  0  0  0  0  0
    4.5720    1.5528    0.0000 C   0  0  0  0  0  0  0  0  0  0  0  0
    3.5575    1.5305    0.0000 C   0  0  0  0  0  0  0  0  0  0  0  0
    4.0591    2.0768    0.0000 C   0  0  0  0  0  0  0  0  0  0  0  0
    0.5045    2.0582    0.0000 C   0  0  0  0  0  0  0  0  0  0  0  0
  1 23  1  0  0  0  0
  2 23  1  0  0  0  0
  3 23  1  0  0  0  0
  4 17  1  0  0  0  0
  4 27  1  0  0  0  0
  5 22  1  0  0  0  0
  5 32  1  0  0  0  0
  6 34  1  0  0  0  0
  6 36  1  0  0  0  0
  7 35  1  0  0  0  0
  7 41  1  0  0  0  0
  8 34  2  0  0  0  0
  9 10  1  0  0  0  0
  9 14  1  0  0  0  0
  9 17  1  0  0  0  0
 10 15  2  0  0  0  0
 11 21  1  0  0  0  0
 11 29  1  0  0  0  0
 11 31  1  0  0  0  0
 12 33  1  0  0  0  0
 12 34  1  0  0  0  0
 12 37  1  0  0  0  0
 13 14  2  0  0  0  0
 13 15  1  0  0  0  0
 13 16  1  0  0  0  0
 14 25  1  0  0  0  0
 15 21  1  0  0  0  0
 16 18  1  0  0  0  0
 16 20  2  0  0  0  0
 17 26  1  0  0  0  0
 18 19  2  0  0  0  0
 19 23  1  0  0  0  0
 19 24  1  0  0  0  0
 20 22  1  0  0  0  0
 22 24  2  0  0  0  0
 26 28  1  0  0  0  0
 27 30  1  0  0  0  0
 28 30  1  0  0  0  0
 29 33  1  0  0  0  0
 32 35  1  0  0  0  0
 36 38  1  0  0  0  0
 36 39  1  0  0  0  0
 36 40  1  0  0  0  0
M  END
> <PUBCHEM_COMPOUND_ID_TYPE>
0

> <PUBCHEM_TOTAL_CHARGE>
0

> <PUBCHEM_SUBSTANCE_ID>
310946081

> <PUBCHEM_SUBSTANCE_VERSION>
1

> <PUBCHEM_EXT_DATASOURCE_NAME>
4488

> <PUBCHEM_EXT_DATASOURCE_REGID>
SCHEMBL16124188

> <PUBCHEM_SUBSTANCE_COMMENT>
InChI=1S/C29H43F3N4O5/c1-20-26(21-16-22(29(30,31)32)18-23(17-21)39-15-14-38-7)24(33-36(20)25-10-8-9-13-40-25)19-34(5)11-12-35(6)27(37)41-28(2,3)4/h16-18,25H,8-15,19H2,1-7H3
InChIKey=TVVYBXDAKLUVMD-UHFFFAOYSA-N

> <PUBCHEM_SUBSTANCE_SYNONYM>
SCHEMBL16124188

> <PUBCHEM_XREF_EXT_ID>
SCHEMBL16124188

> <PUBCHEM_EXT_DATASOURCE_URL>
https://www.surechembl.org/

> <PUBCHEM_EXT_SUBSTANCE_URL>
https://www.surechembl.org/chemical/SCHEMBL16124188

> <PUBCHEM_CID_ASSOCIATIONS>
117612048  1

> <PUBCHEM_COORDINATE_TYPE>
1
3

$$$$
