310937756
  -OEChem-07211613022D

 35 39  0     1  0  0  0  0  0999 V2000
    3.0966    2.3925    0.0000 O   0  0  0  0  0  0  0  0  0  0  0  0
   -0.1435    2.1904    0.0000 O   0  0  0  0  0  0  0  0  0  0  0  0
    6.9467   -0.1127    0.0000 O   0  0  0  0  0  0  0  0  0  0  0  0
    6.5782    5.0262    0.0000 O   0  0  0  0  0  0  0  0  0  0  0  0
    4.0902    0.4204    0.0000 N   0  0  0  0  0  0  0  0  0  0  0  0
    3.6777   -0.2941    0.0000 N   0  0  0  0  0  0  0  0  0  0  0  0
    4.6659    2.9024    0.0000 N   0  0  0  0  0  0  0  0  0  0  0  0
    5.5490    0.1844    0.0000 N   0  0  0  0  0  0  0  0  0  0  0  0
    3.5382    1.0335    0.0000 C   0  0  0  0  0  0  0  0  0  0  0  0
    2.7845    0.6979    0.0000 C   0  0  0  0  0  0  0  0  0  0  0  0
    3.7097    1.8405    0.0000 C   0  0  0  0  0  0  0  0  0  0  0  0
    2.0701    1.1104    0.0000 C   0  0  0  0  0  0  0  0  0  0  0  0
    4.4944    2.0954    0.0000 C   0  0  3  0  0  0  0  0  0  0  0  0
    2.8708   -0.1225    0.0000 C   0  0  0  0  0  0  0  0  0  0  0  0
    5.1074    1.5434    0.0000 C   0  0  0  0  0  0  0  0  0  0  0  0
    0.6411    1.1104    0.0000 C   0  0  0  0  0  0  0  0  0  0  0  0
    1.3556    0.6979    0.0000 C   0  0  0  0  0  0  0  0  0  0  0  0
    0.6411    1.9354    0.0000 C   0  0  0  0  0  0  0  0  0  0  0  0
    2.0701    1.9354    0.0000 C   0  0  0  0  0  0  0  0  0  0  0  0
    1.3556    2.3479    0.0000 C   0  0  0  0  0  0  0  0  0  0  0  0
    5.4505    3.1573    0.0000 C   0  0  0  0  0  0  0  0  0  0  0  0
   -0.1435    0.8555    0.0000 C   0  0  0  0  0  0  0  0  0  0  0  0
    4.9359    0.7364    0.0000 C   0  0  0  0  0  0  0  0  0  0  0  0
    5.8921    1.7983    0.0000 C   0  0  0  0  0  0  0  0  0  0  0  0
   -0.6284    1.5229    0.0000 C   0  0  0  0  0  0  0  0  0  0  0  0
    4.0133   -1.0477    0.0000 C   0  0  0  0  0  0  0  0  0  0  0  0
    6.3336    0.4393    0.0000 C   0  0  0  0  0  0  0  0  0  0  0  0
    6.5052    1.2463    0.0000 C   0  0  0  0  0  0  0  0  0  0  0  0
    5.6220    3.9643    0.0000 C   0  0  0  0  0  0  0  0  0  0  0  0
    6.0636    2.6053    0.0000 C   0  0  0  0  0  0  0  0  0  0  0  0
    6.4066    4.2192    0.0000 C   0  0  0  0  0  0  0  0  0  0  0  0
    6.8482    2.8602    0.0000 C   0  0  0  0  0  0  0  0  0  0  0  0
    7.0197    3.6672    0.0000 C   0  0  0  0  0  0  0  0  0  0  0  0
    6.7752   -0.9197    0.0000 C   0  0  0  0  0  0  0  0  0  0  0  0
    7.3628    5.2811    0.0000 C   0  0  0  0  0  0  0  0  0  0  0  0
  1 11  2  0  0  0  0
  2 18  1  0  0  0  0
  2 25  1  0  0  0  0
  3 27  1  0  0  0  0
  3 34  1  0  0  0  0
  4 31  1  0  0  0  0
  4 35  1  0  0  0  0
  5  6  1  0  0  0  0
  5  9  2  0  0  0  0
  6 14  1  0  0  0  0
  6 26  1  0  0  0  0
  7 13  1  0  0  0  0
  7 21  1  0  0  0  0
  8 23  2  0  0  0  0
  8 27  1  0  0  0  0
  9 10  1  0  0  0  0
  9 11  1  0  0  0  0
 10 12  1  0  0  0  0
 10 14  2  0  0  0  0
 11 13  1  0  0  0  0
 12 17  2  0  0  0  0
 12 19  1  0  0  0  0
 13 15  1  0  0  0  0
 15 23  1  0  0  0  0
 15 24  2  0  0  0  0
 16 17  1  0  0  0  0
 16 18  2  0  0  0  0
 16 22  1  0  0  0  0
 18 20  1  0  0  0  0
 19 20  2  0  0  0  0
 21 29  2  0  0  0  0
 21 30  1  0  0  0  0
 22 25  1  0  0  0  0
 24 28  1  0  0  0  0
 27 28  2  0  0  0  0
 29 31  1  0  0  0  0
 30 32  2  0  0  0  0
 31 33  2  0  0  0  0
 32 33  1  0  0  0  0
M  END
> <PUBCHEM_COMPOUND_ID_TYPE>
0

> <PUBCHEM_TOTAL_CHARGE>
0

> <PUBCHEM_SUBSTANCE_ID>
310937756

> <PUBCHEM_SUBSTANCE_VERSION>
1

> <PUBCHEM_EXT_DATASOURCE_NAME>
4488

> <PUBCHEM_EXT_DATASOURCE_REGID>
SCHEMBL16115564

> <PUBCHEM_SUBSTANCE_COMMENT>
InChI=1S/C27H26N4O4/c1-31-16-22(17-7-9-23-18(13-17)11-12-35-23)26(30-31)27(32)25(19-8-10-24(34-3)28-15-19)29-20-5-4-6-21(14-20)33-2/h4-10,13-16,25,29H,11-12H2,1-3H3
InChIKey=BCZGLGNHCIWKOS-UHFFFAOYSA-N

> <PUBCHEM_SUBSTANCE_SYNONYM>
SCHEMBL16115564

> <PUBCHEM_XREF_EXT_ID>
SCHEMBL16115564

> <PUBCHEM_EXT_DATASOURCE_URL>
https://www.surechembl.org/

> <PUBCHEM_EXT_SUBSTANCE_URL>
https://www.surechembl.org/chemical/SCHEMBL16115564

> <PUBCHEM_CID_ASSOCIATIONS>
117605415  1

> <PUBCHEM_COORDINATE_TYPE>
1
3

$$$$
