310941246
  -OEChem-07211613022D

 43 47  0     1  0  0  0  0  0999 V2000
    5.0396   -1.1275    0.0000 O   0  0  0  0  0  0  0  0  0  0  0  0
    3.9120    0.8250    0.0000 O   0  0  0  0  0  0  0  0  0  0  0  0
    1.7807   -1.2376    0.0000 O   0  0  0  0  0  0  0  0  0  0  0  0
    3.8157    2.6126    0.0000 O   0  0  0  0  0  0  0  0  0  0  0  0
   -0.3644    0.8250    0.0000 O   0  0  0  0  0  0  0  0  0  0  0  0
   -2.5094   -1.2376    0.0000 O   0  0  0  0  0  0  0  0  0  0  0  0
   -5.3558   -1.2376    0.0000 O   0  0  0  0  0  0  0  0  0  0  0  0
    2.4957    0.0137    0.0000 N   0  0  0  0  0  0  0  0  0  0  0  0
    0.3506   -0.3988    0.0000 N   0  0  0  0  0  0  0  0  0  0  0  0
   -1.7944    0.0137    0.0000 N   0  0  0  0  0  0  0  0  0  0  0  0
   -3.9258   -0.3988    0.0000 N   0  0  0  0  0  0  0  0  0  0  0  0
    4.6271   -0.4125    0.0000 C   0  0  3  0  0  0  0  0  0  0  0  0
    3.8983   -0.0137    0.0000 C   0  0  0  0  0  0  0  0  0  0  0  0
    4.2421   -1.1138    0.0000 C   0  0  0  0  0  0  0  0  0  0  0  0
    3.2107   -0.3988    0.0000 C   0  0  3  0  0  0  0  0  0  0  0  0
    5.3558    0.0275    0.0000 C   0  0  0  0  0  0  0  0  0  0  0  0
    3.1970   -1.7326    0.0000 C   0  0  0  0  0  0  0  0  0  0  0  0
    1.7807   -0.3850    0.0000 C   0  0  0  0  0  0  0  0  0  0  0  0
    1.0519    0.0137    0.0000 C   0  0  3  0  0  0  0  0  0  0  0  0
    2.4957   -2.1451    0.0000 C   0  0  0  0  0  0  0  0  0  0  0  0
    1.7807    1.2513    0.0000 C   0  0  0  0  0  0  0  0  0  0  0  0
    2.4957    2.4889    0.0000 C   0  0  0  0  0  0  0  0  0  0  0  0
    1.0657    0.8388    0.0000 C   0  0  0  0  0  0  0  0  0  0  0  0
    3.2107    2.0763    0.0000 C   0  0  0  0  0  0  0  0  0  0  0  0
    1.7807    2.0763    0.0000 C   0  0  0  0  0  0  0  0  0  0  0  0
    2.4957    0.8388    0.0000 C   0  0  0  0  0  0  0  0  0  0  0  0
    3.1970    1.2513    0.0000 C   0  0  0  0  0  0  0  0  0  0  0  0
   -0.3781   -0.0137    0.0000 C   0  0  0  0  0  0  0  0  0  0  0  0
    2.6745    3.3002    0.0000 C   0  0  0  0  0  0  0  0  0  0  0  0
    1.7807   -1.7463    0.0000 C   0  0  0  0  0  0  0  0  0  0  0  0
    2.4820   -2.9564    0.0000 C   0  0  0  0  0  0  0  0  0  0  0  0
    3.4858    3.3689    0.0000 C   0  0  0  0  0  0  0  0  0  0  0  0
   -1.0657   -0.3988    0.0000 C   0  0  3  0  0  0  0  0  0  0  0  0
    1.0657   -2.1451    0.0000 C   0  0  0  0  0  0  0  0  0  0  0  0
    1.7670   -3.3689    0.0000 C   0  0  0  0  0  0  0  0  0  0  0  0
    1.0657   -2.9564    0.0000 C   0  0  0  0  0  0  0  0  0  0  0  0
   -2.4957   -0.3850    0.0000 C   0  0  0  0  0  0  0  0  0  0  0  0
   -1.0519   -1.2513    0.0000 C   0  0  0  0  0  0  0  0  0  0  0  0
   -3.2107    0.0137    0.0000 C   0  0  0  0  0  0  0  0  0  0  0  0
   -3.9395   -1.2376    0.0000 C   0  0  0  0  0  0  0  0  0  0  0  0
   -4.6408    0.0000    0.0000 C   0  0  0  0  0  0  0  0  0  0  0  0
   -4.6271   -1.6364    0.0000 C   0  0  0  0  0  0  0  0  0  0  0  0
   -5.3421   -0.3988    0.0000 C   0  0  0  0  0  0  0  0  0  0  0  0
  1 12  1  0  0  0  0
  1 14  1  0  0  0  0
  2 13  2  0  0  0  0
  3 18  2  0  0  0  0
  4 24  1  0  0  0  0
  4 32  1  0  0  0  0
  5 28  2  0  0  0  0
  6 37  2  0  0  0  0
  7 42  1  0  0  0  0
  7 43  1  0  0  0  0
  8 15  1  0  0  0  0
  8 18  1  0  0  0  0
  9 19  1  0  0  0  0
  9 28  1  0  0  0  0
 10 33  1  0  0  0  0
 10 37  1  0  0  0  0
 11 39  1  0  0  0  0
 11 40  1  0  0  0  0
 11 41  1  0  0  0  0
 12 13  1  0  0  0  0
 12 14  1  0  0  0  0
 12 16  1  0  0  0  0
 13 15  1  0  0  0  0
 15 17  1  0  0  0  0
 17 20  1  0  0  0  0
 18 19  1  0  0  0  0
 19 23  1  0  0  0  0
 20 30  2  0  0  0  0
 20 31  1  0  0  0  0
 21 23  1  0  0  0  0
 21 25  1  0  0  0  0
 21 26  2  0  0  0  0
 22 24  1  0  0  0  0
 22 25  2  0  0  0  0
 22 29  1  0  0  0  0
 24 27  2  0  0  0  0
 26 27  1  0  0  0  0
 28 33  1  0  0  0  0
 29 32  2  0  0  0  0
 30 34  1  0  0  0  0
 31 35  2  0  0  0  0
 33 38  1  0  0  0  0
 34 36  2  0  0  0  0
 35 36  1  0  0  0  0
 37 39  1  0  0  0  0
 40 42  1  0  0  0  0
 41 43  1  0  0  0  0
M  END
> <PUBCHEM_COMPOUND_ID_TYPE>
0

> <PUBCHEM_TOTAL_CHARGE>
0

> <PUBCHEM_SUBSTANCE_ID>
310941246

> <PUBCHEM_SUBSTANCE_VERSION>
1

> <PUBCHEM_EXT_DATASOURCE_NAME>
4488

> <PUBCHEM_EXT_DATASOURCE_REGID>
SCHEMBL16119206

> <PUBCHEM_SUBSTANCE_COMMENT>
InChI=1S/C32H38N4O7/c1-21(33-28(37)19-36-11-14-41-15-12-36)30(39)35-26(18-23-8-9-27-24(16-23)10-13-42-27)31(40)34-25(29(38)32(2)20-43-32)17-22-6-4-3-5-7-22/h3-10,13,16,21,25-26H,11-12,14-15,17-20H2,1-2H3,(H,33,37)(H,34,40)(H,35,39)
InChIKey=WOAPBRKNUUYKGI-UHFFFAOYSA-N

> <PUBCHEM_SUBSTANCE_SYNONYM>
SCHEMBL16119206

> <PUBCHEM_XREF_EXT_ID>
SCHEMBL16119206

> <PUBCHEM_EXT_DATASOURCE_URL>
https://www.surechembl.org/

> <PUBCHEM_EXT_SUBSTANCE_URL>
https://www.surechembl.org/chemical/SCHEMBL16119206

> <PUBCHEM_CID_ASSOCIATIONS>
117608105  1

> <PUBCHEM_COORDINATE_TYPE>
1
3

$$$$
