310947746
  -OEChem-07211613022D

 26 28  0     1  0  0  0  0  0999 V2000
   -1.7500   -3.0711    0.0000 N   0  0  0  0  0  0  0  0  0  0  0  0
   -1.2230   -0.2213    0.0000 N   0  0  0  0  0  0  0  0  0  0  0  0
   -1.2651   -3.7386    0.0000 N   0  0  0  0  0  0  0  0  0  0  0  0
   -2.2849    0.7348    0.0000 N   0  0  0  0  0  0  0  0  0  0  0  0
    0.9484   -2.6586    0.0000 N   0  0  3  0  0  0  0  0  0  0  0  0
    3.0919   -2.2461    0.0000 N   0  0  0  0  0  0  0  0  0  0  0  0
   -1.2651   -2.4037    0.0000 C   0  0  0  0  0  0  0  0  0  0  0  0
   -1.5201   -1.6191    0.0000 C   0  0  0  0  0  0  0  0  0  0  0  0
   -0.4805   -2.6586    0.0000 C   0  0  0  0  0  0  0  0  0  0  0  0
   -2.0299   -0.0498    0.0000 C   0  0  0  0  0  0  0  0  0  0  0  0
   -0.9680   -1.0060    0.0000 C   0  0  0  0  0  0  0  0  0  0  0  0
   -2.3270   -1.4475    0.0000 C   0  0  0  0  0  0  0  0  0  0  0  0
   -0.4805   -3.4836    0.0000 C   0  0  0  0  0  0  0  0  0  0  0  0
   -2.5820   -0.6629    0.0000 C   0  0  0  0  0  0  0  0  0  0  0  0
    0.2340   -2.2461    0.0000 C   0  0  0  0  0  0  0  0  0  0  0  0
   -1.7328    1.3479    0.0000 C   0  0  0  0  0  0  0  0  0  0  0  0
   -1.9464    2.1448    0.0000 C   0  0  0  0  0  0  0  0  0  0  0  0
   -3.0919    0.9063    0.0000 C   0  0  0  0  0  0  0  0  0  0  0  0
    1.6629   -2.2461    0.0000 C   0  0  0  0  0  0  0  0  0  0  0  0
   -1.3630    2.7281    0.0000 C   0  0  0  0  0  0  0  0  0  0  0  0
   -2.7433    2.3583    0.0000 C   0  0  0  0  0  0  0  0  0  0  0  0
    0.9484   -3.4836    0.0000 C   0  0  0  0  0  0  0  0  0  0  0  0
   -1.5765    3.5250    0.0000 C   0  0  0  0  0  0  0  0  0  0  0  0
   -2.9568    3.1552    0.0000 C   0  0  0  0  0  0  0  0  0  0  0  0
   -2.3734    3.7386    0.0000 C   0  0  0  0  0  0  0  0  0  0  0  0
    2.3774   -2.6586    0.0000 C   0  0  0  0  0  0  0  0  0  0  0  0
  1  3  1  0  0  0  0
  1  7  2  0  0  0  0
  2 10  2  0  0  0  0
  2 11  1  0  0  0  0
  3 13  1  0  0  0  0
  4 10  1  0  0  0  0
  4 16  1  0  0  0  0
  4 18  1  0  0  0  0
  5 15  1  0  0  0  0
  5 19  1  0  0  0  0
  5 22  1  0  0  0  0
  6 26  1  0  0  0  0
  7  8  1  0  0  0  0
  7  9  1  0  0  0  0
  8 11  2  0  0  0  0
  8 12  1  0  0  0  0
  9 13  2  0  0  0  0
  9 15  1  0  0  0  0
 10 14  1  0  0  0  0
 12 14  2  0  0  0  0
 16 17  1  0  0  0  0
 17 20  2  0  0  0  0
 17 21  1  0  0  0  0
 19 26  1  0  0  0  0
 20 23  1  0  0  0  0
 21 24  2  0  0  0  0
 23 25  2  0  0  0  0
 24 25  1  0  0  0  0
M  END
> <PUBCHEM_COMPOUND_ID_TYPE>
0

> <PUBCHEM_TOTAL_CHARGE>
0

> <PUBCHEM_SUBSTANCE_ID>
310947746

> <PUBCHEM_SUBSTANCE_VERSION>
1

> <PUBCHEM_EXT_DATASOURCE_NAME>
4488

> <PUBCHEM_EXT_DATASOURCE_REGID>
SCHEMBL16125918

> <PUBCHEM_SUBSTANCE_COMMENT>
InChI=1S/C20H26N6/c1-25(11-10-21)15-18-13-23-24-20(18)17-8-9-19(22-12-17)26(2)14-16-6-4-3-5-7-16/h3-9,12-13H,10-11,14-15,21H2,1-2H3,(H,23,24)
InChIKey=GWDRQMOPWHHHNN-UHFFFAOYSA-N

> <PUBCHEM_SUBSTANCE_SYNONYM>
SCHEMBL16125918

> <PUBCHEM_XREF_EXT_ID>
SCHEMBL16125918

> <PUBCHEM_EXT_DATASOURCE_URL>
https://www.surechembl.org/

> <PUBCHEM_EXT_SUBSTANCE_URL>
https://www.surechembl.org/chemical/SCHEMBL16125918

> <PUBCHEM_CID_ASSOCIATIONS>
86301696  1

> <PUBCHEM_COORDINATE_TYPE>
1
3

$$$$
