310941734
  -OEChem-07211613022D

 23 26  0     1  0  0  0  0  0999 V2000
   -3.2260    1.5467    0.0000 O   0  0  0  0  0  0  0  0  0  0  0  0
    1.1048   -0.1915    0.0000 O   0  0  0  0  0  0  0  0  0  0  0  0
    2.5484   -2.6810    0.0000 O   0  0  0  0  0  0  0  0  0  0  0  0
    3.2260   -1.5026    0.0000 O   0  0  0  0  0  0  0  0  0  0  0  0
   -1.1490    1.0016    0.0000 N   0  0  3  0  0  0  0  0  0  0  0  0
   -0.4124    2.2538    0.0000 N   0  0  0  0  0  0  0  0  0  0  0  0
   -2.2538    1.3405    0.0000 C   0  0  3  0  0  0  0  0  0  0  0  0
   -2.6368    0.7807    0.0000 C   0  0  0  0  0  0  0  0  0  0  0  0
   -1.6351    1.6941    0.0000 C   0  0  0  0  0  0  0  0  0  0  0  0
   -0.4124    1.4436    0.0000 C   0  0  0  0  0  0  0  0  0  0  0  0
    0.3093    1.0312    0.0000 C   0  0  0  0  0  0  0  0  0  0  0  0
   -2.7252    0.1031    0.0000 C   0  0  0  0  0  0  0  0  0  0  0  0
    1.0164    1.4289    0.0000 C   0  0  0  0  0  0  0  0  0  0  0  0
    0.3093    0.2946    0.0000 C   0  0  0  0  0  0  0  0  0  0  0  0
    0.3093    2.6810    0.0000 C   0  0  0  0  0  0  0  0  0  0  0  0
    1.0459    2.2538    0.0000 C   0  0  0  0  0  0  0  0  0  0  0  0
    1.1048   -1.0016    0.0000 C   0  0  0  0  0  0  0  0  0  0  0  0
    1.8266   -1.3994    0.0000 C   0  0  0  0  0  0  0  0  0  0  0  0
    1.8119   -2.2243    0.0000 C   0  0  0  0  0  0  0  0  0  0  0  0
    0.3830   -1.4142    0.0000 C   0  0  0  0  0  0  0  0  0  0  0  0
    1.1048   -2.6515    0.0000 C   0  0  0  0  0  0  0  0  0  0  0  0
    2.5337   -1.0016    0.0000 C   0  0  0  0  0  0  0  0  0  0  0  0
    0.3830   -2.2390    0.0000 C   0  0  0  0  0  0  0  0  0  0  0  0
  1  7  1  0  0  0  0
  1  8  1  0  0  0  0
  2 14  1  0  0  0  0
  2 17  1  0  0  0  0
  3 19  1  0  0  0  0
  4 22  2  0  0  0  0
  5  7  1  0  0  0  0
  5  9  1  0  0  0  0
  5 10  1  0  0  0  0
  6 10  1  0  0  0  0
  6 15  2  0  0  0  0
  7  8  1  0  0  0  0
  7  9  1  0  0  0  0
  8 12  2  0  0  0  0
 10 11  2  0  0  0  0
 11 13  1  0  0  0  0
 11 14  1  0  0  0  0
 13 16  2  0  0  0  0
 15 16  1  0  0  0  0
 17 18  2  0  0  0  0
 17 20  1  0  0  0  0
 18 19  1  0  0  0  0
 18 22  1  0  0  0  0
 19 21  2  0  0  0  0
 20 23  2  0  0  0  0
 21 23  1  0  0  0  0
M  END
> <PUBCHEM_COMPOUND_ID_TYPE>
0

> <PUBCHEM_TOTAL_CHARGE>
0

> <PUBCHEM_SUBSTANCE_ID>
310941734

> <PUBCHEM_SUBSTANCE_VERSION>
1

> <PUBCHEM_EXT_DATASOURCE_NAME>
4488

> <PUBCHEM_EXT_DATASOURCE_REGID>
SCHEMBL16119765

> <PUBCHEM_SUBSTANCE_COMMENT>
InChI=1S/C17H14N2O4/c1-11-17(23-11)10-19(17)16-12(4-3-7-18-16)9-22-15-6-2-5-14(21)13(15)8-20/h2-8,21H,1,9-10H2
InChIKey=UOGQNNMYYVMIEM-UHFFFAOYSA-N

> <PUBCHEM_SUBSTANCE_SYNONYM>
SCHEMBL16119765

> <PUBCHEM_XREF_EXT_ID>
SCHEMBL16119765

> <PUBCHEM_EXT_DATASOURCE_URL>
https://www.surechembl.org/

> <PUBCHEM_EXT_SUBSTANCE_URL>
https://www.surechembl.org/chemical/SCHEMBL16119765

> <PUBCHEM_CID_ASSOCIATIONS>
117608503  1

> <PUBCHEM_COORDINATE_TYPE>
1
3

> <PUBCHEM_BONDANNOTATIONS>
7  8  3

$$$$
