310937215
  -OEChem-07211613022D

 25 27  0     1  0  0  0  0  0999 V2000
    5.0938   -1.5522    0.0000 Cl  0  0  0  0  0  0  0  0  0  0  0  0
    3.6947   -3.5417    0.0000 O   0  0  0  0  0  0  0  0  0  0  0  0
    4.9190    0.0000    0.0000 O   0  0  0  0  0  0  0  0  0  0  0  0
    6.1651   -0.6996    0.0000 O   0  0  0  0  0  0  0  0  0  0  0  0
    4.9190   -1.3992    0.0000 N   0  0  0  0  0  0  0  0  0  0  0  0
    6.5587   -2.8421    0.0000 N   0  0  0  0  0  0  0  0  0  0  0  0
    3.6947   -2.1206    0.0000 C   0  0  3  0  0  0  0  0  0  0  0  0
    2.8858   -2.1206    0.0000 C   0  0  0  0  0  0  0  0  0  0  0  0
    4.1101   -2.8202    0.0000 C   0  0  3  0  0  0  0  0  0  0  0  0
    4.9190   -2.8202    0.0000 C   0  0  0  0  0  0  0  0  0  0  0  0
    1.6615   -1.4210    0.0000 C   0  0  0  0  0  0  0  0  0  0  0  0
    2.4486   -1.3992    0.0000 C   0  0  0  0  0  0  0  0  0  0  0  0
    1.2461   -2.1425    0.0000 C   0  0  0  0  0  0  0  0  0  0  0  0
    5.3343   -2.0987    0.0000 C   0  0  0  0  0  0  0  0  0  0  0  0
    2.4704   -2.8421    0.0000 C   0  0  0  0  0  0  0  0  0  0  0  0
    4.1101   -1.3992    0.0000 C   0  0  0  0  0  0  0  0  0  0  0  0
    1.6396   -2.8421    0.0000 C   0  0  0  0  0  0  0  0  0  0  0  0
    5.3343   -3.5198    0.0000 C   0  0  0  0  0  0  0  0  0  0  0  0
    1.2461   -0.7215    0.0000 C   0  0  0  0  0  0  0  0  0  0  0  0
    6.1651   -2.1425    0.0000 C   0  0  0  0  0  0  0  0  0  0  0  0
    0.4372   -2.1425    0.0000 C   0  0  0  0  0  0  0  0  0  0  0  0
    6.1651   -3.5636    0.0000 C   0  0  0  0  0  0  0  0  0  0  0  0
    0.4154   -0.7215    0.0000 C   0  0  0  0  0  0  0  0  0  0  0  0
    0.0000   -1.4210    0.0000 C   0  0  0  0  0  0  0  0  0  0  0  0
    5.3562   -0.6996    0.0000 C   0  0  0  0  0  0  0  0  0  0  0  0
  1 14  1  0  0  0  0
  2  9  1  0  0  0  0
  3 25  2  0  0  0  0
  4 25  1  0  0  0  0
  5 16  1  0  0  0  0
  5 25  1  0  0  0  0
  6 20  1  0  0  0  0
  6 22  2  0  0  0  0
  7  8  1  0  0  0  0
  7  9  1  0  0  0  0
  7 16  1  0  0  0  0
  8 12  2  0  0  0  0
  8 15  1  0  0  0  0
  9 10  1  0  0  0  0
 10 14  1  0  0  0  0
 10 18  2  0  0  0  0
 11 12  1  0  0  0  0
 11 13  2  0  0  0  0
 11 19  1  0  0  0  0
 13 17  1  0  0  0  0
 13 21  1  0  0  0  0
 14 20  2  0  0  0  0
 15 17  2  0  0  0  0
 18 22  1  0  0  0  0
 19 23  2  0  0  0  0
 21 24  2  0  0  0  0
 23 24  1  0  0  0  0
M  END
> <PUBCHEM_COMPOUND_ID_TYPE>
0

> <PUBCHEM_TOTAL_CHARGE>
0

> <PUBCHEM_SUBSTANCE_ID>
310937215

> <PUBCHEM_SUBSTANCE_VERSION>
1

> <PUBCHEM_EXT_DATASOURCE_NAME>
4488

> <PUBCHEM_EXT_DATASOURCE_REGID>
SCHEMBL16114946

> <PUBCHEM_SUBSTANCE_COMMENT>
InChI=1S/C19H17ClN2O3/c20-17-11-21-8-7-15(17)18(23)16(10-22-19(24)25)14-6-5-12-3-1-2-4-13(12)9-14/h1-9,11,16,18,22-23H,10H2,(H,24,25)
InChIKey=JXWFXPPBJWJHHA-UHFFFAOYSA-N

> <PUBCHEM_SUBSTANCE_SYNONYM>
SCHEMBL16114946

> <PUBCHEM_XREF_EXT_ID>
SCHEMBL16114946

> <PUBCHEM_EXT_DATASOURCE_URL>
https://www.surechembl.org/

> <PUBCHEM_EXT_SUBSTANCE_URL>
https://www.surechembl.org/chemical/SCHEMBL16114946

> <PUBCHEM_CID_ASSOCIATIONS>
117605023  1

> <PUBCHEM_COORDINATE_TYPE>
1
3

$$$$
