310933123
  -OEChem-07211613022D

 31 34  0     1  0  0  0  0  0999 V2000
    4.0324   -2.1223    0.0000 O   0  0  0  0  0  0  0  0  0  0  0  0
    8.4892   -2.2284    0.0000 O   0  0  0  0  0  0  0  0  0  0  0  0
    9.2320   -5.9071    0.0000 O   0  0  0  0  0  0  0  0  0  0  0  0
    4.9166   -0.9904    0.0000 N   0  0  0  0  0  0  0  0  0  0  0  0
    4.8459   -0.1768    0.0000 N   0  0  0  0  0  0  0  0  0  0  0  0
    6.3669   -0.9904    0.0000 N   0  0  0  0  0  0  0  0  0  0  0  0
    7.7817   -3.4310    0.0000 N   0  0  0  0  0  0  0  0  0  0  0  0
    9.9041   -4.6691    0.0000 N   0  0  0  0  0  0  0  0  0  0  0  0
    0.0000   -1.8393    0.0000 N   0  0  0  0  0  0  0  0  0  0  0  0
    4.1738   -1.3088    0.0000 C   0  0  0  0  0  0  0  0  0  0  0  0
    3.6079   -0.7074    0.0000 C   0  0  0  0  0  0  0  0  0  0  0  0
    5.6241   -1.3795    0.0000 C   0  0  0  0  0  0  0  0  0  0  0  0
    2.7944   -0.8135    0.0000 C   0  0  0  0  0  0  0  0  0  0  0  0
    4.0324    0.0000    0.0000 C   0  0  0  0  0  0  0  0  0  0  0  0
    7.0743   -2.2284    0.0000 C   0  0  0  0  0  0  0  0  0  0  0  0
    5.6241   -2.2284    0.0000 C   0  0  0  0  0  0  0  0  0  0  0  0
    7.0743   -1.3795    0.0000 C   0  0  0  0  0  0  0  0  0  0  0  0
    6.3669   -2.6175    0.0000 C   0  0  0  0  0  0  0  0  0  0  0  0
    7.7817   -2.6175    0.0000 C   0  0  0  0  0  0  0  0  0  0  0  0
    2.4760   -1.5563    0.0000 C   0  0  0  0  0  0  0  0  0  0  0  0
    2.2991   -0.1415    0.0000 C   0  0  0  0  0  0  0  0  0  0  0  0
    8.4892   -3.8555    0.0000 C   0  0  3  0  0  0  0  0  0  0  0  0
    1.1673   -0.9904    0.0000 C   0  0  0  0  0  0  0  0  0  0  0  0
    1.6625   -1.6625    0.0000 C   0  0  0  0  0  0  0  0  0  0  0  0
    1.4856   -0.2476    0.0000 C   0  0  0  0  0  0  0  0  0  0  0  0
    9.1966   -5.0935    0.0000 C   0  0  0  0  0  0  0  0  0  0  0  0
    8.4892   -4.7044    0.0000 C   0  0  0  0  0  0  0  0  0  0  0  0
    9.1966   -3.4310    0.0000 C   0  0  0  0  0  0  0  0  0  0  0  0
    9.9041   -3.8555    0.0000 C   0  0  0  0  0  0  0  0  0  0  0  0
    0.3537   -1.0965    0.0000 C   0  0  0  0  0  0  0  0  0  0  0  0
   10.6115   -5.0935    0.0000 C   0  0  0  0  0  0  0  0  0  0  0  0
  1 10  1  0  0  0  0
  2 19  2  0  0  0  0
  3 26  2  0  0  0  0
  4  5  1  0  0  0  0
  4 10  1  0  0  0  0
  4 12  1  0  0  0  0
  5 14  2  0  0  0  0
  6 12  2  0  0  0  0
  6 17  1  0  0  0  0
  7 19  1  0  0  0  0
  7 22  1  0  0  0  0
  8 26  1  0  0  0  0
  8 29  1  0  0  0  0
  8 31  1  0  0  0  0
  9 30  3  0  0  0  0
 10 11  2  0  0  0  0
 11 13  1  0  0  0  0
 11 14  1  0  0  0  0
 12 16  1  0  0  0  0
 13 20  2  0  0  0  0
 13 21  1  0  0  0  0
 15 17  2  0  0  0  0
 15 18  1  0  0  0  0
 15 19  1  0  0  0  0
 16 18  2  0  0  0  0
 20 24  1  0  0  0  0
 21 25  2  0  0  0  0
 22 27  1  0  0  0  0
 22 28  1  0  0  0  0
 23 24  2  0  0  0  0
 23 25  1  0  0  0  0
 23 30  1  0  0  0  0
 26 27  1  0  0  0  0
 28 29  1  0  0  0  0
M  END
> <PUBCHEM_COMPOUND_ID_TYPE>
0

> <PUBCHEM_TOTAL_CHARGE>
0

> <PUBCHEM_SUBSTANCE_ID>
310933123

> <PUBCHEM_SUBSTANCE_VERSION>
1

> <PUBCHEM_EXT_DATASOURCE_NAME>
4488

> <PUBCHEM_EXT_DATASOURCE_REGID>
SCHEMBL16110526

> <PUBCHEM_SUBSTANCE_COMMENT>
InChI=1S/C22H20N6O3/c1-27-9-8-17(10-20(27)29)26-21(30)16-6-7-19(24-12-16)28-22(31)18(13-25-28)15-4-2-14(11-23)3-5-15/h2-7,12-13,17,31H,8-10H2,1H3,(H,26,30)
InChIKey=CHOSPNNHCJNNNY-UHFFFAOYSA-N

> <PUBCHEM_SUBSTANCE_SYNONYM>
SCHEMBL16110526

> <PUBCHEM_XREF_EXT_ID>
SCHEMBL16110526

> <PUBCHEM_EXT_DATASOURCE_URL>
https://www.surechembl.org/

> <PUBCHEM_EXT_SUBSTANCE_URL>
https://www.surechembl.org/chemical/SCHEMBL16110526

> <PUBCHEM_CID_ASSOCIATIONS>
117601579  1

> <PUBCHEM_COORDINATE_TYPE>
1
3

$$$$
