310947039
  -OEChem-07211613022D

 19 22  0     1  0  0  0  0  0999 V2000
   -0.4600    3.2059    0.0000 Br  0  0  0  0  0  0  0  0  0  0  0  0
    0.2648   -2.0210    0.0000 O   0  0  0  0  0  0  0  0  0  0  0  0
    0.2648   -1.3799    0.0000 N   0  0  0  0  0  0  0  0  0  0  0  0
   -0.4600   -0.1254    0.0000 N   0  0  0  0  0  0  0  0  0  0  0  0
    0.2648   -0.5436    0.0000 C   0  0  0  0  0  0  0  0  0  0  0  0
   -0.4460    0.7109    0.0000 C   0  0  0  0  0  0  0  0  0  0  0  0
    0.2509    1.1290    0.0000 C   0  0  0  0  0  0  0  0  0  0  0  0
   -0.6551   -2.5368    0.0000 C   0  0  3  0  0  0  0  0  0  0  0  0
    1.1708   -2.5368    0.0000 C   0  0  3  0  0  0  0  0  0  0  0  0
   -0.4878   -1.7423    0.0000 C   0  0  0  0  0  0  0  0  0  0  0  0
    1.0175   -1.7423    0.0000 C   0  0  0  0  0  0  0  0  0  0  0  0
    0.9757   -0.1254    0.0000 C   0  0  0  0  0  0  0  0  0  0  0  0
    0.9896    0.7109    0.0000 C   0  0  0  0  0  0  0  0  0  0  0  0
   -0.1533   -3.1919    0.0000 C   0  0  0  0  0  0  0  0  0  0  0  0
    0.6830   -3.2059    0.0000 C   0  0  0  0  0  0  0  0  0  0  0  0
    0.2509    1.9514    0.0000 C   0  0  0  0  0  0  0  0  0  0  0  0
   -1.1708    1.1290    0.0000 C   0  0  0  0  0  0  0  0  0  0  0  0
   -0.4600    2.3695    0.0000 C   0  0  0  0  0  0  0  0  0  0  0  0
   -1.1708    1.9514    0.0000 C   0  0  0  0  0  0  0  0  0  0  0  0
  1 18  1  0  0  0  0
  2  8  1  0  0  0  0
  2  9  1  0  0  0  0
  3  5  1  0  0  0  0
  3 10  1  0  0  0  0
  3 11  1  0  0  0  0
  4  5  2  0  0  0  0
  4  6  1  0  0  0  0
  5 12  1  0  0  0  0
  6  7  2  0  0  0  0
  6 17  1  0  0  0  0
  7 13  1  0  0  0  0
  7 16  1  0  0  0  0
  8 10  1  0  0  0  0
  8 14  1  0  0  0  0
  9 11  1  0  0  0  0
  9 15  1  0  0  0  0
 12 13  2  0  0  0  0
 14 15  1  0  0  0  0
 16 18  2  0  0  0  0
 17 19  2  0  0  0  0
 18 19  1  0  0  0  0
M  END
> <PUBCHEM_COMPOUND_ID_TYPE>
0

> <PUBCHEM_TOTAL_CHARGE>
0

> <PUBCHEM_SUBSTANCE_ID>
310947039

> <PUBCHEM_SUBSTANCE_VERSION>
1

> <PUBCHEM_EXT_DATASOURCE_NAME>
4488

> <PUBCHEM_EXT_DATASOURCE_REGID>
SCHEMBL16125192

> <PUBCHEM_SUBSTANCE_COMMENT>
InChI=1S/C15H15BrN2O/c16-11-2-5-14-10(7-11)1-6-15(17-14)18-8-12-3-4-13(9-18)19-12/h1-2,5-7,12-13H,3-4,8-9H2
InChIKey=KIDPUEJLMWYFQY-UHFFFAOYSA-N

> <PUBCHEM_SUBSTANCE_SYNONYM>
SCHEMBL16125192

> <PUBCHEM_XREF_EXT_ID>
SCHEMBL16125192

> <PUBCHEM_EXT_DATASOURCE_URL>
https://www.surechembl.org/

> <PUBCHEM_EXT_SUBSTANCE_URL>
https://www.surechembl.org/chemical/SCHEMBL16125192

> <PUBCHEM_CID_ASSOCIATIONS>
117612890  1

> <PUBCHEM_COORDINATE_TYPE>
1
3

$$$$
