310948976
  -OEChem-07211613022D

 33 34  0     1  0  0  0  0  0999 V2000
    1.4456   -2.0598    0.0000 P   0  0  3  0  0  0  0  0  0  0  0  0
    0.7415    0.1273    0.0000 O   0  0  0  0  0  0  0  0  0  0  0  0
   -2.2245    0.1273    0.0000 O   0  0  0  0  0  0  0  0  0  0  0  0
    0.7265   -0.9512    0.0000 O   0  0  0  0  0  0  0  0  0  0  0  0
    1.4456   -1.3706    0.0000 O   0  0  0  0  0  0  0  0  0  0  0  0
    3.0484    2.7638    0.0000 O   0  0  0  0  0  0  0  0  0  0  0  0
    3.7824    1.4905    0.0000 O   0  0  0  0  0  0  0  0  0  0  0  0
    1.4456   -2.7638    0.0000 O   0  0  0  0  0  0  0  0  0  0  0  0
    2.2994   -2.0747    0.0000 O   0  0  0  0  0  0  0  0  0  0  0  0
   -0.7415   -0.0974    0.0000 N   0  0  0  0  0  0  0  0  0  0  0  0
   -0.3071    1.2059    0.0000 C   0  0  3  0  0  0  0  0  0  0  0  0
   -1.1609    1.2209    0.0000 C   0  0  3  0  0  0  0  0  0  0  0  0
   -0.0824    0.4269    0.0000 C   0  0  0  0  0  0  0  0  0  0  0  0
   -1.4156    0.4269    0.0000 C   0  0  0  0  0  0  0  0  0  0  0  0
    0.0974    1.9249    0.0000 C   0  0  3  0  0  0  0  0  0  0  0  0
   -1.5804    1.9549    0.0000 C   0  0  3  0  0  0  0  0  0  0  0  0
   -0.3071    2.6589    0.0000 C   0  0  0  0  0  0  0  0  0  0  0  0
   -1.1460    2.6589    0.0000 C   0  0  0  0  0  0  0  0  0  0  0  0
   -0.7415   -0.9212    0.0000 C   0  0  0  0  0  0  0  0  0  0  0  0
    0.8464    1.5205    0.0000 C   0  0  0  0  0  0  0  0  0  0  0  0
   -2.3144    2.3743    0.0000 C   0  0  0  0  0  0  0  0  0  0  0  0
    1.2209    1.7302    0.0000 C   0  0  3  0  0  0  0  0  0  0  0  0
   -2.7938    2.0897    0.0000 C   0  0  3  0  0  0  0  0  0  0  0  0
   -0.0075   -1.3407    0.0000 C   0  0  0  0  0  0  0  0  0  0  0  0
    1.8350    1.7751    0.0000 C   0  0  3  0  0  0  0  0  0  0  0  0
   -3.3780    2.1346    0.0000 C   0  0  0  0  0  0  0  0  0  0  0  0
    1.3557    1.1310    0.0000 C   0  0  0  0  0  0  0  0  0  0  0  0
   -2.9136    1.3706    0.0000 C   0  0  0  0  0  0  0  0  0  0  0  0
    2.2994    1.5205    0.0000 C   0  0  0  0  0  0  0  0  0  0  0  0
    1.7302    1.1460    0.0000 C   0  0  0  0  0  0  0  0  0  0  0  0
   -3.7824    2.3593    0.0000 C   0  0  0  0  0  0  0  0  0  0  0  0
   -3.2431    1.3557    0.0000 C   0  0  0  0  0  0  0  0  0  0  0  0
    3.0334    1.9249    0.0000 C   0  0  0  0  0  0  0  0  0  0  0  0
  1  5  1  0  0  0  0
  1  8  2  0  0  0  0
  1  9  1  0  0  0  0
  2 13  2  0  0  0  0
  3 14  2  0  0  0  0
  4  5  1  0  0  0  0
  4 24  1  0  0  0  0
  6 33  2  0  0  0  0
  7 33  1  0  0  0  0
 10 13  1  0  0  0  0
 10 14  1  0  0  0  0
 10 19  1  0  0  0  0
 11 12  1  0  0  0  0
 11 13  1  0  0  0  0
 11 15  1  0  0  0  0
 12 14  1  0  0  0  0
 12 16  1  0  0  0  0
 15 17  1  0  0  0  0
 15 20  1  0  0  0  0
 16 18  1  0  0  0  0
 16 21  1  0  0  0  0
 17 18  2  0  0  0  0
 19 24  1  0  0  0  0
 20 22  1  0  0  0  0
 21 23  1  0  0  0  0
 22 25  1  0  0  0  0
 22 27  1  0  0  0  0
 23 26  1  0  0  0  0
 23 28  1  0  0  0  0
 25 29  1  0  0  0  0
 25 30  1  0  0  0  0
 26 31  1  0  0  0  0
 26 32  1  0  0  0  0
 29 33  1  0  0  0  0
M  END
> <PUBCHEM_COMPOUND_ID_TYPE>
0

> <PUBCHEM_TOTAL_CHARGE>
0

> <PUBCHEM_SUBSTANCE_ID>
310948976

> <PUBCHEM_SUBSTANCE_VERSION>
1

> <PUBCHEM_EXT_DATASOURCE_NAME>
4488

> <PUBCHEM_EXT_DATASOURCE_REGID>
SCHEMBL16127164

> <PUBCHEM_SUBSTANCE_COMMENT>
InChI=1S/C23H38NO8P/c1-13(2)14(3)10-17-6-7-18(11-15(4)16(5)12-19(25)26)21-20(17)22(27)24(23(21)28)8-9-31-32-33(29)30/h6-7,13-18,20-21,33H,8-12H2,1-5H3,(H,25,26)(H,29,30)
InChIKey=YUNVKRRDJGKIFQ-UHFFFAOYSA-N

> <PUBCHEM_SUBSTANCE_SYNONYM>
SCHEMBL16127164

> <PUBCHEM_XREF_EXT_ID>
SCHEMBL16127164

> <PUBCHEM_EXT_DATASOURCE_URL>
https://www.surechembl.org/

> <PUBCHEM_EXT_SUBSTANCE_URL>
https://www.surechembl.org/chemical/SCHEMBL16127164

> <PUBCHEM_CID_ASSOCIATIONS>
117614485  1

> <PUBCHEM_COORDINATE_TYPE>
1
3

> <PUBCHEM_BONDANNOTATIONS>
22  25  3
23  26  3

$$$$
