310942371
  -OEChem-07211613022D

 21 23  0     1  0  0  0  0  0999 V2000
   -1.7769   -2.0811    0.0000 O   0  0  0  0  0  0  0  0  0  0  0  0
   -2.4821   -0.8366    0.0000 O   0  0  0  0  0  0  0  0  0  0  0  0
    0.2005   -0.4217    0.0000 N   0  0  0  0  0  0  0  0  0  0  0  0
    1.0164   -0.5462    0.0000 N   0  0  0  0  0  0  0  0  0  0  0  0
    2.1917    0.6707    0.0000 N   0  0  0  0  0  0  0  0  0  0  0  0
   -0.2558    0.2696    0.0000 C   0  0  0  0  0  0  0  0  0  0  0  0
   -0.3111   -1.0855    0.0000 C   0  0  0  0  0  0  0  0  0  0  0  0
   -1.0855   -0.7813    0.0000 C   0  0  0  0  0  0  0  0  0  0  0  0
   -1.0302    0.0346    0.0000 C   0  0  0  0  0  0  0  0  0  0  0  0
    0.0346    1.0440    0.0000 C   0  0  3  0  0  0  0  0  0  0  0  0
   -1.7769   -1.2099    0.0000 C   0  0  0  0  0  0  0  0  0  0  0  0
   -0.0069   -1.8599    0.0000 C   0  0  0  0  0  0  0  0  0  0  0  0
    0.8366    1.1823    0.0000 C   0  0  0  0  0  0  0  0  0  0  0  0
   -1.6939    0.5739    0.0000 C   0  0  0  0  0  0  0  0  0  0  0  0
    1.3205   -1.3482    0.0000 C   0  0  0  0  0  0  0  0  0  0  0  0
    0.7951   -1.9843    0.0000 C   0  0  0  0  0  0  0  0  0  0  0  0
   -0.4909    1.7077    0.0000 C   0  0  0  0  0  0  0  0  0  0  0  0
    1.4035    0.5324    0.0000 C   0  0  0  0  0  0  0  0  0  0  0  0
    1.1546    1.9429    0.0000 C   0  0  0  0  0  0  0  0  0  0  0  0
    1.9567    2.0811    0.0000 C   0  0  0  0  0  0  0  0  0  0  0  0
    2.4821    1.4451    0.0000 C   0  0  0  0  0  0  0  0  0  0  0  0
  1 11  2  0  0  0  0
  2 11  1  0  0  0  0
  3  4  1  0  0  0  0
  3  6  1  0  0  0  0
  3  7  1  0  0  0  0
  4 15  2  0  0  0  0
  5 18  1  0  0  0  0
  5 21  2  0  0  0  0
  6  9  2  0  0  0  0
  6 10  1  0  0  0  0
  7  8  2  0  0  0  0
  7 12  1  0  0  0  0
  8  9  1  0  0  0  0
  8 11  1  0  0  0  0
  9 14  1  0  0  0  0
 10 13  1  0  0  0  0
 10 17  1  0  0  0  0
 12 16  2  0  0  0  0
 13 18  2  0  0  0  0
 13 19  1  0  0  0  0
 15 16  1  0  0  0  0
 19 20  2  0  0  0  0
 20 21  1  0  0  0  0
M  END
> <PUBCHEM_COMPOUND_ID_TYPE>
0

> <PUBCHEM_TOTAL_CHARGE>
0

> <PUBCHEM_SUBSTANCE_ID>
310942371

> <PUBCHEM_SUBSTANCE_VERSION>
1

> <PUBCHEM_EXT_DATASOURCE_NAME>
4488

> <PUBCHEM_EXT_DATASOURCE_REGID>
SCHEMBL16120407

> <PUBCHEM_SUBSTANCE_COMMENT>
InChI=1S/C16H15N3O2/c1-10(12-5-3-7-17-9-12)15-11(2)14(16(20)21)13-6-4-8-18-19(13)15/h3-10H,1-2H3,(H,20,21)
InChIKey=GJNLPUKXCDTSPV-UHFFFAOYSA-N

> <PUBCHEM_SUBSTANCE_SYNONYM>
SCHEMBL16120407

> <PUBCHEM_XREF_EXT_ID>
SCHEMBL16120407

> <PUBCHEM_EXT_DATASOURCE_URL>
https://www.surechembl.org/

> <PUBCHEM_EXT_SUBSTANCE_URL>
https://www.surechembl.org/chemical/SCHEMBL16120407

> <PUBCHEM_CID_ASSOCIATIONS>
117608987  1

> <PUBCHEM_COORDINATE_TYPE>
1
3

$$$$
