310942282
  -OEChem-07211613022D

 24 26  0     1  0  0  0  0  0999 V2000
    0.3797    1.8849    0.0000 O   0  0  0  0  0  0  0  0  0  0  0  0
   -2.1611   -0.8216    0.0000 O   0  0  0  0  0  0  0  0  0  0  0  0
   -1.4430   -2.0644    0.0000 O   0  0  0  0  0  0  0  0  0  0  0  0
    2.8239    1.4568    0.0000 O   0  0  0  0  0  0  0  0  0  0  0  0
    0.5455   -0.4073    0.0000 N   0  0  0  0  0  0  0  0  0  0  0  0
    1.3601   -0.5317    0.0000 N   0  0  0  0  0  0  0  0  0  0  0  0
    0.0898    0.2831    0.0000 C   0  0  0  0  0  0  0  0  0  0  0  0
    0.3659    1.0702    0.0000 C   0  0  3  0  0  0  0  0  0  0  0  0
   -0.6973    0.0622    0.0000 C   0  0  0  0  0  0  0  0  0  0  0  0
   -0.7526   -0.7664    0.0000 C   0  0  0  0  0  0  0  0  0  0  0  0
    0.0346   -1.0702    0.0000 C   0  0  0  0  0  0  0  0  0  0  0  0
    1.1945    1.1945    0.0000 C   0  0  0  0  0  0  0  0  0  0  0  0
   -1.4430   -1.1945    0.0000 C   0  0  0  0  0  0  0  0  0  0  0  0
    0.3383   -1.8434    0.0000 C   0  0  0  0  0  0  0  0  0  0  0  0
   -0.4487    1.2773    0.0000 C   0  0  0  0  0  0  0  0  0  0  0  0
   -1.3877    0.5869    0.0000 C   0  0  0  0  0  0  0  0  0  0  0  0
    1.6501   -1.3187    0.0000 C   0  0  0  0  0  0  0  0  0  0  0  0
    1.1530   -1.9677    0.0000 C   0  0  0  0  0  0  0  0  0  0  0  0
    1.4982    1.9677    0.0000 C   0  0  0  0  0  0  0  0  0  0  0  0
    1.7192    0.5593    0.0000 C   0  0  0  0  0  0  0  0  0  0  0  0
    2.2991    2.0920    0.0000 C   0  0  0  0  0  0  0  0  0  0  0  0
    2.5338    0.6835    0.0000 C   0  0  0  0  0  0  0  0  0  0  0  0
   -2.8239   -1.2773    0.0000 C   0  0  0  0  0  0  0  0  0  0  0  0
   -2.7548   -2.0920    0.0000 C   0  0  0  0  0  0  0  0  0  0  0  0
  1  8  1  0  0  0  0
  2 13  1  0  0  0  0
  2 23  1  0  0  0  0
  3 13  2  0  0  0  0
  4 21  1  0  0  0  0
  4 22  1  0  0  0  0
  5  6  1  0  0  0  0
  5  7  1  0  0  0  0
  5 11  1  0  0  0  0
  6 17  2  0  0  0  0
  7  8  1  0  0  0  0
  7  9  2  0  0  0  0
  8 12  1  0  0  0  0
  8 15  1  0  0  0  0
  9 10  1  0  0  0  0
  9 16  1  0  0  0  0
 10 11  2  0  0  0  0
 10 13  1  0  0  0  0
 11 14  1  0  0  0  0
 12 19  1  0  0  0  0
 12 20  1  0  0  0  0
 14 18  2  0  0  0  0
 17 18  1  0  0  0  0
 19 21  1  0  0  0  0
 20 22  1  0  0  0  0
 23 24  1  0  0  0  0
M  END
> <PUBCHEM_COMPOUND_ID_TYPE>
0

> <PUBCHEM_TOTAL_CHARGE>
0

> <PUBCHEM_SUBSTANCE_ID>
310942282

> <PUBCHEM_SUBSTANCE_VERSION>
1

> <PUBCHEM_EXT_DATASOURCE_NAME>
4488

> <PUBCHEM_EXT_DATASOURCE_REGID>
SCHEMBL16120317

> <PUBCHEM_SUBSTANCE_COMMENT>
InChI=1S/C18H24N2O4/c1-4-24-17(21)15-12(2)16(20-14(15)6-5-9-19-20)18(3,22)13-7-10-23-11-8-13/h5-6,9,13,22H,4,7-8,10-11H2,1-3H3
InChIKey=AXTUHUPSYHPVDP-UHFFFAOYSA-N

> <PUBCHEM_SUBSTANCE_SYNONYM>
SCHEMBL16120317

> <PUBCHEM_XREF_EXT_ID>
SCHEMBL16120317

> <PUBCHEM_EXT_DATASOURCE_URL>
https://www.surechembl.org/

> <PUBCHEM_EXT_SUBSTANCE_URL>
https://www.surechembl.org/chemical/SCHEMBL16120317

> <PUBCHEM_CID_ASSOCIATIONS>
117608931  1

> <PUBCHEM_COORDINATE_TYPE>
1
3

$$$$
