310938483
  -OEChem-07211613022D

 11 11  0     1  0  0  0  0  0999 V2000
   -0.8007    1.2330    0.0000 N   0  0  3  0  0  0  0  0  0  0  0  0
   -0.7145    0.4125    0.0000 N   0  0  3  0  0  0  0  0  0  0  0  0
   -1.9432    2.1582    0.0000 N   0  0  0  0  0  0  0  0  0  0  0  0
   -2.8407    0.6038    0.0000 N   0  0  0  0  0  0  0  0  0  0  0  0
   -1.6077    1.4045    0.0000 C   0  0  0  0  0  0  0  0  0  0  0  0
   -2.0202    0.6901    0.0000 C   0  0  0  0  0  0  0  0  0  0  0  0
   -1.4681    0.0770    0.0000 C   0  0  0  0  0  0  0  0  0  0  0  0
   -0.1876    1.7850    0.0000 C   0  0  0  0  0  0  0  0  0  0  0  0
    0.0000    0.0000    0.0000 C   0  0  0  0  0  0  0  0  0  0  0  0
    0.5970    1.5301    0.0000 C   0  0  0  0  0  0  0  0  0  0  0  0
    0.7145    0.4125    0.0000 C   0  0  0  0  0  0  0  0  0  0  0  0
  1  2  1  0  0  0  0
  1  5  1  0  0  0  0
  1  8  1  0  0  0  0
  2  7  1  0  0  0  0
  2  9  1  0  0  0  0
  3  5  1  0  0  0  0
  4  6  1  0  0  0  0
  5  6  2  0  0  0  0
  6  7  1  0  0  0  0
  8 10  1  0  0  0  0
  9 11  1  0  0  0  0
M  END
> <PUBCHEM_COMPOUND_ID_TYPE>
0

> <PUBCHEM_TOTAL_CHARGE>
0

> <PUBCHEM_SUBSTANCE_ID>
310938483

> <PUBCHEM_SUBSTANCE_VERSION>
1

> <PUBCHEM_EXT_DATASOURCE_NAME>
4488

> <PUBCHEM_EXT_DATASOURCE_REGID>
SCHEMBL16116386

> <PUBCHEM_SUBSTANCE_COMMENT>
InChI=1S/C7H16N4/c1-3-10-5-6(8)7(9)11(10)4-2/h3-5,8-9H2,1-2H3
InChIKey=XAEROYMUNONLIF-UHFFFAOYSA-N

> <PUBCHEM_SUBSTANCE_SYNONYM>
SCHEMBL16116386

> <PUBCHEM_XREF_EXT_ID>
SCHEMBL16116386

> <PUBCHEM_EXT_DATASOURCE_URL>
https://www.surechembl.org/

> <PUBCHEM_EXT_SUBSTANCE_URL>
https://www.surechembl.org/chemical/SCHEMBL16116386

> <PUBCHEM_CID_ASSOCIATIONS>
117605939  1

> <PUBCHEM_COORDINATE_TYPE>
1
3

$$$$
