310936998
  -OEChem-07211613022D

 22 23  0     1  0  0  0  0  0999 V2000
    0.0000   -2.7601    0.0000 Br  0  0  0  0  0  0  0  0  0  0  0  0
    3.5487   -1.4458    0.0000 O   0  0  0  0  0  0  0  0  0  0  0  0
    5.0207   -3.1807    0.0000 O   0  0  0  0  0  0  0  0  0  0  0  0
    4.3110   -1.9452    0.0000 O   0  0  0  0  0  0  0  0  0  0  0  0
    2.2081   -1.4458    0.0000 N   0  0  0  0  0  0  0  0  0  0  0  0
    2.4447   -0.6571    0.0000 N   0  0  0  0  0  0  0  0  0  0  0  0
    1.4195   -4.4162    0.0000 N   0  0  0  0  0  0  0  0  0  0  0  0
    2.8652   -2.7601    0.0000 C   0  0  3  0  0  0  0  0  0  0  0  0
    2.8652   -1.9452    0.0000 C   0  0  0  0  0  0  0  0  0  0  0  0
    2.1555   -3.1807    0.0000 C   0  0  0  0  0  0  0  0  0  0  0  0
    3.5750   -3.1807    0.0000 C   0  0  0  0  0  0  0  0  0  0  0  0
    3.2858   -0.6571    0.0000 C   0  0  0  0  0  0  0  0  0  0  0  0
    1.4195   -2.7864    0.0000 C   0  0  0  0  0  0  0  0  0  0  0  0
    2.1292   -4.0218    0.0000 C   0  0  0  0  0  0  0  0  0  0  0  0
    0.7098   -3.1807    0.0000 C   0  0  0  0  0  0  0  0  0  0  0  0
    4.3110   -2.7601    0.0000 C   0  0  0  0  0  0  0  0  0  0  0  0
    0.6835   -4.0218    0.0000 C   0  0  0  0  0  0  0  0  0  0  0  0
    3.7853    0.0000    0.0000 C   0  0  0  0  0  0  0  0  0  0  0  0
    5.7305   -2.7601    0.0000 C   0  0  0  0  0  0  0  0  0  0  0  0
    6.4403   -3.1807    0.0000 C   0  0  0  0  0  0  0  0  0  0  0  0
    7.1763   -2.7601    0.0000 C   0  0  0  0  0  0  0  0  0  0  0  0
    7.8860   -3.1807    0.0000 C   0  0  0  0  0  0  0  0  0  0  0  0
  1 15  1  0  0  0  0
  2  9  1  0  0  0  0
  2 12  1  0  0  0  0
  3 16  1  0  0  0  0
  3 19  1  0  0  0  0
  4 16  2  0  0  0  0
  5  6  1  0  0  0  0
  5  9  2  0  0  0  0
  6 12  2  0  0  0  0
  7 14  1  0  0  0  0
  7 17  2  0  0  0  0
  8  9  1  0  0  0  0
  8 10  1  0  0  0  0
  8 11  1  0  0  0  0
 10 13  1  0  0  0  0
 10 14  2  0  0  0  0
 11 16  1  0  0  0  0
 12 18  1  0  0  0  0
 13 15  2  0  0  0  0
 15 17  1  0  0  0  0
 19 20  1  0  0  0  0
 20 21  1  0  0  0  0
 21 22  1  0  0  0  0
M  END
> <PUBCHEM_COMPOUND_ID_TYPE>
0

> <PUBCHEM_TOTAL_CHARGE>
0

> <PUBCHEM_SUBSTANCE_ID>
310936998

> <PUBCHEM_SUBSTANCE_VERSION>
1

> <PUBCHEM_EXT_DATASOURCE_NAME>
4488

> <PUBCHEM_EXT_DATASOURCE_REGID>
SCHEMBL16114704

> <PUBCHEM_SUBSTANCE_COMMENT>
InChI=1S/C15H18BrN3O3/c1-3-4-5-21-14(20)7-13(15-19-18-10(2)22-15)11-6-12(16)9-17-8-11/h6,8-9,13H,3-5,7H2,1-2H3
InChIKey=JADMMNDHMFJDLW-UHFFFAOYSA-N

> <PUBCHEM_SUBSTANCE_SYNONYM>
SCHEMBL16114704

> <PUBCHEM_XREF_EXT_ID>
SCHEMBL16114704

> <PUBCHEM_EXT_DATASOURCE_URL>
https://www.surechembl.org/

> <PUBCHEM_EXT_SUBSTANCE_URL>
https://www.surechembl.org/chemical/SCHEMBL16114704

> <PUBCHEM_CID_ASSOCIATIONS>
117604855  1

> <PUBCHEM_COORDINATE_TYPE>
1
3

$$$$
