310946945
  -OEChem-07211613022D

 10 10  0     1  0  0  0  0  0999 V2000
   -1.0724    0.0413    0.0000 F   0  0  0  0  0  0  0  0  0  0  0  0
    1.0724   -1.2099    0.0000 O   0  0  0  0  0  0  0  0  0  0  0  0
   -1.0862    1.6087    0.0000 N   0  0  0  0  0  0  0  0  0  0  0  0
    0.3438    0.0413    0.0000 C   0  0  0  0  0  0  0  0  0  0  0  0
   -0.3575   -0.3713    0.0000 C   0  0  3  0  0  0  0  0  0  0  0  0
    1.0862   -0.3850    0.0000 C   0  0  0  0  0  0  0  0  0  0  0  0
   -0.3575   -1.1962    0.0000 C   0  0  0  0  0  0  0  0  0  0  0  0
    0.3713    0.9074    0.0000 C   0  0  0  0  0  0  0  0  0  0  0  0
    0.3575   -1.6087    0.0000 C   0  0  0  0  0  0  0  0  0  0  0  0
   -0.3575    1.2649    0.0000 C   0  0  0  0  0  0  0  0  0  0  0  0
  1  5  1  0  0  0  0
  2  6  1  0  0  0  0
  2  9  1  0  0  0  0
  3 10  3  0  0  0  0
  4  5  1  0  0  0  0
  4  6  1  0  0  0  0
  4  8  2  0  0  0  0
  5  7  1  0  0  0  0
  7  9  1  0  0  0  0
  8 10  1  0  0  0  0
M  END
> <PUBCHEM_COMPOUND_ID_TYPE>
0

> <PUBCHEM_TOTAL_CHARGE>
0

> <PUBCHEM_SUBSTANCE_ID>
310946945

> <PUBCHEM_SUBSTANCE_VERSION>
1

> <PUBCHEM_EXT_DATASOURCE_NAME>
4488

> <PUBCHEM_EXT_DATASOURCE_REGID>
SCHEMBL16125070

> <PUBCHEM_SUBSTANCE_COMMENT>
InChI=1S/C7H8FNO/c8-7-2-4-10-5-6(7)1-3-9/h1,7H,2,4-5H2/b6-1-
InChIKey=HZWKBUFGDSLWIU-BHQIHCQQSA-N

> <PUBCHEM_SUBSTANCE_SYNONYM>
SCHEMBL16125070

> <PUBCHEM_XREF_EXT_ID>
SCHEMBL16125070

> <PUBCHEM_EXT_DATASOURCE_URL>
https://www.surechembl.org/

> <PUBCHEM_EXT_SUBSTANCE_URL>
https://www.surechembl.org/chemical/SCHEMBL16125070

> <PUBCHEM_CID_ASSOCIATIONS>
117612801  1

> <PUBCHEM_COORDINATE_TYPE>
1
3

> <PUBCHEM_BONDANNOTATIONS>
8  10  3

$$$$
