310943544
  -OEChem-07211613022D

 18 19  0     1  0  0  0  0  0999 V2000
    0.6021   -2.5889    0.0000 Br  0  0  0  0  0  0  0  0  0  0  0  0
   -0.1405    1.1640    0.0000 N   0  0  3  0  0  0  0  0  0  0  0  0
   -1.9065    1.7259    0.0000 N   0  0  3  0  0  0  0  0  0  0  0  0
    2.7294    0.2809    0.0000 N   0  0  0  0  0  0  0  0  0  0  0  0
    0.5820   -0.0602    0.0000 C   0  0  0  0  0  0  0  0  0  0  0  0
    1.3045   -0.4816    0.0000 C   0  0  0  0  0  0  0  0  0  0  0  0
    0.5820    0.7426    0.0000 C   0  0  0  0  0  0  0  0  0  0  0  0
   -0.1204   -0.5017    0.0000 C   0  0  0  0  0  0  0  0  0  0  0  0
    1.2844   -1.3246    0.0000 C   0  0  0  0  0  0  0  0  0  0  0  0
    0.6021   -1.7259    0.0000 C   0  0  0  0  0  0  0  0  0  0  0  0
   -0.1003   -1.3246    0.0000 C   0  0  0  0  0  0  0  0  0  0  0  0
   -0.8228    0.7225    0.0000 C   0  0  0  0  0  0  0  0  0  0  0  0
   -0.0803    2.0069    0.0000 C   0  0  0  0  0  0  0  0  0  0  0  0
    2.0270   -0.0803    0.0000 C   0  0  0  0  0  0  0  0  0  0  0  0
   -1.6055    0.9834    0.0000 C   0  0  0  0  0  0  0  0  0  0  0  0
   -0.7225    2.5889    0.0000 C   0  0  0  0  0  0  0  0  0  0  0  0
   -1.4851    2.4684    0.0000 C   0  0  0  0  0  0  0  0  0  0  0  0
   -2.7294    1.7660    0.0000 C   0  0  0  0  0  0  0  0  0  0  0  0
  1 10  1  0  0  0  0
  2  7  1  0  0  0  0
  2 12  1  0  0  0  0
  2 13  1  0  0  0  0
  3 15  1  0  0  0  0
  3 17  1  0  0  0  0
  3 18  1  0  0  0  0
  4 14  3  0  0  0  0
  5  6  2  0  0  0  0
  5  7  1  0  0  0  0
  5  8  1  0  0  0  0
  6  9  1  0  0  0  0
  6 14  1  0  0  0  0
  8 11  2  0  0  0  0
  9 10  2  0  0  0  0
 10 11  1  0  0  0  0
 12 15  1  0  0  0  0
 13 16  1  0  0  0  0
 16 17  1  0  0  0  0
M  END
> <PUBCHEM_COMPOUND_ID_TYPE>
0

> <PUBCHEM_TOTAL_CHARGE>
0

> <PUBCHEM_SUBSTANCE_ID>
310943544

> <PUBCHEM_SUBSTANCE_VERSION>
1

> <PUBCHEM_EXT_DATASOURCE_NAME>
4488

> <PUBCHEM_EXT_DATASOURCE_REGID>
SCHEMBL16121610

> <PUBCHEM_SUBSTANCE_COMMENT>
InChI=1S/C14H18BrN3/c1-17-5-2-6-18(8-7-17)11-12-3-4-14(15)9-13(12)10-16/h3-4,9H,2,5-8,11H2,1H3
InChIKey=ROQXWGVNHCLLAT-UHFFFAOYSA-N

> <PUBCHEM_SUBSTANCE_SYNONYM>
SCHEMBL16121610

> <PUBCHEM_XREF_EXT_ID>
SCHEMBL16121610

> <PUBCHEM_EXT_DATASOURCE_URL>
https://www.surechembl.org/

> <PUBCHEM_EXT_SUBSTANCE_URL>
https://www.surechembl.org/chemical/SCHEMBL16121610

> <PUBCHEM_CID_ASSOCIATIONS>
117609956  1

> <PUBCHEM_COORDINATE_TYPE>
1
3

$$$$
