310937549
  -OEChem-07211613022D

 19 19  0     1  0  0  0  0  0999 V2000
    4.1979    0.0000    0.0000 F   0  0  0  0  0  0  0  0  0  0  0  0
    2.9007   -3.5313    0.0000 O   0  5  0  0  0  0  0  0  0  0  0  0
    1.8377   -2.9727    0.0000 O   0  0  0  0  0  0  0  0  0  0  0  0
    5.4050   -0.7567    0.0000 O   0  5  0  0  0  0  0  0  0  0  0  0
    5.3870   -2.1800    0.0000 O   0  0  0  0  0  0  0  0  0  0  0  0
    1.6576   -2.8106    0.0000 O   0  0  0  0  0  0  0  0  0  0  0  0
    2.5043   -2.8286    0.0000 N   0  3  0  0  0  0  0  0  0  0  0  0
    4.9906   -1.4413    0.0000 N   0  3  0  0  0  0  0  0  0  0  0  0
    1.6936   -1.3873    0.0000 N   0  0  0  0  0  0  0  0  0  0  0  0
    0.0000   -2.7925    0.0000 N   0  0  0  0  0  0  0  0  0  0  0  0
    2.9187   -2.1079    0.0000 C   0  0  0  0  0  0  0  0  0  0  0  0
    2.5043   -1.3873    0.0000 C   0  0  0  0  0  0  0  0  0  0  0  0
    4.1618   -1.4233    0.0000 C   0  0  0  0  0  0  0  0  0  0  0  0
    3.7655   -0.7026    0.0000 C   0  0  0  0  0  0  0  0  0  0  0  0
    3.7295   -2.1259    0.0000 C   0  0  0  0  0  0  0  0  0  0  0  0
    2.9547   -0.6846    0.0000 C   0  0  0  0  0  0  0  0  0  0  0  0
    1.2611   -2.0899    0.0000 C   0  0  0  0  0  0  0  0  0  0  0  0
    0.4324   -2.0899    0.0000 C   0  0  3  0  0  0  0  0  0  0  0  0
    0.0360   -1.3693    0.0000 C   0  0  0  0  0  0  0  0  0  0  0  0
  1 14  1  0  0  0  0
  2  7  1  0  0  0  0
  3  7  2  0  0  0  0
  4  8  1  0  0  0  0
  5  8  2  0  0  0  0
  6 17  2  0  0  0  0
  7 11  1  0  0  0  0
  8 13  1  0  0  0  0
  9 12  1  0  0  0  0
  9 17  1  0  0  0  0
 10 18  1  0  0  0  0
 11 12  1  0  0  0  0
 11 15  2  0  0  0  0
 12 16  2  0  0  0  0
 13 14  2  0  0  0  0
 13 15  1  0  0  0  0
 14 16  1  0  0  0  0
 17 18  1  0  0  0  0
 18 19  1  0  0  0  0
M  CHG  4   2  -1   4  -1   7   1   8   1
M  END
> <PUBCHEM_COMPOUND_ID_TYPE>
0

> <PUBCHEM_TOTAL_CHARGE>
0

> <PUBCHEM_SUBSTANCE_ID>
310937549

> <PUBCHEM_SUBSTANCE_VERSION>
1

> <PUBCHEM_EXT_DATASOURCE_NAME>
4488

> <PUBCHEM_EXT_DATASOURCE_REGID>
SCHEMBL16115326

> <PUBCHEM_SUBSTANCE_COMMENT>
InChI=1S/C9H9FN4O5/c1-4(11)9(15)12-6-2-5(10)7(13(16)17)3-8(6)14(18)19/h2-4H,11H2,1H3,(H,12,15)
InChIKey=JEBYGZRPAMNXRD-UHFFFAOYSA-N

> <PUBCHEM_SUBSTANCE_SYNONYM>
SCHEMBL16115326

> <PUBCHEM_XREF_EXT_ID>
SCHEMBL16115326

> <PUBCHEM_EXT_DATASOURCE_URL>
https://www.surechembl.org/

> <PUBCHEM_EXT_SUBSTANCE_URL>
https://www.surechembl.org/chemical/SCHEMBL16115326

> <PUBCHEM_CID_ASSOCIATIONS>
21585187  1

> <PUBCHEM_COORDINATE_TYPE>
1
3

$$$$
