310936189
  -OEChem-07211613022D

 18 18  0     1  0  0  0  0  0999 V2000
   -1.4290    0.0000    0.0000 Br  0  0  0  0  0  0  0  0  0  0  0  0
    2.1435    0.4125    0.0000 Br  0  0  0  0  0  0  0  0  0  0  0  0
   -1.4290   -2.4751    0.0000 F   0  0  0  0  0  0  0  0  0  0  0  0
    2.1435   -1.2375    0.0000 O   0  0  0  0  0  0  0  0  0  0  0  0
    2.8579   -2.4751    0.0000 O   0  0  0  0  0  0  0  0  0  0  0  0
    0.7145   -2.0625    0.0000 C   0  0  0  0  0  0  0  0  0  0  0  0
    0.0000   -0.8250    0.0000 C   0  0  0  0  0  0  0  0  0  0  0  0
    0.0000   -2.4751    0.0000 C   0  0  0  0  0  0  0  0  0  0  0  0
   -0.7145   -2.0625    0.0000 C   0  0  0  0  0  0  0  0  0  0  0  0
    0.7145   -1.2375    0.0000 C   0  0  0  0  0  0  0  0  0  0  0  0
   -0.7145   -1.2375    0.0000 C   0  0  0  0  0  0  0  0  0  0  0  0
    0.0000    0.0000    0.0000 C   0  0  3  0  0  0  0  0  0  0  0  0
    1.4290   -2.4751    0.0000 C   0  0  0  0  0  0  0  0  0  0  0  0
    0.0000   -3.3001    0.0000 C   0  0  0  0  0  0  0  0  0  0  0  0
    0.7145    0.4125    0.0000 C   0  0  0  0  0  0  0  0  0  0  0  0
    2.1435   -2.0625    0.0000 C   0  0  0  0  0  0  0  0  0  0  0  0
   -0.7145    0.4125    0.0000 C   0  0  0  0  0  0  0  0  0  0  0  0
    1.4290    0.0000    0.0000 C   0  0  0  0  0  0  0  0  0  0  0  0
  1 17  1  0  0  0  0
  2 18  1  0  0  0  0
  3  9  1  0  0  0  0
  4 16  2  0  0  0  0
  5 16  1  0  0  0  0
  6  8  1  0  0  0  0
  6 10  2  0  0  0  0
  6 13  1  0  0  0  0
  7 10  1  0  0  0  0
  7 11  2  0  0  0  0
  7 12  1  0  0  0  0
  8  9  2  0  0  0  0
  8 14  1  0  0  0  0
  9 11  1  0  0  0  0
 12 15  1  0  0  0  0
 12 17  1  0  0  0  0
 13 16  1  0  0  0  0
 15 18  1  0  0  0  0
M  END
> <PUBCHEM_COMPOUND_ID_TYPE>
0

> <PUBCHEM_TOTAL_CHARGE>
0

> <PUBCHEM_SUBSTANCE_ID>
310936189

> <PUBCHEM_SUBSTANCE_VERSION>
1

> <PUBCHEM_EXT_DATASOURCE_NAME>
4488

> <PUBCHEM_EXT_DATASOURCE_REGID>
SCHEMBL16113801

> <PUBCHEM_SUBSTANCE_COMMENT>
InChI=1S/C13H15Br2FO2/c1-8-10(6-13(17)18)4-11(5-12(8)16)9(7-15)2-3-14/h4-5,9H,2-3,6-7H2,1H3,(H,17,18)
InChIKey=JLPUVFITSPUPJH-UHFFFAOYSA-N

> <PUBCHEM_SUBSTANCE_SYNONYM>
SCHEMBL16113801

> <PUBCHEM_XREF_EXT_ID>
SCHEMBL16113801

> <PUBCHEM_EXT_DATASOURCE_URL>
https://www.surechembl.org/

> <PUBCHEM_EXT_SUBSTANCE_URL>
https://www.surechembl.org/chemical/SCHEMBL16113801

> <PUBCHEM_CID_ASSOCIATIONS>
117604145  1

> <PUBCHEM_COORDINATE_TYPE>
1
3

$$$$
