310939075
  -OEChem-07211613022D

 21 24  0     1  0  0  0  0  0999 V2000
   -0.5443    1.8353    0.0000 O   0  0  0  0  0  0  0  0  0  0  0  0
    0.6101   -0.6249    0.0000 O   0  0  0  0  0  0  0  0  0  0  0  0
    0.9548    1.9929    0.0000 O   0  0  0  0  0  0  0  0  0  0  0  0
    1.8609   -0.7233    0.0000 O   0  0  0  0  0  0  0  0  0  0  0  0
    3.2428   -0.7957    0.0000 O   0  0  0  0  0  0  0  0  0  0  0  0
   -0.5443    0.5004    0.0000 C   0  0  3  0  0  0  0  0  0  0  0  0
   -1.0293    1.1679    0.0000 C   0  0  3  0  0  0  0  0  0  0  0  0
    0.2403    0.7554    0.0000 C   0  0  0  0  0  0  0  0  0  0  0  0
   -1.8139    0.9129    0.0000 C   0  0  0  0  0  0  0  0  0  0  0  0
   -1.8139    0.0879    0.0000 C   0  0  0  0  0  0  0  0  0  0  0  0
    0.2403    1.5804    0.0000 C   0  0  0  0  0  0  0  0  0  0  0  0
   -1.0293   -0.1670    0.0000 C   0  0  0  0  0  0  0  0  0  0  0  0
    0.8236    0.1720    0.0000 C   0  0  0  0  0  0  0  0  0  0  0  0
   -2.5284    1.3254    0.0000 C   0  0  0  0  0  0  0  0  0  0  0  0
   -2.5284   -0.3246    0.0000 C   0  0  0  0  0  0  0  0  0  0  0  0
    1.1935   -1.2082    0.0000 C   0  0  3  0  0  0  0  0  0  0  0  0
   -3.2428    0.9129    0.0000 C   0  0  0  0  0  0  0  0  0  0  0  0
   -3.2428    0.0879    0.0000 C   0  0  0  0  0  0  0  0  0  0  0  0
    2.5284   -1.2082    0.0000 C   0  0  0  0  0  0  0  0  0  0  0  0
    1.4484   -1.9929    0.0000 C   0  0  0  0  0  0  0  0  0  0  0  0
    2.2734   -1.9929    0.0000 C   0  0  0  0  0  0  0  0  0  0  0  0
  1  7  1  0  0  0  0
  1 11  1  0  0  0  0
  2 13  1  0  0  0  0
  2 16  1  0  0  0  0
  3 11  2  0  0  0  0
  4 16  1  0  0  0  0
  4 19  1  0  0  0  0
  5 19  2  0  0  0  0
  6  7  1  0  0  0  0
  6  8  1  0  0  0  0
  6 12  1  0  0  0  0
  7  9  1  0  0  0  0
  8 11  1  0  0  0  0
  8 13  2  0  0  0  0
  9 10  2  0  0  0  0
  9 14  1  0  0  0  0
 10 12  1  0  0  0  0
 10 15  1  0  0  0  0
 14 17  1  0  0  0  0
 15 18  1  0  0  0  0
 16 20  1  0  0  0  0
 17 18  1  0  0  0  0
 19 21  1  0  0  0  0
 20 21  1  0  0  0  0
M  END
> <PUBCHEM_COMPOUND_ID_TYPE>
0

> <PUBCHEM_TOTAL_CHARGE>
0

> <PUBCHEM_SUBSTANCE_ID>
310939075

> <PUBCHEM_SUBSTANCE_VERSION>
1

> <PUBCHEM_EXT_DATASOURCE_NAME>
4488

> <PUBCHEM_EXT_DATASOURCE_REGID>
SCHEMBL16116994

> <PUBCHEM_SUBSTANCE_COMMENT>
InChI=1S/C16H18O5/c17-13-5-6-14(20-13)19-8-12-11-7-9-3-1-2-4-10(9)15(11)21-16(12)18/h8,11,14-15H,1-7H2/b12-8+
InChIKey=CGERGQGPAQQYIE-XYOKQWHBSA-N

> <PUBCHEM_SUBSTANCE_SYNONYM>
SCHEMBL16116994

> <PUBCHEM_XREF_EXT_ID>
SCHEMBL16116994

> <PUBCHEM_EXT_DATASOURCE_URL>
https://www.surechembl.org/

> <PUBCHEM_EXT_SUBSTANCE_URL>
https://www.surechembl.org/chemical/SCHEMBL16116994

> <PUBCHEM_CID_ASSOCIATIONS>
117606437  1

> <PUBCHEM_COORDINATE_TYPE>
1
3

$$$$
