310934287
  -OEChem-07211613022D

 39 43  0     1  0  0  0  0  0999 V2000
    3.7126    0.0000    0.0000 Cl  0  0  0  0  0  0  0  0  0  0  0  0
    2.5504   -6.4568    0.0000 O   0  0  0  0  0  0  0  0  0  0  0  0
    4.1323   -5.0363    0.0000 O   0  0  0  0  0  0  0  0  0  0  0  0
    6.2307   -2.8409    0.0000 O   0  5  0  0  0  0  0  0  0  0  0  0
    5.0039   -3.5835    0.0000 O   0  0  0  0  0  0  0  0  0  0  0  0
    2.9378   -4.2938    0.0000 N   0  0  0  0  0  0  0  0  0  0  0  0
    3.7772   -5.7465    0.0000 N   0  0  0  0  0  0  0  0  0  0  0  0
    5.3914   -2.8409    0.0000 N   0  3  0  0  0  0  0  0  0  0  0  0
    2.6472   -3.7449    0.0000 N   0  0  0  0  0  0  0  0  0  0  0  0
    2.5181   -5.0363    0.0000 C   0  0  3  0  0  0  0  0  0  0  0  0
    2.9378   -5.7465    0.0000 C   0  0  0  0  0  0  0  0  0  0  0  0
    3.7449   -2.8733    0.0000 C   0  0  0  0  0  0  0  0  0  0  0  0
    4.1323   -2.1630    0.0000 C   0  0  0  0  0  0  0  0  0  0  0  0
    3.7449   -4.2938    0.0000 C   0  0  0  0  0  0  0  0  0  0  0  0
    4.3583   -5.1654    0.0000 C   0  0  3  0  0  0  0  0  0  0  0  0
    4.1646   -3.5835    0.0000 C   0  0  0  0  0  0  0  0  0  0  0  0
    4.9717   -2.1308    0.0000 C   0  0  0  0  0  0  0  0  0  0  0  0
    2.4858   -3.5835    0.0000 C   0  0  0  0  0  0  0  0  0  0  0  0
    2.9378   -2.8733    0.0000 C   0  0  0  0  0  0  0  0  0  0  0  0
    1.7110   -5.0363    0.0000 C   0  0  0  0  0  0  0  0  0  0  0  0
    3.9386   -4.4551    0.0000 C   0  0  0  0  0  0  0  0  0  0  0  0
    3.7126   -1.4528    0.0000 C   0  0  0  0  0  0  0  0  0  0  0  0
    4.1969   -6.4568    0.0000 C   0  0  0  0  0  0  0  0  0  0  0  0
    5.3914   -1.4205    0.0000 C   0  0  0  0  0  0  0  0  0  0  0  0
    4.1323   -0.7103    0.0000 C   0  0  0  0  0  0  0  0  0  0  0  0
    5.0039   -5.0039    0.0000 C   0  0  0  0  0  0  0  0  0  0  0  0
    1.2590   -4.3260    0.0000 C   0  0  0  0  0  0  0  0  0  0  0  0
    4.9717   -0.7103    0.0000 C   0  0  0  0  0  0  0  0  0  0  0  0
    5.0039   -6.4244    0.0000 C   0  0  0  0  0  0  0  0  0  0  0  0
    5.4237   -5.7142    0.0000 C   0  0  0  0  0  0  0  0  0  0  0  0
    3.0670   -4.4551    0.0000 C   0  0  0  0  0  0  0  0  0  0  0  0
    4.2938   -3.7126    0.0000 C   0  0  0  0  0  0  0  0  0  0  0  0
    0.4197   -4.3260    0.0000 C   0  0  0  0  0  0  0  0  0  0  0  0
    1.6788   -3.5835    0.0000 C   0  0  0  0  0  0  0  0  0  0  0  0
    3.8740   -3.0346    0.0000 C   0  0  0  0  0  0  0  0  0  0  0  0
    3.0346   -3.0024    0.0000 C   0  0  0  0  0  0  0  0  0  0  0  0
    0.0000   -3.6158    0.0000 C   0  0  0  0  0  0  0  0  0  0  0  0
    1.2590   -2.9055    0.0000 C   0  0  0  0  0  0  0  0  0  0  0  0
    0.4197   -2.9055    0.0000 C   0  0  0  0  0  0  0  0  0  0  0  0
  1 25  1  0  0  0  0
  2 11  2  0  0  0  0
  3 14  2  0  0  0  0
  4  8  1  0  0  0  0
  5  8  2  0  0  0  0
  6 10  1  0  0  0  0
  6 14  1  0  0  0  0
  6 18  1  0  0  0  0
  7 11  1  0  0  0  0
  7 15  1  0  0  0  0
  7 23  1  0  0  0  0
  8 17  1  0  0  0  0
  9 31  1  0  0  0  0
  9 36  2  0  0  0  0
 10 11  1  0  0  0  0
 10 20  1  0  0  0  0
 12 13  1  0  0  0  0
 12 16  2  0  0  0  0
 12 19  1  0  0  0  0
 13 17  1  0  0  0  0
 13 22  2  0  0  0  0
 14 16  1  0  0  0  0
 15 21  1  0  0  0  0
 15 26  1  0  0  0  0
 17 24  2  0  0  0  0
 18 19  2  0  0  0  0
 20 27  1  0  0  0  0
 21 31  2  0  0  0  0
 21 32  1  0  0  0  0
 22 25  1  0  0  0  0
 23 29  1  0  0  0  0
 24 28  1  0  0  0  0
 25 28  2  0  0  0  0
 26 30  1  0  0  0  0
 27 33  2  0  0  0  0
 27 34  1  0  0  0  0
 29 30  1  0  0  0  0
 32 35  2  0  0  0  0
 33 37  1  0  0  0  0
 34 38  2  0  0  0  0
 35 36  1  0  0  0  0
 37 39  2  0  0  0  0
 38 39  1  0  0  0  0
M  CHG  2   4  -1   8   1
M  END
> <PUBCHEM_COMPOUND_ID_TYPE>
0

> <PUBCHEM_TOTAL_CHARGE>
0

> <PUBCHEM_SUBSTANCE_ID>
310934287

> <PUBCHEM_SUBSTANCE_VERSION>
1

> <PUBCHEM_EXT_DATASOURCE_NAME>
4488

> <PUBCHEM_EXT_DATASOURCE_REGID>
SCHEMBL16111745

> <PUBCHEM_SUBSTANCE_COMMENT>
InChI=1S/C30H27ClN4O4/c31-24-11-12-27(35(38)39)25(19-24)22-13-16-33(29(36)18-22)28(17-21-7-2-1-3-8-21)30(37)34-15-5-4-10-26(34)23-9-6-14-32-20-23/h1-3,6-9,11-14,16,18-20,26,28H,4-5,10,15,17H2
InChIKey=RBDCJNIYOFHFCA-UHFFFAOYSA-N

> <PUBCHEM_SUBSTANCE_SYNONYM>
SCHEMBL16111745

> <PUBCHEM_XREF_EXT_ID>
SCHEMBL16111745

> <PUBCHEM_EXT_DATASOURCE_URL>
https://www.surechembl.org/

> <PUBCHEM_EXT_SUBSTANCE_URL>
https://www.surechembl.org/chemical/SCHEMBL16111745

> <PUBCHEM_CID_ASSOCIATIONS>
86299898  1

> <PUBCHEM_COORDINATE_TYPE>
1
3

$$$$
