310934421
  -OEChem-07211613022D

 41 45  0     1  0  0  0  0  0999 V2000
    4.4004   -1.3853    0.0000 Cl  0  0  0  0  0  0  0  0  0  0  0  0
    2.8521   -4.6041    0.0000 O   0  0  0  0  0  0  0  0  0  0  0  0
    4.2781   -6.3153    0.0000 O   0  0  0  0  0  0  0  0  0  0  0  0
    2.1187   -3.3818    0.0000 O   0  0  0  0  0  0  0  0  0  0  0  0
    5.7857   -2.2409    0.0000 O   0  0  0  0  0  0  0  0  0  0  0  0
    3.4225   -0.6111    0.0000 O   0  0  0  0  0  0  0  0  0  0  0  0
    5.0930   -0.7334    0.0000 O   0  0  0  0  0  0  0  0  0  0  0  0
    4.8078   -4.6448    0.0000 N   0  0  0  0  0  0  0  0  0  0  0  0
    3.5855   -4.1966    0.0000 C   0  0  3  0  0  0  0  0  0  0  0  0
    4.0744   -3.5447    0.0000 C   0  0  0  0  0  0  0  0  0  0  0  0
    4.0337   -4.8893    0.0000 C   0  0  3  0  0  0  0  0  0  0  0  0
    4.8486   -3.8300    0.0000 C   0  0  0  0  0  0  0  0  0  0  0  0
    3.2188   -3.4633    0.0000 C   0  0  0  0  0  0  0  0  0  0  0  0
    3.7484   -5.6634    0.0000 C   0  0  0  0  0  0  0  0  0  0  0  0
    3.9115   -2.7298    0.0000 C   0  0  0  0  0  0  0  0  0  0  0  0
    3.6669   -2.7706    0.0000 C   0  0  0  0  0  0  0  0  0  0  0  0
    5.4597   -3.3003    0.0000 C   0  0  0  0  0  0  0  0  0  0  0  0
    2.1187   -4.1966    0.0000 C   0  0  0  0  0  0  0  0  0  0  0  0
    4.5633   -2.2002    0.0000 C   0  0  0  0  0  0  0  0  0  0  0  0
    5.2967   -2.4854    0.0000 C   0  0  0  0  0  0  0  0  0  0  0  0
    2.9336   -5.8264    0.0000 C   0  0  0  0  0  0  0  0  0  0  0  0
    4.5226   -2.8521    0.0000 C   0  0  0  0  0  0  0  0  0  0  0  0
    3.3410   -2.0372    0.0000 C   0  0  0  0  0  0  0  0  0  0  0  0
    1.4261   -4.6041    0.0000 C   0  0  0  0  0  0  0  0  0  0  0  0
    4.9708   -2.1594    0.0000 C   0  0  0  0  0  0  0  0  0  0  0  0
    3.7892   -1.3446    0.0000 C   0  0  0  0  0  0  0  0  0  0  0  0
    4.6041   -1.4261    0.0000 C   0  0  0  0  0  0  0  0  0  0  0  0
    2.6483   -6.6005    0.0000 C   0  0  0  0  0  0  0  0  0  0  0  0
    0.6926   -4.1966    0.0000 C   0  0  0  0  0  0  0  0  0  0  0  0
    1.4261   -5.4597    0.0000 C   0  0  0  0  0  0  0  0  0  0  0  0
    3.2188   -7.2117    0.0000 C   0  0  0  0  0  0  0  0  0  0  0  0
    1.8743   -6.7228    0.0000 C   0  0  0  0  0  0  0  0  0  0  0  0
    0.0000   -4.6041    0.0000 C   0  0  0  0  0  0  0  0  0  0  0  0
    0.6926   -5.8672    0.0000 C   0  0  0  0  0  0  0  0  0  0  0  0
    0.0000   -5.4597    0.0000 C   0  0  0  0  0  0  0  0  0  0  0  0
    2.9336   -7.9859    0.0000 C   0  0  0  0  0  0  0  0  0  0  0  0
    1.5890   -7.5377    0.0000 C   0  0  0  0  0  0  0  0  0  0  0  0
    6.2746   -1.5483    0.0000 C   0  0  0  0  0  0  0  0  0  0  0  0
    2.6076   -0.5297    0.0000 C   0  0  0  0  0  0  0  0  0  0  0  0
    4.7263    0.0000    0.0000 C   0  0  0  0  0  0  0  0  0  0  0  0
    2.1187   -8.1488    0.0000 C   0  0  0  0  0  0  0  0  0  0  0  0
  1 19  1  0  0  0  0
  2  9  1  0  0  0  0
  2 18  1  0  0  0  0
  3 14  2  0  0  0  0
  4 18  2  0  0  0  0
  5 25  1  0  0  0  0
  5 38  1  0  0  0  0
  6 26  1  0  0  0  0
  6 39  1  0  0  0  0
  7 27  1  0  0  0  0
  7 40  1  0  0  0  0
  8 11  1  0  0  0  0
  8 12  1  0  0  0  0
  9 10  1  0  0  0  0
  9 11  1  0  0  0  0
  9 13  1  0  0  0  0
 10 12  2  0  0  0  0
 10 15  1  0  0  0  0
 11 14  1  0  0  0  0
 12 17  1  0  0  0  0
 13 16  1  0  0  0  0
 14 21  1  0  0  0  0
 15 19  2  0  0  0  0
 16 22  2  0  0  0  0
 16 23  1  0  0  0  0
 17 20  2  0  0  0  0
 18 24  1  0  0  0  0
 19 20  1  0  0  0  0
 21 28  1  0  0  0  0
 22 25  1  0  0  0  0
 23 26  2  0  0  0  0
 24 29  2  0  0  0  0
 24 30  1  0  0  0  0
 25 27  2  0  0  0  0
 26 27  1  0  0  0  0
 28 31  2  0  0  0  0
 28 32  1  0  0  0  0
 29 33  1  0  0  0  0
 30 34  2  0  0  0  0
 31 36  1  0  0  0  0
 32 37  2  0  0  0  0
 33 35  2  0  0  0  0
 34 35  1  0  0  0  0
 36 41  2  0  0  0  0
 37 41  1  0  0  0  0
M  END
> <PUBCHEM_COMPOUND_ID_TYPE>
0

> <PUBCHEM_TOTAL_CHARGE>
0

> <PUBCHEM_SUBSTANCE_ID>
310934421

> <PUBCHEM_SUBSTANCE_VERSION>
1

> <PUBCHEM_EXT_DATASOURCE_NAME>
4488

> <PUBCHEM_EXT_DATASOURCE_REGID>
SCHEMBL16111897

> <PUBCHEM_SUBSTANCE_COMMENT>
InChI=1S/C33H30ClNO6/c1-38-28-17-22(18-29(39-2)30(28)40-3)20-33(41-32(37)23-12-8-5-9-13-23)25-19-24(34)14-15-26(25)35-31(33)27(36)16-21-10-6-4-7-11-21/h4-15,17-19,31,35H,16,20H2,1-3H3
InChIKey=XUOFEASEMQJJQK-UHFFFAOYSA-N

> <PUBCHEM_SUBSTANCE_SYNONYM>
SCHEMBL16111897

> <PUBCHEM_XREF_EXT_ID>
SCHEMBL16111897

> <PUBCHEM_EXT_DATASOURCE_URL>
https://www.surechembl.org/

> <PUBCHEM_EXT_SUBSTANCE_URL>
https://www.surechembl.org/chemical/SCHEMBL16111897

> <PUBCHEM_CID_ASSOCIATIONS>
117602637  1

> <PUBCHEM_COORDINATE_TYPE>
1
3

$$$$
