310941273
  -OEChem-07211613022D

 43 46  0     1  0  0  0  0  0999 V2000
    5.1969    0.5921    0.0000 O   0  0  0  0  0  0  0  0  0  0  0  0
    4.0566   -1.3815    0.0000 O   0  0  0  0  0  0  0  0  0  0  0  0
    1.6738    0.5774    0.0000 O   0  0  0  0  0  0  0  0  0  0  0  0
    3.1503    2.7556    0.0000 O   0  0  0  0  0  0  0  0  0  0  0  0
   -0.4897   -1.4984    0.0000 O   0  0  0  0  0  0  0  0  0  0  0  0
    3.8374   -3.1649    0.0000 O   0  0  0  0  0  0  0  0  0  0  0  0
   -2.6533    0.5774    0.0000 O   0  0  0  0  0  0  0  0  0  0  0  0
   -5.5331    0.5774    0.0000 O   0  0  0  0  0  0  0  0  0  0  0  0
    2.4048   -0.6651    0.0000 N   0  0  0  0  0  0  0  0  0  0  0  0
    1.7177    2.3609    0.0000 N   0  0  0  0  0  0  0  0  0  0  0  0
    0.2412   -0.2558    0.0000 N   0  0  0  0  0  0  0  0  0  0  0  0
   -1.9223   -0.6651    0.0000 N   0  0  0  0  0  0  0  0  0  0  0  0
   -4.0859   -0.2558    0.0000 N   0  0  0  0  0  0  0  0  0  0  0  0
    4.7730   -0.0804    0.0000 C   0  0  3  0  0  0  0  0  0  0  0  0
    4.0713   -0.4897    0.0000 C   0  0  0  0  0  0  0  0  0  0  0  0
    4.3929    0.6067    0.0000 C   0  0  0  0  0  0  0  0  0  0  0  0
    3.3550   -0.0950    0.0000 C   0  0  3  0  0  0  0  0  0  0  0  0
    5.5331   -0.5043    0.0000 C   0  0  0  0  0  0  0  0  0  0  0  0
    3.3550    0.9722    0.0000 C   0  0  0  0  0  0  0  0  0  0  0  0
    2.6094    1.3961    0.0000 C   0  0  3  0  0  0  0  0  0  0  0  0
    1.6738   -0.2412    0.0000 C   0  0  0  0  0  0  0  0  0  0  0  0
    2.5217    2.2001    0.0000 C   0  0  0  0  0  0  0  0  0  0  0  0
    0.9722   -0.6359    0.0000 C   0  0  3  0  0  0  0  0  0  0  0  0
    1.8639    1.0599    0.0000 C   0  0  0  0  0  0  0  0  0  0  0  0
    1.3084    1.6738    0.0000 C   0  0  0  0  0  0  0  0  0  0  0  0
    0.9722   -1.4838    0.0000 C   0  0  0  0  0  0  0  0  0  0  0  0
    1.7030   -1.8785    0.0000 C   0  0  0  0  0  0  0  0  0  0  0  0
   -0.4751   -0.6213    0.0000 C   0  0  0  0  0  0  0  0  0  0  0  0
   -1.1915   -0.2266    0.0000 C   0  0  3  0  0  0  0  0  0  0  0  0
    1.3668    3.1649    0.0000 C   0  0  0  0  0  0  0  0  0  0  0  0
    2.4048   -1.4984    0.0000 C   0  0  0  0  0  0  0  0  0  0  0  0
    1.7030   -2.7264    0.0000 C   0  0  0  0  0  0  0  0  0  0  0  0
    3.1357   -2.7117    0.0000 C   0  0  0  0  0  0  0  0  0  0  0  0
    3.1357   -1.9077    0.0000 C   0  0  0  0  0  0  0  0  0  0  0  0
    2.4193   -3.1357    0.0000 C   0  0  0  0  0  0  0  0  0  0  0  0
   -2.6533   -0.2412    0.0000 C   0  0  0  0  0  0  0  0  0  0  0  0
   -1.1768    0.6213    0.0000 C   0  0  0  0  0  0  0  0  0  0  0  0
   -3.3550   -0.6359    0.0000 C   0  0  0  0  0  0  0  0  0  0  0  0
   -4.0859    0.6067    0.0000 C   0  0  0  0  0  0  0  0  0  0  0  0
   -4.7876   -0.6359    0.0000 C   0  0  0  0  0  0  0  0  0  0  0  0
   -4.8168    1.0160    0.0000 C   0  0  0  0  0  0  0  0  0  0  0  0
   -5.5039   -0.2266    0.0000 C   0  0  0  0  0  0  0  0  0  0  0  0
    4.5975   -2.7410    0.0000 C   0  0  0  0  0  0  0  0  0  0  0  0
  1 14  1  0  0  0  0
  1 16  1  0  0  0  0
  2 15  2  0  0  0  0
  3 21  2  0  0  0  0
  4 22  2  0  0  0  0
  5 28  2  0  0  0  0
  6 33  1  0  0  0  0
  6 43  1  0  0  0  0
  7 36  2  0  0  0  0
  8 41  1  0  0  0  0
  8 42  1  0  0  0  0
  9 17  1  0  0  0  0
  9 21  1  0  0  0  0
 10 22  1  0  0  0  0
 10 25  1  0  0  0  0
 10 30  1  0  0  0  0
 11 23  1  0  0  0  0
 11 28  1  0  0  0  0
 12 29  1  0  0  0  0
 12 36  1  0  0  0  0
 13 38  1  0  0  0  0
 13 39  1  0  0  0  0
 13 40  1  0  0  0  0
 14 15  1  0  0  0  0
 14 16  1  0  0  0  0
 14 18  1  0  0  0  0
 15 17  1  0  0  0  0
 17 19  1  0  0  0  0
 19 20  1  0  0  0  0
 20 22  1  0  0  0  0
 20 24  1  0  0  0  0
 21 23  1  0  0  0  0
 23 26  1  0  0  0  0
 24 25  1  0  0  0  0
 26 27  1  0  0  0  0
 27 31  2  0  0  0  0
 27 32  1  0  0  0  0
 28 29  1  0  0  0  0
 29 37  1  0  0  0  0
 31 34  1  0  0  0  0
 32 35  2  0  0  0  0
 33 34  2  0  0  0  0
 33 35  1  0  0  0  0
 36 38  1  0  0  0  0
 39 41  1  0  0  0  0
 40 42  1  0  0  0  0
M  END
> <PUBCHEM_COMPOUND_ID_TYPE>
0

> <PUBCHEM_TOTAL_CHARGE>
0

> <PUBCHEM_SUBSTANCE_ID>
310941273

> <PUBCHEM_SUBSTANCE_VERSION>
1

> <PUBCHEM_EXT_DATASOURCE_NAME>
4488

> <PUBCHEM_EXT_DATASOURCE_REGID>
SCHEMBL16119233

> <PUBCHEM_SUBSTANCE_COMMENT>
InChI=1S/C30H43N5O8/c1-19(31-25(36)17-35-11-13-42-14-12-35)27(38)33-24(15-20-5-7-22(41-4)8-6-20)28(39)32-23(26(37)30(2)18-43-30)16-21-9-10-34(3)29(21)40/h5-8,19,21,23-24H,9-18H2,1-4H3,(H,31,36)(H,32,39)(H,33,38)
InChIKey=KBWRLIIPRWIGLV-UHFFFAOYSA-N

> <PUBCHEM_SUBSTANCE_SYNONYM>
SCHEMBL16119233

> <PUBCHEM_XREF_EXT_ID>
SCHEMBL16119233

> <PUBCHEM_EXT_DATASOURCE_URL>
https://www.surechembl.org/

> <PUBCHEM_EXT_SUBSTANCE_URL>
https://www.surechembl.org/chemical/SCHEMBL16119233

> <PUBCHEM_CID_ASSOCIATIONS>
86297507  1

> <PUBCHEM_COORDINATE_TYPE>
1
3

$$$$
