310934616
  -OEChem-07211613022D

 39 44  0     1  0  0  0  0  0999 V2000
    5.2040   -4.2443    0.0000 F   0  0  0  0  0  0  0  0  0  0  0  0
    6.0953   -8.4374    0.0000 O   0  0  0  0  0  0  0  0  0  0  0  0
    7.1572   -7.4812    0.0000 O   0  0  0  0  0  0  0  0  0  0  0  0
    1.1270   -2.9196    0.0000 N   0  0  0  0  0  0  0  0  0  0  0  0
    4.6941   -5.8135    0.0000 N   0  0  3  0  0  0  0  0  0  0  0  0
    2.1889   -1.9634    0.0000 N   0  0  0  0  0  0  0  0  0  0  0  0
    0.3020   -2.9196    0.0000 N   0  0  0  0  0  0  0  0  0  0  0  0
    5.7982   -7.0397    0.0000 N   0  0  0  0  0  0  0  0  0  0  0  0
    0.7144    0.8250    0.0000 N   0  0  0  0  0  0  0  0  0  0  0  0
    1.3819   -2.1349    0.0000 C   0  0  0  0  0  0  0  0  0  0  0  0
    0.7144   -1.6500    0.0000 C   0  0  0  0  0  0  0  0  0  0  0  0
    0.7144   -0.8250    0.0000 C   0  0  0  0  0  0  0  0  0  0  0  0
    2.4860   -3.3611    0.0000 C   0  0  0  0  0  0  0  0  0  0  0  0
    4.1421   -5.2004    0.0000 C   0  0  0  0  0  0  0  0  0  0  0  0
    4.4391   -6.5981    0.0000 C   0  0  3  0  0  0  0  0  0  0  0  0
    3.0380   -3.9742    0.0000 C   0  0  0  0  0  0  0  0  0  0  0  0
    0.0000   -0.4125    0.0000 C   0  0  0  0  0  0  0  0  0  0  0  0
    1.6790   -3.5327    0.0000 C   0  0  0  0  0  0  0  0  0  0  0  0
    0.0470   -2.1349    0.0000 C   0  0  0  0  0  0  0  0  0  0  0  0
    4.3970   -4.4158    0.0000 C   0  0  0  0  0  0  0  0  0  0  0  0
    3.6322   -6.7697    0.0000 C   0  0  0  0  0  0  0  0  0  0  0  0
    2.7409   -2.5765    0.0000 C   0  0  0  0  0  0  0  0  0  0  0  0
    0.0000    0.4125    0.0000 C   0  0  0  0  0  0  0  0  0  0  0  0
    3.8450   -3.8027    0.0000 C   0  0  0  0  0  0  0  0  0  0  0  0
    3.3351   -5.3719    0.0000 C   0  0  0  0  0  0  0  0  0  0  0  0
    2.7831   -4.7588    0.0000 C   0  0  0  0  0  0  0  0  0  0  0  0
    4.9912   -7.2112    0.0000 C   0  0  0  0  0  0  0  0  0  0  0  0
    1.4290   -0.4125    0.0000 C   0  0  0  0  0  0  0  0  0  0  0  0
    5.5011   -5.6419    0.0000 C   0  0  0  0  0  0  0  0  0  0  0  0
   -0.7144   -0.8250    0.0000 C   0  0  0  0  0  0  0  0  0  0  0  0
    6.0531   -6.2550    0.0000 C   0  0  0  0  0  0  0  0  0  0  0  0
    1.4290    0.4125    0.0000 C   0  0  0  0  0  0  0  0  0  0  0  0
   -0.7144    0.8250    0.0000 C   0  0  0  0  0  0  0  0  0  0  0  0
    6.3502   -7.6528    0.0000 C   0  0  0  0  0  0  0  0  0  0  0  0
    3.4187   -7.5665    0.0000 C   0  0  0  0  0  0  0  0  0  0  0  0
    2.8353   -6.9832    0.0000 C   0  0  0  0  0  0  0  0  0  0  0  0
    3.0488   -6.1863    0.0000 C   0  0  0  0  0  0  0  0  0  0  0  0
   -1.4290   -0.4125    0.0000 C   0  0  0  0  0  0  0  0  0  0  0  0
   -1.4290    0.4125    0.0000 C   0  0  0  0  0  0  0  0  0  0  0  0
  1 20  1  0  0  0  0
  2 34  2  0  0  0  0
  3 34  1  0  0  0  0
  4  7  1  0  0  0  0
  4 10  1  0  0  0  0
  4 18  1  0  0  0  0
  5 14  1  0  0  0  0
  5 15  1  0  0  0  0
  5 29  1  0  0  0  0
  6 10  1  0  0  0  0
  6 22  2  0  0  0  0
  7 19  2  0  0  0  0
  8 27  1  0  0  0  0
  8 31  1  0  0  0  0
  8 34  1  0  0  0  0
  9 23  1  0  0  0  0
  9 32  2  0  0  0  0
 10 11  2  0  0  0  0
 11 12  1  0  0  0  0
 11 19  1  0  0  0  0
 12 17  1  0  0  0  0
 12 28  2  0  0  0  0
 13 16  1  0  0  0  0
 13 18  2  0  0  0  0
 13 22  1  0  0  0  0
 14 20  1  0  0  0  0
 14 25  2  0  0  0  0
 15 21  1  0  0  0  0
 15 27  1  0  0  0  0
 16 24  1  0  0  0  0
 16 26  2  0  0  0  0
 17 23  1  0  0  0  0
 17 30  2  0  0  0  0
 20 24  2  0  0  0  0
 21 35  1  0  0  0  0
 21 36  1  0  0  0  0
 21 37  1  0  0  0  0
 23 33  2  0  0  0  0
 25 26  1  0  0  0  0
 28 32  1  0  0  0  0
 29 31  1  0  0  0  0
 30 38  1  0  0  0  0
 33 39  1  0  0  0  0
 38 39  2  0  0  0  0
M  END
> <PUBCHEM_COMPOUND_ID_TYPE>
0

> <PUBCHEM_TOTAL_CHARGE>
0

> <PUBCHEM_SUBSTANCE_ID>
310934616

> <PUBCHEM_SUBSTANCE_VERSION>
1

> <PUBCHEM_EXT_DATASOURCE_NAME>
4488

> <PUBCHEM_EXT_DATASOURCE_REGID>
SCHEMBL16112112

> <PUBCHEM_SUBSTANCE_COMMENT>
InChI=1S/C30H29FN6O2/c1-30(2,3)27-18-35(29(38)39)12-13-36(27)26-9-8-19(14-24(26)31)20-15-33-28-23(16-34-37(28)17-20)21-10-11-32-25-7-5-4-6-22(21)25/h4-11,14-17,27H,12-13,18H2,1-3H3,(H,38,39)
InChIKey=BWHOZPMEISUTTD-UHFFFAOYSA-N

> <PUBCHEM_SUBSTANCE_SYNONYM>
SCHEMBL16112112

> <PUBCHEM_XREF_EXT_ID>
SCHEMBL16112112

> <PUBCHEM_EXT_DATASOURCE_URL>
https://www.surechembl.org/

> <PUBCHEM_EXT_SUBSTANCE_URL>
https://www.surechembl.org/chemical/SCHEMBL16112112

> <PUBCHEM_CID_ASSOCIATIONS>
117602790  1

> <PUBCHEM_COORDINATE_TYPE>
1
3

$$$$
