310947674
  -OEChem-07211613022D

 26 27  0     1  0  0  0  0  0999 V2000
   -3.3738   10.5295    0.0000 F   0  0  0  0  0  0  0  0  0  0  0  0
   -3.0040   11.9097    0.0000 F   0  0  0  0  0  0  0  0  0  0  0  0
   -3.5873   11.3264    0.0000 F   0  0  0  0  0  0  0  0  0  0  0  0
   -1.2546    8.4246    0.0000 N   0  0  0  0  0  0  0  0  0  0  0  0
   -0.7696    7.7571    0.0000 N   0  0  0  0  0  0  0  0  0  0  0  0
    1.4439    8.8371    0.0000 N   0  0  3  0  0  0  0  0  0  0  0  0
   -0.9832    9.8889    0.0000 C   0  0  0  0  0  0  0  0  0  0  0  0
   -0.7696    9.0920    0.0000 C   0  0  0  0  0  0  0  0  0  0  0  0
   -1.9936   10.8993    0.0000 C   0  0  0  0  0  0  0  0  0  0  0  0
    0.0150    8.8371    0.0000 C   0  0  0  0  0  0  0  0  0  0  0  0
   -1.7800   10.1024    0.0000 C   0  0  0  0  0  0  0  0  0  0  0  0
   -2.7905   11.1129    0.0000 C   0  0  0  0  0  0  0  0  0  0  0  0
   -0.6133   11.2692    0.0000 C   0  0  0  0  0  0  0  0  0  0  0  0
   -0.3998   10.4723    0.0000 C   0  0  0  0  0  0  0  0  0  0  0  0
   -1.4102   11.4827    0.0000 C   0  0  0  0  0  0  0  0  0  0  0  0
    0.0150    8.0121    0.0000 C   0  0  0  0  0  0  0  0  0  0  0  0
    0.7295    9.2496    0.0000 C   0  0  0  0  0  0  0  0  0  0  0  0
   -0.0300   11.8525    0.0000 C   0  0  0  0  0  0  0  0  0  0  0  0
   -0.2435   12.6494    0.0000 C   0  0  0  0  0  0  0  0  0  0  0  0
    2.1584    9.2496    0.0000 C   0  0  0  0  0  0  0  0  0  0  0  0
    0.3399   13.2328    0.0000 C   0  0  0  0  0  0  0  0  0  0  0  0
    1.4439    8.0121    0.0000 C   0  0  0  0  0  0  0  0  0  0  0  0
    2.8729    8.8371    0.0000 C   0  0  0  0  0  0  0  0  0  0  0  0
    1.1368   13.0193    0.0000 C   0  0  0  0  0  0  0  0  0  0  0  0
    0.1264   14.0297    0.0000 C   0  0  0  0  0  0  0  0  0  0  0  0
    3.5873    9.2496    0.0000 C   0  0  0  0  0  0  0  0  0  0  0  0
  1 12  1  0  0  0  0
  2 12  1  0  0  0  0
  3 12  1  0  0  0  0
  4  5  1  0  0  0  0
  4  8  2  0  0  0  0
  5 16  1  0  0  0  0
  6 17  1  0  0  0  0
  6 20  1  0  0  0  0
  6 22  1  0  0  0  0
  7  8  1  0  0  0  0
  7 11  1  0  0  0  0
  7 14  2  0  0  0  0
  8 10  1  0  0  0  0
  9 11  2  0  0  0  0
  9 12  1  0  0  0  0
  9 15  1  0  0  0  0
 10 16  2  0  0  0  0
 10 17  1  0  0  0  0
 13 14  1  0  0  0  0
 13 15  2  0  0  0  0
 13 18  1  0  0  0  0
 18 19  1  0  0  0  0
 19 21  1  0  0  0  0
 20 23  1  0  0  0  0
 21 24  1  0  0  0  0
 21 25  1  0  0  0  0
 23 26  1  0  0  0  0
M  END
> <PUBCHEM_COMPOUND_ID_TYPE>
0

> <PUBCHEM_TOTAL_CHARGE>
0

> <PUBCHEM_SUBSTANCE_ID>
310947674

> <PUBCHEM_SUBSTANCE_VERSION>
1

> <PUBCHEM_EXT_DATASOURCE_NAME>
4488

> <PUBCHEM_EXT_DATASOURCE_REGID>
SCHEMBL16125842

> <PUBCHEM_SUBSTANCE_COMMENT>
InChI=1S/C20H28F3N3/c1-5-8-26(4)13-17-12-24-25-19(17)16-9-15(7-6-14(2)3)10-18(11-16)20(21,22)23/h9-12,14H,5-8,13H2,1-4H3,(H,24,25)
InChIKey=ZLLWGUSODXEPQF-UHFFFAOYSA-N

> <PUBCHEM_SUBSTANCE_SYNONYM>
SCHEMBL16125842

> <PUBCHEM_XREF_EXT_ID>
SCHEMBL16125842

> <PUBCHEM_EXT_DATASOURCE_URL>
https://www.surechembl.org/

> <PUBCHEM_EXT_SUBSTANCE_URL>
https://www.surechembl.org/chemical/SCHEMBL16125842

> <PUBCHEM_CID_ASSOCIATIONS>
117613389  1

> <PUBCHEM_COORDINATE_TYPE>
1
3

$$$$
