310931351
  -OEChem-07211613022D

 12 12  0     1  0  0  0  0  0999 V2000
    1.1291    0.0000    0.0000 O   0  0  0  0  0  0  0  0  0  0  0  0
    2.2427   -1.9489    0.0000 O   0  0  0  0  0  0  0  0  0  0  0  0
    2.9697   -0.7115    0.0000 O   0  0  0  0  0  0  0  0  0  0  0  0
    1.5312   -0.7115    0.0000 C   0  0  3  0  0  0  0  0  0  0  0  0
    0.7115   -0.7115    0.0000 C   0  0  3  0  0  0  0  0  0  0  0  0
    2.2427   -1.1291    0.0000 C   0  0  0  0  0  0  0  0  0  0  0  0
    1.3301   -1.5158    0.0000 C   0  0  0  0  0  0  0  0  0  0  0  0
    2.9697   -2.3665    0.0000 C   0  0  0  0  0  0  0  0  0  0  0  0
    0.0000   -1.1291    0.0000 C   0  0  0  0  0  0  0  0  0  0  0  0
    2.5366   -3.0934    0.0000 C   0  0  0  0  0  0  0  0  0  0  0  0
    3.6812   -2.7686    0.0000 C   0  0  0  0  0  0  0  0  0  0  0  0
    3.3718   -1.6550    0.0000 C   0  0  0  0  0  0  0  0  0  0  0  0
  1  4  1  0  0  0  0
  1  5  1  0  0  0  0
  2  6  1  0  0  0  0
  2  8  1  0  0  0  0
  3  6  2  0  0  0  0
  4  5  1  0  0  0  0
  4  6  1  0  0  0  0
  4  7  1  0  0  0  0
  5  9  1  0  0  0  0
  8 10  1  0  0  0  0
  8 11  1  0  0  0  0
  8 12  1  0  0  0  0
M  END
> <PUBCHEM_COMPOUND_ID_TYPE>
0

> <PUBCHEM_TOTAL_CHARGE>
0

> <PUBCHEM_SUBSTANCE_ID>
310931351

> <PUBCHEM_SUBSTANCE_VERSION>
1

> <PUBCHEM_EXT_DATASOURCE_NAME>
4488

> <PUBCHEM_EXT_DATASOURCE_REGID>
SCHEMBL16108671

> <PUBCHEM_SUBSTANCE_COMMENT>
InChI=1S/C9H16O3/c1-6-9(5,11-6)7(10)12-8(2,3)4/h6H,1-5H3
InChIKey=NABROHNDVZOHRE-UHFFFAOYSA-N

> <PUBCHEM_SUBSTANCE_SYNONYM>
SCHEMBL16108671

> <PUBCHEM_XREF_EXT_ID>
SCHEMBL16108671

> <PUBCHEM_EXT_DATASOURCE_URL>
https://www.surechembl.org/

> <PUBCHEM_EXT_SUBSTANCE_URL>
https://www.surechembl.org/chemical/SCHEMBL16108671

> <PUBCHEM_CID_ASSOCIATIONS>
117600155  1

> <PUBCHEM_COORDINATE_TYPE>
1
3

$$$$
