310935935
  -OEChem-07211613022D

 14 14  0     1  0  0  0  0  0999 V2000
    1.4438   -2.0854    0.0000 S   0  0  0  0  0  0  0  0  0  0  0  0
    0.6188   -2.0854    0.0000 O   0  0  0  0  0  0  0  0  0  0  0  0
    2.2688   -2.0854    0.0000 O   0  0  0  0  0  0  0  0  0  0  0  0
    1.4438   -4.5834    0.0000 O   0  0  0  0  0  0  0  0  0  0  0  0
    0.7104    0.0000    0.0000 O   0  0  0  0  0  0  0  0  0  0  0  0
    0.0000   -1.2375    0.0000 N   0  0  0  0  0  0  0  0  0  0  0  0
    1.4438   -2.8875    0.0000 C   0  0  0  0  0  0  0  0  0  0  0  0
    1.4438   -1.2375    0.0000 C   0  0  3  0  0  0  0  0  0  0  0  0
    0.7104   -0.8250    0.0000 C   0  0  0  0  0  0  0  0  0  0  0  0
    0.7334   -3.3459    0.0000 C   0  0  0  0  0  0  0  0  0  0  0  0
    2.1542   -3.3459    0.0000 C   0  0  0  0  0  0  0  0  0  0  0  0
    2.1542   -0.8250    0.0000 C   0  0  0  0  0  0  0  0  0  0  0  0
    0.7104   -4.1480    0.0000 C   0  0  0  0  0  0  0  0  0  0  0  0
    2.1542   -4.1480    0.0000 C   0  0  0  0  0  0  0  0  0  0  0  0
  1  2  2  0  0  0  0
  1  3  2  0  0  0  0
  1  7  1  0  0  0  0
  1  8  1  0  0  0  0
  4 13  1  0  0  0  0
  4 14  1  0  0  0  0
  5  9  2  0  0  0  0
  6  9  1  0  0  0  0
  7 10  1  0  0  0  0
  7 11  1  0  0  0  0
  8  9  1  0  0  0  0
  8 12  1  0  0  0  0
 10 13  1  0  0  0  0
 11 14  1  0  0  0  0
M  END
> <PUBCHEM_COMPOUND_ID_TYPE>
0

> <PUBCHEM_TOTAL_CHARGE>
0

> <PUBCHEM_SUBSTANCE_ID>
310935935

> <PUBCHEM_SUBSTANCE_VERSION>
1

> <PUBCHEM_EXT_DATASOURCE_NAME>
4488

> <PUBCHEM_EXT_DATASOURCE_REGID>
SCHEMBL16113531

> <PUBCHEM_SUBSTANCE_COMMENT>
InChI=1S/C8H15NO4S/c1-6(8(9)10)14(11,12)7-2-4-13-5-3-7/h6-7H,2-5H2,1H3,(H2,9,10)
InChIKey=JSSNUGZVBULOCD-UHFFFAOYSA-N

> <PUBCHEM_SUBSTANCE_SYNONYM>
SCHEMBL16113531

> <PUBCHEM_XREF_EXT_ID>
SCHEMBL16113531

> <PUBCHEM_EXT_DATASOURCE_URL>
https://www.surechembl.org/

> <PUBCHEM_EXT_SUBSTANCE_URL>
https://www.surechembl.org/chemical/SCHEMBL16113531

> <PUBCHEM_CID_ASSOCIATIONS>
91207786  1

> <PUBCHEM_COORDINATE_TYPE>
1
3

$$$$
