310932731
  -OEChem-07211613022D

 30 32  0     1  0  0  0  0  0999 V2000
    2.9298   -4.8959    0.0000 S   0  0  3  0  0  0  0  0  0  0  0  0
    0.6168    0.0000    0.0000 F   0  0  0  0  0  0  0  0  0  0  0  0
    0.0000   -1.3107    0.0000 F   0  0  0  0  0  0  0  0  0  0  0  0
    0.7325   -1.6576    0.0000 F   0  0  0  0  0  0  0  0  0  0  0  0
    4.2791   -7.1318    0.0000 O   0  0  0  0  0  0  0  0  0  0  0  0
    2.1974   -5.3199    0.0000 O   0  0  0  0  0  0  0  0  0  0  0  0
    1.4264   -1.1565    0.0000 O   0  0  0  0  0  0  0  0  0  0  0  0
    3.6622   -5.3199    0.0000 N   0  0  0  0  0  0  0  0  0  0  0  0
    2.4672   -4.8959    0.0000 N   0  0  0  0  0  0  0  0  0  0  0  0
    1.4649   -5.7825    0.0000 N   0  0  0  0  0  0  0  0  0  0  0  0
    3.6622   -6.1295    0.0000 C   0  0  0  0  0  0  0  0  0  0  0  0
    2.8527   -6.3222    0.0000 C   0  0  3  0  0  0  0  0  0  0  0  0
    2.3130   -5.7054    0.0000 C   0  0  0  0  0  0  0  0  0  0  0  0
    3.5080   -6.9776    0.0000 C   0  0  0  0  0  0  0  0  0  0  0  0
    4.4718   -6.3222    0.0000 C   0  0  0  0  0  0  0  0  0  0  0  0
    1.7733   -4.4718    0.0000 C   0  0  0  0  0  0  0  0  0  0  0  0
    2.5829   -7.0932    0.0000 C   0  0  0  0  0  0  0  0  0  0  0  0
    1.6962   -3.6622    0.0000 C   0  0  0  0  0  0  0  0  0  0  0  0
    1.1565   -5.0115    0.0000 C   0  0  0  0  0  0  0  0  0  0  0  0
    2.9298   -4.0863    0.0000 C   0  0  0  0  0  0  0  0  0  0  0  0
    0.9252   -3.3153    0.0000 C   0  0  0  0  0  0  0  0  0  0  0  0
    2.3515   -3.1611    0.0000 C   0  0  0  0  0  0  0  0  0  0  0  0
    1.5034   -2.0046    0.0000 C   0  0  0  0  0  0  0  0  0  0  0  0
    0.8481   -2.5057    0.0000 C   0  0  0  0  0  0  0  0  0  0  0  0
    2.2745   -2.3515    0.0000 C   0  0  0  0  0  0  0  0  0  0  0  0
    3.1225   -7.7100    0.0000 C   0  0  0  0  0  0  0  0  0  0  0  0
    2.1974   -3.6622    0.0000 C   0  0  0  0  0  0  0  0  0  0  0  0
    3.6622   -3.6622    0.0000 C   0  0  0  0  0  0  0  0  0  0  0  0
    2.9298   -3.2382    0.0000 C   0  0  0  0  0  0  0  0  0  0  0  0
    0.6939   -0.8481    0.0000 C   0  0  0  0  0  0  0  0  0  0  0  0
  1  6  2  0  0  0  0
  1  8  1  0  0  0  0
  1 20  1  0  0  0  0
  2 30  1  0  0  0  0
  3 30  1  0  0  0  0
  4 30  1  0  0  0  0
  5 14  1  0  0  0  0
  5 15  1  0  0  0  0
  7 23  1  0  0  0  0
  7 30  1  0  0  0  0
  8 11  1  0  0  0  0
  9 13  2  0  0  0  0
  9 16  1  0  0  0  0
 10 13  1  0  0  0  0
 10 19  1  0  0  0  0
 11 12  1  0  0  0  0
 11 14  1  0  0  0  0
 11 15  1  0  0  0  0
 12 13  1  0  0  0  0
 12 17  1  0  0  0  0
 16 18  1  0  0  0  0
 16 19  2  0  0  0  0
 17 26  1  0  0  0  0
 18 21  2  0  0  0  0
 18 22  1  0  0  0  0
 20 27  1  0  0  0  0
 20 28  1  0  0  0  0
 20 29  1  0  0  0  0
 21 24  1  0  0  0  0
 22 25  2  0  0  0  0
 23 24  2  0  0  0  0
 23 25  1  0  0  0  0
M  END
> <PUBCHEM_COMPOUND_ID_TYPE>
0

> <PUBCHEM_TOTAL_CHARGE>
0

> <PUBCHEM_SUBSTANCE_ID>
310932731

> <PUBCHEM_SUBSTANCE_VERSION>
1

> <PUBCHEM_EXT_DATASOURCE_NAME>
4488

> <PUBCHEM_EXT_DATASOURCE_REGID>
SCHEMBL16110115

> <PUBCHEM_SUBSTANCE_COMMENT>
InChI=1S/C20H26F3N3O3S/c1-5-15(19(11-28-12-19)26-30(27)18(2,3)4)17-24-10-16(25-17)13-6-8-14(9-7-13)29-20(21,22)23/h6-10,15,26H,5,11-12H2,1-4H3,(H,24,25)
InChIKey=ADOCPUUALJYUCG-UHFFFAOYSA-N

> <PUBCHEM_SUBSTANCE_SYNONYM>
SCHEMBL16110115

> <PUBCHEM_XREF_EXT_ID>
SCHEMBL16110115

> <PUBCHEM_EXT_DATASOURCE_URL>
https://www.surechembl.org/

> <PUBCHEM_EXT_SUBSTANCE_URL>
https://www.surechembl.org/chemical/SCHEMBL16110115

> <PUBCHEM_CID_ASSOCIATIONS>
117601237  1

> <PUBCHEM_COORDINATE_TYPE>
1
3

$$$$
