310944555
  -OEChem-07211613022D

 32 35  0     1  0  0  0  0  0999 V2000
   -3.2518   -0.5131    0.0000 Cl  0  0  0  0  0  0  0  0  0  0  0  0
   -5.3907    2.3677    0.0000 Cl  0  0  0  0  0  0  0  0  0  0  0  0
   -0.2349   -0.5131    0.0000 O   0  0  0  0  0  0  0  0  0  0  0  0
    1.1870    1.9597    0.0000 O   0  0  0  0  0  0  0  0  0  0  0  0
    5.3907   -0.7604    0.0000 O   0  0  0  0  0  0  0  0  0  0  0  0
    1.9287    0.7356    0.0000 N   0  0  0  0  0  0  0  0  0  0  0  0
    3.9812   -0.7604    0.0000 N   0  0  0  0  0  0  0  0  0  0  0  0
   -0.2225    1.1436    0.0000 N   0  0  0  0  0  0  0  0  0  0  0  0
    2.7077   -0.3400    0.0000 C   0  0  3  0  0  0  0  0  0  0  0  0
    3.1899    0.3276    0.0000 C   0  0  3  0  0  0  0  0  0  0  0  0
    1.9412   -0.0927    0.0000 C   0  0  0  0  0  0  0  0  0  0  0  0
    2.7077    0.9829    0.0000 C   0  0  0  0  0  0  0  0  0  0  0  0
    3.2023   -1.0077    0.0000 C   0  0  0  0  0  0  0  0  0  0  0  0
    3.9812    0.0557    0.0000 C   0  0  0  0  0  0  0  0  0  0  0  0
   -2.3615    0.7356    0.0000 C   0  0  0  0  0  0  0  0  0  0  0  0
    1.1993    1.1313    0.0000 C   0  0  0  0  0  0  0  0  0  0  0  0
   -0.9397    0.7356    0.0000 C   0  0  0  0  0  0  0  0  0  0  0  0
   -0.9520   -0.0927    0.0000 C   0  0  0  0  0  0  0  0  0  0  0  0
   -2.3615   -0.0927    0.0000 C   0  0  0  0  0  0  0  0  0  0  0  0
   -1.6568    1.1313    0.0000 C   0  0  0  0  0  0  0  0  0  0  0  0
   -3.0910    1.1560    0.0000 C   0  0  0  0  0  0  0  0  0  0  0  0
    4.6736   -1.1808    0.0000 C   0  0  0  0  0  0  0  0  0  0  0  0
   -1.6444   -0.5007    0.0000 C   0  0  0  0  0  0  0  0  0  0  0  0
    0.4946    0.7356    0.0000 C   0  0  0  0  0  0  0  0  0  0  0  0
   -3.0786    1.9597    0.0000 C   0  0  0  0  0  0  0  0  0  0  0  0
   -3.7834    0.7356    0.0000 C   0  0  0  0  0  0  0  0  0  0  0  0
    4.6859   -2.0091    0.0000 C   0  0  0  0  0  0  0  0  0  0  0  0
   -3.7957    2.3677    0.0000 C   0  0  0  0  0  0  0  0  0  0  0  0
   -4.5005    1.1436    0.0000 C   0  0  0  0  0  0  0  0  0  0  0  0
   -4.5129    1.9721    0.0000 C   0  0  0  0  0  0  0  0  0  0  0  0
    0.4822   -0.0927    0.0000 C   0  0  0  0  0  0  0  0  0  0  0  0
    3.9688   -2.3677    0.0000 C   0  0  0  0  0  0  0  0  0  0  0  0
  1 19  1  0  0  0  0
  2 30  1  0  0  0  0
  3 18  1  0  0  0  0
  3 31  1  0  0  0  0
  4 16  2  0  0  0  0
  5 22  2  0  0  0  0
  6 11  1  0  0  0  0
  6 12  1  0  0  0  0
  6 16  1  0  0  0  0
  7 13  1  0  0  0  0
  7 14  1  0  0  0  0
  7 22  1  0  0  0  0
  8 17  1  0  0  0  0
  8 24  1  0  0  0  0
  9 10  1  0  0  0  0
  9 11  1  0  0  0  0
  9 13  1  0  0  0  0
 10 12  1  0  0  0  0
 10 14  1  0  0  0  0
 15 19  2  0  0  0  0
 15 20  1  0  0  0  0
 15 21  1  0  0  0  0
 16 24  1  0  0  0  0
 17 18  1  0  0  0  0
 17 20  2  0  0  0  0
 18 23  2  0  0  0  0
 19 23  1  0  0  0  0
 21 25  2  0  0  0  0
 21 26  1  0  0  0  0
 22 27  1  0  0  0  0
 25 28  1  0  0  0  0
 26 29  2  0  0  0  0
 27 32  2  0  0  0  0
 28 30  2  0  0  0  0
 29 30  1  0  0  0  0
M  END
> <PUBCHEM_COMPOUND_ID_TYPE>
0

> <PUBCHEM_TOTAL_CHARGE>
0

> <PUBCHEM_SUBSTANCE_ID>
310944555

> <PUBCHEM_SUBSTANCE_VERSION>
1

> <PUBCHEM_EXT_DATASOURCE_NAME>
4488

> <PUBCHEM_EXT_DATASOURCE_REGID>
SCHEMBL16122632

> <PUBCHEM_SUBSTANCE_COMMENT>
InChI=1S/C24H25Cl2N3O3/c1-3-23(30)28-11-16-13-29(14-17(16)12-28)24(31)10-27-21-8-19(20(26)9-22(21)32-2)15-4-6-18(25)7-5-15/h3-9,16-17,27H,1,10-14H2,2H3
InChIKey=URUOPOVMSKVCBG-UHFFFAOYSA-N

> <PUBCHEM_SUBSTANCE_SYNONYM>
SCHEMBL16122632

> <PUBCHEM_XREF_EXT_ID>
SCHEMBL16122632

> <PUBCHEM_EXT_DATASOURCE_URL>
https://www.surechembl.org/

> <PUBCHEM_EXT_SUBSTANCE_URL>
https://www.surechembl.org/chemical/SCHEMBL16122632

> <PUBCHEM_CID_ASSOCIATIONS>
117610790  1

> <PUBCHEM_COORDINATE_TYPE>
1
3

$$$$
