310932674
  -OEChem-07211613022D

 19 21  0     1  0  0  0  0  0999 V2000
    2.7548   -1.6132    0.0000 O   0  0  0  0  0  0  0  0  0  0  0  0
    3.8964   -3.5738    0.0000 O   0  0  0  0  0  0  0  0  0  0  0  0
    4.5913   -2.3329    0.0000 O   0  0  0  0  0  0  0  0  0  0  0  0
    2.3577   -2.3329    0.0000 C   0  0  3  0  0  0  0  0  0  0  0  0
    3.1767   -2.3329    0.0000 C   0  0  3  0  0  0  0  0  0  0  0  0
    1.7621   -1.7373    0.0000 C   0  0  0  0  0  0  0  0  0  0  0  0
    3.8964   -2.7548    0.0000 C   0  0  0  0  0  0  0  0  0  0  0  0
    1.6380   -2.7548    0.0000 C   0  0  0  0  0  0  0  0  0  0  0  0
    0.9679   -1.9606    0.0000 C   0  0  0  0  0  0  0  0  0  0  0  0
    1.9854   -0.9431    0.0000 C   0  0  0  0  0  0  0  0  0  0  0  0
    4.5913   -3.9708    0.0000 C   0  0  0  0  0  0  0  0  0  0  0  0
    0.3722   -1.3898    0.0000 C   0  0  0  0  0  0  0  0  0  0  0  0
    1.3898   -0.3722    0.0000 C   0  0  0  0  0  0  0  0  0  0  0  0
    0.5956   -0.5956    0.0000 C   0  0  0  0  0  0  0  0  0  0  0  0
    5.3359   -3.6482    0.0000 C   0  0  0  0  0  0  0  0  0  0  0  0
    4.6906   -4.7899    0.0000 C   0  0  0  0  0  0  0  0  0  0  0  0
    5.9067   -4.2439    0.0000 C   0  0  0  0  0  0  0  0  0  0  0  0
    5.4847   -4.9636    0.0000 C   0  0  0  0  0  0  0  0  0  0  0  0
    0.0000    0.0000    0.0000 C   0  0  0  0  0  0  0  0  0  0  0  0
  1  4  1  0  0  0  0
  1  5  1  0  0  0  0
  2  7  1  0  0  0  0
  2 11  1  0  0  0  0
  3  7  2  0  0  0  0
  4  5  1  0  0  0  0
  4  6  1  0  0  0  0
  4  8  1  0  0  0  0
  5  7  1  0  0  0  0
  6  9  2  0  0  0  0
  6 10  1  0  0  0  0
  9 12  1  0  0  0  0
 10 13  2  0  0  0  0
 11 15  1  0  0  0  0
 11 16  1  0  0  0  0
 12 14  2  0  0  0  0
 13 14  1  0  0  0  0
 14 19  1  0  0  0  0
 15 17  1  0  0  0  0
 16 18  1  0  0  0  0
 17 18  1  0  0  0  0
M  END
> <PUBCHEM_COMPOUND_ID_TYPE>
0

> <PUBCHEM_TOTAL_CHARGE>
0

> <PUBCHEM_SUBSTANCE_ID>
310932674

> <PUBCHEM_SUBSTANCE_VERSION>
1

> <PUBCHEM_EXT_DATASOURCE_NAME>
4488

> <PUBCHEM_EXT_DATASOURCE_REGID>
SCHEMBL16110054

> <PUBCHEM_SUBSTANCE_COMMENT>
InChI=1S/C16H20O3/c1-11-7-9-12(10-8-11)16(2)14(19-16)15(17)18-13-5-3-4-6-13/h7-10,13-14H,3-6H2,1-2H3
InChIKey=XFCNKLBILREOAA-UHFFFAOYSA-N

> <PUBCHEM_SUBSTANCE_SYNONYM>
SCHEMBL16110054

> <PUBCHEM_XREF_EXT_ID>
SCHEMBL16110054

> <PUBCHEM_EXT_DATASOURCE_URL>
https://www.surechembl.org/

> <PUBCHEM_EXT_SUBSTANCE_URL>
https://www.surechembl.org/chemical/SCHEMBL16110054

> <PUBCHEM_CID_ASSOCIATIONS>
117601187  1

> <PUBCHEM_COORDINATE_TYPE>
1
3

$$$$
