310930079
  -OEChem-07211613022D

 35 39  0     1  0  0  0  0  0999 V2000
    0.7710   -6.0942    0.0000 S   0  0  0  0  0  0  0  0  0  0  0  0
    5.3600   -0.8444    0.0000 O   0  0  0  0  0  0  0  0  0  0  0  0
    1.6887   -6.0942    0.0000 O   0  0  0  0  0  0  0  0  0  0  0  0
    0.0000   -6.0942    0.0000 O   0  0  0  0  0  0  0  0  0  0  0  0
    4.3320   -1.7622    0.0000 N   0  0  0  0  0  0  0  0  0  0  0  0
    3.1940   -2.4597    0.0000 N   0  0  0  0  0  0  0  0  0  0  0  0
    3.7080   -0.4039    0.0000 N   0  0  0  0  0  0  0  0  0  0  0  0
    2.2761   -0.4039    0.0000 N   0  0  0  0  0  0  0  0  0  0  0  0
    2.2395   -2.8636    0.0000 N   0  0  0  0  0  0  0  0  0  0  0  0
    2.9370   -4.0751    0.0000 N   0  0  0  0  0  0  0  0  0  0  0  0
    0.7710   -5.3233    0.0000 N   0  0  0  0  0  0  0  0  0  0  0  0
    2.9737   -1.6520    0.0000 C   0  0  0  0  0  0  0  0  0  0  0  0
    3.7446   -1.2115    0.0000 C   0  0  0  0  0  0  0  0  0  0  0  0
    2.2761   -1.2115    0.0000 C   0  0  0  0  0  0  0  0  0  0  0  0
    1.5786   -1.6154    0.0000 C   0  0  0  0  0  0  0  0  0  0  0  0
    4.0016   -2.5331    0.0000 C   0  0  0  0  0  0  0  0  0  0  0  0
    5.1030   -1.6154    0.0000 C   0  0  3  0  0  0  0  0  0  0  0  0
    1.5419   -2.4230    0.0000 C   0  0  0  0  0  0  0  0  0  0  0  0
    3.0104    0.0000    0.0000 C   0  0  0  0  0  0  0  0  0  0  0  0
    0.8444   -1.1748    0.0000 C   0  0  0  0  0  0  0  0  0  0  0  0
    0.8076   -2.8268    0.0000 C   0  0  0  0  0  0  0  0  0  0  0  0
    5.6537   -2.2395    0.0000 C   0  0  0  0  0  0  0  0  0  0  0  0
    2.2395   -3.6712    0.0000 C   0  0  0  0  0  0  0  0  0  0  0  0
    0.1469   -1.5786    0.0000 C   0  0  0  0  0  0  0  0  0  0  0  0
    0.1101   -2.4230    0.0000 C   0  0  0  0  0  0  0  0  0  0  0  0
    1.5052   -4.0751    0.0000 C   0  0  0  0  0  0  0  0  0  0  0  0
    1.5052   -4.8827    0.0000 C   0  0  0  0  0  0  0  0  0  0  0  0
    6.1676   -0.6975    0.0000 C   0  0  0  0  0  0  0  0  0  0  0  0
    6.4613   -2.0926    0.0000 C   0  0  0  0  0  0  0  0  0  0  0  0
    6.7183   -1.3216    0.0000 C   0  0  0  0  0  0  0  0  0  0  0  0
    2.2027   -5.3233    0.0000 C   0  0  0  0  0  0  0  0  0  0  0  0
    2.9370   -4.9194    0.0000 C   0  0  0  0  0  0  0  0  0  0  0  0
    0.7710   -6.9386    0.0000 C   0  0  0  0  0  0  0  0  0  0  0  0
    1.5052   -7.3424    0.0000 C   0  0  0  0  0  0  0  0  0  0  0  0
    2.2027   -6.9386    0.0000 C   0  0  0  0  0  0  0  0  0  0  0  0
  1  3  2  0  0  0  0
  1  4  2  0  0  0  0
  1 11  1  0  0  0  0
  1 33  1  0  0  0  0
  2 17  1  0  0  0  0
  2 28  1  0  0  0  0
  5 13  1  0  0  0  0
  5 16  1  0  0  0  0
  5 17  1  0  0  0  0
  6 12  1  0  0  0  0
  6 16  2  0  0  0  0
  7 13  1  0  0  0  0
  7 19  2  0  0  0  0
  8 14  2  0  0  0  0
  8 19  1  0  0  0  0
  9 18  1  0  0  0  0
  9 23  1  0  0  0  0
 10 23  1  0  0  0  0
 10 32  2  0  0  0  0
 11 27  1  0  0  0  0
 12 13  2  0  0  0  0
 12 14  1  0  0  0  0
 14 15  1  0  0  0  0
 15 18  1  0  0  0  0
 15 20  2  0  0  0  0
 17 22  1  0  0  0  0
 18 21  2  0  0  0  0
 20 24  1  0  0  0  0
 21 25  1  0  0  0  0
 22 29  1  0  0  0  0
 23 26  2  0  0  0  0
 24 25  2  0  0  0  0
 26 27  1  0  0  0  0
 27 31  2  0  0  0  0
 28 30  1  0  0  0  0
 29 30  1  0  0  0  0
 31 32  1  0  0  0  0
 33 34  1  0  0  0  0
 34 35  1  0  0  0  0
M  END
> <PUBCHEM_COMPOUND_ID_TYPE>
0

> <PUBCHEM_TOTAL_CHARGE>
0

> <PUBCHEM_SUBSTANCE_ID>
310930079

> <PUBCHEM_SUBSTANCE_VERSION>
1

> <PUBCHEM_EXT_DATASOURCE_NAME>
4488

> <PUBCHEM_EXT_DATASOURCE_REGID>
SCHEMBL16107323

> <PUBCHEM_SUBSTANCE_COMMENT>
InChI=1S/C24H27N7O3S/c1-2-13-35(32,33)30-17-10-11-25-20(14-17)29-19-8-4-3-7-18(19)22-23-24(27-15-26-22)31(16-28-23)21-9-5-6-12-34-21/h3-4,7-8,10-11,14-16,21H,2,5-6,9,12-13H2,1H3,(H2,25,29,30)
InChIKey=FGSDLNBZTNONPI-UHFFFAOYSA-N

> <PUBCHEM_SUBSTANCE_SYNONYM>
SCHEMBL16107323

> <PUBCHEM_XREF_EXT_ID>
SCHEMBL16107323

> <PUBCHEM_EXT_DATASOURCE_URL>
https://www.surechembl.org/

> <PUBCHEM_EXT_SUBSTANCE_URL>
https://www.surechembl.org/chemical/SCHEMBL16107323

> <PUBCHEM_CID_ASSOCIATIONS>
117599315  1

> <PUBCHEM_COORDINATE_TYPE>
1
3

$$$$
