310943685
  -OEChem-07211613022D

 30 33  0     1  0  0  0  0  0999 V2000
    4.9467    2.5492    0.0000 O   0  0  0  0  0  0  0  0  0  0  0  0
    2.8117    0.4375    0.0000 N   0  0  0  0  0  0  0  0  0  0  0  0
    1.2600    0.4025    0.0000 N   0  0  0  0  0  0  0  0  0  0  0  0
    4.2351    1.2659    0.0000 N   0  0  0  0  0  0  0  0  0  0  0  0
   -3.0217   -2.0942    0.0000 N   0  0  3  0  0  0  0  0  0  0  0  0
   -4.8068   -1.5458    0.0000 N   0  0  3  0  0  0  0  0  0  0  0  0
    1.9834   -0.0175    0.0000 C   0  0  0  0  0  0  0  0  0  0  0  0
    0.5367   -0.8342    0.0000 C   0  0  0  0  0  0  0  0  0  0  0  0
   -0.1750   -1.2542    0.0000 C   0  0  0  0  0  0  0  0  0  0  0  0
    1.9601   -0.8342    0.0000 C   0  0  0  0  0  0  0  0  0  0  0  0
    0.5484   -0.0058    0.0000 C   0  0  0  0  0  0  0  0  0  0  0  0
    1.2600   -1.2426    0.0000 C   0  0  0  0  0  0  0  0  0  0  0  0
    3.5351    0.0409    0.0000 C   0  0  0  0  0  0  0  0  0  0  0  0
    2.8117    1.2775    0.0000 C   0  0  0  0  0  0  0  0  0  0  0  0
   -1.6100   -2.0826    0.0000 C   0  0  0  0  0  0  0  0  0  0  0  0
   -0.8866   -0.8575    0.0000 C   0  0  0  0  0  0  0  0  0  0  0  0
   -0.1750   -2.0826    0.0000 C   0  0  0  0  0  0  0  0  0  0  0  0
    4.2234    0.4375    0.0000 C   0  0  0  0  0  0  0  0  0  0  0  0
    3.5234    1.6859    0.0000 C   0  0  0  0  0  0  0  0  0  0  0  0
   -1.5984   -1.2542    0.0000 C   0  0  0  0  0  0  0  0  0  0  0  0
   -0.8750   -2.4909    0.0000 C   0  0  0  0  0  0  0  0  0  0  0  0
    4.9467    1.5342    0.0000 C   0  0  0  0  0  0  0  0  0  0  0  0
   -2.2983   -2.4909    0.0000 C   0  0  0  0  0  0  0  0  0  0  0  0
   -3.7100   -2.5492    0.0000 C   0  0  0  0  0  0  0  0  0  0  0  0
   -2.9634   -1.2775    0.0000 C   0  0  0  0  0  0  0  0  0  0  0  0
   -4.5034   -2.3042    0.0000 C   0  0  0  0  0  0  0  0  0  0  0  0
    5.6468    1.2075    0.0000 C   0  0  0  0  0  0  0  0  0  0  0  0
   -3.5701   -0.7058    0.0000 C   0  0  0  0  0  0  0  0  0  0  0  0
   -4.3868   -0.8225    0.0000 C   0  0  0  0  0  0  0  0  0  0  0  0
   -5.6468   -1.5575    0.0000 C   0  0  0  0  0  0  0  0  0  0  0  0
  1 22  2  0  0  0  0
  2  7  1  0  0  0  0
  2 13  1  0  0  0  0
  2 14  1  0  0  0  0
  3  7  2  0  0  0  0
  3 11  1  0  0  0  0
  4 18  1  0  0  0  0
  4 19  1  0  0  0  0
  4 22  1  0  0  0  0
  5 23  1  0  0  0  0
  5 24  1  0  0  0  0
  5 25  1  0  0  0  0
  6 26  1  0  0  0  0
  6 29  1  0  0  0  0
  6 30  1  0  0  0  0
  7 10  1  0  0  0  0
  8  9  1  0  0  0  0
  8 11  2  0  0  0  0
  8 12  1  0  0  0  0
  9 16  2  0  0  0  0
  9 17  1  0  0  0  0
 10 12  2  0  0  0  0
 13 18  1  0  0  0  0
 14 19  1  0  0  0  0
 15 20  2  0  0  0  0
 15 21  1  0  0  0  0
 15 23  1  0  0  0  0
 16 20  1  0  0  0  0
 17 21  2  0  0  0  0
 22 27  1  0  0  0  0
 24 26  1  0  0  0  0
 25 28  1  0  0  0  0
 28 29  1  0  0  0  0
M  END
> <PUBCHEM_COMPOUND_ID_TYPE>
0

> <PUBCHEM_TOTAL_CHARGE>
0

> <PUBCHEM_SUBSTANCE_ID>
310943685

> <PUBCHEM_SUBSTANCE_VERSION>
1

> <PUBCHEM_EXT_DATASOURCE_NAME>
4488

> <PUBCHEM_EXT_DATASOURCE_REGID>
SCHEMBL16121753

> <PUBCHEM_SUBSTANCE_COMMENT>
InChI=1S/C24H33N5O/c1-20(30)28-14-16-29(17-15-28)24-9-8-23(18-25-24)22-6-4-21(5-7-22)19-27-11-3-10-26(2)12-13-27/h4-9,18H,3,10-17,19H2,1-2H3
InChIKey=GQJRWUDSGMPXPI-UHFFFAOYSA-N

> <PUBCHEM_SUBSTANCE_SYNONYM>
SCHEMBL16121753

> <PUBCHEM_XREF_EXT_ID>
SCHEMBL16121753

> <PUBCHEM_EXT_DATASOURCE_URL>
https://www.surechembl.org/

> <PUBCHEM_EXT_SUBSTANCE_URL>
https://www.surechembl.org/chemical/SCHEMBL16121753

> <PUBCHEM_CID_ASSOCIATIONS>
117610073  1

> <PUBCHEM_COORDINATE_TYPE>
1
3

$$$$
