310947871
  -OEChem-07211613022D

 24 26  0     1  0  0  0  0  0999 V2000
   -2.4735   -2.5099    0.0000 O   0  0  0  0  0  0  0  0  0  0  0  0
    0.3600   -3.2649    0.0000 N   0  0  0  0  0  0  0  0  0  0  0  0
    2.3864   -2.3384    0.0000 N   0  0  0  0  0  0  0  0  0  0  0  0
   -0.3545   -5.3274    0.0000 N   0  0  0  0  0  0  0  0  0  0  0  0
    1.0274   -2.7799    0.0000 C   0  0  0  0  0  0  0  0  0  0  0  0
   -0.3075   -2.7799    0.0000 C   0  0  0  0  0  0  0  0  0  0  0  0
    0.7725   -1.9953    0.0000 C   0  0  0  0  0  0  0  0  0  0  0  0
   -0.0525   -1.9953    0.0000 C   0  0  0  0  0  0  0  0  0  0  0  0
    1.8344   -2.9515    0.0000 C   0  0  0  0  0  0  0  0  0  0  0  0
    0.3600   -4.0899    0.0000 C   0  0  3  0  0  0  0  0  0  0  0  0
   -1.1145   -2.9515    0.0000 C   0  0  0  0  0  0  0  0  0  0  0  0
    1.3245   -1.3822    0.0000 C   0  0  0  0  0  0  0  0  0  0  0  0
   -0.6046   -1.3822    0.0000 C   0  0  0  0  0  0  0  0  0  0  0  0
   -1.6665   -2.3384    0.0000 C   0  0  0  0  0  0  0  0  0  0  0  0
   -1.4116   -1.5537    0.0000 C   0  0  0  0  0  0  0  0  0  0  0  0
    2.1315   -1.5537    0.0000 C   0  0  0  0  0  0  0  0  0  0  0  0
   -0.3545   -4.5024    0.0000 C   0  0  0  0  0  0  0  0  0  0  0  0
    2.0893   -3.7361    0.0000 C   0  0  0  0  0  0  0  0  0  0  0  0
    1.0744   -4.5024    0.0000 C   0  0  0  0  0  0  0  0  0  0  0  0
   -1.0600   -5.7399    0.0000 C   0  0  0  0  0  0  0  0  0  0  0  0
   -1.0600   -6.5649    0.0000 C   0  0  0  0  0  0  0  0  0  0  0  0
   -1.7756   -5.3293    0.0000 C   0  0  0  0  0  0  0  0  0  0  0  0
   -2.4890   -5.7438    0.0000 C   0  0  0  0  0  0  0  0  0  0  0  0
   -1.7745   -6.9774    0.0000 C   0  0  0  0  0  0  0  0  0  0  0  0
  1 14  1  0  0  0  0
  2  5  1  0  0  0  0
  2  6  1  0  0  0  0
  2 10  1  0  0  0  0
  3  9  2  0  0  0  0
  3 16  1  0  0  0  0
  4 17  1  0  0  0  0
  4 20  1  0  0  0  0
  5  7  2  0  0  0  0
  5  9  1  0  0  0  0
  6  8  2  0  0  0  0
  6 11  1  0  0  0  0
  7  8  1  0  0  0  0
  7 12  1  0  0  0  0
  8 13  1  0  0  0  0
  9 18  1  0  0  0  0
 10 17  1  0  0  0  0
 10 19  1  0  0  0  0
 11 14  2  0  0  0  0
 12 16  2  0  0  0  0
 13 15  2  0  0  0  0
 14 15  1  0  0  0  0
 20 21  1  0  0  0  0
 20 22  1  0  0  0  0
 21 24  1  0  0  0  0
 22 23  1  0  0  0  0
M  END
> <PUBCHEM_COMPOUND_ID_TYPE>
0

> <PUBCHEM_TOTAL_CHARGE>
0

> <PUBCHEM_SUBSTANCE_ID>
310947871

> <PUBCHEM_SUBSTANCE_VERSION>
1

> <PUBCHEM_EXT_DATASOURCE_NAME>
4488

> <PUBCHEM_EXT_DATASOURCE_REGID>
SCHEMBL16126045

> <PUBCHEM_SUBSTANCE_COMMENT>
InChI=1S/C20H27N3O/c1-5-15(6-2)22-12-13(3)23-19-11-16(24)7-8-17(19)18-9-10-21-14(4)20(18)23/h7-11,13,15,22,24H,5-6,12H2,1-4H3
InChIKey=RRJQECYIZDTPCG-UHFFFAOYSA-N

> <PUBCHEM_SUBSTANCE_SYNONYM>
SCHEMBL16126045

> <PUBCHEM_XREF_EXT_ID>
SCHEMBL16126045

> <PUBCHEM_EXT_DATASOURCE_URL>
https://www.surechembl.org/

> <PUBCHEM_EXT_SUBSTANCE_URL>
https://www.surechembl.org/chemical/SCHEMBL16126045

> <PUBCHEM_CID_ASSOCIATIONS>
117613535  1

> <PUBCHEM_COORDINATE_TYPE>
1
3

$$$$
