310947873
  -OEChem-07211613022D

 26 28  0     1  0  0  0  0  0999 V2000
    2.4607    6.9520    0.0000 F   0  0  0  0  0  0  0  0  0  0  0  0
   -2.6962    5.3828    0.0000 O   0  0  0  0  0  0  0  0  0  0  0  0
    0.1372    4.6278    0.0000 N   0  0  0  0  0  0  0  0  0  0  0  0
    2.1636    5.5543    0.0000 N   0  0  0  0  0  0  0  0  0  0  0  0
   -0.5773    2.5653    0.0000 N   0  0  0  0  0  0  0  0  0  0  0  0
    0.8046    5.1128    0.0000 C   0  0  0  0  0  0  0  0  0  0  0  0
    0.5497    5.8974    0.0000 C   0  0  0  0  0  0  0  0  0  0  0  0
   -0.5302    5.1128    0.0000 C   0  0  0  0  0  0  0  0  0  0  0  0
   -0.2753    5.8974    0.0000 C   0  0  0  0  0  0  0  0  0  0  0  0
    1.6116    4.9412    0.0000 C   0  0  0  0  0  0  0  0  0  0  0  0
    0.1372    3.8028    0.0000 C   0  0  3  0  0  0  0  0  0  0  0  0
    1.1017    6.5105    0.0000 C   0  0  0  0  0  0  0  0  0  0  0  0
   -1.3372    4.9412    0.0000 C   0  0  0  0  0  0  0  0  0  0  0  0
   -0.8273    6.5105    0.0000 C   0  0  0  0  0  0  0  0  0  0  0  0
    1.9087    6.3390    0.0000 C   0  0  0  0  0  0  0  0  0  0  0  0
   -1.8892    5.5543    0.0000 C   0  0  0  0  0  0  0  0  0  0  0  0
   -1.6343    6.3390    0.0000 C   0  0  0  0  0  0  0  0  0  0  0  0
   -0.5773    3.3903    0.0000 C   0  0  0  0  0  0  0  0  0  0  0  0
    1.8665    4.1566    0.0000 C   0  0  0  0  0  0  0  0  0  0  0  0
    0.8517    3.3903    0.0000 C   0  0  0  0  0  0  0  0  0  0  0  0
   -1.2828    2.1528    0.0000 C   0  0  0  0  0  0  0  0  0  0  0  0
   -2.9512    4.5982    0.0000 C   0  0  0  0  0  0  0  0  0  0  0  0
   -1.2828    1.3278    0.0000 C   0  0  0  0  0  0  0  0  0  0  0  0
   -1.9984    2.5634    0.0000 C   0  0  0  0  0  0  0  0  0  0  0  0
   -2.7117    2.1489    0.0000 C   0  0  0  0  0  0  0  0  0  0  0  0
   -1.9973    0.9153    0.0000 C   0  0  0  0  0  0  0  0  0  0  0  0
  1 15  1  0  0  0  0
  2 16  1  0  0  0  0
  2 22  1  0  0  0  0
  3  6  1  0  0  0  0
  3  8  1  0  0  0  0
  3 11  1  0  0  0  0
  4 10  2  0  0  0  0
  4 15  1  0  0  0  0
  5 18  1  0  0  0  0
  5 21  1  0  0  0  0
  6  7  2  0  0  0  0
  6 10  1  0  0  0  0
  7  9  1  0  0  0  0
  7 12  1  0  0  0  0
  8  9  2  0  0  0  0
  8 13  1  0  0  0  0
  9 14  1  0  0  0  0
 10 19  1  0  0  0  0
 11 18  1  0  0  0  0
 11 20  1  0  0  0  0
 12 15  2  0  0  0  0
 13 16  2  0  0  0  0
 14 17  2  0  0  0  0
 16 17  1  0  0  0  0
 21 23  1  0  0  0  0
 21 24  1  0  0  0  0
 23 26  1  0  0  0  0
 24 25  1  0  0  0  0
M  END
> <PUBCHEM_COMPOUND_ID_TYPE>
0

> <PUBCHEM_TOTAL_CHARGE>
0

> <PUBCHEM_SUBSTANCE_ID>
310947873

> <PUBCHEM_SUBSTANCE_VERSION>
1

> <PUBCHEM_EXT_DATASOURCE_NAME>
4488

> <PUBCHEM_EXT_DATASOURCE_REGID>
SCHEMBL16126047

> <PUBCHEM_SUBSTANCE_COMMENT>
InChI=1S/C21H28FN3O/c1-6-15(7-2)23-12-13(3)25-19-10-16(26-5)8-9-17(19)18-11-20(22)24-14(4)21(18)25/h8-11,13,15,23H,6-7,12H2,1-5H3
InChIKey=ASSZVPHJBNNHIA-UHFFFAOYSA-N

> <PUBCHEM_SUBSTANCE_SYNONYM>
SCHEMBL16126047

> <PUBCHEM_XREF_EXT_ID>
SCHEMBL16126047

> <PUBCHEM_EXT_DATASOURCE_URL>
https://www.surechembl.org/

> <PUBCHEM_EXT_SUBSTANCE_URL>
https://www.surechembl.org/chemical/SCHEMBL16126047

> <PUBCHEM_CID_ASSOCIATIONS>
117613537  1

> <PUBCHEM_COORDINATE_TYPE>
1
3

$$$$
