310948966
  -OEChem-07211613022D

 14 15  0     1  0  0  0  0  0999 V2000
   -2.4118    0.0094    0.0000 I   0  0  0  0  0  0  0  0  0  0  0  0
    1.8842    1.4603    0.0000 F   0  0  0  0  0  0  0  0  0  0  0  0
    2.4118    0.4805    0.0000 F   0  0  0  0  0  0  0  0  0  0  0  0
    1.4321   -0.0471    0.0000 F   0  0  0  0  0  0  0  0  0  0  0  0
    0.2449    0.4239    0.0000 N   0  0  3  0  0  0  0  0  0  0  0  0
   -0.8291   -1.4603    0.0000 N   0  0  0  0  0  0  0  0  0  0  0  0
   -1.6205   -1.2907    0.0000 N   0  0  0  0  0  0  0  0  0  0  0  0
   -0.9798   -0.1602    0.0000 C   0  0  0  0  0  0  0  0  0  0  0  0
   -0.3957   -0.7442    0.0000 C   0  0  0  0  0  0  0  0  0  0  0  0
   -0.5652    0.5746    0.0000 C   0  0  0  0  0  0  0  0  0  0  0  0
   -1.7335   -0.4805    0.0000 C   0  0  0  0  0  0  0  0  0  0  0  0
    0.3203   -0.4051    0.0000 C   0  0  0  0  0  0  0  0  0  0  0  0
    0.8480    0.9516    0.0000 C   0  0  0  0  0  0  0  0  0  0  0  0
    1.6393    0.7066    0.0000 C   0  0  0  0  0  0  0  0  0  0  0  0
  1 11  1  0  0  0  0
  2 14  1  0  0  0  0
  3 14  1  0  0  0  0
  4 14  1  0  0  0  0
  5 10  1  0  0  0  0
  5 12  1  0  0  0  0
  5 13  1  0  0  0  0
  6  7  1  0  0  0  0
  6  9  1  0  0  0  0
  7 11  2  0  0  0  0
  8  9  2  0  0  0  0
  8 10  1  0  0  0  0
  8 11  1  0  0  0  0
  9 12  1  0  0  0  0
 13 14  1  0  0  0  0
M  END
> <PUBCHEM_COMPOUND_ID_TYPE>
0

> <PUBCHEM_TOTAL_CHARGE>
0

> <PUBCHEM_SUBSTANCE_ID>
310948966

> <PUBCHEM_SUBSTANCE_VERSION>
1

> <PUBCHEM_EXT_DATASOURCE_NAME>
4488

> <PUBCHEM_EXT_DATASOURCE_REGID>
SCHEMBL16127154

> <PUBCHEM_SUBSTANCE_COMMENT>
InChI=1S/C7H7F3IN3/c8-7(9,10)3-14-1-4-5(2-14)12-13-6(4)11/h1-3H2,(H,12,13)
InChIKey=SQOAQGOUGMDXFA-UHFFFAOYSA-N

> <PUBCHEM_SUBSTANCE_SYNONYM>
SCHEMBL16127154

> <PUBCHEM_XREF_EXT_ID>
SCHEMBL16127154

> <PUBCHEM_EXT_DATASOURCE_URL>
https://www.surechembl.org/

> <PUBCHEM_EXT_SUBSTANCE_URL>
https://www.surechembl.org/chemical/SCHEMBL16127154

> <PUBCHEM_CID_ASSOCIATIONS>
117614475  1

> <PUBCHEM_COORDINATE_TYPE>
1
3

$$$$
