310939695
  -OEChem-07211613022D

 30 33  0     1  0  0  0  0  0999 V2000
   -1.6583    5.4205    0.0000 O   0  0  0  0  0  0  0  0  0  0  0  0
    1.9230    1.6925    0.0000 O   0  0  0  0  0  0  0  0  0  0  0  0
   -3.0872    4.5955    0.0000 O   0  0  0  0  0  0  0  0  0  0  0  0
    1.1996    4.5955    0.0000 N   0  0  0  0  0  0  0  0  0  0  0  0
    1.9141    5.8330    0.0000 N   0  0  0  0  0  0  0  0  0  0  0  0
    1.9141    3.3580    0.0000 N   0  0  0  0  0  0  0  0  0  0  0  0
    3.3430    5.8330    0.0000 N   0  0  0  0  0  0  0  0  0  0  0  0
   -4.5162    5.4205    0.0000 N   0  0  0  0  0  0  0  0  0  0  0  0
    1.1996    5.4205    0.0000 C   0  0  0  0  0  0  0  0  0  0  0  0
    1.9141    4.1830    0.0000 C   0  0  0  0  0  0  0  0  0  0  0  0
    2.6285    5.4205    0.0000 C   0  0  0  0  0  0  0  0  0  0  0  0
    0.4851    5.8330    0.0000 C   0  0  0  0  0  0  0  0  0  0  0  0
    2.6285    4.5955    0.0000 C   0  0  0  0  0  0  0  0  0  0  0  0
   -0.2294    5.4205    0.0000 C   0  0  0  0  0  0  0  0  0  0  0  0
    0.4851    6.6580    0.0000 C   0  0  0  0  0  0  0  0  0  0  0  0
   -0.9438    5.8330    0.0000 C   0  0  0  0  0  0  0  0  0  0  0  0
    2.6285    2.9455    0.0000 C   0  0  0  0  0  0  0  0  0  0  0  0
    1.1996    2.9455    0.0000 C   0  0  0  0  0  0  0  0  0  0  0  0
    3.3430    6.6580    0.0000 C   0  0  0  0  0  0  0  0  0  0  0  0
    4.0575    5.4205    0.0000 C   0  0  0  0  0  0  0  0  0  0  0  0
   -0.2294    7.0705    0.0000 C   0  0  0  0  0  0  0  0  0  0  0  0
   -0.9438    6.6580    0.0000 C   0  0  0  0  0  0  0  0  0  0  0  0
    2.6285    2.1205    0.0000 C   0  0  0  0  0  0  0  0  0  0  0  0
    1.1996    2.1128    0.0000 C   0  0  0  0  0  0  0  0  0  0  0  0
    4.7719    5.8330    0.0000 C   0  0  0  0  0  0  0  0  0  0  0  0
    4.0575    7.0705    0.0000 C   0  0  0  0  0  0  0  0  0  0  0  0
    4.7719    6.6580    0.0000 C   0  0  0  0  0  0  0  0  0  0  0  0
   -2.3728    5.8330    0.0000 C   0  0  0  0  0  0  0  0  0  0  0  0
   -3.0872    5.4205    0.0000 C   0  0  3  0  0  0  0  0  0  0  0  0
   -3.8017    5.8330    0.0000 C   0  0  0  0  0  0  0  0  0  0  0  0
  1 16  1  0  0  0  0
  1 28  1  0  0  0  0
  2 23  1  0  0  0  0
  2 24  1  0  0  0  0
  3 29  1  0  0  0  0
  4  9  1  0  0  0  0
  4 10  2  0  0  0  0
  5  9  2  0  0  0  0
  5 11  1  0  0  0  0
  6 10  1  0  0  0  0
  6 17  1  0  0  0  0
  6 18  1  0  0  0  0
  7 11  1  0  0  0  0
  7 19  1  0  0  0  0
  7 20  1  0  0  0  0
  8 30  1  0  0  0  0
  9 12  1  0  0  0  0
 10 13  1  0  0  0  0
 11 13  2  0  0  0  0
 12 14  2  0  0  0  0
 12 15  1  0  0  0  0
 14 16  1  0  0  0  0
 15 21  2  0  0  0  0
 16 22  2  0  0  0  0
 17 23  1  0  0  0  0
 18 24  1  0  0  0  0
 19 26  1  0  0  0  0
 20 25  1  0  0  0  0
 21 22  1  0  0  0  0
 25 27  1  0  0  0  0
 26 27  1  0  0  0  0
 28 29  1  0  0  0  0
 29 30  1  0  0  0  0
M  END
> <PUBCHEM_COMPOUND_ID_TYPE>
0

> <PUBCHEM_TOTAL_CHARGE>
0

> <PUBCHEM_SUBSTANCE_ID>
310939695

> <PUBCHEM_SUBSTANCE_VERSION>
1

> <PUBCHEM_EXT_DATASOURCE_NAME>
4488

> <PUBCHEM_EXT_DATASOURCE_REGID>
SCHEMBL16117625

> <PUBCHEM_SUBSTANCE_COMMENT>
InChI=1S/C22H31N5O3/c23-15-18(28)16-30-19-6-4-5-17(13-19)22-24-20(26-7-2-1-3-8-26)14-21(25-22)27-9-11-29-12-10-27/h4-6,13-14,18,28H,1-3,7-12,15-16,23H2
InChIKey=BCDMEYHZAYEVQL-UHFFFAOYSA-N

> <PUBCHEM_SUBSTANCE_SYNONYM>
SCHEMBL16117625

> <PUBCHEM_XREF_EXT_ID>
SCHEMBL16117625

> <PUBCHEM_EXT_DATASOURCE_URL>
https://www.surechembl.org/

> <PUBCHEM_EXT_SUBSTANCE_URL>
https://www.surechembl.org/chemical/SCHEMBL16117625

> <PUBCHEM_CID_ASSOCIATIONS>
117606925  1

> <PUBCHEM_COORDINATE_TYPE>
1
3

$$$$
