310947453
  -OEChem-07211613022D

 24 25  0     1  0  0  0  0  0999 V2000
   -0.9054   -9.9630    0.0000 O   0  0  0  0  0  0  0  0  0  0  0  0
   -1.6198  -11.2006    0.0000 O   0  0  0  0  0  0  0  0  0  0  0  0
    2.8073   -9.2486    0.0000 O   0  0  0  0  0  0  0  0  0  0  0  0
    3.9073  -10.6775    0.0000 O   0  0  0  0  0  0  0  0  0  0  0  0
   -4.4777   -8.7256    0.0000 O   0  0  0  0  0  0  0  0  0  0  0  0
   -3.0487  -10.3755    0.0000 N   0  0  3  0  0  0  0  0  0  0  0  0
    2.8073  -10.6775    0.0000 N   0  0  0  0  0  0  0  0  0  0  0  0
   -0.0803   -9.9630    0.0000 C   0  0  0  0  0  0  0  0  0  0  0  0
    1.5698   -9.9630    0.0000 C   0  0  0  0  0  0  0  0  0  0  0  0
   -3.0487  -11.2006    0.0000 C   0  0  0  0  0  0  0  0  0  0  0  0
   -1.6198  -10.3755    0.0000 C   0  0  0  0  0  0  0  0  0  0  0  0
   -2.3343   -9.9630    0.0000 C   0  0  0  0  0  0  0  0  0  0  0  0
    0.3322  -10.6775    0.0000 C   0  0  0  0  0  0  0  0  0  0  0  0
    0.3322   -9.2486    0.0000 C   0  0  0  0  0  0  0  0  0  0  0  0
    1.1572  -10.6775    0.0000 C   0  0  0  0  0  0  0  0  0  0  0  0
    1.1572   -9.2486    0.0000 C   0  0  0  0  0  0  0  0  0  0  0  0
    2.3947   -9.9630    0.0000 C   0  0  0  0  0  0  0  0  0  0  0  0
   -3.7633  -11.6130    0.0000 C   0  0  0  0  0  0  0  0  0  0  0  0
   -2.3343  -11.6130    0.0000 C   0  0  0  0  0  0  0  0  0  0  0  0
   -3.7633   -9.9630    0.0000 C   0  0  0  0  0  0  0  0  0  0  0  0
   -3.7633  -12.4381    0.0000 C   0  0  0  0  0  0  0  0  0  0  0  0
   -2.3343  -12.4381    0.0000 C   0  0  0  0  0  0  0  0  0  0  0  0
   -3.0487  -12.8507    0.0000 C   0  0  0  0  0  0  0  0  0  0  0  0
   -3.7633   -9.1381    0.0000 C   0  0  0  0  0  0  0  0  0  0  0  0
  1  8  1  0  0  0  0
  1 11  1  0  0  0  0
  2 11  2  0  0  0  0
  3 17  2  0  0  0  0
  4  7  1  0  0  0  0
  5 24  1  0  0  0  0
  6 10  1  0  0  0  0
  6 12  1  0  0  0  0
  6 20  1  0  0  0  0
  7 17  1  0  0  0  0
  8 13  2  0  0  0  0
  8 14  1  0  0  0  0
  9 15  2  0  0  0  0
  9 16  1  0  0  0  0
  9 17  1  0  0  0  0
 10 18  2  0  0  0  0
 10 19  1  0  0  0  0
 11 12  1  0  0  0  0
 13 15  1  0  0  0  0
 14 16  2  0  0  0  0
 18 21  1  0  0  0  0
 19 22  2  0  0  0  0
 20 24  1  0  0  0  0
 21 23  2  0  0  0  0
 22 23  1  0  0  0  0
M  END
> <PUBCHEM_COMPOUND_ID_TYPE>
0

> <PUBCHEM_TOTAL_CHARGE>
0

> <PUBCHEM_SUBSTANCE_ID>
310947453

> <PUBCHEM_SUBSTANCE_VERSION>
1

> <PUBCHEM_EXT_DATASOURCE_NAME>
4488

> <PUBCHEM_EXT_DATASOURCE_REGID>
SCHEMBL16125614

> <PUBCHEM_SUBSTANCE_COMMENT>
InChI=1S/C17H18N2O5/c20-11-10-19(14-4-2-1-3-5-14)12-16(21)24-15-8-6-13(7-9-15)17(22)18-23/h1-9,20,23H,10-12H2,(H,18,22)
InChIKey=GXCNMOJUUPQITF-UHFFFAOYSA-N

> <PUBCHEM_SUBSTANCE_SYNONYM>
SCHEMBL16125614

> <PUBCHEM_XREF_EXT_ID>
SCHEMBL16125614

> <PUBCHEM_EXT_DATASOURCE_URL>
https://www.surechembl.org/

> <PUBCHEM_EXT_SUBSTANCE_URL>
https://www.surechembl.org/chemical/SCHEMBL16125614

> <PUBCHEM_CID_ASSOCIATIONS>
117613184  1

> <PUBCHEM_COORDINATE_TYPE>
1
3

$$$$
