310931358
  -OEChem-07211613022D

 17 18  0     1  0  0  0  0  0999 V2000
    3.2772    0.0000    0.0000 O   0  0  0  0  0  0  0  0  0  0  0  0
    4.3826   -1.9392    0.0000 O   0  0  0  0  0  0  0  0  0  0  0  0
    5.1000   -0.7175    0.0000 O   0  0  0  0  0  0  0  0  0  0  0  0
    0.0000   -2.3658    0.0000 O   0  0  0  0  0  0  0  0  0  0  0  0
    3.6845   -0.7175    0.0000 C   0  0  3  0  0  0  0  0  0  0  0  0
    2.8506   -0.7175    0.0000 C   0  0  3  0  0  0  0  0  0  0  0  0
    2.1331   -1.1247    0.0000 C   0  0  0  0  0  0  0  0  0  0  0  0
    4.3826   -1.1247    0.0000 C   0  0  0  0  0  0  0  0  0  0  0  0
    3.4711   -1.5126    0.0000 C   0  0  0  0  0  0  0  0  0  0  0  0
    2.1331   -1.9586    0.0000 C   0  0  0  0  0  0  0  0  0  0  0  0
    1.4156   -0.7175    0.0000 C   0  0  0  0  0  0  0  0  0  0  0  0
    1.4156   -2.3658    0.0000 C   0  0  0  0  0  0  0  0  0  0  0  0
    0.7175   -1.1247    0.0000 C   0  0  0  0  0  0  0  0  0  0  0  0
    0.7175   -1.9392    0.0000 C   0  0  0  0  0  0  0  0  0  0  0  0
    5.1000   -2.3658    0.0000 C   0  0  0  0  0  0  0  0  0  0  0  0
    5.8176   -1.9392    0.0000 C   0  0  0  0  0  0  0  0  0  0  0  0
    0.0000   -3.1803    0.0000 C   0  0  0  0  0  0  0  0  0  0  0  0
  1  5  1  0  0  0  0
  1  6  1  0  0  0  0
  2  8  1  0  0  0  0
  2 15  1  0  0  0  0
  3  8  2  0  0  0  0
  4 14  1  0  0  0  0
  4 17  1  0  0  0  0
  5  6  1  0  0  0  0
  5  8  1  0  0  0  0
  5  9  1  0  0  0  0
  6  7  1  0  0  0  0
  7 10  2  0  0  0  0
  7 11  1  0  0  0  0
 10 12  1  0  0  0  0
 11 13  2  0  0  0  0
 12 14  2  0  0  0  0
 13 14  1  0  0  0  0
 15 16  1  0  0  0  0
M  END
> <PUBCHEM_COMPOUND_ID_TYPE>
0

> <PUBCHEM_TOTAL_CHARGE>
0

> <PUBCHEM_SUBSTANCE_ID>
310931358

> <PUBCHEM_SUBSTANCE_VERSION>
1

> <PUBCHEM_EXT_DATASOURCE_NAME>
4488

> <PUBCHEM_EXT_DATASOURCE_REGID>
SCHEMBL16108680

> <PUBCHEM_SUBSTANCE_COMMENT>
InChI=1S/C13H16O4/c1-4-16-12(14)13(2)11(17-13)9-5-7-10(15-3)8-6-9/h5-8,11H,4H2,1-3H3
InChIKey=KBHLBCXEIOCKHK-UHFFFAOYSA-N

> <PUBCHEM_SUBSTANCE_SYNONYM>
SCHEMBL16108680

> <PUBCHEM_XREF_EXT_ID>
SCHEMBL16108680

> <PUBCHEM_EXT_DATASOURCE_URL>
https://www.surechembl.org/

> <PUBCHEM_EXT_SUBSTANCE_URL>
https://www.surechembl.org/chemical/SCHEMBL16108680

> <PUBCHEM_CID_ASSOCIATIONS>
12032849  1

> <PUBCHEM_COORDINATE_TYPE>
1
3

$$$$
