310931091
  -OEChem-07211613022D

 32 35  0     1  0  0  0  0  0999 V2000
    1.3222    5.5902    0.0000 S   0  0  0  0  0  0  0  0  0  0  0  0
    1.3693    3.8678    0.0000 S   0  0  0  0  0  0  0  0  0  0  0  0
    1.3222    7.2402    0.0000 F   0  0  0  0  0  0  0  0  0  0  0  0
   -1.5356    5.5902    0.0000 F   0  0  0  0  0  0  0  0  0  0  0  0
   -3.6791    3.5277    0.0000 F   0  0  0  0  0  0  0  0  0  0  0  0
   -1.5356    7.2402    0.0000 O   0  0  0  0  0  0  0  0  0  0  0  0
    0.9097    4.8757    0.0000 O   0  0  0  0  0  0  0  0  0  0  0  0
    1.7347    6.3047    0.0000 O   0  0  0  0  0  0  0  0  0  0  0  0
    2.0367    5.1777    0.0000 N   0  0  0  0  0  0  0  0  0  0  0  0
    2.7041    3.8678    0.0000 N   0  0  0  0  0  0  0  0  0  0  0  0
    1.6242    3.0831    0.0000 N   0  0  0  0  0  0  0  0  0  0  0  0
   -4.3935    8.0652    0.0000 N   0  0  0  0  0  0  0  0  0  0  0  0
    0.6078    6.0027    0.0000 C   0  0  0  0  0  0  0  0  0  0  0  0
    0.6078    6.8277    0.0000 C   0  0  0  0  0  0  0  0  0  0  0  0
   -0.8212    6.8277    0.0000 C   0  0  0  0  0  0  0  0  0  0  0  0
   -0.1067    5.5902    0.0000 C   0  0  0  0  0  0  0  0  0  0  0  0
   -0.8212    6.0027    0.0000 C   0  0  0  0  0  0  0  0  0  0  0  0
   -0.1067    7.2402    0.0000 C   0  0  0  0  0  0  0  0  0  0  0  0
    2.0367    4.3527    0.0000 C   0  0  0  0  0  0  0  0  0  0  0  0
   -2.9646    7.2402    0.0000 C   0  0  3  0  0  0  0  0  0  0  0  0
   -3.6791    6.8277    0.0000 C   0  0  3  0  0  0  0  0  0  0  0  0
   -2.2501    6.8277    0.0000 C   0  0  0  0  0  0  0  0  0  0  0  0
   -3.6791    6.0027    0.0000 C   0  0  0  0  0  0  0  0  0  0  0  0
   -2.9646    8.0652    0.0000 C   0  0  0  0  0  0  0  0  0  0  0  0
   -4.3935    7.2402    0.0000 C   0  0  0  0  0  0  0  0  0  0  0  0
    2.4492    3.0831    0.0000 C   0  0  0  0  0  0  0  0  0  0  0  0
   -4.3935    5.5902    0.0000 C   0  0  0  0  0  0  0  0  0  0  0  0
   -2.9646    5.5902    0.0000 C   0  0  0  0  0  0  0  0  0  0  0  0
   -3.6791    8.4777    0.0000 C   0  0  0  0  0  0  0  0  0  0  0  0
   -3.6791    4.3527    0.0000 C   0  0  0  0  0  0  0  0  0  0  0  0
   -4.3935    4.7652    0.0000 C   0  0  0  0  0  0  0  0  0  0  0  0
   -2.9646    4.7652    0.0000 C   0  0  0  0  0  0  0  0  0  0  0  0
  1  7  2  0  0  0  0
  1  8  2  0  0  0  0
  1  9  1  0  0  0  0
  1 13  1  0  0  0  0
  2 11  1  0  0  0  0
  2 19  1  0  0  0  0
  3 14  1  0  0  0  0
  4 17  1  0  0  0  0
  5 30  1  0  0  0  0
  6 15  1  0  0  0  0
  6 22  1  0  0  0  0
  9 19  1  0  0  0  0
 10 19  2  0  0  0  0
 10 26  1  0  0  0  0
 11 26  2  0  0  0  0
 12 25  1  0  0  0  0
 12 29  1  0  0  0  0
 13 14  2  0  0  0  0
 13 16  1  0  0  0  0
 14 18  1  0  0  0  0
 15 17  1  0  0  0  0
 15 18  2  0  0  0  0
 16 17  2  0  0  0  0
 20 21  1  0  0  0  0
 20 22  1  0  0  0  0
 20 24  1  0  0  0  0
 21 23  1  0  0  0  0
 21 25  1  0  0  0  0
 23 27  2  0  0  0  0
 23 28  1  0  0  0  0
 24 29  1  0  0  0  0
 27 31  1  0  0  0  0
 28 32  2  0  0  0  0
 30 31  2  0  0  0  0
 30 32  1  0  0  0  0
M  END
> <PUBCHEM_COMPOUND_ID_TYPE>
0

> <PUBCHEM_TOTAL_CHARGE>
0

> <PUBCHEM_SUBSTANCE_ID>
310931091

> <PUBCHEM_SUBSTANCE_VERSION>
1

> <PUBCHEM_EXT_DATASOURCE_NAME>
4488

> <PUBCHEM_EXT_DATASOURCE_REGID>
SCHEMBL16108395

> <PUBCHEM_SUBSTANCE_COMMENT>
InChI=1S/C20H19F3N4O3S2/c21-14-3-1-12(2-4-14)15-9-24-6-5-13(15)10-30-18-7-17(23)19(8-16(18)22)32(28,29)27-20-25-11-26-31-20/h1-4,7-8,11,13,15,24H,5-6,9-10H2,(H,25,26,27)
InChIKey=XSBUZAIFXFCWIN-UHFFFAOYSA-N

> <PUBCHEM_SUBSTANCE_SYNONYM>
SCHEMBL16108395

> <PUBCHEM_XREF_EXT_ID>
SCHEMBL16108395

> <PUBCHEM_EXT_DATASOURCE_URL>
https://www.surechembl.org/

> <PUBCHEM_EXT_SUBSTANCE_URL>
https://www.surechembl.org/chemical/SCHEMBL16108395

> <PUBCHEM_CID_ASSOCIATIONS>
78111430  1

> <PUBCHEM_COORDINATE_TYPE>
1
3

$$$$
