310940452
  -OEChem-07211613022D

 23 26  0     1  0  0  0  0  0999 V2000
    0.1249    0.7906    0.0000 N   0  0  0  0  0  0  0  0  0  0  0  0
    0.1249   -0.5686    0.0000 N   0  0  0  0  0  0  0  0  0  0  0  0
   -1.3870    0.9431    0.0000 N   0  0  0  0  0  0  0  0  0  0  0  0
   -2.0943   -0.3051    0.0000 N   0  0  0  0  0  0  0  0  0  0  0  0
   -0.5825    0.4300    0.0000 C   0  0  0  0  0  0  0  0  0  0  0  0
   -0.5964   -0.4022    0.0000 C   0  0  0  0  0  0  0  0  0  0  0  0
    0.6935    0.0139    0.0000 C   0  0  3  0  0  0  0  0  0  0  0  0
    0.4438    1.4840    0.0000 C   0  0  0  0  0  0  0  0  0  0  0  0
    0.4577   -1.4563    0.0000 C   0  0  0  0  0  0  0  0  0  0  0  0
   -1.3314   -0.8322    0.0000 C   0  0  0  0  0  0  0  0  0  0  0  0
    1.2621    1.6504    0.0000 C   0  0  0  0  0  0  0  0  0  0  0  0
    2.0943   -0.0417    0.0000 C   0  0  0  0  0  0  0  0  0  0  0  0
   -0.0971    2.0665    0.0000 C   0  0  0  0  0  0  0  0  0  0  0  0
   -1.9972    0.4300    0.0000 C   0  0  0  0  0  0  0  0  0  0  0  0
   -0.0693   -2.0804    0.0000 C   0  0  0  0  0  0  0  0  0  0  0  0
    1.2621   -1.6366    0.0000 C   0  0  0  0  0  0  0  0  0  0  0  0
    1.4979    2.4271    0.0000 C   0  0  0  0  0  0  0  0  0  0  0  0
    0.1664    2.8571    0.0000 C   0  0  0  0  0  0  0  0  0  0  0  0
    0.1664   -2.8710    0.0000 C   0  0  0  0  0  0  0  0  0  0  0  0
    1.5118   -2.4271    0.0000 C   0  0  0  0  0  0  0  0  0  0  0  0
    0.9708    3.0235    0.0000 C   0  0  0  0  0  0  0  0  0  0  0  0
    2.0943    0.2774    0.0000 C   0  0  0  0  0  0  0  0  0  0  0  0
    0.9847   -3.0235    0.0000 C   0  0  0  0  0  0  0  0  0  0  0  0
  1  5  1  0  0  0  0
  1  7  1  0  0  0  0
  1  8  1  0  0  0  0
  2  6  1  0  0  0  0
  2  7  1  0  0  0  0
  2  9  1  0  0  0  0
  3  5  2  0  0  0  0
  3 14  1  0  0  0  0
  4 10  1  0  0  0  0
  4 14  2  0  0  0  0
  5  6  1  0  0  0  0
  6 10  2  0  0  0  0
  7 12  1  0  0  0  0
  8 11  2  0  0  0  0
  8 13  1  0  0  0  0
  9 15  2  0  0  0  0
  9 16  1  0  0  0  0
 11 17  1  0  0  0  0
 11 22  1  0  0  0  0
 13 18  2  0  0  0  0
 15 19  1  0  0  0  0
 16 20  2  0  0  0  0
 17 21  2  0  0  0  0
 18 21  1  0  0  0  0
 19 23  2  0  0  0  0
 20 23  1  0  0  0  0
M  END
> <PUBCHEM_COMPOUND_ID_TYPE>
0

> <PUBCHEM_TOTAL_CHARGE>
0

> <PUBCHEM_SUBSTANCE_ID>
310940452

> <PUBCHEM_SUBSTANCE_VERSION>
1

> <PUBCHEM_EXT_DATASOURCE_NAME>
4488

> <PUBCHEM_EXT_DATASOURCE_REGID>
SCHEMBL16118405

> <PUBCHEM_SUBSTANCE_COMMENT>
InChI=1S/C19H18N4/c1-14-8-6-7-11-17(14)23-15(2)22(16-9-4-3-5-10-16)18-12-20-13-21-19(18)23/h3-13,15H,1-2H3
InChIKey=DVSFTQOMNAXSTM-UHFFFAOYSA-N

> <PUBCHEM_SUBSTANCE_SYNONYM>
SCHEMBL16118405

> <PUBCHEM_XREF_EXT_ID>
SCHEMBL16118405

> <PUBCHEM_EXT_DATASOURCE_URL>
https://www.surechembl.org/

> <PUBCHEM_EXT_SUBSTANCE_URL>
https://www.surechembl.org/chemical/SCHEMBL16118405

> <PUBCHEM_CID_ASSOCIATIONS>
117607472  1

> <PUBCHEM_COORDINATE_TYPE>
1
3

$$$$
