310930320
  -OEChem-07211613022D

 20 23  0     1  0  0  0  0  0999 V2000
    0.0000   -2.2618    0.0000 Br  0  0  0  0  0  0  0  0  0  0  0  0
    3.3927   -2.7435    0.0000 O   0  0  0  0  0  0  0  0  0  0  0  0
    3.2042    0.0000    0.0000 O   0  0  0  0  0  0  0  0  0  0  0  0
    3.3927   -1.4241    0.0000 N   0  0  0  0  0  0  0  0  0  0  0  0
    2.9319   -2.0943    0.0000 C   0  0  3  0  0  0  0  0  0  0  0  0
    2.1780   -1.8429    0.0000 C   0  0  0  0  0  0  0  0  0  0  0  0
    2.1780   -1.0262    0.0000 C   0  0  0  0  0  0  0  0  0  0  0  0
    2.9319   -0.7749    0.0000 C   0  0  0  0  0  0  0  0  0  0  0  0
    2.4503   -2.7644    0.0000 C   0  0  0  0  0  0  0  0  0  0  0  0
    4.2094   -1.6754    0.0000 C   0  0  0  0  0  0  0  0  0  0  0  0
    1.4450   -2.2618    0.0000 C   0  0  0  0  0  0  0  0  0  0  0  0
    4.2094   -2.4712    0.0000 C   0  0  0  0  0  0  0  0  0  0  0  0
    1.4450   -0.6074    0.0000 C   0  0  0  0  0  0  0  0  0  0  0  0
    0.7330   -1.8429    0.0000 C   0  0  0  0  0  0  0  0  0  0  0  0
    2.7853   -3.5183    0.0000 C   0  0  0  0  0  0  0  0  0  0  0  0
    1.6335   -2.6807    0.0000 C   0  0  0  0  0  0  0  0  0  0  0  0
    0.7330   -1.0262    0.0000 C   0  0  0  0  0  0  0  0  0  0  0  0
    2.3037   -4.1885    0.0000 C   0  0  0  0  0  0  0  0  0  0  0  0
    1.1518   -3.3508    0.0000 C   0  0  0  0  0  0  0  0  0  0  0  0
    1.4869   -4.1047    0.0000 C   0  0  0  0  0  0  0  0  0  0  0  0
  1 14  1  0  0  0  0
  2  5  1  0  0  0  0
  2 12  1  0  0  0  0
  3  8  2  0  0  0  0
  4  5  1  0  0  0  0
  4  8  1  0  0  0  0
  4 10  1  0  0  0  0
  5  6  1  0  0  0  0
  5  9  1  0  0  0  0
  6  7  2  0  0  0  0
  6 11  1  0  0  0  0
  7  8  1  0  0  0  0
  7 13  1  0  0  0  0
  9 15  2  0  0  0  0
  9 16  1  0  0  0  0
 10 12  1  0  0  0  0
 11 14  2  0  0  0  0
 13 17  2  0  0  0  0
 14 17  1  0  0  0  0
 15 18  1  0  0  0  0
 16 19  2  0  0  0  0
 18 20  2  0  0  0  0
 19 20  1  0  0  0  0
M  END
> <PUBCHEM_COMPOUND_ID_TYPE>
0

> <PUBCHEM_TOTAL_CHARGE>
0

> <PUBCHEM_SUBSTANCE_ID>
310930320

> <PUBCHEM_SUBSTANCE_VERSION>
1

> <PUBCHEM_EXT_DATASOURCE_NAME>
4488

> <PUBCHEM_EXT_DATASOURCE_REGID>
SCHEMBL16107601

> <PUBCHEM_SUBSTANCE_COMMENT>
InChI=1S/C16H12BrNO2/c17-12-6-7-13-14(10-12)16(11-4-2-1-3-5-11)18(15(13)19)8-9-20-16/h1-7,10H,8-9H2
InChIKey=OGTIUURZYQGQDC-UHFFFAOYSA-N

> <PUBCHEM_SUBSTANCE_SYNONYM>
SCHEMBL16107601

> <PUBCHEM_XREF_EXT_ID>
SCHEMBL16107601

> <PUBCHEM_EXT_DATASOURCE_URL>
https://www.surechembl.org/

> <PUBCHEM_EXT_SUBSTANCE_URL>
https://www.surechembl.org/chemical/SCHEMBL16107601

> <PUBCHEM_CID_ASSOCIATIONS>
117599495  1

> <PUBCHEM_COORDINATE_TYPE>
1
3

$$$$
