310949817
  -OEChem-07211613022D

 32 35  0     1  0  0  0  0  0999 V2000
   -6.5801   -1.4622    0.0000 Cl  0  0  0  0  0  0  0  0  0  0  0  0
   -3.4307    0.2062    0.0000 O   0  0  0  0  0  0  0  0  0  0  0  0
    6.5801    0.2062    0.0000 O   0  0  0  0  0  0  0  0  0  0  0  0
    5.9614   -1.0498    0.0000 O   0  0  0  0  0  0  0  0  0  0  0  0
    3.7493    0.2062    0.0000 N   0  0  0  0  0  0  0  0  0  0  0  0
    3.0369   -1.0311    0.0000 N   0  0  0  0  0  0  0  0  0  0  0  0
    0.1687   -1.0311    0.0000 N   0  0  0  0  0  0  0  0  0  0  0  0
    3.0369   -0.1874    0.0000 C   0  0  0  0  0  0  0  0  0  0  0  0
    5.1741    0.2250    0.0000 C   0  0  3  0  0  0  0  0  0  0  0  0
    4.4804   -0.1874    0.0000 C   0  0  0  0  0  0  0  0  0  0  0  0
    2.3059    0.2250    0.0000 C   0  0  0  0  0  0  0  0  0  0  0  0
    1.5747   -1.0123    0.0000 C   0  0  0  0  0  0  0  0  0  0  0  0
    3.7681    1.0686    0.0000 C   0  0  0  0  0  0  0  0  0  0  0  0
    2.3246   -1.4247    0.0000 C   0  0  0  0  0  0  0  0  0  0  0  0
    1.6122   -0.1874    0.0000 C   0  0  0  0  0  0  0  0  0  0  0  0
    5.1928    1.0498    0.0000 C   0  0  0  0  0  0  0  0  0  0  0  0
   -2.7183   -0.1874    0.0000 C   0  0  0  0  0  0  0  0  0  0  0  0
    5.9052   -0.2062    0.0000 C   0  0  0  0  0  0  0  0  0  0  0  0
    4.4617    1.4622    0.0000 C   0  0  0  0  0  0  0  0  0  0  0  0
   -4.1430   -0.1687    0.0000 C   0  0  0  0  0  0  0  0  0  0  0  0
   -1.2748   -1.0123    0.0000 C   0  0  0  0  0  0  0  0  0  0  0  0
    0.8623   -1.4247    0.0000 C   0  0  0  0  0  0  0  0  0  0  0  0
   -2.6995   -1.0311    0.0000 C   0  0  0  0  0  0  0  0  0  0  0  0
   -1.9871    0.2062    0.0000 C   0  0  0  0  0  0  0  0  0  0  0  0
   -1.9871   -1.4247    0.0000 C   0  0  0  0  0  0  0  0  0  0  0  0
   -1.2748   -0.1874    0.0000 C   0  0  0  0  0  0  0  0  0  0  0  0
   -0.5436   -1.4247    0.0000 C   0  0  0  0  0  0  0  0  0  0  0  0
   -4.8554    0.2062    0.0000 C   0  0  0  0  0  0  0  0  0  0  0  0
   -4.1617   -1.0123    0.0000 C   0  0  0  0  0  0  0  0  0  0  0  0
   -5.6052   -1.0123    0.0000 C   0  0  0  0  0  0  0  0  0  0  0  0
   -5.5678   -0.1874    0.0000 C   0  0  0  0  0  0  0  0  0  0  0  0
   -4.8554   -1.4247    0.0000 C   0  0  0  0  0  0  0  0  0  0  0  0
  1 30  1  0  0  0  0
  2 17  1  0  0  0  0
  2 20  1  0  0  0  0
  3 18  2  0  0  0  0
  4 18  1  0  0  0  0
  5  8  1  0  0  0  0
  5 10  1  0  0  0  0
  5 13  1  0  0  0  0
  6  8  2  0  0  0  0
  6 14  1  0  0  0  0
  7 22  1  0  0  0  0
  7 27  1  0  0  0  0
  8 11  1  0  0  0  0
  9 10  1  0  0  0  0
  9 16  1  0  0  0  0
  9 18  1  0  0  0  0
 11 15  2  0  0  0  0
 12 14  2  0  0  0  0
 12 15  1  0  0  0  0
 12 22  1  0  0  0  0
 13 19  1  0  0  0  0
 16 19  1  0  0  0  0
 17 23  2  0  0  0  0
 17 24  1  0  0  0  0
 20 28  2  0  0  0  0
 20 29  1  0  0  0  0
 21 25  2  0  0  0  0
 21 26  1  0  0  0  0
 21 27  1  0  0  0  0
 23 25  1  0  0  0  0
 24 26  2  0  0  0  0
 28 31  1  0  0  0  0
 29 32  2  0  0  0  0
 30 31  2  0  0  0  0
 30 32  1  0  0  0  0
M  END
> <PUBCHEM_COMPOUND_ID_TYPE>
0

> <PUBCHEM_TOTAL_CHARGE>
0

> <PUBCHEM_SUBSTANCE_ID>
310949817

> <PUBCHEM_SUBSTANCE_VERSION>
1

> <PUBCHEM_EXT_DATASOURCE_NAME>
4488

> <PUBCHEM_EXT_DATASOURCE_REGID>
SCHEMBL16128017

> <PUBCHEM_SUBSTANCE_COMMENT>
InChI=1S/C25H26ClN3O3/c26-21-6-10-23(11-7-21)32-22-8-3-18(4-9-22)14-27-15-19-5-12-24(28-16-19)29-13-1-2-20(17-29)25(30)31/h3-12,16,20,27H,1-2,13-15,17H2,(H,30,31)
InChIKey=CYAFNRNGKXPWHI-UHFFFAOYSA-N

> <PUBCHEM_SUBSTANCE_SYNONYM>
SCHEMBL16128017

> <PUBCHEM_XREF_EXT_ID>
SCHEMBL16128017

> <PUBCHEM_EXT_DATASOURCE_URL>
https://www.surechembl.org/

> <PUBCHEM_EXT_SUBSTANCE_URL>
https://www.surechembl.org/chemical/SCHEMBL16128017

> <PUBCHEM_CID_ASSOCIATIONS>
86272378  1

> <PUBCHEM_COORDINATE_TYPE>
1
3

$$$$
