310940197
  -OEChem-07211613022D

 37 38  0     1  0  0  0  0  0999 V2000
    4.5731   -0.3641    0.0000 Cl  0  0  0  0  0  0  0  0  0  0  0  0
    2.0099   -1.9079    0.0000 Cl  0  0  0  0  0  0  0  0  0  0  0  0
    5.4178   -1.8497    0.0000 F   0  0  0  0  0  0  0  0  0  0  0  0
    3.3206    0.3641    0.0000 O   0  0  0  0  0  0  0  0  0  0  0  0
   -2.4468   -1.9953    0.0000 O   0  0  0  0  0  0  0  0  0  0  0  0
   -0.3787    1.2380    0.0000 N   0  0  3  0  0  0  0  0  0  0  0  0
   -2.0973   -0.5680    0.0000 N   0  0  0  0  0  0  0  0  0  0  0  0
   -5.4178   -1.9953    0.0000 N   0  0  0  0  0  0  0  0  0  0  0  0
    3.3497   -1.1215    0.0000 C   0  0  0  0  0  0  0  0  0  0  0  0
    4.1653   -1.1506    0.0000 C   0  0  0  0  0  0  0  0  0  0  0  0
    2.9420   -1.8787    0.0000 C   0  0  0  0  0  0  0  0  0  0  0  0
    2.9420   -0.4224    0.0000 C   0  0  3  0  0  0  0  0  0  0  0  0
    4.6023   -1.8497    0.0000 C   0  0  0  0  0  0  0  0  0  0  0  0
    3.4080   -2.5779    0.0000 C   0  0  0  0  0  0  0  0  0  0  0  0
    4.1944   -2.6069    0.0000 C   0  0  0  0  0  0  0  0  0  0  0  0
    2.9128    1.0341    0.0000 C   0  0  0  0  0  0  0  0  0  0  0  0
    1.6894    1.7623    0.0000 C   0  0  0  0  0  0  0  0  0  0  0  0
   -0.9613    0.5680    0.0000 C   0  0  0  0  0  0  0  0  0  0  0  0
    0.8447    1.8205    0.0000 C   0  0  0  0  0  0  0  0  0  0  0  0
    2.0973    1.0632    0.0000 C   0  0  0  0  0  0  0  0  0  0  0  0
    0.4660    1.0632    0.0000 C   0  0  0  0  0  0  0  0  0  0  0  0
    2.1264   -0.4515    0.0000 C   0  0  0  0  0  0  0  0  0  0  0  0
   -0.7282   -0.1602    0.0000 C   0  0  0  0  0  0  0  0  0  0  0  0
   -1.7477    0.8302    0.0000 C   0  0  0  0  0  0  0  0  0  0  0  0
   -1.2817   -0.7719    0.0000 C   0  0  0  0  0  0  0  0  0  0  0  0
   -2.3012    0.2476    0.0000 C   0  0  0  0  0  0  0  0  0  0  0  0
   -2.6798   -1.1797    0.0000 C   0  0  0  0  0  0  0  0  0  0  0  0
    3.3206    1.8497    0.0000 C   0  0  0  0  0  0  0  0  0  0  0  0
    2.0973    2.4905    0.0000 C   0  0  0  0  0  0  0  0  0  0  0  0
    0.3205    2.3448    0.0000 C   0  0  0  0  0  0  0  0  0  0  0  0
   -0.5534    2.2283    0.0000 C   0  0  0  0  0  0  0  0  0  0  0  0
   -3.4953   -1.0049    0.0000 C   0  0  0  0  0  0  0  0  0  0  0  0
    2.9420    2.6069    0.0000 C   0  0  0  0  0  0  0  0  0  0  0  0
    2.6798    2.4322    0.0000 C   0  0  0  0  0  0  0  0  0  0  0  0
   -0.1748    2.0827    0.0000 C   0  0  0  0  0  0  0  0  0  0  0  0
   -4.0489   -1.6166    0.0000 C   0  0  0  0  0  0  0  0  0  0  0  0
   -4.8644   -1.4127    0.0000 C   0  0  0  0  0  0  0  0  0  0  0  0
  1 10  1  0  0  0  0
  2 11  1  0  0  0  0
  3 13  1  0  0  0  0
  4 12  1  0  0  0  0
  4 16  1  0  0  0  0
  5 27  2  0  0  0  0
  6 18  1  0  0  0  0
  6 21  1  0  0  0  0
  6 31  1  0  0  0  0
  7 25  1  0  0  0  0
  7 26  1  0  0  0  0
  7 27  1  0  0  0  0
  8 37  1  0  0  0  0
  9 10  2  0  0  0  0
  9 11  1  0  0  0  0
  9 12  1  0  0  0  0
 10 13  1  0  0  0  0
 11 14  2  0  0  0  0
 12 22  1  0  0  0  0
 13 15  2  0  0  0  0
 14 15  1  0  0  0  0
 16 20  1  0  0  0  0
 16 28  2  0  0  0  0
 17 19  1  0  0  0  0
 17 20  2  0  0  0  0
 17 29  1  0  0  0  0
 18 23  1  0  0  0  0
 18 24  1  0  0  0  0
 19 21  2  0  0  0  0
 19 30  1  0  0  0  0
 23 25  1  0  0  0  0
 24 26  1  0  0  0  0
 27 32  1  0  0  0  0
 28 33  1  0  0  0  0
 29 34  2  0  0  0  0
 30 35  2  0  0  0  0
 32 36  1  0  0  0  0
 36 37  1  0  0  0  0
M  END
> <PUBCHEM_COMPOUND_ID_TYPE>
0

> <PUBCHEM_TOTAL_CHARGE>
0

> <PUBCHEM_SUBSTANCE_ID>
310940197

> <PUBCHEM_SUBSTANCE_VERSION>
1

> <PUBCHEM_EXT_DATASOURCE_NAME>
4488

> <PUBCHEM_EXT_DATASOURCE_REGID>
SCHEMBL16118131

> <PUBCHEM_SUBSTANCE_COMMENT>
InChI=1S/C29H38Cl2FN3O2/c1-6-21(18-24(8-3)37-20(4)28-25(30)11-12-26(32)29(28)31)22(7-2)19-34(5)23-13-16-35(17-14-23)27(36)10-9-15-33/h6-8,11-12,18-20,23H,1-2,9-10,13-17,33H2,3-5H3/b21-18+,22-19+,24-8+
InChIKey=FPXXCEBHXZVPEQ-ITLAXJNISA-N

> <PUBCHEM_SUBSTANCE_SYNONYM>
SCHEMBL16118131

> <PUBCHEM_XREF_EXT_ID>
SCHEMBL16118131

> <PUBCHEM_EXT_DATASOURCE_URL>
https://www.surechembl.org/

> <PUBCHEM_EXT_SUBSTANCE_URL>
https://www.surechembl.org/chemical/SCHEMBL16118131

> <PUBCHEM_CID_ASSOCIATIONS>
117607301  1

> <PUBCHEM_COORDINATE_TYPE>
1
3

$$$$
