310949816
  -OEChem-07211613022D

 19 20  0     1  0  0  0  0  0999 V2000
    2.8032    0.1594    0.0000 O   0  0  0  0  0  0  0  0  0  0  0  0
    2.1844   -1.0781    0.0000 O   0  0  0  0  0  0  0  0  0  0  0  0
   -0.0094    0.1968    0.0000 N   0  0  0  0  0  0  0  0  0  0  0  0
   -0.7219   -1.0407    0.0000 N   0  0  0  0  0  0  0  0  0  0  0  0
   -3.5907   -1.0407    0.0000 N   0  0  0  0  0  0  0  0  0  0  0  0
   -0.7031   -0.1968    0.0000 C   0  0  0  0  0  0  0  0  0  0  0  0
    1.4344    0.2157    0.0000 C   0  0  3  0  0  0  0  0  0  0  0  0
    0.7219   -0.1968    0.0000 C   0  0  0  0  0  0  0  0  0  0  0  0
    0.0094    1.0407    0.0000 C   0  0  0  0  0  0  0  0  0  0  0  0
    2.1469   -0.2344    0.0000 C   0  0  0  0  0  0  0  0  0  0  0  0
   -1.4719    0.1968    0.0000 C   0  0  0  0  0  0  0  0  0  0  0  0
    1.4344    1.0407    0.0000 C   0  0  0  0  0  0  0  0  0  0  0  0
    0.7031    1.4532    0.0000 C   0  0  0  0  0  0  0  0  0  0  0  0
   -2.1844   -1.0407    0.0000 C   0  0  0  0  0  0  0  0  0  0  0  0
   -1.4344   -1.4532    0.0000 C   0  0  0  0  0  0  0  0  0  0  0  0
   -2.1469   -0.1968    0.0000 C   0  0  0  0  0  0  0  0  0  0  0  0
   -2.8782   -1.4532    0.0000 C   0  0  0  0  0  0  0  0  0  0  0  0
    3.5345   -0.2157    0.0000 C   0  0  0  0  0  0  0  0  0  0  0  0
    3.5907   -0.9844    0.0000 C   0  0  0  0  0  0  0  0  0  0  0  0
  1 10  1  0  0  0  0
  1 18  1  0  0  0  0
  2 10  2  0  0  0  0
  3  6  1  0  0  0  0
  3  8  1  0  0  0  0
  3  9  1  0  0  0  0
  4  6  2  0  0  0  0
  4 15  1  0  0  0  0
  5 17  1  0  0  0  0
  6 11  1  0  0  0  0
  7  8  1  0  0  0  0
  7 10  1  0  0  0  0
  7 12  1  0  0  0  0
  9 13  1  0  0  0  0
 11 16  2  0  0  0  0
 12 13  1  0  0  0  0
 14 15  2  0  0  0  0
 14 16  1  0  0  0  0
 14 17  1  0  0  0  0
 18 19  1  0  0  0  0
M  END
> <PUBCHEM_COMPOUND_ID_TYPE>
0

> <PUBCHEM_TOTAL_CHARGE>
0

> <PUBCHEM_SUBSTANCE_ID>
310949816

> <PUBCHEM_SUBSTANCE_VERSION>
1

> <PUBCHEM_EXT_DATASOURCE_NAME>
4488

> <PUBCHEM_EXT_DATASOURCE_REGID>
SCHEMBL16128016

> <PUBCHEM_SUBSTANCE_COMMENT>
InChI=1S/C14H21N3O2/c1-2-19-14(18)12-4-3-7-17(10-12)13-6-5-11(8-15)9-16-13/h5-6,9,12H,2-4,7-8,10,15H2,1H3
InChIKey=IZTGCOCOYCSFIW-UHFFFAOYSA-N

> <PUBCHEM_SUBSTANCE_SYNONYM>
SCHEMBL16128016

> <PUBCHEM_XREF_EXT_ID>
SCHEMBL16128016

> <PUBCHEM_EXT_DATASOURCE_URL>
https://www.surechembl.org/

> <PUBCHEM_EXT_SUBSTANCE_URL>
https://www.surechembl.org/chemical/SCHEMBL16128016

> <PUBCHEM_CID_ASSOCIATIONS>
117615135  1

> <PUBCHEM_COORDINATE_TYPE>
1
3

$$$$
