310943704
  -OEChem-07211613022D

 26 28  0     1  0  0  0  0  0999 V2000
    1.8499   -2.4605    0.0000 O   0  5  0  0  0  0  0  0  0  0  0  0
    2.5653   -1.2148    0.0000 O   0  0  0  0  0  0  0  0  0  0  0  0
    3.7740    2.4605    0.0000 O   0  0  0  0  0  0  0  0  0  0  0  0
    1.8499   -1.6095    0.0000 N   0  3  0  0  0  0  0  0  0  0  0  0
   -1.8993   -1.1162    0.0000 N   0  0  3  0  0  0  0  0  0  0  0  0
   -3.6753   -0.5735    0.0000 N   0  0  3  0  0  0  0  0  0  0  0  0
    0.9373   -0.2652    0.0000 C   0  0  0  0  0  0  0  0  0  0  0  0
    0.9497   -1.0914    0.0000 C   0  0  0  0  0  0  0  0  0  0  0  0
    1.6526    0.1665    0.0000 C   0  0  0  0  0  0  0  0  0  0  0  0
   -0.4810   -1.1038    0.0000 C   0  0  0  0  0  0  0  0  0  0  0  0
    0.2467   -1.5108    0.0000 C   0  0  0  0  0  0  0  0  0  0  0  0
    0.2220    0.1418    0.0000 C   0  0  0  0  0  0  0  0  0  0  0  0
   -0.4810   -0.2652    0.0000 C   0  0  0  0  0  0  0  0  0  0  0  0
    2.3680   -0.2405    0.0000 C   0  0  0  0  0  0  0  0  0  0  0  0
    1.6526    0.9681    0.0000 C   0  0  0  0  0  0  0  0  0  0  0  0
   -1.2087   -1.5231    0.0000 C   0  0  0  0  0  0  0  0  0  0  0  0
    3.0709    1.0052    0.0000 C   0  0  0  0  0  0  0  0  0  0  0  0
    3.0709    0.1665    0.0000 C   0  0  0  0  0  0  0  0  0  0  0  0
    2.3556    1.3998    0.0000 C   0  0  0  0  0  0  0  0  0  0  0  0
   -2.5776   -1.5848    0.0000 C   0  0  0  0  0  0  0  0  0  0  0  0
   -1.8499   -0.2898    0.0000 C   0  0  0  0  0  0  0  0  0  0  0  0
    3.7616    1.4122    0.0000 C   0  0  0  0  0  0  0  0  0  0  0  0
   -3.3793   -1.3381    0.0000 C   0  0  0  0  0  0  0  0  0  0  0  0
   -2.4790    0.2775    0.0000 C   0  0  0  0  0  0  0  0  0  0  0  0
   -3.2683    0.1542    0.0000 C   0  0  0  0  0  0  0  0  0  0  0  0
   -4.5016   -0.5858    0.0000 C   0  0  0  0  0  0  0  0  0  0  0  0
  1  4  1  0  0  0  0
  2  4  2  0  0  0  0
  3 22  2  0  0  0  0
  4  8  1  0  0  0  0
  5 16  1  0  0  0  0
  5 20  1  0  0  0  0
  5 21  1  0  0  0  0
  6 23  1  0  0  0  0
  6 25  1  0  0  0  0
  6 26  1  0  0  0  0
  7  8  1  0  0  0  0
  7  9  1  0  0  0  0
  7 12  2  0  0  0  0
  8 11  2  0  0  0  0
  9 14  2  0  0  0  0
  9 15  1  0  0  0  0
 10 11  1  0  0  0  0
 10 13  2  0  0  0  0
 10 16  1  0  0  0  0
 12 13  1  0  0  0  0
 14 18  1  0  0  0  0
 15 19  2  0  0  0  0
 17 18  2  0  0  0  0
 17 19  1  0  0  0  0
 17 22  1  0  0  0  0
 20 23  1  0  0  0  0
 21 24  1  0  0  0  0
 24 25  1  0  0  0  0
M  CHG  2   1  -1   4   1
M  END
> <PUBCHEM_COMPOUND_ID_TYPE>
0

> <PUBCHEM_TOTAL_CHARGE>
0

> <PUBCHEM_SUBSTANCE_ID>
310943704

> <PUBCHEM_SUBSTANCE_VERSION>
1

> <PUBCHEM_EXT_DATASOURCE_NAME>
4488

> <PUBCHEM_EXT_DATASOURCE_REGID>
SCHEMBL16121772

> <PUBCHEM_SUBSTANCE_COMMENT>
InChI=1S/C20H23N3O3/c1-21-9-2-10-22(12-11-21)14-17-5-8-19(20(13-17)23(25)26)18-6-3-16(15-24)4-7-18/h3-8,13,15H,2,9-12,14H2,1H3
InChIKey=PNOUYBACNZJERA-UHFFFAOYSA-N

> <PUBCHEM_SUBSTANCE_SYNONYM>
SCHEMBL16121772

> <PUBCHEM_XREF_EXT_ID>
SCHEMBL16121772

> <PUBCHEM_EXT_DATASOURCE_URL>
https://www.surechembl.org/

> <PUBCHEM_EXT_SUBSTANCE_URL>
https://www.surechembl.org/chemical/SCHEMBL16121772

> <PUBCHEM_CID_ASSOCIATIONS>
86300901  1

> <PUBCHEM_COORDINATE_TYPE>
1
3

$$$$
