310937833
  -OEChem-07211613022D

 36 40  0     1  0  0  0  0  0999 V2000
   -7.1534    3.0187    0.0000 O   0  0  0  0  0  0  0  0  0  0  0  0
   -8.3095    2.1787    0.0000 O   0  0  0  0  0  0  0  0  0  0  0  0
   -3.8714    3.3636    0.0000 N   0  0  0  0  0  0  0  0  0  0  0  0
   -3.3194    2.7505    0.0000 N   0  0  0  0  0  0  0  0  0  0  0  0
   -4.8781    1.1026    0.0000 N   0  0  3  0  0  0  0  0  0  0  0  0
   -0.7145    0.8250    0.0000 N   0  0  0  0  0  0  0  0  0  0  0  0
    0.7145    0.8250    0.0000 N   0  0  0  0  0  0  0  0  0  0  0  0
   -4.6920    3.2774    0.0000 C   0  0  0  0  0  0  0  0  0  0  0  0
   -5.8480    2.4374    0.0000 C   0  0  0  0  0  0  0  0  0  0  0  0
   -3.4589    4.0781    0.0000 C   0  0  0  0  0  0  0  0  0  0  0  0
   -5.0275    2.5237    0.0000 C   0  0  0  0  0  0  0  0  0  0  0  0
   -6.1836    1.6838    0.0000 C   0  0  3  0  0  0  0  0  0  0  0  0
   -2.5657    3.0861    0.0000 C   0  0  0  0  0  0  0  0  0  0  0  0
   -5.1769    3.9448    0.0000 C   0  0  0  0  0  0  0  0  0  0  0  0
   -2.6519    3.9065    0.0000 C   0  0  0  0  0  0  0  0  0  0  0  0
   -6.3329    3.1049    0.0000 C   0  0  0  0  0  0  0  0  0  0  0  0
   -5.6986    1.0163    0.0000 C   0  0  0  0  0  0  0  0  0  0  0  0
   -5.9974    3.8586    0.0000 C   0  0  0  0  0  0  0  0  0  0  0  0
    0.0000    0.4125    0.0000 C   0  0  0  0  0  0  0  0  0  0  0  0
   -3.5724    0.8250    0.0000 C   0  0  3  0  0  0  0  0  0  0  0  0
    0.0000   -0.4125    0.0000 C   0  0  0  0  0  0  0  0  0  0  0  0
   -4.3261    0.4895    0.0000 C   0  0  0  0  0  0  0  0  0  0  0  0
   -1.4290    0.4125    0.0000 C   0  0  0  0  0  0  0  0  0  0  0  0
   -7.0040    1.5975    0.0000 C   0  0  0  0  0  0  0  0  0  0  0  0
   -4.4656    1.8170    0.0000 C   0  0  0  0  0  0  0  0  0  0  0  0
   -3.6586    1.6455    0.0000 C   0  0  0  0  0  0  0  0  0  0  0  0
   -3.7945    4.8318    0.0000 C   0  0  0  0  0  0  0  0  0  0  0  0
   -0.7145   -0.8250    0.0000 C   0  0  0  0  0  0  0  0  0  0  0  0
   -2.8579    0.4125    0.0000 C   0  0  0  0  0  0  0  0  0  0  0  0
   -1.4290   -0.4125    0.0000 C   0  0  0  0  0  0  0  0  0  0  0  0
   -2.1434    0.8250    0.0000 C   0  0  0  0  0  0  0  0  0  0  0  0
    0.7145   -0.8250    0.0000 C   0  0  0  0  0  0  0  0  0  0  0  0
   -7.4890    2.2650    0.0000 C   0  0  0  0  0  0  0  0  0  0  0  0
   -1.8512    2.6736    0.0000 C   0  0  0  0  0  0  0  0  0  0  0  0
    1.4290    0.4125    0.0000 C   0  0  0  0  0  0  0  0  0  0  0  0
    1.4290   -0.4125    0.0000 C   0  0  0  0  0  0  0  0  0  0  0  0
  1 33  2  0  0  0  0
  2 33  1  0  0  0  0
  3  4  1  0  0  0  0
  3  8  1  0  0  0  0
  3 10  1  0  0  0  0
  4 13  2  0  0  0  0
  5 17  1  0  0  0  0
  5 22  1  0  0  0  0
  5 25  1  0  0  0  0
  6 19  1  0  0  0  0
  6 23  2  0  0  0  0
  7 19  1  0  0  0  0
  7 35  1  0  0  0  0
  8 11  2  0  0  0  0
  8 14  1  0  0  0  0
  9 11  1  0  0  0  0
  9 12  1  0  0  0  0
  9 16  2  0  0  0  0
 10 15  2  0  0  0  0
 10 27  1  0  0  0  0
 12 17  1  0  0  0  0
 12 24  1  0  0  0  0
 13 15  1  0  0  0  0
 13 34  1  0  0  0  0
 14 18  2  0  0  0  0
 16 18  1  0  0  0  0
 19 21  2  0  0  0  0
 20 22  1  0  0  0  0
 20 26  1  0  0  0  0
 20 29  1  0  0  0  0
 21 28  1  0  0  0  0
 21 32  1  0  0  0  0
 23 30  1  0  0  0  0
 23 31  1  0  0  0  0
 24 33  1  0  0  0  0
 25 26  1  0  0  0  0
 28 30  2  0  0  0  0
 29 31  1  0  0  0  0
 32 36  1  0  0  0  0
 35 36  1  0  0  0  0
M  END
> <PUBCHEM_COMPOUND_ID_TYPE>
0

> <PUBCHEM_TOTAL_CHARGE>
0

> <PUBCHEM_SUBSTANCE_ID>
310937833

> <PUBCHEM_SUBSTANCE_VERSION>
1

> <PUBCHEM_EXT_DATASOURCE_NAME>
4488

> <PUBCHEM_EXT_DATASOURCE_REGID>
SCHEMBL16115655

> <PUBCHEM_SUBSTANCE_COMMENT>
InChI=1S/C29H37N5O2/c1-20-15-21(2)34(32-20)27-7-3-5-24(16-27)25(17-28(35)36)19-33-14-12-22(18-33)8-10-26-11-9-23-6-4-13-30-29(23)31-26/h3,5,7,9,11,15-16,22,25H,4,6,8,10,12-14,17-19H2,1-2H3,(H,30,31)(H,35,36)
InChIKey=ZMXBIIQMSGOIRZ-UHFFFAOYSA-N

> <PUBCHEM_SUBSTANCE_SYNONYM>
SCHEMBL16115655

> <PUBCHEM_XREF_EXT_ID>
SCHEMBL16115655

> <PUBCHEM_EXT_DATASOURCE_URL>
https://www.surechembl.org/

> <PUBCHEM_EXT_SUBSTANCE_URL>
https://www.surechembl.org/chemical/SCHEMBL16115655

> <PUBCHEM_CID_ASSOCIATIONS>
117605471  1

> <PUBCHEM_COORDINATE_TYPE>
1
3

$$$$
