310945905
  -OEChem-07211613022D

 43 46  0     1  0  0  0  0  0999 V2000
   -4.2284    0.1623    0.0000 S   0  0  0  0  0  0  0  0  0  0  0  0
    5.7485   -1.0036    0.0000 O   0  0  0  0  0  0  0  0  0  0  0  0
    4.6269    0.9298    0.0000 O   0  0  0  0  0  0  0  0  0  0  0  0
    2.2507   -0.9888    0.0000 O   0  0  0  0  0  0  0  0  0  0  0  0
    0.1107    1.0626    0.0000 O   0  0  0  0  0  0  0  0  0  0  0  0
   -2.0441   -0.9888    0.0000 O   0  0  0  0  0  0  0  0  0  0  0  0
    4.4055    2.7009    0.0000 O   0  0  0  0  0  0  0  0  0  0  0  0
    2.9739    0.2361    0.0000 N   0  0  0  0  0  0  0  0  0  0  0  0
    0.8339   -0.1771    0.0000 N   0  0  0  0  0  0  0  0  0  0  0  0
   -1.3209    0.2361    0.0000 N   0  0  0  0  0  0  0  0  0  0  0  0
   -4.3612   -1.1659    0.0000 N   0  0  0  0  0  0  0  0  0  0  0  0
   -5.6009   -0.3690    0.0000 N   0  0  0  0  0  0  0  0  0  0  0  0
    5.3501   -0.2804    0.0000 C   0  0  3  0  0  0  0  0  0  0  0  0
    4.6121    0.1181    0.0000 C   0  0  0  0  0  0  0  0  0  0  0  0
    4.9516   -0.9741    0.0000 C   0  0  0  0  0  0  0  0  0  0  0  0
    3.9185   -0.2657    0.0000 C   0  0  3  0  0  0  0  0  0  0  0  0
    6.0585    0.1476    0.0000 C   0  0  0  0  0  0  0  0  0  0  0  0
    3.9185   -1.3283    0.0000 C   0  0  0  0  0  0  0  0  0  0  0  0
    2.2803   -0.1181    0.0000 C   0  0  0  0  0  0  0  0  0  0  0  0
    1.5571    0.2657    0.0000 C   0  0  3  0  0  0  0  0  0  0  0  0
    3.1953   -1.7415    0.0000 C   0  0  0  0  0  0  0  0  0  0  0  0
    1.5718    1.0921    0.0000 C   0  0  0  0  0  0  0  0  0  0  0  0
    0.1254    0.2509    0.0000 C   0  0  0  0  0  0  0  0  0  0  0  0
    2.4426   -1.4316    0.0000 C   0  0  0  0  0  0  0  0  0  0  0  0
    3.1067   -2.5533    0.0000 C   0  0  0  0  0  0  0  0  0  0  0  0
    2.2654    1.4907    0.0000 C   0  0  0  0  0  0  0  0  0  0  0  0
   -0.5830   -0.1329    0.0000 C   0  0  3  0  0  0  0  0  0  0  0  0
   -3.4462   -0.1476    0.0000 C   0  0  0  0  0  0  0  0  0  0  0  0
   -4.7597   -0.4280    0.0000 C   0  0  0  0  0  0  0  0  0  0  0  0
    1.9113   -2.0367    0.0000 C   0  0  0  0  0  0  0  0  0  0  0  0
    2.2950   -2.7156    0.0000 C   0  0  0  0  0  0  0  0  0  0  0  0
   -2.0146   -0.1181    0.0000 C   0  0  0  0  0  0  0  0  0  0  0  0
   -2.7525    0.2657    0.0000 C   0  0  0  0  0  0  0  0  0  0  0  0
    2.9887    1.0921    0.0000 C   0  0  0  0  0  0  0  0  0  0  0  0
    2.2803    2.3171    0.0000 C   0  0  0  0  0  0  0  0  0  0  0  0
   -3.5495   -0.9594    0.0000 C   0  0  0  0  0  0  0  0  0  0  0  0
    3.6971    2.3171    0.0000 C   0  0  0  0  0  0  0  0  0  0  0  0
    3.6971    1.4907    0.0000 C   0  0  0  0  0  0  0  0  0  0  0  0
    2.9739    2.7156    0.0000 C   0  0  0  0  0  0  0  0  0  0  0  0
   -0.5977   -0.9741    0.0000 C   0  0  0  0  0  0  0  0  0  0  0  0
   -6.0585   -1.0183    0.0000 C   0  0  0  0  0  0  0  0  0  0  0  0
   -5.9257    0.4280    0.0000 C   0  0  0  0  0  0  0  0  0  0  0  0
    5.1434    2.2876    0.0000 C   0  0  0  0  0  0  0  0  0  0  0  0
  1 28  1  0  0  0  0
  1 29  1  0  0  0  0
  2 13  1  0  0  0  0
  2 15  1  0  0  0  0
  3 14  2  0  0  0  0
  4 19  2  0  0  0  0
  5 23  2  0  0  0  0
  6 32  2  0  0  0  0
  7 37  1  0  0  0  0
  7 43  1  0  0  0  0
  8 16  1  0  0  0  0
  8 19  1  0  0  0  0
  9 20  1  0  0  0  0
  9 23  1  0  0  0  0
 10 27  1  0  0  0  0
 10 32  1  0  0  0  0
 11 29  2  0  0  0  0
 11 36  1  0  0  0  0
 12 29  1  0  0  0  0
 12 41  1  0  0  0  0
 12 42  1  0  0  0  0
 13 14  1  0  0  0  0
 13 15  1  0  0  0  0
 13 17  1  0  0  0  0
 14 16  1  0  0  0  0
 16 18  1  0  0  0  0
 18 21  1  0  0  0  0
 19 20  1  0  0  0  0
 20 22  1  0  0  0  0
 21 24  2  0  0  0  0
 21 25  1  0  0  0  0
 22 26  1  0  0  0  0
 23 27  1  0  0  0  0
 24 30  1  0  0  0  0
 25 31  1  0  0  0  0
 26 34  2  0  0  0  0
 26 35  1  0  0  0  0
 27 40  1  0  0  0  0
 28 33  1  0  0  0  0
 28 36  2  0  0  0  0
 30 31  1  0  0  0  0
 32 33  1  0  0  0  0
 34 38  1  0  0  0  0
 35 39  2  0  0  0  0
 37 38  2  0  0  0  0
 37 39  1  0  0  0  0
M  END
> <PUBCHEM_COMPOUND_ID_TYPE>
0

> <PUBCHEM_TOTAL_CHARGE>
0

> <PUBCHEM_SUBSTANCE_ID>
310945905

> <PUBCHEM_SUBSTANCE_VERSION>
1

> <PUBCHEM_EXT_DATASOURCE_NAME>
4488

> <PUBCHEM_EXT_DATASOURCE_REGID>
SCHEMBL16124010

> <PUBCHEM_SUBSTANCE_COMMENT>
InChI=1S/C31H41N5O6S/c1-19(33-26(37)16-23-17-32-30(43-23)36(3)4)28(39)35-25(15-21-10-12-22(41-5)13-11-21)29(40)34-24(14-20-8-6-7-9-20)27(38)31(2)18-42-31/h8,10-13,17,19,24-25H,6-7,9,14-16,18H2,1-5H3,(H,33,37)(H,34,40)(H,35,39)
InChIKey=UPEQBIKDCCCWCC-UHFFFAOYSA-N

> <PUBCHEM_SUBSTANCE_SYNONYM>
SCHEMBL16124010

> <PUBCHEM_XREF_EXT_ID>
SCHEMBL16124010

> <PUBCHEM_EXT_DATASOURCE_URL>
https://www.surechembl.org/

> <PUBCHEM_EXT_SUBSTANCE_URL>
https://www.surechembl.org/chemical/SCHEMBL16124010

> <PUBCHEM_CID_ASSOCIATIONS>
117611889  1

> <PUBCHEM_COORDINATE_TYPE>
1
3

$$$$
