310946560
  -OEChem-07211613022D

 18 17  0     1  0  0  0  0  0999 V2000
   -9.9038   13.3229    0.0000 O   0  0  0  0  0  0  0  0  0  0  0  0
   -8.3673   10.7760    0.0000 O   0  0  0  0  0  0  0  0  0  0  0  0
   -8.8934   14.3334    0.0000 O   0  0  0  0  0  0  0  0  0  0  0  0
   -6.3802   14.1906    0.0000 O   0  0  0  0  0  0  0  0  0  0  0  0
   -7.3569   11.7864    0.0000 O   0  5  0  0  0  0  0  0  0  0  0  0
   -8.7371   12.1562    0.0000 O   0  0  0  0  0  0  0  0  0  0  0  0
   -8.1537   11.5729    0.0000 N   0  3  0  0  0  0  0  0  0  0  0  0
   -7.0946   12.1281    0.0000 N   0  0  0  0  0  0  0  0  0  0  0  0
   -7.0946   12.9531    0.0000 C   0  0  3  0  0  0  0  0  0  0  0  0
   -9.1069   13.5365    0.0000 C   0  0  0  0  0  0  0  0  0  0  0  0
   -7.8091   13.3656    0.0000 C   0  0  0  0  0  0  0  0  0  0  0  0
   -8.5236   12.9531    0.0000 C   0  0  0  0  0  0  0  0  0  0  0  0
   -6.3802   13.3656    0.0000 C   0  0  0  0  0  0  0  0  0  0  0  0
  -10.1174   12.5261    0.0000 C   0  0  0  0  0  0  0  0  0  0  0  0
   -9.5340   11.9427    0.0000 C   0  0  0  0  0  0  0  0  0  0  0  0
   -9.1642   10.5624    0.0000 C   0  0  0  0  0  0  0  0  0  0  0  0
   -9.7475   11.1458    0.0000 C   0  0  0  0  0  0  0  0  0  0  0  0
   -5.6657   12.9531    0.0000 C   0  0  0  0  0  0  0  0  0  0  0  0
  1 10  1  0  0  0  0
  1 14  1  0  0  0  0
  2  7  1  0  0  0  0
  2 16  1  0  0  0  0
  3 10  2  0  0  0  0
  4 13  2  0  0  0  0
  5  7  1  0  0  0  0
  6  7  2  0  0  0  0
  8  9  1  0  0  0  0
  9 11  1  0  0  0  0
  9 13  1  0  0  0  0
 10 12  1  0  0  0  0
 11 12  1  0  0  0  0
 13 18  1  0  0  0  0
 14 15  1  0  0  0  0
 15 17  1  0  0  0  0
 16 17  1  0  0  0  0
M  CHG  2   5  -1   7   1
M  END
> <PUBCHEM_COMPOUND_ID_TYPE>
0

> <PUBCHEM_TOTAL_CHARGE>
0

> <PUBCHEM_SUBSTANCE_ID>
310946560

> <PUBCHEM_SUBSTANCE_VERSION>
1

> <PUBCHEM_EXT_DATASOURCE_NAME>
4488

> <PUBCHEM_EXT_DATASOURCE_REGID>
SCHEMBL16124681

> <PUBCHEM_SUBSTANCE_COMMENT>
InChI=1S/C10H18N2O6/c1-8(13)9(11)4-5-10(14)17-6-2-3-7-18-12(15)16/h9H,2-7,11H2,1H3
InChIKey=LJLUAJNHUURXQS-UHFFFAOYSA-N

> <PUBCHEM_SUBSTANCE_SYNONYM>
SCHEMBL16124681

> <PUBCHEM_XREF_EXT_ID>
SCHEMBL16124681

> <PUBCHEM_EXT_DATASOURCE_URL>
https://www.surechembl.org/

> <PUBCHEM_EXT_SUBSTANCE_URL>
https://www.surechembl.org/chemical/SCHEMBL16124681

> <PUBCHEM_CID_ASSOCIATIONS>
117612462  1

> <PUBCHEM_COORDINATE_TYPE>
1
3

$$$$
