310943846
  -OEChem-07211613022D

 19 21  0     1  0  0  0  0  0999 V2000
   -1.9199   -2.1627    0.0000 Cl  0  0  0  0  0  0  0  0  0  0  0  0
    2.6555    0.0588    0.0000 O   0  0  0  0  0  0  0  0  0  0  0  0
    1.9935    1.3829    0.0000 N   0  0  0  0  0  0  0  0  0  0  0  0
    1.1990    0.2943    0.0000 N   0  0  0  0  0  0  0  0  0  0  0  0
   -0.3899   -1.1769    0.0000 N   0  0  0  0  0  0  0  0  0  0  0  0
   -1.2138   -0.0736    0.0000 C   0  0  0  0  0  0  0  0  0  0  0  0
   -0.4340    0.1912    0.0000 C   0  0  0  0  0  0  0  0  0  0  0  0
    0.6841    0.9857    0.0000 C   0  0  3  0  0  0  0  0  0  0  0  0
   -1.2285   -0.8827    0.0000 C   0  0  0  0  0  0  0  0  0  0  0  0
    1.1696    1.6477    0.0000 C   0  0  0  0  0  0  0  0  0  0  0  0
   -0.1545    0.9857    0.0000 C   0  0  0  0  0  0  0  0  0  0  0  0
    1.9494    0.5885    0.0000 C   0  0  0  0  0  0  0  0  0  0  0  0
   -1.9346   -1.3093    0.0000 C   0  0  0  0  0  0  0  0  0  0  0  0
    0.0809   -0.5002    0.0000 C   0  0  0  0  0  0  0  0  0  0  0  0
   -1.9199    0.3384    0.0000 C   0  0  0  0  0  0  0  0  0  0  0  0
   -2.6555   -0.8975    0.0000 C   0  0  0  0  0  0  0  0  0  0  0  0
   -2.6555   -0.0736    0.0000 C   0  0  0  0  0  0  0  0  0  0  0  0
    1.0078    2.1627    0.0000 C   0  0  0  0  0  0  0  0  0  0  0  0
    2.6555    1.8684    0.0000 C   0  0  0  0  0  0  0  0  0  0  0  0
  1 13  1  0  0  0  0
  2 12  2  0  0  0  0
  3 10  1  0  0  0  0
  3 12  1  0  0  0  0
  3 19  1  0  0  0  0
  4  8  1  0  0  0  0
  4 12  1  0  0  0  0
  5  9  1  0  0  0  0
  5 14  1  0  0  0  0
  6  7  1  0  0  0  0
  6  9  1  0  0  0  0
  6 15  2  0  0  0  0
  7 11  1  0  0  0  0
  7 14  2  0  0  0  0
  8 10  1  0  0  0  0
  8 11  1  0  0  0  0
  9 13  2  0  0  0  0
 10 18  2  0  0  0  0
 13 16  1  0  0  0  0
 15 17  1  0  0  0  0
 16 17  2  0  0  0  0
M  END
> <PUBCHEM_COMPOUND_ID_TYPE>
0

> <PUBCHEM_TOTAL_CHARGE>
0

> <PUBCHEM_SUBSTANCE_ID>
310943846

> <PUBCHEM_SUBSTANCE_VERSION>
1

> <PUBCHEM_EXT_DATASOURCE_NAME>
4488

> <PUBCHEM_EXT_DATASOURCE_REGID>
SCHEMBL16121917

> <PUBCHEM_SUBSTANCE_COMMENT>
InChI=1S/C14H14ClN3O/c1-8-12(17-14(19)18(8)2)6-9-7-16-13-10(9)4-3-5-11(13)15/h3-5,7,12,16H,1,6H2,2H3,(H,17,19)
InChIKey=ACORPDLVJLZCDV-UHFFFAOYSA-N

> <PUBCHEM_SUBSTANCE_SYNONYM>
SCHEMBL16121917

> <PUBCHEM_XREF_EXT_ID>
SCHEMBL16121917

> <PUBCHEM_EXT_DATASOURCE_URL>
https://www.surechembl.org/

> <PUBCHEM_EXT_SUBSTANCE_URL>
https://www.surechembl.org/chemical/SCHEMBL16121917

> <PUBCHEM_CID_ASSOCIATIONS>
117610184  1

> <PUBCHEM_COORDINATE_TYPE>
1
3

$$$$
