310932212
  -OEChem-07211613022D

 20 22  0     1  0  0  0  0  0999 V2000
    4.2850   -2.4768    0.0000 Br  0  0  0  0  0  0  0  0  0  0  0  0
    0.0000   -0.8173    0.0000 O   0  0  0  0  0  0  0  0  0  0  0  0
    0.6935   -2.0558    0.0000 N   0  0  0  0  0  0  0  0  0  0  0  0
    1.4366   -0.8173    0.0000 N   0  0  0  0  0  0  0  0  0  0  0  0
    1.4366   -2.4768    0.0000 C   0  0  3  0  0  0  0  0  0  0  0  0
    2.1549   -2.0558    0.0000 C   0  0  0  0  0  0  0  0  0  0  0  0
    2.1549   -1.2384    0.0000 C   0  0  0  0  0  0  0  0  0  0  0  0
    0.6935   -1.2384    0.0000 C   0  0  0  0  0  0  0  0  0  0  0  0
    1.4366   -3.2942    0.0000 C   0  0  0  0  0  0  0  0  0  0  0  0
    2.8484   -2.4768    0.0000 C   0  0  0  0  0  0  0  0  0  0  0  0
    2.8484   -0.8173    0.0000 C   0  0  0  0  0  0  0  0  0  0  0  0
    3.5667   -2.0558    0.0000 C   0  0  0  0  0  0  0  0  0  0  0  0
    3.5667   -1.2384    0.0000 C   0  0  0  0  0  0  0  0  0  0  0  0
    2.1549   -3.7153    0.0000 C   0  0  0  0  0  0  0  0  0  0  0  0
    0.7183   -3.7153    0.0000 C   0  0  0  0  0  0  0  0  0  0  0  0
    0.0000   -2.4768    0.0000 C   0  0  0  0  0  0  0  0  0  0  0  0
    1.4366    0.0000    0.0000 C   0  0  0  0  0  0  0  0  0  0  0  0
    2.1549   -4.5326    0.0000 C   0  0  0  0  0  0  0  0  0  0  0  0
    0.7183   -4.5326    0.0000 C   0  0  0  0  0  0  0  0  0  0  0  0
    1.4366   -4.9537    0.0000 C   0  0  0  0  0  0  0  0  0  0  0  0
  1 12  1  0  0  0  0
  2  8  2  0  0  0  0
  3  5  1  0  0  0  0
  3  8  1  0  0  0  0
  3 16  1  0  0  0  0
  4  7  1  0  0  0  0
  4  8  1  0  0  0  0
  4 17  1  0  0  0  0
  5  6  1  0  0  0  0
  5  9  1  0  0  0  0
  6  7  2  0  0  0  0
  6 10  1  0  0  0  0
  7 11  1  0  0  0  0
  9 14  2  0  0  0  0
  9 15  1  0  0  0  0
 10 12  2  0  0  0  0
 11 13  2  0  0  0  0
 12 13  1  0  0  0  0
 14 18  1  0  0  0  0
 15 19  2  0  0  0  0
 18 20  2  0  0  0  0
 19 20  1  0  0  0  0
M  END
> <PUBCHEM_COMPOUND_ID_TYPE>
0

> <PUBCHEM_TOTAL_CHARGE>
0

> <PUBCHEM_SUBSTANCE_ID>
310932212

> <PUBCHEM_SUBSTANCE_VERSION>
1

> <PUBCHEM_EXT_DATASOURCE_NAME>
4488

> <PUBCHEM_EXT_DATASOURCE_REGID>
SCHEMBL16109569

> <PUBCHEM_SUBSTANCE_COMMENT>
InChI=1S/C16H15BrN2O/c1-18-14-9-8-12(17)10-13(14)15(19(2)16(18)20)11-6-4-3-5-7-11/h3-10,15H,1-2H3
InChIKey=CWUCKEWFHQLCAL-UHFFFAOYSA-N

> <PUBCHEM_SUBSTANCE_SYNONYM>
SCHEMBL16109569

> <PUBCHEM_XREF_EXT_ID>
SCHEMBL16109569

> <PUBCHEM_EXT_DATASOURCE_URL>
https://www.surechembl.org/

> <PUBCHEM_EXT_SUBSTANCE_URL>
https://www.surechembl.org/chemical/SCHEMBL16109569

> <PUBCHEM_CID_ASSOCIATIONS>
117600799  1

> <PUBCHEM_COORDINATE_TYPE>
1
3

$$$$
