310939654
  -OEChem-07211613022D

 34 37  0     1  0  0  0  0  0999 V2000
    0.7567   -5.3428    0.0000 O   0  0  0  0  0  0  0  0  0  0  0  0
   -2.1482   -2.7954    0.0000 O   0  0  0  0  0  0  0  0  0  0  0  0
   -3.5771   -3.6204    0.0000 O   0  0  0  0  0  0  0  0  0  0  0  0
    0.7096   -3.6204    0.0000 N   0  0  0  0  0  0  0  0  0  0  0  0
    1.4241   -2.3829    0.0000 N   0  0  0  0  0  0  0  0  0  0  0  0
    2.8530   -2.3829    0.0000 N   0  0  0  0  0  0  0  0  0  0  0  0
   -5.0061   -2.7954    0.0000 N   0  0  0  0  0  0  0  0  0  0  0  0
    1.4241   -4.0328    0.0000 C   0  0  0  0  0  0  0  0  0  0  0  0
    1.4241   -4.8578    0.0000 C   0  0  0  0  0  0  0  0  0  0  0  0
    0.7096   -2.7954    0.0000 C   0  0  0  0  0  0  0  0  0  0  0  0
    1.0116   -6.1273    0.0000 C   0  0  0  0  0  0  0  0  0  0  0  0
    1.8365   -6.1273    0.0000 C   0  0  0  0  0  0  0  0  0  0  0  0
    2.1386   -2.7954    0.0000 C   0  0  0  0  0  0  0  0  0  0  0  0
    2.0915   -5.3428    0.0000 C   0  0  0  0  0  0  0  0  0  0  0  0
    2.1386   -3.6204    0.0000 C   0  0  0  0  0  0  0  0  0  0  0  0
   -0.0048   -2.3829    0.0000 C   0  0  0  0  0  0  0  0  0  0  0  0
    0.5991   -6.8418    0.0000 C   0  0  0  0  0  0  0  0  0  0  0  0
    2.2491   -6.8418    0.0000 C   0  0  0  0  0  0  0  0  0  0  0  0
   -0.7193   -2.7954    0.0000 C   0  0  0  0  0  0  0  0  0  0  0  0
   -0.0048   -1.5579    0.0000 C   0  0  0  0  0  0  0  0  0  0  0  0
   -1.4338   -2.3829    0.0000 C   0  0  0  0  0  0  0  0  0  0  0  0
    1.0116   -7.5563    0.0000 C   0  0  0  0  0  0  0  0  0  0  0  0
    1.8365   -7.5563    0.0000 C   0  0  0  0  0  0  0  0  0  0  0  0
   -0.7193   -1.1453    0.0000 C   0  0  0  0  0  0  0  0  0  0  0  0
   -1.4338   -1.5579    0.0000 C   0  0  0  0  0  0  0  0  0  0  0  0
    3.5675   -2.7954    0.0000 C   0  0  0  0  0  0  0  0  0  0  0  0
    2.8530   -1.5579    0.0000 C   0  0  0  0  0  0  0  0  0  0  0  0
    4.2819   -2.3829    0.0000 C   0  0  0  0  0  0  0  0  0  0  0  0
   -2.8627   -2.3829    0.0000 C   0  0  0  0  0  0  0  0  0  0  0  0
   -3.5771   -2.7954    0.0000 C   0  0  3  0  0  0  0  0  0  0  0  0
    4.9964   -2.7954    0.0000 C   0  0  0  0  0  0  0  0  0  0  0  0
   -4.2916   -2.3829    0.0000 C   0  0  0  0  0  0  0  0  0  0  0  0
    5.7109   -3.2078    0.0000 C   0  0  0  0  0  0  0  0  0  0  0  0
   -5.7205   -2.3829    0.0000 C   0  0  0  0  0  0  0  0  0  0  0  0
  1  9  1  0  0  0  0
  1 11  1  0  0  0  0
  2 21  1  0  0  0  0
  2 29  1  0  0  0  0
  3 30  1  0  0  0  0
  4  8  1  0  0  0  0
  4 10  2  0  0  0  0
  5 10  1  0  0  0  0
  5 13  2  0  0  0  0
  6 13  1  0  0  0  0
  6 26  1  0  0  0  0
  6 27  1  0  0  0  0
  7 32  1  0  0  0  0
  7 34  1  0  0  0  0
  8  9  1  0  0  0  0
  8 15  2  0  0  0  0
  9 14  2  0  0  0  0
 10 16  1  0  0  0  0
 11 12  2  0  0  0  0
 11 17  1  0  0  0  0
 12 14  1  0  0  0  0
 12 18  1  0  0  0  0
 13 15  1  0  0  0  0
 16 19  2  0  0  0  0
 16 20  1  0  0  0  0
 17 22  2  0  0  0  0
 18 23  2  0  0  0  0
 19 21  1  0  0  0  0
 20 24  2  0  0  0  0
 21 25  2  0  0  0  0
 22 23  1  0  0  0  0
 24 25  1  0  0  0  0
 26 28  1  0  0  0  0
 28 31  1  0  0  0  0
 29 30  1  0  0  0  0
 30 32  1  0  0  0  0
 31 33  3  0  0  0  0
M  END
> <PUBCHEM_COMPOUND_ID_TYPE>
0

> <PUBCHEM_TOTAL_CHARGE>
0

> <PUBCHEM_SUBSTANCE_ID>
310939654

> <PUBCHEM_SUBSTANCE_VERSION>
1

> <PUBCHEM_EXT_DATASOURCE_NAME>
4488

> <PUBCHEM_EXT_DATASOURCE_REGID>
SCHEMBL16117584

> <PUBCHEM_SUBSTANCE_COMMENT>
InChI=1S/C27H28N4O3/c1-4-5-13-31(3)26-16-23(25-15-19-9-6-7-12-24(19)34-25)29-27(30-26)20-10-8-11-22(14-20)33-18-21(32)17-28-2/h1,6-12,14-16,21,28,32H,5,13,17-18H2,2-3H3
InChIKey=CPBLBZCZZWWANZ-UHFFFAOYSA-N

> <PUBCHEM_SUBSTANCE_SYNONYM>
SCHEMBL16117584

> <PUBCHEM_XREF_EXT_ID>
SCHEMBL16117584

> <PUBCHEM_EXT_DATASOURCE_URL>
https://www.surechembl.org/

> <PUBCHEM_EXT_SUBSTANCE_URL>
https://www.surechembl.org/chemical/SCHEMBL16117584

> <PUBCHEM_CID_ASSOCIATIONS>
117606889  1

> <PUBCHEM_COORDINATE_TYPE>
1
3

$$$$
