310942944
  -OEChem-07211613022D

 29 32  0     1  0  0  0  0  0999 V2000
    6.4435    1.4400    0.0000 O   0  0  0  0  0  0  0  0  0  0  0  0
   -6.4435    0.7200    0.0000 O   0  0  0  0  0  0  0  0  0  0  0  0
    4.7838    0.0000    0.0000 O   0  0  0  0  0  0  0  0  0  0  0  0
   -4.7716   -0.7322    0.0000 O   0  0  0  0  0  0  0  0  0  0  0  0
   -0.2075    0.0000    0.0000 O   0  0  0  0  0  0  0  0  0  0  0  0
   -0.2075   -1.4400    0.0000 O   0  0  0  0  0  0  0  0  0  0  0  0
    6.0408    0.7322    0.0000 C   0  0  3  0  0  0  0  0  0  0  0  0
   -6.0408    0.0122    0.0000 C   0  0  3  0  0  0  0  0  0  0  0  0
    3.9417   -0.0122    0.0000 C   0  0  0  0  0  0  0  0  0  0  0  0
   -3.9417   -0.7322    0.0000 C   0  0  0  0  0  0  0  0  0  0  0  0
    6.8462    0.7200    0.0000 C   0  0  0  0  0  0  0  0  0  0  0  0
   -6.8462    0.0000    0.0000 C   0  0  0  0  0  0  0  0  0  0  0  0
    5.1987    0.7200    0.0000 C   0  0  0  0  0  0  0  0  0  0  0  0
   -5.1865   -0.0122    0.0000 C   0  0  0  0  0  0  0  0  0  0  0  0
    2.2943   -0.0122    0.0000 C   0  0  0  0  0  0  0  0  0  0  0  0
   -2.2943   -0.7200    0.0000 C   0  0  0  0  0  0  0  0  0  0  0  0
    3.5390    0.7078    0.0000 C   0  0  0  0  0  0  0  0  0  0  0  0
    3.5269   -0.7200    0.0000 C   0  0  0  0  0  0  0  0  0  0  0  0
   -3.5269   -1.4400    0.0000 C   0  0  0  0  0  0  0  0  0  0  0  0
   -3.5147   -0.0122    0.0000 C   0  0  0  0  0  0  0  0  0  0  0  0
    2.7092    0.7078    0.0000 C   0  0  0  0  0  0  0  0  0  0  0  0
    2.7092   -0.7200    0.0000 C   0  0  0  0  0  0  0  0  0  0  0  0
   -2.6970   -1.4400    0.0000 C   0  0  0  0  0  0  0  0  0  0  0  0
   -2.6970   -0.0122    0.0000 C   0  0  0  0  0  0  0  0  0  0  0  0
    1.4644    0.0000    0.0000 C   0  0  0  0  0  0  0  0  0  0  0  0
   -1.4644   -0.7322    0.0000 C   0  0  0  0  0  0  0  0  0  0  0  0
    1.0373   -0.7322    0.0000 C   0  0  0  0  0  0  0  0  0  0  0  0
    0.2197   -0.7078    0.0000 C   0  0  0  0  0  0  0  0  0  0  0  0
   -1.0373   -0.0122    0.0000 C   0  0  0  0  0  0  0  0  0  0  0  0
  1  7  1  0  0  0  0
  1 11  1  0  0  0  0
  2  8  1  0  0  0  0
  2 12  1  0  0  0  0
  3  9  1  0  0  0  0
  3 13  1  0  0  0  0
  4 10  1  0  0  0  0
  4 14  1  0  0  0  0
  5 28  1  0  0  0  0
  5 29  1  0  0  0  0
  6 28  2  0  0  0  0
  7 11  1  0  0  0  0
  7 13  1  0  0  0  0
  8 12  1  0  0  0  0
  8 14  1  0  0  0  0
  9 17  2  0  0  0  0
  9 18  1  0  0  0  0
 10 19  2  0  0  0  0
 10 20  1  0  0  0  0
 15 21  2  0  0  0  0
 15 22  1  0  0  0  0
 15 25  1  0  0  0  0
 16 23  2  0  0  0  0
 16 24  1  0  0  0  0
 16 26  1  0  0  0  0
 17 21  1  0  0  0  0
 18 22  2  0  0  0  0
 19 23  1  0  0  0  0
 20 24  2  0  0  0  0
 25 27  2  0  0  0  0
 26 29  1  0  0  0  0
 27 28  1  0  0  0  0
M  END
> <PUBCHEM_COMPOUND_ID_TYPE>
0

> <PUBCHEM_TOTAL_CHARGE>
0

> <PUBCHEM_SUBSTANCE_ID>
310942944

> <PUBCHEM_SUBSTANCE_VERSION>
1

> <PUBCHEM_EXT_DATASOURCE_NAME>
4488

> <PUBCHEM_EXT_DATASOURCE_REGID>
SCHEMBL16121002

> <PUBCHEM_SUBSTANCE_COMMENT>
InChI=1S/C23H24O6/c24-23(10-5-17-1-6-19(7-2-17)26-13-21-15-28-21)25-12-11-18-3-8-20(9-4-18)27-14-22-16-29-22/h1-10,21-22H,11-16H2/b10-5+
InChIKey=JFOSXDYDZBSHPC-BJMVGYQFSA-N

> <PUBCHEM_SUBSTANCE_SYNONYM>
SCHEMBL16121002

> <PUBCHEM_XREF_EXT_ID>
SCHEMBL16121002

> <PUBCHEM_EXT_DATASOURCE_URL>
https://www.surechembl.org/

> <PUBCHEM_EXT_SUBSTANCE_URL>
https://www.surechembl.org/chemical/SCHEMBL16121002

> <PUBCHEM_CID_ASSOCIATIONS>
117609407  1

> <PUBCHEM_COORDINATE_TYPE>
1
3

$$$$
