310929832
  -OEChem-07211613022D

 19 18  0     1  0  0  0  0  0999 V2000
    2.1016   -2.1450    0.0000 S   0  0  0  0  0  0  0  0  0  0  0  0
    2.0799   -2.9899    0.0000 O   0  0  0  0  0  0  0  0  0  0  0  0
    2.1016   -1.3433    0.0000 O   0  0  0  0  0  0  0  0  0  0  0  0
    1.2566   -2.1450    0.0000 C   0  0  3  0  0  0  0  0  0  0  0  0
    2.9033   -2.1666    0.0000 C   0  0  3  0  0  0  0  0  0  0  0  0
    0.8450   -1.4299    0.0000 C   0  0  3  0  0  0  0  0  0  0  0  0
    3.3149   -2.9033    0.0000 C   0  0  3  0  0  0  0  0  0  0  0  0
    0.8450   -2.8599    0.0000 C   0  0  0  0  0  0  0  0  0  0  0  0
    3.3366   -1.4733    0.0000 C   0  0  0  0  0  0  0  0  0  0  0  0
    1.2566   -0.7150    0.0000 C   0  0  0  0  0  0  0  0  0  0  0  0
    2.8816   -3.5966    0.0000 C   0  0  0  0  0  0  0  0  0  0  0  0
    0.0000   -1.4083    0.0000 C   0  0  0  0  0  0  0  0  0  0  0  0
    4.1599   -2.9249    0.0000 C   0  0  0  0  0  0  0  0  0  0  0  0
    0.0217   -2.8599    0.0000 C   0  0  0  0  0  0  0  0  0  0  0  0
    1.2566   -3.5749    0.0000 C   0  0  0  0  0  0  0  0  0  0  0  0
    4.1599   -1.4733    0.0000 C   0  0  0  0  0  0  0  0  0  0  0  0
    2.9249   -0.7366    0.0000 C   0  0  0  0  0  0  0  0  0  0  0  0
    0.8667    0.0000    0.0000 C   0  0  0  0  0  0  0  0  0  0  0  0
    3.2716   -4.3333    0.0000 C   0  0  0  0  0  0  0  0  0  0  0  0
  1  2  2  0  0  0  0
  1  3  2  0  0  0  0
  1  4  1  0  0  0  0
  1  5  1  0  0  0  0
  4  6  1  0  0  0  0
  4  8  1  0  0  0  0
  5  7  1  0  0  0  0
  5  9  1  0  0  0  0
  6 10  1  0  0  0  0
  6 12  1  0  0  0  0
  7 11  1  0  0  0  0
  7 13  1  0  0  0  0
  8 14  1  0  0  0  0
  8 15  1  0  0  0  0
  9 16  1  0  0  0  0
  9 17  1  0  0  0  0
 10 18  1  0  0  0  0
 11 19  1  0  0  0  0
M  END
> <PUBCHEM_COMPOUND_ID_TYPE>
0

> <PUBCHEM_TOTAL_CHARGE>
0

> <PUBCHEM_SUBSTANCE_ID>
310929832

> <PUBCHEM_SUBSTANCE_VERSION>
1

> <PUBCHEM_EXT_DATASOURCE_NAME>
4488

> <PUBCHEM_EXT_DATASOURCE_REGID>
SCHEMBL16107041

> <PUBCHEM_SUBSTANCE_COMMENT>
InChI=1S/C16H34O2S/c1-9-13(7)15(11(3)4)19(17,18)16(12(5)6)14(8)10-2/h11-16H,9-10H2,1-8H3
InChIKey=HQSWYYLPTJZYIO-UHFFFAOYSA-N

> <PUBCHEM_SUBSTANCE_SYNONYM>
SCHEMBL16107041

> <PUBCHEM_XREF_EXT_ID>
SCHEMBL16107041

> <PUBCHEM_EXT_DATASOURCE_URL>
https://www.surechembl.org/

> <PUBCHEM_EXT_SUBSTANCE_URL>
https://www.surechembl.org/chemical/SCHEMBL16107041

> <PUBCHEM_CID_ASSOCIATIONS>
117599104  1

> <PUBCHEM_COORDINATE_TYPE>
1
3

$$$$
