310932421
  -OEChem-07211613022D

 23 25  0     1  0  0  0  0  0999 V2000
    3.3125    0.0000    0.0000 O   0  0  0  0  0  0  0  0  0  0  0  0
    4.4241   -1.9564    0.0000 O   0  0  0  0  0  0  0  0  0  0  0  0
    5.1578   -0.7336    0.0000 O   0  0  0  0  0  0  0  0  0  0  0  0
    3.7127   -0.7336    0.0000 C   0  0  3  0  0  0  0  0  0  0  0  0
    2.8902   -0.7336    0.0000 C   0  0  3  0  0  0  0  0  0  0  0  0
    3.5126   -1.5340    0.0000 C   0  0  0  0  0  0  0  0  0  0  0  0
    4.4241   -1.1338    0.0000 C   0  0  0  0  0  0  0  0  0  0  0  0
    2.1787   -1.1338    0.0000 C   0  0  0  0  0  0  0  0  0  0  0  0
    4.0907   -2.1342    0.0000 C   0  0  0  0  0  0  0  0  0  0  0  0
    2.7123   -1.7563    0.0000 C   0  0  0  0  0  0  0  0  0  0  0  0
    2.1565   -1.9787    0.0000 C   0  0  0  0  0  0  0  0  0  0  0  0
    1.4451   -0.7336    0.0000 C   0  0  0  0  0  0  0  0  0  0  0  0
    3.8683   -2.9124    0.0000 C   0  0  0  0  0  0  0  0  0  0  0  0
    2.4899   -2.5567    0.0000 C   0  0  0  0  0  0  0  0  0  0  0  0
    1.4451   -2.3788    0.0000 C   0  0  0  0  0  0  0  0  0  0  0  0
    0.7336   -1.1338    0.0000 C   0  0  0  0  0  0  0  0  0  0  0  0
    0.7336   -1.9564    0.0000 C   0  0  0  0  0  0  0  0  0  0  0  0
    5.1578   -2.3788    0.0000 C   0  0  0  0  0  0  0  0  0  0  0  0
    3.0680   -3.1347    0.0000 C   0  0  0  0  0  0  0  0  0  0  0  0
    5.1578   -3.2014    0.0000 C   0  0  0  0  0  0  0  0  0  0  0  0
    0.0000   -2.3788    0.0000 C   0  0  0  0  0  0  0  0  0  0  0  0
    5.8692   -3.6238    0.0000 C   0  0  0  0  0  0  0  0  0  0  0  0
    5.8914   -4.4464    0.0000 C   0  0  0  0  0  0  0  0  0  0  0  0
  1  4  1  0  0  0  0
  1  5  1  0  0  0  0
  2  7  1  0  0  0  0
  2 18  1  0  0  0  0
  3  7  2  0  0  0  0
  4  5  1  0  0  0  0
  4  6  1  0  0  0  0
  4  7  1  0  0  0  0
  5  8  1  0  0  0  0
  6  9  2  0  0  0  0
  6 10  1  0  0  0  0
  8 11  2  0  0  0  0
  8 12  1  0  0  0  0
  9 13  1  0  0  0  0
 10 14  2  0  0  0  0
 11 15  1  0  0  0  0
 12 16  2  0  0  0  0
 13 19  2  0  0  0  0
 14 19  1  0  0  0  0
 15 17  2  0  0  0  0
 16 17  1  0  0  0  0
 17 21  1  0  0  0  0
 18 20  1  0  0  0  0
 20 22  1  0  0  0  0
 22 23  1  0  0  0  0
M  END
> <PUBCHEM_COMPOUND_ID_TYPE>
0

> <PUBCHEM_TOTAL_CHARGE>
0

> <PUBCHEM_SUBSTANCE_ID>
310932421

> <PUBCHEM_SUBSTANCE_VERSION>
1

> <PUBCHEM_EXT_DATASOURCE_NAME>
4488

> <PUBCHEM_EXT_DATASOURCE_REGID>
SCHEMBL16109789

> <PUBCHEM_SUBSTANCE_COMMENT>
InChI=1S/C20H22O3/c1-3-4-14-22-19(21)20(17-8-6-5-7-9-17)18(23-20)16-12-10-15(2)11-13-16/h5-13,18H,3-4,14H2,1-2H3
InChIKey=LWCFRIMCAZTFOB-UHFFFAOYSA-N

> <PUBCHEM_SUBSTANCE_SYNONYM>
SCHEMBL16109789

> <PUBCHEM_XREF_EXT_ID>
SCHEMBL16109789

> <PUBCHEM_EXT_DATASOURCE_URL>
https://www.surechembl.org/

> <PUBCHEM_EXT_SUBSTANCE_URL>
https://www.surechembl.org/chemical/SCHEMBL16109789

> <PUBCHEM_CID_ASSOCIATIONS>
117600974  1

> <PUBCHEM_COORDINATE_TYPE>
1
3

$$$$
