310946803
  -OEChem-07211613022D

 19 20  0     1  0  0  0  0  0999 V2000
   -1.8395    9.3604    0.0000 N   0  0  0  0  0  0  0  0  0  0  0  0
   -2.1109    6.5612    0.0000 N   0  0  0  0  0  0  0  0  0  0  0  0
   -2.6241    9.1055    0.0000 N   0  0  0  0  0  0  0  0  0  0  0  0
   -1.6260    5.8938    0.0000 N   0  0  0  0  0  0  0  0  0  0  0  0
    0.5876    6.9737    0.0000 N   0  0  3  0  0  0  0  0  0  0  0  0
   -1.6260    7.2287    0.0000 C   0  0  0  0  0  0  0  0  0  0  0  0
   -1.8395    8.0255    0.0000 C   0  0  0  0  0  0  0  0  0  0  0  0
   -0.8414    6.9737    0.0000 C   0  0  0  0  0  0  0  0  0  0  0  0
   -1.3546    8.6930    0.0000 C   0  0  0  0  0  0  0  0  0  0  0  0
   -2.6241    8.2805    0.0000 C   0  0  0  0  0  0  0  0  0  0  0  0
   -0.8414    6.1487    0.0000 C   0  0  0  0  0  0  0  0  0  0  0  0
   -0.1269    7.3862    0.0000 C   0  0  0  0  0  0  0  0  0  0  0  0
   -1.6260   10.1573    0.0000 C   0  0  0  0  0  0  0  0  0  0  0  0
    1.3021    7.3862    0.0000 C   0  0  0  0  0  0  0  0  0  0  0  0
   -2.2093   10.7407    0.0000 C   0  0  0  0  0  0  0  0  0  0  0  0
   -0.8291   10.3708    0.0000 C   0  0  0  0  0  0  0  0  0  0  0  0
    0.5876    6.1487    0.0000 C   0  0  0  0  0  0  0  0  0  0  0  0
    2.0165    6.9737    0.0000 C   0  0  0  0  0  0  0  0  0  0  0  0
    2.7310    7.3862    0.0000 C   0  0  0  0  0  0  0  0  0  0  0  0
  1  3  1  0  0  0  0
  1  9  1  0  0  0  0
  1 13  1  0  0  0  0
  2  4  1  0  0  0  0
  2  6  2  0  0  0  0
  3 10  2  0  0  0  0
  4 11  1  0  0  0  0
  5 12  1  0  0  0  0
  5 14  1  0  0  0  0
  5 17  1  0  0  0  0
  6  7  1  0  0  0  0
  6  8  1  0  0  0  0
  7  9  2  0  0  0  0
  7 10  1  0  0  0  0
  8 11  2  0  0  0  0
  8 12  1  0  0  0  0
 13 15  1  0  0  0  0
 13 16  1  0  0  0  0
 14 18  1  0  0  0  0
 18 19  1  0  0  0  0
M  END
> <PUBCHEM_COMPOUND_ID_TYPE>
0

> <PUBCHEM_TOTAL_CHARGE>
0

> <PUBCHEM_SUBSTANCE_ID>
310946803

> <PUBCHEM_SUBSTANCE_VERSION>
1

> <PUBCHEM_EXT_DATASOURCE_NAME>
4488

> <PUBCHEM_EXT_DATASOURCE_REGID>
SCHEMBL16124927

> <PUBCHEM_SUBSTANCE_COMMENT>
InChI=1S/C14H23N5/c1-5-6-18(4)9-12-7-15-17-14(12)13-8-16-19(10-13)11(2)3/h7-8,10-11H,5-6,9H2,1-4H3,(H,15,17)
InChIKey=CRLAZILDPBGMED-UHFFFAOYSA-N

> <PUBCHEM_SUBSTANCE_SYNONYM>
SCHEMBL16124927

> <PUBCHEM_XREF_EXT_ID>
SCHEMBL16124927

> <PUBCHEM_EXT_DATASOURCE_URL>
https://www.surechembl.org/

> <PUBCHEM_EXT_SUBSTANCE_URL>
https://www.surechembl.org/chemical/SCHEMBL16124927

> <PUBCHEM_CID_ASSOCIATIONS>
117612664  1

> <PUBCHEM_COORDINATE_TYPE>
1
3

$$$$
