310934853
  -OEChem-07211613022D

 23 25  0     1  0  0  0  0  0999 V2000
    0.0000   -2.8859    0.0000 Cl  0  0  0  0  0  0  0  0  0  0  0  0
    6.4714   -0.6559    0.0000 F   0  0  0  0  0  0  0  0  0  0  0  0
    5.2908   -2.9077    0.0000 O   0  0  0  0  0  0  0  0  0  0  0  0
    5.2908   -1.4866    0.0000 O   0  0  0  0  0  0  0  0  0  0  0  0
    1.5522   -4.3725    0.0000 N   0  0  0  0  0  0  0  0  0  0  0  0
    4.0883   -2.1863    0.0000 C   0  0  3  0  0  0  0  0  0  0  0  0
    4.4600   -1.4648    0.0000 C   0  0  0  0  0  0  0  0  0  0  0  0
    3.6074   -2.8640    0.0000 C   0  0  0  0  0  0  0  0  0  0  0  0
    2.8203   -2.6017    0.0000 C   0  0  0  0  0  0  0  0  0  0  0  0
    3.6074   -1.5304    0.0000 C   0  0  0  0  0  0  0  0  0  0  0  0
    4.8972   -2.1863    0.0000 C   0  0  0  0  0  0  0  0  0  0  0  0
    5.4438   -1.5960    0.0000 C   0  0  0  0  0  0  0  0  0  0  0  0
    2.8203   -1.7927    0.0000 C   0  0  0  0  0  0  0  0  0  0  0  0
    2.1644   -3.0826    0.0000 C   0  0  0  0  0  0  0  0  0  0  0  0
    4.0227   -0.7652    0.0000 C   0  0  0  0  0  0  0  0  0  0  0  0
    5.6406   -0.6996    0.0000 C   0  0  0  0  0  0  0  0  0  0  0  0
    1.3992   -2.7547    0.0000 C   0  0  0  0  0  0  0  0  0  0  0  0
    4.3725   -0.0437    0.0000 C   0  0  0  0  0  0  0  0  0  0  0  0
    5.2033    0.0000    0.0000 C   0  0  0  0  0  0  0  0  0  0  0  0
    2.2081   -3.9134    0.0000 C   0  0  0  0  0  0  0  0  0  0  0  0
    5.7280   -2.0988    0.0000 C   0  0  0  0  0  0  0  0  0  0  0  0
    0.7434   -3.2357    0.0000 C   0  0  0  0  0  0  0  0  0  0  0  0
    0.7871   -4.0664    0.0000 C   0  0  0  0  0  0  0  0  0  0  0  0
  1 22  1  0  0  0  0
  2 16  1  0  0  0  0
  3 11  2  0  0  0  0
  4 11  1  0  0  0  0
  5 20  1  0  0  0  0
  5 23  2  0  0  0  0
  6  7  1  0  0  0  0
  6  8  1  0  0  0  0
  6 10  1  0  0  0  0
  6 11  1  0  0  0  0
  7 12  1  0  0  0  0
  7 15  2  0  0  0  0
  8  9  2  0  0  0  0
  9 13  1  0  0  0  0
  9 14  1  0  0  0  0
 10 13  1  0  0  0  0
 12 16  2  0  0  0  0
 12 21  1  0  0  0  0
 14 17  1  0  0  0  0
 14 20  2  0  0  0  0
 15 18  1  0  0  0  0
 16 19  1  0  0  0  0
 17 22  2  0  0  0  0
 18 19  2  0  0  0  0
 22 23  1  0  0  0  0
M  END
> <PUBCHEM_COMPOUND_ID_TYPE>
0

> <PUBCHEM_TOTAL_CHARGE>
0

> <PUBCHEM_SUBSTANCE_ID>
310934853

> <PUBCHEM_SUBSTANCE_VERSION>
1

> <PUBCHEM_EXT_DATASOURCE_NAME>
4488

> <PUBCHEM_EXT_DATASOURCE_REGID>
SCHEMBL16112362

> <PUBCHEM_SUBSTANCE_COMMENT>
InChI=1S/C18H15ClFNO2/c1-11-15(3-2-4-16(11)20)18(17(22)23)6-5-12(8-18)13-7-14(19)10-21-9-13/h2-4,7-10H,5-6H2,1H3,(H,22,23)
InChIKey=LYHNNEQOJPFVFB-UHFFFAOYSA-N

> <PUBCHEM_SUBSTANCE_SYNONYM>
SCHEMBL16112362

> <PUBCHEM_XREF_EXT_ID>
SCHEMBL16112362

> <PUBCHEM_EXT_DATASOURCE_URL>
https://www.surechembl.org/

> <PUBCHEM_EXT_SUBSTANCE_URL>
https://www.surechembl.org/chemical/SCHEMBL16112362

> <PUBCHEM_CID_ASSOCIATIONS>
117602989  1

> <PUBCHEM_COORDINATE_TYPE>
1
3

$$$$
