310939011
  -OEChem-07211613022D

 14 16  0     1  0  0  0  0  0999 V2000
   -0.6348    1.6500    0.0000 O   0  0  0  0  0  0  0  0  0  0  0  0
    0.0797   -1.2375    0.0000 N   0  0  0  0  0  0  0  0  0  0  0  0
    0.0797    0.4125    0.0000 C   0  0  3  0  0  0  0  0  0  0  0  0
    0.0797   -0.4125    0.0000 C   0  0  3  0  0  0  0  0  0  0  0  0
   -0.6348    0.8249    0.0000 C   0  0  3  0  0  0  0  0  0  0  0  0
   -0.6348   -0.8249    0.0000 C   0  0  3  0  0  0  0  0  0  0  0  0
   -0.4121    0.0059    0.0000 C   0  0  0  0  0  0  0  0  0  0  0  0
    0.8643    0.6675    0.0000 C   0  0  0  0  0  0  0  0  0  0  0  0
    0.8643   -0.6675    0.0000 C   0  0  0  0  0  0  0  0  0  0  0  0
   -1.3492    0.4125    0.0000 C   0  0  0  0  0  0  0  0  0  0  0  0
   -1.3492   -0.4125    0.0000 C   0  0  0  0  0  0  0  0  0  0  0  0
    0.0797    1.2375    0.0000 C   0  0  0  0  0  0  0  0  0  0  0  0
    1.3492    0.0000    0.0000 C   0  0  0  0  0  0  0  0  0  0  0  0
   -0.6348   -1.6500    0.0000 C   0  0  0  0  0  0  0  0  0  0  0  0
  1 12  1  0  0  0  0
  2  4  1  0  0  0  0
  2 14  1  0  0  0  0
  3  4  1  0  0  0  0
  3  5  1  0  0  0  0
  3  8  1  0  0  0  0
  3 12  1  0  0  0  0
  4  6  1  0  0  0  0
  4  9  1  0  0  0  0
  5  7  1  0  0  0  0
  5 10  1  0  0  0  0
  6  7  1  0  0  0  0
  6 11  1  0  0  0  0
  8 13  1  0  0  0  0
  9 13  1  0  0  0  0
 10 11  1  0  0  0  0
M  END
> <PUBCHEM_COMPOUND_ID_TYPE>
0

> <PUBCHEM_TOTAL_CHARGE>
0

> <PUBCHEM_SUBSTANCE_ID>
310939011

> <PUBCHEM_SUBSTANCE_VERSION>
1

> <PUBCHEM_EXT_DATASOURCE_NAME>
4488

> <PUBCHEM_EXT_DATASOURCE_REGID>
SCHEMBL16116930

> <PUBCHEM_SUBSTANCE_COMMENT>
InChI=1S/C12H21NO/c1-13-12-6-2-5-11(12,8-14)9-3-4-10(12)7-9/h9-10,13-14H,2-8H2,1H3
InChIKey=WZMPLKIISSYYBI-UHFFFAOYSA-N

> <PUBCHEM_SUBSTANCE_SYNONYM>
SCHEMBL16116930

> <PUBCHEM_XREF_EXT_ID>
SCHEMBL16116930

> <PUBCHEM_EXT_DATASOURCE_URL>
https://www.surechembl.org/

> <PUBCHEM_EXT_SUBSTANCE_URL>
https://www.surechembl.org/chemical/SCHEMBL16116930

> <PUBCHEM_CID_ASSOCIATIONS>
117606395  1

> <PUBCHEM_COORDINATE_TYPE>
1
3

$$$$
