310931372
  -OEChem-07211613022D

 18 19  0     1  0  0  0  0  0999 V2000
    3.2773    0.0000    0.0000 O   0  0  0  0  0  0  0  0  0  0  0  0
    4.3826   -1.9586    0.0000 O   0  0  0  0  0  0  0  0  0  0  0  0
    5.1002   -0.7175    0.0000 O   0  0  0  0  0  0  0  0  0  0  0  0
    3.6845   -0.7175    0.0000 C   0  0  3  0  0  0  0  0  0  0  0  0
    2.8701   -0.7175    0.0000 C   0  0  3  0  0  0  0  0  0  0  0  0
    4.3826   -1.1247    0.0000 C   0  0  0  0  0  0  0  0  0  0  0  0
    2.1525   -1.1247    0.0000 C   0  0  0  0  0  0  0  0  0  0  0  0
    3.4712   -1.5126    0.0000 C   0  0  0  0  0  0  0  0  0  0  0  0
    2.1332   -1.9586    0.0000 C   0  0  0  0  0  0  0  0  0  0  0  0
    1.4350   -0.7369    0.0000 C   0  0  0  0  0  0  0  0  0  0  0  0
    5.1002   -2.3658    0.0000 C   0  0  0  0  0  0  0  0  0  0  0  0
    1.4350   -2.3658    0.0000 C   0  0  0  0  0  0  0  0  0  0  0  0
    0.7175   -1.1247    0.0000 C   0  0  0  0  0  0  0  0  0  0  0  0
    0.7175   -1.9586    0.0000 C   0  0  0  0  0  0  0  0  0  0  0  0
    4.6929   -3.0834    0.0000 C   0  0  0  0  0  0  0  0  0  0  0  0
    5.8176   -2.7731    0.0000 C   0  0  0  0  0  0  0  0  0  0  0  0
    5.5074   -1.6677    0.0000 C   0  0  0  0  0  0  0  0  0  0  0  0
    0.0000   -2.3658    0.0000 C   0  0  0  0  0  0  0  0  0  0  0  0
  1  4  1  0  0  0  0
  1  5  1  0  0  0  0
  2  6  1  0  0  0  0
  2 11  1  0  0  0  0
  3  6  2  0  0  0  0
  4  5  1  0  0  0  0
  4  6  1  0  0  0  0
  4  8  1  0  0  0  0
  5  7  1  0  0  0  0
  7  9  2  0  0  0  0
  7 10  1  0  0  0  0
  9 12  1  0  0  0  0
 10 13  2  0  0  0  0
 11 15  1  0  0  0  0
 11 16  1  0  0  0  0
 11 17  1  0  0  0  0
 12 14  2  0  0  0  0
 13 14  1  0  0  0  0
 14 18  1  0  0  0  0
M  END
> <PUBCHEM_COMPOUND_ID_TYPE>
0

> <PUBCHEM_TOTAL_CHARGE>
0

> <PUBCHEM_SUBSTANCE_ID>
310931372

> <PUBCHEM_SUBSTANCE_VERSION>
1

> <PUBCHEM_EXT_DATASOURCE_NAME>
4488

> <PUBCHEM_EXT_DATASOURCE_REGID>
SCHEMBL16108695

> <PUBCHEM_SUBSTANCE_COMMENT>
InChI=1S/C15H20O3/c1-10-6-8-11(9-7-10)12-15(5,17-12)13(16)18-14(2,3)4/h6-9,12H,1-5H3
InChIKey=IULZXEPRRDMGTA-UHFFFAOYSA-N

> <PUBCHEM_SUBSTANCE_SYNONYM>
SCHEMBL16108695

> <PUBCHEM_XREF_EXT_ID>
SCHEMBL16108695

> <PUBCHEM_EXT_DATASOURCE_URL>
https://www.surechembl.org/

> <PUBCHEM_EXT_SUBSTANCE_URL>
https://www.surechembl.org/chemical/SCHEMBL16108695

> <PUBCHEM_CID_ASSOCIATIONS>
117600169  1

> <PUBCHEM_COORDINATE_TYPE>
1
3

$$$$
