310932860
  -OEChem-07211613022D

 47 53  0     1  0  0  0  0  0999 V2000
    1.4301   -0.8801    0.0000 Cl  0  0  0  0  0  0  0  0  0  0  0  0
    2.4202   -2.2002    0.0000 F   0  0  0  0  0  0  0  0  0  0  0  0
    1.4301   -6.1054    0.0000 O   0  0  0  0  0  0  0  0  0  0  0  0
    4.2353   -4.5103    0.0000 O   0  0  0  0  0  0  0  0  0  0  0  0
    4.8953  -10.5607    0.0000 O   0  0  0  0  0  0  0  0  0  0  0  0
    2.8051   -6.1054    0.0000 N   0  0  0  0  0  0  0  0  0  0  0  0
    4.8953   -8.1405    0.0000 N   0  0  0  0  0  0  0  0  0  0  0  0
    1.7051   -3.6852    0.0000 N   0  0  0  0  0  0  0  0  0  0  0  0
    2.9702   -4.6203    0.0000 N   0  0  0  0  0  0  0  0  0  0  0  0
    2.8602   -4.5103    0.0000 N   0  0  0  0  0  0  0  0  0  0  0  0
    2.5301   -3.6852    0.0000 N   0  0  0  0  0  0  0  0  0  0  0  0
    3.5202   -0.7701    0.0000 N   0  0  0  0  0  0  0  0  0  0  0  0
    2.2002   -0.7701    0.0000 N   0  0  0  0  0  0  0  0  0  0  0  0
    3.5202   -5.7204    0.0000 C   0  0  3  0  0  0  0  0  0  0  0  0
    4.2353   -6.1054    0.0000 C   0  0  0  0  0  0  0  0  0  0  0  0
    4.2353   -6.9305    0.0000 C   0  0  0  0  0  0  0  0  0  0  0  0
    4.9503   -7.3704    0.0000 C   0  0  0  0  0  0  0  0  0  0  0  0
    2.1452   -5.7204    0.0000 C   0  0  0  0  0  0  0  0  0  0  0  0
    3.5202   -4.8953    0.0000 C   0  0  0  0  0  0  0  0  0  0  0  0
    2.1452   -4.8953    0.0000 C   0  0  0  0  0  0  0  0  0  0  0  0
    2.8051   -6.9305    0.0000 C   0  0  0  0  0  0  0  0  0  0  0  0
    3.5202   -7.3704    0.0000 C   0  0  0  0  0  0  0  0  0  0  0  0
    4.9503   -5.7204    0.0000 C   0  0  0  0  0  0  0  0  0  0  0  0
    5.6104   -6.9305    0.0000 C   0  0  0  0  0  0  0  0  0  0  0  0
    1.4851   -4.4553    0.0000 C   0  0  0  0  0  0  0  0  0  0  0  0
    5.6104   -6.1054    0.0000 C   0  0  0  0  0  0  0  0  0  0  0  0
    1.2651   -3.0252    0.0000 C   0  0  0  0  0  0  0  0  0  0  0  0
    1.5951   -2.2552    0.0000 C   0  0  0  0  0  0  0  0  0  0  0  0
    2.8602   -3.6852    0.0000 C   0  0  0  0  0  0  0  0  0  0  0  0
    5.6104   -8.5805    0.0000 C   0  0  0  0  0  0  0  0  0  0  0  0
    4.2353   -8.5255    0.0000 C   0  0  0  0  0  0  0  0  0  0  0  0
    0.4400   -3.0802    0.0000 C   0  0  0  0  0  0  0  0  0  0  0  0
    1.1001   -1.5951    0.0000 C   0  0  0  0  0  0  0  0  0  0  0  0
    5.6104   -9.3506    0.0000 C   0  0  0  0  0  0  0  0  0  0  0  0
    4.2353   -9.3506    0.0000 C   0  0  0  0  0  0  0  0  0  0  0  0
    4.8953   -9.7906    0.0000 C   0  0  0  0  0  0  0  0  0  0  0  0
    2.1452   -3.3002    0.0000 C   0  0  0  0  0  0  0  0  0  0  0  0
    3.5202   -3.3002    0.0000 C   0  0  0  0  0  0  0  0  0  0  0  0
    0.0000   -2.4202    0.0000 C   0  0  0  0  0  0  0  0  0  0  0  0
    0.3300   -1.7051    0.0000 C   0  0  0  0  0  0  0  0  0  0  0  0
    2.8602   -2.0902    0.0000 C   0  0  0  0  0  0  0  0  0  0  0  0
    2.1452   -2.4751    0.0000 C   0  0  0  0  0  0  0  0  0  0  0  0
    3.5202   -2.4751    0.0000 C   0  0  0  0  0  0  0  0  0  0  0  0
    2.8602   -1.2651    0.0000 C   0  0  0  0  0  0  0  0  0  0  0  0
    3.2452    0.0000    0.0000 C   0  0  0  0  0  0  0  0  0  0  0  0
    2.4202    0.0000    0.0000 C   0  0  0  0  0  0  0  0  0  0  0  0
    5.6104  -11.0007    0.0000 C   0  0  0  0  0  0  0  0  0  0  0  0
  1 33  1  0  0  0  0
  2 28  1  0  0  0  0
  3 18  2  0  0  0  0
  4 19  2  0  0  0  0
  5 36  1  0  0  0  0
  5 47  1  0  0  0  0
  6 14  1  0  0  0  0
  6 18  1  0  0  0  0
  6 21  1  0  0  0  0
  7 17  1  0  0  0  0
  7 30  1  0  0  0  0
  7 31  1  0  0  0  0
  8 11  1  0  0  0  0
  8 25  1  0  0  0  0
  8 27  1  0  0  0  0
  9 11  2  0  0  0  0
  9 20  1  0  0  0  0
 10 19  1  0  0  0  0
 10 29  1  0  0  0  0
 12 44  2  0  0  0  0
 12 45  1  0  0  0  0
 13 44  1  0  0  0  0
 13 46  1  0  0  0  0
 14 15  1  0  0  0  0
 14 19  1  0  0  0  0
 15 16  2  0  0  0  0
 15 23  1  0  0  0  0
 16 17  1  0  0  0  0
 16 22  1  0  0  0  0
 17 24  2  0  0  0  0
 18 20  1  0  0  0  0
 20 25  2  0  0  0  0
 21 22  1  0  0  0  0
 23 26  2  0  0  0  0
 24 26  1  0  0  0  0
 27 28  1  0  0  0  0
 27 32  2  0  0  0  0
 28 33  2  0  0  0  0
 29 37  2  0  0  0  0
 29 38  1  0  0  0  0
 30 34  1  0  0  0  0
 31 35  1  0  0  0  0
 32 39  1  0  0  0  0
 33 40  1  0  0  0  0
 34 36  1  0  0  0  0
 35 36  1  0  0  0  0
 37 42  1  0  0  0  0
 38 43  2  0  0  0  0
 39 40  2  0  0  0  0
 41 42  2  0  0  0  0
 41 43  1  0  0  0  0
 41 44  1  0  0  0  0
 45 46  2  0  0  0  0
M  END
> <PUBCHEM_COMPOUND_ID_TYPE>
0

> <PUBCHEM_TOTAL_CHARGE>
0

> <PUBCHEM_SUBSTANCE_ID>
310932860

> <PUBCHEM_SUBSTANCE_VERSION>
1

> <PUBCHEM_EXT_DATASOURCE_NAME>
4488

> <PUBCHEM_EXT_DATASOURCE_REGID>
SCHEMBL16110252

> <PUBCHEM_SUBSTANCE_COMMENT>
InChI=1S/C34H32ClFN8O3/c1-47-23-12-17-42(18-13-23)28-6-2-4-25-24(28)14-19-43(34(46)27-20-44(41-40-27)29-7-3-5-26(35)30(29)36)31(25)33(45)39-22-10-8-21(9-11-22)32-37-15-16-38-32/h2-11,15-16,20,23,31H,12-14,17-19H2,1H3,(H,37,38)(H,39,45)
InChIKey=LEQQQSNBCVUNHC-UHFFFAOYSA-N

> <PUBCHEM_SUBSTANCE_SYNONYM>
SCHEMBL16110252

> <PUBCHEM_XREF_EXT_ID>
SCHEMBL16110252

> <PUBCHEM_EXT_DATASOURCE_URL>
https://www.surechembl.org/

> <PUBCHEM_EXT_SUBSTANCE_URL>
https://www.surechembl.org/chemical/SCHEMBL16110252

> <PUBCHEM_CID_ASSOCIATIONS>
117601344  1

> <PUBCHEM_COORDINATE_TYPE>
1
3

$$$$
