310943702
  -OEChem-07211613022D

 31 33  0     1  0  0  0  0  0999 V2000
   -0.1672   -2.7654    0.0000 O   0  0  0  0  0  0  0  0  0  0  0  0
    3.4829    2.5425    0.0000 O   0  0  0  0  0  0  0  0  0  0  0  0
    3.3436    1.1075    0.0000 O   0  0  0  0  0  0  0  0  0  0  0  0
   -1.0170   -1.6370    0.0000 N   0  0  0  0  0  0  0  0  0  0  0  0
   -1.7414   -1.2190    0.0000 N   0  0  0  0  0  0  0  0  0  0  0  0
    0.4876    0.4110    0.0000 N   0  0  3  0  0  0  0  0  0  0  0  0
    2.1316    1.8459    0.0000 N   0  0  0  0  0  0  0  0  0  0  0  0
   -1.5743   -0.3692    0.0000 C   0  0  0  0  0  0  0  0  0  0  0  0
   -0.7523   -0.2995    0.0000 C   0  0  0  0  0  0  0  0  0  0  0  0
   -2.1176    0.2299    0.0000 C   0  0  0  0  0  0  0  0  0  0  0  0
   -0.4180   -1.0657    0.0000 C   0  0  0  0  0  0  0  0  0  0  0  0
   -0.9474   -2.4450    0.0000 C   0  0  3  0  0  0  0  0  0  0  0  0
   -0.3344    0.4110    0.0000 C   0  0  0  0  0  0  0  0  0  0  0  0
   -1.8668    1.0240    0.0000 C   0  0  0  0  0  0  0  0  0  0  0  0
   -2.9396    0.0627    0.0000 C   0  0  0  0  0  0  0  0  0  0  0  0
   -1.5743   -2.9465    0.0000 C   0  0  0  0  0  0  0  0  0  0  0  0
   -2.4102    1.6370    0.0000 C   0  0  0  0  0  0  0  0  0  0  0  0
   -3.4690    0.6757    0.0000 C   0  0  0  0  0  0  0  0  0  0  0  0
   -3.2182    1.4698    0.0000 C   0  0  3  0  0  0  0  0  0  0  0  0
   -0.0558   -3.5735    0.0000 C   0  0  0  0  0  0  0  0  0  0  0  0
   -1.4628   -3.7685    0.0000 C   0  0  0  0  0  0  0  0  0  0  0  0
    0.9056    1.1494    0.0000 C   0  0  0  0  0  0  0  0  0  0  0  0
   -0.6826   -4.0750    0.0000 C   0  0  0  0  0  0  0  0  0  0  0  0
    0.9056   -0.3135    0.0000 C   0  0  0  0  0  0  0  0  0  0  0  0
    1.7275    1.1354    0.0000 C   0  0  0  0  0  0  0  0  0  0  0  0
   -3.8033    2.0827    0.0000 C   0  0  0  0  0  0  0  0  0  0  0  0
    3.1346    3.3226    0.0000 C   0  0  0  0  0  0  0  0  0  0  0  0
    2.9814    1.8459    0.0000 C   0  0  0  0  0  0  0  0  0  0  0  0
    3.8033    3.6849    0.0000 C   0  0  0  0  0  0  0  0  0  0  0  0
    2.4380    2.9744    0.0000 C   0  0  0  0  0  0  0  0  0  0  0  0
    2.7584    4.0750    0.0000 C   0  0  0  0  0  0  0  0  0  0  0  0
  1 12  1  0  0  0  0
  1 20  1  0  0  0  0
  2 27  1  0  0  0  0
  2 28  1  0  0  0  0
  3 28  2  0  0  0  0
  4  5  1  0  0  0  0
  4 11  1  0  0  0  0
  4 12  1  0  0  0  0
  5  8  2  0  0  0  0
  6 13  1  0  0  0  0
  6 22  1  0  0  0  0
  6 24  1  0  0  0  0
  7 25  1  0  0  0  0
  7 28  1  0  0  0  0
  8  9  1  0  0  0  0
  8 10  1  0  0  0  0
  9 11  2  0  0  0  0
  9 13  1  0  0  0  0
 10 14  2  0  0  0  0
 10 15  1  0  0  0  0
 12 16  1  0  0  0  0
 14 17  1  0  0  0  0
 15 18  1  0  0  0  0
 16 21  1  0  0  0  0
 17 19  1  0  0  0  0
 18 19  1  0  0  0  0
 19 26  1  0  0  0  0
 20 23  1  0  0  0  0
 21 23  1  0  0  0  0
 22 25  1  0  0  0  0
 27 29  1  0  0  0  0
 27 30  1  0  0  0  0
 27 31  1  0  0  0  0
M  END
> <PUBCHEM_COMPOUND_ID_TYPE>
0

> <PUBCHEM_TOTAL_CHARGE>
0

> <PUBCHEM_SUBSTANCE_ID>
310943702

> <PUBCHEM_SUBSTANCE_VERSION>
1

> <PUBCHEM_EXT_DATASOURCE_NAME>
4488

> <PUBCHEM_EXT_DATASOURCE_REGID>
SCHEMBL16121770

> <PUBCHEM_SUBSTANCE_COMMENT>
InChI=1S/C24H40N4O3/c1-18-9-11-19(12-10-18)22-20(17-28(26-22)21-8-6-7-15-30-21)16-27(5)14-13-25-23(29)31-24(2,3)4/h11,17-18,21H,6-10,12-16H2,1-5H3,(H,25,29)
InChIKey=JWFYLBCWUHJOND-UHFFFAOYSA-N

> <PUBCHEM_SUBSTANCE_SYNONYM>
SCHEMBL16121770

> <PUBCHEM_XREF_EXT_ID>
SCHEMBL16121770

> <PUBCHEM_EXT_DATASOURCE_URL>
https://www.surechembl.org/

> <PUBCHEM_EXT_SUBSTANCE_URL>
https://www.surechembl.org/chemical/SCHEMBL16121770

> <PUBCHEM_CID_ASSOCIATIONS>
117610087  1

> <PUBCHEM_COORDINATE_TYPE>
1
3

$$$$
