310937356
  -OEChem-07211613022D

  9  9  0     1  0  0  0  0  0999 V2000
    2.9076   -1.4217    0.0000 O   0  0  0  0  0  0  0  0  0  0  0  0
    1.2400    0.0000    0.0000 N   0  0  0  0  0  0  0  0  0  0  0  0
    1.6569   -0.7269    0.0000 C   0  0  3  0  0  0  0  0  0  0  0  0
    2.4693   -0.7162    0.0000 C   0  0  0  0  0  0  0  0  0  0  0  0
    1.2293   -1.4324    0.0000 C   0  0  0  0  0  0  0  0  0  0  0  0
    1.6676   -2.1379    0.0000 C   0  0  0  0  0  0  0  0  0  0  0  0
    2.4693   -2.1379    0.0000 C   0  0  0  0  0  0  0  0  0  0  0  0
    0.4169    0.0000    0.0000 C   0  0  0  0  0  0  0  0  0  0  0  0
    0.0000   -0.7269    0.0000 C   0  0  0  0  0  0  0  0  0  0  0  0
  1  4  1  0  0  0  0
  1  7  1  0  0  0  0
  2  3  1  0  0  0  0
  2  8  1  0  0  0  0
  3  4  1  0  0  0  0
  3  5  1  0  0  0  0
  5  6  1  0  0  0  0
  6  7  1  0  0  0  0
  8  9  1  0  0  0  0
M  END
> <PUBCHEM_COMPOUND_ID_TYPE>
0

> <PUBCHEM_TOTAL_CHARGE>
0

> <PUBCHEM_SUBSTANCE_ID>
310937356

> <PUBCHEM_SUBSTANCE_VERSION>
1

> <PUBCHEM_EXT_DATASOURCE_NAME>
4488

> <PUBCHEM_EXT_DATASOURCE_REGID>
SCHEMBL16115112

> <PUBCHEM_SUBSTANCE_COMMENT>
InChI=1S/C7H15NO/c1-2-8-7-4-3-5-9-6-7/h7-8H,2-6H2,1H3
InChIKey=WONUPOBVPBXZPK-UHFFFAOYSA-N

> <PUBCHEM_SUBSTANCE_SYNONYM>
SCHEMBL16115112

> <PUBCHEM_XREF_EXT_ID>
SCHEMBL16115112

> <PUBCHEM_EXT_DATASOURCE_URL>
https://www.surechembl.org/

> <PUBCHEM_EXT_SUBSTANCE_URL>
https://www.surechembl.org/chemical/SCHEMBL16115112

> <PUBCHEM_CID_ASSOCIATIONS>
63360368  1

> <PUBCHEM_COORDINATE_TYPE>
1
3

$$$$
