310946252
  -OEChem-07211613022D

 24 26  0     1  0  0  0  0  0999 V2000
    3.8024   14.3667    0.0000 S   0  0  0  0  0  0  0  0  0  0  0  0
    2.9774   14.3667    0.0000 O   0  0  0  0  0  0  0  0  0  0  0  0
    0.1195   14.3667    0.0000 O   0  0  0  0  0  0  0  0  0  0  0  0
   -1.3094   16.8417    0.0000 O   0  0  0  0  0  0  0  0  0  0  0  0
    0.1195   17.6667    0.0000 O   0  0  0  0  0  0  0  0  0  0  0  0
    4.2149   13.6522    0.0000 O   0  0  0  0  0  0  0  0  0  0  0  0
    4.2149   15.0812    0.0000 O   0  0  0  0  0  0  0  0  0  0  0  0
    4.6274   14.3667    0.0000 O   0  0  0  0  0  0  0  0  0  0  0  0
    0.8340   15.6042    0.0000 N   0  0  0  0  0  0  0  0  0  0  0  0
    2.2630   14.7792    0.0000 N   0  0  0  0  0  0  0  0  0  0  0  0
   -0.5949   16.4292    0.0000 N   0  0  0  0  0  0  0  0  0  0  0  0
   -4.1186   16.4719    0.0000 N   0  0  0  0  0  0  0  0  0  0  0  0
    0.8340   14.7792    0.0000 C   0  0  0  0  0  0  0  0  0  0  0  0
    2.2630   15.6042    0.0000 C   0  0  3  0  0  0  0  0  0  0  0  0
    0.8340   16.4292    0.0000 C   0  0  3  0  0  0  0  0  0  0  0  0
    1.5485   15.1917    0.0000 C   0  0  0  0  0  0  0  0  0  0  0  0
    2.2630   16.4292    0.0000 C   0  0  0  0  0  0  0  0  0  0  0  0
    1.5485   16.8417    0.0000 C   0  0  0  0  0  0  0  0  0  0  0  0
    0.1195   16.8417    0.0000 C   0  0  0  0  0  0  0  0  0  0  0  0
   -2.7383   16.8417    0.0000 C   0  0  0  0  0  0  0  0  0  0  0  0
   -2.5248   17.6386    0.0000 C   0  0  0  0  0  0  0  0  0  0  0  0
   -3.3217   17.4251    0.0000 C   0  0  0  0  0  0  0  0  0  0  0  0
   -2.0239   16.4292    0.0000 C   0  0  0  0  0  0  0  0  0  0  0  0
   -3.3217   16.2583    0.0000 C   0  0  0  0  0  0  0  0  0  0  0  0
  1  2  1  0  0  0  0
  1  6  2  0  0  0  0
  1  7  2  0  0  0  0
  1  8  1  0  0  0  0
  2 10  1  0  0  0  0
  3 13  2  0  0  0  0
  4 11  1  0  0  0  0
  4 23  1  0  0  0  0
  5 19  2  0  0  0  0
  9 13  1  0  0  0  0
  9 15  1  0  0  0  0
  9 16  1  0  0  0  0
 10 13  1  0  0  0  0
 10 14  1  0  0  0  0
 11 19  1  0  0  0  0
 12 24  1  0  0  0  0
 14 16  1  6  0  0  0
 14 17  1  0  0  0  0
 15 18  1  0  0  0  0
 15 19  1  6  0  0  0
 17 18  1  0  0  0  0
 20 21  1  0  0  0  0
 20 22  1  0  0  0  0
 20 23  1  0  0  0  0
 20 24  1  0  0  0  0
 21 22  1  0  0  0  0
M  END
> <PUBCHEM_COMPOUND_ID_TYPE>
0

> <PUBCHEM_TOTAL_CHARGE>
0

> <PUBCHEM_SUBSTANCE_ID>
310946252

> <PUBCHEM_SUBSTANCE_VERSION>
1

> <PUBCHEM_EXT_DATASOURCE_NAME>
4488

> <PUBCHEM_EXT_DATASOURCE_REGID>
SCHEMBL16124370

> <PUBCHEM_SUBSTANCE_COMMENT>
InChI=1S/C12H20N4O7S/c13-6-12(3-4-12)7-22-14-10(17)9-2-1-8-5-15(9)11(18)16(8)23-24(19,20)21/h8-9H,1-7,13H2,(H,14,17)(H,19,20,21)/t8-,9+/m1/s1
InChIKey=ZHIKLNYGZGJPQX-BDAKNGLRSA-N

> <PUBCHEM_SUBSTANCE_SYNONYM>
SCHEMBL16124370

> <PUBCHEM_XREF_EXT_ID>
SCHEMBL16124370

> <PUBCHEM_EXT_DATASOURCE_URL>
https://www.surechembl.org/

> <PUBCHEM_EXT_SUBSTANCE_URL>
https://www.surechembl.org/chemical/SCHEMBL16124370

> <PUBCHEM_CID_ASSOCIATIONS>
117612200  1

> <PUBCHEM_COORDINATE_TYPE>
1
3

> <PUBCHEM_BONDANNOTATIONS>
14  16  6
15  19  6

$$$$
