310949355
  -OEChem-07211613022D

  8  7  0     1  0  0  0  0  0999 V2000
    0.1706    0.1101    0.0000 N   0  0  3  0  0  0  0  0  0  0  0  0
   -0.0055   -0.6603    0.0000 C   0  0  0  0  0  0  0  0  0  0  0  0
   -0.4458    0.6824    0.0000 C   0  0  0  0  0  0  0  0  0  0  0  0
   -0.7759   -0.9245    0.0000 C   0  0  0  0  0  0  0  0  0  0  0  0
    0.9630    0.3852    0.0000 C   0  0  0  0  0  0  0  0  0  0  0  0
   -0.2587    1.4748    0.0000 C   0  0  0  0  0  0  0  0  0  0  0  0
   -0.9630   -1.7280    0.0000 C   0  0  0  0  0  0  0  0  0  0  0  0
    0.5448    1.7280    0.0000 C   0  0  0  0  0  0  0  0  0  0  0  0
  1  2  1  0  0  0  0
  1  3  1  0  0  0  0
  1  5  1  0  0  0  0
  2  4  2  0  0  0  0
  3  6  1  0  0  0  0
  4  7  1  0  0  0  0
  6  8  1  0  0  0  0
M  END
> <PUBCHEM_COMPOUND_ID_TYPE>
0

> <PUBCHEM_TOTAL_CHARGE>
0

> <PUBCHEM_SUBSTANCE_ID>
310949355

> <PUBCHEM_SUBSTANCE_VERSION>
1

> <PUBCHEM_EXT_DATASOURCE_NAME>
4488

> <PUBCHEM_EXT_DATASOURCE_REGID>
SCHEMBL16127547

> <PUBCHEM_SUBSTANCE_COMMENT>
InChI=1S/C7H15N/c1-4-6-8(3)7-5-2/h4,6H,5,7H2,1-3H3/b6-4+
InChIKey=FDSUBWFWQRXJIE-GQCTYLIASA-N

> <PUBCHEM_SUBSTANCE_SYNONYM>
SCHEMBL16127547

> <PUBCHEM_XREF_EXT_ID>
SCHEMBL16127547

> <PUBCHEM_EXT_DATASOURCE_URL>
https://www.surechembl.org/

> <PUBCHEM_EXT_SUBSTANCE_URL>
https://www.surechembl.org/chemical/SCHEMBL16127547

> <PUBCHEM_CID_ASSOCIATIONS>
117614825  1

> <PUBCHEM_COORDINATE_TYPE>
1
3

$$$$
