310940480
  -OEChem-07211613022D

 12 13  0     1  0  0  0  0  0999 V2000
   -0.4946   -1.3886    0.0000 N   0  0  0  0  0  0  0  0  0  0  0  0
    0.9321    0.3614    0.0000 N   0  0  3  0  0  0  0  0  0  0  0  0
   -1.3126   -1.2555    0.0000 N   0  0  0  0  0  0  0  0  0  0  0  0
   -0.7038   -0.0761    0.0000 C   0  0  0  0  0  0  0  0  0  0  0  0
   -0.1521   -0.6277    0.0000 C   0  0  0  0  0  0  0  0  0  0  0  0
   -1.4267   -0.4375    0.0000 C   0  0  0  0  0  0  0  0  0  0  0  0
    0.6658   -0.4185    0.0000 C   0  0  0  0  0  0  0  0  0  0  0  0
   -0.4375    0.7799    0.0000 C   0  0  0  0  0  0  0  0  0  0  0  0
    0.3044    0.9511    0.0000 C   0  0  0  0  0  0  0  0  0  0  0  0
   -2.0164   -0.1521    0.0000 C   0  0  0  0  0  0  0  0  0  0  0  0
    1.7311    0.5706    0.0000 C   0  0  0  0  0  0  0  0  0  0  0  0
    2.0164    1.3886    0.0000 C   0  0  0  0  0  0  0  0  0  0  0  0
  1  3  1  0  0  0  0
  1  5  1  0  0  0  0
  2  7  1  0  0  0  0
  2  9  1  0  0  0  0
  2 11  1  0  0  0  0
  3  6  2  0  0  0  0
  4  5  2  0  0  0  0
  4  6  1  0  0  0  0
  4  8  1  0  0  0  0
  5  7  1  0  0  0  0
  6 10  1  0  0  0  0
  8  9  1  0  0  0  0
 11 12  1  0  0  0  0
M  END
> <PUBCHEM_COMPOUND_ID_TYPE>
0

> <PUBCHEM_TOTAL_CHARGE>
0

> <PUBCHEM_SUBSTANCE_ID>
310940480

> <PUBCHEM_SUBSTANCE_VERSION>
1

> <PUBCHEM_EXT_DATASOURCE_NAME>
4488

> <PUBCHEM_EXT_DATASOURCE_REGID>
SCHEMBL16118433

> <PUBCHEM_SUBSTANCE_COMMENT>
InChI=1S/C9H15N3/c1-3-12-5-4-8-7(2)10-11-9(8)6-12/h3-6H2,1-2H3,(H,10,11)
InChIKey=WLEYYMQAFAXXJV-UHFFFAOYSA-N

> <PUBCHEM_SUBSTANCE_SYNONYM>
SCHEMBL16118433

> <PUBCHEM_XREF_EXT_ID>
SCHEMBL16118433

> <PUBCHEM_EXT_DATASOURCE_URL>
https://www.surechembl.org/

> <PUBCHEM_EXT_SUBSTANCE_URL>
https://www.surechembl.org/chemical/SCHEMBL16118433

> <PUBCHEM_CID_ASSOCIATIONS>
89024291  1

> <PUBCHEM_COORDINATE_TYPE>
1
3

$$$$
