310934932
  -OEChem-07211613022D

 36 41  0     1  0  0  0  0  0999 V2000
    0.6866  -10.5635    0.0000 O   0  0  0  0  0  0  0  0  0  0  0  0
    2.1127  -10.5635    0.0000 O   0  0  0  0  0  0  0  0  0  0  0  0
    0.6866   -3.2219    0.0000 N   0  0  0  0  0  0  0  0  0  0  0  0
    0.1057   -2.6937    0.0000 N   0  0  0  0  0  0  0  0  0  0  0  0
    2.1655   -3.2219    0.0000 N   0  0  0  0  0  0  0  0  0  0  0  0
    1.4261   -7.7113    0.0000 N   0  0  0  0  0  0  0  0  0  0  0  0
    0.7394   -6.4965    0.0000 N   0  0  0  0  0  0  0  0  0  0  0  0
    1.4261   -9.3487    0.0000 N   0  0  0  0  0  0  0  0  0  0  0  0
    2.9050   -0.1585    0.0000 N   0  0  0  0  0  0  0  0  0  0  0  0
    1.2676   -2.0070    0.0000 C   0  0  0  0  0  0  0  0  0  0  0  0
    1.4261   -2.7993    0.0000 C   0  0  0  0  0  0  0  0  0  0  0  0
    1.7958   -1.3732    0.0000 C   0  0  0  0  0  0  0  0  0  0  0  0
    2.5881   -1.5845    0.0000 C   0  0  0  0  0  0  0  0  0  0  0  0
    1.4261   -4.4367    0.0000 C   0  0  0  0  0  0  0  0  0  0  0  0
    0.4225   -1.9014    0.0000 C   0  0  0  0  0  0  0  0  0  0  0  0
    0.7394   -4.0669    0.0000 C   0  0  0  0  0  0  0  0  0  0  0  0
    1.4261   -5.2817    0.0000 C   0  0  0  0  0  0  0  0  0  0  0  0
    1.4261   -6.8663    0.0000 C   0  0  0  0  0  0  0  0  0  0  0  0
    3.1162   -0.9507    0.0000 C   0  0  0  0  0  0  0  0  0  0  0  0
    2.1655   -4.0141    0.0000 C   0  0  0  0  0  0  0  0  0  0  0  0
    1.5317   -0.6338    0.0000 C   0  0  0  0  0  0  0  0  0  0  0  0
    0.7394   -8.1339    0.0000 C   0  0  3  0  0  0  0  0  0  0  0  0
    2.1127   -8.1339    0.0000 C   0  0  3  0  0  0  0  0  0  0  0  0
    0.6866   -5.6514    0.0000 C   0  0  0  0  0  0  0  0  0  0  0  0
    2.1127   -5.6514    0.0000 C   0  0  0  0  0  0  0  0  0  0  0  0
    2.1655   -6.4965    0.0000 C   0  0  0  0  0  0  0  0  0  0  0  0
    2.8521   -2.3240    0.0000 C   0  0  0  0  0  0  0  0  0  0  0  0
    2.1127   -8.9261    0.0000 C   0  0  0  0  0  0  0  0  0  0  0  0
    0.7394   -8.9261    0.0000 C   0  0  0  0  0  0  0  0  0  0  0  0
    2.0599    0.0000    0.0000 C   0  0  0  0  0  0  0  0  0  0  0  0
    3.9085   -1.1092    0.0000 C   0  0  0  0  0  0  0  0  0  0  0  0
    3.6444   -2.4824    0.0000 C   0  0  0  0  0  0  0  0  0  0  0  0
    1.4261  -10.1409    0.0000 C   0  0  0  0  0  0  0  0  0  0  0  0
    4.1726   -1.9014    0.0000 C   0  0  0  0  0  0  0  0  0  0  0  0
    0.0000   -7.7113    0.0000 C   0  0  0  0  0  0  0  0  0  0  0  0
    2.8521   -7.7113    0.0000 C   0  0  0  0  0  0  0  0  0  0  0  0
  1 33  2  0  0  0  0
  2 33  1  0  0  0  0
  3  4  1  0  0  0  0
  3 11  1  0  0  0  0
  3 16  1  0  0  0  0
  4 15  2  0  0  0  0
  5 11  1  0  0  0  0
  5 20  2  0  0  0  0
  6 18  1  0  0  0  0
  6 22  1  0  0  0  0
  6 23  1  0  0  0  0
  7 18  1  0  0  0  0
  7 24  2  0  0  0  0
  8 28  1  0  0  0  0
  8 29  1  0  0  0  0
  8 33  1  0  0  0  0
  9 19  2  0  0  0  0
  9 30  1  0  0  0  0
 10 11  2  0  0  0  0
 10 12  1  0  0  0  0
 10 15  1  0  0  0  0
 12 13  2  0  0  0  0
 12 21  1  0  0  0  0
 13 19  1  0  0  0  0
 13 27  1  0  0  0  0
 14 16  2  0  0  0  0
 14 17  1  0  0  0  0
 14 20  1  0  0  0  0
 17 24  1  0  0  0  0
 17 25  2  0  0  0  0
 18 26  2  0  0  0  0
 19 31  1  0  0  0  0
 21 30  2  0  0  0  0
 22 29  1  0  0  0  0
 22 35  1  0  0  0  0
 23 28  1  0  0  0  0
 23 36  1  0  0  0  0
 25 26  1  0  0  0  0
 27 32  2  0  0  0  0
 31 34  2  0  0  0  0
 32 34  1  0  0  0  0
M  END
> <PUBCHEM_COMPOUND_ID_TYPE>
0

> <PUBCHEM_TOTAL_CHARGE>
0

> <PUBCHEM_SUBSTANCE_ID>
310934932

> <PUBCHEM_SUBSTANCE_VERSION>
1

> <PUBCHEM_EXT_DATASOURCE_NAME>
4488

> <PUBCHEM_EXT_DATASOURCE_REGID>
SCHEMBL16112446

> <PUBCHEM_SUBSTANCE_COMMENT>
InChI=1S/C27H25N7O2/c1-17-14-32(27(35)36)15-18(2)34(17)25-8-7-19(11-29-25)20-12-30-26-23(13-31-33(26)16-20)21-9-10-28-24-6-4-3-5-22(21)24/h3-13,16-18H,14-15H2,1-2H3,(H,35,36)
InChIKey=QRGRMZARWZXDCP-UHFFFAOYSA-N

> <PUBCHEM_SUBSTANCE_SYNONYM>
SCHEMBL16112446

> <PUBCHEM_XREF_EXT_ID>
SCHEMBL16112446

> <PUBCHEM_EXT_DATASOURCE_URL>
https://www.surechembl.org/

> <PUBCHEM_EXT_SUBSTANCE_URL>
https://www.surechembl.org/chemical/SCHEMBL16112446

> <PUBCHEM_CID_ASSOCIATIONS>
117603054  1

> <PUBCHEM_COORDINATE_TYPE>
1
3

$$$$
