310929411
  -OEChem-07211613022D

 19 22  0     1  0  0  0  0  0999 V2000
    2.1532    0.8950    0.0000 O   0  0  0  0  0  0  0  0  0  0  0  0
    1.4857    2.0510    0.0000 O   0  0  0  0  0  0  0  0  0  0  0  0
    2.6282    2.9762    0.0000 O   0  0  0  0  0  0  0  0  0  0  0  0
    4.8311    2.0031    0.0000 O   0  0  0  0  0  0  0  0  0  0  0  0
    0.6850    0.8181    0.0000 C   0  0  0  0  0  0  0  0  0  0  0  0
   -0.0295    1.2306    0.0000 C   0  0  0  0  0  0  0  0  0  0  0  0
    0.6850   -0.0070    0.0000 C   0  0  0  0  0  0  0  0  0  0  0  0
    1.3995    1.2306    0.0000 C   0  0  3  0  0  0  0  0  0  0  0  0
   -0.7440   -0.0070    0.0000 C   0  0  0  0  0  0  0  0  0  0  0  0
   -1.4276    1.2132    0.0000 C   0  0  0  0  0  0  0  0  0  0  0  0
   -0.0295   -0.4195    0.0000 C   0  0  0  0  0  0  0  0  0  0  0  0
   -0.7335    1.6197    0.0000 C   0  0  0  0  0  0  0  0  0  0  0  0
   -0.5693    0.2595    0.0000 C   0  0  0  0  0  0  0  0  0  0  0  0
   -0.7440    0.8181    0.0000 C   0  0  0  0  0  0  0  0  0  0  0  0
    2.7052    1.5081    0.0000 C   0  0  3  0  0  0  0  0  0  0  0  0
    2.2926    2.2226    0.0000 C   0  0  0  0  0  0  0  0  0  0  0  0
   -1.4326    0.4088    0.0000 C   0  0  0  0  0  0  0  0  0  0  0  0
    3.5257    1.4218    0.0000 C   0  0  0  0  0  0  0  0  0  0  0  0
    4.0106    2.0893    0.0000 C   0  0  0  0  0  0  0  0  0  0  0  0
  1  8  1  0  0  0  0
  1 15  1  0  0  0  0
  2  8  1  0  0  0  0
  2 16  1  0  0  0  0
  3 16  2  0  0  0  0
  4 19  1  0  0  0  0
  5  6  1  0  0  0  0
  5  7  1  0  0  0  0
  5  8  1  0  0  0  0
  6 12  1  0  0  0  0
  6 14  1  0  0  0  0
  7 11  1  0  0  0  0
  7 13  1  0  0  0  0
  9 11  1  0  0  0  0
  9 14  1  0  0  0  0
  9 17  1  0  0  0  0
 10 12  1  0  0  0  0
 10 13  1  0  0  0  0
 10 17  1  0  0  0  0
 15 16  1  0  0  0  0
 15 18  1  0  0  0  0
 18 19  1  0  0  0  0
M  END
> <PUBCHEM_COMPOUND_ID_TYPE>
0

> <PUBCHEM_TOTAL_CHARGE>
0

> <PUBCHEM_SUBSTANCE_ID>
310929411

> <PUBCHEM_SUBSTANCE_VERSION>
1

> <PUBCHEM_EXT_DATASOURCE_NAME>
4488

> <PUBCHEM_EXT_DATASOURCE_REGID>
SCHEMBL16106585

> <PUBCHEM_SUBSTANCE_COMMENT>
InChI=1S/C15H22O4/c16-2-1-12-14(17)19-15(18-12)13-10-4-8-3-9(6-10)7-11(13)5-8/h8-13,15-16H,1-7H2
InChIKey=RLEZXVMDXRTOFL-UHFFFAOYSA-N

> <PUBCHEM_SUBSTANCE_SYNONYM>
SCHEMBL16106585

> <PUBCHEM_XREF_EXT_ID>
SCHEMBL16106585

> <PUBCHEM_EXT_DATASOURCE_URL>
https://www.surechembl.org/

> <PUBCHEM_EXT_SUBSTANCE_URL>
https://www.surechembl.org/chemical/SCHEMBL16106585

> <PUBCHEM_CID_ASSOCIATIONS>
117598772  1

> <PUBCHEM_COORDINATE_TYPE>
1
3

$$$$
