310947189
  -OEChem-07211613022D

 34 33  0     1  0  0  0  0  0999 V2000
   -7.1447   -0.9410    0.0000 O   0  0  0  0  0  0  0  0  0  0  0  0
   -7.8592   -2.1785    0.0000 O   0  0  0  0  0  0  0  0  0  0  0  0
    7.1447   -4.2410    0.0000 O   0  0  0  0  0  0  0  0  0  0  0  0
    7.8592   -3.0035    0.0000 O   0  0  0  0  0  0  0  0  0  0  0  0
   -0.7145   -2.1785    0.0000 C   0  0  3  0  0  0  0  0  0  0  0  0
   -0.7145   -3.0035    0.0000 C   0  0  0  0  0  0  0  0  0  0  0  0
   -1.4289   -1.7660    0.0000 C   0  0  0  0  0  0  0  0  0  0  0  0
    0.0000   -3.4160    0.0000 C   0  0  0  0  0  0  0  0  0  0  0  0
    0.0000   -1.7660    0.0000 C   0  0  0  0  0  0  0  0  0  0  0  0
   -1.4289   -3.4160    0.0000 C   0  0  0  0  0  0  0  0  0  0  0  0
   -2.1434   -2.1785    0.0000 C   0  0  0  0  0  0  0  0  0  0  0  0
    0.7145   -3.0035    0.0000 C   0  0  0  0  0  0  0  0  0  0  0  0
    0.7145   -2.1785    0.0000 C   0  0  0  0  0  0  0  0  0  0  0  0
   -2.1434   -3.0035    0.0000 C   0  0  0  0  0  0  0  0  0  0  0  0
   -2.8579   -1.7660    0.0000 C   0  0  0  0  0  0  0  0  0  0  0  0
    1.4289   -3.4160    0.0000 C   0  0  0  0  0  0  0  0  0  0  0  0
    1.4289   -1.7660    0.0000 C   0  0  0  0  0  0  0  0  0  0  0  0
   -3.5724   -2.1785    0.0000 C   0  0  0  0  0  0  0  0  0  0  0  0
    2.1434   -3.0035    0.0000 C   0  0  0  0  0  0  0  0  0  0  0  0
   -2.8579   -3.4160    0.0000 C   0  0  0  0  0  0  0  0  0  0  0  0
    2.1434   -2.1785    0.0000 C   0  0  0  0  0  0  0  0  0  0  0  0
   -4.2868   -1.7660    0.0000 C   0  0  0  0  0  0  0  0  0  0  0  0
    2.8579   -3.4160    0.0000 C   0  0  0  0  0  0  0  0  0  0  0  0
   -5.0013   -2.1785    0.0000 C   0  0  0  0  0  0  0  0  0  0  0  0
    3.5724   -3.0035    0.0000 C   0  0  0  0  0  0  0  0  0  0  0  0
   -5.7158   -1.7660    0.0000 C   0  0  0  0  0  0  0  0  0  0  0  0
    4.2868   -3.4160    0.0000 C   0  0  0  0  0  0  0  0  0  0  0  0
   -6.4302   -2.1785    0.0000 C   0  0  0  0  0  0  0  0  0  0  0  0
   -7.1447   -1.7660    0.0000 C   0  0  0  0  0  0  0  0  0  0  0  0
    5.0013   -3.0035    0.0000 C   0  0  0  0  0  0  0  0  0  0  0  0
    5.7158   -3.4160    0.0000 C   0  0  0  0  0  0  0  0  0  0  0  0
    6.4302   -3.0035    0.0000 C   0  0  0  0  0  0  0  0  0  0  0  0
    7.1447   -3.4160    0.0000 C   0  0  0  0  0  0  0  0  0  0  0  0
    2.8579   -1.7660    0.0000 C   0  0  0  0  0  0  0  0  0  0  0  0
  1 29  2  0  0  0  0
  2 29  1  0  0  0  0
  3 33  2  0  0  0  0
  4 33  1  0  0  0  0
  5  6  1  0  0  0  0
  5  7  1  0  0  0  0
  5  9  1  0  0  0  0
  6  8  2  0  0  0  0
  6 10  1  0  0  0  0
  7 11  1  0  0  0  0
  8 12  1  0  0  0  0
  9 13  1  0  0  0  0
 10 14  1  0  0  0  0
 11 15  1  0  0  0  0
 12 16  2  0  0  0  0
 13 17  2  0  0  0  0
 14 20  1  0  0  0  0
 15 18  1  0  0  0  0
 16 19  1  0  0  0  0
 17 21  1  0  0  0  0
 18 22  1  0  0  0  0
 19 23  1  0  0  0  0
 21 34  1  0  0  0  0
 22 24  1  0  0  0  0
 23 25  1  0  0  0  0
 24 26  1  0  0  0  0
 25 27  1  0  0  0  0
 26 28  1  0  0  0  0
 27 30  1  0  0  0  0
 28 29  1  0  0  0  0
 30 31  1  0  0  0  0
 31 32  1  0  0  0  0
 32 33  1  0  0  0  0
M  END
> <PUBCHEM_COMPOUND_ID_TYPE>
0

> <PUBCHEM_TOTAL_CHARGE>
0

> <PUBCHEM_SUBSTANCE_ID>
310947189

> <PUBCHEM_SUBSTANCE_VERSION>
1

> <PUBCHEM_EXT_DATASOURCE_NAME>
4488

> <PUBCHEM_EXT_DATASOURCE_REGID>
SCHEMBL16125343

> <PUBCHEM_SUBSTANCE_COMMENT>
InChI=1S/C30H52O4/c1-3-5-16-22-28(24-18-13-10-11-15-20-26-30(33)34)27(21-4-2)23-17-12-8-6-7-9-14-19-25-29(31)32/h5,12,16-17,23,28H,3-4,6-11,13-15,18-22,24-26H2,1-2H3,(H,31,32)(H,33,34)/b16-5+,17-12+,27-23-
InChIKey=ISWNTKBAVPDUOZ-FFQQEDCFSA-N

> <PUBCHEM_SUBSTANCE_SYNONYM>
SCHEMBL16125343

> <PUBCHEM_XREF_EXT_ID>
SCHEMBL16125343

> <PUBCHEM_EXT_DATASOURCE_URL>
https://www.surechembl.org/

> <PUBCHEM_EXT_SUBSTANCE_URL>
https://www.surechembl.org/chemical/SCHEMBL16125343

> <PUBCHEM_CID_ASSOCIATIONS>
117613012  1

> <PUBCHEM_COORDINATE_TYPE>
1
3

$$$$
