310935083
  -OEChem-07211613022D

 45 48  0     1  0  0  0  0  0999 V2000
   -5.1852    2.1551    0.0000 O   0  0  0  0  0  0  0  0  0  0  0  0
   -4.7727    0.0117    0.0000 O   0  0  0  0  0  0  0  0  0  0  0  0
   -4.6295    5.1110    0.0000 O   0  0  0  0  0  0  0  0  0  0  0  0
   -6.0102    0.7262    0.0000 O   0  0  0  0  0  0  0  0  0  0  0  0
   -0.6900    3.6702    0.0000 O   0  0  0  0  0  0  0  0  0  0  0  0
    1.4534    1.6077    0.0000 O   0  0  0  0  0  0  0  0  0  0  0  0
    3.5968    3.6702    0.0000 O   0  0  0  0  0  0  0  0  0  0  0  0
   -2.2977    1.4407    0.0000 N   0  0  0  0  0  0  0  0  0  0  0  0
   -3.9477    2.8696    0.0000 N   0  0  0  0  0  0  0  0  0  0  0  0
   -1.4907    1.6122    0.0000 N   0  0  0  0  0  0  0  0  0  0  0  0
    0.0244    2.4327    0.0000 N   0  0  0  0  0  0  0  0  0  0  0  0
   -3.5352    2.1551    0.0000 C   0  0  0  0  0  0  0  0  0  0  0  0
   -2.7102    2.1551    0.0000 C   0  0  0  0  0  0  0  0  0  0  0  0
   -3.9477    1.4407    0.0000 C   0  0  0  0  0  0  0  0  0  0  0  0
   -3.5352    0.7262    0.0000 C   0  0  0  0  0  0  0  0  0  0  0  0
   -4.7727    1.4407    0.0000 C   0  0  3  0  0  0  0  0  0  0  0  0
   -2.1582    2.7682    0.0000 C   0  0  0  0  0  0  0  0  0  0  0  0
   -2.7102    0.7262    0.0000 C   0  0  0  0  0  0  0  0  0  0  0  0
   -1.4045    2.4327    0.0000 C   0  0  0  0  0  0  0  0  0  0  0  0
   -5.1852    0.7262    0.0000 C   0  0  0  0  0  0  0  0  0  0  0  0
   -4.7727    2.8696    0.0000 C   0  0  0  0  0  0  0  0  0  0  0  0
   -3.5352    3.5841    0.0000 C   0  0  0  0  0  0  0  0  0  0  0  0
   -0.6900    2.8452    0.0000 C   0  0  0  0  0  0  0  0  0  0  0  0
   -4.7727    4.2986    0.0000 C   0  0  0  0  0  0  0  0  0  0  0  0
   -5.1852    3.5841    0.0000 C   0  0  0  0  0  0  0  0  0  0  0  0
   -3.9477    4.2986    0.0000 C   0  0  0  0  0  0  0  0  0  0  0  0
   -3.9477    0.0117    0.0000 C   0  0  0  0  0  0  0  0  0  0  0  0
   -6.0102    2.1551    0.0000 C   0  0  0  0  0  0  0  0  0  0  0  0
   -5.5480    4.5807    0.0000 C   0  0  0  0  0  0  0  0  0  0  0  0
   -6.0102    2.9801    0.0000 C   0  0  0  0  0  0  0  0  0  0  0  0
   -6.0102    1.3301    0.0000 C   0  0  0  0  0  0  0  0  0  0  0  0
   -6.8352    2.1551    0.0000 C   0  0  0  0  0  0  0  0  0  0  0  0
    0.7389    2.8452    0.0000 C   0  0  0  0  0  0  0  0  0  0  0  0
   -5.2614    5.6413    0.0000 C   0  0  0  0  0  0  0  0  0  0  0  0
   -5.1852   -0.7027    0.0000 C   0  0  0  0  0  0  0  0  0  0  0  0
    1.4534    2.4327    0.0000 C   0  0  3  0  0  0  0  0  0  0  0  0
    2.1678    2.8452    0.0000 C   0  0  0  0  0  0  0  0  0  0  0  0
   -5.1182    6.4538    0.0000 C   0  0  0  0  0  0  0  0  0  0  0  0
    2.8823    2.4327    0.0000 C   0  0  0  0  0  0  0  0  0  0  0  0
    3.5968    2.8452    0.0000 C   0  0  0  0  0  0  0  0  0  0  0  0
    2.8823    1.6077    0.0000 C   0  0  0  0  0  0  0  0  0  0  0  0
    4.3113    2.4327    0.0000 C   0  0  0  0  0  0  0  0  0  0  0  0
   -5.7502    6.9841    0.0000 C   0  0  0  0  0  0  0  0  0  0  0  0
    3.5968    1.1952    0.0000 C   0  0  0  0  0  0  0  0  0  0  0  0
    4.3113    1.6077    0.0000 C   0  0  0  0  0  0  0  0  0  0  0  0
  1 16  1  0  0  0  0
  1 28  1  0  0  0  0
  2 20  1  0  0  0  0
  2 35  1  0  0  0  0
  3 24  1  0  0  0  0
  3 34  1  0  0  0  0
  4 20  2  0  0  0  0
  5 23  2  0  0  0  0
  6 36  1  0  0  0  0
  7 40  1  0  0  0  0
  8 10  1  0  0  0  0
  8 13  1  0  0  0  0
  8 18  1  0  0  0  0
  9 12  1  0  0  0  0
  9 21  1  0  0  0  0
  9 22  1  0  0  0  0
 10 19  2  0  0  0  0
 11 23  1  0  0  0  0
 11 33  1  0  0  0  0
 12 13  1  0  0  0  0
 12 14  2  0  0  0  0
 13 17  2  0  0  0  0
 14 15  1  0  0  0  0
 14 16  1  0  0  0  0
 15 18  2  0  0  0  0
 15 27  1  0  0  0  0
 16 20  1  0  0  0  0
 17 19  1  0  0  0  0
 19 23  1  0  0  0  0
 21 25  1  0  0  0  0
 22 26  1  0  0  0  0
 24 25  1  0  0  0  0
 24 26  1  0  0  0  0
 24 29  1  0  0  0  0
 28 30  1  0  0  0  0
 28 31  1  0  0  0  0
 28 32  1  0  0  0  0
 33 36  1  0  0  0  0
 34 38  1  0  0  0  0
 36 37  1  0  0  0  0
 37 39  1  0  0  0  0
 38 43  2  0  0  0  0
 39 40  2  0  0  0  0
 39 41  1  0  0  0  0
 40 42  1  0  0  0  0
 41 44  2  0  0  0  0
 42 45  2  0  0  0  0
 44 45  1  0  0  0  0
M  END
> <PUBCHEM_COMPOUND_ID_TYPE>
0

> <PUBCHEM_TOTAL_CHARGE>
0

> <PUBCHEM_SUBSTANCE_ID>
310935083

> <PUBCHEM_SUBSTANCE_VERSION>
1

> <PUBCHEM_EXT_DATASOURCE_NAME>
4488

> <PUBCHEM_EXT_DATASOURCE_REGID>
SCHEMBL16112609

> <PUBCHEM_SUBSTANCE_COMMENT>
InChI=1S/C34H46N4O7/c1-8-17-44-34(6)13-15-37(16-14-34)29-26-19-25(31(41)35-20-24(39)18-23-11-9-10-12-27(23)40)36-38(26)21-22(2)28(29)30(32(42)43-7)45-33(3,4)5/h8-12,19,21,24,30,39-40H,1,13-18,20H2,2-7H3,(H,35,41)
InChIKey=TUBPEPUZKUHYMA-UHFFFAOYSA-N

> <PUBCHEM_SUBSTANCE_SYNONYM>
SCHEMBL16112609

> <PUBCHEM_XREF_EXT_ID>
SCHEMBL16112609

> <PUBCHEM_EXT_DATASOURCE_URL>
https://www.surechembl.org/

> <PUBCHEM_EXT_SUBSTANCE_URL>
https://www.surechembl.org/chemical/SCHEMBL16112609

> <PUBCHEM_CID_ASSOCIATIONS>
117603178  1

> <PUBCHEM_COORDINATE_TYPE>
1
3

$$$$
