310929730
  -OEChem-07211613022D

 56 63  0     1  0  0  0  0  0999 V2000
    4.4849   -1.3729    0.0000 S   0  0  0  0  0  0  0  0  0  0  0  0
    2.5170   -2.3797    0.0000 O   0  0  0  0  0  0  0  0  0  0  0  0
    5.0798   -1.9679    0.0000 O   0  0  0  0  0  0  0  0  0  0  0  0
    3.8899   -0.7780    0.0000 O   0  0  0  0  0  0  0  0  0  0  0  0
    4.6221    0.0000    0.0000 O   0  0  0  0  0  0  0  0  0  0  0  0
    7.5053   -3.3865    0.0000 O   0  0  0  0  0  0  0  0  0  0  0  0
    1.2814   -2.1052    0.0000 O   0  0  0  0  0  0  0  0  0  0  0  0
    8.5120   -6.3154    0.0000 O   0  0  0  0  0  0  0  0  0  0  0  0
    2.8831   -8.3747    0.0000 O   0  0  0  0  0  0  0  0  0  0  0  0
    1.6933   -8.7409    0.0000 O   0  0  0  0  0  0  0  0  0  0  0  0
    3.6611   -0.8238    0.0000 N   0  0  0  0  0  0  0  0  0  0  0  0
    3.9357   -1.9679    0.0000 N   0  0  0  0  0  0  0  0  0  0  0  0
    6.0866   -1.4644    0.0000 N   0  0  0  0  0  0  0  0  0  0  0  0
    8.4663   -3.8899    0.0000 N   0  0  0  0  0  0  0  0  0  0  0  0
    1.4187   -7.5510    0.0000 N   0  0  0  0  0  0  0  0  0  0  0  0
    2.8831   -1.0068    0.0000 C   0  0  3  0  0  0  0  0  0  0  0  0
    2.1052   -1.3271    0.0000 C   0  0  3  0  0  0  0  0  0  0  0  0
    2.2424   -0.5034    0.0000 C   0  0  0  0  0  0  0  0  0  0  0  0
    3.1119   -1.7848    0.0000 C   0  0  0  0  0  0  0  0  0  0  0  0
    5.0798   -0.7780    0.0000 C   0  0  0  0  0  0  0  0  0  0  0  0
    4.4849   -0.8238    0.0000 C   0  0  0  0  0  0  0  0  0  0  0  0
    1.4187   -1.7848    0.0000 C   0  0  0  0  0  0  0  0  0  0  0  0
    5.2628    0.0000    0.0000 C   0  0  0  0  0  0  0  0  0  0  0  0
    5.8578   -0.5492    0.0000 C   0  0  0  0  0  0  0  0  0  0  0  0
    5.2628   -1.1441    0.0000 C   0  0  3  0  0  0  0  0  0  0  0  0
    4.3476   -0.4119    0.0000 C   0  0  0  0  0  0  0  0  0  0  0  0
    6.6815   -1.3729    0.0000 C   0  0  0  0  0  0  0  0  0  0  0  0
    7.1849   -2.7458    0.0000 C   0  0  3  0  0  0  0  0  0  0  0  0
    0.8238   -2.2882    0.0000 C   0  0  0  0  0  0  0  0  0  0  0  0
    6.7272   -1.9679    0.0000 C   0  0  0  0  0  0  0  0  0  0  0  0
    1.8763   -2.6543    0.0000 C   0  0  0  0  0  0  0  0  0  0  0  0
    7.6883   -4.1645    0.0000 C   0  0  0  0  0  0  0  0  0  0  0  0
    7.6883   -5.1713    0.0000 C   0  0  0  0  0  0  0  0  0  0  0  0
    0.8238   -6.9103    0.0000 C   0  0  3  0  0  0  0  0  0  0  0  0
    8.4663   -5.4459    0.0000 C   0  0  0  0  0  0  0  0  0  0  0  0
    9.1528   -5.1713    0.0000 C   0  0  0  0  0  0  0  0  0  0  0  0
    9.1528   -4.1645    0.0000 C   0  0  0  0  0  0  0  0  0  0  0  0
    0.3204   -3.0661    0.0000 C   0  0  0  0  0  0  0  0  0  0  0  0
    7.5053   -5.9493    0.0000 C   0  0  0  0  0  0  0  0  0  0  0  0
    0.3204   -6.2696    0.0000 C   0  0  0  0  0  0  0  0  0  0  0  0
    9.9307   -5.4459    0.0000 C   0  0  0  0  0  0  0  0  0  0  0  0
    9.9307   -3.8899    0.0000 C   0  0  0  0  0  0  0  0  0  0  0  0
    2.1052   -8.0087    0.0000 C   0  0  0  0  0  0  0  0  0  0  0  0
    3.6611   -8.5120    0.0000 C   0  0  3  0  0  0  0  0  0  0  0  0
    0.1373   -3.8899    0.0000 C   0  0  0  0  0  0  0  0  0  0  0  0
    4.4849   -8.5120    0.0000 C   0  0  3  0  0  0  0  0  0  0  0  0
    4.1645   -9.1528    0.0000 C   0  0  0  0  0  0  0  0  0  0  0  0
   10.5714   -5.1713    0.0000 C   0  0  0  0  0  0  0  0  0  0  0  0
    0.1373   -5.4459    0.0000 C   0  0  0  0  0  0  0  0  0  0  0  0
   10.5714   -4.1645    0.0000 C   0  0  0  0  0  0  0  0  0  0  0  0
    7.1849   -6.5899    0.0000 C   0  0  0  0  0  0  0  0  0  0  0  0
    0.0000   -4.6679    0.0000 C   0  0  0  0  0  0  0  0  0  0  0  0
    5.2628   -8.1917    0.0000 C   0  0  0  0  0  0  0  0  0  0  0  0
    9.2443   -6.6815    0.0000 C   0  0  0  0  0  0  0  0  0  0  0  0
    6.7272   -7.2307    0.0000 C   0  0  0  0  0  0  0  0  0  0  0  0
    6.0866   -7.8714    0.0000 C   0  0  0  0  0  0  0  0  0  0  0  0
  1  3  2  0  0  0  0
  1  4  2  0  0  0  0
  1 12  1  0  0  0  0
  1 20  1  0  0  0  0
  2 19  2  0  0  0  0
  5 21  2  0  0  0  0
  6 28  1  0  0  0  0
  6 32  1  0  0  0  0
  7 31  2  0  0  0  0
  8 35  1  0  0  0  0
  8 54  1  0  0  0  0
  9 43  1  0  0  0  0
  9 44  1  0  0  0  0
 10 43  2  0  0  0  0
 11 16  1  0  0  0  0
 11 21  1  0  0  0  0
 12 19  1  0  0  0  0
 13 25  1  0  0  0  0
 13 30  1  0  0  0  0
 13 31  1  0  0  0  0
 14 32  1  0  0  0  0
 14 37  2  0  0  0  0
 15 34  1  0  0  0  0
 15 43  1  0  0  0  0
 16 17  1  0  0  0  0
 16 18  1  0  0  0  0
 16 19  1  6  0  0  0
 17 18  1  6  0  0  0
 17 22  1  0  0  0  0
 20 23  1  0  0  0  0
 20 24  1  0  0  0  0
 20 26  1  0  0  0  0
 21 25  1  0  0  0  0
 22 29  2  0  0  0  0
 23 24  1  0  0  0  0
 25 27  1  6  0  0  0
 28 27  1  1  0  0  0
 28 30  1  0  0  0  0
 29 38  1  0  0  0  0
 31 34  1  0  0  0  0
 32 33  2  0  0  0  0
 33 35  1  0  0  0  0
 33 39  1  0  0  0  0
 34 40  1  1  0  0  0
 35 36  2  0  0  0  0
 36 37  1  0  0  0  0
 36 41  1  0  0  0  0
 37 42  1  0  0  0  0
 38 45  1  0  0  0  0
 39 51  1  0  0  0  0
 40 49  1  0  0  0  0
 41 48  2  0  0  0  0
 42 50  2  0  0  0  0
 44 46  1  0  0  0  0
 44 47  1  1  0  0  0
 45 52  1  0  0  0  0
 46 47  1  6  0  0  0
 46 53  1  0  0  0  0
 48 50  1  0  0  0  0
 49 52  1  0  0  0  0
 51 55  1  0  0  0  0
 53 56  1  0  0  0  0
 55 56  1  0  0  0  0
M  END
> <PUBCHEM_COMPOUND_ID_TYPE>
0

> <PUBCHEM_TOTAL_CHARGE>
0

> <PUBCHEM_SUBSTANCE_ID>
310929730

> <PUBCHEM_SUBSTANCE_VERSION>
1

> <PUBCHEM_EXT_DATASOURCE_NAME>
4488

> <PUBCHEM_EXT_DATASOURCE_REGID>
SCHEMBL16106928

> <PUBCHEM_SUBSTANCE_COMMENT>
InChI=1S/C41H53N5O9S/c1-40(19-20-40)56(51,52)45-38(49)41-23-26(41)14-8-4-3-5-10-18-31-37(48)46-24-27(22-32(46)35(47)44-41)54-36-29(34(53-2)28-15-11-12-17-30(28)42-36)16-9-6-7-13-25-21-33(25)55-39(50)43-31/h8,11-12,14-15,17,25-27,31-33H,3-7,9-10,13,16,18-24H2,1-2H3,(H,43,50)(H,44,47)(H,45,49)/b14-8-/t25-,26-,27-,31+,32-,33-,41-/m1/s1
InChIKey=FJGVQPPQTVKGCB-GRZBPXIKSA-N

> <PUBCHEM_SUBSTANCE_SYNONYM>
SCHEMBL16106928

> <PUBCHEM_XREF_EXT_ID>
SCHEMBL16106928

> <PUBCHEM_EXT_DATASOURCE_URL>
https://www.surechembl.org/

> <PUBCHEM_EXT_SUBSTANCE_URL>
https://www.surechembl.org/chemical/SCHEMBL16106928

> <PUBCHEM_CID_ASSOCIATIONS>
117599025  1

> <PUBCHEM_COORDINATE_TYPE>
1
3

> <PUBCHEM_BONDANNOTATIONS>
16  19  6
17  18  6
25  27  6
28  27  5
34  40  5
44  47  5
46  47  6

$$$$
