310941920
  -OEChem-07211613022D

 25 26  0     1  0  0  0  0  0999 V2000
   -1.4404    0.4822    0.0000 O   0  0  0  0  0  0  0  0  0  0  0  0
    1.4157    0.4822    0.0000 O   0  0  0  0  0  0  0  0  0  0  0  0
   -2.1575    1.7186    0.0000 O   0  0  0  0  0  0  0  0  0  0  0  0
    2.1327    1.7186    0.0000 O   0  0  0  0  0  0  0  0  0  0  0  0
    1.4651   -0.7047    0.0000 O   0  0  0  0  0  0  0  0  0  0  0  0
   -2.1575   -1.5702    0.0000 O   0  0  0  0  0  0  0  0  0  0  0  0
    2.8622   -0.3338    0.0000 N   0  0  0  0  0  0  0  0  0  0  0  0
   -2.8498   -0.3338    0.0000 N   0  0  0  0  0  0  0  0  0  0  0  0
   -2.8498    0.4946    0.0000 C   0  0  3  0  0  0  0  0  0  0  0  0
    2.8622    0.4946    0.0000 C   0  0  3  0  0  0  0  0  0  0  0  0
   -2.1451    0.8902    0.0000 C   0  0  0  0  0  0  0  0  0  0  0  0
    2.1327    0.8902    0.0000 C   0  0  0  0  0  0  0  0  0  0  0  0
   -3.5669    0.9026    0.0000 C   0  0  0  0  0  0  0  0  0  0  0  0
    3.5669    0.9026    0.0000 C   0  0  0  0  0  0  0  0  0  0  0  0
   -4.2840   -0.3338    0.0000 C   0  0  0  0  0  0  0  0  0  0  0  0
    4.2840   -0.3338    0.0000 C   0  0  0  0  0  0  0  0  0  0  0  0
    2.2934   -0.9273    0.0000 C   0  0  0  0  0  0  0  0  0  0  0  0
   -2.1451   -0.7294    0.0000 C   0  0  0  0  0  0  0  0  0  0  0  0
   -4.2717    0.4946    0.0000 C   0  0  0  0  0  0  0  0  0  0  0  0
    4.2840    0.4946    0.0000 C   0  0  0  0  0  0  0  0  0  0  0  0
   -0.7109    0.9026    0.0000 C   0  0  0  0  0  0  0  0  0  0  0  0
    0.7109    0.9026    0.0000 C   0  0  0  0  0  0  0  0  0  0  0  0
    2.5036   -1.7186    0.0000 C   0  0  0  0  0  0  0  0  0  0  0  0
   -1.5640   -0.4080    0.0000 C   0  0  0  0  0  0  0  0  0  0  0  0
    0.0062    0.4946    0.0000 C   0  0  0  0  0  0  0  0  0  0  0  0
  1 11  1  0  0  0  0
  1 21  1  0  0  0  0
  2 12  1  0  0  0  0
  2 22  1  0  0  0  0
  3 11  2  0  0  0  0
  4 12  2  0  0  0  0
  5 17  2  0  0  0  0
  6 18  2  0  0  0  0
  7 10  1  0  0  0  0
  7 16  1  0  0  0  0
  7 17  1  0  0  0  0
  8  9  1  0  0  0  0
  8 15  1  0  0  0  0
  8 18  1  0  0  0  0
  9 11  1  0  0  0  0
  9 13  1  0  0  0  0
 10 12  1  0  0  0  0
 10 14  1  0  0  0  0
 13 19  1  0  0  0  0
 14 20  1  0  0  0  0
 15 19  1  0  0  0  0
 16 20  1  0  0  0  0
 17 23  1  0  0  0  0
 18 24  1  0  0  0  0
 21 25  1  0  0  0  0
 22 25  1  0  0  0  0
M  END
> <PUBCHEM_COMPOUND_ID_TYPE>
0

> <PUBCHEM_TOTAL_CHARGE>
0

> <PUBCHEM_SUBSTANCE_ID>
310941920

> <PUBCHEM_SUBSTANCE_VERSION>
1

> <PUBCHEM_EXT_DATASOURCE_NAME>
4488

> <PUBCHEM_EXT_DATASOURCE_REGID>
SCHEMBL16119952

> <PUBCHEM_SUBSTANCE_COMMENT>
InChI=1S/C17H26N2O6/c1-12(20)18-8-3-6-14(18)16(22)24-10-5-11-25-17(23)15-7-4-9-19(15)13(2)21/h14-15H,3-11H2,1-2H3
InChIKey=SNGBGOSAJRWNKA-UHFFFAOYSA-N

> <PUBCHEM_SUBSTANCE_SYNONYM>
SCHEMBL16119952

> <PUBCHEM_XREF_EXT_ID>
SCHEMBL16119952

> <PUBCHEM_EXT_DATASOURCE_URL>
https://www.surechembl.org/

> <PUBCHEM_EXT_SUBSTANCE_URL>
https://www.surechembl.org/chemical/SCHEMBL16119952

> <PUBCHEM_CID_ASSOCIATIONS>
117608650  1

> <PUBCHEM_COORDINATE_TYPE>
1
3

$$$$
