310932672
  -OEChem-07211613022D

 23 25  0     1  0  0  0  0  0999 V2000
    3.5454   -1.6159    0.0000 O   0  0  0  0  0  0  0  0  0  0  0  0
    4.6789   -3.5695    0.0000 O   0  0  0  0  0  0  0  0  0  0  0  0
    5.4025   -2.3394    0.0000 O   0  0  0  0  0  0  0  0  0  0  0  0
    0.2653   -4.0036    0.0000 O   0  0  0  0  0  0  0  0  0  0  0  0
    0.7959    0.0000    0.0000 O   0  0  0  0  0  0  0  0  0  0  0  0
    3.1354   -2.3394    0.0000 C   0  0  0  0  0  0  0  0  0  0  0  0
    3.9553   -2.3394    0.0000 C   0  0  3  0  0  0  0  0  0  0  0  0
    2.4118   -2.7495    0.0000 C   0  0  0  0  0  0  0  0  0  0  0  0
    2.5565   -1.7606    0.0000 C   0  0  0  0  0  0  0  0  0  0  0  0
    4.6789   -2.7495    0.0000 C   0  0  0  0  0  0  0  0  0  0  0  0
    2.4118   -3.5936    0.0000 C   0  0  0  0  0  0  0  0  0  0  0  0
    1.7365   -1.9535    0.0000 C   0  0  0  0  0  0  0  0  0  0  0  0
    1.6883   -2.3394    0.0000 C   0  0  0  0  0  0  0  0  0  0  0  0
    2.7495   -0.9406    0.0000 C   0  0  0  0  0  0  0  0  0  0  0  0
    1.6883   -4.0036    0.0000 C   0  0  0  0  0  0  0  0  0  0  0  0
    1.1577   -1.3747    0.0000 C   0  0  0  0  0  0  0  0  0  0  0  0
    0.9888   -2.7495    0.0000 C   0  0  0  0  0  0  0  0  0  0  0  0
    2.1707   -0.3618    0.0000 C   0  0  0  0  0  0  0  0  0  0  0  0
    0.9647   -3.5695    0.0000 C   0  0  0  0  0  0  0  0  0  0  0  0
    1.3747   -0.5788    0.0000 C   0  0  0  0  0  0  0  0  0  0  0  0
    5.4025   -4.0036    0.0000 C   0  0  0  0  0  0  0  0  0  0  0  0
    0.2653   -4.8236    0.0000 C   0  0  0  0  0  0  0  0  0  0  0  0
    0.0000   -0.2170    0.0000 C   0  0  0  0  0  0  0  0  0  0  0  0
  1  6  1  0  0  0  0
  1  7  1  0  0  0  0
  2 10  1  0  0  0  0
  2 21  1  0  0  0  0
  3 10  2  0  0  0  0
  4 19  1  0  0  0  0
  4 22  1  0  0  0  0
  5 20  1  0  0  0  0
  5 23  1  0  0  0  0
  6  7  1  0  0  0  0
  6  8  1  0  0  0  0
  6  9  1  0  0  0  0
  7 10  1  0  0  0  0
  8 11  2  0  0  0  0
  8 13  1  0  0  0  0
  9 12  2  0  0  0  0
  9 14  1  0  0  0  0
 11 15  1  0  0  0  0
 12 16  1  0  0  0  0
 13 17  2  0  0  0  0
 14 18  2  0  0  0  0
 15 19  2  0  0  0  0
 16 20  2  0  0  0  0
 17 19  1  0  0  0  0
 18 20  1  0  0  0  0
M  END
> <PUBCHEM_COMPOUND_ID_TYPE>
0

> <PUBCHEM_TOTAL_CHARGE>
0

> <PUBCHEM_SUBSTANCE_ID>
310932672

> <PUBCHEM_SUBSTANCE_VERSION>
1

> <PUBCHEM_EXT_DATASOURCE_NAME>
4488

> <PUBCHEM_EXT_DATASOURCE_REGID>
SCHEMBL16110052

> <PUBCHEM_SUBSTANCE_COMMENT>
InChI=1S/C18H18O5/c1-20-14-8-4-12(5-9-14)18(16(23-18)17(19)22-3)13-6-10-15(21-2)11-7-13/h4-11,16H,1-3H3
InChIKey=RHBAECHVERLNBC-UHFFFAOYSA-N

> <PUBCHEM_SUBSTANCE_SYNONYM>
SCHEMBL16110052

> <PUBCHEM_XREF_EXT_ID>
SCHEMBL16110052

> <PUBCHEM_EXT_DATASOURCE_URL>
https://www.surechembl.org/

> <PUBCHEM_EXT_SUBSTANCE_URL>
https://www.surechembl.org/chemical/SCHEMBL16110052

> <PUBCHEM_CID_ASSOCIATIONS>
13862314  1

> <PUBCHEM_COORDINATE_TYPE>
1
3

$$$$
