310940083
  -OEChem-07211613022D

 23 25  0     1  0  0  0  0  0999 V2000
    0.6065    1.5284    0.0000 I   0  0  0  0  0  0  0  0  0  0  0  0
   -1.5770   -2.1592    0.0000 O   0  0  0  0  0  0  0  0  0  0  0  0
    1.5770   -0.7844    0.0000 O   0  0  0  0  0  0  0  0  0  0  0  0
   -0.8491   -0.9300    0.0000 N   0  0  0  0  0  0  0  0  0  0  0  0
    0.6227   -1.8357    0.0000 N   0  0  0  0  0  0  0  0  0  0  0  0
   -0.1052   -2.1754    0.0000 C   0  0  3  0  0  0  0  0  0  0  0  0
   -0.8491   -1.7387    0.0000 C   0  0  0  0  0  0  0  0  0  0  0  0
   -0.8815    0.7198    0.0000 C   0  0  0  0  0  0  0  0  0  0  0  0
   -0.8491    1.5608    0.0000 C   0  0  0  0  0  0  0  0  0  0  0  0
   -0.0404   -3.0002    0.0000 C   0  0  0  0  0  0  0  0  0  0  0  0
   -0.1213   -0.5094    0.0000 C   0  0  0  0  0  0  0  0  0  0  0  0
   -1.5770   -0.5094    0.0000 C   0  0  0  0  0  0  0  0  0  0  0  0
    1.1726   -2.4827    0.0000 C   0  0  0  0  0  0  0  0  0  0  0  0
   -0.1213    0.2830    0.0000 C   0  0  0  0  0  0  0  0  0  0  0  0
   -1.5608    0.2992    0.0000 C   0  0  0  0  0  0  0  0  0  0  0  0
    0.8006   -1.0432    0.0000 C   0  0  0  0  0  0  0  0  0  0  0  0
   -0.1375    1.9652    0.0000 C   0  0  0  0  0  0  0  0  0  0  0  0
    0.7844   -3.1620    0.0000 C   0  0  0  0  0  0  0  0  0  0  0  0
   -1.5608    1.9490    0.0000 C   0  0  0  0  0  0  0  0  0  0  0  0
   -0.1213    2.7414    0.0000 C   0  0  0  0  0  0  0  0  0  0  0  0
   -1.5770    2.7738    0.0000 C   0  0  0  0  0  0  0  0  0  0  0  0
   -0.8167    3.1620    0.0000 C   0  0  0  0  0  0  0  0  0  0  0  0
    0.1698   -0.5094    0.0000 C   0  0  0  0  0  0  0  0  0  0  0  0
  1 17  1  0  0  0  0
  2  7  2  0  0  0  0
  3 16  2  0  0  0  0
  4  7  1  0  0  0  0
  4 11  1  0  0  0  0
  4 12  1  0  0  0  0
  5  6  1  0  0  0  0
  5 13  1  0  0  0  0
  5 16  1  0  0  0  0
  6  7  1  0  0  0  0
  6 10  1  0  0  0  0
  8  9  1  0  0  0  0
  8 14  1  0  0  0  0
  8 15  1  0  0  0  0
  9 17  2  0  0  0  0
  9 19  1  0  0  0  0
 10 18  1  0  0  0  0
 11 14  1  0  0  0  0
 12 15  1  0  0  0  0
 13 18  1  0  0  0  0
 16 23  1  0  0  0  0
 17 20  1  0  0  0  0
 19 21  2  0  0  0  0
 20 22  2  0  0  0  0
 21 22  1  0  0  0  0
M  END
> <PUBCHEM_COMPOUND_ID_TYPE>
0

> <PUBCHEM_TOTAL_CHARGE>
0

> <PUBCHEM_SUBSTANCE_ID>
310940083

> <PUBCHEM_SUBSTANCE_VERSION>
1

> <PUBCHEM_EXT_DATASOURCE_NAME>
4488

> <PUBCHEM_EXT_DATASOURCE_REGID>
SCHEMBL16118014

> <PUBCHEM_SUBSTANCE_COMMENT>
InChI=1S/C18H23IN2O2/c1-13(22)21-10-4-7-17(21)18(23)20-11-8-14(9-12-20)15-5-2-3-6-16(15)19/h2-3,5-6,14,17H,4,7-12H2,1H3
InChIKey=VVPNBPBTLHOUHF-UHFFFAOYSA-N

> <PUBCHEM_SUBSTANCE_SYNONYM>
SCHEMBL16118014

> <PUBCHEM_XREF_EXT_ID>
SCHEMBL16118014

> <PUBCHEM_EXT_DATASOURCE_URL>
https://www.surechembl.org/

> <PUBCHEM_EXT_SUBSTANCE_URL>
https://www.surechembl.org/chemical/SCHEMBL16118014

> <PUBCHEM_CID_ASSOCIATIONS>
117607221  1

> <PUBCHEM_COORDINATE_TYPE>
1
3

$$$$
