310933790
  -OEChem-07211613022D

 39 43  0     1  0  0  0  0  0999 V2000
    0.8060   -1.2872    0.0000 O   0  0  0  0  0  0  0  0  0  0  0  0
    0.1259    2.8467    0.0000 O   0  0  0  0  0  0  0  0  0  0  0  0
   -0.2187    2.9493    0.0000 O   0  0  0  0  0  0  0  0  0  0  0  0
   -1.3539   -1.2872    0.0000 N   0  0  0  0  0  0  0  0  0  0  0  0
   -0.2740   -2.0718    0.0000 N   0  0  0  0  0  0  0  0  0  0  0  0
   -1.5839   -2.7393    0.0000 N   0  0  0  0  0  0  0  0  0  0  0  0
   -0.6865   -0.8023    0.0000 C   0  0  0  0  0  0  0  0  0  0  0  0
    0.0280   -0.3898    0.0000 C   0  0  3  0  0  0  0  0  0  0  0  0
   -1.2385   -0.1892    0.0000 C   0  0  3  0  0  0  0  0  0  0  0  0
   -0.0190   -1.2872    0.0000 C   0  0  0  0  0  0  0  0  0  0  0  0
    0.7425   -0.8023    0.0000 C   0  0  0  0  0  0  0  0  0  0  0  0
   -2.0455   -0.3607    0.0000 C   0  0  0  0  0  0  0  0  0  0  0  0
    0.0280    0.4352    0.0000 C   0  0  0  0  0  0  0  0  0  0  0  0
   -0.9835    0.5954    0.0000 C   0  0  0  0  0  0  0  0  0  0  0  0
   -1.0990   -2.0718    0.0000 C   0  0  0  0  0  0  0  0  0  0  0  0
    1.4570   -0.3898    0.0000 C   0  0  0  0  0  0  0  0  0  0  0  0
   -2.3004   -1.1454    0.0000 C   0  0  0  0  0  0  0  0  0  0  0  0
    0.7425   -1.6273    0.0000 C   0  0  0  0  0  0  0  0  0  0  0  0
   -2.5975    0.2524    0.0000 C   0  0  0  0  0  0  0  0  0  0  0  0
    0.7425    0.8477    0.0000 C   0  0  0  0  0  0  0  0  0  0  0  0
   -1.5356    1.2085    0.0000 C   0  0  0  0  0  0  0  0  0  0  0  0
   -0.6865    0.8477    0.0000 C   0  0  0  0  0  0  0  0  0  0  0  0
   -0.1766    0.7669    0.0000 C   0  0  0  0  0  0  0  0  0  0  0  0
    2.1714   -0.8023    0.0000 C   0  0  0  0  0  0  0  0  0  0  0  0
   -3.1074   -1.3169    0.0000 C   0  0  0  0  0  0  0  0  0  0  0  0
    0.7425    1.6727    0.0000 C   0  0  0  0  0  0  0  0  0  0  0  0
   -1.2806    1.9931    0.0000 C   0  0  0  0  0  0  0  0  0  0  0  0
   -0.6865    1.6727    0.0000 C   0  0  0  0  0  0  0  0  0  0  0  0
    0.0784    1.5516    0.0000 C   0  0  0  0  0  0  0  0  0  0  0  0
    1.4570   -2.0398    0.0000 C   0  0  0  0  0  0  0  0  0  0  0  0
   -3.4045    0.0808    0.0000 C   0  0  0  0  0  0  0  0  0  0  0  0
    0.0280    2.0852    0.0000 C   0  0  0  0  0  0  0  0  0  0  0  0
   -0.4737    2.1647    0.0000 C   0  0  0  0  0  0  0  0  0  0  0  0
    1.4570    0.4352    0.0000 C   0  0  0  0  0  0  0  0  0  0  0  0
   -1.7484   -1.7585    0.0000 C   0  0  0  0  0  0  0  0  0  0  0  0
    2.1714   -1.6273    0.0000 C   0  0  0  0  0  0  0  0  0  0  0  0
   -3.6594   -0.7038    0.0000 C   0  0  0  0  0  0  0  0  0  0  0  0
    0.7425    3.3227    0.0000 C   0  0  0  0  0  0  0  0  0  0  0  0
   -0.7708    3.5624    0.0000 C   0  0  0  0  0  0  0  0  0  0  0  0
  1 10  2  0  0  0  0
  2 32  1  0  0  0  0
  2 38  1  0  0  0  0
  3 33  1  0  0  0  0
  3 39  1  0  0  0  0
  4  7  1  0  0  0  0
  4 15  1  0  0  0  0
  5 10  1  0  0  0  0
  5 15  1  0  0  0  0
  6 15  2  3  0  0  0
  7  8  1  0  0  0  0
  7  9  1  0  0  0  0
  7 10  1  0  0  0  0
  8 11  1  0  0  0  0
  8 13  1  0  0  0  0
  9 12  1  0  0  0  0
  9 14  1  0  0  0  0
 11 16  2  0  0  0  0
 11 18  1  0  0  0  0
 12 17  2  0  0  0  0
 12 19  1  0  0  0  0
 13 20  2  0  0  0  0
 13 22  1  0  0  0  0
 14 21  2  0  0  0  0
 14 23  1  0  0  0  0
 16 24  1  0  0  0  0
 16 34  1  0  0  0  0
 17 25  1  0  0  0  0
 17 35  1  0  0  0  0
 18 30  2  0  0  0  0
 19 31  2  0  0  0  0
 20 26  1  0  0  0  0
 21 27  1  0  0  0  0
 22 28  2  0  0  0  0
 23 29  2  0  0  0  0
 24 36  2  0  0  0  0
 25 37  2  0  0  0  0
 26 32  2  0  0  0  0
 27 33  2  0  0  0  0
 28 32  1  0  0  0  0
 29 33  1  0  0  0  0
 30 36  1  0  0  0  0
 31 37  1  0  0  0  0
M  END
> <PUBCHEM_COMPOUND_ID_TYPE>
0

> <PUBCHEM_TOTAL_CHARGE>
0

> <PUBCHEM_SUBSTANCE_ID>
310933790

> <PUBCHEM_SUBSTANCE_VERSION>
1

> <PUBCHEM_EXT_DATASOURCE_NAME>
4488

> <PUBCHEM_EXT_DATASOURCE_REGID>
SCHEMBL16111227

> <PUBCHEM_SUBSTANCE_COMMENT>
InChI=1S/C33H33N3O3/c1-21-9-5-7-11-27(21)29(23-13-17-25(38-3)18-14-23)33(31(37)35-32(34)36-33)30(28-12-8-6-10-22(28)2)24-15-19-26(39-4)20-16-24/h5-20,29-30H,1-4H3,(H3,34,35,36,37)
InChIKey=UZIOFGPUOGZOBZ-UHFFFAOYSA-N

> <PUBCHEM_SUBSTANCE_SYNONYM>
SCHEMBL16111227

> <PUBCHEM_XREF_EXT_ID>
SCHEMBL16111227

> <PUBCHEM_EXT_DATASOURCE_URL>
https://www.surechembl.org/

> <PUBCHEM_EXT_SUBSTANCE_URL>
https://www.surechembl.org/chemical/SCHEMBL16111227

> <PUBCHEM_CID_ASSOCIATIONS>
117602140  1

> <PUBCHEM_COORDINATE_TYPE>
1
3

$$$$
