310933464
  -OEChem-07211613022D

 36 41  0     1  0  0  0  0  0999 V2000
    6.3777    0.0000    0.0000 F   0  0  0  0  0  0  0  0  0  0  0  0
    2.2669   -1.4811    0.0000 O   0  0  0  0  0  0  0  0  0  0  0  0
    0.0000   -4.9570    0.0000 O   0  0  0  0  0  0  0  0  0  0  0  0
    5.5314   -3.8387    0.0000 O   0  0  0  0  0  0  0  0  0  0  0  0
    4.2014   -3.1737    0.0000 N   0  0  0  0  0  0  0  0  0  0  0  0
    3.9294   -1.4509    0.0000 N   0  0  0  0  0  0  0  0  0  0  0  0
    4.2014   -4.5036    0.0000 N   0  0  0  0  0  0  0  0  0  0  0  0
    1.4811   -2.9017    0.0000 N   0  0  0  0  0  0  0  0  0  0  0  0
    0.3930   -5.6825    0.0000 N   0  0  0  0  0  0  0  0  0  0  0  0
    2.6901   -2.1762    0.0000 C   0  0  3  0  0  0  0  0  0  0  0  0
    2.6901   -3.0226    0.0000 C   0  0  0  0  0  0  0  0  0  0  0  0
    3.4155   -3.4155    0.0000 C   0  0  0  0  0  0  0  0  0  0  0  0
    3.5062   -2.1762    0.0000 C   0  0  0  0  0  0  0  0  0  0  0  0
    1.8740   -2.2065    0.0000 C   0  0  0  0  0  0  0  0  0  0  0  0
    3.4155   -4.2619    0.0000 C   0  0  0  0  0  0  0  0  0  0  0  0
    1.9949   -4.2619    0.0000 C   0  0  0  0  0  0  0  0  0  0  0  0
    1.9949   -3.4155    0.0000 C   0  0  0  0  0  0  0  0  0  0  0  0
    2.6901   -4.6548    0.0000 C   0  0  0  0  0  0  0  0  0  0  0  0
    1.2997   -4.6850    0.0000 C   0  0  0  0  0  0  0  0  0  0  0  0
    4.6850   -3.8387    0.0000 C   0  0  0  0  0  0  0  0  0  0  0  0
    3.9294   -2.9017    0.0000 C   0  0  0  0  0  0  0  0  0  0  0  0
    4.7454   -1.4509    0.0000 C   0  0  0  0  0  0  0  0  0  0  0  0
    1.4509   -1.4811    0.0000 C   0  0  0  0  0  0  0  0  0  0  0  0
    5.1686   -2.1461    0.0000 C   0  0  0  0  0  0  0  0  0  0  0  0
    0.5441   -4.3525    0.0000 C   0  0  0  0  0  0  0  0  0  0  0  0
    1.2090   -5.5011    0.0000 C   0  0  0  0  0  0  0  0  0  0  0  0
    4.7757   -2.8715    0.0000 C   0  0  0  0  0  0  0  0  0  0  0  0
    5.1384   -0.7254    0.0000 C   0  0  0  0  0  0  0  0  0  0  0  0
    0.6348   -2.9622    0.0000 C   0  0  0  0  0  0  0  0  0  0  0  0
    0.6045   -1.5113    0.0000 C   0  0  0  0  0  0  0  0  0  0  0  0
    5.9847   -2.1461    0.0000 C   0  0  0  0  0  0  0  0  0  0  0  0
    5.9545   -0.7254    0.0000 C   0  0  0  0  0  0  0  0  0  0  0  0
    0.2116   -2.2367    0.0000 C   0  0  0  0  0  0  0  0  0  0  0  0
    6.3777   -1.4206    0.0000 C   0  0  0  0  0  0  0  0  0  0  0  0
    0.3627   -3.5364    0.0000 C   0  0  0  0  0  0  0  0  0  0  0  0
    1.8136   -6.0452    0.0000 C   0  0  0  0  0  0  0  0  0  0  0  0
  1 32  1  0  0  0  0
  2 10  1  0  0  0  0
  3  9  1  0  0  0  0
  3 25  1  0  0  0  0
  4 20  2  0  0  0  0
  5 12  1  0  0  0  0
  5 20  1  0  0  0  0
  6 13  1  0  0  0  0
  6 22  2  0  0  0  0
  7 15  1  0  0  0  0
  7 20  1  0  0  0  0
  8 14  1  0  0  0  0
  8 29  2  0  0  0  0
  9 26  2  0  0  0  0
 10 11  1  0  0  0  0
 10 13  1  0  0  0  0
 10 14  1  0  0  0  0
 11 12  1  0  0  0  0
 11 17  2  0  0  0  0
 12 15  2  0  0  0  0
 13 21  2  0  0  0  0
 14 23  2  0  0  0  0
 15 18  1  0  0  0  0
 16 17  1  0  0  0  0
 16 18  2  0  0  0  0
 16 19  1  0  0  0  0
 19 25  2  0  0  0  0
 19 26  1  0  0  0  0
 21 27  1  0  0  0  0
 22 24  1  0  0  0  0
 22 28  1  0  0  0  0
 23 30  1  0  0  0  0
 24 27  2  0  0  0  0
 24 31  1  0  0  0  0
 25 35  1  0  0  0  0
 26 36  1  0  0  0  0
 28 32  2  0  0  0  0
 29 33  1  0  0  0  0
 30 33  2  0  0  0  0
 31 34  2  0  0  0  0
 32 34  1  0  0  0  0
M  END
> <PUBCHEM_COMPOUND_ID_TYPE>
0

> <PUBCHEM_TOTAL_CHARGE>
0

> <PUBCHEM_SUBSTANCE_ID>
310933464

> <PUBCHEM_SUBSTANCE_VERSION>
1

> <PUBCHEM_EXT_DATASOURCE_NAME>
4488

> <PUBCHEM_EXT_DATASOURCE_REGID>
SCHEMBL16110882

> <PUBCHEM_SUBSTANCE_COMMENT>
InChI=1S/C27H20FN5O3/c1-14-24(15(2)36-33-14)17-11-19(25-21(12-17)31-26(34)32-25)27(35,22-5-3-4-10-29-22)23-9-7-16-6-8-18(28)13-20(16)30-23/h3-13,35H,1-2H3,(H2,31,32,34)
InChIKey=HCRMBBXPGOOZOB-UHFFFAOYSA-N

> <PUBCHEM_SUBSTANCE_SYNONYM>
SCHEMBL16110882

> <PUBCHEM_XREF_EXT_ID>
SCHEMBL16110882

> <PUBCHEM_EXT_DATASOURCE_URL>
https://www.surechembl.org/

> <PUBCHEM_EXT_SUBSTANCE_URL>
https://www.surechembl.org/chemical/SCHEMBL16110882

> <PUBCHEM_CID_ASSOCIATIONS>
86296581  1

> <PUBCHEM_COORDINATE_TYPE>
1
3

$$$$
