310946449
  -OEChem-07211613022D

 16 16  0     1  0  0  0  0  0999 V2000
   -1.4233   -6.3132    0.0000 O   0  0  0  0  0  0  0  0  0  0  0  0
   -2.1378   -7.5507    0.0000 O   0  0  0  0  0  0  0  0  0  0  0  0
   -3.5667   -5.0757    0.0000 O   0  0  0  0  0  0  0  0  0  0  0  0
   -3.5667   -6.7257    0.0000 N   0  0  0  0  0  0  0  0  0  0  0  0
   -0.7088   -6.7257    0.0000 C   0  0  0  0  0  0  0  0  0  0  0  0
   -2.1378   -6.7257    0.0000 C   0  0  0  0  0  0  0  0  0  0  0  0
    0.0057   -6.3132    0.0000 C   0  0  0  0  0  0  0  0  0  0  0  0
   -2.8522   -6.3132    0.0000 C   0  0  3  0  0  0  0  0  0  0  0  0
    0.7201   -6.7257    0.0000 C   0  0  0  0  0  0  0  0  0  0  0  0
   -0.7088   -7.5507    0.0000 C   0  0  0  0  0  0  0  0  0  0  0  0
    0.7201   -7.5507    0.0000 C   0  0  0  0  0  0  0  0  0  0  0  0
    0.0057   -7.9632    0.0000 C   0  0  0  0  0  0  0  0  0  0  0  0
   -2.8522   -5.4882    0.0000 C   0  0  0  0  0  0  0  0  0  0  0  0
    1.4346   -6.3132    0.0000 C   0  0  0  0  0  0  0  0  0  0  0  0
    2.1491   -6.7257    0.0000 C   0  0  0  0  0  0  0  0  0  0  0  0
    2.8635   -6.3132    0.0000 C   0  0  0  0  0  0  0  0  0  0  0  0
  1  5  1  0  0  0  0
  1  6  1  0  0  0  0
  2  6  2  0  0  0  0
  3 13  1  0  0  0  0
  4  8  1  0  0  0  0
  5  7  1  0  0  0  0
  5 10  2  0  0  0  0
  6  8  1  0  0  0  0
  7  9  2  0  0  0  0
  8 13  1  0  0  0  0
  9 11  1  0  0  0  0
  9 14  1  0  0  0  0
 10 12  1  0  0  0  0
 11 12  2  0  0  0  0
 14 15  1  0  0  0  0
 15 16  1  0  0  0  0
M  END
> <PUBCHEM_COMPOUND_ID_TYPE>
0

> <PUBCHEM_TOTAL_CHARGE>
0

> <PUBCHEM_SUBSTANCE_ID>
310946449

> <PUBCHEM_SUBSTANCE_VERSION>
1

> <PUBCHEM_EXT_DATASOURCE_NAME>
4488

> <PUBCHEM_EXT_DATASOURCE_REGID>
SCHEMBL16124570

> <PUBCHEM_SUBSTANCE_COMMENT>
InChI=1S/C12H17NO3/c1-2-4-9-5-3-6-10(7-9)16-12(15)11(13)8-14/h3,5-7,11,14H,2,4,8,13H2,1H3
InChIKey=HOTWWCABQSSWCG-UHFFFAOYSA-N

> <PUBCHEM_SUBSTANCE_SYNONYM>
SCHEMBL16124570

> <PUBCHEM_XREF_EXT_ID>
SCHEMBL16124570

> <PUBCHEM_EXT_DATASOURCE_URL>
https://www.surechembl.org/

> <PUBCHEM_EXT_SUBSTANCE_URL>
https://www.surechembl.org/chemical/SCHEMBL16124570

> <PUBCHEM_CID_ASSOCIATIONS>
117612360  1

> <PUBCHEM_COORDINATE_TYPE>
1
3

$$$$
