310943745
  -OEChem-07211613022D

 12 12  0     1  0  0  0  0  0999 V2000
   -1.9594   -1.0588    0.0000 N   0  0  0  0  0  0  0  0  0  0  0  0
    0.4194    0.3025    0.0000 N   0  0  3  0  0  0  0  0  0  0  0  0
   -1.2994   -1.5401    0.0000 N   0  0  0  0  0  0  0  0  0  0  0  0
    2.2069    1.5401    0.0000 N   0  0  0  0  0  0  0  0  0  0  0  0
   -0.8869   -0.2613    0.0000 C   0  0  0  0  0  0  0  0  0  0  0  0
   -1.7119   -0.2475    0.0000 C   0  0  0  0  0  0  0  0  0  0  0  0
   -0.3919    0.4125    0.0000 C   0  0  0  0  0  0  0  0  0  0  0  0
   -0.6394   -1.0312    0.0000 C   0  0  0  0  0  0  0  0  0  0  0  0
   -2.2069    0.4125    0.0000 C   0  0  0  0  0  0  0  0  0  0  0  0
    0.9144    0.9901    0.0000 C   0  0  0  0  0  0  0  0  0  0  0  0
    0.7769   -0.4538    0.0000 C   0  0  0  0  0  0  0  0  0  0  0  0
    1.7257    0.9075    0.0000 C   0  0  0  0  0  0  0  0  0  0  0  0
  1  3  1  0  0  0  0
  1  6  2  0  0  0  0
  2  7  1  0  0  0  0
  2 10  1  0  0  0  0
  2 11  1  0  0  0  0
  3  8  1  0  0  0  0
  4 12  1  0  0  0  0
  5  6  1  0  0  0  0
  5  7  1  0  0  0  0
  5  8  2  0  0  0  0
  6  9  1  0  0  0  0
 10 12  1  0  0  0  0
M  END
> <PUBCHEM_COMPOUND_ID_TYPE>
0

> <PUBCHEM_TOTAL_CHARGE>
0

> <PUBCHEM_SUBSTANCE_ID>
310943745

> <PUBCHEM_SUBSTANCE_VERSION>
1

> <PUBCHEM_EXT_DATASOURCE_NAME>
4488

> <PUBCHEM_EXT_DATASOURCE_REGID>
SCHEMBL16121813

> <PUBCHEM_SUBSTANCE_COMMENT>
InChI=1S/C8H16N4/c1-7-8(5-10-11-7)6-12(2)4-3-9/h5H,3-4,6,9H2,1-2H3,(H,10,11)
InChIKey=UOMNDLWBETWCKG-UHFFFAOYSA-N

> <PUBCHEM_SUBSTANCE_SYNONYM>
SCHEMBL16121813

> <PUBCHEM_XREF_EXT_ID>
SCHEMBL16121813

> <PUBCHEM_EXT_DATASOURCE_URL>
https://www.surechembl.org/

> <PUBCHEM_EXT_SUBSTANCE_URL>
https://www.surechembl.org/chemical/SCHEMBL16121813

> <PUBCHEM_CID_ASSOCIATIONS>
86301377  1

> <PUBCHEM_COORDINATE_TYPE>
1
3

$$$$
