310945400
  -OEChem-07211613022D

 34 38  0     1  0  0  0  0  0999 V2000
    3.5655    0.9766    0.0000 O   0  0  0  0  0  0  0  0  0  0  0  0
   -1.1516   -1.2346    0.0000 O   0  0  0  0  0  0  0  0  0  0  0  0
   -5.5372    0.4975    0.0000 O   0  0  0  0  0  0  0  0  0  0  0  0
   -4.9475    1.9348    0.0000 O   0  0  0  0  0  0  0  0  0  0  0  0
    1.7782   -0.2396    0.0000 N   0  0  0  0  0  0  0  0  0  0  0  0
    3.4181   -0.4238    0.0000 N   0  0  0  0  0  0  0  0  0  0  0  0
   -1.8703    0.0000    0.0000 N   0  0  0  0  0  0  0  0  0  0  0  0
   -3.3813    0.8292    0.0000 N   0  0  0  0  0  0  0  0  0  0  0  0
    2.1098   -0.9950    0.0000 C   0  0  0  0  0  0  0  0  0  0  0  0
    2.2573    0.4238    0.0000 C   0  0  0  0  0  0  0  0  0  0  0  0
    0.9858    0.0185    0.0000 C   0  0  0  0  0  0  0  0  0  0  0  0
    1.0042    0.8292    0.0000 C   0  0  0  0  0  0  0  0  0  0  0  0
    3.0680    0.3132    0.0000 C   0  0  0  0  0  0  0  0  0  0  0  0
    2.9391   -1.0872    0.0000 C   0  0  0  0  0  0  0  0  0  0  0  0
    1.7782    1.0687    0.0000 C   0  0  0  0  0  0  0  0  0  0  0  0
    1.3175   -1.1609    0.0000 C   0  0  0  0  0  0  0  0  0  0  0  0
    2.2204   -1.8243    0.0000 C   0  0  0  0  0  0  0  0  0  0  0  0
    0.2672   -0.4054    0.0000 C   0  0  0  0  0  0  0  0  0  0  0  0
    1.4465   -1.9348    0.0000 C   0  0  0  0  0  0  0  0  0  0  0  0
   -0.4515    0.0000    0.0000 C   0  0  0  0  0  0  0  0  0  0  0  0
    0.2672    1.2346    0.0000 C   0  0  0  0  0  0  0  0  0  0  0  0
   -0.4146    0.8292    0.0000 C   0  0  0  0  0  0  0  0  0  0  0  0
   -1.1516   -0.3870    0.0000 C   0  0  0  0  0  0  0  0  0  0  0  0
    6.2189   -0.2580    0.0000 C   0  0  0  0  0  0  0  0  0  0  0  0
   -2.5889   -0.4054    0.0000 C   0  0  3  0  0  0  0  0  0  0  0  0
   -3.3076    0.0185    0.0000 C   0  0  3  0  0  0  0  0  0  0  0  0
   -2.7547   -1.2161    0.0000 C   0  0  0  0  0  0  0  0  0  0  0  0
   -3.8972   -0.5712    0.0000 C   0  0  0  0  0  0  0  0  0  0  0  0
   -3.5655   -1.2899    0.0000 C   0  0  0  0  0  0  0  0  0  0  0  0
   -4.8186    1.0872    0.0000 C   0  0  0  0  0  0  0  0  0  0  0  0
   -5.4082   -0.4238    0.0000 C   0  0  0  0  0  0  0  0  0  0  0  0
   -6.2189   -0.5897    0.0000 C   0  0  0  0  0  0  0  0  0  0  0  0
   -4.5975   -0.2764    0.0000 C   0  0  0  0  0  0  0  0  0  0  0  0
   -5.2424   -1.3082    0.0000 C   0  0  0  0  0  0  0  0  0  0  0  0
  1 13  2  0  0  0  0
  2 23  2  0  0  0  0
  3 30  1  0  0  0  0
  3 31  1  0  0  0  0
  4 30  2  0  0  0  0
  5  9  1  0  0  0  0
  5 10  1  0  0  0  0
  5 11  1  0  0  0  0
  6 13  1  0  0  0  0
  6 14  1  0  0  0  0
  6 24  1  0  0  0  0
  7 23  1  0  0  0  0
  7 25  1  0  0  0  0
  8 26  1  0  0  0  0
  8 30  1  0  0  0  0
  9 14  1  0  0  0  0
  9 16  1  0  0  0  0
  9 17  1  0  0  0  0
 10 13  1  0  0  0  0
 10 15  2  0  0  0  0
 11 12  1  0  0  0  0
 11 18  2  0  0  0  0
 12 15  1  0  0  0  0
 12 21  2  0  0  0  0
 16 19  1  0  0  0  0
 17 19  1  0  0  0  0
 18 20  1  0  0  0  0
 20 22  2  0  0  0  0
 20 23  1  0  0  0  0
 21 22  1  0  0  0  0
 25 26  1  0  0  0  0
 25 27  1  0  0  0  0
 26 28  1  0  0  0  0
 27 29  1  0  0  0  0
 28 29  1  0  0  0  0
 31 32  1  0  0  0  0
 31 33  1  0  0  0  0
 31 34  1  0  0  0  0
M  END
> <PUBCHEM_COMPOUND_ID_TYPE>
0

> <PUBCHEM_TOTAL_CHARGE>
0

> <PUBCHEM_SUBSTANCE_ID>
310945400

> <PUBCHEM_SUBSTANCE_VERSION>
1

> <PUBCHEM_EXT_DATASOURCE_NAME>
4488

> <PUBCHEM_EXT_DATASOURCE_REGID>
SCHEMBL16123498

> <PUBCHEM_SUBSTANCE_COMMENT>
InChI=1S/C26H34N4O4/c1-25(2,3)34-24(33)28-19-8-5-7-18(19)27-22(31)17-10-9-16-13-21-23(32)29(4)15-26(11-6-12-26)30(21)20(16)14-17/h9-10,13-14,18-19H,5-8,11-12,15H2,1-4H3,(H,27,31)(H,28,33)
InChIKey=HSTVUZLSGVKKMM-UHFFFAOYSA-N

> <PUBCHEM_SUBSTANCE_SYNONYM>
SCHEMBL16123498

> <PUBCHEM_XREF_EXT_ID>
SCHEMBL16123498

> <PUBCHEM_EXT_DATASOURCE_URL>
https://www.surechembl.org/

> <PUBCHEM_EXT_SUBSTANCE_URL>
https://www.surechembl.org/chemical/SCHEMBL16123498

> <PUBCHEM_CID_ASSOCIATIONS>
117611448  1

> <PUBCHEM_COORDINATE_TYPE>
1
3

$$$$
