310938845
  -OEChem-07211613022D

 78 92  0     1  0  0  0  0  0999 V2000
    4.1928   -3.0949    0.0000 N   0  0  0  0  0  0  0  0  0  0  0  0
   -4.1928   -3.0949    0.0000 N   0  0  0  0  0  0  0  0  0  0  0  0
    0.0000    0.1960    0.0000 N   0  0  0  0  0  0  0  0  0  0  0  0
    2.8579   -1.4540    0.0000 C   0  0  3  0  0  0  0  0  0  0  0  0
   -2.8579   -1.4540    0.0000 C   0  0  3  0  0  0  0  0  0  0  0  0
    3.6116   -1.7895    0.0000 C   0  0  0  0  0  0  0  0  0  0  0  0
   -3.6116   -1.7895    0.0000 C   0  0  0  0  0  0  0  0  0  0  0  0
    2.3059   -2.0671    0.0000 C   0  0  0  0  0  0  0  0  0  0  0  0
   -2.3059   -2.0671    0.0000 C   0  0  0  0  0  0  0  0  0  0  0  0
    3.5253   -2.6100    0.0000 C   0  0  0  0  0  0  0  0  0  0  0  0
   -3.5253   -2.6100    0.0000 C   0  0  0  0  0  0  0  0  0  0  0  0
    2.7184   -2.7815    0.0000 C   0  0  0  0  0  0  0  0  0  0  0  0
   -2.7184   -2.7815    0.0000 C   0  0  0  0  0  0  0  0  0  0  0  0
    4.3652   -1.4540    0.0000 C   0  0  0  0  0  0  0  0  0  0  0  0
   -4.3652   -1.4540    0.0000 C   0  0  0  0  0  0  0  0  0  0  0  0
    2.1434   -1.0415    0.0000 C   0  0  0  0  0  0  0  0  0  0  0  0
   -2.1434   -1.0415    0.0000 C   0  0  0  0  0  0  0  0  0  0  0  0
    3.0714   -0.6571    0.0000 C   0  0  0  0  0  0  0  0  0  0  0  0
   -3.0714   -0.6571    0.0000 C   0  0  0  0  0  0  0  0  0  0  0  0
    5.0327   -1.9389    0.0000 C   0  0  0  0  0  0  0  0  0  0  0  0
   -5.0327   -1.9389    0.0000 C   0  0  0  0  0  0  0  0  0  0  0  0
    4.9464   -2.7594    0.0000 C   0  0  0  0  0  0  0  0  0  0  0  0
   -4.9464   -2.7594    0.0000 C   0  0  0  0  0  0  0  0  0  0  0  0
    1.4809   -2.0671    0.0000 C   0  0  0  0  0  0  0  0  0  0  0  0
   -1.4809   -2.0671    0.0000 C   0  0  0  0  0  0  0  0  0  0  0  0
    4.7777   -0.7395    0.0000 C   0  0  0  0  0  0  0  0  0  0  0  0
   -4.7777   -0.7395    0.0000 C   0  0  0  0  0  0  0  0  0  0  0  0
    2.3059   -3.4960    0.0000 C   0  0  0  0  0  0  0  0  0  0  0  0
   -2.3059   -3.4960    0.0000 C   0  0  0  0  0  0  0  0  0  0  0  0
    1.4289   -1.4540    0.0000 C   0  0  0  0  0  0  0  0  0  0  0  0
   -1.4289   -1.4540    0.0000 C   0  0  0  0  0  0  0  0  0  0  0  0
    2.1434   -0.2165    0.0000 C   0  0  0  0  0  0  0  0  0  0  0  0
   -2.1434   -0.2165    0.0000 C   0  0  0  0  0  0  0  0  0  0  0  0
    2.4880   -0.0737    0.0000 C   0  0  0  0  0  0  0  0  0  0  0  0
   -2.4880   -0.0737    0.0000 C   0  0  0  0  0  0  0  0  0  0  0  0
    3.8683   -0.4436    0.0000 C   0  0  0  0  0  0  0  0  0  0  0  0
   -3.8683   -0.4436    0.0000 C   0  0  0  0  0  0  0  0  0  0  0  0
    5.7863   -1.6033    0.0000 C   0  0  0  0  0  0  0  0  0  0  0  0
   -5.7863   -1.6033    0.0000 C   0  0  0  0  0  0  0  0  0  0  0  0
    0.7145   -0.2165    0.0000 C   0  0  0  0  0  0  0  0  0  0  0  0
   -0.7145   -0.2165    0.0000 C   0  0  0  0  0  0  0  0  0  0  0  0
    1.0684   -2.7815    0.0000 C   0  0  0  0  0  0  0  0  0  0  0  0
   -1.0684   -2.7815    0.0000 C   0  0  0  0  0  0  0  0  0  0  0  0
    1.4809   -3.4960    0.0000 C   0  0  0  0  0  0  0  0  0  0  0  0
   -1.4809   -3.4960    0.0000 C   0  0  0  0  0  0  0  0  0  0  0  0
    0.7145   -1.0415    0.0000 C   0  0  0  0  0  0  0  0  0  0  0  0
   -0.7145   -1.0415    0.0000 C   0  0  0  0  0  0  0  0  0  0  0  0
    1.4289    0.1960    0.0000 C   0  0  0  0  0  0  0  0  0  0  0  0
   -1.4289    0.1960    0.0000 C   0  0  0  0  0  0  0  0  0  0  0  0
    5.6139   -3.2443    0.0000 C   0  0  0  0  0  0  0  0  0  0  0  0
   -5.6139   -3.2443    0.0000 C   0  0  0  0  0  0  0  0  0  0  0  0
    5.6027   -0.7395    0.0000 C   0  0  0  0  0  0  0  0  0  0  0  0
   -5.6027   -0.7395    0.0000 C   0  0  0  0  0  0  0  0  0  0  0  0
    4.3652   -0.0250    0.0000 C   0  0  0  0  0  0  0  0  0  0  0  0
   -4.3652   -0.0250    0.0000 C   0  0  0  0  0  0  0  0  0  0  0  0
    2.7016    0.7232    0.0000 C   0  0  0  0  0  0  0  0  0  0  0  0
   -2.7016    0.7232    0.0000 C   0  0  0  0  0  0  0  0  0  0  0  0
    4.0818    0.3533    0.0000 C   0  0  0  0  0  0  0  0  0  0  0  0
   -4.0818    0.3533    0.0000 C   0  0  0  0  0  0  0  0  0  0  0  0
    6.4538   -2.0883    0.0000 C   0  0  0  0  0  0  0  0  0  0  0  0
   -6.4538   -2.0883    0.0000 C   0  0  0  0  0  0  0  0  0  0  0  0
    6.3676   -2.9088    0.0000 C   0  0  0  0  0  0  0  0  0  0  0  0
   -6.3676   -2.9087    0.0000 C   0  0  0  0  0  0  0  0  0  0  0  0
    0.0000    1.0210    0.0000 C   0  0  0  0  0  0  0  0  0  0  0  0
    3.4985    0.9367    0.0000 C   0  0  0  0  0  0  0  0  0  0  0  0
   -3.4985    0.9367    0.0000 C   0  0  0  0  0  0  0  0  0  0  0  0
    6.0152   -0.0250    0.0000 C   0  0  0  0  0  0  0  0  0  0  0  0
   -6.0152   -0.0250    0.0000 C   0  0  0  0  0  0  0  0  0  0  0  0
    4.7777    0.6894    0.0000 C   0  0  0  0  0  0  0  0  0  0  0  0
   -4.7777    0.6894    0.0000 C   0  0  0  0  0  0  0  0  0  0  0  0
    5.6027    0.6894    0.0000 C   0  0  0  0  0  0  0  0  0  0  0  0
   -5.6027    0.6894    0.0000 C   0  0  0  0  0  0  0  0  0  0  0  0
   -0.7145    1.4335    0.0000 C   0  0  0  0  0  0  0  0  0  0  0  0
    0.7145    1.4335    0.0000 C   0  0  0  0  0  0  0  0  0  0  0  0
   -0.7145    2.2585    0.0000 C   0  0  0  0  0  0  0  0  0  0  0  0
    0.7145    2.2585    0.0000 C   0  0  0  0  0  0  0  0  0  0  0  0
    0.0000    2.6710    0.0000 C   0  0  0  0  0  0  0  0  0  0  0  0
    0.0000    3.4960    0.0000 C   0  0  0  0  0  0  0  0  0  0  0  0
  1 10  1  0  0  0  0
  1 22  2  0  0  0  0
  2 11  1  0  0  0  0
  2 23  2  0  0  0  0
  3 40  1  0  0  0  0
  3 41  1  0  0  0  0
  3 64  1  0  0  0  0
  4  6  1  0  0  0  0
  4  8  1  0  0  0  0
  4 16  1  0  0  0  0
  4 18  1  0  0  0  0
  5  7  1  0  0  0  0
  5  9  1  0  0  0  0
  5 17  1  0  0  0  0
  5 19  1  0  0  0  0
  6 10  2  0  0  0  0
  6 14  1  0  0  0  0
  7 11  2  0  0  0  0
  7 15  1  0  0  0  0
  8 12  2  0  0  0  0
  8 24  1  0  0  0  0
  9 13  2  0  0  0  0
  9 25  1  0  0  0  0
 10 12  1  0  0  0  0
 11 13  1  0  0  0  0
 12 28  1  0  0  0  0
 13 29  1  0  0  0  0
 14 20  2  0  0  0  0
 14 26  1  0  0  0  0
 15 21  2  0  0  0  0
 15 27  1  0  0  0  0
 16 30  2  0  0  0  0
 16 32  1  0  0  0  0
 17 31  2  0  0  0  0
 17 33  1  0  0  0  0
 18 34  2  0  0  0  0
 18 36  1  0  0  0  0
 19 35  2  0  0  0  0
 19 37  1  0  0  0  0
 20 22  1  0  0  0  0
 20 38  1  0  0  0  0
 21 23  1  0  0  0  0
 21 39  1  0  0  0  0
 22 50  1  0  0  0  0
 23 51  1  0  0  0  0
 24 42  2  0  0  0  0
 25 43  2  0  0  0  0
 26 52  2  0  0  0  0
 26 54  1  0  0  0  0
 27 53  2  0  0  0  0
 27 55  1  0  0  0  0
 28 44  2  0  0  0  0
 29 45  2  0  0  0  0
 30 46  1  0  0  0  0
 31 47  1  0  0  0  0
 32 48  2  0  0  0  0
 33 49  2  0  0  0  0
 34 56  1  0  0  0  0
 35 57  1  0  0  0  0
 36 58  2  0  0  0  0
 37 59  2  0  0  0  0
 38 60  2  0  0  0  0
 39 61  2  0  0  0  0
 40 46  2  0  0  0  0
 40 48  1  0  0  0  0
 41 47  2  0  0  0  0
 41 49  1  0  0  0  0
 42 44  1  0  0  0  0
 43 45  1  0  0  0  0
 50 62  2  0  0  0  0
 51 63  2  0  0  0  0
 52 67  1  0  0  0  0
 53 68  1  0  0  0  0
 54 69  2  0  0  0  0
 55 70  2  0  0  0  0
 56 65  2  0  0  0  0
 57 66  2  0  0  0  0
 58 65  1  0  0  0  0
 59 66  1  0  0  0  0
 60 62  1  0  0  0  0
 61 63  1  0  0  0  0
 64 73  2  0  0  0  0
 64 74  1  0  0  0  0
 67 71  2  0  0  0  0
 68 72  2  0  0  0  0
 69 71  1  0  0  0  0
 70 72  1  0  0  0  0
 73 75  1  0  0  0  0
 74 76  2  0  0  0  0
 75 77  2  0  0  0  0
 76 77  1  0  0  0  0
 77 78  1  0  0  0  0
M  END
> <PUBCHEM_COMPOUND_ID_TYPE>
0

> <PUBCHEM_TOTAL_CHARGE>
0

> <PUBCHEM_SUBSTANCE_ID>
310938845

> <PUBCHEM_SUBSTANCE_VERSION>
1

> <PUBCHEM_EXT_DATASOURCE_NAME>
4488

> <PUBCHEM_EXT_DATASOURCE_REGID>
SCHEMBL16116764

> <PUBCHEM_SUBSTANCE_COMMENT>
InChI=1S/C75H51N3/c1-50-38-44-57(45-39-50)78(58-46-40-55(41-47-58)74(53-26-10-4-11-27-53)64-34-18-14-30-60(64)72-70(74)68(51-22-6-2-7-23-51)62-32-16-20-36-66(62)76-72)59-48-42-56(43-49-59)75(54-28-12-5-13-29-54)65-35-19-15-31-61(65)73-71(75)69(52-24-8-3-9-25-52)63-33-17-21-37-67(63)77-73/h2-49H,1H3
InChIKey=PNWSHHUVPMZLRC-UHFFFAOYSA-N

> <PUBCHEM_SUBSTANCE_SYNONYM>
SCHEMBL16116764

> <PUBCHEM_XREF_EXT_ID>
SCHEMBL16116764

> <PUBCHEM_EXT_DATASOURCE_URL>
https://www.surechembl.org/

> <PUBCHEM_EXT_SUBSTANCE_URL>
https://www.surechembl.org/chemical/SCHEMBL16116764

> <PUBCHEM_CID_ASSOCIATIONS>
117606245  1

> <PUBCHEM_COORDINATE_TYPE>
1
3

$$$$
