310933326
  -OEChem-07211613022D

 32 36  0     1  0  0  0  0  0999 V2000
    3.0939   -0.0229    0.0000 O   0  0  0  0  0  0  0  0  0  0  0  0
    0.0000   -3.5064    0.0000 O   0  0  0  0  0  0  0  0  0  0  0  0
    5.5002   -2.3834    0.0000 O   0  0  0  0  0  0  0  0  0  0  0  0
    4.1710   -1.7188    0.0000 N   0  0  0  0  0  0  0  0  0  0  0  0
    4.1710   -3.0481    0.0000 N   0  0  0  0  0  0  0  0  0  0  0  0
    1.4667   -1.4438    0.0000 N   0  0  0  0  0  0  0  0  0  0  0  0
    0.3896   -4.2169    0.0000 N   0  0  0  0  0  0  0  0  0  0  0  0
    2.6814   -0.7334    0.0000 C   0  0  3  0  0  0  0  0  0  0  0  0
    2.6814   -1.5584    0.0000 C   0  0  0  0  0  0  0  0  0  0  0  0
    3.4147   -1.9480    0.0000 C   0  0  0  0  0  0  0  0  0  0  0  0
    3.4147   -2.8189    0.0000 C   0  0  0  0  0  0  0  0  0  0  0  0
    3.5064   -0.7334    0.0000 C   0  0  0  0  0  0  0  0  0  0  0  0
    1.8563   -0.7563    0.0000 C   0  0  0  0  0  0  0  0  0  0  0  0
    1.9939   -2.8189    0.0000 C   0  0  0  0  0  0  0  0  0  0  0  0
    1.9939   -1.9480    0.0000 C   0  0  0  0  0  0  0  0  0  0  0  0
    2.6814   -3.2084    0.0000 C   0  0  0  0  0  0  0  0  0  0  0  0
    1.2834   -3.2314    0.0000 C   0  0  0  0  0  0  0  0  0  0  0  0
    4.6752   -2.3834    0.0000 C   0  0  0  0  0  0  0  0  0  0  0  0
    3.9189   -1.4209    0.0000 C   0  0  0  0  0  0  0  0  0  0  0  0
    0.5271   -2.9105    0.0000 C   0  0  0  0  0  0  0  0  0  0  0  0
    1.1917   -4.0335    0.0000 C   0  0  0  0  0  0  0  0  0  0  0  0
    3.8960    0.0000    0.0000 C   0  0  0  0  0  0  0  0  0  0  0  0
    1.4438   -0.0229    0.0000 C   0  0  0  0  0  0  0  0  0  0  0  0
    4.7210   -1.4209    0.0000 C   0  0  0  0  0  0  0  0  0  0  0  0
    4.7210    0.0000    0.0000 C   0  0  0  0  0  0  0  0  0  0  0  0
    0.6417   -1.4896    0.0000 C   0  0  0  0  0  0  0  0  0  0  0  0
    0.6187   -0.0688    0.0000 C   0  0  0  0  0  0  0  0  0  0  0  0
    5.1335   -0.7104    0.0000 C   0  0  0  0  0  0  0  0  0  0  0  0
    0.2292   -0.7792    0.0000 C   0  0  0  0  0  0  0  0  0  0  0  0
    0.3438   -2.0855    0.0000 C   0  0  0  0  0  0  0  0  0  0  0  0
    1.8105   -4.5835    0.0000 C   0  0  0  0  0  0  0  0  0  0  0  0
    5.1564   -2.1313    0.0000 C   0  0  0  0  0  0  0  0  0  0  0  0
  1  8  1  0  0  0  0
  2  7  1  0  0  0  0
  2 20  1  0  0  0  0
  3 18  2  0  0  0  0
  4 10  1  0  0  0  0
  4 18  1  0  0  0  0
  5 11  1  0  0  0  0
  5 18  1  0  0  0  0
  6 13  1  0  0  0  0
  6 26  2  0  0  0  0
  7 21  2  0  0  0  0
  8  9  1  0  0  0  0
  8 12  1  0  0  0  0
  8 13  1  0  0  0  0
  9 10  1  0  0  0  0
  9 15  2  0  0  0  0
 10 11  2  0  0  0  0
 11 16  1  0  0  0  0
 12 19  1  0  0  0  0
 12 22  2  0  0  0  0
 13 23  2  0  0  0  0
 14 15  1  0  0  0  0
 14 16  2  0  0  0  0
 14 17  1  0  0  0  0
 17 20  2  0  0  0  0
 17 21  1  0  0  0  0
 19 24  2  0  0  0  0
 20 30  1  0  0  0  0
 21 31  1  0  0  0  0
 22 25  1  0  0  0  0
 23 27  1  0  0  0  0
 24 28  1  0  0  0  0
 24 32  1  0  0  0  0
 25 28  2  0  0  0  0
 26 29  1  0  0  0  0
 27 29  2  0  0  0  0
M  END
> <PUBCHEM_COMPOUND_ID_TYPE>
0

> <PUBCHEM_TOTAL_CHARGE>
0

> <PUBCHEM_SUBSTANCE_ID>
310933326

> <PUBCHEM_SUBSTANCE_VERSION>
1

> <PUBCHEM_EXT_DATASOURCE_NAME>
4488

> <PUBCHEM_EXT_DATASOURCE_REGID>
SCHEMBL16110738

> <PUBCHEM_SUBSTANCE_COMMENT>
InChI=1S/C25H22N4O3/c1-14-7-6-8-18(11-14)25(31,21-9-4-5-10-26-21)19-12-17(22-15(2)29-32-16(22)3)13-20-23(19)28-24(30)27-20/h4-13,31H,1-3H3,(H2,27,28,30)
InChIKey=KPCPQLLBNWTNNU-UHFFFAOYSA-N

> <PUBCHEM_SUBSTANCE_SYNONYM>
SCHEMBL16110738

> <PUBCHEM_XREF_EXT_ID>
SCHEMBL16110738

> <PUBCHEM_EXT_DATASOURCE_URL>
https://www.surechembl.org/

> <PUBCHEM_EXT_SUBSTANCE_URL>
https://www.surechembl.org/chemical/SCHEMBL16110738

> <PUBCHEM_CID_ASSOCIATIONS>
117601740  1

> <PUBCHEM_COORDINATE_TYPE>
1
3

$$$$
