310949793
  -OEChem-07211613022D

 19 19  0     1  0  0  0  0  0999 V2000
    0.7070   -1.4142    0.0000 O   0  0  0  0  0  0  0  0  0  0  0  0
    0.7266    0.2340    0.0000 N   0  0  3  0  0  0  0  0  0  0  0  0
   -0.6973    1.0436    0.0000 N   0  0  3  0  0  0  0  0  0  0  0  0
   -0.7754   -1.4239    0.0000 N   0  0  0  0  0  0  0  0  0  0  0  0
    2.8527   -0.1755    0.0000 N   0  0  0  0  0  0  0  0  0  0  0  0
   -2.8428    1.4628    0.0000 N   0  0  0  0  0  0  0  0  0  0  0  0
    0.0049   -0.1951    0.0000 C   0  0  3  0  0  0  0  0  0  0  0  0
   -0.7168    0.2243    0.0000 C   0  0  0  0  0  0  0  0  0  0  0  0
   -0.0243   -1.0045    0.0000 C   0  0  0  0  0  0  0  0  0  0  0  0
    0.7070    1.0436    0.0000 C   0  0  0  0  0  0  0  0  0  0  0  0
   -0.0146    1.4434    0.0000 C   0  0  0  0  0  0  0  0  0  0  0  0
    1.4385   -0.1853    0.0000 C   0  0  0  0  0  0  0  0  0  0  0  0
   -1.4288    1.4434    0.0000 C   0  0  0  0  0  0  0  0  0  0  0  0
    2.1212    0.2146    0.0000 C   0  0  0  0  0  0  0  0  0  0  0  0
   -2.1115    1.0436    0.0000 C   0  0  0  0  0  0  0  0  0  0  0  0
   -1.6140   -1.4628    0.0000 C   0  0  0  0  0  0  0  0  0  0  0  0
    3.5646    0.2146    0.0000 C   0  0  0  0  0  0  0  0  0  0  0  0
    2.8331   -1.0143    0.0000 C   0  0  0  0  0  0  0  0  0  0  0  0
   -3.5646    1.0436    0.0000 C   0  0  0  0  0  0  0  0  0  0  0  0
  1  9  2  0  0  0  0
  2  7  1  0  0  0  0
  2 10  1  0  0  0  0
  2 12  1  0  0  0  0
  3  8  1  0  0  0  0
  3 11  1  0  0  0  0
  3 13  1  0  0  0  0
  4  9  1  0  0  0  0
  4 16  1  0  0  0  0
  5 14  1  0  0  0  0
  5 17  1  0  0  0  0
  5 18  1  0  0  0  0
  6 15  1  0  0  0  0
  6 19  1  0  0  0  0
  7  8  1  0  0  0  0
  7  9  1  0  0  0  0
 10 11  1  0  0  0  0
 12 14  1  0  0  0  0
 13 15  1  0  0  0  0
M  END
> <PUBCHEM_COMPOUND_ID_TYPE>
0

> <PUBCHEM_TOTAL_CHARGE>
0

> <PUBCHEM_SUBSTANCE_ID>
310949793

> <PUBCHEM_SUBSTANCE_VERSION>
1

> <PUBCHEM_EXT_DATASOURCE_NAME>
4488

> <PUBCHEM_EXT_DATASOURCE_REGID>
SCHEMBL16127991

> <PUBCHEM_SUBSTANCE_COMMENT>
InChI=1S/C13H29N5O/c1-14-5-6-17-8-10-18(9-7-16(3)4)12(11-17)13(19)15-2/h12,14H,5-11H2,1-4H3,(H,15,19)
InChIKey=HFCCFACIFHEUOV-UHFFFAOYSA-N

> <PUBCHEM_SUBSTANCE_SYNONYM>
SCHEMBL16127991

> <PUBCHEM_XREF_EXT_ID>
SCHEMBL16127991

> <PUBCHEM_EXT_DATASOURCE_URL>
https://www.surechembl.org/

> <PUBCHEM_EXT_SUBSTANCE_URL>
https://www.surechembl.org/chemical/SCHEMBL16127991

> <PUBCHEM_CID_ASSOCIATIONS>
117615115  1

> <PUBCHEM_COORDINATE_TYPE>
1
3

$$$$
