310946668
  -OEChem-07211613022D

 31 35  0     1  0  0  0  0  0999 V2000
    2.2948   16.1061    0.0000 Cl  0  0  0  0  0  0  0  0  0  0  0  0
    2.3799   11.7962    0.0000 S   0  0  0  0  0  0  0  0  0  0  0  0
   -1.5626   16.8206    0.0000 O   0  0  0  0  0  0  0  0  0  0  0  0
    0.9849   12.5808    0.0000 O   0  0  0  0  0  0  0  0  0  0  0  0
    0.9849   15.4387    0.0000 N   0  0  0  0  0  0  0  0  0  0  0  0
   -0.2526   14.7242    0.0000 N   0  0  0  0  0  0  0  0  0  0  0  0
   -0.2526   16.1531    0.0000 N   0  0  0  0  0  0  0  0  0  0  0  0
    2.7073   14.0568    0.0000 N   0  0  0  0  0  0  0  0  0  0  0  0
   -1.5626   15.4857    0.0000 N   0  0  0  0  0  0  0  0  0  0  0  0
    2.2224   13.2953    0.0000 N   0  0  0  0  0  0  0  0  0  0  0  0
    3.4599   12.5808    0.0000 N   0  0  0  0  0  0  0  0  0  0  0  0
    3.7148   11.7962    0.0000 N   0  0  0  0  0  0  0  0  0  0  0  0
    1.3974   14.7242    0.0000 C   0  0  3  0  0  0  0  0  0  0  0  0
    0.9849   14.0097    0.0000 C   0  0  0  0  0  0  0  0  0  0  0  0
    2.2224   14.7242    0.0000 C   0  0  0  0  0  0  0  0  0  0  0  0
    0.1599   14.0097    0.0000 C   0  0  0  0  0  0  0  0  0  0  0  0
    0.1599   15.4387    0.0000 C   0  0  0  0  0  0  0  0  0  0  0  0
    1.3974   13.2953    0.0000 C   0  0  0  0  0  0  0  0  0  0  0  0
    2.7073   15.3916    0.0000 C   0  0  0  0  0  0  0  0  0  0  0  0
   -1.0776   16.1531    0.0000 C   0  0  0  0  0  0  0  0  0  0  0  0
   -2.3472   16.5656    0.0000 C   0  0  0  0  0  0  0  0  0  0  0  0
   -2.3472   15.7406    0.0000 C   0  0  0  0  0  0  0  0  0  0  0  0
    3.4919   15.1367    0.0000 C   0  0  0  0  0  0  0  0  0  0  0  0
    3.4919   14.3117    0.0000 C   0  0  0  0  0  0  0  0  0  0  0  0
    2.6349   12.5808    0.0000 C   0  0  0  0  0  0  0  0  0  0  0  0
   -0.2526   13.2953    0.0000 C   0  0  0  0  0  0  0  0  0  0  0  0
   -3.0616   16.9781    0.0000 C   0  0  0  0  0  0  0  0  0  0  0  0
   -3.0616   15.3281    0.0000 C   0  0  0  0  0  0  0  0  0  0  0  0
   -3.7761   16.5656    0.0000 C   0  0  0  0  0  0  0  0  0  0  0  0
   -3.7761   15.7406    0.0000 C   0  0  0  0  0  0  0  0  0  0  0  0
    3.0474   11.3113    0.0000 C   0  0  0  0  0  0  0  0  0  0  0  0
  1 19  1  0  0  0  0
  2 25  1  0  0  0  0
  2 31  1  0  0  0  0
  3 20  1  0  0  0  0
  3 21  1  0  0  0  0
  4 18  2  0  0  0  0
  5 13  1  0  0  0  0
  5 17  2  0  0  0  0
  6 16  1  0  0  0  0
  6 17  1  0  0  0  0
  7 17  1  0  0  0  0
  7 20  1  0  0  0  0
  8 15  2  0  0  0  0
  8 24  1  0  0  0  0
  9 20  2  0  0  0  0
  9 22  1  0  0  0  0
 10 18  1  0  0  0  0
 10 25  1  0  0  0  0
 11 12  1  0  0  0  0
 11 25  2  0  0  0  0
 12 31  2  0  0  0  0
 13 14  1  0  0  0  0
 13 15  1  0  0  0  0
 14 16  2  0  0  0  0
 14 18  1  0  0  0  0
 15 19  1  0  0  0  0
 16 26  1  0  0  0  0
 19 23  2  0  0  0  0
 21 22  1  0  0  0  0
 21 27  2  0  0  0  0
 22 28  2  0  0  0  0
 23 24  1  0  0  0  0
 27 29  1  0  0  0  0
 28 30  1  0  0  0  0
 29 30  2  0  0  0  0
M  END
> <PUBCHEM_COMPOUND_ID_TYPE>
0

> <PUBCHEM_TOTAL_CHARGE>
0

> <PUBCHEM_SUBSTANCE_ID>
310946668

> <PUBCHEM_SUBSTANCE_VERSION>
1

> <PUBCHEM_EXT_DATASOURCE_NAME>
4488

> <PUBCHEM_EXT_DATASOURCE_REGID>
SCHEMBL16124789

> <PUBCHEM_SUBSTANCE_COMMENT>
InChI=1S/C19H15ClN8O2S/c1-9-13(16(29)26-19-28-22-8-31-19)15(14-10(20)6-7-21-14)25-17(23-9)27-18-24-11-4-2-3-5-12(11)30-18/h2-6,8,15H,7H2,1H3,(H,26,28,29)(H2,23,24,25,27)
InChIKey=LYCZWPYQSVDBAE-UHFFFAOYSA-N

> <PUBCHEM_SUBSTANCE_SYNONYM>
SCHEMBL16124789

> <PUBCHEM_XREF_EXT_ID>
SCHEMBL16124789

> <PUBCHEM_EXT_DATASOURCE_URL>
https://www.surechembl.org/

> <PUBCHEM_EXT_SUBSTANCE_URL>
https://www.surechembl.org/chemical/SCHEMBL16124789

> <PUBCHEM_CID_ASSOCIATIONS>
117612568  1

> <PUBCHEM_COORDINATE_TYPE>
1
3

$$$$
