310938743
  -OEChem-07211613022D

109116  0     1  0  0  0  0  0999 V2000
    2.0303  -13.2862    0.0000 S   0  0  0  0  0  0  0  0  0  0  0  0
   -8.5884  -11.9900    0.0000 S   0  0  0  0  0  0  0  0  0  0  0  0
    3.7337  -16.8099    0.0000 S   0  0  0  0  0  0  0  0  0  0  0  0
  -10.2917   -8.4663    0.0000 S   0  0  0  0  0  0  0  0  0  0  0  0
   -6.8830  -13.8291    0.0000 O   0  0  0  0  0  0  0  0  0  0  0  0
    0.8252  -11.7977    0.0000 O   0  0  0  0  0  0  0  0  0  0  0  0
   -0.4824  -14.4748    0.0000 O   0  0  0  0  0  0  0  0  0  0  0  0
   -7.2613   -9.7753    0.0000 O   0  0  0  0  0  0  0  0  0  0  0  0
   -4.0986  -15.7197    0.0000 O   0  0  0  0  0  0  0  0  0  0  0  0
   -0.5841   -9.2782    0.0000 O   0  0  0  0  0  0  0  0  0  0  0  0
   -3.6279   -8.3557    0.0000 O   0  0  0  0  0  0  0  0  0  0  0  0
    0.8944  -13.9635    0.0000 O   0  0  0  0  0  0  0  0  0  0  0  0
   -7.6145  -11.3017    0.0000 O   0  0  0  0  0  0  0  0  0  0  0  0
   -6.3036  -15.2095    0.0000 O   0  0  0  0  0  0  0  0  0  0  0  0
   -2.6136  -15.8476    0.0000 O   0  0  0  0  0  0  0  0  0  0  0  0
    1.6023  -10.4210    0.0000 O   0  0  0  0  0  0  0  0  0  0  0  0
   -5.7065   -7.8672    0.0000 O   0  0  0  0  0  0  0  0  0  0  0  0
   -1.1505   -7.7756    0.0000 O   0  0  0  0  0  0  0  0  0  0  0  0
   -0.8258  -12.9176    0.0000 O   0  0  0  0  0  0  0  0  0  0  0  0
   -5.7323  -12.1911    0.0000 O   0  0  0  0  0  0  0  0  0  0  0  0
   -1.9888  -13.7921    0.0000 O   0  0  0  0  0  0  0  0  0  0  0  0
   -4.3747  -14.3409    0.0000 O   0  0  0  0  0  0  0  0  0  0  0  0
   -0.4580  -13.8887    0.0000 O   0  0  0  0  0  0  0  0  0  0  0  0
   -6.4680  -10.8802    0.0000 O   0  0  0  0  0  0  0  0  0  0  0  0
   -0.5338  -10.3009    0.0000 O   0  0  0  0  0  0  0  0  0  0  0  0
   -5.7306  -10.0727    0.0000 O   0  0  0  0  0  0  0  0  0  0  0  0
   -5.5657  -14.0612    0.0000 O   0  0  0  0  0  0  0  0  0  0  0  0
   -2.8352   -9.1904    0.0000 O   0  0  0  0  0  0  0  0  0  0  0  0
   -2.9700  -14.5019    0.0000 O   0  0  0  0  0  0  0  0  0  0  0  0
    0.3946  -11.0894    0.0000 O   0  0  0  0  0  0  0  0  0  0  0  0
   -4.7683   -8.8753    0.0000 O   0  0  0  0  0  0  0  0  0  0  0  0
   -1.6945   -9.1150    0.0000 O   0  0  0  0  0  0  0  0  0  0  0  0
   -1.0352  -16.2552    0.0000 O   0  0  0  0  0  0  0  0  0  0  0  0
   -5.9532  -16.6248    0.0000 O   0  0  0  0  0  0  0  0  0  0  0  0
    1.9885   -9.2056    0.0000 O   0  0  0  0  0  0  0  0  0  0  0  0
   -6.5652   -7.8296    0.0000 O   0  0  0  0  0  0  0  0  0  0  0  0
   -2.0686   -6.6432    0.0000 O   0  0  0  0  0  0  0  0  0  0  0  0
    2.7448  -14.5237    0.0000 O   0  0  0  0  0  0  0  0  0  0  0  0
   -9.3029  -10.7526    0.0000 O   0  0  0  0  0  0  0  0  0  0  0  0
    4.8881  -14.1112    0.0000 O   0  0  0  0  0  0  0  0  0  0  0  0
    7.0316  -12.8736    0.0000 O   0  0  0  0  0  0  0  0  0  0  0  0
    9.1749  -13.2862    0.0000 O   0  0  0  0  0  0  0  0  0  0  0  0
   11.3183  -12.0487    0.0000 O   0  0  0  0  0  0  0  0  0  0  0  0
  -10.7317  -12.4026    0.0000 N   0  0  0  0  0  0  0  0  0  0  0  0
    4.1737  -14.5237    0.0000 N   0  0  0  0  0  0  0  0  0  0  0  0
  -10.7317  -10.7526    0.0000 N   0  0  0  0  0  0  0  0  0  0  0  0
    0.6421  -12.3883    0.0000 C   0  0  3  0  0  0  0  0  0  0  0  0
   -7.1058  -12.8102    0.0000 C   0  0  3  0  0  0  0  0  0  0  0  0
   -1.2585  -15.0086    0.0000 C   0  0  3  0  0  0  0  0  0  0  0  0
   -4.8031  -15.7376    0.0000 C   0  0  3  0  0  0  0  0  0  0  0  0
   -6.5594   -9.2154    0.0000 C   0  0  3  0  0  0  0  0  0  0  0  0
    0.4845   -9.2906    0.0000 C   0  0  3  0  0  0  0  0  0  0  0  0
   -2.7342   -7.9357    0.0000 C   0  0  3  0  0  0  0  0  0  0  0  0
    0.2580  -14.4830    0.0000 C   0  0  3  0  0  0  0  0  0  0  0  0
   -7.0696  -10.6830    0.0000 C   0  0  3  0  0  0  0  0  0  0  0  0
   -6.4583  -14.3996    0.0000 C   0  0  3  0  0  0  0  0  0  0  0  0
    1.3879  -11.2137    0.0000 C   0  0  3  0  0  0  0  0  0  0  0  0
   -3.3404  -15.4555    0.0000 C   0  0  3  0  0  0  0  0  0  0  0  0
   -4.8849   -7.9007    0.0000 C   0  0  3  0  0  0  0  0  0  0  0  0
   -0.6682   -8.4470    0.0000 C   0  0  3  0  0  0  0  0  0  0  0  0
   -0.0009  -12.9105    0.0000 C   0  0  3  0  0  0  0  0  0  0  0  0
   -6.5574  -12.1911    0.0000 C   0  0  3  0  0  0  0  0  0  0  0  0
   -1.9888  -14.6172    0.0000 C   0  0  3  0  0  0  0  0  0  0  0  0
   -4.9581  -14.9243    0.0000 C   0  0  3  0  0  0  0  0  0  0  0  0
    0.3369  -13.6682    0.0000 C   0  0  3  0  0  0  0  0  0  0  0  0
   -7.0128  -11.4989    0.0000 C   0  0  3  0  0  0  0  0  0  0  0  0
    0.2631  -10.0874    0.0000 C   0  0  3  0  0  0  0  0  0  0  0  0
    0.5601  -13.2047    0.0000 C   0  0  3  0  0  0  0  0  0  0  0  0
   -5.7306   -9.2477    0.0000 C   0  0  3  0  0  0  0  0  0  0  0  0
   -7.1595  -11.9900    0.0000 C   0  0  3  0  0  0  0  0  0  0  0  0
   -5.7792  -14.8581    0.0000 C   0  0  3  0  0  0  0  0  0  0  0  0
   -2.2518   -8.6070    0.0000 C   0  0  3  0  0  0  0  0  0  0  0  0
   -2.5575  -15.2163    0.0000 C   0  0  3  0  0  0  0  0  0  0  0  0
    0.9780  -10.5060    0.0000 C   0  0  3  0  0  0  0  0  0  0  0  0
   -5.4827   -8.4627    0.0000 C   0  0  3  0  0  0  0  0  0  0  0  0
   -1.4811   -8.3181    0.0000 C   0  0  3  0  0  0  0  0  0  0  0  0
   -2.0456  -15.2447    0.0000 C   0  0  3  0  0  0  0  0  0  0  0  0
   -5.4789  -15.2753    0.0000 C   0  0  3  0  0  0  0  0  0  0  0  0
    0.8903   -9.9984    0.0000 C   0  0  3  0  0  0  0  0  0  0  0  0
   -5.9541   -8.6559    0.0000 C   0  0  3  0  0  0  0  0  0  0  0  0
   -1.9249   -8.0650    0.0000 C   0  0  3  0  0  0  0  0  0  0  0  0
    1.3158  -12.8736    0.0000 C   0  0  0  0  0  0  0  0  0  0  0  0
   -7.8740  -12.4026    0.0000 C   0  0  0  0  0  0  0  0  0  0  0  0
   -1.2487  -15.4583    0.0000 C   0  0  0  0  0  0  0  0  0  0  0  0
   -5.3279  -16.0852    0.0000 C   0  0  0  0  0  0  0  0  0  0  0  0
    1.1085   -9.2056    0.0000 C   0  0  0  0  0  0  0  0  0  0  0  0
   -6.7788   -8.6265    0.0000 C   0  0  0  0  0  0  0  0  0  0  0  0
   -2.4068   -7.3972    0.0000 C   0  0  0  0  0  0  0  0  0  0  0  0
    2.7448  -12.8736    0.0000 C   0  0  0  0  0  0  0  0  0  0  0  0
   -9.3029  -12.4026    0.0000 C   0  0  0  0  0  0  0  0  0  0  0  0
    3.4593  -13.2862    0.0000 C   0  0  0  0  0  0  0  0  0  0  0  0
  -10.0173  -11.9900    0.0000 C   0  0  3  0  0  0  0  0  0  0  0  0
    3.4593  -14.1112    0.0000 C   0  0  0  0  0  0  0  0  0  0  0  0
  -10.0173  -11.1650    0.0000 C   0  0  0  0  0  0  0  0  0  0  0  0
    4.8881  -13.2862    0.0000 C   0  0  0  0  0  0  0  0  0  0  0  0
  -11.4463  -11.9900    0.0000 C   0  0  0  0  0  0  0  0  0  0  0  0
    5.6026  -12.8736    0.0000 C   0  0  0  0  0  0  0  0  0  0  0  0
    3.7337  -15.2857    0.0000 C   0  0  0  0  0  0  0  0  0  0  0  0
  -10.2917   -9.9905    0.0000 C   0  0  0  0  0  0  0  0  0  0  0  0
    6.3170  -13.2862    0.0000 C   0  0  0  0  0  0  0  0  0  0  0  0
    4.1737  -16.0478    0.0000 C   0  0  0  0  0  0  0  0  0  0  0  0
  -10.7317   -9.2284    0.0000 C   0  0  0  0  0  0  0  0  0  0  0  0
    7.7460  -13.2862    0.0000 C   0  0  0  0  0  0  0  0  0  0  0  0
    8.4605  -12.8736    0.0000 C   0  0  0  0  0  0  0  0  0  0  0  0
    9.8894  -12.8736    0.0000 C   0  0  0  0  0  0  0  0  0  0  0  0
   10.6038  -13.2862    0.0000 C   0  0  0  0  0  0  0  0  0  0  0  0
   11.3183  -12.8736    0.0000 C   0  0  0  0  0  0  0  0  0  0  0  0
   12.0328  -13.2862    0.0000 C   0  0  0  0  0  0  0  0  0  0  0  0
    4.1737  -12.8736    0.0000 H   0  0  0  0  0  0  0  0  0  0  0  0
  1 82  1  0  0  0  0
  1 89  1  0  0  0  0
  2 83  1  0  0  0  0
  2 90  1  0  0  0  0
  3101  1  0  0  0  0
  4102  1  0  0  0  0
 48  5  1  6  0  0  0
  5 56  1  0  0  0  0
 47  6  1  1  0  0  0
  6 57  1  0  0  0  0
 49  7  1  6  0  0  0
  7 54  1  0  0  0  0
 51  8  1  1  0  0  0
  8 55  1  0  0  0  0
 50  9  1  6  0  0  0
  9 58  1  0  0  0  0
 52 10  1  6  0  0  0
 10 60  1  0  0  0  0
 53 11  1  6  0  0  0
 59 11  1  6  0  0  0
 54 12  1  6  0  0  0
 12 68  1  0  0  0  0
 55 13  1  6  0  0  0
 13 70  1  0  0  0  0
 56 14  1  1  0  0  0
 14 78  1  0  0  0  0
 58 15  1  6  0  0  0
 15 77  1  0  0  0  0
 57 16  1  6  0  0  0
 16 79  1  0  0  0  0
 17 59  1  0  0  0  0
 17 80  1  0  0  0  0
 60 18  1  6  0  0  0
 18 81  1  0  0  0  0
 61 19  1  1  0  0  0
 62 20  1  1  0  0  0
 63 21  1  1  0  0  0
 64 22  1  1  0  0  0
 23 65  1  0  0  0  0
 24 66  1  0  0  0  0
 67 25  1  1  0  0  0
 69 26  1  1  0  0  0
 27 71  1  0  0  0  0
 72 28  1  1  0  0  0
 29 73  1  0  0  0  0
 30 74  1  0  0  0  0
 31 75  1  0  0  0  0
 32 76  1  0  0  0  0
 33 84  1  0  0  0  0
 34 85  1  0  0  0  0
 35 86  1  0  0  0  0
 36 87  1  0  0  0  0
 37 88  1  0  0  0  0
 38 93  2  0  0  0  0
 39 94  2  0  0  0  0
 40 95  2  0  0  0  0
 41100  1  0  0  0  0
 41103  1  0  0  0  0
 42104  1  0  0  0  0
 42105  1  0  0  0  0
 43107  2  0  0  0  0
 92 44  1  1  0  0  0
 44 96  1  0  0  0  0
 45 93  1  0  0  0  0
 45 98  1  0  0  0  0
 46 94  1  0  0  0  0
 46 99  1  0  0  0  0
 47 61  1  0  0  0  0
 47 68  1  0  0  0  0
 48 62  1  0  0  0  0
 48 70  1  0  0  0  0
 49 63  1  0  0  0  0
 49 77  1  0  0  0  0
 50 64  1  0  0  0  0
 50 78  1  0  0  0  0
 51 69  1  0  0  0  0
 51 80  1  0  0  0  0
 52 67  1  0  0  0  0
 52 79  1  0  0  0  0
 53 72  1  0  0  0  0
 53 81  1  0  0  0  0
 54 65  1  0  0  0  0
 55 66  1  0  0  0  0
 56 71  1  0  0  0  0
 57 74  1  0  0  0  0
 58 73  1  0  0  0  0
 59 75  1  0  0  0  0
 60 76  1  0  0  0  0
 61 65  1  0  0  0  0
 62 66  1  0  0  0  0
 63 73  1  0  0  0  0
 64 71  1  0  0  0  0
 67 74  1  0  0  0  0
 68 82  1  0  0  0  0
 69 75  1  0  0  0  0
 70 83  1  0  0  0  0
 72 76  1  0  0  0  0
 77 84  1  0  0  0  0
 78 85  1  0  0  0  0
 79 86  1  0  0  0  0
 80 87  1  0  0  0  0
 81 88  1  0  0  0  0
 91 89  1  1  0  0  0
 90 92  1  0  0  0  0
 91 93  1  0  0  0  0
 91109  1  0  0  0  0
 92 94  1  0  0  0  0
 95 97  1  0  0  0  0
 95109  1  0  0  0  0
 97100  1  0  0  0  0
 98101  1  0  0  0  0
 99102  1  0  0  0  0
103104  1  0  0  0  0
105106  1  0  0  0  0
106107  1  0  0  0  0
107108  1  0  0  0  0
M  END
> <PUBCHEM_COMPOUND_ID_TYPE>
0

> <PUBCHEM_TOTAL_CHARGE>
0

> <PUBCHEM_SUBSTANCE_ID>
310938743

> <PUBCHEM_SUBSTANCE_VERSION>
1

> <PUBCHEM_EXT_DATASOURCE_NAME>
4488

> <PUBCHEM_EXT_DATASOURCE_REGID>
SCHEMBL16116659

> <PUBCHEM_SUBSTANCE_COMMENT>
InChI=1S/C62H108N3O39S4/c1-22(71)3-7-89-9-10-90-8-4-32(72)109-31(55(88)65-6-12-106)21-108-20-30-53-39(79)46(86)62(97-30)102-51-28(17-70)93-58(42(82)35(51)75)100-48-25(14-67)94-59(43(83)36(48)76)103-52-29(19-107-18-23(63-2)54(87)64-5-11-105)96-61(45(85)38(52)78)101-50-27(16-69)92-57(41(81)34(50)74)98-47-24(13-66)91-56(40(80)33(47)73)99-49-26(15-68)95-60(104-53)44(84)37(49)77/h23-31,33-53,56-63,66-70,73-86,105-106H,3-21,109H2,1-2H3,(H,64,87)(H,65,88)/t23-,24?,25?,26?,27?,28?,29?,30?,31?,33-,34-,35-,36-,37-,38-,39-,40?,41?,42?,43?,44?,45?,46?,47-,48-,49-,50+,51-,52-,53+,56-,57-,58+,59+,60-,61+,62-/m1/s1
InChIKey=PHAUUVHWANKWJZ-ZIKMRTSNSA-N

> <PUBCHEM_SUBSTANCE_SYNONYM>
SCHEMBL16116659

> <PUBCHEM_XREF_EXT_ID>
SCHEMBL16116659

> <PUBCHEM_EXT_DATASOURCE_URL>
https://www.surechembl.org/

> <PUBCHEM_EXT_SUBSTANCE_URL>
https://www.surechembl.org/chemical/SCHEMBL16116659

> <PUBCHEM_COORDINATE_TYPE>
1
3

> <PUBCHEM_BONDANNOTATIONS>
52  10  6
53  11  6
59  11  6
54  12  6
55  13  6
56  14  5
58  15  6
57  16  6
60  18  6
61  19  5
62  20  5
63  21  5
64  22  5
67  25  5
69  26  5
72  28  5
92  44  5
48  5  6
47  6  5
49  7  6
51  8  5
91  89  5
50  9  6

$$$$
