310946747
  -OEChem-07211613022D

 18 19  0     1  0  0  0  0  0999 V2000
   -2.0649   -1.5299    0.0000 N   0  0  0  0  0  0  0  0  0  0  0  0
   -1.9924    1.1869    0.0000 N   0  0  0  0  0  0  0  0  0  0  0  0
   -2.7770    0.9320    0.0000 N   0  0  0  0  0  0  0  0  0  0  0  0
   -1.5799   -2.1973    0.0000 N   0  0  0  0  0  0  0  0  0  0  0  0
    0.6336   -1.1174    0.0000 N   0  0  3  0  0  0  0  0  0  0  0  0
    2.7770   -0.7049    0.0000 N   0  0  0  0  0  0  0  0  0  0  0  0
   -1.5799   -0.8624    0.0000 C   0  0  0  0  0  0  0  0  0  0  0  0
   -1.9924   -0.1480    0.0000 C   0  0  0  0  0  0  0  0  0  0  0  0
   -0.7953   -1.1174    0.0000 C   0  0  0  0  0  0  0  0  0  0  0  0
   -1.5075    0.5195    0.0000 C   0  0  0  0  0  0  0  0  0  0  0  0
   -2.7770    0.1070    0.0000 C   0  0  0  0  0  0  0  0  0  0  0  0
   -0.7953   -1.9424    0.0000 C   0  0  0  0  0  0  0  0  0  0  0  0
   -0.0808   -0.7049    0.0000 C   0  0  0  0  0  0  0  0  0  0  0  0
   -1.7789    1.9838    0.0000 C   0  0  0  0  0  0  0  0  0  0  0  0
    1.3481   -0.7049    0.0000 C   0  0  0  0  0  0  0  0  0  0  0  0
    0.6336   -1.9424    0.0000 C   0  0  0  0  0  0  0  0  0  0  0  0
   -0.9820    2.1973    0.0000 C   0  0  0  0  0  0  0  0  0  0  0  0
    2.0626   -1.1174    0.0000 C   0  0  0  0  0  0  0  0  0  0  0  0
  1  4  1  0  0  0  0
  1  7  2  0  0  0  0
  2  3  1  0  0  0  0
  2 10  1  0  0  0  0
  2 14  1  0  0  0  0
  3 11  2  0  0  0  0
  4 12  1  0  0  0  0
  5 13  1  0  0  0  0
  5 15  1  0  0  0  0
  5 16  1  0  0  0  0
  6 18  1  0  0  0  0
  7  8  1  0  0  0  0
  7  9  1  0  0  0  0
  8 10  2  0  0  0  0
  8 11  1  0  0  0  0
  9 12  2  0  0  0  0
  9 13  1  0  0  0  0
 14 17  1  0  0  0  0
 15 18  1  0  0  0  0
M  END
> <PUBCHEM_COMPOUND_ID_TYPE>
0

> <PUBCHEM_TOTAL_CHARGE>
0

> <PUBCHEM_SUBSTANCE_ID>
310946747

> <PUBCHEM_SUBSTANCE_VERSION>
1

> <PUBCHEM_EXT_DATASOURCE_NAME>
4488

> <PUBCHEM_EXT_DATASOURCE_REGID>
SCHEMBL16124871

> <PUBCHEM_SUBSTANCE_COMMENT>
InChI=1S/C12H20N6/c1-3-18-9-11(7-15-18)12-10(6-14-16-12)8-17(2)5-4-13/h6-7,9H,3-5,8,13H2,1-2H3,(H,14,16)
InChIKey=ZHZXQJPUTDQUHD-UHFFFAOYSA-N

> <PUBCHEM_SUBSTANCE_SYNONYM>
SCHEMBL16124871

> <PUBCHEM_XREF_EXT_ID>
SCHEMBL16124871

> <PUBCHEM_EXT_DATASOURCE_URL>
https://www.surechembl.org/

> <PUBCHEM_EXT_SUBSTANCE_URL>
https://www.surechembl.org/chemical/SCHEMBL16124871

> <PUBCHEM_CID_ASSOCIATIONS>
86296133  1

> <PUBCHEM_COORDINATE_TYPE>
1
3

$$$$
