310944965
  -OEChem-07211613022D

 11 10  0     1  0  0  0  0  0999 V2000
    1.6354    2.3913    0.0000 I   0  0  0  0  0  0  0  0  0  0  0  0
   -0.9070   -2.3913    0.0000 O   0  0  0  0  0  0  0  0  0  0  0  0
   -1.6354   -1.3055    0.0000 O   0  0  0  0  0  0  0  0  0  0  0  0
    1.1818    2.0752    0.0000 N   0  0  0  0  0  0  0  0  0  0  0  0
   -0.2474   -1.1956    0.0000 C   0  0  3  0  0  0  0  0  0  0  0  0
   -0.9482   -1.6354    0.0000 C   0  0  0  0  0  0  0  0  0  0  0  0
   -0.2199   -0.3711    0.0000 C   0  0  0  0  0  0  0  0  0  0  0  0
    0.4672    0.0275    0.0000 C   0  0  0  0  0  0  0  0  0  0  0  0
    0.3848   -1.7591    0.0000 C   0  0  0  0  0  0  0  0  0  0  0  0
    0.4948    0.8658    0.0000 C   0  0  0  0  0  0  0  0  0  0  0  0
    1.1818    1.2643    0.0000 C   0  0  0  0  0  0  0  0  0  0  0  0
  1  4  1  0  0  0  0
  2  6  2  0  0  0  0
  3  6  1  0  0  0  0
  4 11  1  0  0  0  0
  5  6  1  0  0  0  0
  5  7  1  0  0  0  0
  5  9  1  0  0  0  0
  7  8  1  0  0  0  0
  8 10  1  0  0  0  0
 10 11  1  0  0  0  0
M  END
> <PUBCHEM_COMPOUND_ID_TYPE>
0

> <PUBCHEM_TOTAL_CHARGE>
0

> <PUBCHEM_SUBSTANCE_ID>
310944965

> <PUBCHEM_SUBSTANCE_VERSION>
1

> <PUBCHEM_EXT_DATASOURCE_NAME>
4488

> <PUBCHEM_EXT_DATASOURCE_REGID>
SCHEMBL16123053

> <PUBCHEM_SUBSTANCE_COMMENT>
InChI=1S/C7H14INO2/c1-6(7(10)11)4-2-3-5-9-8/h6,9H,2-5H2,1H3,(H,10,11)
InChIKey=DTYKBCMXLMMPPD-UHFFFAOYSA-N

> <PUBCHEM_SUBSTANCE_SYNONYM>
SCHEMBL16123053

> <PUBCHEM_XREF_EXT_ID>
SCHEMBL16123053

> <PUBCHEM_EXT_DATASOURCE_URL>
https://www.surechembl.org/

> <PUBCHEM_EXT_SUBSTANCE_URL>
https://www.surechembl.org/chemical/SCHEMBL16123053

> <PUBCHEM_CID_ASSOCIATIONS>
117611116  1

> <PUBCHEM_COORDINATE_TYPE>
1
3

$$$$
