310941011
  -OEChem-07211613022D

 40 43  0     1  0  0  0  0  0999 V2000
    5.2018    0.9801    0.0000 O   0  0  0  0  0  0  0  0  0  0  0  0
    4.0559   -0.9951    0.0000 O   0  0  0  0  0  0  0  0  0  0  0  0
    1.6736    0.9650    0.0000 O   0  0  0  0  0  0  0  0  0  0  0  0
   -0.4976   -1.1158    0.0000 O   0  0  0  0  0  0  0  0  0  0  0  0
   -2.6688    0.9650    0.0000 O   0  0  0  0  0  0  0  0  0  0  0  0
    3.8448   -2.7743    0.0000 O   0  0  0  0  0  0  0  0  0  0  0  0
   -5.5335   -0.4675    0.0000 O   0  0  0  0  0  0  0  0  0  0  0  0
    2.3974   -0.2865    0.0000 N   0  0  0  0  0  0  0  0  0  0  0  0
    0.2262    0.1357    0.0000 N   0  0  0  0  0  0  0  0  0  0  0  0
   -1.9450   -0.2865    0.0000 N   0  0  0  0  0  0  0  0  0  0  0  0
    4.7947    0.3015    0.0000 C   0  0  3  0  0  0  0  0  0  0  0  0
    4.0710   -0.1056    0.0000 C   0  0  0  0  0  0  0  0  0  0  0  0
    4.4027    0.9951    0.0000 C   0  0  0  0  0  0  0  0  0  0  0  0
    3.3472    0.2865    0.0000 C   0  0  3  0  0  0  0  0  0  0  0  0
    5.5335   -0.1206    0.0000 C   0  0  0  0  0  0  0  0  0  0  0  0
    3.3472    1.3570    0.0000 C   0  0  0  0  0  0  0  0  0  0  0  0
    1.6736    0.1508    0.0000 C   0  0  0  0  0  0  0  0  0  0  0  0
    0.9650   -0.2413    0.0000 C   0  0  3  0  0  0  0  0  0  0  0  0
    2.6084    1.8094    0.0000 C   0  0  0  0  0  0  0  0  0  0  0  0
    0.9650   -1.0856    0.0000 C   0  0  0  0  0  0  0  0  0  0  0  0
   -0.4825   -0.2262    0.0000 C   0  0  0  0  0  0  0  0  0  0  0  0
    1.6887   -1.4927    0.0000 C   0  0  0  0  0  0  0  0  0  0  0  0
    1.8546    1.4625    0.0000 C   0  0  0  0  0  0  0  0  0  0  0  0
    2.5331    2.6084    0.0000 C   0  0  0  0  0  0  0  0  0  0  0  0
   -1.2062    0.1658    0.0000 C   0  0  3  0  0  0  0  0  0  0  0  0
   -3.3774   -0.2413    0.0000 C   0  0  3  0  0  0  0  0  0  0  0  0
   -2.6688    0.1508    0.0000 C   0  0  0  0  0  0  0  0  0  0  0  0
    1.3117    2.0807    0.0000 C   0  0  0  0  0  0  0  0  0  0  0  0
    1.7189    2.7743    0.0000 C   0  0  0  0  0  0  0  0  0  0  0  0
    1.7038   -2.3370    0.0000 C   0  0  0  0  0  0  0  0  0  0  0  0
    2.3974   -1.1007    0.0000 C   0  0  0  0  0  0  0  0  0  0  0  0
   -4.1313    0.0754    0.0000 C   0  0  0  0  0  0  0  0  0  0  0  0
   -3.4829   -1.0705    0.0000 C   0  0  0  0  0  0  0  0  0  0  0  0
   -4.6892   -0.5428    0.0000 C   0  0  3  0  0  0  0  0  0  0  0  0
    3.1211   -2.3219    0.0000 C   0  0  0  0  0  0  0  0  0  0  0  0
   -4.2821   -1.2364    0.0000 C   0  0  0  0  0  0  0  0  0  0  0  0
    2.4124   -2.7442    0.0000 C   0  0  0  0  0  0  0  0  0  0  0  0
    3.1211   -1.5078    0.0000 C   0  0  0  0  0  0  0  0  0  0  0  0
   -1.1911    1.0102    0.0000 C   0  0  0  0  0  0  0  0  0  0  0  0
    4.5836   -2.3370    0.0000 C   0  0  0  0  0  0  0  0  0  0  0  0
  1 11  1  0  0  0  0
  1 13  1  0  0  0  0
  2 12  2  0  0  0  0
  3 17  2  0  0  0  0
  4 21  2  0  0  0  0
  5 27  2  0  0  0  0
  6 35  1  0  0  0  0
  6 40  1  0  0  0  0
  7 34  1  0  0  0  0
  8 14  1  0  0  0  0
  8 17  1  0  0  0  0
  9 18  1  0  0  0  0
  9 21  1  0  0  0  0
 10 25  1  0  0  0  0
 10 27  1  0  0  0  0
 11 12  1  0  0  0  0
 11 13  1  0  0  0  0
 11 15  1  0  0  0  0
 12 14  1  0  0  0  0
 14 16  1  0  0  0  0
 16 19  1  0  0  0  0
 17 18  1  0  0  0  0
 18 20  1  0  0  0  0
 19 23  1  0  0  0  0
 19 24  1  0  0  0  0
 20 22  1  0  0  0  0
 21 25  1  0  0  0  0
 22 30  2  0  0  0  0
 22 31  1  0  0  0  0
 23 28  1  0  0  0  0
 24 29  1  0  0  0  0
 25 39  1  0  0  0  0
 26 27  1  0  0  0  0
 26 32  1  0  0  0  0
 26 33  1  0  0  0  0
 28 29  1  0  0  0  0
 30 37  1  0  0  0  0
 31 38  2  0  0  0  0
 32 34  1  0  0  0  0
 33 36  1  0  0  0  0
 34 36  1  0  0  0  0
 35 37  2  0  0  0  0
 35 38  1  0  0  0  0
M  END
> <PUBCHEM_COMPOUND_ID_TYPE>
0

> <PUBCHEM_TOTAL_CHARGE>
0

> <PUBCHEM_SUBSTANCE_ID>
310941011

> <PUBCHEM_SUBSTANCE_VERSION>
1

> <PUBCHEM_EXT_DATASOURCE_NAME>
4488

> <PUBCHEM_EXT_DATASOURCE_REGID>
SCHEMBL16118970

> <PUBCHEM_SUBSTANCE_COMMENT>
InChI=1S/C30H43N3O7/c1-18(31-28(37)21-10-11-22(34)16-21)27(36)33-25(15-20-8-12-23(39-3)13-9-20)29(38)32-24(14-19-6-4-5-7-19)26(35)30(2)17-40-30/h8-9,12-13,18-19,21-22,24-25,34H,4-7,10-11,14-17H2,1-3H3,(H,31,37)(H,32,38)(H,33,36)
InChIKey=BVCQVLJZWSBKHP-UHFFFAOYSA-N

> <PUBCHEM_SUBSTANCE_SYNONYM>
SCHEMBL16118970

> <PUBCHEM_XREF_EXT_ID>
SCHEMBL16118970

> <PUBCHEM_EXT_DATASOURCE_URL>
https://www.surechembl.org/

> <PUBCHEM_EXT_SUBSTANCE_URL>
https://www.surechembl.org/chemical/SCHEMBL16118970

> <PUBCHEM_CID_ASSOCIATIONS>
86295493  1

> <PUBCHEM_COORDINATE_TYPE>
1
3

$$$$
