310943077
  -OEChem-07211613022D

 16 17  0     1  0  0  0  0  0999 V2000
   -2.3209   -1.8151    0.0000 Br  0  0  0  0  0  0  0  0  0  0  0  0
    1.9883    0.1247    0.0000 F   0  0  0  0  0  0  0  0  0  0  0  0
    2.3209   -0.9699    0.0000 F   0  0  0  0  0  0  0  0  0  0  0  0
    1.1986   -1.2886    0.0000 F   0  0  0  0  0  0  0  0  0  0  0  0
    0.8660    0.6651    0.0000 N   0  0  0  0  0  0  0  0  0  0  0  0
    0.8660   -0.1663    0.0000 C   0  0  3  0  0  0  0  0  0  0  0  0
    1.5865   -0.5819    0.0000 C   0  0  0  0  0  0  0  0  0  0  0  0
    0.1455   -0.5681    0.0000 C   0  0  0  0  0  0  0  0  0  0  0  0
    0.2979    1.2332    0.0000 C   0  0  0  0  0  0  0  0  0  0  0  0
    1.4480    1.2332    0.0000 C   0  0  0  0  0  0  0  0  0  0  0  0
   -0.5889   -0.1801    0.0000 C   0  0  0  0  0  0  0  0  0  0  0  0
    0.1455   -1.3995    0.0000 C   0  0  0  0  0  0  0  0  0  0  0  0
    0.8521    1.8151    0.0000 C   0  0  0  0  0  0  0  0  0  0  0  0
   -1.2817   -0.5819    0.0000 C   0  0  0  0  0  0  0  0  0  0  0  0
   -0.5612   -1.8151    0.0000 C   0  0  0  0  0  0  0  0  0  0  0  0
   -1.3094   -1.3995    0.0000 C   0  0  0  0  0  0  0  0  0  0  0  0
  1 16  1  0  0  0  0
  2  7  1  0  0  0  0
  3  7  1  0  0  0  0
  4  7  1  0  0  0  0
  5  6  1  0  0  0  0
  5  9  1  0  0  0  0
  5 10  1  0  0  0  0
  6  7  1  0  0  0  0
  6  8  1  0  0  0  0
  8 11  2  0  0  0  0
  8 12  1  0  0  0  0
  9 13  1  0  0  0  0
 10 13  1  0  0  0  0
 11 14  1  0  0  0  0
 12 15  2  0  0  0  0
 14 16  2  0  0  0  0
 15 16  1  0  0  0  0
M  END
> <PUBCHEM_COMPOUND_ID_TYPE>
0

> <PUBCHEM_TOTAL_CHARGE>
0

> <PUBCHEM_SUBSTANCE_ID>
310943077

> <PUBCHEM_SUBSTANCE_VERSION>
1

> <PUBCHEM_EXT_DATASOURCE_NAME>
4488

> <PUBCHEM_EXT_DATASOURCE_REGID>
SCHEMBL16121136

> <PUBCHEM_SUBSTANCE_COMMENT>
InChI=1S/C11H11BrF3N/c12-9-4-2-8(3-5-9)10(11(13,14)15)16-6-1-7-16/h2-5,10H,1,6-7H2
InChIKey=MXBCKUBBEPKKDL-UHFFFAOYSA-N

> <PUBCHEM_SUBSTANCE_SYNONYM>
SCHEMBL16121136

> <PUBCHEM_XREF_EXT_ID>
SCHEMBL16121136

> <PUBCHEM_EXT_DATASOURCE_URL>
https://www.surechembl.org/

> <PUBCHEM_EXT_SUBSTANCE_URL>
https://www.surechembl.org/chemical/SCHEMBL16121136

> <PUBCHEM_CID_ASSOCIATIONS>
117609513  1

> <PUBCHEM_COORDINATE_TYPE>
1
3

$$$$
