310936703
  -OEChem-07211613022D

 21 25  0     1  0  0  0  0  0999 V2000
    2.8999   -2.7249    0.0000 O   0  0  0  0  0  0  0  0  0  0  0  0
    2.8999   -1.3499    0.0000 O   0  0  0  0  0  0  0  0  0  0  0  0
    4.1749   -1.9750    0.0000 O   0  0  0  0  0  0  0  0  0  0  0  0
    1.3499   -2.8999    0.0000 C   0  0  0  0  0  0  0  0  0  0  0  0
    2.0750   -2.4499    0.0000 C   0  0  0  0  0  0  0  0  0  0  0  0
    2.0750   -1.6499    0.0000 C   0  0  3  0  0  0  0  0  0  0  0  0
    0.6250   -2.4499    0.0000 C   0  0  0  0  0  0  0  0  0  0  0  0
    1.3499   -1.1750    0.0000 C   0  0  0  0  0  0  0  0  0  0  0  0
    0.6250   -1.6499    0.0000 C   0  0  0  0  0  0  0  0  0  0  0  0
    1.3499   -3.7249    0.0000 C   0  0  0  0  0  0  0  0  0  0  0  0
    0.6250   -4.0999    0.0000 C   0  0  0  0  0  0  0  0  0  0  0  0
    3.3499   -1.9999    0.0000 C   0  0  0  0  0  0  0  0  0  0  0  0
    0.0000   -2.8999    0.0000 C   0  0  0  0  0  0  0  0  0  0  0  0
    1.3499   -0.3500    0.0000 C   0  0  0  0  0  0  0  0  0  0  0  0
    0.0000   -1.1750    0.0000 C   0  0  0  0  0  0  0  0  0  0  0  0
    0.0000   -3.7249    0.0000 C   0  0  0  0  0  0  0  0  0  0  0  0
    1.9999   -4.2748    0.0000 C   0  0  0  0  0  0  0  0  0  0  0  0
    0.8000   -4.8999    0.0000 C   0  0  0  0  0  0  0  0  0  0  0  0
    1.6250   -4.9999    0.0000 C   0  0  0  0  0  0  0  0  0  0  0  0
    0.6250    0.0000    0.0000 C   0  0  0  0  0  0  0  0  0  0  0  0
    0.0000   -0.3500    0.0000 C   0  0  0  0  0  0  0  0  0  0  0  0
  1  5  1  0  0  0  0
  1 12  1  0  0  0  0
  2  6  1  0  0  0  0
  2 12  1  0  0  0  0
  3 12  2  0  0  0  0
  4  5  2  0  0  0  0
  4  7  1  0  0  0  0
  4 10  1  0  0  0  0
  5  6  1  0  0  0  0
  6  8  1  0  0  0  0
  7  9  1  0  0  0  0
  7 13  2  0  0  0  0
  8  9  2  0  0  0  0
  8 14  1  0  0  0  0
  9 15  1  0  0  0  0
 10 11  1  0  0  0  0
 10 17  2  0  0  0  0
 11 16  2  0  0  0  0
 11 18  1  0  0  0  0
 13 16  1  0  0  0  0
 14 20  2  0  0  0  0
 15 21  2  0  0  0  0
 17 19  1  0  0  0  0
 18 19  2  0  0  0  0
 20 21  1  0  0  0  0
M  END
> <PUBCHEM_COMPOUND_ID_TYPE>
0

> <PUBCHEM_TOTAL_CHARGE>
0

> <PUBCHEM_SUBSTANCE_ID>
310936703

> <PUBCHEM_SUBSTANCE_VERSION>
1

> <PUBCHEM_EXT_DATASOURCE_NAME>
4488

> <PUBCHEM_EXT_DATASOURCE_REGID>
SCHEMBL16114381

> <PUBCHEM_SUBSTANCE_COMMENT>
InChI=1S/C18H10O3/c19-18-20-16-14-6-2-1-5-12(14)13-9-8-10-4-3-7-11(10)15(13)17(16)21-18/h1-9,16H
InChIKey=WAFASCPAFXGCIX-UHFFFAOYSA-N

> <PUBCHEM_SUBSTANCE_SYNONYM>
SCHEMBL16114381

> <PUBCHEM_XREF_EXT_ID>
SCHEMBL16114381

> <PUBCHEM_EXT_DATASOURCE_URL>
https://www.surechembl.org/

> <PUBCHEM_EXT_SUBSTANCE_URL>
https://www.surechembl.org/chemical/SCHEMBL16114381

> <PUBCHEM_CID_ASSOCIATIONS>
117604605  1

> <PUBCHEM_COORDINATE_TYPE>
1
3

$$$$
