310929355
  -OEChem-07211613022D

 32 36  0     1  0  0  0  0  0999 V2000
    5.1028   -1.5144    0.0000 O   0  0  0  0  0  0  0  0  0  0  0  0
    1.4616   -0.4972    0.0000 O   0  0  0  0  0  0  0  0  0  0  0  0
    3.4902    1.7663    0.0000 O   0  0  0  0  0  0  0  0  0  0  0  0
    3.5759    0.0454    0.0000 N   0  0  3  0  0  0  0  0  0  0  0  0
    5.0403   -1.1700    0.0000 N   0  0  0  0  0  0  0  0  0  0  0  0
    4.9188    1.7983    0.0000 N   0  0  0  0  0  0  0  0  0  0  0  0
    1.5791    0.9270    0.0000 N   0  0  0  0  0  0  0  0  0  0  0  0
    4.6330   -2.1925    0.0000 C   0  0  3  0  0  0  0  0  0  0  0  0
    4.7504   -0.7684    0.0000 C   0  0  3  0  0  0  0  0  0  0  0  0
    4.2323    0.5451    0.0000 C   0  0  3  0  0  0  0  0  0  0  0  0
    4.9854   -2.9385    0.0000 C   0  0  0  0  0  0  0  0  0  0  0  0
    5.9250   -1.5822    0.0000 C   0  0  0  0  0  0  0  0  0  0  0  0
    6.2774   -2.3281    0.0000 C   0  0  0  0  0  0  0  0  0  0  0  0
    4.9104    0.0753    0.0000 C   0  0  0  0  0  0  0  0  0  0  0  0
    3.9282   -0.7006    0.0000 C   0  0  0  0  0  0  0  0  0  0  0  0
    5.8076   -3.0063    0.0000 C   0  0  0  0  0  0  0  0  0  0  0  0
    0.9918   -1.1753    0.0000 C   0  0  3  0  0  0  0  0  0  0  0  0
    1.3442   -1.9213    0.0000 C   0  0  0  0  0  0  0  0  0  0  0  0
    4.2138    1.3699    0.0000 C   0  0  0  0  0  0  0  0  0  0  0  0
    0.5219   -1.8534    0.0000 C   0  0  0  0  0  0  0  0  0  0  0  0
    2.7537    0.1132    0.0000 C   0  0  0  0  0  0  0  0  0  0  0  0
    4.5155   -3.6166    0.0000 C   0  0  0  0  0  0  0  0  0  0  0  0
    6.3949   -0.9040    0.0000 C   0  0  0  0  0  0  0  0  0  0  0  0
    7.0996   -2.3960    0.0000 C   0  0  0  0  0  0  0  0  0  0  0  0
    2.1664   -1.9891    0.0000 C   0  0  0  0  0  0  0  0  0  0  0  0
    7.2171   -0.9719    0.0000 C   0  0  0  0  0  0  0  0  0  0  0  0
    7.5694   -1.7178    0.0000 C   0  0  0  0  0  0  0  0  0  0  0  0
    2.4013    0.8591    0.0000 C   0  0  0  0  0  0  0  0  0  0  0  0
    3.6933   -3.5488    0.0000 C   0  0  0  0  0  0  0  0  0  0  0  0
    1.1092    0.2488    0.0000 C   0  0  0  0  0  0  0  0  0  0  0  0
    2.5187   -2.7350    0.0000 C   0  0  0  0  0  0  0  0  0  0  0  0
    3.3409   -2.8028    0.0000 C   0  0  0  0  0  0  0  0  0  0  0  0
  1  8  1  0  0  0  0
  1  9  1  0  0  0  0
  2 17  1  0  0  0  0
  2 30  1  0  0  0  0
  3 19  2  0  0  0  0
  4 10  1  0  0  0  0
  4 15  1  0  0  0  0
  4 21  1  0  0  0  0
  5  8  1  0  0  0  0
  5 12  1  0  0  0  0
  6 19  1  0  0  0  0
  7 28  1  0  0  0  0
  7 30  1  0  0  0  0
  8 11  1  0  0  0  0
  9 14  1  0  0  0  0
  9 15  1  0  0  0  0
 10 14  1  0  0  0  0
 10 19  1  0  0  0  0
 11 16  2  0  0  0  0
 11 22  1  0  0  0  0
 12 13  2  0  0  0  0
 12 23  1  0  0  0  0
 13 16  1  0  0  0  0
 13 24  1  0  0  0  0
 17 18  1  0  0  0  0
 17 20  1  0  0  0  0
 18 20  1  0  0  0  0
 18 25  2  0  0  0  0
 21 28  1  0  0  0  0
 22 29  2  0  0  0  0
 23 26  2  0  0  0  0
 24 27  2  0  0  0  0
 25 31  1  0  0  0  0
 26 27  1  0  0  0  0
 29 32  1  0  0  0  0
 31 32  2  0  0  0  0
M  END
> <PUBCHEM_COMPOUND_ID_TYPE>
0

> <PUBCHEM_TOTAL_CHARGE>
0

> <PUBCHEM_SUBSTANCE_ID>
310929355

> <PUBCHEM_SUBSTANCE_VERSION>
1

> <PUBCHEM_EXT_DATASOURCE_NAME>
4488

> <PUBCHEM_EXT_DATASOURCE_REGID>
SCHEMBL16106523

> <PUBCHEM_SUBSTANCE_COMMENT>
InChI=1S/C25H30N4O3/c26-24(30)22-14-20-15-29(22)11-10-27-16-31-23-13-18(23)7-2-1-3-8-19-12-17-6-4-5-9-21(17)28-25(19)32-20/h1-9,12,20,22-23,25,27-28H,10-11,13-16H2,(H2,26,30)
InChIKey=PLNGMNOLVPBLRO-UHFFFAOYSA-N

> <PUBCHEM_SUBSTANCE_SYNONYM>
SCHEMBL16106523

> <PUBCHEM_XREF_EXT_ID>
SCHEMBL16106523

> <PUBCHEM_EXT_DATASOURCE_URL>
https://www.surechembl.org/

> <PUBCHEM_EXT_SUBSTANCE_URL>
https://www.surechembl.org/chemical/SCHEMBL16106523

> <PUBCHEM_CID_ASSOCIATIONS>
117598734  1

> <PUBCHEM_COORDINATE_TYPE>
1
3

> <PUBCHEM_BONDANNOTATIONS>
22  11  3
25  31  3
32  29  3

$$$$
