310932038
  -OEChem-07211613022D

 31 33  0     1  0  0  0  0  0999 V2000
    0.7516   -2.7432    0.0000 F   0  0  0  0  0  0  0  0  0  0  0  0
    4.2088   -1.4280    0.0000 O   0  0  0  0  0  0  0  0  0  0  0  0
    0.7140   -5.1858    0.0000 O   0  0  0  0  0  0  0  0  0  0  0  0
    4.9603   -1.9165    0.0000 O   0  0  0  0  0  0  0  0  0  0  0  0
    5.6743   -3.1566    0.0000 O   0  0  0  0  0  0  0  0  0  0  0  0
    2.8936   -1.4280    0.0000 N   0  0  0  0  0  0  0  0  0  0  0  0
    3.1566   -0.6764    0.0000 N   0  0  0  0  0  0  0  0  0  0  0  0
    4.8100   -7.5157    0.0000 N   0  0  0  0  0  0  0  0  0  0  0  0
    2.1420   -5.1858    0.0000 C   0  0  0  0  0  0  0  0  0  0  0  0
    2.1420   -4.3967    0.0000 C   0  0  0  0  0  0  0  0  0  0  0  0
    2.8559   -3.1566    0.0000 C   0  0  0  0  0  0  0  0  0  0  0  0
    3.5699   -2.7432    0.0000 C   0  0  3  0  0  0  0  0  0  0  0  0
    2.8559   -3.9833    0.0000 C   0  0  0  0  0  0  0  0  0  0  0  0
    2.8559   -6.3883    0.0000 C   0  0  0  0  0  0  0  0  0  0  0  0
    1.4280   -5.5991    0.0000 C   0  0  0  0  0  0  0  0  0  0  0  0
    3.5699   -1.9165    0.0000 C   0  0  0  0  0  0  0  0  0  0  0  0
    2.8559   -5.5991    0.0000 C   0  0  0  0  0  0  0  0  0  0  0  0
    1.4280   -3.9457    0.0000 C   0  0  0  0  0  0  0  0  0  0  0  0
    3.5699   -6.8017    0.0000 C   0  0  0  0  0  0  0  0  0  0  0  0
    2.1420   -2.7432    0.0000 C   0  0  0  0  0  0  0  0  0  0  0  0
    1.4280   -3.1566    0.0000 C   0  0  0  0  0  0  0  0  0  0  0  0
    2.1420   -6.8392    0.0000 C   0  0  0  0  0  0  0  0  0  0  0  0
    1.4280   -6.4259    0.0000 C   0  0  0  0  0  0  0  0  0  0  0  0
    4.2839   -3.1566    0.0000 C   0  0  0  0  0  0  0  0  0  0  0  0
    3.9833   -0.6764    0.0000 C   0  0  0  0  0  0  0  0  0  0  0  0
    3.9833   -7.5157    0.0000 C   0  0  0  0  0  0  0  0  0  0  0  0
    4.9603   -2.7432    0.0000 C   0  0  0  0  0  0  0  0  0  0  0  0
    3.9833   -6.0877    0.0000 C   0  0  0  0  0  0  0  0  0  0  0  0
    3.1566   -7.5157    0.0000 C   0  0  0  0  0  0  0  0  0  0  0  0
    4.4718    0.0000    0.0000 C   0  0  0  0  0  0  0  0  0  0  0  0
    0.0000   -5.5991    0.0000 C   0  0  0  0  0  0  0  0  0  0  0  0
  1 21  1  0  0  0  0
  2 16  1  0  0  0  0
  2 25  1  0  0  0  0
  3 15  1  0  0  0  0
  3 31  1  0  0  0  0
  4 27  2  0  0  0  0
  5 27  1  0  0  0  0
  6  7  1  0  0  0  0
  6 16  2  0  0  0  0
  7 25  2  0  0  0  0
  8 26  3  0  0  0  0
  9 10  1  0  0  0  0
  9 15  2  0  0  0  0
  9 17  1  0  0  0  0
 10 13  2  0  0  0  0
 10 18  1  0  0  0  0
 11 12  1  0  0  0  0
 11 13  1  0  0  0  0
 11 20  2  0  0  0  0
 12 16  1  0  0  0  0
 12 24  1  0  0  0  0
 14 17  2  0  0  0  0
 14 19  1  0  0  0  0
 14 22  1  0  0  0  0
 15 23  1  0  0  0  0
 18 21  2  0  0  0  0
 19 26  1  0  0  0  0
 19 28  1  0  0  0  0
 19 29  1  0  0  0  0
 20 21  1  0  0  0  0
 22 23  2  0  0  0  0
 24 27  1  0  0  0  0
 25 30  1  0  0  0  0
M  END
> <PUBCHEM_COMPOUND_ID_TYPE>
0

> <PUBCHEM_TOTAL_CHARGE>
0

> <PUBCHEM_SUBSTANCE_ID>
310932038

> <PUBCHEM_SUBSTANCE_VERSION>
1

> <PUBCHEM_EXT_DATASOURCE_NAME>
4488

> <PUBCHEM_EXT_DATASOURCE_REGID>
SCHEMBL16109381

> <PUBCHEM_SUBSTANCE_COMMENT>
InChI=1S/C23H22FN3O4/c1-13-26-27-22(31-13)19(11-21(28)29)15-7-14(8-17(24)9-15)18-10-16(23(2,3)12-25)5-6-20(18)30-4/h5-10,19H,11H2,1-4H3,(H,28,29)
InChIKey=WHJMZEXAEYQDOE-UHFFFAOYSA-N

> <PUBCHEM_SUBSTANCE_SYNONYM>
SCHEMBL16109381

> <PUBCHEM_XREF_EXT_ID>
SCHEMBL16109381

> <PUBCHEM_EXT_DATASOURCE_URL>
https://www.surechembl.org/

> <PUBCHEM_EXT_SUBSTANCE_URL>
https://www.surechembl.org/chemical/SCHEMBL16109381

> <PUBCHEM_CID_ASSOCIATIONS>
86282079  1

> <PUBCHEM_COORDINATE_TYPE>
1
3

$$$$
