310937797
  -OEChem-07211613022D

 26 26  0     1  0  0  0  0  0999 V2000
    4.4949   -0.7112    0.0000 O   0  0  0  0  0  0  0  0  0  0  0  0
    3.2716    0.0000    0.0000 O   0  0  0  0  0  0  0  0  0  0  0  0
    1.2233   -0.7112    0.0000 O   0  0  0  0  0  0  0  0  0  0  0  0
    0.0000   -1.4224    0.0000 O   0  0  0  0  0  0  0  0  0  0  0  0
    4.4949   -4.9785    0.0000 O   0  0  0  0  0  0  0  0  0  0  0  0
    5.7182   -4.2673    0.0000 O   0  0  0  0  0  0  0  0  0  0  0  0
    3.2716   -1.4224    0.0000 N   0  0  0  0  0  0  0  0  0  0  0  0
    1.2233   -2.1337    0.0000 N   0  0  0  0  0  0  0  0  0  0  0  0
    4.4949   -3.5561    0.0000 N   0  0  0  0  0  0  0  0  0  0  0  0
    2.4466   -4.2673    0.0000 N   0  0  3  0  0  0  0  0  0  0  0  0
    2.4466   -1.4224    0.0000 C   0  0  0  0  0  0  0  0  0  0  0  0
    2.0483   -2.1337    0.0000 C   0  0  0  0  0  0  0  0  0  0  0  0
    3.6699   -0.7112    0.0000 C   0  0  0  0  0  0  0  0  0  0  0  0
    3.6699   -2.1337    0.0000 C   0  0  0  0  0  0  0  0  0  0  0  0
    0.7966   -1.4224    0.0000 C   0  0  0  0  0  0  0  0  0  0  0  0
    4.8932   -2.8449    0.0000 C   0  0  0  0  0  0  0  0  0  0  0  0
    3.6699   -3.5561    0.0000 C   0  0  0  0  0  0  0  0  0  0  0  0
    0.7966   -2.8449    0.0000 C   0  0  0  0  0  0  0  0  0  0  0  0
    4.8932   -4.2673    0.0000 C   0  0  0  0  0  0  0  0  0  0  0  0
    4.4949   -2.1337    0.0000 C   0  0  0  0  0  0  0  0  0  0  0  0
    3.2716   -4.2673    0.0000 C   0  0  0  0  0  0  0  0  0  0  0  0
    2.0483   -3.5561    0.0000 C   0  0  0  0  0  0  0  0  0  0  0  0
    1.2233   -3.5561    0.0000 C   0  0  0  0  0  0  0  0  0  0  0  0
    2.0199   -4.9785    0.0000 C   0  0  0  0  0  0  0  0  0  0  0  0
    2.4466   -5.6898    0.0000 C   0  0  0  0  0  0  0  0  0  0  0  0
    3.2716   -5.6898    0.0000 C   0  0  0  0  0  0  0  0  0  0  0  0
  1 13  2  0  0  0  0
  2 13  1  0  0  0  0
  3 15  2  0  0  0  0
  4 15  1  0  0  0  0
  5 19  2  0  0  0  0
  6 19  1  0  0  0  0
  7 11  1  0  0  0  0
  7 13  1  0  0  0  0
  7 14  1  0  0  0  0
  8 12  1  0  0  0  0
  8 15  1  0  0  0  0
  8 18  1  0  0  0  0
  9 16  1  0  0  0  0
  9 17  1  0  0  0  0
  9 19  1  0  0  0  0
 10 21  1  0  0  0  0
 10 22  1  0  0  0  0
 10 24  1  0  0  0  0
 11 12  1  0  0  0  0
 14 20  1  0  0  0  0
 16 20  1  0  0  0  0
 17 21  1  0  0  0  0
 18 23  1  0  0  0  0
 22 23  1  0  0  0  0
 24 25  1  0  0  0  0
 25 26  3  0  0  0  0
M  END
> <PUBCHEM_COMPOUND_ID_TYPE>
0

> <PUBCHEM_TOTAL_CHARGE>
0

> <PUBCHEM_SUBSTANCE_ID>
310937797

> <PUBCHEM_SUBSTANCE_VERSION>
1

> <PUBCHEM_EXT_DATASOURCE_NAME>
4488

> <PUBCHEM_EXT_DATASOURCE_REGID>
SCHEMBL16115610

> <PUBCHEM_SUBSTANCE_COMMENT>
InChI=1S/C16H26N4O6/c1-2-5-17-6-3-7-19(15(23)24)12-13-20(16(25)26)9-4-8-18(11-10-17)14(21)22/h1H,3-13H2,(H,21,22)(H,23,24)(H,25,26)
InChIKey=ZUYNBRYEJHQXDH-UHFFFAOYSA-N

> <PUBCHEM_SUBSTANCE_SYNONYM>
SCHEMBL16115610

> <PUBCHEM_XREF_EXT_ID>
SCHEMBL16115610

> <PUBCHEM_EXT_DATASOURCE_URL>
https://www.surechembl.org/

> <PUBCHEM_EXT_SUBSTANCE_URL>
https://www.surechembl.org/chemical/SCHEMBL16115610

> <PUBCHEM_CID_ASSOCIATIONS>
117605446  1

> <PUBCHEM_COORDINATE_TYPE>
1
3

$$$$
