310942030
  -OEChem-07211613022D

 45 49  0     1  0  0  0  0  0999 V2000
   -6.4638   -1.7717    0.0000 Cl  0  0  0  0  0  0  0  0  0  0  0  0
    4.6193   -2.6778    0.0000 O   0  0  0  0  0  0  0  0  0  0  0  0
    2.7425   -0.1699    0.0000 O   0  0  0  0  0  0  0  0  0  0  0  0
    1.0274   -2.5322    0.0000 O   0  0  0  0  0  0  0  0  0  0  0  0
    4.2472    2.7748    0.0000 O   0  0  0  0  0  0  0  0  0  0  0  0
    1.2216    2.1276    0.0000 O   0  0  0  0  0  0  0  0  0  0  0  0
    1.2216    0.3478    0.0000 O   0  0  0  0  0  0  0  0  0  0  0  0
    3.9398   -1.3025    0.0000 N   0  0  0  0  0  0  0  0  0  0  0  0
    5.1532    1.0922    0.0000 N   0  0  0  0  0  0  0  0  0  0  0  0
    1.8850   -1.3510    0.0000 N   0  0  0  0  0  0  0  0  0  0  0  0
   -3.5191   -1.7717    0.0000 N   0  0  0  0  0  0  0  0  0  0  0  0
    3.4706    1.2378    0.0000 N   0  0  0  0  0  0  0  0  0  0  0  0
   -3.5191    0.8818    0.0000 N   0  0  0  0  0  0  0  0  0  0  0  0
   -0.1375    1.3348    0.0000 N   0  0  0  0  0  0  0  0  0  0  0  0
    4.9429   -0.4288    0.0000 C   0  0  0  0  0  0  0  0  0  0  0  0
    5.2180   -1.2378    0.0000 C   0  0  0  0  0  0  0  0  0  0  0  0
    4.6032   -1.7555    0.0000 C   0  0  0  0  0  0  0  0  0  0  0  0
    4.1663   -0.4450    0.0000 C   0  0  0  0  0  0  0  0  0  0  0  0
    3.2278   -1.5937    0.0000 C   0  0  3  0  0  0  0  0  0  0  0  0
    5.4283    0.2670    0.0000 C   0  0  0  0  0  0  0  0  0  0  0  0
    5.9784   -1.3834    0.0000 C   0  0  0  0  0  0  0  0  0  0  0  0
    2.6130   -1.0436    0.0000 C   0  0  0  0  0  0  0  0  0  0  0  0
    6.1888    0.1052    0.0000 C   0  0  0  0  0  0  0  0  0  0  0  0
    3.0660   -2.4836    0.0000 C   0  0  0  0  0  0  0  0  0  0  0  0
    6.4638   -0.7200    0.0000 C   0  0  0  0  0  0  0  0  0  0  0  0
    1.7555   -2.2086    0.0000 C   0  0  0  0  0  0  0  0  0  0  0  0
    2.3542   -2.7748    0.0000 C   0  0  0  0  0  0  0  0  0  0  0  0
    4.2472    1.7393    0.0000 C   0  0  0  0  0  0  0  0  0  0  0  0
   -4.1986   -0.4450    0.0000 C   0  0  0  0  0  0  0  0  0  0  0  0
   -4.1986   -1.3186    0.0000 C   0  0  0  0  0  0  0  0  0  0  0  0
   -3.5353    0.0081    0.0000 C   0  0  0  0  0  0  0  0  0  0  0  0
   -4.8944   -0.0081    0.0000 C   0  0  0  0  0  0  0  0  0  0  0  0
   -4.8620   -1.7555    0.0000 C   0  0  0  0  0  0  0  0  0  0  0  0
   -5.5578   -1.3186    0.0000 C   0  0  0  0  0  0  0  0  0  0  0  0
   -2.8396   -0.4450    0.0000 C   0  0  0  0  0  0  0  0  0  0  0  0
   -5.5416   -0.4450    0.0000 C   0  0  0  0  0  0  0  0  0  0  0  0
   -2.8557   -1.3348    0.0000 C   0  0  0  0  0  0  0  0  0  0  0  0
   -2.8557    1.3510    0.0000 C   0  0  3  0  0  0  0  0  0  0  0  0
    2.5807    1.2539    0.0000 C   0  0  0  0  0  0  0  0  0  0  0  0
   -2.1600    0.8980    0.0000 C   0  0  0  0  0  0  0  0  0  0  0  0
    2.1438    2.1114    0.0000 C   0  0  0  0  0  0  0  0  0  0  0  0
   -2.8557    2.2409    0.0000 C   0  0  0  0  0  0  0  0  0  0  0  0
   -1.5128    1.3186    0.0000 C   0  0  0  0  0  0  0  0  0  0  0  0
    0.7686    1.2539    0.0000 C   0  0  0  0  0  0  0  0  0  0  0  0
   -0.7847    0.8980    0.0000 C   0  0  0  0  0  0  0  0  0  0  0  0
  1 34  1  0  0  0  0
  2 17  2  0  0  0  0
  3 22  2  0  0  0  0
  4 26  2  0  0  0  0
  5 28  2  0  0  0  0
  6 41  1  0  0  0  0
  6 44  1  0  0  0  0
  7 44  2  0  0  0  0
  8 17  1  0  0  0  0
  8 18  1  0  0  0  0
  8 19  1  0  0  0  0
  9 20  1  0  0  0  0
  9 28  1  0  0  0  0
 10 22  1  0  0  0  0
 10 26  1  0  0  0  0
 11 30  1  0  0  0  0
 11 37  2  0  0  0  0
 12 28  1  0  0  0  0
 12 39  1  0  0  0  0
 13 31  1  0  0  0  0
 13 38  1  0  0  0  0
 14 44  1  0  0  0  0
 14 45  1  0  0  0  0
 15 16  2  0  0  0  0
 15 18  1  0  0  0  0
 15 20  1  0  0  0  0
 16 17  1  0  0  0  0
 16 21  1  0  0  0  0
 19 22  1  0  0  0  0
 19 24  1  0  0  0  0
 20 23  2  0  0  0  0
 21 25  2  0  0  0  0
 23 25  1  0  0  0  0
 24 27  1  0  0  0  0
 26 27  1  0  0  0  0
 29 30  1  0  0  0  0
 29 31  1  0  0  0  0
 29 32  2  0  0  0  0
 30 33  2  0  0  0  0
 31 35  2  0  0  0  0
 32 36  1  0  0  0  0
 33 34  1  0  0  0  0
 34 36  2  0  0  0  0
 35 37  1  0  0  0  0
 38 40  1  0  0  0  0
 38 42  1  0  0  0  0
 39 41  1  0  0  0  0
 40 43  1  0  0  0  0
 43 45  1  0  0  0  0
M  END
> <PUBCHEM_COMPOUND_ID_TYPE>
0

> <PUBCHEM_TOTAL_CHARGE>
0

> <PUBCHEM_SUBSTANCE_ID>
310942030

> <PUBCHEM_SUBSTANCE_VERSION>
1

> <PUBCHEM_EXT_DATASOURCE_NAME>
4488

> <PUBCHEM_EXT_DATASOURCE_REGID>
SCHEMBL16120064

> <PUBCHEM_SUBSTANCE_COMMENT>
InChI=1S/C31H34ClN7O6/c1-18(36-24-11-13-33-25-16-19(32)7-8-21(24)25)4-3-12-35-31(44)45-15-14-34-30(43)37-23-6-2-5-20-22(23)17-39(29(20)42)26-9-10-27(40)38-28(26)41/h2,5-8,11,13,16,18,26H,3-4,9-10,12,14-15,17H2,1H3,(H,33,36)(H,35,44)(H2,34,37,43)(H,38,40,41)
InChIKey=QNINLZPKVQXPPU-UHFFFAOYSA-N

> <PUBCHEM_SUBSTANCE_SYNONYM>
SCHEMBL16120064

> <PUBCHEM_XREF_EXT_ID>
SCHEMBL16120064

> <PUBCHEM_EXT_DATASOURCE_URL>
https://www.surechembl.org/

> <PUBCHEM_EXT_SUBSTANCE_URL>
https://www.surechembl.org/chemical/SCHEMBL16120064

> <PUBCHEM_CID_ASSOCIATIONS>
86275390  1

> <PUBCHEM_COORDINATE_TYPE>
1
3

$$$$
