310931471
  -OEChem-07211613022D

 28 31  0     1  0  0  0  0  0999 V2000
   -4.4744    9.3376    0.0000 O   0  0  0  0  0  0  0  0  0  0  0  0
   -1.4289    6.7276    0.0000 O   0  0  0  0  0  0  0  0  0  0  0  0
   -5.0013    7.9651    0.0000 N   0  0  0  0  0  0  0  0  0  0  0  0
   -5.7550    7.6296    0.0000 N   0  0  0  0  0  0  0  0  0  0  0  0
   -3.5724    7.9651    0.0000 N   0  0  0  0  0  0  0  0  0  0  0  0
   -2.1434    5.4901    0.0000 N   0  0  0  0  0  0  0  0  0  0  0  0
   -7.5723   12.7255    0.0000 N   0  0  0  0  0  0  0  0  0  0  0  0
   -5.0875    8.7856    0.0000 C   0  0  0  0  0  0  0  0  0  0  0  0
   -5.8945    8.9571    0.0000 C   0  0  0  0  0  0  0  0  0  0  0  0
   -4.2868    7.5526    0.0000 C   0  0  0  0  0  0  0  0  0  0  0  0
   -6.2301    9.7108    0.0000 C   0  0  0  0  0  0  0  0  0  0  0  0
   -6.3070    8.2427    0.0000 C   0  0  0  0  0  0  0  0  0  0  0  0
   -2.8579    6.7276    0.0000 C   0  0  0  0  0  0  0  0  0  0  0  0
   -4.2868    6.7276    0.0000 C   0  0  0  0  0  0  0  0  0  0  0  0
   -2.8579    7.5526    0.0000 C   0  0  0  0  0  0  0  0  0  0  0  0
   -3.5724    6.3151    0.0000 C   0  0  0  0  0  0  0  0  0  0  0  0
   -2.1434    6.3151    0.0000 C   0  0  0  0  0  0  0  0  0  0  0  0
   -7.0505    9.7970    0.0000 C   0  0  0  0  0  0  0  0  0  0  0  0
   -5.7451   10.3782    0.0000 C   0  0  0  0  0  0  0  0  0  0  0  0
   -1.4289    4.2526    0.0000 C   0  0  0  0  0  0  0  0  0  0  0  0
   -1.4289    5.0776    0.0000 C   0  0  3  0  0  0  0  0  0  0  0  0
   -6.9012   11.2182    0.0000 C   0  0  0  0  0  0  0  0  0  0  0  0
   -7.3861   10.5507    0.0000 C   0  0  0  0  0  0  0  0  0  0  0  0
   -6.0807   11.1319    0.0000 C   0  0  0  0  0  0  0  0  0  0  0  0
   -1.0164    3.5382    0.0000 C   0  0  0  0  0  0  0  0  0  0  0  0
   -1.8414    3.5382    0.0000 C   0  0  0  0  0  0  0  0  0  0  0  0
   -7.2367   11.9718    0.0000 C   0  0  0  0  0  0  0  0  0  0  0  0
   -0.7145    5.4901    0.0000 C   0  0  0  0  0  0  0  0  0  0  0  0
  1  8  1  0  0  0  0
  2 17  2  0  0  0  0
  3  4  1  0  0  0  0
  3  8  1  0  0  0  0
  3 10  1  0  0  0  0
  4 12  2  0  0  0  0
  5 10  1  0  0  0  0
  5 15  2  0  0  0  0
  6 17  1  0  0  0  0
  6 21  1  0  0  0  0
  7 27  3  0  0  0  0
  8  9  2  0  0  0  0
  9 11  1  0  0  0  0
  9 12  1  0  0  0  0
 10 14  2  0  0  0  0
 11 18  2  0  0  0  0
 11 19  1  0  0  0  0
 13 15  1  0  0  0  0
 13 16  2  0  0  0  0
 13 17  1  0  0  0  0
 14 16  1  0  0  0  0
 18 23  1  0  0  0  0
 19 24  2  0  0  0  0
 20 21  1  0  0  0  0
 20 25  1  0  0  0  0
 20 26  1  0  0  0  0
 21 28  1  0  0  0  0
 22 23  2  0  0  0  0
 22 24  1  0  0  0  0
 22 27  1  0  0  0  0
 25 26  1  0  0  0  0
M  END
> <PUBCHEM_COMPOUND_ID_TYPE>
0

> <PUBCHEM_TOTAL_CHARGE>
0

> <PUBCHEM_SUBSTANCE_ID>
310931471

> <PUBCHEM_SUBSTANCE_VERSION>
1

> <PUBCHEM_EXT_DATASOURCE_NAME>
4488

> <PUBCHEM_EXT_DATASOURCE_REGID>
SCHEMBL16108796

> <PUBCHEM_SUBSTANCE_COMMENT>
InChI=1S/C21H19N5O2/c1-13(15-6-7-15)25-20(27)17-8-9-19(23-11-17)26-21(28)18(12-24-26)16-4-2-14(10-22)3-5-16/h2-5,8-9,11-13,15,28H,6-7H2,1H3,(H,25,27)
InChIKey=JAHKZXLQPUXJJY-UHFFFAOYSA-N

> <PUBCHEM_SUBSTANCE_SYNONYM>
SCHEMBL16108796

> <PUBCHEM_XREF_EXT_ID>
SCHEMBL16108796

> <PUBCHEM_EXT_DATASOURCE_URL>
https://www.surechembl.org/

> <PUBCHEM_EXT_SUBSTANCE_URL>
https://www.surechembl.org/chemical/SCHEMBL16108796

> <PUBCHEM_CID_ASSOCIATIONS>
117600238  1

> <PUBCHEM_COORDINATE_TYPE>
1
3

$$$$
