310944600
  -OEChem-07211613022D

 30 32  0     1  0  0  0  0  0999 V2000
   -4.4010    0.0124    0.0000 Cl  0  0  0  0  0  0  0  0  0  0  0  0
   -1.3846    0.0124    0.0000 O   0  0  0  0  0  0  0  0  0  0  0  0
    0.0494    2.4849    0.0000 O   0  0  0  0  0  0  0  0  0  0  0  0
    4.9327   -1.7802    0.0000 O   0  0  0  0  0  0  0  0  0  0  0  0
    2.2129    0.4327    0.0000 N   0  0  0  0  0  0  0  0  0  0  0  0
    3.7088   -1.0632    0.0000 N   0  0  0  0  0  0  0  0  0  0  0  0
    0.7789    1.2486    0.0000 N   0  0  0  0  0  0  0  0  0  0  0  0
   -1.3723    1.6690    0.0000 N   0  0  0  0  0  0  0  0  0  0  0  0
    2.9299    0.0248    0.0000 C   0  0  3  0  0  0  0  0  0  0  0  0
   -2.0770    1.2609    0.0000 C   0  0  0  0  0  0  0  0  0  0  0  0
    2.9176   -0.8036    0.0000 C   0  0  0  0  0  0  0  0  0  0  0  0
   -2.0892    0.4327    0.0000 C   0  0  0  0  0  0  0  0  0  0  0  0
   -3.5109    1.2486    0.0000 C   0  0  0  0  0  0  0  0  0  0  0  0
    3.7211    0.2596    0.0000 C   0  0  0  0  0  0  0  0  0  0  0  0
    1.5082    0.0248    0.0000 C   0  0  0  0  0  0  0  0  0  0  0  0
    2.2129    1.2486    0.0000 C   0  0  0  0  0  0  0  0  0  0  0  0
    0.0494    1.6566    0.0000 C   0  0  0  0  0  0  0  0  0  0  0  0
   -3.5233    0.4327    0.0000 C   0  0  0  0  0  0  0  0  0  0  0  0
   -2.7816    1.6566    0.0000 C   0  0  0  0  0  0  0  0  0  0  0  0
    4.1909   -0.3956    0.0000 C   0  0  0  0  0  0  0  0  0  0  0  0
    0.7789    0.4327    0.0000 C   0  0  0  0  0  0  0  0  0  0  0  0
    1.4959    1.6566    0.0000 C   0  0  0  0  0  0  0  0  0  0  0  0
   -2.7939    0.0248    0.0000 C   0  0  0  0  0  0  0  0  0  0  0  0
    4.1044   -1.7678    0.0000 C   0  0  0  0  0  0  0  0  0  0  0  0
   -0.6429    1.2609    0.0000 C   0  0  0  0  0  0  0  0  0  0  0  0
   -4.2156    1.6690    0.0000 C   0  0  0  0  0  0  0  0  0  0  0  0
    3.7088   -2.4849    0.0000 C   0  0  0  0  0  0  0  0  0  0  0  0
   -0.6552    0.4203    0.0000 C   0  0  0  0  0  0  0  0  0  0  0  0
   -4.9327    1.2486    0.0000 C   0  0  0  0  0  0  0  0  0  0  0  0
    2.8805   -2.4478    0.0000 C   0  0  0  0  0  0  0  0  0  0  0  0
  1 18  1  0  0  0  0
  2 12  1  0  0  0  0
  2 28  1  0  0  0  0
  3 17  2  0  0  0  0
  4 24  2  0  0  0  0
  5  9  1  0  0  0  0
  5 15  1  0  0  0  0
  5 16  1  0  0  0  0
  6 11  1  0  0  0  0
  6 20  1  0  0  0  0
  6 24  1  0  0  0  0
  7 17  1  0  0  0  0
  7 21  1  0  0  0  0
  7 22  1  0  0  0  0
  8 10  1  0  0  0  0
  8 25  1  0  0  0  0
  9 11  1  0  0  0  0
  9 14  1  0  0  0  0
 10 12  1  0  0  0  0
 10 19  2  0  0  0  0
 12 23  2  0  0  0  0
 13 18  2  0  0  0  0
 13 19  1  0  0  0  0
 13 26  1  0  0  0  0
 14 20  1  0  0  0  0
 15 21  1  0  0  0  0
 16 22  1  0  0  0  0
 17 25  1  0  0  0  0
 18 23  1  0  0  0  0
 24 27  1  0  0  0  0
 26 29  1  0  0  0  0
 27 30  2  0  0  0  0
M  END
> <PUBCHEM_COMPOUND_ID_TYPE>
0

> <PUBCHEM_TOTAL_CHARGE>
0

> <PUBCHEM_SUBSTANCE_ID>
310944600

> <PUBCHEM_SUBSTANCE_VERSION>
1

> <PUBCHEM_EXT_DATASOURCE_NAME>
4488

> <PUBCHEM_EXT_DATASOURCE_REGID>
SCHEMBL16122678

> <PUBCHEM_SUBSTANCE_COMMENT>
InChI=1S/C22H31ClN4O3/c1-4-16-12-19(20(30-3)13-18(16)23)24-14-22(29)26-10-8-25(9-11-26)17-6-7-27(15-17)21(28)5-2/h5,12-13,17,24H,2,4,6-11,14-15H2,1,3H3
InChIKey=GIONJUAQMOBGOV-UHFFFAOYSA-N

> <PUBCHEM_SUBSTANCE_SYNONYM>
SCHEMBL16122678

> <PUBCHEM_XREF_EXT_ID>
SCHEMBL16122678

> <PUBCHEM_EXT_DATASOURCE_URL>
https://www.surechembl.org/

> <PUBCHEM_EXT_SUBSTANCE_URL>
https://www.surechembl.org/chemical/SCHEMBL16122678

> <PUBCHEM_CID_ASSOCIATIONS>
117610830  1

> <PUBCHEM_COORDINATE_TYPE>
1
3

$$$$
