310939435
  -OEChem-07211613022D

 17 17  0     1  0  0  0  0  0999 V2000
    1.7771   -0.2464    0.0000 S   0  0  0  0  0  0  0  0  0  0  0  0
    0.3481    1.4036    0.0000 O   0  0  0  0  0  0  0  0  0  0  0  0
    2.1896    0.4681    0.0000 O   0  0  0  0  0  0  0  0  0  0  0  0
    1.3646   -0.9608    0.0000 O   0  0  0  0  0  0  0  0  0  0  0  0
    2.4916   -0.6589    0.0000 O   0  0  0  0  0  0  0  0  0  0  0  0
    0.3481    2.2286    0.0000 C   0  0  0  0  0  0  0  0  0  0  0  0
    0.3481    3.8786    0.0000 C   0  0  0  0  0  0  0  0  0  0  0  0
    1.0626    2.6411    0.0000 C   0  0  0  0  0  0  0  0  0  0  0  0
   -0.3663    2.6411    0.0000 C   0  0  0  0  0  0  0  0  0  0  0  0
    1.0626    3.4661    0.0000 C   0  0  0  0  0  0  0  0  0  0  0  0
   -0.3663    3.4661    0.0000 C   0  0  0  0  0  0  0  0  0  0  0  0
    0.3467    4.7036    0.0000 C   0  0  3  0  0  0  0  0  0  0  0  0
    1.0626    0.1661    0.0000 C   0  0  0  0  0  0  0  0  0  0  0  0
    1.0626    0.9911    0.0000 C   0  0  0  0  0  0  0  0  0  0  0  0
   -0.7298    4.7036    0.0000 C   0  0  0  0  0  0  0  0  0  0  0  0
    1.5199    4.7036    0.0000 C   0  0  0  0  0  0  0  0  0  0  0  0
   -1.5548    4.7036    0.0000 C   0  0  0  0  0  0  0  0  0  0  0  0
  1  3  2  0  0  0  0
  1  4  2  0  0  0  0
  1  5  1  0  0  0  0
  1 13  1  0  0  0  0
  2  6  1  0  0  0  0
  2 14  1  0  0  0  0
  6  8  2  0  0  0  0
  6  9  1  0  0  0  0
  7 10  2  0  0  0  0
  7 11  1  0  0  0  0
  7 12  1  0  0  0  0
  8 10  1  0  0  0  0
  9 11  2  0  0  0  0
 12 15  1  0  0  0  0
 12 16  1  0  0  0  0
 13 14  1  0  0  0  0
 15 17  1  0  0  0  0
M  END
> <PUBCHEM_COMPOUND_ID_TYPE>
0

> <PUBCHEM_TOTAL_CHARGE>
0

> <PUBCHEM_SUBSTANCE_ID>
310939435

> <PUBCHEM_SUBSTANCE_VERSION>
1

> <PUBCHEM_EXT_DATASOURCE_NAME>
4488

> <PUBCHEM_EXT_DATASOURCE_REGID>
SCHEMBL16117357

> <PUBCHEM_SUBSTANCE_COMMENT>
InChI=1S/C12H18O4S/c1-3-10(2)11-4-6-12(7-5-11)16-8-9-17(13,14)15/h4-7,10H,3,8-9H2,1-2H3,(H,13,14,15)
InChIKey=BZLBJMHHRJJISY-UHFFFAOYSA-N

> <PUBCHEM_SUBSTANCE_SYNONYM>
SCHEMBL16117357

> <PUBCHEM_XREF_EXT_ID>
SCHEMBL16117357

> <PUBCHEM_EXT_DATASOURCE_URL>
https://www.surechembl.org/

> <PUBCHEM_EXT_SUBSTANCE_URL>
https://www.surechembl.org/chemical/SCHEMBL16117357

> <PUBCHEM_CID_ASSOCIATIONS>
117606759  1

> <PUBCHEM_COORDINATE_TYPE>
1
3

$$$$
