310929269
  -OEChem-07211613022D

 21 21  0     1  0  0  0  0  0999 V2000
    1.7862   -1.2976    0.0000 N   0  0  3  0  0  0  0  0  0  0  0  0
    2.8664   -0.0503    0.0000 N   0  0  3  0  0  0  0  0  0  0  0  0
    0.7060   -0.3622    0.0000 N   0  0  3  0  0  0  0  0  0  0  0  0
    1.7862    0.8851    0.0000 N   0  0  3  0  0  0  0  0  0  0  0  0
    2.0562   -4.2599    0.0000 N   0  0  0  0  0  0  0  0  0  0  0  0
    2.5963   -1.4535    0.0000 C   0  0  0  0  0  0  0  0  0  0  0  0
    1.2461   -1.9213    0.0000 C   0  0  0  0  0  0  0  0  0  0  0  0
    3.1364   -0.8299    0.0000 C   0  0  0  0  0  0  0  0  0  0  0  0
    2.0562   -2.0772    0.0000 C   0  0  0  0  0  0  0  0  0  0  0  0
    0.4360   -1.7654    0.0000 C   0  0  0  0  0  0  0  0  0  0  0  0
    0.1659   -0.9858    0.0000 C   0  0  0  0  0  0  0  0  0  0  0  0
    0.4360    0.4174    0.0000 C   0  0  0  0  0  0  0  0  0  0  0  0
    0.9760    1.0410    0.0000 C   0  0  0  0  0  0  0  0  0  0  0  0
    3.4064    0.5733    0.0000 C   0  0  0  0  0  0  0  0  0  0  0  0
    2.3263    1.5088    0.0000 C   0  0  0  0  0  0  0  0  0  0  0  0
    3.1364    1.3529    0.0000 C   0  0  0  0  0  0  0  0  0  0  0  0
    1.5161   -2.7008    0.0000 C   0  0  0  0  0  0  0  0  0  0  0  0
    2.0562    0.1056    0.0000 C   0  0  0  0  0  0  0  0  0  0  0  0
    1.5161   -0.5181    0.0000 C   0  0  0  0  0  0  0  0  0  0  0  0
    1.5161    1.6647    0.0000 C   0  0  0  0  0  0  0  0  0  0  0  0
    1.7862   -3.4804    0.0000 C   0  0  0  0  0  0  0  0  0  0  0  0
  1  6  1  0  0  0  0
  1  7  1  0  0  0  0
  1  9  1  0  0  0  0
  2  8  1  0  0  0  0
  2 14  1  0  0  0  0
  2 18  1  0  0  0  0
  3 11  1  0  0  0  0
  3 12  1  0  0  0  0
  3 19  1  0  0  0  0
  4 13  1  0  0  0  0
  4 15  1  0  0  0  0
  4 20  1  0  0  0  0
  5 21  3  0  0  0  0
  6  8  1  0  0  0  0
  7 10  1  0  0  0  0
  9 17  1  0  0  0  0
 10 11  1  0  0  0  0
 12 13  1  0  0  0  0
 14 16  1  0  0  0  0
 15 16  1  0  0  0  0
 17 21  1  0  0  0  0
M  END
> <PUBCHEM_COMPOUND_ID_TYPE>
0

> <PUBCHEM_TOTAL_CHARGE>
0

> <PUBCHEM_SUBSTANCE_ID>
310929269

> <PUBCHEM_SUBSTANCE_VERSION>
1

> <PUBCHEM_EXT_DATASOURCE_NAME>
4488

> <PUBCHEM_EXT_DATASOURCE_REGID>
SCHEMBL16106433

> <PUBCHEM_SUBSTANCE_COMMENT>
InChI=1S/C16H33N5/c1-18-8-5-9-20(3)15-16-21(11-4-7-17)12-6-10-19(2)14-13-18/h4-6,8-16H2,1-3H3
InChIKey=PMTMXEAWJVNZCF-UHFFFAOYSA-N

> <PUBCHEM_SUBSTANCE_SYNONYM>
SCHEMBL16106433

> <PUBCHEM_XREF_EXT_ID>
SCHEMBL16106433

> <PUBCHEM_EXT_DATASOURCE_URL>
https://www.surechembl.org/

> <PUBCHEM_EXT_SUBSTANCE_URL>
https://www.surechembl.org/chemical/SCHEMBL16106433

> <PUBCHEM_CID_ASSOCIATIONS>
71676790  1

> <PUBCHEM_COORDINATE_TYPE>
1
3

$$$$
