310942097
  -OEChem-07211613022D

 27 29  0     1  0  0  0  0  0999 V2000
   -1.9936   -1.0812    0.0000 F   0  0  0  0  0  0  0  0  0  0  0  0
   -1.9936    1.8062    0.0000 F   0  0  0  0  0  0  0  0  0  0  0  0
   -2.8311    0.3687    0.0000 O   0  0  0  0  0  0  0  0  0  0  0  0
    0.5062   -1.0812    0.0000 N   0  0  0  0  0  0  0  0  0  0  0  0
    2.2436   -1.1187    0.0000 N   0  0  0  0  0  0  0  0  0  0  0  0
    3.0436   -2.2186    0.0000 N   0  0  0  0  0  0  0  0  0  0  0  0
   -0.7437   -0.3562    0.0000 C   0  0  0  0  0  0  0  0  0  0  0  0
   -1.5686   -0.3437    0.0000 C   0  0  0  0  0  0  0  0  0  0  0  0
   -1.9811    0.3687    0.0000 C   0  0  0  0  0  0  0  0  0  0  0  0
   -1.5812    1.0937    0.0000 C   0  0  0  0  0  0  0  0  0  0  0  0
   -0.3312   -1.0562    0.0000 C   0  0  3  0  0  0  0  0  0  0  0  0
   -0.3312    0.3812    0.0000 C   0  0  0  0  0  0  0  0  0  0  0  0
   -0.7312    1.0812    0.0000 C   0  0  0  0  0  0  0  0  0  0  0  0
   -3.2436    1.0937    0.0000 C   0  0  0  0  0  0  0  0  0  0  0  0
    1.7561   -1.8062    0.0000 C   0  0  0  0  0  0  0  0  0  0  0  0
   -0.7312   -1.8062    0.0000 C   0  0  0  0  0  0  0  0  0  0  0  0
    0.9187   -1.7811    0.0000 C   0  0  0  0  0  0  0  0  0  0  0  0
    3.0436   -1.3812    0.0000 C   0  0  0  0  0  0  0  0  0  0  0  0
    2.2561   -2.4686    0.0000 C   0  0  0  0  0  0  0  0  0  0  0  0
   -2.8311    1.8062    0.0000 C   0  0  0  0  0  0  0  0  0  0  0  0
   -4.0685    1.1062    0.0000 C   0  0  0  0  0  0  0  0  0  0  0  0
   -3.2436    2.5186    0.0000 C   0  0  0  0  0  0  0  0  0  0  0  0
   -4.4810    1.8062    0.0000 C   0  0  0  0  0  0  0  0  0  0  0  0
    3.7560   -0.9687    0.0000 C   0  0  0  0  0  0  0  0  0  0  0  0
   -0.3187   -2.5186    0.0000 C   0  0  0  0  0  0  0  0  0  0  0  0
   -4.0685    2.5186    0.0000 C   0  0  0  0  0  0  0  0  0  0  0  0
    4.4810   -1.3687    0.0000 C   0  0  0  0  0  0  0  0  0  0  0  0
  1  8  1  0  0  0  0
  2 10  1  0  0  0  0
  3  9  1  0  0  0  0
  3 14  1  0  0  0  0
  4 11  1  0  0  0  0
  4 17  1  0  0  0  0
  5 15  1  0  0  0  0
  5 18  1  0  0  0  0
  6 18  2  0  0  0  0
  6 19  1  0  0  0  0
  7  8  2  0  0  0  0
  7 11  1  0  0  0  0
  7 12  1  0  0  0  0
  8  9  1  0  0  0  0
  9 10  2  0  0  0  0
 10 13  1  0  0  0  0
 11 16  1  0  0  0  0
 12 13  2  0  0  0  0
 14 20  2  0  0  0  0
 14 21  1  0  0  0  0
 15 17  1  0  0  0  0
 15 19  2  0  0  0  0
 16 25  1  0  0  0  0
 18 24  1  0  0  0  0
 20 22  1  0  0  0  0
 21 23  2  0  0  0  0
 22 26  2  0  0  0  0
 23 26  1  0  0  0  0
 24 27  1  0  0  0  0
M  END
> <PUBCHEM_COMPOUND_ID_TYPE>
0

> <PUBCHEM_TOTAL_CHARGE>
0

> <PUBCHEM_SUBSTANCE_ID>
310942097

> <PUBCHEM_SUBSTANCE_VERSION>
1

> <PUBCHEM_EXT_DATASOURCE_NAME>
4488

> <PUBCHEM_EXT_DATASOURCE_REGID>
SCHEMBL16120132

> <PUBCHEM_SUBSTANCE_COMMENT>
InChI=1S/C21H23F2N3O/c1-3-18(24-12-14-13-25-19(4-2)26-14)16-10-11-17(22)21(20(16)23)27-15-8-6-5-7-9-15/h5-11,13,18,24H,3-4,12H2,1-2H3,(H,25,26)
InChIKey=QCXFCLBVIJZZEI-UHFFFAOYSA-N

> <PUBCHEM_SUBSTANCE_SYNONYM>
SCHEMBL16120132

> <PUBCHEM_XREF_EXT_ID>
SCHEMBL16120132

> <PUBCHEM_EXT_DATASOURCE_URL>
https://www.surechembl.org/

> <PUBCHEM_EXT_SUBSTANCE_URL>
https://www.surechembl.org/chemical/SCHEMBL16120132

> <PUBCHEM_CID_ASSOCIATIONS>
117608759  1

> <PUBCHEM_COORDINATE_TYPE>
1
3

$$$$
