310940168
  -OEChem-07211613022D

 26 28  0     1  0  0  0  0  0999 V2000
   -1.6205   -2.1410    0.0000 O   0  0  0  0  0  0  0  0  0  0  0  0
    0.2651   -0.4911    0.0000 O   0  0  0  0  0  0  0  0  0  0  0  0
   -0.8938   -0.9036    0.0000 N   0  0  0  0  0  0  0  0  0  0  0  0
    0.5598   -1.8660    0.0000 N   0  0  0  0  0  0  0  0  0  0  0  0
   -0.1866   -2.1213    0.0000 C   0  0  3  0  0  0  0  0  0  0  0  0
   -0.8741    1.5910    0.0000 C   0  0  0  0  0  0  0  0  0  0  0  0
   -0.8938   -1.7089    0.0000 C   0  0  0  0  0  0  0  0  0  0  0  0
   -0.9330    0.7464    0.0000 C   0  0  0  0  0  0  0  0  0  0  0  0
   -0.1866    2.0035    0.0000 C   0  0  0  0  0  0  0  0  0  0  0  0
    0.5205    1.5518    0.0000 C   0  0  0  0  0  0  0  0  0  0  0  0
   -0.1866    0.3339    0.0000 C   0  0  0  0  0  0  0  0  0  0  0  0
   -1.5812    0.3732    0.0000 C   0  0  0  0  0  0  0  0  0  0  0  0
   -0.1866   -0.4911    0.0000 C   0  0  0  0  0  0  0  0  0  0  0  0
   -1.6008   -0.4911    0.0000 C   0  0  0  0  0  0  0  0  0  0  0  0
   -0.1866   -2.9660    0.0000 C   0  0  0  0  0  0  0  0  0  0  0  0
    1.0312   -2.5732    0.0000 C   0  0  0  0  0  0  0  0  0  0  0  0
   -1.5616    1.9839    0.0000 C   0  0  0  0  0  0  0  0  0  0  0  0
    0.7955   -1.1196    0.0000 C   0  0  0  0  0  0  0  0  0  0  0  0
   -0.1866    2.8088    0.0000 C   0  0  0  0  0  0  0  0  0  0  0  0
    0.5402   -3.2017    0.0000 C   0  0  0  0  0  0  0  0  0  0  0  0
   -1.5812    2.8088    0.0000 C   0  0  0  0  0  0  0  0  0  0  0  0
   -0.8545    3.2017    0.0000 C   0  0  0  0  0  0  0  0  0  0  0  0
    1.2277    1.9839    0.0000 C   0  0  0  0  0  0  0  0  0  0  0  0
    1.2277    1.1392    0.0000 C   0  0  0  0  0  0  0  0  0  0  0  0
    0.5009    0.7268    0.0000 C   0  0  0  0  0  0  0  0  0  0  0  0
    1.6205   -0.9821    0.0000 C   0  0  0  0  0  0  0  0  0  0  0  0
  1  7  2  0  0  0  0
  2 18  2  0  0  0  0
  3  7  1  0  0  0  0
  3 13  1  0  0  0  0
  3 14  1  0  0  0  0
  4  5  1  0  0  0  0
  4 16  1  0  0  0  0
  4 18  1  0  0  0  0
  5  7  1  0  0  0  0
  5 15  1  0  0  0  0
  6  8  1  0  0  0  0
  6  9  2  0  0  0  0
  6 17  1  0  0  0  0
  8 11  1  0  0  0  0
  8 12  1  0  0  0  0
  9 10  1  0  0  0  0
  9 19  1  0  0  0  0
 10 23  1  0  0  0  0
 10 24  1  0  0  0  0
 10 25  1  0  0  0  0
 11 13  1  0  0  0  0
 12 14  1  0  0  0  0
 15 20  1  0  0  0  0
 16 20  1  0  0  0  0
 17 21  2  0  0  0  0
 18 26  1  0  0  0  0
 19 22  2  0  0  0  0
 21 22  1  0  0  0  0
M  END
> <PUBCHEM_COMPOUND_ID_TYPE>
0

> <PUBCHEM_TOTAL_CHARGE>
0

> <PUBCHEM_SUBSTANCE_ID>
310940168

> <PUBCHEM_SUBSTANCE_VERSION>
1

> <PUBCHEM_EXT_DATASOURCE_NAME>
4488

> <PUBCHEM_EXT_DATASOURCE_REGID>
SCHEMBL16118102

> <PUBCHEM_SUBSTANCE_COMMENT>
InChI=1S/C22H32N2O2/c1-16(25)24-13-7-10-20(24)21(26)23-14-11-17(12-15-23)18-8-5-6-9-19(18)22(2,3)4/h5-6,8-9,17,20H,7,10-15H2,1-4H3
InChIKey=XDLCHCFVFUBOBF-UHFFFAOYSA-N

> <PUBCHEM_SUBSTANCE_SYNONYM>
SCHEMBL16118102

> <PUBCHEM_XREF_EXT_ID>
SCHEMBL16118102

> <PUBCHEM_EXT_DATASOURCE_URL>
https://www.surechembl.org/

> <PUBCHEM_EXT_SUBSTANCE_URL>
https://www.surechembl.org/chemical/SCHEMBL16118102

> <PUBCHEM_CID_ASSOCIATIONS>
117607281  1

> <PUBCHEM_COORDINATE_TYPE>
1
3

$$$$
