310938532
  -OEChem-07211613022D

 22 23  0     1  0  0  0  0  0999 V2000
    1.6051    0.5812    0.0000 I   0  5  0  0  0  0  0  0  0  0  0  0
    0.7846    0.6674    0.0000 N   0  3  3  0  0  0  0  0  0  0  0  0
    0.7846   -0.6674    0.0000 N   0  0  0  0  0  0  0  0  0  0  0  0
    0.0000    0.4125    0.0000 C   0  0  0  0  0  0  0  0  0  0  0  0
    0.6131    1.4744    0.0000 C   0  0  0  0  0  0  0  0  0  0  0  0
    0.0000   -0.4125    0.0000 C   0  0  0  0  0  0  0  0  0  0  0  0
    1.2696    0.0000    0.0000 C   0  0  0  0  0  0  0  0  0  0  0  0
    1.3977    1.2195    0.0000 C   0  0  0  0  0  0  0  0  0  0  0  0
    1.2262    2.0264    0.0000 C   0  0  0  0  0  0  0  0  0  0  0  0
   -0.7144    0.8250    0.0000 C   0  0  0  0  0  0  0  0  0  0  0  0
   -0.1715    1.7294    0.0000 C   0  0  0  0  0  0  0  0  0  0  0  0
   -0.7144   -0.8250    0.0000 C   0  0  0  0  0  0  0  0  0  0  0  0
   -0.3431    2.5363    0.0000 C   0  0  0  0  0  0  0  0  0  0  0  0
    1.0546    2.8334    0.0000 C   0  0  0  0  0  0  0  0  0  0  0  0
   -1.4290    0.4125    0.0000 C   0  0  0  0  0  0  0  0  0  0  0  0
    2.1824    0.9645    0.0000 C   0  0  0  0  0  0  0  0  0  0  0  0
   -1.4290   -0.4125    0.0000 C   0  0  0  0  0  0  0  0  0  0  0  0
    0.2701    3.0883    0.0000 C   0  0  0  0  0  0  0  0  0  0  0  0
    2.0108    1.7715    0.0000 C   0  0  0  0  0  0  0  0  0  0  0  0
   -1.1277    2.7913    0.0000 C   0  0  0  0  0  0  0  0  0  0  0  0
    2.7657    1.5479    0.0000 C   0  0  0  0  0  0  0  0  0  0  0  0
    3.5626    1.3344    0.0000 C   0  0  0  0  0  0  0  0  0  0  0  0
  2  4  1  0  0  0  0
  2  5  1  0  0  0  0
  2  7  1  0  0  0  0
  2  8  1  0  0  0  0
  3  6  1  0  0  0  0
  3  7  2  0  0  0  0
  4  6  1  0  0  0  0
  4 10  2  0  0  0  0
  5  9  1  0  0  0  0
  5 11  2  0  0  0  0
  6 12  2  0  0  0  0
  8 16  1  0  0  0  0
  9 14  2  0  0  0  0
  9 19  1  0  0  0  0
 10 15  1  0  0  0  0
 11 13  1  0  0  0  0
 12 17  1  0  0  0  0
 13 18  2  0  0  0  0
 13 20  1  0  0  0  0
 14 18  1  0  0  0  0
 15 17  2  0  0  0  0
 16 21  1  0  0  0  0
 21 22  1  0  0  0  0
M  CHG  2   1  -1   2   1
M  END
> <PUBCHEM_COMPOUND_ID_TYPE>
0

> <PUBCHEM_TOTAL_CHARGE>
0

> <PUBCHEM_SUBSTANCE_ID>
310938532

> <PUBCHEM_SUBSTANCE_VERSION>
1

> <PUBCHEM_EXT_DATASOURCE_NAME>
4488

> <PUBCHEM_EXT_DATASOURCE_REGID>
SCHEMBL16116442

> <PUBCHEM_SUBSTANCE_COMMENT>
InChI=1S/C19H23N2.HI/c1-4-5-12-21(19-13-15(2)10-11-16(19)3)14-20-17-8-6-7-9-18(17)21;/h6-11,13-14H,4-5,12H2,1-3H3;1H/q+1;/p-1
InChIKey=PRYSXFRRJGVKIA-UHFFFAOYSA-M

> <PUBCHEM_SUBSTANCE_SYNONYM>
SCHEMBL16116442

> <PUBCHEM_XREF_EXT_ID>
SCHEMBL16116442

> <PUBCHEM_EXT_DATASOURCE_URL>
https://www.surechembl.org/

> <PUBCHEM_EXT_SUBSTANCE_URL>
https://www.surechembl.org/chemical/SCHEMBL16116442

> <PUBCHEM_CID_ASSOCIATIONS>
117605981  1
24841  2
117605982  2

> <PUBCHEM_COORDINATE_TYPE>
1
3

$$$$
