310945114
  -OEChem-07211613022D

 27 31  0     1  0  0  0  0  0999 V2000
    3.7959    1.3451    0.0000 O   0  0  0  0  0  0  0  0  0  0  0  0
   -0.9582   -0.8845    0.0000 O   0  0  0  0  0  0  0  0  0  0  0  0
    1.9901    0.1106    0.0000 N   0  0  0  0  0  0  0  0  0  0  0  0
    3.6484   -0.0553    0.0000 N   0  0  0  0  0  0  0  0  0  0  0  0
   -1.6768    0.3685    0.0000 N   0  0  0  0  0  0  0  0  0  0  0  0
   -3.1142    1.1978    0.0000 N   0  0  0  0  0  0  0  0  0  0  0  0
    2.3218   -0.6450    0.0000 C   0  0  0  0  0  0  0  0  0  0  0  0
    1.1978    0.3685    0.0000 C   0  0  0  0  0  0  0  0  0  0  0  0
    2.4692    0.7924    0.0000 C   0  0  0  0  0  0  0  0  0  0  0  0
    1.2162    1.1978    0.0000 C   0  0  0  0  0  0  0  0  0  0  0  0
    2.0085    1.4373    0.0000 C   0  0  0  0  0  0  0  0  0  0  0  0
    3.2983    0.6634    0.0000 C   0  0  0  0  0  0  0  0  0  0  0  0
    3.1694   -0.7371    0.0000 C   0  0  0  0  0  0  0  0  0  0  0  0
    1.5294   -0.7924    0.0000 C   0  0  0  0  0  0  0  0  0  0  0  0
    2.4507   -1.4557    0.0000 C   0  0  0  0  0  0  0  0  0  0  0  0
    0.4974   -0.0368    0.0000 C   0  0  0  0  0  0  0  0  0  0  0  0
    1.6584   -1.5846    0.0000 C   0  0  0  0  0  0  0  0  0  0  0  0
   -0.2211    0.3685    0.0000 C   0  0  0  0  0  0  0  0  0  0  0  0
    0.4974    1.5846    0.0000 C   0  0  0  0  0  0  0  0  0  0  0  0
   -0.2027    1.1978    0.0000 C   0  0  0  0  0  0  0  0  0  0  0  0
   -0.9397   -0.0368    0.0000 C   0  0  0  0  0  0  0  0  0  0  0  0
   -2.3770   -0.0368    0.0000 C   0  0  3  0  0  0  0  0  0  0  0  0
   -3.0957    0.3685    0.0000 C   0  0  3  0  0  0  0  0  0  0  0  0
   -2.3954   -0.8845    0.0000 C   0  0  0  0  0  0  0  0  0  0  0  0
   -3.7959   -0.0553    0.0000 C   0  0  0  0  0  0  0  0  0  0  0  0
   -3.0957   -1.2898    0.0000 C   0  0  0  0  0  0  0  0  0  0  0  0
   -3.7959   -0.8845    0.0000 C   0  0  0  0  0  0  0  0  0  0  0  0
  1 12  2  0  0  0  0
  2 21  2  0  0  0  0
  3  7  1  0  0  0  0
  3  8  1  0  0  0  0
  3  9  1  0  0  0  0
  4 12  1  0  0  0  0
  4 13  1  0  0  0  0
  5 21  1  0  0  0  0
  5 22  1  0  0  0  0
  6 23  1  0  0  0  0
  7 13  1  0  0  0  0
  7 14  1  0  0  0  0
  7 15  1  0  0  0  0
  8 10  1  0  0  0  0
  8 16  2  0  0  0  0
  9 11  2  0  0  0  0
  9 12  1  0  0  0  0
 10 11  1  0  0  0  0
 10 19  2  0  0  0  0
 14 17  1  0  0  0  0
 15 17  1  0  0  0  0
 16 18  1  0  0  0  0
 18 20  2  0  0  0  0
 18 21  1  0  0  0  0
 19 20  1  0  0  0  0
 22 23  1  0  0  0  0
 22 24  1  0  0  0  0
 23 25  1  0  0  0  0
 24 26  1  0  0  0  0
 25 27  1  0  0  0  0
 26 27  1  0  0  0  0
M  END
> <PUBCHEM_COMPOUND_ID_TYPE>
0

> <PUBCHEM_TOTAL_CHARGE>
0

> <PUBCHEM_SUBSTANCE_ID>
310945114

> <PUBCHEM_SUBSTANCE_VERSION>
1

> <PUBCHEM_EXT_DATASOURCE_NAME>
4488

> <PUBCHEM_EXT_DATASOURCE_REGID>
SCHEMBL16123204

> <PUBCHEM_SUBSTANCE_COMMENT>
InChI=1S/C21H26N4O2/c22-15-4-1-2-5-16(15)24-19(26)14-7-6-13-10-18-20(27)23-12-21(8-3-9-21)25(18)17(13)11-14/h6-7,10-11,15-16H,1-5,8-9,12,22H2,(H,23,27)(H,24,26)
InChIKey=BSESDSGUNWQNGH-UHFFFAOYSA-N

> <PUBCHEM_SUBSTANCE_SYNONYM>
SCHEMBL16123204

> <PUBCHEM_XREF_EXT_ID>
SCHEMBL16123204

> <PUBCHEM_EXT_DATASOURCE_URL>
https://www.surechembl.org/

> <PUBCHEM_EXT_SUBSTANCE_URL>
https://www.surechembl.org/chemical/SCHEMBL16123204

> <PUBCHEM_CID_ASSOCIATIONS>
117611209  1

> <PUBCHEM_COORDINATE_TYPE>
1
3

$$$$
