310943232
  -OEChem-07211613022D

 17 19  0     1  0  0  0  0  0999 V2000
    2.1919    0.5799    0.0000 Cl  0  0  0  0  0  0  0  0  0  0  0  0
   -2.1747    1.5863    0.0000 O   0  0  0  0  0  0  0  0  0  0  0  0
    0.7249   -1.9616    0.0000 O   0  0  0  0  0  0  0  0  0  0  0  0
   -0.7591    0.6311    0.0000 N   0  0  0  0  0  0  0  0  0  0  0  0
    1.4755   -0.6994    0.0000 N   0  0  0  0  0  0  0  0  0  0  0  0
    0.0086    0.1705    0.0000 C   0  0  0  0  0  0  0  0  0  0  0  0
   -1.5096    0.3070    0.0000 C   0  0  3  0  0  0  0  0  0  0  0  0
   -0.7420    1.5011    0.0000 C   0  0  3  0  0  0  0  0  0  0  0  0
    0.7249    0.5799    0.0000 C   0  0  0  0  0  0  0  0  0  0  0  0
    0.0086   -0.6823    0.0000 C   0  0  0  0  0  0  0  0  0  0  0  0
    1.4755    0.1705    0.0000 C   0  0  0  0  0  0  0  0  0  0  0  0
    0.7249   -1.0916    0.0000 C   0  0  0  0  0  0  0  0  0  0  0  0
   -1.6460    0.9382    0.0000 C   0  0  0  0  0  0  0  0  0  0  0  0
   -1.4585    1.3476    0.0000 C   0  0  0  0  0  0  0  0  0  0  0  0
   -2.2090    0.7164    0.0000 C   0  0  0  0  0  0  0  0  0  0  0  0
   -1.4413    1.9616    0.0000 C   0  0  0  0  0  0  0  0  0  0  0  0
    2.2090   -1.1428    0.0000 C   0  0  0  0  0  0  0  0  0  0  0  0
  1 11  1  0  0  0  0
  2 15  1  0  0  0  0
  2 16  1  0  0  0  0
  3 12  2  0  0  0  0
  4  6  1  0  0  0  0
  4  7  1  0  0  0  0
  4  8  1  0  0  0  0
  5 11  1  0  0  0  0
  5 12  1  0  0  0  0
  5 17  1  0  0  0  0
  6  9  1  0  0  0  0
  6 10  2  0  0  0  0
  7 13  1  0  0  0  0
  7 15  1  0  0  0  0
  8 14  1  0  0  0  0
  8 16  1  0  0  0  0
  9 11  2  0  0  0  0
 10 12  1  0  0  0  0
 13 14  1  0  0  0  0
M  END
> <PUBCHEM_COMPOUND_ID_TYPE>
0

> <PUBCHEM_TOTAL_CHARGE>
0

> <PUBCHEM_SUBSTANCE_ID>
310943232

> <PUBCHEM_SUBSTANCE_VERSION>
1

> <PUBCHEM_EXT_DATASOURCE_NAME>
4488

> <PUBCHEM_EXT_DATASOURCE_REGID>
SCHEMBL16121294

> <PUBCHEM_SUBSTANCE_COMMENT>
InChI=1S/C12H15ClN2O2/c1-14-11(13)4-10(5-12(14)16)15-8-2-3-9(15)7-17-6-8/h4-5,8-9H,2-3,6-7H2,1H3
InChIKey=KBPGOUBBXGXNNE-UHFFFAOYSA-N

> <PUBCHEM_SUBSTANCE_SYNONYM>
SCHEMBL16121294

> <PUBCHEM_XREF_EXT_ID>
SCHEMBL16121294

> <PUBCHEM_EXT_DATASOURCE_URL>
https://www.surechembl.org/

> <PUBCHEM_EXT_SUBSTANCE_URL>
https://www.surechembl.org/chemical/SCHEMBL16121294

> <PUBCHEM_CID_ASSOCIATIONS>
117609657  1

> <PUBCHEM_COORDINATE_TYPE>
1
3

$$$$
