310940438
  -OEChem-07211613022D

 24 24  0     1  0  0  0  0  0999 V2000
   -0.9818    2.1310    0.0000 S   0  0  0  0  0  0  0  0  0  0  0  0
   -2.4887    2.9835    0.0000 F   0  0  0  0  0  0  0  0  0  0  0  0
   -1.3167    3.2879    0.0000 F   0  0  0  0  0  0  0  0  0  0  0  0
   -2.1539    1.8114    0.0000 F   0  0  0  0  0  0  0  0  0  0  0  0
   -0.2663    1.7353    0.0000 O   0  0  0  0  0  0  0  0  0  0  0  0
   -0.2663   -0.7002    0.0000 O   0  0  0  0  0  0  0  0  0  0  0  0
    1.0427   -1.0960    0.0000 O   0  0  0  0  0  0  0  0  0  0  0  0
   -0.5556    2.8769    0.0000 O   0  0  0  0  0  0  0  0  0  0  0  0
   -1.4232    1.3851    0.0000 O   0  0  0  0  0  0  0  0  0  0  0  0
   -0.0837   -1.9636    0.0000 O   0  0  0  0  0  0  0  0  0  0  0  0
    0.4338   -0.2739    0.0000 C   0  0  3  0  0  0  0  0  0  0  0  0
   -0.2511    0.9438    0.0000 C   0  0  0  0  0  0  0  0  0  0  0  0
   -0.9666   -0.2739    0.0000 C   0  0  0  0  0  0  0  0  0  0  0  0
   -1.7429    2.5420    0.0000 C   0  0  0  0  0  0  0  0  0  0  0  0
    0.4490    0.5328    0.0000 C   0  0  0  0  0  0  0  0  0  0  0  0
   -0.9513    0.5328    0.0000 C   0  0  0  0  0  0  0  0  0  0  0  0
    1.2710   -0.1522    0.0000 C   0  0  0  0  0  0  0  0  0  0  0  0
   -1.7734   -0.1522    0.0000 C   0  0  0  0  0  0  0  0  0  0  0  0
   -1.2254   -1.0655    0.0000 C   0  0  0  0  0  0  0  0  0  0  0  0
    0.7383   -1.9028    0.0000 C   0  0  0  0  0  0  0  0  0  0  0  0
    2.0778   -1.1112    0.0000 C   0  0  0  0  0  0  0  0  0  0  0  0
    2.4887   -1.8266    0.0000 C   0  0  0  0  0  0  0  0  0  0  0  0
    2.0778   -2.5724    0.0000 C   0  0  0  0  0  0  0  0  0  0  0  0
    2.4887   -3.2879    0.0000 C   0  0  0  0  0  0  0  0  0  0  0  0
  1  5  1  0  0  0  0
  1  8  2  0  0  0  0
  1  9  2  0  0  0  0
  1 14  1  0  0  0  0
  2 14  1  0  0  0  0
  3 14  1  0  0  0  0
  4 14  1  0  0  0  0
  5 12  1  0  0  0  0
  6 11  1  0  0  0  0
  6 13  1  0  0  0  0
  7 11  1  0  0  0  0
  7 20  1  0  0  0  0
 10 20  2  0  0  0  0
 11 15  1  0  0  0  0
 11 17  1  0  0  0  0
 12 15  2  0  0  0  0
 12 16  1  0  0  0  0
 13 16  1  0  0  0  0
 13 18  1  0  0  0  0
 13 19  1  0  0  0  0
 20 21  1  0  0  0  0
 21 22  1  0  0  0  0
 22 23  1  0  0  0  0
 23 24  1  0  0  0  0
M  END
> <PUBCHEM_COMPOUND_ID_TYPE>
0

> <PUBCHEM_TOTAL_CHARGE>
0

> <PUBCHEM_SUBSTANCE_ID>
310940438

> <PUBCHEM_SUBSTANCE_VERSION>
1

> <PUBCHEM_EXT_DATASOURCE_NAME>
4488

> <PUBCHEM_EXT_DATASOURCE_REGID>
SCHEMBL16118391

> <PUBCHEM_SUBSTANCE_COMMENT>
InChI=1S/C14H21F3O6S/c1-5-6-7-11(18)21-13(4)9-10(8-12(2,3)23-13)22-24(19,20)14(15,16)17/h9H,5-8H2,1-4H3
InChIKey=VFOQTHDZIAOXJI-UHFFFAOYSA-N

> <PUBCHEM_SUBSTANCE_SYNONYM>
SCHEMBL16118391

> <PUBCHEM_XREF_EXT_ID>
SCHEMBL16118391

> <PUBCHEM_EXT_DATASOURCE_URL>
https://www.surechembl.org/

> <PUBCHEM_EXT_SUBSTANCE_URL>
https://www.surechembl.org/chemical/SCHEMBL16118391

> <PUBCHEM_CID_ASSOCIATIONS>
117607461  1

> <PUBCHEM_COORDINATE_TYPE>
1
3

$$$$
