310929734
  -OEChem-07211613022D

 68 75  0     1  0  0  0  0  0999 V2000
    1.3697   -9.6527    0.0000 S   0  0  0  0  0  0  0  0  0  0  0  0
    6.3917    0.0000    0.0000 F   0  0  0  0  0  0  0  0  0  0  0  0
    2.9349   -9.1962    0.0000 O   0  0  0  0  0  0  0  0  0  0  0  0
    1.9567   -9.0657    0.0000 O   0  0  0  0  0  0  0  0  0  0  0  0
    0.7827  -10.1745    0.0000 O   0  0  0  0  0  0  0  0  0  0  0  0
    3.5219   -8.9353    0.0000 O   0  0  0  0  0  0  0  0  0  0  0  0
    5.0873   -6.8482    0.0000 O   0  0  0  0  0  0  0  0  0  0  0  0
    5.6090  -11.0224    0.0000 O   0  0  0  0  0  0  0  0  0  0  0  0
    7.1091   -4.5655    0.0000 O   0  0  0  0  0  0  0  0  0  0  0  0
    9.0657   -9.7832    0.0000 O   0  0  0  0  0  0  0  0  0  0  0  0
    8.7396  -11.0224    0.0000 O   0  0  0  0  0  0  0  0  0  0  0  0
   12.6529   -7.1744    0.0000 O   0  5  0  0  0  0  0  0  0  0  0  0
   11.9355   -5.8699    0.0000 O   0  0  0  0  0  0  0  0  0  0  0  0
    4.0437  -10.3049    0.0000 N   0  0  0  0  0  0  0  0  0  0  0  0
    1.9567  -10.1745    0.0000 N   0  0  0  0  0  0  0  0  0  0  0  0
    5.3481   -9.7832    0.0000 N   0  0  0  0  0  0  0  0  0  0  0  0
    4.8916   -5.7395    0.0000 N   0  0  0  0  0  0  0  0  0  0  0  0
    7.5656  -10.6311    0.0000 N   0  0  0  0  0  0  0  0  0  0  0  0
    7.1091   -2.0871    0.0000 N   0  3  0  0  0  0  0  0  0  0  0  0
    3.3263  -10.5658    0.0000 C   0  0  3  0  0  0  0  0  0  0  0  0
    3.3263  -11.4137    0.0000 C   0  0  3  0  0  0  0  0  0  0  0  0
    2.6088  -11.0224    0.0000 C   0  0  0  0  0  0  0  0  0  0  0  0
    2.7393   -9.9788    0.0000 C   0  0  0  0  0  0  0  0  0  0  0  0
    0.7827   -9.0005    0.0000 C   0  0  0  0  0  0  0  0  0  0  0  0
    4.1741   -9.4571    0.0000 C   0  0  0  0  0  0  0  0  0  0  0  0
    3.7176  -12.1312    0.0000 C   0  0  0  0  0  0  0  0  0  0  0  0
    0.0000   -8.8048    0.0000 C   0  0  0  0  0  0  0  0  0  0  0  0
    0.5870   -8.2178    0.0000 C   0  0  0  0  0  0  0  0  0  0  0  0
    4.9568   -9.1310    0.0000 C   0  0  3  0  0  0  0  0  0  0  0  0
    0.3913   -9.7179    0.0000 C   0  0  0  0  0  0  0  0  0  0  0  0
    4.6959   -8.3483    0.0000 C   0  0  0  0  0  0  0  0  0  0  0  0
    4.7611   -7.5656    0.0000 C   0  0  3  0  0  0  0  0  0  0  0  0
    4.3698   -8.8701    0.0000 C   0  0  0  0  0  0  0  0  0  0  0  0
    6.0004  -10.3049    0.0000 C   0  0  0  0  0  0  0  0  0  0  0  0
    4.5655  -12.1312    0.0000 C   0  0  0  0  0  0  0  0  0  0  0  0
    6.7830  -10.5658    0.0000 C   0  0  3  0  0  0  0  0  0  0  0  0
    5.6742   -6.1960    0.0000 C   0  0  0  0  0  0  0  0  0  0  0  0
    6.3265   -5.8047    0.0000 C   0  0  0  0  0  0  0  0  0  0  0  0
    6.3917   -4.9568    0.0000 C   0  0  0  0  0  0  0  0  0  0  0  0
    5.6742   -4.6307    0.0000 C   0  0  0  0  0  0  0  0  0  0  0  0
    5.0220   -4.9568    0.0000 C   0  0  0  0  0  0  0  0  0  0  0  0
    6.6526  -11.4137    0.0000 C   0  0  0  0  0  0  0  0  0  0  0  0
    7.2396   -5.6742    0.0000 C   0  0  0  0  0  0  0  0  0  0  0  0
    5.7395   -3.7176    0.0000 C   0  0  0  0  0  0  0  0  0  0  0  0
    4.2394   -4.5003    0.0000 C   0  0  0  0  0  0  0  0  0  0  0  0
    8.3483  -10.3049    0.0000 C   0  0  0  0  0  0  0  0  0  0  0  0
    7.2396  -11.9355    0.0000 C   0  0  0  0  0  0  0  0  0  0  0  0
    5.8699  -11.6746    0.0000 C   0  0  0  0  0  0  0  0  0  0  0  0
    7.1091   -3.7176    0.0000 C   0  0  0  0  0  0  0  0  0  0  0  0
    9.4571   -9.1962    0.0000 C   0  0  3  0  0  0  0  0  0  0  0  0
    9.5875   -8.2831    0.0000 C   0  0  3  0  0  0  0  0  0  0  0  0
    4.9568   -3.2610    0.0000 C   0  0  0  0  0  0  0  0  0  0  0  0
    4.3046   -3.6524    0.0000 C   0  0  0  0  0  0  0  0  0  0  0  0
   10.2397   -8.9353    0.0000 C   0  0  0  0  0  0  0  0  0  0  0  0
    8.0222   -5.8047    0.0000 C   0  0  0  0  0  0  0  0  0  0  0  0
    7.1091  -12.7833    0.0000 C   0  0  0  0  0  0  0  0  0  0  0  0
    5.6742  -12.4573    0.0000 C   0  0  0  0  0  0  0  0  0  0  0  0
    7.8265   -3.3263    0.0000 C   0  0  0  0  0  0  0  0  0  0  0  0
    6.3917   -3.3263    0.0000 C   0  0  0  0  0  0  0  0  0  0  0  0
    9.5875   -7.5004    0.0000 C   0  0  0  0  0  0  0  0  0  0  0  0
    6.3265  -13.0442    0.0000 C   0  0  0  0  0  0  0  0  0  0  0  0
    8.6744   -6.1960    0.0000 C   0  0  0  0  0  0  0  0  0  0  0  0
    9.2614   -6.8482    0.0000 C   0  0  0  0  0  0  0  0  0  0  0  0
    7.8265   -2.4784    0.0000 C   0  0  0  0  0  0  0  0  0  0  0  0
    6.3917   -2.4784    0.0000 C   0  0  0  0  0  0  0  0  0  0  0  0
    7.1091   -1.2392    0.0000 C   0  0  0  0  0  0  0  0  0  0  0  0
    6.3917   -0.8479    0.0000 C   0  0  0  0  0  0  0  0  0  0  0  0
   11.9355   -6.7178    0.0000 C   0  0  0  0  0  0  0  0  0  0  0  0
  1  4  2  0  0  0  0
  1  5  2  0  0  0  0
  1 15  1  0  0  0  0
  1 24  1  0  0  0  0
  2 67  1  0  0  0  0
  3 23  2  0  0  0  0
  6 25  2  0  0  0  0
  7 32  1  0  0  0  0
  7 37  1  0  0  0  0
  8 34  2  0  0  0  0
  9 39  1  0  0  0  0
  9 49  1  0  0  0  0
 10 46  1  0  0  0  0
 10 50  1  0  0  0  0
 11 46  2  0  0  0  0
 12 68  1  0  0  0  0
 13 68  2  0  0  0  0
 20 14  1  1  0  0  0
 14 25  1  0  0  0  0
 15 23  1  0  0  0  0
 16 29  1  0  0  0  0
 16 33  1  0  0  0  0
 16 34  1  0  0  0  0
 17 37  1  0  0  0  0
 17 41  2  0  0  0  0
 18 36  1  0  0  0  0
 18 46  1  0  0  0  0
 19 64  1  0  0  0  0
 19 65  1  0  0  0  0
 19 66  1  0  0  0  0
 20 21  1  0  0  0  0
 20 22  1  0  0  0  0
 20 23  1  6  0  0  0
 21 22  1  0  0  0  0
 21 26  1  6  0  0  0
 24 27  1  0  0  0  0
 24 28  1  0  0  0  0
 24 30  1  0  0  0  0
 29 25  1  6  0  0  0
 26 35  2  0  0  0  0
 27 28  1  0  0  0  0
 29 31  1  0  0  0  0
 32 31  1  1  0  0  0
 32 33  1  0  0  0  0
 36 34  1  1  0  0  0
 36 42  1  0  0  0  0
 37 38  2  0  0  0  0
 38 39  1  0  0  0  0
 38 43  1  0  0  0  0
 39 40  2  0  0  0  0
 40 41  1  0  0  0  0
 40 44  1  0  0  0  0
 41 45  1  0  0  0  0
 42 47  1  0  0  0  0
 42 48  1  0  0  0  0
 43 55  1  0  0  0  0
 44 52  2  0  0  0  0
 45 53  2  0  0  0  0
 47 56  1  0  0  0  0
 48 57  1  0  0  0  0
 49 58  1  0  0  0  0
 49 59  1  0  0  0  0
 50 51  1  0  0  0  0
 50 54  1  1  0  0  0
 51 54  1  6  0  0  0
 51 60  1  0  0  0  0
 52 53  1  0  0  0  0
 55 62  1  0  0  0  0
 56 61  1  0  0  0  0
 57 61  1  0  0  0  0
 58 64  1  0  0  0  0
 59 65  1  0  0  0  0
 60 63  1  0  0  0  0
 62 63  1  0  0  0  0
 66 67  1  0  0  0  0
M  CHG  2  12  -1  19   1
M  END
> <PUBCHEM_COMPOUND_ID_TYPE>
0

> <PUBCHEM_TOTAL_CHARGE>
0

> <PUBCHEM_SUBSTANCE_ID>
310929734

> <PUBCHEM_SUBSTANCE_VERSION>
1

> <PUBCHEM_EXT_DATASOURCE_NAME>
4488

> <PUBCHEM_EXT_DATASOURCE_REGID>
SCHEMBL16106932

> <PUBCHEM_SUBSTANCE_COMMENT>
InChI=1S/C48H65FN6O9S.CH2O2/c1-3-32-28-48(32,45(58)53-65(60,61)47(2)20-21-47)52-42(56)38-27-34-29-55(38)44(57)40(30-12-6-4-7-13-30)51-46(59)64-39-26-31(39)14-8-5-9-16-36-41(62-33-18-23-54(24-19-33)25-22-49)35-15-10-11-17-37(35)50-43(36)63-34;2-1-3/h3,10-11,15,17,30-34,38-40H,1,4-9,12-14,16,18-29H2,2H3,(H,51,59)(H,52,56)(H,53,58);1H,(H,2,3)/t31-,32-,34-,38+,39-,40+,48-;/m1./s1
InChIKey=XCIPXBGAJLICCT-HQTCIAOKSA-N

> <PUBCHEM_SUBSTANCE_SYNONYM>
SCHEMBL16106932

> <PUBCHEM_XREF_EXT_ID>
SCHEMBL16106932

> <PUBCHEM_EXT_DATASOURCE_URL>
https://www.surechembl.org/

> <PUBCHEM_EXT_SUBSTANCE_URL>
https://www.surechembl.org/chemical/SCHEMBL16106932

> <PUBCHEM_CID_ASSOCIATIONS>
117599028  1
284  2
76328831  2

> <PUBCHEM_COORDINATE_TYPE>
1
3

> <PUBCHEM_BONDANNOTATIONS>
20  14  5
20  23  6
21  26  6
29  25  6
32  31  5
36  34  5
50  54  5
51  54  6

$$$$
