310930058
  -OEChem-07211613022D

 30 34  0     1  0  0  0  0  0999 V2000
   11.2747   -1.7285    0.0000 O   0  0  0  0  0  0  0  0  0  0  0  0
    4.9892   -0.0393    0.0000 O   0  0  0  0  0  0  0  0  0  0  0  0
   11.7854   -0.3536    0.0000 O   0  0  0  0  0  0  0  0  0  0  0  0
    4.9892   -1.4535    0.0000 N   0  0  0  0  0  0  0  0  0  0  0  0
    6.6391   -1.4535    0.0000 N   0  0  3  0  0  0  0  0  0  0  0  0
    0.0000   -1.0214    0.0000 N   0  0  0  0  0  0  0  0  0  0  0  0
    4.1642   -1.4535    0.0000 C   0  0  3  0  0  0  0  0  0  0  0  0
    2.8678   -1.0214    0.0000 C   0  0  0  0  0  0  0  0  0  0  0  0
    2.8678   -1.8857    0.0000 C   0  0  0  0  0  0  0  0  0  0  0  0
    3.6535   -0.7857    0.0000 C   0  0  0  0  0  0  0  0  0  0  0  0
    3.6535   -2.1214    0.0000 C   0  0  0  0  0  0  0  0  0  0  0  0
   10.3711   -0.7071    0.0000 C   0  0  0  0  0  0  0  0  0  0  0  0
    5.3820   -0.7464    0.0000 C   0  0  0  0  0  0  0  0  0  0  0  0
    9.9390   -1.4535    0.0000 C   0  0  0  0  0  0  0  0  0  0  0  0
    2.1214   -0.6285    0.0000 C   0  0  0  0  0  0  0  0  0  0  0  0
    5.3820   -2.1999    0.0000 C   0  0  0  0  0  0  0  0  0  0  0  0
   11.1568   -0.9036    0.0000 C   0  0  0  0  0  0  0  0  0  0  0  0
    8.7212   -0.7464    0.0000 C   0  0  0  0  0  0  0  0  0  0  0  0
    2.1214   -2.2785    0.0000 C   0  0  0  0  0  0  0  0  0  0  0  0
    6.2070   -0.7464    0.0000 C   0  0  0  0  0  0  0  0  0  0  0  0
    9.1140   -1.4535    0.0000 C   0  0  0  0  0  0  0  0  0  0  0  0
    1.4535   -1.0214    0.0000 C   0  0  0  0  0  0  0  0  0  0  0  0
    9.9390    0.0000    0.0000 C   0  0  0  0  0  0  0  0  0  0  0  0
   10.4889   -2.0428    0.0000 C   0  0  0  0  0  0  0  0  0  0  0  0
    6.2070   -2.1999    0.0000 C   0  0  0  0  0  0  0  0  0  0  0  0
    1.4535   -1.8857    0.0000 C   0  0  0  0  0  0  0  0  0  0  0  0
    9.1533    0.0000    0.0000 C   0  0  0  0  0  0  0  0  0  0  0  0
    7.4640   -1.4535    0.0000 C   0  0  0  0  0  0  0  0  0  0  0  0
    7.8962   -0.7464    0.0000 C   0  0  0  0  0  0  0  0  0  0  0  0
    0.7464   -0.6285    0.0000 C   0  0  0  0  0  0  0  0  0  0  0  0
  1 17  1  0  0  0  0
  1 24  1  0  0  0  0
  2 13  2  0  0  0  0
  3 17  2  0  0  0  0
  4  7  1  0  0  0  0
  4 13  1  0  0  0  0
  4 16  1  0  0  0  0
  5 20  1  0  0  0  0
  5 25  1  0  0  0  0
  5 28  1  0  0  0  0
  6 30  3  0  0  0  0
  7 10  1  0  0  0  0
  7 11  1  0  0  0  0
  8  9  2  0  0  0  0
  8 10  1  0  0  0  0
  8 15  1  0  0  0  0
  9 11  1  0  0  0  0
  9 19  1  0  0  0  0
 12 14  2  0  0  0  0
 12 17  1  0  0  0  0
 12 23  1  0  0  0  0
 13 20  1  0  0  0  0
 14 21  1  0  0  0  0
 14 24  1  0  0  0  0
 15 22  2  0  0  0  0
 16 25  1  0  0  0  0
 18 21  2  0  0  0  0
 18 27  1  0  0  0  0
 18 29  1  0  0  0  0
 19 26  2  0  0  0  0
 22 26  1  0  0  0  0
 22 30  1  0  0  0  0
 23 27  2  0  0  0  0
 28 29  1  0  0  0  0
M  END
> <PUBCHEM_COMPOUND_ID_TYPE>
0

> <PUBCHEM_TOTAL_CHARGE>
0

> <PUBCHEM_SUBSTANCE_ID>
310930058

> <PUBCHEM_SUBSTANCE_VERSION>
1

> <PUBCHEM_EXT_DATASOURCE_NAME>
4488

> <PUBCHEM_EXT_DATASOURCE_REGID>
SCHEMBL16107299

> <PUBCHEM_SUBSTANCE_COMMENT>
InChI=1S/C24H23N3O3/c25-13-17-1-3-18-11-21(12-19(18)10-17)27-8-7-26(14-23(27)28)6-5-16-2-4-22-20(9-16)15-30-24(22)29/h1-4,9-10,21H,5-8,11-12,14-15H2
InChIKey=SYDLNHBELJAHAW-UHFFFAOYSA-N

> <PUBCHEM_SUBSTANCE_SYNONYM>
SCHEMBL16107299

> <PUBCHEM_XREF_EXT_ID>
SCHEMBL16107299

> <PUBCHEM_EXT_DATASOURCE_URL>
https://www.surechembl.org/

> <PUBCHEM_EXT_SUBSTANCE_URL>
https://www.surechembl.org/chemical/SCHEMBL16107299

> <PUBCHEM_CID_ASSOCIATIONS>
71525687  1

> <PUBCHEM_COORDINATE_TYPE>
1
3

$$$$
