310935504
  -OEChem-07211613022D

 40 45  0     1  0  0  0  0  0999 V2000
    5.7453   -4.2427    0.0000 S   0  0  0  0  0  0  0  0  0  0  0  0
    4.1248    0.0000    0.0000 F   0  0  0  0  0  0  0  0  0  0  0  0
    4.6257   -0.7071    0.0000 F   0  0  0  0  0  0  0  0  0  0  0  0
    6.2167   -5.0087    0.0000 O   0  0  0  0  0  0  0  0  0  0  0  0
    5.3623   -3.5356    0.0000 O   0  0  0  0  0  0  0  0  0  0  0  0
    2.1802   -4.6552    0.0000 N   0  0  3  0  0  0  0  0  0  0  0  0
    2.8874   -1.7678    0.0000 N   0  0  3  0  0  0  0  0  0  0  0  0
    6.4524   -3.8302    0.0000 N   0  0  3  0  0  0  0  0  0  0  0  0
    0.7366   -4.6552    0.0000 N   0  0  0  0  0  0  0  0  0  0  0  0
    0.0294   -3.3883    0.0000 N   0  0  0  0  0  0  0  0  0  0  0  0
    6.4524   -1.3553    0.0000 N   0  0  0  0  0  0  0  0  0  0  0  0
    1.4731   -3.3883    0.0000 C   0  0  0  0  0  0  0  0  0  0  0  0
    1.4437   -4.2427    0.0000 C   0  0  0  0  0  0  0  0  0  0  0  0
    0.7366   -2.9757    0.0000 C   0  0  0  0  0  0  0  0  0  0  0  0
    3.6239   -4.6552    0.0000 C   0  0  0  0  0  0  0  0  0  0  0  0
    2.1802   -2.1802    0.0000 C   0  0  0  0  0  0  0  0  0  0  0  0
    5.0382   -4.6552    0.0000 C   0  0  0  0  0  0  0  0  0  0  0  0
    2.1802   -3.0052    0.0000 C   0  0  0  0  0  0  0  0  0  0  0  0
    0.7366   -2.1802    0.0000 C   0  0  0  0  0  0  0  0  0  0  0  0
    3.6239   -5.4801    0.0000 C   0  0  0  0  0  0  0  0  0  0  0  0
    2.8874   -4.2427    0.0000 C   0  0  0  0  0  0  0  0  0  0  0  0
    4.3016   -4.2427    0.0000 C   0  0  0  0  0  0  0  0  0  0  0  0
    1.4437   -1.7678    0.0000 C   0  0  0  0  0  0  0  0  0  0  0  0
    2.1802   -5.4801    0.0000 C   0  0  0  0  0  0  0  0  0  0  0  0
    5.0382   -5.4801    0.0000 C   0  0  0  0  0  0  0  0  0  0  0  0
    2.8874   -5.8926    0.0000 C   0  0  0  0  0  0  0  0  0  0  0  0
    4.3016   -5.8926    0.0000 C   0  0  0  0  0  0  0  0  0  0  0  0
    3.7713   -0.7660    0.0000 C   0  0  0  0  0  0  0  0  0  0  0  0
    2.9757   -0.9428    0.0000 C   0  0  0  0  0  0  0  0  0  0  0  0
    0.0000   -4.2427    0.0000 C   0  0  0  0  0  0  0  0  0  0  0  0
    6.4524   -3.0052    0.0000 C   0  0  0  0  0  0  0  0  0  0  0  0
    3.6534   -2.0919    0.0000 C   0  0  0  0  0  0  0  0  0  0  0  0
    4.2132   -1.4731    0.0000 C   0  0  0  0  0  0  0  0  0  0  0  0
    0.0000   -1.7678    0.0000 C   0  0  0  0  0  0  0  0  0  0  0  0
    7.1595   -4.2427    0.0000 C   0  0  0  0  0  0  0  0  0  0  0  0
    7.1890   -2.5928    0.0000 C   0  0  0  0  0  0  0  0  0  0  0  0
    5.7453   -2.5928    0.0000 C   0  0  0  0  0  0  0  0  0  0  0  0
    7.1890   -1.7678    0.0000 C   0  0  0  0  0  0  0  0  0  0  0  0
    5.7453   -1.7678    0.0000 C   0  0  0  0  0  0  0  0  0  0  0  0
    6.4524   -0.5303    0.0000 C   0  0  0  0  0  0  0  0  0  0  0  0
  1  4  2  0  0  0  0
  1  5  2  0  0  0  0
  1  8  1  0  0  0  0
  1 17  1  0  0  0  0
  2 28  1  0  0  0  0
  3 28  1  0  0  0  0
  6 13  1  0  0  0  0
  6 21  1  0  0  0  0
  6 24  1  0  0  0  0
  7 16  1  0  0  0  0
  7 29  1  0  0  0  0
  7 32  1  0  0  0  0
  8 31  1  0  0  0  0
  8 35  1  0  0  0  0
  9 13  1  0  0  0  0
  9 30  2  0  0  0  0
 10 14  2  0  0  0  0
 10 30  1  0  0  0  0
 11 38  1  0  0  0  0
 11 39  1  0  0  0  0
 11 40  1  0  0  0  0
 12 13  2  0  0  0  0
 12 14  1  0  0  0  0
 12 18  1  0  0  0  0
 14 19  1  0  0  0  0
 15 20  2  0  0  0  0
 15 21  1  0  0  0  0
 15 22  1  0  0  0  0
 16 18  2  0  0  0  0
 16 23  1  0  0  0  0
 17 22  2  0  0  0  0
 17 25  1  0  0  0  0
 19 23  2  0  0  0  0
 19 34  1  0  0  0  0
 20 26  1  0  0  0  0
 20 27  1  0  0  0  0
 24 26  1  0  0  0  0
 25 27  2  0  0  0  0
 28 29  1  0  0  0  0
 28 33  1  0  0  0  0
 31 36  1  0  0  0  0
 31 37  1  0  0  0  0
 32 33  1  0  0  0  0
 36 38  1  0  0  0  0
 37 39  1  0  0  0  0
M  END
> <PUBCHEM_COMPOUND_ID_TYPE>
0

> <PUBCHEM_TOTAL_CHARGE>
0

> <PUBCHEM_SUBSTANCE_ID>
310935504

> <PUBCHEM_SUBSTANCE_VERSION>
1

> <PUBCHEM_EXT_DATASOURCE_NAME>
4488

> <PUBCHEM_EXT_DATASOURCE_REGID>
SCHEMBL16113071

> <PUBCHEM_SUBSTANCE_COMMENT>
InChI=1S/C29H36F2N6O2S/c1-20-14-24(37-13-9-29(30,31)18-37)16-26-27(20)32-19-33-28(26)36-12-6-21-4-5-25(15-22(21)17-36)40(38,39)35(3)23-7-10-34(2)11-8-23/h4-5,14-16,19,23H,6-13,17-18H2,1-3H3
InChIKey=YNJVMDHUJPEGRD-UHFFFAOYSA-N

> <PUBCHEM_SUBSTANCE_SYNONYM>
SCHEMBL16113071

> <PUBCHEM_XREF_EXT_ID>
SCHEMBL16113071

> <PUBCHEM_EXT_DATASOURCE_URL>
https://www.surechembl.org/

> <PUBCHEM_EXT_SUBSTANCE_URL>
https://www.surechembl.org/chemical/SCHEMBL16113071

> <PUBCHEM_CID_ASSOCIATIONS>
86300186  1

> <PUBCHEM_COORDINATE_TYPE>
1
3

$$$$
