310930665
  -OEChem-07211613022D

 21 23  0     1  0  0  0  0  0999 V2000
    0.0000   -2.6330    0.0000 Br  0  0  0  0  0  0  0  0  0  0  0  0
    5.0446   -0.8859    0.0000 F   0  0  0  0  0  0  0  0  0  0  0  0
    3.1744   -4.9215    0.0000 O   0  0  0  0  0  0  0  0  0  0  0  0
    2.3377    0.0000    0.0000 O   0  0  0  0  0  0  0  0  0  0  0  0
    3.4205   -3.4697    0.0000 N   0  0  0  0  0  0  0  0  0  0  0  0
    2.9283   -2.8053    0.0000 C   0  0  3  0  0  0  0  0  0  0  0  0
    2.1409   -3.0514    0.0000 C   0  0  0  0  0  0  0  0  0  0  0  0
    2.1409   -3.8880    0.0000 C   0  0  0  0  0  0  0  0  0  0  0  0
    2.9283   -4.1341    0.0000 C   0  0  0  0  0  0  0  0  0  0  0  0
    3.1744   -2.0178    0.0000 C   0  0  0  0  0  0  0  0  0  0  0  0
    1.4026   -2.6330    0.0000 C   0  0  0  0  0  0  0  0  0  0  0  0
    1.4026   -4.3063    0.0000 C   0  0  0  0  0  0  0  0  0  0  0  0
    2.6330   -1.4026    0.0000 C   0  0  0  0  0  0  0  0  0  0  0  0
    3.9864   -1.8456    0.0000 C   0  0  0  0  0  0  0  0  0  0  0  0
    0.7136   -3.0514    0.0000 C   0  0  0  0  0  0  0  0  0  0  0  0
    2.8791   -0.6152    0.0000 C   0  0  0  0  0  0  0  0  0  0  0  0
    0.7136   -3.8880    0.0000 C   0  0  0  0  0  0  0  0  0  0  0  0
    4.2325   -1.0581    0.0000 C   0  0  0  0  0  0  0  0  0  0  0  0
    4.2325   -3.4697    0.0000 C   0  0  0  0  0  0  0  0  0  0  0  0
    3.6911   -0.4430    0.0000 C   0  0  0  0  0  0  0  0  0  0  0  0
    1.5257   -0.1723    0.0000 C   0  0  0  0  0  0  0  0  0  0  0  0
  1 15  1  0  0  0  0
  2 18  1  0  0  0  0
  3  9  2  0  0  0  0
  4 16  1  0  0  0  0
  4 21  1  0  0  0  0
  5  6  1  0  0  0  0
  5  9  1  0  0  0  0
  5 19  1  0  0  0  0
  6  7  1  0  0  0  0
  6 10  1  0  0  0  0
  7  8  2  0  0  0  0
  7 11  1  0  0  0  0
  8  9  1  0  0  0  0
  8 12  1  0  0  0  0
 10 13  2  0  0  0  0
 10 14  1  0  0  0  0
 11 15  2  0  0  0  0
 12 17  2  0  0  0  0
 13 16  1  0  0  0  0
 14 18  2  0  0  0  0
 15 17  1  0  0  0  0
 16 20  2  0  0  0  0
 18 20  1  0  0  0  0
M  END
> <PUBCHEM_COMPOUND_ID_TYPE>
0

> <PUBCHEM_TOTAL_CHARGE>
0

> <PUBCHEM_SUBSTANCE_ID>
310930665

> <PUBCHEM_SUBSTANCE_VERSION>
1

> <PUBCHEM_EXT_DATASOURCE_NAME>
4488

> <PUBCHEM_EXT_DATASOURCE_REGID>
SCHEMBL16107962

> <PUBCHEM_SUBSTANCE_COMMENT>
InChI=1S/C16H13BrFNO2/c1-19-15(9-5-11(18)8-12(6-9)21-2)14-7-10(17)3-4-13(14)16(19)20/h3-8,15H,1-2H3
InChIKey=VINNLHYHAHJONU-UHFFFAOYSA-N

> <PUBCHEM_SUBSTANCE_SYNONYM>
SCHEMBL16107962

> <PUBCHEM_XREF_EXT_ID>
SCHEMBL16107962

> <PUBCHEM_EXT_DATASOURCE_URL>
https://www.surechembl.org/

> <PUBCHEM_EXT_SUBSTANCE_URL>
https://www.surechembl.org/chemical/SCHEMBL16107962

> <PUBCHEM_CID_ASSOCIATIONS>
117599720  1

> <PUBCHEM_COORDINATE_TYPE>
1
3

$$$$
