310949843
  -OEChem-07211613022D

 12 12  0     1  0  0  0  0  0999 V2000
    0.7250    0.4313    0.0000 N   0  0  0  0  0  0  0  0  0  0  0  0
   -0.0125    0.0188    0.0000 C   0  0  3  0  0  0  0  0  0  0  0  0
   -0.0250   -0.8188    0.0000 C   0  0  0  0  0  0  0  0  0  0  0  0
   -0.7375    0.4187    0.0000 C   0  0  3  0  0  0  0  0  0  0  0  0
   -0.7375   -1.2313    0.0000 C   0  0  0  0  0  0  0  0  0  0  0  0
   -1.4376    0.0062    0.0000 C   0  0  0  0  0  0  0  0  0  0  0  0
    0.7250   -1.2438    0.0000 C   0  0  0  0  0  0  0  0  0  0  0  0
   -1.4376   -0.8188    0.0000 C   0  0  0  0  0  0  0  0  0  0  0  0
    0.5000    0.2937    0.0000 C   0  0  0  0  0  0  0  0  0  0  0  0
   -0.7125    1.2438    0.0000 C   0  0  0  0  0  0  0  0  0  0  0  0
    1.4376   -0.8312    0.0000 C   0  0  0  0  0  0  0  0  0  0  0  0
    1.4376    0.0062    0.0000 C   0  0  0  0  0  0  0  0  0  0  0  0
  1 12  2  3  0  0  0
  2  3  1  0  0  0  0
  2  4  1  0  0  0  0
  2  9  1  0  0  0  0
  3  5  2  0  0  0  0
  3  7  1  0  0  0  0
  4  6  1  0  0  0  0
  4 10  1  0  0  0  0
  5  8  1  0  0  0  0
  6  8  2  0  0  0  0
  7 11  2  0  0  0  0
 11 12  1  0  0  0  0
M  END
> <PUBCHEM_COMPOUND_ID_TYPE>
0

> <PUBCHEM_TOTAL_CHARGE>
0

> <PUBCHEM_SUBSTANCE_ID>
310949843

> <PUBCHEM_SUBSTANCE_VERSION>
1

> <PUBCHEM_EXT_DATASOURCE_NAME>
4488

> <PUBCHEM_EXT_DATASOURCE_REGID>
SCHEMBL16128047

> <PUBCHEM_SUBSTANCE_COMMENT>
InChI=1S/C11H15N/c1-9-5-3-6-11(10(9)2)7-4-8-12/h3-10,12H,1-2H3/b7-4-,12-8?
InChIKey=WOSXNEXBMPYEIC-RMPRAXAASA-N

> <PUBCHEM_SUBSTANCE_SYNONYM>
SCHEMBL16128047

> <PUBCHEM_XREF_EXT_ID>
SCHEMBL16128047

> <PUBCHEM_EXT_DATASOURCE_URL>
https://www.surechembl.org/

> <PUBCHEM_EXT_SUBSTANCE_URL>
https://www.surechembl.org/chemical/SCHEMBL16128047

> <PUBCHEM_CID_ASSOCIATIONS>
117615153  1

> <PUBCHEM_COORDINATE_TYPE>
1
3

$$$$
