310936416
  -OEChem-07211613022D

 24 26  0     1  0  0  0  0  0999 V2000
    1.4486    0.0000    0.0000 O   0  0  0  0  0  0  0  0  0  0  0  0
    0.0000    0.0000    0.0000 O   0  0  0  0  0  0  0  0  0  0  0  0
    0.7243   -1.2510    0.0000 N   0  0  0  0  0  0  0  0  0  0  0  0
    1.4486   -1.6460    0.0000 C   0  0  3  0  0  0  0  0  0  0  0  0
    2.1728   -1.2180    0.0000 C   0  0  0  0  0  0  0  0  0  0  0  0
    0.7243   -2.8641    0.0000 C   0  0  0  0  0  0  0  0  0  0  0  0
    1.4486   -2.4691    0.0000 C   0  0  0  0  0  0  0  0  0  0  0  0
    1.4156   -4.1152    0.0000 C   0  0  0  0  0  0  0  0  0  0  0  0
    1.4486   -4.9052    0.0000 C   0  0  0  0  0  0  0  0  0  0  0  0
    0.7243   -3.7201    0.0000 C   0  0  0  0  0  0  0  0  0  0  0  0
    2.1399   -5.3332    0.0000 C   0  0  0  0  0  0  0  0  0  0  0  0
    0.0000   -1.6460    0.0000 C   0  0  0  0  0  0  0  0  0  0  0  0
    0.0000   -2.4691    0.0000 C   0  0  0  0  0  0  0  0  0  0  0  0
    0.7243   -0.3950    0.0000 C   0  0  0  0  0  0  0  0  0  0  0  0
    2.1399   -3.7201    0.0000 C   0  0  0  0  0  0  0  0  0  0  0  0
    0.7243   -5.3332    0.0000 C   0  0  0  0  0  0  0  0  0  0  0  0
    2.8641   -4.9382    0.0000 C   0  0  0  0  0  0  0  0  0  0  0  0
    2.1399   -6.1892    0.0000 C   0  0  0  0  0  0  0  0  0  0  0  0
    2.6008   -1.9423    0.0000 C   0  0  0  0  0  0  0  0  0  0  0  0
    2.8641   -0.7901    0.0000 C   0  0  0  0  0  0  0  0  0  0  0  0
    1.7448   -0.5267    0.0000 C   0  0  0  0  0  0  0  0  0  0  0  0
    2.8641   -4.1152    0.0000 C   0  0  0  0  0  0  0  0  0  0  0  0
    0.6913   -6.1562    0.0000 C   0  0  0  0  0  0  0  0  0  0  0  0
    1.4156   -6.5842    0.0000 C   0  0  0  0  0  0  0  0  0  0  0  0
  1 14  2  0  0  0  0
  2 14  1  0  0  0  0
  3  4  1  0  0  0  0
  3 12  1  0  0  0  0
  3 14  1  0  0  0  0
  4  5  1  0  0  0  0
  4  7  1  0  0  0  0
  5 19  1  0  0  0  0
  5 20  1  0  0  0  0
  5 21  1  0  0  0  0
  6  7  1  0  0  0  0
  6 10  2  0  0  0  0
  6 13  1  0  0  0  0
  8  9  1  0  0  0  0
  8 10  1  0  0  0  0
  8 15  2  0  0  0  0
  9 11  2  0  0  0  0
  9 16  1  0  0  0  0
 11 17  1  0  0  0  0
 11 18  1  0  0  0  0
 12 13  1  0  0  0  0
 15 22  1  0  0  0  0
 16 23  2  0  0  0  0
 17 22  2  0  0  0  0
 18 24  2  0  0  0  0
 23 24  1  0  0  0  0
M  END
> <PUBCHEM_COMPOUND_ID_TYPE>
0

> <PUBCHEM_TOTAL_CHARGE>
0

> <PUBCHEM_SUBSTANCE_ID>
310936416

> <PUBCHEM_SUBSTANCE_VERSION>
1

> <PUBCHEM_EXT_DATASOURCE_NAME>
4488

> <PUBCHEM_EXT_DATASOURCE_REGID>
SCHEMBL16114057

> <PUBCHEM_SUBSTANCE_COMMENT>
InChI=1S/C21H25NO2/c1-21(2,3)19-14-15(11-12-22(19)20(23)24)13-17-9-6-8-16-7-4-5-10-18(16)17/h4-10,13,19H,11-12,14H2,1-3H3,(H,23,24)/b15-13-
InChIKey=XYWNLRCJMVVELP-SQFISAMPSA-N

> <PUBCHEM_SUBSTANCE_SYNONYM>
SCHEMBL16114057

> <PUBCHEM_XREF_EXT_ID>
SCHEMBL16114057

> <PUBCHEM_EXT_DATASOURCE_URL>
https://www.surechembl.org/

> <PUBCHEM_EXT_SUBSTANCE_URL>
https://www.surechembl.org/chemical/SCHEMBL16114057

> <PUBCHEM_CID_ASSOCIATIONS>
117604351  1

> <PUBCHEM_COORDINATE_TYPE>
1
3

$$$$
