310936811
  -OEChem-07211613022D

 20 21  0     1  0  0  0  0  0999 V2000
    3.7071   -2.2355    0.0000 Br  0  0  0  0  0  0  0  0  0  0  0  0
    1.2451    0.0000    0.0000 F   0  0  0  0  0  0  0  0  0  0  0  0
    0.5376   -1.2168    0.0000 F   0  0  0  0  0  0  0  0  0  0  0  0
    1.9526   -0.4245    0.0000 F   0  0  0  0  0  0  0  0  0  0  0  0
    2.1224   -5.6596    0.0000 O   0  0  0  0  0  0  0  0  0  0  0  0
    1.0753   -3.8203    0.0000 O   0  0  0  0  0  0  0  0  0  0  0  0
    2.8581   -3.6505    0.0000 N   0  0  0  0  0  0  0  0  0  0  0  0
    1.6413   -2.9430    0.0000 N   0  0  0  0  0  0  0  0  0  0  0  0
    1.6413   -1.5281    0.0000 C   0  0  0  0  0  0  0  0  0  0  0  0
    2.4336   -2.9430    0.0000 C   0  0  0  0  0  0  0  0  0  0  0  0
    2.8864   -2.2355    0.0000 C   0  0  0  0  0  0  0  0  0  0  0  0
    1.2451   -0.8206    0.0000 C   0  0  0  0  0  0  0  0  0  0  0  0
    2.4336   -4.3579    0.0000 C   0  0  3  0  0  0  0  0  0  0  0  0
    2.4336   -1.5281    0.0000 C   0  0  0  0  0  0  0  0  0  0  0  0
    1.6130   -4.4428    0.0000 C   0  0  3  0  0  0  0  0  0  0  0  0
    1.2168   -2.2355    0.0000 C   0  0  0  0  0  0  0  0  0  0  0  0
    2.7449   -5.1219    0.0000 C   0  0  0  0  0  0  0  0  0  0  0  0
    1.4149   -5.2351    0.0000 C   0  0  0  0  0  0  0  0  0  0  0  0
    0.2547   -3.9900    0.0000 C   0  0  0  0  0  0  0  0  0  0  0  0
    0.0000   -4.7541    0.0000 C   0  0  0  0  0  0  0  0  0  0  0  0
  1 11  1  0  0  0  0
  2 12  1  0  0  0  0
  3 12  1  0  0  0  0
  4 12  1  0  0  0  0
  5 17  1  0  0  0  0
  5 18  1  0  0  0  0
  6 15  1  0  0  0  0
  6 19  1  0  0  0  0
  7 10  1  0  0  0  0
  7 13  1  0  0  0  0
  8 10  1  0  0  0  0
  8 16  2  0  0  0  0
  9 12  1  0  0  0  0
  9 14  2  0  0  0  0
  9 16  1  0  0  0  0
 10 11  2  0  0  0  0
 11 14  1  0  0  0  0
 13 15  1  0  0  0  0
 13 17  1  0  0  0  0
 15 18  1  0  0  0  0
 19 20  1  0  0  0  0
M  END
> <PUBCHEM_COMPOUND_ID_TYPE>
0

> <PUBCHEM_TOTAL_CHARGE>
0

> <PUBCHEM_SUBSTANCE_ID>
310936811

> <PUBCHEM_SUBSTANCE_VERSION>
1

> <PUBCHEM_EXT_DATASOURCE_NAME>
4488

> <PUBCHEM_EXT_DATASOURCE_REGID>
SCHEMBL16114498

> <PUBCHEM_SUBSTANCE_COMMENT>
InChI=1S/C12H14BrF3N2O2/c1-2-20-10-6-19-5-9(10)18-11-8(13)3-7(4-17-11)12(14,15)16/h3-4,9-10H,2,5-6H2,1H3,(H,17,18)
InChIKey=KGMUJOUBJVTIMG-UHFFFAOYSA-N

> <PUBCHEM_SUBSTANCE_SYNONYM>
SCHEMBL16114498

> <PUBCHEM_XREF_EXT_ID>
SCHEMBL16114498

> <PUBCHEM_EXT_DATASOURCE_URL>
https://www.surechembl.org/

> <PUBCHEM_EXT_SUBSTANCE_URL>
https://www.surechembl.org/chemical/SCHEMBL16114498

> <PUBCHEM_CID_ASSOCIATIONS>
117604704  1

> <PUBCHEM_COORDINATE_TYPE>
1
3

$$$$
