310936795
  -OEChem-07211613022D

 48 52  0     1  0  0  0  0  0999 V2000
    6.1304   -8.1360    0.0000 F   0  0  0  0  0  0  0  0  0  0  0  0
    5.3155   -8.2651    0.0000 F   0  0  0  0  0  0  0  0  0  0  0  0
    4.7963   -7.6240    0.0000 F   0  0  0  0  0  0  0  0  0  0  0  0
    4.6449   -4.0311    0.0000 F   0  0  0  0  0  0  0  0  0  0  0  0
    5.4598   -3.9020    0.0000 F   0  0  0  0  0  0  0  0  0  0  0  0
    4.3493   -4.8013    0.0000 F   0  0  0  0  0  0  0  0  0  0  0  0
    8.4155   -6.2797    0.0000 O   0  0  0  0  0  0  0  0  0  0  0  0
   10.9651   -7.2439    0.0000 O   0  0  0  0  0  0  0  0  0  0  0  0
    9.8856   -6.2797    0.0000 O   0  0  0  0  0  0  0  0  0  0  0  0
   13.6997   -6.9664    0.0000 O   0  0  0  0  0  0  0  0  0  0  0  0
   12.9853   -5.7289    0.0000 O   0  0  0  0  0  0  0  0  0  0  0  0
    9.0215   -5.0904    0.0000 N   0  0  0  0  0  0  0  0  0  0  0  0
   10.8311   -3.4030    0.0000 N   0  0  3  0  0  0  0  0  0  0  0  0
   11.7872   -4.4649    0.0000 N   0  0  0  0  0  0  0  0  0  0  0  0
   11.3776   -7.9584    0.0000 N   0  0  0  0  0  0  0  0  0  0  0  0
    7.8321   -5.6964    0.0000 C   0  0  0  0  0  0  0  0  0  0  0  0
    8.2067   -4.9613    0.0000 C   0  0  0  0  0  0  0  0  0  0  0  0
    7.0173   -5.8255    0.0000 C   0  0  0  0  0  0  0  0  0  0  0  0
   10.3895   -4.7620    0.0000 C   0  0  0  0  0  0  0  0  0  0  0  0
    9.1505   -5.9053    0.0000 C   0  0  0  0  0  0  0  0  0  0  0  0
   11.0026   -4.2099    0.0000 C   0  0  0  0  0  0  0  0  0  0  0  0
    9.6049   -4.5070    0.0000 C   0  0  0  0  0  0  0  0  0  0  0  0
   11.3456   -5.8239    0.0000 C   0  0  0  0  0  0  0  0  0  0  0  0
   11.5172   -6.6308    0.0000 C   0  0  0  0  0  0  0  0  0  0  0  0
    5.9068   -6.7247    0.0000 C   0  0  0  0  0  0  0  0  0  0  0  0
    5.6833   -5.3134    0.0000 C   0  0  0  0  0  0  0  0  0  0  0  0
   12.2708   -6.9664    0.0000 C   0  0  0  0  0  0  0  0  0  0  0  0
    6.4981   -5.1843    0.0000 C   0  0  0  0  0  0  0  0  0  0  0  0
    6.7216   -6.5957    0.0000 C   0  0  0  0  0  0  0  0  0  0  0  0
   10.5610   -5.5689    0.0000 C   0  0  0  0  0  0  0  0  0  0  0  0
    5.3876   -6.0836    0.0000 C   0  0  0  0  0  0  0  0  0  0  0  0
    5.6111   -7.4949    0.0000 C   0  0  0  0  0  0  0  0  0  0  0  0
    5.1641   -4.6722    0.0000 C   0  0  0  0  0  0  0  0  0  0  0  0
   11.9587   -5.2718    0.0000 C   0  0  0  0  0  0  0  0  0  0  0  0
   12.1846   -7.7869    0.0000 C   0  0  0  0  0  0  0  0  0  0  0  0
   12.9853   -6.5539    0.0000 C   0  0  0  0  0  0  0  0  0  0  0  0
    7.8711   -4.2076    0.0000 C   0  0  0  0  0  0  0  0  0  0  0  0
   11.4441   -2.8509    0.0000 C   0  0  0  0  0  0  0  0  0  0  0  0
   10.0464   -3.1481    0.0000 C   0  0  0  0  0  0  0  0  0  0  0  0
   11.2726   -2.0440    0.0000 C   0  0  0  0  0  0  0  0  0  0  0  0
   12.2288   -3.1059    0.0000 C   0  0  0  0  0  0  0  0  0  0  0  0
   12.7977   -8.3389    0.0000 C   0  0  0  0  0  0  0  0  0  0  0  0
   11.8857   -1.4919    0.0000 C   0  0  0  0  0  0  0  0  0  0  0  0
   12.8419   -2.5538    0.0000 C   0  0  0  0  0  0  0  0  0  0  0  0
    9.9174   -2.3332    0.0000 C   0  0  0  0  0  0  0  0  0  0  0  0
   14.4142   -6.5539    0.0000 C   0  0  0  0  0  0  0  0  0  0  0  0
   12.6703   -1.7469    0.0000 C   0  0  0  0  0  0  0  0  0  0  0  0
   15.1287   -6.9664    0.0000 C   0  0  0  0  0  0  0  0  0  0  0  0
  1 32  1  0  0  0  0
  2 32  1  0  0  0  0
  3 32  1  0  0  0  0
  4 33  1  0  0  0  0
  5 33  1  0  0  0  0
  6 33  1  0  0  0  0
  7 16  1  0  0  0  0
  7 20  1  0  0  0  0
  8 15  1  0  0  0  0
  8 24  1  0  0  0  0
  9 20  2  0  0  0  0
 10 36  1  0  0  0  0
 10 46  1  0  0  0  0
 11 36  2  0  0  0  0
 12 17  1  0  0  0  0
 12 20  1  0  0  0  0
 12 22  1  0  0  0  0
 13 21  1  0  0  0  0
 13 38  1  0  0  0  0
 13 39  1  0  0  0  0
 14 21  1  0  0  0  0
 14 34  2  0  0  0  0
 15 35  2  0  0  0  0
 16 17  2  0  0  0  0
 16 18  1  0  0  0  0
 17 37  1  0  0  0  0
 18 28  2  0  0  0  0
 18 29  1  0  0  0  0
 19 21  2  0  0  0  0
 19 22  1  0  0  0  0
 19 30  1  0  0  0  0
 23 24  1  0  0  0  0
 23 30  2  0  0  0  0
 23 34  1  0  0  0  0
 24 27  2  0  0  0  0
 25 29  2  0  0  0  0
 25 31  1  0  0  0  0
 25 32  1  0  0  0  0
 26 28  1  0  0  0  0
 26 31  2  0  0  0  0
 26 33  1  0  0  0  0
 27 35  1  0  0  0  0
 27 36  1  0  0  0  0
 35 42  1  0  0  0  0
 38 40  1  0  0  0  0
 38 41  1  0  0  0  0
 39 45  1  0  0  0  0
 40 43  1  0  0  0  0
 41 44  1  0  0  0  0
 43 47  1  0  0  0  0
 44 47  1  0  0  0  0
 46 48  1  0  0  0  0
M  END
> <PUBCHEM_COMPOUND_ID_TYPE>
0

> <PUBCHEM_TOTAL_CHARGE>
0

> <PUBCHEM_SUBSTANCE_ID>
310936795

> <PUBCHEM_SUBSTANCE_VERSION>
1

> <PUBCHEM_EXT_DATASOURCE_NAME>
4488

> <PUBCHEM_EXT_DATASOURCE_REGID>
SCHEMBL16114481

> <PUBCHEM_SUBSTANCE_COMMENT>
InChI=1S/C33H34F6N4O5/c1-5-42(25-10-8-7-9-11-25)29-22(12-21(16-40-29)28-26(18(3)41-48-28)30(44)46-6-2)17-43-19(4)27(47-31(43)45)20-13-23(32(34,35)36)15-24(14-20)33(37,38)39/h12-16,25H,5-11,17H2,1-4H3
InChIKey=CJXVCWZITKLPCP-UHFFFAOYSA-N

> <PUBCHEM_SUBSTANCE_SYNONYM>
SCHEMBL16114481

> <PUBCHEM_XREF_EXT_ID>
SCHEMBL16114481

> <PUBCHEM_EXT_DATASOURCE_URL>
https://www.surechembl.org/

> <PUBCHEM_EXT_SUBSTANCE_URL>
https://www.surechembl.org/chemical/SCHEMBL16114481

> <PUBCHEM_CID_ASSOCIATIONS>
117604690  1

> <PUBCHEM_COORDINATE_TYPE>
1
3

$$$$
