310940460
  -OEChem-07211613022D

  8  7  0     1  0  0  0  0  0999 V2000
    0.7963   -0.2654    0.0000 S   0  0  3  0  0  0  0  0  0  0  0  0
    1.2058    0.4474    0.0000 O   0  0  0  0  0  0  0  0  0  0  0  0
    0.0683   -0.6597    0.0000 N   0  0  0  0  0  0  0  0  0  0  0  0
    1.4939   -0.6901    0.0000 N   0  0  0  0  0  0  0  0  0  0  0  0
    1.4939   -0.6901    0.0000 C   0  0  0  0  0  0  0  0  0  0  0  0
   -1.4939   -0.6142    0.0000 C   0  0  0  0  0  0  0  0  0  0  0  0
   -0.8266    0.2502    0.0000 C   0  0  0  0  0  0  0  0  0  0  0  0
   -0.8115    0.6901    0.0000 C   0  0  0  0  0  0  0  0  0  0  0  0
  1  2  2  0  0  0  0
  1  3  1  0  0  0  0
  1  5  1  0  0  0  0
  3  6  1  0  0  0  0
  4  5  2  3  0  0  0
  6  7  1  0  0  0  0
  7  8  2  0  0  0  0
M  END
> <PUBCHEM_COMPOUND_ID_TYPE>
0

> <PUBCHEM_TOTAL_CHARGE>
0

> <PUBCHEM_SUBSTANCE_ID>
310940460

> <PUBCHEM_SUBSTANCE_VERSION>
1

> <PUBCHEM_EXT_DATASOURCE_NAME>
4488

> <PUBCHEM_EXT_DATASOURCE_REGID>
SCHEMBL16118413

> <PUBCHEM_SUBSTANCE_COMMENT>
InChI=1S/C4H8N2OS/c1-2-3-6-8(7)4-5/h2,4-6H,1,3H2
InChIKey=VHGHPDOLUYYYIA-UHFFFAOYSA-N

> <PUBCHEM_SUBSTANCE_SYNONYM>
SCHEMBL16118413

> <PUBCHEM_XREF_EXT_ID>
SCHEMBL16118413

> <PUBCHEM_EXT_DATASOURCE_URL>
https://www.surechembl.org/

> <PUBCHEM_EXT_SUBSTANCE_URL>
https://www.surechembl.org/chemical/SCHEMBL16118413

> <PUBCHEM_CID_ASSOCIATIONS>
117607479  1

> <PUBCHEM_COORDINATE_TYPE>
1
3

$$$$
