310936539
  -OEChem-07211613022D

 32 34  0     1  0  0  0  0  0999 V2000
    3.7202   -6.7265    0.0000 S   0  0  0  0  0  0  0  0  0  0  0  0
    4.9603   -7.4404    0.0000 F   0  0  0  0  0  0  0  0  0  0  0  0
    4.9603   -5.9749    0.0000 F   0  0  0  0  0  0  0  0  0  0  0  0
    5.3736   -6.7265    0.0000 F   0  0  0  0  0  0  0  0  0  0  0  0
    2.1044    0.0000    0.0000 F   0  0  0  0  0  0  0  0  0  0  0  0
    1.4280   -3.7954    0.0000 O   0  0  0  0  0  0  0  0  0  0  0  0
    2.9311   -6.7265    0.0000 O   0  0  0  0  0  0  0  0  0  0  0  0
    3.7202   -5.7870    0.0000 O   0  0  0  0  0  0  0  0  0  0  0  0
    3.7202   -7.5156    0.0000 O   0  0  0  0  0  0  0  0  0  0  0  0
    4.1712   -4.0960    0.0000 O   0  0  0  0  0  0  0  0  0  0  0  0
    3.7202   -2.7432    0.0000 N   0  0  0  0  0  0  0  0  0  0  0  0
    2.5177   -4.5845    0.0000 C   0  0  0  0  0  0  0  0  0  0  0  0
    2.7432   -3.7954    0.0000 C   0  0  0  0  0  0  0  0  0  0  0  0
    1.6534   -4.5845    0.0000 C   0  0  0  0  0  0  0  0  0  0  0  0
    2.1044   -3.3069    0.0000 C   0  0  0  0  0  0  0  0  0  0  0  0
    2.5177   -5.9749    0.0000 C   0  0  0  0  0  0  0  0  0  0  0  0
    1.6534   -5.9749    0.0000 C   0  0  0  0  0  0  0  0  0  0  0  0
    2.8935   -5.2985    0.0000 C   0  0  0  0  0  0  0  0  0  0  0  0
    1.2777   -5.2985    0.0000 C   0  0  0  0  0  0  0  0  0  0  0  0
    2.1044   -2.4801    0.0000 C   0  0  0  0  0  0  0  0  0  0  0  0
    3.5323   -3.5699    0.0000 C   0  0  0  0  0  0  0  0  0  0  0  0
    4.5469   -6.7265    0.0000 C   0  0  0  0  0  0  0  0  0  0  0  0
    1.2401   -6.6889    0.0000 C   0  0  3  0  0  0  0  0  0  0  0  0
    1.3904   -2.0668    0.0000 C   0  0  0  0  0  0  0  0  0  0  0  0
    2.8184   -2.0668    0.0000 C   0  0  0  0  0  0  0  0  0  0  0  0
    0.4134   -6.6889    0.0000 C   0  0  0  0  0  0  0  0  0  0  0  0
    1.3904   -1.2401    0.0000 C   0  0  0  0  0  0  0  0  0  0  0  0
    2.8184   -1.2401    0.0000 C   0  0  0  0  0  0  0  0  0  0  0  0
    1.6534   -7.4404    0.0000 C   0  0  0  0  0  0  0  0  0  0  0  0
    2.1044   -0.8267    0.0000 C   0  0  0  0  0  0  0  0  0  0  0  0
    4.5093   -2.4801    0.0000 C   0  0  0  0  0  0  0  0  0  0  0  0
    0.0000   -7.4028    0.0000 C   0  0  0  0  0  0  0  0  0  0  0  0
  1  7  1  0  0  0  0
  1  8  2  0  0  0  0
  1  9  2  0  0  0  0
  1 22  1  0  0  0  0
  2 22  1  0  0  0  0
  3 22  1  0  0  0  0
  4 22  1  0  0  0  0
  5 30  1  0  0  0  0
  6 14  1  0  0  0  0
  6 15  1  0  0  0  0
  7 16  1  0  0  0  0
 10 21  2  0  0  0  0
 11 21  1  0  0  0  0
 11 31  1  0  0  0  0
 12 13  1  0  0  0  0
 12 14  2  0  0  0  0
 12 18  1  0  0  0  0
 13 15  2  0  0  0  0
 13 21  1  0  0  0  0
 14 19  1  0  0  0  0
 15 20  1  0  0  0  0
 16 17  1  0  0  0  0
 16 18  2  0  0  0  0
 17 19  2  0  0  0  0
 17 23  1  0  0  0  0
 20 24  2  0  0  0  0
 20 25  1  0  0  0  0
 23 26  1  0  0  0  0
 23 29  1  0  0  0  0
 24 27  1  0  0  0  0
 25 28  2  0  0  0  0
 26 32  1  0  0  0  0
 27 30  2  0  0  0  0
 28 30  1  0  0  0  0
M  END
> <PUBCHEM_COMPOUND_ID_TYPE>
0

> <PUBCHEM_TOTAL_CHARGE>
0

> <PUBCHEM_SUBSTANCE_ID>
310936539

> <PUBCHEM_SUBSTANCE_VERSION>
1

> <PUBCHEM_EXT_DATASOURCE_NAME>
4488

> <PUBCHEM_EXT_DATASOURCE_REGID>
SCHEMBL16114191

> <PUBCHEM_SUBSTANCE_COMMENT>
InChI=1S/C21H19F4NO5S/c1-4-11(2)14-9-16-15(10-17(14)31-32(28,29)21(23,24)25)18(20(27)26-3)19(30-16)12-5-7-13(22)8-6-12/h5-11H,4H2,1-3H3,(H,26,27)
InChIKey=HZEJVPGGINMUJB-UHFFFAOYSA-N

> <PUBCHEM_SUBSTANCE_SYNONYM>
SCHEMBL16114191

> <PUBCHEM_XREF_EXT_ID>
SCHEMBL16114191

> <PUBCHEM_EXT_DATASOURCE_URL>
https://www.surechembl.org/

> <PUBCHEM_EXT_SUBSTANCE_URL>
https://www.surechembl.org/chemical/SCHEMBL16114191

> <PUBCHEM_CID_ASSOCIATIONS>
117604461  1

> <PUBCHEM_COORDINATE_TYPE>
1
3

$$$$
