310938662
  -OEChem-07211613022D

 35 39  0     1  0  0  0  0  0999 V2000
   -3.4280   -3.8350    0.0000 Cl  0  0  0  0  0  0  0  0  0  0  0  0
    1.5733   -0.1225    0.0000 O   0  0  0  0  0  0  0  0  0  0  0  0
    0.1444   -4.2475    0.0000 O   0  0  0  0  0  0  0  0  0  0  0  0
    0.8589   -5.4850    0.0000 O   0  0  0  0  0  0  0  0  0  0  0  0
   -3.4280   -6.3100    0.0000 O   0  0  0  0  0  0  0  0  0  0  0  0
    0.8589   -3.0100    0.0000 N   0  0  0  0  0  0  0  0  0  0  0  0
    2.2878   -3.0100    0.0000 N   0  0  0  0  0  0  0  0  0  0  0  0
    2.2878   -5.4850    0.0000 N   0  0  0  0  0  0  0  0  0  0  0  0
    1.5733   -1.7725    0.0000 C   0  0  0  0  0  0  0  0  0  0  0  0
    1.5733   -2.5975    0.0000 C   0  0  0  0  0  0  0  0  0  0  0  0
    2.2878   -1.3600    0.0000 C   0  0  3  0  0  0  0  0  0  0  0  0
    0.8589   -1.3600    0.0000 C   0  0  3  0  0  0  0  0  0  0  0  0
    0.8589   -3.8350    0.0000 C   0  0  0  0  0  0  0  0  0  0  0  0
    1.5733   -4.2475    0.0000 C   0  0  0  0  0  0  0  0  0  0  0  0
    1.2193   -0.7541    0.0000 C   0  0  0  0  0  0  0  0  0  0  0  0
    1.9283   -0.7541    0.0000 C   0  0  0  0  0  0  0  0  0  0  0  0
    2.2878   -0.5350    0.0000 C   0  0  0  0  0  0  0  0  0  0  0  0
    0.8589   -0.5350    0.0000 C   0  0  0  0  0  0  0  0  0  0  0  0
    2.2878   -3.8350    0.0000 C   0  0  0  0  0  0  0  0  0  0  0  0
    1.5733   -5.0725    0.0000 C   0  0  0  0  0  0  0  0  0  0  0  0
   -0.5701   -3.8350    0.0000 C   0  0  0  0  0  0  0  0  0  0  0  0
   -1.2845   -4.2475    0.0000 C   0  0  0  0  0  0  0  0  0  0  0  0
   -1.9990   -3.8350    0.0000 C   0  0  0  0  0  0  0  0  0  0  0  0
   -2.7135   -4.2475    0.0000 C   0  0  0  0  0  0  0  0  0  0  0  0
   -2.7135   -5.0725    0.0000 C   0  0  0  0  0  0  0  0  0  0  0  0
   -1.2845   -5.0725    0.0000 C   0  0  0  0  0  0  0  0  0  0  0  0
    3.0023   -5.0725    0.0000 C   0  0  0  0  0  0  0  0  0  0  0  0
   -1.9990   -5.4850    0.0000 C   0  0  0  0  0  0  0  0  0  0  0  0
    3.7168   -5.4850    0.0000 C   0  0  0  0  0  0  0  0  0  0  0  0
   -3.4280   -5.4850    0.0000 C   0  0  0  0  0  0  0  0  0  0  0  0
    3.7168   -6.3100    0.0000 C   0  0  0  0  0  0  0  0  0  0  0  0
    4.4312   -5.0725    0.0000 C   0  0  0  0  0  0  0  0  0  0  0  0
    4.4312   -6.7225    0.0000 C   0  0  0  0  0  0  0  0  0  0  0  0
    5.1457   -5.4850    0.0000 C   0  0  0  0  0  0  0  0  0  0  0  0
    5.1457   -6.3100    0.0000 C   0  0  0  0  0  0  0  0  0  0  0  0
  1 24  1  0  0  0  0
  2 17  1  0  0  0  0
  2 18  1  0  0  0  0
  3 13  1  0  0  0  0
  3 21  1  0  0  0  0
  4 20  2  0  0  0  0
  5 30  1  0  0  0  0
  6 10  1  0  0  0  0
  6 13  2  0  0  0  0
  7 10  2  0  0  0  0
  7 19  1  0  0  0  0
  8 20  1  0  0  0  0
  8 27  1  0  0  0  0
  9 10  1  0  0  0  0
  9 11  1  0  0  0  0
  9 12  1  0  0  0  0
 11 16  1  0  0  0  0
 11 17  1  0  0  0  0
 12 15  1  0  0  0  0
 12 18  1  0  0  0  0
 13 14  1  0  0  0  0
 14 19  2  0  0  0  0
 14 20  1  0  0  0  0
 15 16  1  0  0  0  0
 21 22  1  0  0  0  0
 22 23  2  0  0  0  0
 22 26  1  0  0  0  0
 23 24  1  0  0  0  0
 24 25  2  0  0  0  0
 25 28  1  0  0  0  0
 25 30  1  0  0  0  0
 26 28  2  0  0  0  0
 27 29  1  0  0  0  0
 29 31  2  0  0  0  0
 29 32  1  0  0  0  0
 31 33  1  0  0  0  0
 32 34  2  0  0  0  0
 33 35  2  0  0  0  0
 34 35  1  0  0  0  0
M  END
> <PUBCHEM_COMPOUND_ID_TYPE>
0

> <PUBCHEM_TOTAL_CHARGE>
0

> <PUBCHEM_SUBSTANCE_ID>
310938662

> <PUBCHEM_SUBSTANCE_VERSION>
1

> <PUBCHEM_EXT_DATASOURCE_NAME>
4488

> <PUBCHEM_EXT_DATASOURCE_REGID>
SCHEMBL16116576

> <PUBCHEM_SUBSTANCE_COMMENT>
InChI=1S/C27H28ClN3O4/c28-23-10-18(6-7-19(23)13-32)14-35-27-22(26(33)30-11-17-4-2-1-3-5-17)12-29-25(31-27)24-20-8-9-21(24)16-34-15-20/h1-7,10,12,20-21,24,32H,8-9,11,13-16H2,(H,30,33)
InChIKey=BASNNGHIYVRJRF-UHFFFAOYSA-N

> <PUBCHEM_SUBSTANCE_SYNONYM>
SCHEMBL16116576

> <PUBCHEM_XREF_EXT_ID>
SCHEMBL16116576

> <PUBCHEM_EXT_DATASOURCE_URL>
https://www.surechembl.org/

> <PUBCHEM_EXT_SUBSTANCE_URL>
https://www.surechembl.org/chemical/SCHEMBL16116576

> <PUBCHEM_CID_ASSOCIATIONS>
117606094  1

> <PUBCHEM_COORDINATE_TYPE>
1
3

$$$$
