310946748
  -OEChem-07211613022D

 21 23  0     1  0  0  0  0  0999 V2000
    1.8563   -1.4170    0.0000 N   0  0  0  0  0  0  0  0  0  0  0  0
   -1.8563   -1.5144    0.0000 N   0  0  0  0  0  0  0  0  0  0  0  0
    2.3413   -2.0844    0.0000 N   0  0  0  0  0  0  0  0  0  0  0  0
   -2.3413   -0.8469    0.0000 N   0  0  0  0  0  0  0  0  0  0  0  0
   -0.7019    0.9458    0.0000 N   0  0  3  0  0  0  0  0  0  0  0  0
    0.2513    2.9094    0.0000 N   0  0  0  0  0  0  0  0  0  0  0  0
    1.0717   -1.6719    0.0000 C   0  0  0  0  0  0  0  0  0  0  0  0
   -0.3572   -1.6719    0.0000 C   0  0  0  0  0  0  0  0  0  0  0  0
   -1.0717   -1.2594    0.0000 C   0  0  0  0  0  0  0  0  0  0  0  0
    1.0717   -2.4969    0.0000 C   0  0  0  0  0  0  0  0  0  0  0  0
    0.3572   -1.2594    0.0000 C   0  0  0  0  0  0  0  0  0  0  0  0
   -1.0717   -0.4344    0.0000 C   0  0  0  0  0  0  0  0  0  0  0  0
   -0.3572   -2.4969    0.0000 C   0  0  0  0  0  0  0  0  0  0  0  0
    0.3572   -2.9094    0.0000 C   0  0  0  0  0  0  0  0  0  0  0  0
    1.8563   -2.7519    0.0000 C   0  0  0  0  0  0  0  0  0  0  0  0
   -1.8563   -0.1795    0.0000 C   0  0  0  0  0  0  0  0  0  0  0  0
   -0.4883    0.1489    0.0000 C   0  0  0  0  0  0  0  0  0  0  0  0
    2.2688   -0.7025    0.0000 C   0  0  0  0  0  0  0  0  0  0  0  0
   -0.1185    1.5292    0.0000 C   0  0  0  0  0  0  0  0  0  0  0  0
   -1.4988    1.1593    0.0000 C   0  0  0  0  0  0  0  0  0  0  0  0
   -0.3320    2.3261    0.0000 C   0  0  0  0  0  0  0  0  0  0  0  0
  1  3  1  0  0  0  0
  1  7  1  0  0  0  0
  1 18  1  0  0  0  0
  2  4  1  0  0  0  0
  2  9  2  0  0  0  0
  3 15  2  0  0  0  0
  4 16  1  0  0  0  0
  5 17  1  0  0  0  0
  5 19  1  0  0  0  0
  5 20  1  0  0  0  0
  6 21  1  0  0  0  0
  7 10  2  0  0  0  0
  7 11  1  0  0  0  0
  8  9  1  0  0  0  0
  8 11  2  0  0  0  0
  8 13  1  0  0  0  0
  9 12  1  0  0  0  0
 10 14  1  0  0  0  0
 10 15  1  0  0  0  0
 12 16  2  0  0  0  0
 12 17  1  0  0  0  0
 13 14  2  0  0  0  0
 19 21  1  0  0  0  0
M  END
> <PUBCHEM_COMPOUND_ID_TYPE>
0

> <PUBCHEM_TOTAL_CHARGE>
0

> <PUBCHEM_SUBSTANCE_ID>
310946748

> <PUBCHEM_SUBSTANCE_VERSION>
1

> <PUBCHEM_EXT_DATASOURCE_NAME>
4488

> <PUBCHEM_EXT_DATASOURCE_REGID>
SCHEMBL16124872

> <PUBCHEM_SUBSTANCE_COMMENT>
InChI=1S/C15H20N6/c1-20(6-5-16)10-13-8-17-19-15(13)11-3-4-12-9-18-21(2)14(12)7-11/h3-4,7-9H,5-6,10,16H2,1-2H3,(H,17,19)
InChIKey=ACUPZTQZOSSPGW-UHFFFAOYSA-N

> <PUBCHEM_SUBSTANCE_SYNONYM>
SCHEMBL16124872

> <PUBCHEM_XREF_EXT_ID>
SCHEMBL16124872

> <PUBCHEM_EXT_DATASOURCE_URL>
https://www.surechembl.org/

> <PUBCHEM_EXT_SUBSTANCE_URL>
https://www.surechembl.org/chemical/SCHEMBL16124872

> <PUBCHEM_CID_ASSOCIATIONS>
86296139  1

> <PUBCHEM_COORDINATE_TYPE>
1
3

$$$$
