310941316
  -OEChem-07211613022D

 40 43  0     1  0  0  0  0  0999 V2000
    4.8399    0.6738    0.0000 O   0  0  0  0  0  0  0  0  0  0  0  0
    3.7124   -1.2787    0.0000 O   0  0  0  0  0  0  0  0  0  0  0  0
    1.5674    0.7838    0.0000 O   0  0  0  0  0  0  0  0  0  0  0  0
   -0.5775   -1.2787    0.0000 O   0  0  0  0  0  0  0  0  0  0  0  0
   -5.1561    0.5362    0.0000 O   0  0  0  0  0  0  0  0  0  0  0  0
    3.7124   -2.9287    0.0000 O   0  0  0  0  0  0  0  0  0  0  0  0
   -2.7225    0.7838    0.0000 O   0  0  0  0  0  0  0  0  0  0  0  0
    2.2824   -0.4537    0.0000 N   0  0  0  0  0  0  0  0  0  0  0  0
    0.1375   -0.0412    0.0000 N   0  0  0  0  0  0  0  0  0  0  0  0
   -2.0075   -0.4537    0.0000 N   0  0  0  0  0  0  0  0  0  0  0  0
    4.4274    0.0000    0.0000 C   0  0  3  0  0  0  0  0  0  0  0  0
    3.7261   -0.4125    0.0000 C   0  0  0  0  0  0  0  0  0  0  0  0
    4.0424    0.6875    0.0000 C   0  0  0  0  0  0  0  0  0  0  0  0
    2.9837   -0.0137    0.0000 C   0  0  3  0  0  0  0  0  0  0  0  0
    5.1561   -0.4400    0.0000 C   0  0  0  0  0  0  0  0  0  0  0  0
    2.9974    1.2925    0.0000 C   0  0  0  0  0  0  0  0  0  0  0  0
    1.5674   -0.0412    0.0000 C   0  0  0  0  0  0  0  0  0  0  0  0
    0.8662   -0.4262    0.0000 C   0  0  3  0  0  0  0  0  0  0  0  0
    2.2687    1.7187    0.0000 C   0  0  0  0  0  0  0  0  0  0  0  0
    0.8524   -1.2512    0.0000 C   0  0  0  0  0  0  0  0  0  0  0  0
    1.5812   -1.6500    0.0000 C   0  0  0  0  0  0  0  0  0  0  0  0
   -0.5637   -0.4125    0.0000 C   0  0  0  0  0  0  0  0  0  0  0  0
    1.5812    1.3062    0.0000 C   0  0  0  0  0  0  0  0  0  0  0  0
    2.2824    2.5300    0.0000 C   0  0  0  0  0  0  0  0  0  0  0  0
   -1.3062   -0.0137    0.0000 C   0  0  3  0  0  0  0  0  0  0  0  0
    2.2687   -1.2649    0.0000 C   0  0  0  0  0  0  0  0  0  0  0  0
    1.5812   -2.4887    0.0000 C   0  0  0  0  0  0  0  0  0  0  0  0
    0.8662    1.7187    0.0000 C   0  0  0  0  0  0  0  0  0  0  0  0
    1.5537    2.9287    0.0000 C   0  0  0  0  0  0  0  0  0  0  0  0
    2.9974   -2.4749    0.0000 C   0  0  0  0  0  0  0  0  0  0  0  0
   -2.7225   -0.0412    0.0000 C   0  0  0  0  0  0  0  0  0  0  0  0
    2.9974   -1.6637    0.0000 C   0  0  0  0  0  0  0  0  0  0  0  0
    2.2962   -2.8874    0.0000 C   0  0  0  0  0  0  0  0  0  0  0  0
   -4.1662    0.0000    0.0000 C   0  0  0  0  0  0  0  0  0  0  0  0
    0.8662    2.5300    0.0000 C   0  0  0  0  0  0  0  0  0  0  0  0
   -3.4236   -0.4262    0.0000 C   0  0  0  0  0  0  0  0  0  0  0  0
   -1.2787    0.8250    0.0000 C   0  0  0  0  0  0  0  0  0  0  0  0
   -4.9361   -0.2200    0.0000 C   0  0  0  0  0  0  0  0  0  0  0  0
   -4.3587    0.7562    0.0000 C   0  0  0  0  0  0  0  0  0  0  0  0
    4.4549   -2.5024    0.0000 C   0  0  0  0  0  0  0  0  0  0  0  0
  1 11  1  0  0  0  0
  1 13  1  0  0  0  0
  2 12  2  0  0  0  0
  3 17  2  0  0  0  0
  4 22  2  0  0  0  0
  5 38  1  0  0  0  0
  5 39  1  0  0  0  0
  6 30  1  0  0  0  0
  6 40  1  0  0  0  0
  7 31  2  0  0  0  0
  8 14  1  0  0  0  0
  8 17  1  0  0  0  0
  9 18  1  0  0  0  0
  9 22  1  0  0  0  0
 10 25  1  0  0  0  0
 10 31  1  0  0  0  0
 11 12  1  0  0  0  0
 11 13  1  0  0  0  0
 11 15  1  0  0  0  0
 12 14  1  0  0  0  0
 14 16  1  0  0  0  0
 16 19  1  0  0  0  0
 17 18  1  0  0  0  0
 18 20  1  0  0  0  0
 19 23  2  0  0  0  0
 19 24  1  0  0  0  0
 20 21  1  0  0  0  0
 21 26  2  0  0  0  0
 21 27  1  0  0  0  0
 22 25  1  0  0  0  0
 23 28  1  0  0  0  0
 24 29  2  0  0  0  0
 25 37  1  0  0  0  0
 26 32  1  0  0  0  0
 27 33  2  0  0  0  0
 28 35  2  0  0  0  0
 29 35  1  0  0  0  0
 30 32  2  0  0  0  0
 30 33  1  0  0  0  0
 31 36  1  0  0  0  0
 34 36  1  0  0  0  0
 34 38  1  0  0  0  0
 34 39  1  0  0  0  0
M  END
> <PUBCHEM_COMPOUND_ID_TYPE>
0

> <PUBCHEM_TOTAL_CHARGE>
0

> <PUBCHEM_SUBSTANCE_ID>
310941316

> <PUBCHEM_SUBSTANCE_VERSION>
1

> <PUBCHEM_EXT_DATASOURCE_NAME>
4488

> <PUBCHEM_EXT_DATASOURCE_REGID>
SCHEMBL16119276

> <PUBCHEM_SUBSTANCE_COMMENT>
InChI=1S/C30H37N3O7/c1-19(31-26(34)15-22-16-39-17-22)28(36)33-25(14-21-9-11-23(38-3)12-10-21)29(37)32-24(27(35)30(2)18-40-30)13-20-7-5-4-6-8-20/h4-12,19,22,24-25H,13-18H2,1-3H3,(H,31,34)(H,32,37)(H,33,36)
InChIKey=KSFIFZSVTSAVCF-UHFFFAOYSA-N

> <PUBCHEM_SUBSTANCE_SYNONYM>
SCHEMBL16119276

> <PUBCHEM_XREF_EXT_ID>
SCHEMBL16119276

> <PUBCHEM_EXT_DATASOURCE_URL>
https://www.surechembl.org/

> <PUBCHEM_EXT_SUBSTANCE_URL>
https://www.surechembl.org/chemical/SCHEMBL16119276

> <PUBCHEM_CID_ASSOCIATIONS>
117608164  1

> <PUBCHEM_COORDINATE_TYPE>
1
3

$$$$
