310935382
  -OEChem-07211613022D

 43 49  0     1  0  0  0  0  0999 V2000
    5.6719   -5.2569    0.0000 S   0  0  0  0  0  0  0  0  0  0  0  0
    4.8765   -1.4526    0.0000 S   0  0  0  0  0  0  0  0  0  0  0  0
    6.1216   -6.0524    0.0000 O   0  0  0  0  0  0  0  0  0  0  0  0
    5.2916   -4.5999    0.0000 O   0  0  0  0  0  0  0  0  0  0  0  0
    2.1097   -5.6719    0.0000 N   0  0  3  0  0  0  0  0  0  0  0  0
    0.6917   -5.7066    0.0000 N   0  0  0  0  0  0  0  0  0  0  0  0
    0.0000   -4.4615    0.0000 N   0  0  0  0  0  0  0  0  0  0  0  0
    6.3636   -4.8765    0.0000 N   0  0  3  0  0  0  0  0  0  0  0  0
    4.2540   -2.8360    0.0000 N   0  0  0  0  0  0  0  0  0  0  0  0
    3.7352   -0.7955    0.0000 N   0  0  0  0  0  0  0  0  0  0  0  0
    4.9457    0.0000    0.0000 N   0  0  0  0  0  0  0  0  0  0  0  0
    4.3923   -2.9743    0.0000 N   0  0  0  0  0  0  0  0  0  0  0  0
    1.4180   -4.4615    0.0000 C   0  0  0  0  0  0  0  0  0  0  0  0
    1.4180   -5.2569    0.0000 C   0  0  0  0  0  0  0  0  0  0  0  0
    0.6917   -4.0465    0.0000 C   0  0  0  0  0  0  0  0  0  0  0  0
    2.1097   -3.2510    0.0000 C   0  0  0  0  0  0  0  0  0  0  0  0
    3.5623   -5.6719    0.0000 C   0  0  0  0  0  0  0  0  0  0  0  0
    2.1097   -4.0465    0.0000 C   0  0  0  0  0  0  0  0  0  0  0  0
    0.6917   -3.2510    0.0000 C   0  0  0  0  0  0  0  0  0  0  0  0
    2.8360   -2.8360    0.0000 C   0  0  0  0  0  0  0  0  0  0  0  0
    4.9457   -5.6719    0.0000 C   0  0  0  0  0  0  0  0  0  0  0  0
    3.5623   -6.5020    0.0000 C   0  0  0  0  0  0  0  0  0  0  0  0
    2.8360   -5.2569    0.0000 C   0  0  0  0  0  0  0  0  0  0  0  0
    1.4180   -2.8360    0.0000 C   0  0  0  0  0  0  0  0  0  0  0  0
    4.2540   -5.2569    0.0000 C   0  0  0  0  0  0  0  0  0  0  0  0
    3.5277   -1.5909    0.0000 C   0  0  0  0  0  0  0  0  0  0  0  0
    2.1097   -6.5020    0.0000 C   0  0  0  0  0  0  0  0  0  0  0  0
    4.2885   -2.0059    0.0000 C   0  0  0  0  0  0  0  0  0  0  0  0
    2.8360   -2.0405    0.0000 C   0  0  0  0  0  0  0  0  0  0  0  0
    2.8360   -6.9170    0.0000 C   0  0  0  0  0  0  0  0  0  0  0  0
    4.9457   -6.5020    0.0000 C   0  0  0  0  0  0  0  0  0  0  0  0
    4.2540   -6.9170    0.0000 C   0  0  0  0  0  0  0  0  0  0  0  0
    0.0000   -5.2916    0.0000 C   0  0  0  0  0  0  0  0  0  0  0  0
    3.5968   -3.2510    0.0000 C   0  0  0  0  0  0  0  0  0  0  0  0
    4.5307   -0.6917    0.0000 C   0  0  0  0  0  0  0  0  0  0  0  0
    0.0000   -2.8360    0.0000 C   0  0  0  0  0  0  0  0  0  0  0  0
    6.3636   -4.0465    0.0000 C   0  0  0  0  0  0  0  0  0  0  0  0
    5.6374   -3.6315    0.0000 C   0  0  0  0  0  0  0  0  0  0  0  0
    7.0900   -5.2916    0.0000 C   0  0  0  0  0  0  0  0  0  0  0  0
    5.6719   -2.8014    0.0000 C   0  0  0  0  0  0  0  0  0  0  0  0
    4.9457   -4.0465    0.0000 C   0  0  0  0  0  0  0  0  0  0  0  0
    4.9457   -2.3864    0.0000 C   0  0  0  0  0  0  0  0  0  0  0  0
    4.2540   -3.6315    0.0000 C   0  0  0  0  0  0  0  0  0  0  0  0
  1  3  2  0  0  0  0
  1  4  2  0  0  0  0
  1  8  1  0  0  0  0
  1 21  1  0  0  0  0
  2 28  1  0  0  0  0
  2 35  1  0  0  0  0
  5 14  1  0  0  0  0
  5 23  1  0  0  0  0
  5 27  1  0  0  0  0
  6 14  1  0  0  0  0
  6 33  2  0  0  0  0
  7 15  2  0  0  0  0
  7 33  1  0  0  0  0
  8 37  1  0  0  0  0
  8 39  1  0  0  0  0
  9 28  1  0  0  0  0
  9 34  2  0  0  0  0
 10 26  1  0  0  0  0
 10 35  2  0  0  0  0
 11 35  1  0  0  0  0
 12 42  1  0  0  0  0
 12 43  1  0  0  0  0
 13 14  2  0  0  0  0
 13 15  1  0  0  0  0
 13 18  1  0  0  0  0
 15 19  1  0  0  0  0
 16 18  2  0  0  0  0
 16 20  1  0  0  0  0
 16 24  1  0  0  0  0
 17 22  2  0  0  0  0
 17 23  1  0  0  0  0
 17 25  1  0  0  0  0
 19 24  2  0  0  0  0
 19 36  1  0  0  0  0
 20 29  2  0  0  0  0
 20 34  1  0  0  0  0
 21 25  2  0  0  0  0
 21 31  1  0  0  0  0
 22 30  1  0  0  0  0
 22 32  1  0  0  0  0
 26 28  2  0  0  0  0
 26 29  1  0  0  0  0
 27 30  1  0  0  0  0
 31 32  2  0  0  0  0
 37 38  1  0  0  0  0
 38 40  1  0  0  0  0
 38 41  1  0  0  0  0
 40 42  1  0  0  0  0
 41 43  1  0  0  0  0
M  END
> <PUBCHEM_COMPOUND_ID_TYPE>
0

> <PUBCHEM_TOTAL_CHARGE>
0

> <PUBCHEM_SUBSTANCE_ID>
310935382

> <PUBCHEM_SUBSTANCE_VERSION>
1

> <PUBCHEM_EXT_DATASOURCE_NAME>
4488

> <PUBCHEM_EXT_DATASOURCE_REGID>
SCHEMBL16112922

> <PUBCHEM_SUBSTANCE_COMMENT>
InChI=1S/C31H34N8O2S2/c1-19-11-22(23-14-27-30(34-15-23)42-31(32)37-27)13-26-28(19)35-18-36-29(26)39-10-7-21-3-4-25(12-24(21)17-39)43(40,41)38(2)16-20-5-8-33-9-6-20/h3-4,11-15,18,20,33H,5-10,16-17H2,1-2H3,(H2,32,37)
InChIKey=NTJWMFUBTJRQKK-UHFFFAOYSA-N

> <PUBCHEM_SUBSTANCE_SYNONYM>
SCHEMBL16112922

> <PUBCHEM_XREF_EXT_ID>
SCHEMBL16112922

> <PUBCHEM_EXT_DATASOURCE_URL>
https://www.surechembl.org/

> <PUBCHEM_EXT_SUBSTANCE_URL>
https://www.surechembl.org/chemical/SCHEMBL16112922

> <PUBCHEM_CID_ASSOCIATIONS>
86300477  1

> <PUBCHEM_COORDINATE_TYPE>
1
3

$$$$
