310933155
  -OEChem-07211613022D

 18 19  0     1  0  0  0  0  0999 V2000
    2.7442   -1.6107    0.0000 O   0  0  0  0  0  0  0  0  0  0  0  0
    3.8578   -3.5595    0.0000 O   0  0  0  0  0  0  0  0  0  0  0  0
    4.5737   -2.3266    0.0000 O   0  0  0  0  0  0  0  0  0  0  0  0
    2.3266   -2.3266    0.0000 C   0  0  3  0  0  0  0  0  0  0  0  0
    3.1618   -2.3266    0.0000 C   0  0  3  0  0  0  0  0  0  0  0  0
    1.7499   -1.7499    0.0000 C   0  0  0  0  0  0  0  0  0  0  0  0
    3.8578   -2.7442    0.0000 C   0  0  0  0  0  0  0  0  0  0  0  0
    1.6107   -2.7442    0.0000 C   0  0  0  0  0  0  0  0  0  0  0  0
    0.9346   -1.9488    0.0000 C   0  0  0  0  0  0  0  0  0  0  0  0
    1.9488   -0.9346    0.0000 C   0  0  0  0  0  0  0  0  0  0  0  0
    0.3579   -1.3721    0.0000 C   0  0  0  0  0  0  0  0  0  0  0  0
    1.3721   -0.3778    0.0000 C   0  0  0  0  0  0  0  0  0  0  0  0
    1.6107   -3.5595    0.0000 C   0  0  0  0  0  0  0  0  0  0  0  0
    0.5767   -0.5966    0.0000 C   0  0  0  0  0  0  0  0  0  0  0  0
    4.5737   -3.9771    0.0000 C   0  0  0  0  0  0  0  0  0  0  0  0
    0.0000    0.0000    0.0000 C   0  0  0  0  0  0  0  0  0  0  0  0
    5.2896   -3.5595    0.0000 C   0  0  0  0  0  0  0  0  0  0  0  0
    5.2896   -2.7442    0.0000 C   0  0  0  0  0  0  0  0  0  0  0  0
  1  4  1  0  0  0  0
  1  5  1  0  0  0  0
  2  7  1  0  0  0  0
  2 15  1  0  0  0  0
  3  7  2  0  0  0  0
  4  5  1  0  0  0  0
  4  6  1  0  0  0  0
  4  8  1  0  0  0  0
  5  7  1  0  0  0  0
  6  9  2  0  0  0  0
  6 10  1  0  0  0  0
  8 13  1  0  0  0  0
  9 11  1  0  0  0  0
 10 12  2  0  0  0  0
 11 14  2  0  0  0  0
 12 14  1  0  0  0  0
 14 16  1  0  0  0  0
 15 17  1  0  0  0  0
 17 18  1  0  0  0  0
M  END
> <PUBCHEM_COMPOUND_ID_TYPE>
0

> <PUBCHEM_TOTAL_CHARGE>
0

> <PUBCHEM_SUBSTANCE_ID>
310933155

> <PUBCHEM_SUBSTANCE_VERSION>
1

> <PUBCHEM_EXT_DATASOURCE_NAME>
4488

> <PUBCHEM_EXT_DATASOURCE_REGID>
SCHEMBL16110563

> <PUBCHEM_SUBSTANCE_COMMENT>
InChI=1S/C15H20O3/c1-4-10-17-14(16)13-15(5-2,18-13)12-8-6-11(3)7-9-12/h6-9,13H,4-5,10H2,1-3H3
InChIKey=MDJLPEWWJGGKBK-UHFFFAOYSA-N

> <PUBCHEM_SUBSTANCE_SYNONYM>
SCHEMBL16110563

> <PUBCHEM_XREF_EXT_ID>
SCHEMBL16110563

> <PUBCHEM_EXT_DATASOURCE_URL>
https://www.surechembl.org/

> <PUBCHEM_EXT_SUBSTANCE_URL>
https://www.surechembl.org/chemical/SCHEMBL16110563

> <PUBCHEM_CID_ASSOCIATIONS>
117601607  1

> <PUBCHEM_COORDINATE_TYPE>
1
3

$$$$
