310947484
  -OEChem-07211613022D

 28 28  0     1  0  0  0  0  0999 V2000
    3.1773    0.8389    0.0000 O   0  0  0  0  0  0  0  0  0  0  0  0
    4.6026    0.8685    0.0000 N   0  0  0  0  0  0  0  0  0  0  0  0
    5.3301    0.4528    0.0000 C   0  0  0  0  0  0  0  0  0  0  0  0
    3.8900    0.4677    0.0000 C   0  0  0  0  0  0  0  0  0  0  0  0
    2.4943    0.4232    0.0000 C   0  0  3  0  0  0  0  0  0  0  0  0
    5.3599   -0.4528    0.0000 C   0  0  0  0  0  0  0  0  0  0  0  0
    6.0279    0.8537    0.0000 C   0  0  0  0  0  0  0  0  0  0  0  0
    6.0725   -0.8685    0.0000 C   0  0  0  0  0  0  0  0  0  0  0  0
    6.7257    0.4528    0.0000 C   0  0  0  0  0  0  0  0  0  0  0  0
    1.7520    0.8389    0.0000 C   0  0  0  0  0  0  0  0  0  0  0  0
    6.7406   -0.4380    0.0000 C   0  0  0  0  0  0  0  0  0  0  0  0
    3.8900   -0.1559    0.0000 C   0  0  0  0  0  0  0  0  0  0  0  0
   -0.3712    0.3934    0.0000 C   0  0  0  0  0  0  0  0  0  0  0  0
    1.0690    0.4083    0.0000 C   0  0  0  0  0  0  0  0  0  0  0  0
    0.3118    0.8092    0.0000 C   0  0  0  0  0  0  0  0  0  0  0  0
    2.5092   -0.4974    0.0000 C   0  0  0  0  0  0  0  0  0  0  0  0
   -1.0690    0.8092    0.0000 C   0  0  0  0  0  0  0  0  0  0  0  0
   -3.2218    0.3786    0.0000 C   0  0  0  0  0  0  0  0  0  0  0  0
   -1.8262    0.3934    0.0000 C   0  0  0  0  0  0  0  0  0  0  0  0
   -2.5389    0.7943    0.0000 C   0  0  0  0  0  0  0  0  0  0  0  0
   -3.9196    0.7795    0.0000 C   0  0  0  0  0  0  0  0  0  0  0  0
   -0.3563   -0.4974    0.0000 C   0  0  0  0  0  0  0  0  0  0  0  0
   -4.6026    0.3638    0.0000 C   0  0  0  0  0  0  0  0  0  0  0  0
   -5.3301    0.7795    0.0000 C   0  0  0  0  0  0  0  0  0  0  0  0
   -3.2070   -0.5419    0.0000 C   0  0  0  0  0  0  0  0  0  0  0  0
   -6.0279    0.3340    0.0000 C   0  0  0  0  0  0  0  0  0  0  0  0
   -6.0131   -0.5716    0.0000 C   0  0  0  0  0  0  0  0  0  0  0  0
   -6.7406    0.7498    0.0000 C   0  0  0  0  0  0  0  0  0  0  0  0
  1  4  1  0  0  0  0
  1  5  1  0  0  0  0
  2  3  1  0  0  0  0
  2  4  1  0  0  0  0
  3  6  1  0  0  0  0
  3  7  1  0  0  0  0
  4 12  2  0  0  0  0
  5 10  1  0  0  0  0
  5 16  1  0  0  0  0
  6  8  1  0  0  0  0
  7  9  1  0  0  0  0
  8 11  1  0  0  0  0
  9 11  1  0  0  0  0
 10 14  1  0  0  0  0
 13 15  2  0  0  0  0
 13 17  1  0  0  0  0
 13 22  1  0  0  0  0
 14 15  1  0  0  0  0
 17 19  1  0  0  0  0
 18 20  2  0  0  0  0
 18 21  1  0  0  0  0
 18 25  1  0  0  0  0
 19 20  1  0  0  0  0
 21 23  1  0  0  0  0
 23 24  1  0  0  0  0
 24 26  2  0  0  0  0
 26 27  1  0  0  0  0
 26 28  1  0  0  0  0
M  END
> <PUBCHEM_COMPOUND_ID_TYPE>
0

> <PUBCHEM_TOTAL_CHARGE>
0

> <PUBCHEM_SUBSTANCE_ID>
310947484

> <PUBCHEM_SUBSTANCE_VERSION>
1

> <PUBCHEM_EXT_DATASOURCE_NAME>
4488

> <PUBCHEM_EXT_DATASOURCE_REGID>
SCHEMBL16125645

> <PUBCHEM_SUBSTANCE_COMMENT>
InChI=1S/C26H45NO/c1-21(2)13-10-14-22(3)15-11-16-23(4)17-12-18-24(5)28-25(6)27-26-19-8-7-9-20-26/h13,15,17,24,26-27H,6-12,14,16,18-20H2,1-5H3/b22-15+,23-17+
InChIKey=NIPCKEPERDGYMD-YYZDAUDSSA-N

> <PUBCHEM_SUBSTANCE_SYNONYM>
SCHEMBL16125645

> <PUBCHEM_XREF_EXT_ID>
SCHEMBL16125645

> <PUBCHEM_EXT_DATASOURCE_URL>
https://www.surechembl.org/

> <PUBCHEM_EXT_SUBSTANCE_URL>
https://www.surechembl.org/chemical/SCHEMBL16125645

> <PUBCHEM_CID_ASSOCIATIONS>
117613214  1

> <PUBCHEM_COORDINATE_TYPE>
1
3

$$$$
