310946244
  -OEChem-07211613022D

 24 25  0     1  0  0  0  0  0999 V2000
    3.4709    2.1510    0.0000 S   0  0  0  0  0  0  0  0  0  0  0  0
    2.6459    2.1510    0.0000 O   0  0  0  0  0  0  0  0  0  0  0  0
   -0.2120    2.1510    0.0000 O   0  0  0  0  0  0  0  0  0  0  0  0
   -0.2120    5.4510    0.0000 O   0  0  0  0  0  0  0  0  0  0  0  0
    3.8834    1.4366    0.0000 O   0  0  0  0  0  0  0  0  0  0  0  0
    3.8834    2.8655    0.0000 O   0  0  0  0  0  0  0  0  0  0  0  0
    4.2959    2.1510    0.0000 O   0  0  0  0  0  0  0  0  0  0  0  0
   -1.6409    4.6260    0.0000 O   0  0  0  0  0  0  0  0  0  0  0  0
    0.5025    3.3885    0.0000 N   0  0  0  0  0  0  0  0  0  0  0  0
    1.9314    2.5635    0.0000 N   0  0  0  0  0  0  0  0  0  0  0  0
   -0.9265    4.2135    0.0000 N   0  0  0  0  0  0  0  0  0  0  0  0
   -3.7844    4.2135    0.0000 N   0  0  0  0  0  0  0  0  0  0  0  0
    0.5025    2.5635    0.0000 C   0  0  0  0  0  0  0  0  0  0  0  0
    1.9314    3.3885    0.0000 C   0  0  3  0  0  0  0  0  0  0  0  0
    0.5025    4.2135    0.0000 C   0  0  3  0  0  0  0  0  0  0  0  0
    1.2169    2.9760    0.0000 C   0  0  0  0  0  0  0  0  0  0  0  0
    1.9314    4.2135    0.0000 C   0  0  0  0  0  0  0  0  0  0  0  0
    1.2169    4.6260    0.0000 C   0  0  0  0  0  0  0  0  0  0  0  0
   -0.2120    4.6260    0.0000 C   0  0  0  0  0  0  0  0  0  0  0  0
   -2.3554    4.2135    0.0000 C   0  0  0  0  0  0  0  0  0  0  0  0
   -3.0699    4.6260    0.0000 C   0  0  3  0  0  0  0  0  0  0  0  0
   -3.0699    5.4510    0.0000 C   0  0  0  0  0  0  0  0  0  0  0  0
   -3.7844    5.8635    0.0000 C   0  0  0  0  0  0  0  0  0  0  0  0
   -2.3554    5.8635    0.0000 C   0  0  0  0  0  0  0  0  0  0  0  0
  1  2  1  0  0  0  0
  1  5  2  0  0  0  0
  1  6  2  0  0  0  0
  1  7  1  0  0  0  0
  2 10  1  0  0  0  0
  3 13  2  0  0  0  0
  4 19  2  0  0  0  0
  8 11  1  0  0  0  0
  8 20  1  0  0  0  0
  9 13  1  0  0  0  0
  9 15  1  0  0  0  0
  9 16  1  0  0  0  0
 10 13  1  0  0  0  0
 10 14  1  0  0  0  0
 11 19  1  0  0  0  0
 12 21  1  0  0  0  0
 14 16  1  6  0  0  0
 14 17  1  0  0  0  0
 15 18  1  0  0  0  0
 15 19  1  6  0  0  0
 17 18  1  0  0  0  0
 20 21  1  0  0  0  0
 21 22  1  0  0  0  0
 22 23  1  0  0  0  0
 22 24  1  0  0  0  0
M  END
> <PUBCHEM_COMPOUND_ID_TYPE>
0

> <PUBCHEM_TOTAL_CHARGE>
0

> <PUBCHEM_SUBSTANCE_ID>
310946244

> <PUBCHEM_SUBSTANCE_VERSION>
1

> <PUBCHEM_EXT_DATASOURCE_NAME>
4488

> <PUBCHEM_EXT_DATASOURCE_REGID>
SCHEMBL16124362

> <PUBCHEM_SUBSTANCE_COMMENT>
InChI=1S/C12H22N4O7S/c1-7(2)9(13)6-22-14-11(17)10-4-3-8-5-15(10)12(18)16(8)23-24(19,20)21/h7-10H,3-6,13H2,1-2H3,(H,14,17)(H,19,20,21)/t8-,9?,10+/m1/s1
InChIKey=WKEAHLYBGMXLPG-FIBVVXLUSA-N

> <PUBCHEM_SUBSTANCE_SYNONYM>
SCHEMBL16124362

> <PUBCHEM_XREF_EXT_ID>
SCHEMBL16124362

> <PUBCHEM_EXT_DATASOURCE_URL>
https://www.surechembl.org/

> <PUBCHEM_EXT_SUBSTANCE_URL>
https://www.surechembl.org/chemical/SCHEMBL16124362

> <PUBCHEM_CID_ASSOCIATIONS>
117612192  1

> <PUBCHEM_COORDINATE_TYPE>
1
3

> <PUBCHEM_BONDANNOTATIONS>
14  16  6
15  19  6

$$$$
