310930679
  -OEChem-07211613022D

 23 26  0     1  0  0  0  0  0999 V2000
    4.7205   -3.0202    0.0000 O   0  0  0  0  0  0  0  0  0  0  0  0
    0.4250   -1.1857    0.0000 O   0  0  0  0  0  0  0  0  0  0  0  0
    4.4968   -4.4744    0.0000 O   0  0  0  0  0  0  0  0  0  0  0  0
    0.0000   -1.9017    0.0000 N   0  0  0  0  0  0  0  0  0  0  0  0
    3.4453   -2.5952    0.0000 C   0  0  0  0  0  0  0  0  0  0  0  0
    3.4453   -3.4677    0.0000 C   0  0  0  0  0  0  0  0  0  0  0  0
    4.2283   -2.3714    0.0000 C   0  0  3  0  0  0  0  0  0  0  0  0
    2.0359   -2.5952    0.0000 C   0  0  0  0  0  0  0  0  0  0  0  0
    1.3199   -2.1925    0.0000 C   0  0  0  0  0  0  0  0  0  0  0  0
    4.2283   -3.6914    0.0000 C   0  0  0  0  0  0  0  0  0  0  0  0
    2.7294   -2.2148    0.0000 C   0  0  0  0  0  0  0  0  0  0  0  0
    4.4968   -1.5884    0.0000 C   0  0  0  0  0  0  0  0  0  0  0  0
    2.7294   -3.8480    0.0000 C   0  0  0  0  0  0  0  0  0  0  0  0
    2.0359   -3.4677    0.0000 C   0  0  0  0  0  0  0  0  0  0  0  0
    1.2305   -1.3647    0.0000 C   0  0  0  0  0  0  0  0  0  0  0  0
    0.5593   -2.5280    0.0000 C   0  0  0  0  0  0  0  0  0  0  0  0
    3.9375   -0.9620    0.0000 C   0  0  0  0  0  0  0  0  0  0  0  0
    5.3022   -1.4094    0.0000 C   0  0  0  0  0  0  0  0  0  0  0  0
    1.8345   -0.8054    0.0000 C   0  0  0  0  0  0  0  0  0  0  0  0
    0.3803   -3.3335    0.0000 C   0  0  0  0  0  0  0  0  0  0  0  0
    4.1836   -0.1790    0.0000 C   0  0  0  0  0  0  0  0  0  0  0  0
    5.5483   -0.6264    0.0000 C   0  0  0  0  0  0  0  0  0  0  0  0
    5.0113    0.0000    0.0000 C   0  0  0  0  0  0  0  0  0  0  0  0
  1  7  1  0  0  0  0
  1 10  1  0  0  0  0
  2  4  1  0  0  0  0
  2 15  1  0  0  0  0
  3 10  2  0  0  0  0
  4 16  2  0  0  0  0
  5  6  2  0  0  0  0
  5  7  1  0  0  0  0
  5 11  1  0  0  0  0
  6 10  1  0  0  0  0
  6 13  1  0  0  0  0
  7 12  1  0  0  0  0
  8  9  1  0  0  0  0
  8 11  2  0  0  0  0
  8 14  1  0  0  0  0
  9 15  2  0  0  0  0
  9 16  1  0  0  0  0
 12 17  2  0  0  0  0
 12 18  1  0  0  0  0
 13 14  2  0  0  0  0
 15 19  1  0  0  0  0
 16 20  1  0  0  0  0
 17 21  1  0  0  0  0
 18 22  2  0  0  0  0
 21 23  2  0  0  0  0
 22 23  1  0  0  0  0
M  END
> <PUBCHEM_COMPOUND_ID_TYPE>
0

> <PUBCHEM_TOTAL_CHARGE>
0

> <PUBCHEM_SUBSTANCE_ID>
310930679

> <PUBCHEM_SUBSTANCE_VERSION>
1

> <PUBCHEM_EXT_DATASOURCE_NAME>
4488

> <PUBCHEM_EXT_DATASOURCE_REGID>
SCHEMBL16107976

> <PUBCHEM_SUBSTANCE_COMMENT>
InChI=1S/C19H15NO3/c1-11-17(12(2)23-20-11)14-8-9-15-16(10-14)18(22-19(15)21)13-6-4-3-5-7-13/h3-10,18H,1-2H3
InChIKey=JXYYWAYZWCHFHR-UHFFFAOYSA-N

> <PUBCHEM_SUBSTANCE_SYNONYM>
SCHEMBL16107976

> <PUBCHEM_XREF_EXT_ID>
SCHEMBL16107976

> <PUBCHEM_EXT_DATASOURCE_URL>
https://www.surechembl.org/

> <PUBCHEM_EXT_SUBSTANCE_URL>
https://www.surechembl.org/chemical/SCHEMBL16107976

> <PUBCHEM_CID_ASSOCIATIONS>
86295673  1

> <PUBCHEM_COORDINATE_TYPE>
1
3

$$$$
