310934882
  -OEChem-07211613022D

 41 46  0     1  0  0  0  0  0999 V2000
    1.4593   -4.9725    0.0000 S   0  0  0  0  0  0  0  0  0  0  0  0
    2.2700   -4.9725    0.0000 O   0  0  0  0  0  0  0  0  0  0  0  0
    0.5945   -4.9725    0.0000 O   0  0  0  0  0  0  0  0  0  0  0  0
    0.0000   -9.9450    0.0000 O   0  0  0  0  0  0  0  0  0  0  0  0
    2.8646   -1.6755    0.0000 N   0  0  3  0  0  0  0  0  0  0  0  0
    1.4593   -5.8373    0.0000 N   0  0  0  0  0  0  0  0  0  0  0  0
    3.5672   -0.3784    0.0000 N   0  0  0  0  0  0  0  0  0  0  0  0
    5.0265   -0.4324    0.0000 N   0  0  0  0  0  0  0  0  0  0  0  0
    5.7292   -4.9725    0.0000 N   0  0  0  0  0  0  0  0  0  0  0  0
    1.4593   -8.3235    0.0000 N   0  0  0  0  0  0  0  0  0  0  0  0
    4.3239   -1.6755    0.0000 C   0  0  0  0  0  0  0  0  0  0  0  0
    3.5672   -1.2431    0.0000 C   0  0  0  0  0  0  0  0  0  0  0  0
    5.0265   -1.2431    0.0000 C   0  0  0  0  0  0  0  0  0  0  0  0
    2.1620   -2.9187    0.0000 C   0  0  0  0  0  0  0  0  0  0  0  0
    1.4593   -4.1617    0.0000 C   0  0  0  0  0  0  0  0  0  0  0  0
    1.4053   -2.4862    0.0000 C   0  0  0  0  0  0  0  0  0  0  0  0
    2.8646   -2.4862    0.0000 C   0  0  0  0  0  0  0  0  0  0  0  0
    2.1620   -3.7294    0.0000 C   0  0  0  0  0  0  0  0  0  0  0  0
    5.7292   -1.6755    0.0000 C   0  0  0  0  0  0  0  0  0  0  0  0
    4.3239   -2.4862    0.0000 C   0  0  0  0  0  0  0  0  0  0  0  0
    5.0265   -2.9187    0.0000 C   0  0  0  0  0  0  0  0  0  0  0  0
    2.1620   -1.2431    0.0000 C   0  0  0  0  0  0  0  0  0  0  0  0
    0.7026   -3.7294    0.0000 C   0  0  0  0  0  0  0  0  0  0  0  0
    1.4053   -1.6755    0.0000 C   0  0  0  0  0  0  0  0  0  0  0  0
    0.7026   -2.9187    0.0000 C   0  0  0  0  0  0  0  0  0  0  0  0
    5.7292   -2.4862    0.0000 C   0  0  0  0  0  0  0  0  0  0  0  0
    5.0265   -3.7294    0.0000 C   0  0  0  0  0  0  0  0  0  0  0  0
    4.3239    0.0000    0.0000 C   0  0  0  0  0  0  0  0  0  0  0  0
    2.1620   -6.2156    0.0000 C   0  0  0  0  0  0  0  0  0  0  0  0
    0.7026   -6.2156    0.0000 C   0  0  0  0  0  0  0  0  0  0  0  0
    6.4859   -1.2431    0.0000 C   0  0  0  0  0  0  0  0  0  0  0  0
    1.4593   -7.4588    0.0000 C   0  0  0  0  0  0  0  0  0  0  0  0
    2.1620   -7.0263    0.0000 C   0  0  0  0  0  0  0  0  0  0  0  0
    0.7026   -7.0263    0.0000 C   0  0  0  0  0  0  0  0  0  0  0  0
    5.7292   -4.1617    0.0000 C   0  0  0  0  0  0  0  0  0  0  0  0
    4.3239   -4.1617    0.0000 C   0  0  0  0  0  0  0  0  0  0  0  0
    4.3239   -4.9725    0.0000 C   0  0  0  0  0  0  0  0  0  0  0  0
    5.0265   -5.4589    0.0000 C   0  0  0  0  0  0  0  0  0  0  0  0
    0.7026   -8.7018    0.0000 C   0  0  0  0  0  0  0  0  0  0  0  0
    0.7026   -9.5666    0.0000 C   0  0  0  0  0  0  0  0  0  0  0  0
    0.0000  -10.8098    0.0000 C   0  0  0  0  0  0  0  0  0  0  0  0
  1  2  2  0  0  0  0
  1  3  2  0  0  0  0
  1  6  1  0  0  0  0
  1 15  1  0  0  0  0
  4 40  1  0  0  0  0
  4 41  1  0  0  0  0
  5 12  1  0  0  0  0
  5 17  1  0  0  0  0
  5 22  1  0  0  0  0
  6 29  1  0  0  0  0
  6 30  1  0  0  0  0
  7 12  1  0  0  0  0
  7 28  2  0  0  0  0
  8 13  2  0  0  0  0
  8 28  1  0  0  0  0
  9 35  1  0  0  0  0
  9 38  2  0  0  0  0
 10 32  1  0  0  0  0
 10 39  1  0  0  0  0
 11 12  2  0  0  0  0
 11 13  1  0  0  0  0
 11 20  1  0  0  0  0
 13 19  1  0  0  0  0
 14 16  2  0  0  0  0
 14 17  1  0  0  0  0
 14 18  1  0  0  0  0
 15 18  2  0  0  0  0
 15 23  1  0  0  0  0
 16 24  1  0  0  0  0
 16 25  1  0  0  0  0
 19 26  2  0  0  0  0
 19 31  1  0  0  0  0
 20 21  2  0  0  0  0
 21 26  1  0  0  0  0
 21 27  1  0  0  0  0
 22 24  1  0  0  0  0
 23 25  2  0  0  0  0
 27 35  2  0  0  0  0
 27 36  1  0  0  0  0
 29 33  1  0  0  0  0
 30 34  1  0  0  0  0
 32 33  1  0  0  0  0
 32 34  1  0  0  0  0
 36 37  2  0  0  0  0
 37 38  1  0  0  0  0
 39 40  1  0  0  0  0
M  END
> <PUBCHEM_COMPOUND_ID_TYPE>
0

> <PUBCHEM_TOTAL_CHARGE>
0

> <PUBCHEM_SUBSTANCE_ID>
310934882

> <PUBCHEM_SUBSTANCE_VERSION>
1

> <PUBCHEM_EXT_DATASOURCE_NAME>
4488

> <PUBCHEM_EXT_DATASOURCE_REGID>
SCHEMBL16112395

> <PUBCHEM_SUBSTANCE_COMMENT>
InChI=1S/C31H36N6O3S/c1-22-16-25(24-4-3-10-32-19-24)18-29-30(22)34-21-35-31(29)36-12-7-23-5-6-28(17-26(23)20-36)41(38,39)37-13-8-27(9-14-37)33-11-15-40-2/h3-6,10,16-19,21,27,33H,7-9,11-15,20H2,1-2H3
InChIKey=QATZPYQECSMRPH-UHFFFAOYSA-N

> <PUBCHEM_SUBSTANCE_SYNONYM>
SCHEMBL16112395

> <PUBCHEM_XREF_EXT_ID>
SCHEMBL16112395

> <PUBCHEM_EXT_DATASOURCE_URL>
https://www.surechembl.org/

> <PUBCHEM_EXT_SUBSTANCE_URL>
https://www.surechembl.org/chemical/SCHEMBL16112395

> <PUBCHEM_CID_ASSOCIATIONS>
117603014  1

> <PUBCHEM_COORDINATE_TYPE>
1
3

$$$$
