310933545
  -OEChem-07211613022D

 43 48  0     1  0  0  0  0  0999 V2000
    4.3320    3.1611    0.0000 Cl  0  0  0  0  0  0  0  0  0  0  0  0
    5.0672   -5.9831    0.0000 F   0  0  0  0  0  0  0  0  0  0  0  0
    4.8847   -4.8308    0.0000 F   0  0  0  0  0  0  0  0  0  0  0  0
    6.2196   -5.8006    0.0000 F   0  0  0  0  0  0  0  0  0  0  0  0
   11.4767   -1.7889    0.0000 F   0  0  0  0  0  0  0  0  0  0  0  0
    7.9043    1.0986    0.0000 O   0  0  0  0  0  0  0  0  0  0  0  0
    7.1898   -0.1389    0.0000 N   0  0  0  0  0  0  0  0  0  0  0  0
    7.2369   -1.8613    0.0000 N   0  0  0  0  0  0  0  0  0  0  0  0
    4.3320   -0.1389    0.0000 N   0  0  0  0  0  0  0  0  0  0  0  0
    8.5717   -1.8613    0.0000 N   0  0  0  0  0  0  0  0  0  0  0  0
    3.6645   -0.6238    0.0000 N   0  0  0  0  0  0  0  0  0  0  0  0
    5.7015   -3.8946    0.0000 N   0  0  0  0  0  0  0  0  0  0  0  0
    3.9195   -1.4084    0.0000 N   0  0  0  0  0  0  0  0  0  0  0  0
    4.7445   -1.4084    0.0000 N   0  0  0  0  0  0  0  0  0  0  0  0
    7.9043   -0.5514    0.0000 C   0  0  3  0  0  0  0  0  0  0  0  0
    5.0464    1.0986    0.0000 C   0  0  0  0  0  0  0  0  0  0  0  0
    5.7609    0.6861    0.0000 C   0  0  0  0  0  0  0  0  0  0  0  0
    7.9043   -1.3764    0.0000 C   0  0  0  0  0  0  0  0  0  0  0  0
    7.1898    0.6861    0.0000 C   0  0  0  0  0  0  0  0  0  0  0  0
    4.3320    0.6861    0.0000 C   0  0  0  0  0  0  0  0  0  0  0  0
    7.4918   -2.6459    0.0000 C   0  0  0  0  0  0  0  0  0  0  0  0
    6.4754    1.0986    0.0000 C   0  0  0  0  0  0  0  0  0  0  0  0
    6.4754   -0.5514    0.0000 C   0  0  0  0  0  0  0  0  0  0  0  0
    5.7609   -0.1389    0.0000 C   0  0  0  0  0  0  0  0  0  0  0  0
    7.0069   -3.3134    0.0000 C   0  0  0  0  0  0  0  0  0  0  0  0
    8.6188   -0.1389    0.0000 C   0  0  0  0  0  0  0  0  0  0  0  0
    5.0464    1.9236    0.0000 C   0  0  0  0  0  0  0  0  0  0  0  0
    8.3168   -2.6459    0.0000 C   0  0  0  0  0  0  0  0  0  0  0  0
    3.6175    1.0986    0.0000 C   0  0  0  0  0  0  0  0  0  0  0  0
    4.3320    2.3361    0.0000 C   0  0  0  0  0  0  0  0  0  0  0  0
    9.3332   -0.5514    0.0000 C   0  0  0  0  0  0  0  0  0  0  0  0
    6.0370   -4.6482    0.0000 C   0  0  0  0  0  0  0  0  0  0  0  0
    3.6175    1.9236    0.0000 C   0  0  0  0  0  0  0  0  0  0  0  0
    6.1864   -3.2271    0.0000 C   0  0  0  0  0  0  0  0  0  0  0  0
    7.3424   -4.0670    0.0000 C   0  0  0  0  0  0  0  0  0  0  0  0
    4.9994   -0.6238    0.0000 C   0  0  0  0  0  0  0  0  0  0  0  0
    5.5521   -5.3157    0.0000 C   0  0  0  0  0  0  0  0  0  0  0  0
    6.8575   -4.7345    0.0000 C   0  0  0  0  0  0  0  0  0  0  0  0
    9.3332   -1.3764    0.0000 C   0  0  0  0  0  0  0  0  0  0  0  0
   10.0477   -0.1389    0.0000 C   0  0  0  0  0  0  0  0  0  0  0  0
   10.0477   -1.7889    0.0000 C   0  0  0  0  0  0  0  0  0  0  0  0
   10.7622   -0.5514    0.0000 C   0  0  0  0  0  0  0  0  0  0  0  0
   10.7622   -1.3764    0.0000 C   0  0  0  0  0  0  0  0  0  0  0  0
  1 30  1  0  0  0  0
  2 37  1  0  0  0  0
  3 37  1  0  0  0  0
  4 37  1  0  0  0  0
  5 43  1  0  0  0  0
  6 19  2  0  0  0  0
  7 15  1  0  0  0  0
  7 19  1  0  0  0  0
  7 23  1  0  0  0  0
  8 18  1  0  0  0  0
  8 21  1  0  0  0  0
  9 11  1  0  0  0  0
  9 20  1  0  0  0  0
  9 36  1  0  0  0  0
 10 18  2  0  0  0  0
 10 28  1  0  0  0  0
 11 13  2  0  0  0  0
 12 32  1  0  0  0  0
 12 34  2  0  0  0  0
 13 14  1  0  0  0  0
 14 36  2  0  0  0  0
 15 18  1  0  0  0  0
 15 26  1  0  0  0  0
 16 17  1  0  0  0  0
 16 20  2  0  0  0  0
 16 27  1  0  0  0  0
 17 22  2  0  0  0  0
 17 24  1  0  0  0  0
 19 22  1  0  0  0  0
 20 29  1  0  0  0  0
 21 25  1  0  0  0  0
 21 28  2  0  0  0  0
 23 24  2  0  0  0  0
 25 34  1  0  0  0  0
 25 35  2  0  0  0  0
 26 31  1  0  0  0  0
 27 30  2  0  0  0  0
 29 33  2  0  0  0  0
 30 33  1  0  0  0  0
 31 39  2  0  0  0  0
 31 40  1  0  0  0  0
 32 37  1  0  0  0  0
 32 38  2  0  0  0  0
 35 38  1  0  0  0  0
 39 41  1  0  0  0  0
 40 42  2  0  0  0  0
 41 43  2  0  0  0  0
 42 43  1  0  0  0  0
M  END
> <PUBCHEM_COMPOUND_ID_TYPE>
0

> <PUBCHEM_TOTAL_CHARGE>
0

> <PUBCHEM_SUBSTANCE_ID>
310933545

> <PUBCHEM_SUBSTANCE_VERSION>
1

> <PUBCHEM_EXT_DATASOURCE_NAME>
4488

> <PUBCHEM_EXT_DATASOURCE_REGID>
SCHEMBL16110968

> <PUBCHEM_SUBSTANCE_COMMENT>
InChI=1S/C29H19ClF4N8O/c30-20-4-7-24(42-16-37-39-40-42)22(13-20)18-9-10-41(27(43)12-18)25(11-17-1-5-21(31)6-2-17)28-36-15-23(38-28)19-3-8-26(35-14-19)29(32,33)34/h1-10,12-16,25H,11H2,(H,36,38)
InChIKey=KLIBQCXULLBHNP-UHFFFAOYSA-N

> <PUBCHEM_SUBSTANCE_SYNONYM>
SCHEMBL16110968

> <PUBCHEM_XREF_EXT_ID>
SCHEMBL16110968

> <PUBCHEM_EXT_DATASOURCE_URL>
https://www.surechembl.org/

> <PUBCHEM_EXT_SUBSTANCE_URL>
https://www.surechembl.org/chemical/SCHEMBL16110968

> <PUBCHEM_CID_ASSOCIATIONS>
86301868  1

> <PUBCHEM_COORDINATE_TYPE>
1
3

$$$$
