310939639
  -OEChem-07211613022D

 39 41  0     1  0  0  0  0  0999 V2000
   -0.0213   -1.4706    0.0000 Cl  0  0  0  0  0  0  0  0  0  0  0  0
   -1.4503   -3.9456    0.0000 O   0  0  0  0  0  0  0  0  0  0  0  0
    3.5510   -7.6581    0.0000 O   0  0  0  0  0  0  0  0  0  0  0  0
    2.1221   -8.4831    0.0000 O   0  0  0  0  0  0  0  0  0  0  0  0
    2.8366   -1.4706    0.0000 O   0  0  0  0  0  0  0  0  0  0  0  0
   -2.8792   -4.7706    0.0000 O   0  0  0  0  0  0  0  0  0  0  0  0
    1.4076   -4.7706    0.0000 N   0  0  0  0  0  0  0  0  0  0  0  0
    2.1221   -3.5331    0.0000 N   0  0  0  0  0  0  0  0  0  0  0  0
    3.5510   -3.5331    0.0000 N   0  0  0  0  0  0  0  0  0  0  0  0
   -4.3082   -3.9456    0.0000 N   0  0  0  0  0  0  0  0  0  0  0  0
    1.4076   -3.9456    0.0000 C   0  0  0  0  0  0  0  0  0  0  0  0
    2.1221   -5.1831    0.0000 C   0  0  0  0  0  0  0  0  0  0  0  0
    2.8366   -3.9456    0.0000 C   0  0  0  0  0  0  0  0  0  0  0  0
    0.6931   -3.5331    0.0000 C   0  0  0  0  0  0  0  0  0  0  0  0
    2.1221   -6.0081    0.0000 C   0  0  0  0  0  0  0  0  0  0  0  0
    2.8366   -4.7706    0.0000 C   0  0  0  0  0  0  0  0  0  0  0  0
    2.8366   -6.4206    0.0000 C   0  0  0  0  0  0  0  0  0  0  0  0
   -0.0213   -3.9456    0.0000 C   0  0  0  0  0  0  0  0  0  0  0  0
    0.6931   -2.7081    0.0000 C   0  0  0  0  0  0  0  0  0  0  0  0
    2.8366   -7.2456    0.0000 C   0  0  0  0  0  0  0  0  0  0  0  0
    1.4076   -6.4206    0.0000 C   0  0  0  0  0  0  0  0  0  0  0  0
   -0.7358   -3.5331    0.0000 C   0  0  0  0  0  0  0  0  0  0  0  0
    2.1221   -7.6581    0.0000 C   0  0  0  0  0  0  0  0  0  0  0  0
   -0.0213   -2.2956    0.0000 C   0  0  0  0  0  0  0  0  0  0  0  0
    1.4076   -7.2456    0.0000 C   0  0  0  0  0  0  0  0  0  0  0  0
   -0.7358   -2.7081    0.0000 C   0  0  0  0  0  0  0  0  0  0  0  0
    3.5510   -2.7081    0.0000 C   0  0  0  0  0  0  0  0  0  0  0  0
    4.2655   -3.9456    0.0000 C   0  0  0  0  0  0  0  0  0  0  0  0
    2.8366   -2.2956    0.0000 C   0  0  0  0  0  0  0  0  0  0  0  0
    4.2655   -4.7706    0.0000 C   0  0  0  0  0  0  0  0  0  0  0  0
   -2.1647   -3.5331    0.0000 C   0  0  0  0  0  0  0  0  0  0  0  0
    4.2655   -7.2456    0.0000 C   0  0  0  0  0  0  0  0  0  0  0  0
   -2.8792   -3.9456    0.0000 C   0  0  3  0  0  0  0  0  0  0  0  0
    1.4076   -8.8956    0.0000 C   0  0  0  0  0  0  0  0  0  0  0  0
    4.9800   -5.1831    0.0000 C   0  0  0  0  0  0  0  0  0  0  0  0
   -3.5937   -3.5331    0.0000 C   0  0  0  0  0  0  0  0  0  0  0  0
    2.1221   -1.0581    0.0000 C   0  0  0  0  0  0  0  0  0  0  0  0
    4.9800   -6.0081    0.0000 C   0  0  0  0  0  0  0  0  0  0  0  0
   -5.0226   -3.5331    0.0000 C   0  0  0  0  0  0  0  0  0  0  0  0
  1 24  1  0  0  0  0
  2 22  1  0  0  0  0
  2 31  1  0  0  0  0
  3 20  1  0  0  0  0
  3 32  1  0  0  0  0
  4 23  1  0  0  0  0
  4 34  1  0  0  0  0
  5 29  1  0  0  0  0
  5 37  1  0  0  0  0
  6 33  1  0  0  0  0
  7 11  2  0  0  0  0
  7 12  1  0  0  0  0
  8 11  1  0  0  0  0
  8 13  2  0  0  0  0
  9 13  1  0  0  0  0
  9 27  1  0  0  0  0
  9 28  1  0  0  0  0
 10 36  1  0  0  0  0
 10 39  1  0  0  0  0
 11 14  1  0  0  0  0
 12 15  1  0  0  0  0
 12 16  2  0  0  0  0
 13 16  1  0  0  0  0
 14 18  2  0  0  0  0
 14 19  1  0  0  0  0
 15 17  1  0  0  0  0
 15 21  2  0  0  0  0
 17 20  2  0  0  0  0
 18 22  1  0  0  0  0
 19 24  2  0  0  0  0
 20 23  1  0  0  0  0
 21 25  1  0  0  0  0
 22 26  2  0  0  0  0
 23 25  2  0  0  0  0
 24 26  1  0  0  0  0
 27 29  1  0  0  0  0
 28 30  1  0  0  0  0
 30 35  1  0  0  0  0
 31 33  1  0  0  0  0
 33 36  1  0  0  0  0
 35 38  1  0  0  0  0
M  END
> <PUBCHEM_COMPOUND_ID_TYPE>
0

> <PUBCHEM_TOTAL_CHARGE>
0

> <PUBCHEM_SUBSTANCE_ID>
310939639

> <PUBCHEM_SUBSTANCE_VERSION>
1

> <PUBCHEM_EXT_DATASOURCE_NAME>
4488

> <PUBCHEM_EXT_DATASOURCE_REGID>
SCHEMBL16117569

> <PUBCHEM_SUBSTANCE_COMMENT>
InChI=1S/C29H39ClN4O5/c1-6-7-10-34(11-12-36-3)28-17-25(20-8-9-26(37-4)27(15-20)38-5)32-29(33-28)21-13-22(30)16-24(14-21)39-19-23(35)18-31-2/h8-9,13-17,23,31,35H,6-7,10-12,18-19H2,1-5H3
InChIKey=NSLINRHHWDYZPD-UHFFFAOYSA-N

> <PUBCHEM_SUBSTANCE_SYNONYM>
SCHEMBL16117569

> <PUBCHEM_XREF_EXT_ID>
SCHEMBL16117569

> <PUBCHEM_EXT_DATASOURCE_URL>
https://www.surechembl.org/

> <PUBCHEM_EXT_SUBSTANCE_URL>
https://www.surechembl.org/chemical/SCHEMBL16117569

> <PUBCHEM_CID_ASSOCIATIONS>
117606878  1

> <PUBCHEM_COORDINATE_TYPE>
1
3

$$$$
