310933594
  -OEChem-07211613022D

 43 48  0     1  0  0  0  0  0999 V2000
   -2.7379   -4.2467    0.0000 Cl  0  0  0  0  0  0  0  0  0  0  0  0
   -2.0668   -2.7394    0.0000 F   0  0  0  0  0  0  0  0  0  0  0  0
   -1.4289    0.8250    0.0000 O   0  0  0  0  0  0  0  0  0  0  0  0
    0.7145    1.2375    0.0000 O   0  0  0  0  0  0  0  0  0  0  0  0
    1.4289   -4.1250    0.0000 O   0  0  0  0  0  0  0  0  0  0  0  0
    0.0000    4.9500    0.0000 O   0  0  0  0  0  0  0  0  0  0  0  0
   -1.4289    4.9500    0.0000 O   0  0  0  0  0  0  0  0  0  0  0  0
   -0.7145   -0.4125    0.0000 N   0  0  0  0  0  0  0  0  0  0  0  0
   -3.0366   -1.4045    0.0000 N   0  0  0  0  0  0  0  0  0  0  0  0
    1.4289   -2.4750    0.0000 N   0  0  0  0  0  0  0  0  0  0  0  0
   -2.8971   -0.0769    0.0000 N   0  0  0  0  0  0  0  0  0  0  0  0
   -0.7145    1.2375    0.0000 N   0  0  0  0  0  0  0  0  0  0  0  0
   -3.4491   -0.6900    0.0000 N   0  0  0  0  0  0  0  0  0  0  0  0
    0.0000    0.0000    0.0000 C   0  0  3  0  0  0  0  0  0  0  0  0
    0.7145   -0.4125    0.0000 C   0  0  0  0  0  0  0  0  0  0  0  0
    0.7145   -1.2375    0.0000 C   0  0  0  0  0  0  0  0  0  0  0  0
   -1.4289    0.0000    0.0000 C   0  0  0  0  0  0  0  0  0  0  0  0
    1.4289   -1.6500    0.0000 C   0  0  0  0  0  0  0  0  0  0  0  0
    0.0000    0.8250    0.0000 C   0  0  0  0  0  0  0  0  0  0  0  0
   -2.1434   -0.4125    0.0000 C   0  0  0  0  0  0  0  0  0  0  0  0
   -0.7145   -1.2375    0.0000 C   0  0  0  0  0  0  0  0  0  0  0  0
    0.0000   -1.6500    0.0000 C   0  0  0  0  0  0  0  0  0  0  0  0
    1.4289    0.0000    0.0000 C   0  0  0  0  0  0  0  0  0  0  0  0
   -2.2296   -1.2330    0.0000 C   0  0  0  0  0  0  0  0  0  0  0  0
    2.1434   -1.2375    0.0000 C   0  0  0  0  0  0  0  0  0  0  0  0
   -3.3722   -2.1582    0.0000 C   0  0  0  0  0  0  0  0  0  0  0  0
    2.1434   -0.4125    0.0000 C   0  0  0  0  0  0  0  0  0  0  0  0
   -2.8873   -2.8256    0.0000 C   0  0  0  0  0  0  0  0  0  0  0  0
   -0.7145    2.0625    0.0000 C   0  0  0  0  0  0  0  0  0  0  0  0
    2.1434   -2.8875    0.0000 C   0  0  0  0  0  0  0  0  0  0  0  0
    0.7145   -2.8875    0.0000 C   0  0  0  0  0  0  0  0  0  0  0  0
   -4.1927   -2.2444    0.0000 C   0  0  0  0  0  0  0  0  0  0  0  0
   -3.2228   -3.5793    0.0000 C   0  0  0  0  0  0  0  0  0  0  0  0
   -4.5282   -2.9981    0.0000 C   0  0  0  0  0  0  0  0  0  0  0  0
   -4.0433   -3.6655    0.0000 C   0  0  0  0  0  0  0  0  0  0  0  0
    0.0000    2.4750    0.0000 C   0  0  0  0  0  0  0  0  0  0  0  0
   -1.4289    2.4750    0.0000 C   0  0  0  0  0  0  0  0  0  0  0  0
    2.1434   -3.7125    0.0000 C   0  0  0  0  0  0  0  0  0  0  0  0
    0.7145   -3.7125    0.0000 C   0  0  0  0  0  0  0  0  0  0  0  0
   -0.7145    3.7125    0.0000 C   0  0  0  0  0  0  0  0  0  0  0  0
    0.0000    3.3000    0.0000 C   0  0  0  0  0  0  0  0  0  0  0  0
   -1.4289    3.3000    0.0000 C   0  0  0  0  0  0  0  0  0  0  0  0
   -0.7145    4.5375    0.0000 C   0  0  0  0  0  0  0  0  0  0  0  0
  1 33  1  0  0  0  0
  2 28  1  0  0  0  0
  3 17  2  0  0  0  0
  4 19  2  0  0  0  0
  5 38  1  0  0  0  0
  5 39  1  0  0  0  0
  6 43  2  0  0  0  0
  7 43  1  0  0  0  0
  8 14  1  0  0  0  0
  8 17  1  0  0  0  0
  8 21  1  0  0  0  0
  9 13  1  0  0  0  0
  9 24  1  0  0  0  0
  9 26  1  0  0  0  0
 10 18  1  0  0  0  0
 10 30  1  0  0  0  0
 10 31  1  0  0  0  0
 11 13  2  0  0  0  0
 11 20  1  0  0  0  0
 12 19  1  0  0  0  0
 12 29  1  0  0  0  0
 14 15  1  0  0  0  0
 14 19  1  0  0  0  0
 15 16  2  0  0  0  0
 15 23  1  0  0  0  0
 16 18  1  0  0  0  0
 16 22  1  0  0  0  0
 17 20  1  0  0  0  0
 18 25  2  0  0  0  0
 20 24  2  0  0  0  0
 21 22  1  0  0  0  0
 23 27  2  0  0  0  0
 25 27  1  0  0  0  0
 26 28  2  0  0  0  0
 26 32  1  0  0  0  0
 28 33  1  0  0  0  0
 29 36  2  0  0  0  0
 29 37  1  0  0  0  0
 30 38  1  0  0  0  0
 31 39  1  0  0  0  0
 32 34  2  0  0  0  0
 33 35  2  0  0  0  0
 34 35  1  0  0  0  0
 36 41  1  0  0  0  0
 37 42  2  0  0  0  0
 40 41  2  0  0  0  0
 40 42  1  0  0  0  0
 40 43  1  0  0  0  0
M  END
> <PUBCHEM_COMPOUND_ID_TYPE>
0

> <PUBCHEM_TOTAL_CHARGE>
0

> <PUBCHEM_SUBSTANCE_ID>
310933594

> <PUBCHEM_SUBSTANCE_VERSION>
1

> <PUBCHEM_EXT_DATASOURCE_NAME>
4488

> <PUBCHEM_EXT_DATASOURCE_REGID>
SCHEMBL16111022

> <PUBCHEM_SUBSTANCE_COMMENT>
InChI=1S/C30H26ClFN6O5/c31-22-4-2-6-25(26(22)32)38-17-23(34-35-38)29(40)37-12-11-20-21(3-1-5-24(20)36-13-15-43-16-14-36)27(37)28(39)33-19-9-7-18(8-10-19)30(41)42/h1-10,17,27H,11-16H2,(H,33,39)(H,41,42)
InChIKey=UCSKYPRDSCVAMS-UHFFFAOYSA-N

> <PUBCHEM_SUBSTANCE_SYNONYM>
SCHEMBL16111022

> <PUBCHEM_XREF_EXT_ID>
SCHEMBL16111022

> <PUBCHEM_EXT_DATASOURCE_URL>
https://www.surechembl.org/

> <PUBCHEM_EXT_SUBSTANCE_URL>
https://www.surechembl.org/chemical/SCHEMBL16111022

> <PUBCHEM_CID_ASSOCIATIONS>
117601976  1

> <PUBCHEM_COORDINATE_TYPE>
1
3

$$$$
