310936743
  -OEChem-07211613022D

 25 26  0     1  0  0  0  0  0999 V2000
   -2.8579    0.0000    0.0000 Cl  0  0  0  0  0  0  0  0  0  0  0  0
   -2.8579    1.6500    0.0000 Cl  0  0  0  0  0  0  0  0  0  0  0  0
   -2.0202   -1.5151    0.0000 S   0  0  0  0  0  0  0  0  0  0  0  0
    0.7144   -1.2375    0.0000 O   0  0  0  0  0  0  0  0  0  0  0  0
    2.5721    1.4850    0.0000 O   0  0  0  0  0  0  0  0  0  0  0  0
    3.2866    0.2475    0.0000 O   0  0  0  0  0  0  0  0  0  0  0  0
    1.8576    0.2475    0.0000 N   0  0  0  0  0  0  0  0  0  0  0  0
    0.0000    0.0000    0.0000 C   0  0  3  0  0  0  0  0  0  0  0  0
   -0.7144    0.4125    0.0000 C   0  0  0  0  0  0  0  0  0  0  0  0
    0.0000   -0.8250    0.0000 C   0  0  3  0  0  0  0  0  0  0  0  0
    1.1432    0.6600    0.0000 C   0  0  0  0  0  0  0  0  0  0  0  0
    1.8576   -0.5775    0.0000 C   0  0  0  0  0  0  0  0  0  0  0  0
   -0.7144   -1.2375    0.0000 C   0  0  0  0  0  0  0  0  0  0  0  0
   -1.4290    0.0000    0.0000 C   0  0  0  0  0  0  0  0  0  0  0  0
   -0.7144    1.2375    0.0000 C   0  0  0  0  0  0  0  0  0  0  0  0
   -2.1434    0.4125    0.0000 C   0  0  0  0  0  0  0  0  0  0  0  0
    2.5721    0.6600    0.0000 C   0  0  0  0  0  0  0  0  0  0  0  0
   -2.1434    1.2375    0.0000 C   0  0  0  0  0  0  0  0  0  0  0  0
   -1.4290    1.6500    0.0000 C   0  0  0  0  0  0  0  0  0  0  0  0
   -1.4681   -0.9020    0.0000 C   0  0  0  0  0  0  0  0  0  0  0  0
   -0.8007   -2.0580    0.0000 C   0  0  0  0  0  0  0  0  0  0  0  0
    2.5721   -0.9900    0.0000 C   0  0  0  0  0  0  0  0  0  0  0  0
    1.8576   -1.4025    0.0000 C   0  0  0  0  0  0  0  0  0  0  0  0
    1.1432   -0.9900    0.0000 C   0  0  0  0  0  0  0  0  0  0  0  0
   -1.6077   -2.2295    0.0000 C   0  0  0  0  0  0  0  0  0  0  0  0
  1 16  1  0  0  0  0
  2 18  1  0  0  0  0
  3 20  1  0  0  0  0
  3 25  1  0  0  0  0
  4 10  1  0  0  0  0
  5 17  2  0  0  0  0
  6 17  1  0  0  0  0
  7 11  1  0  0  0  0
  7 12  1  0  0  0  0
  7 17  1  0  0  0  0
  8  9  1  0  0  0  0
  8 10  1  0  0  0  0
  8 11  1  0  0  0  0
  9 14  1  0  0  0  0
  9 15  2  0  0  0  0
 10 13  1  0  0  0  0
 12 22  1  0  0  0  0
 12 23  1  0  0  0  0
 12 24  1  0  0  0  0
 13 20  2  0  0  0  0
 13 21  1  0  0  0  0
 14 16  2  0  0  0  0
 15 19  1  0  0  0  0
 16 18  1  0  0  0  0
 18 19  2  0  0  0  0
 21 25  2  0  0  0  0
M  END
> <PUBCHEM_COMPOUND_ID_TYPE>
0

> <PUBCHEM_TOTAL_CHARGE>
0

> <PUBCHEM_SUBSTANCE_ID>
310936743

> <PUBCHEM_SUBSTANCE_VERSION>
1

> <PUBCHEM_EXT_DATASOURCE_NAME>
4488

> <PUBCHEM_EXT_DATASOURCE_REGID>
SCHEMBL16114426

> <PUBCHEM_SUBSTANCE_COMMENT>
InChI=1S/C18H21Cl2NO3S/c1-18(2,3)21(17(23)24)9-13(16(22)12-6-7-25-10-12)11-4-5-14(19)15(20)8-11/h4-8,10,13,16,22H,9H2,1-3H3,(H,23,24)
InChIKey=XLUOVIAOXBQITR-UHFFFAOYSA-N

> <PUBCHEM_SUBSTANCE_SYNONYM>
SCHEMBL16114426

> <PUBCHEM_XREF_EXT_ID>
SCHEMBL16114426

> <PUBCHEM_EXT_DATASOURCE_URL>
https://www.surechembl.org/

> <PUBCHEM_EXT_SUBSTANCE_URL>
https://www.surechembl.org/chemical/SCHEMBL16114426

> <PUBCHEM_CID_ASSOCIATIONS>
117604641  1

> <PUBCHEM_COORDINATE_TYPE>
1
3

$$$$
