310941610
  -OEChem-07211613022D

 29 32  0     1  0  0  0  0  0999 V2000
    1.1081    1.9372    0.0000 S   0  0  0  0  0  0  0  0  0  0  0  0
   -1.2097   -0.7190    0.0000 O   0  0  0  0  0  0  0  0  0  0  0  0
    0.2284   -0.7021    0.0000 O   0  0  0  0  0  0  0  0  0  0  0  0
    3.9843    0.9559    0.0000 O   0  0  0  0  0  0  0  0  0  0  0  0
    0.9728    0.6006    0.0000 N   0  0  0  0  0  0  0  0  0  0  0  0
    2.3432    1.1251    0.0000 N   0  0  0  0  0  0  0  0  0  0  0  0
   -4.0689   -0.7190    0.0000 N   0  0  3  0  0  0  0  0  0  0  0  0
   -0.4991    0.5498    0.0000 C   0  0  0  0  0  0  0  0  0  0  0  0
    0.1946    0.9390    0.0000 C   0  0  0  0  0  0  0  0  0  0  0  0
   -1.9202    0.5498    0.0000 C   0  0  0  0  0  0  0  0  0  0  0  0
   -1.9372   -0.2792    0.0000 C   0  0  0  0  0  0  0  0  0  0  0  0
   -0.5330   -0.2792    0.0000 C   0  0  0  0  0  0  0  0  0  0  0  0
   -1.2266    0.9390    0.0000 C   0  0  0  0  0  0  0  0  0  0  0  0
    1.5142    1.2435    0.0000 C   0  0  0  0  0  0  0  0  0  0  0  0
   -2.6139   -0.6852    0.0000 C   0  0  0  0  0  0  0  0  0  0  0  0
    0.3130    1.7680    0.0000 C   0  0  0  0  0  0  0  0  0  0  0  0
   -3.3752   -0.2961    0.0000 C   0  0  0  0  0  0  0  0  0  0  0  0
   -2.6139    0.9221    0.0000 C   0  0  0  0  0  0  0  0  0  0  0  0
   -3.3414    0.5330    0.0000 C   0  0  0  0  0  0  0  0  0  0  0  0
    2.6646    0.3976    0.0000 C   0  0  0  0  0  0  0  0  0  0  0  0
    3.4937    0.2961    0.0000 C   0  0  0  0  0  0  0  0  0  0  0  0
    2.2078   -0.2961    0.0000 C   0  0  0  0  0  0  0  0  0  0  0  0
    3.8320   -0.4653    0.0000 C   0  0  0  0  0  0  0  0  0  0  0  0
   -4.0858   -1.5311    0.0000 C   0  0  0  0  0  0  0  0  0  0  0  0
    2.5462   -1.0235    0.0000 C   0  0  0  0  0  0  0  0  0  0  0  0
    3.3583   -1.1081    0.0000 C   0  0  0  0  0  0  0  0  0  0  0  0
   -4.7963   -0.3130    0.0000 C   0  0  0  0  0  0  0  0  0  0  0  0
   -4.7626   -1.9372    0.0000 C   0  0  0  0  0  0  0  0  0  0  0  0
    4.7963    0.8544    0.0000 C   0  0  0  0  0  0  0  0  0  0  0  0
  1 14  1  0  0  0  0
  1 16  1  0  0  0  0
  2 11  1  0  0  0  0
  2 12  1  0  0  0  0
  3 12  2  0  0  0  0
  4 21  1  0  0  0  0
  4 29  1  0  0  0  0
  5  9  1  0  0  0  0
  5 14  2  0  0  0  0
  6 14  1  0  0  0  0
  6 20  1  0  0  0  0
  7 17  1  0  0  0  0
  7 24  1  0  0  0  0
  7 27  1  0  0  0  0
  8  9  1  0  0  0  0
  8 12  1  0  0  0  0
  8 13  2  0  0  0  0
  9 16  2  0  0  0  0
 10 11  1  0  0  0  0
 10 13  1  0  0  0  0
 10 18  2  0  0  0  0
 11 15  2  0  0  0  0
 15 17  1  0  0  0  0
 17 19  2  0  0  0  0
 18 19  1  0  0  0  0
 20 21  1  0  0  0  0
 20 22  2  0  0  0  0
 21 23  2  0  0  0  0
 22 25  1  0  0  0  0
 23 26  1  0  0  0  0
 24 28  1  0  0  0  0
 25 26  2  0  0  0  0
M  END
> <PUBCHEM_COMPOUND_ID_TYPE>
0

> <PUBCHEM_TOTAL_CHARGE>
0

> <PUBCHEM_SUBSTANCE_ID>
310941610

> <PUBCHEM_SUBSTANCE_VERSION>
1

> <PUBCHEM_EXT_DATASOURCE_NAME>
4488

> <PUBCHEM_EXT_DATASOURCE_REGID>
SCHEMBL16119641

> <PUBCHEM_SUBSTANCE_COMMENT>
InChI=1S/C22H21N3O3S/c1-4-25(2)15-10-9-14-11-16(21(26)28-20(14)12-15)18-13-29-22(24-18)23-17-7-5-6-8-19(17)27-3/h5-13H,4H2,1-3H3,(H,23,24)
InChIKey=HLYPATBWHYDBKC-UHFFFAOYSA-N

> <PUBCHEM_SUBSTANCE_SYNONYM>
SCHEMBL16119641

> <PUBCHEM_XREF_EXT_ID>
SCHEMBL16119641

> <PUBCHEM_EXT_DATASOURCE_URL>
https://www.surechembl.org/

> <PUBCHEM_EXT_SUBSTANCE_URL>
https://www.surechembl.org/chemical/SCHEMBL16119641

> <PUBCHEM_CID_ASSOCIATIONS>
86274502  1

> <PUBCHEM_COORDINATE_TYPE>
1
3

$$$$
