310941399
  -OEChem-07211613022D

 45 49  0     1  0  0  0  0  0999 V2000
    3.7118    2.4304    0.0000 S   0  0  0  0  0  0  0  0  0  0  0  0
    5.2731   -1.4287    0.0000 O   0  0  0  0  0  0  0  0  0  0  0  0
    4.1537    0.5303    0.0000 O   0  0  0  0  0  0  0  0  0  0  0  0
    4.1243    3.1521    0.0000 O   0  0  0  0  0  0  0  0  0  0  0  0
    3.2994    3.1521    0.0000 O   0  0  0  0  0  0  0  0  0  0  0  0
    1.5613   -1.2962    0.0000 O   0  0  0  0  0  0  0  0  0  0  0  0
   -0.5891    0.7807    0.0000 O   0  0  0  0  0  0  0  0  0  0  0  0
   -2.7397   -1.2962    0.0000 O   0  0  0  0  0  0  0  0  0  0  0  0
   -5.5972   -1.2962    0.0000 O   0  0  0  0  0  0  0  0  0  0  0  0
    2.2683   -0.0589    0.0000 N   0  0  0  0  0  0  0  0  0  0  0  0
    4.4188    2.0180    0.0000 N   0  0  0  0  0  0  0  0  0  0  0  0
    0.1179   -0.4714    0.0000 N   0  0  0  0  0  0  0  0  0  0  0  0
   -2.0327   -0.0589    0.0000 N   0  0  0  0  0  0  0  0  0  0  0  0
   -4.1832   -0.4714    0.0000 N   0  0  0  0  0  0  0  0  0  0  0  0
    4.8608   -0.6923    0.0000 C   0  0  3  0  0  0  0  0  0  0  0  0
    4.1243   -0.2946    0.0000 C   0  0  0  0  0  0  0  0  0  0  0  0
    4.4631   -1.3993    0.0000 C   0  0  0  0  0  0  0  0  0  0  0  0
    3.4320   -0.6776    0.0000 C   0  0  3  0  0  0  0  0  0  0  0  0
    2.9901    2.0474    0.0000 C   0  0  0  0  0  0  0  0  0  0  0  0
    2.9754    1.2225    0.0000 C   0  0  0  0  0  0  0  0  0  0  0  0
    5.5972   -0.2946    0.0000 C   0  0  0  0  0  0  0  0  0  0  0  0
    1.5613    1.2225    0.0000 C   0  0  0  0  0  0  0  0  0  0  0  0
    2.2831    0.8102    0.0000 C   0  0  0  0  0  0  0  0  0  0  0  0
    1.5613   -0.4124    0.0000 C   0  0  0  0  0  0  0  0  0  0  0  0
    0.8396   -0.0294    0.0000 C   0  0  3  0  0  0  0  0  0  0  0  0
    2.2683    2.4451    0.0000 C   0  0  0  0  0  0  0  0  0  0  0  0
    3.4173   -1.7675    0.0000 C   0  0  0  0  0  0  0  0  0  0  0  0
    3.7265    0.8102    0.0000 C   0  0  0  0  0  0  0  0  0  0  0  0
    0.8543    0.8102    0.0000 C   0  0  0  0  0  0  0  0  0  0  0  0
    1.5761    2.0474    0.0000 C   0  0  0  0  0  0  0  0  0  0  0  0
    4.4335    1.2225    0.0000 C   0  0  0  0  0  0  0  0  0  0  0  0
    2.7102   -2.1800    0.0000 C   0  0  0  0  0  0  0  0  0  0  0  0
   -0.6039   -0.0442    0.0000 C   0  0  0  0  0  0  0  0  0  0  0  0
    1.9443   -1.8560    0.0000 C   0  0  0  0  0  0  0  0  0  0  0  0
    2.6071   -2.9901    0.0000 C   0  0  0  0  0  0  0  0  0  0  0  0
   -1.2962   -0.4419    0.0000 C   0  0  3  0  0  0  0  0  0  0  0  0
    1.4140   -2.4745    0.0000 C   0  0  0  0  0  0  0  0  0  0  0  0
    1.7970   -3.1521    0.0000 C   0  0  0  0  0  0  0  0  0  0  0  0
   -2.7397   -0.4124    0.0000 C   0  0  0  0  0  0  0  0  0  0  0  0
   -1.3109   -1.2814    0.0000 C   0  0  0  0  0  0  0  0  0  0  0  0
   -3.4762   -0.0294    0.0000 C   0  0  0  0  0  0  0  0  0  0  0  0
   -4.1685   -1.2667    0.0000 C   0  0  0  0  0  0  0  0  0  0  0  0
   -4.9049   -0.0294    0.0000 C   0  0  0  0  0  0  0  0  0  0  0  0
   -4.8902   -1.6792    0.0000 C   0  0  0  0  0  0  0  0  0  0  0  0
   -5.5972   -0.4271    0.0000 C   0  0  0  0  0  0  0  0  0  0  0  0
  1  4  2  0  0  0  0
  1  5  2  0  0  0  0
  1 11  1  0  0  0  0
  1 19  1  0  0  0  0
  2 15  1  0  0  0  0
  2 17  1  0  0  0  0
  3 16  2  0  0  0  0
  6 24  2  0  0  0  0
  7 33  2  0  0  0  0
  8 39  2  0  0  0  0
  9 44  1  0  0  0  0
  9 45  1  0  0  0  0
 10 18  1  0  0  0  0
 10 24  1  0  0  0  0
 11 31  1  0  0  0  0
 12 25  1  0  0  0  0
 12 33  1  0  0  0  0
 13 36  1  0  0  0  0
 13 39  1  0  0  0  0
 14 41  1  0  0  0  0
 14 42  1  0  0  0  0
 14 43  1  0  0  0  0
 15 16  1  0  0  0  0
 15 17  1  0  0  0  0
 15 21  1  0  0  0  0
 16 18  1  0  0  0  0
 18 27  1  0  0  0  0
 19 20  1  0  0  0  0
 19 26  2  0  0  0  0
 20 23  2  0  0  0  0
 20 28  1  0  0  0  0
 22 23  1  0  0  0  0
 22 29  1  0  0  0  0
 22 30  2  0  0  0  0
 24 25  1  0  0  0  0
 25 29  1  0  0  0  0
 26 30  1  0  0  0  0
 27 32  1  0  0  0  0
 28 31  1  0  0  0  0
 32 34  1  0  0  0  0
 32 35  1  0  0  0  0
 33 36  1  0  0  0  0
 34 37  1  0  0  0  0
 35 38  1  0  0  0  0
 36 40  1  0  0  0  0
 37 38  1  0  0  0  0
 39 41  1  0  0  0  0
 42 44  1  0  0  0  0
 43 45  1  0  0  0  0
M  END
> <PUBCHEM_COMPOUND_ID_TYPE>
0

> <PUBCHEM_TOTAL_CHARGE>
0

> <PUBCHEM_SUBSTANCE_ID>
310941399

> <PUBCHEM_SUBSTANCE_VERSION>
1

> <PUBCHEM_EXT_DATASOURCE_NAME>
4488

> <PUBCHEM_EXT_DATASOURCE_REGID>
SCHEMBL16119359

> <PUBCHEM_SUBSTANCE_COMMENT>
InChI=1S/C31H45N5O8S/c1-20(33-27(37)18-36-11-13-43-14-12-36)29(39)35-25(17-22-7-8-26-23(15-22)9-10-32-45(26,41)42)30(40)34-24(16-21-5-3-4-6-21)28(38)31(2)19-44-31/h7-8,15,20-21,24-25,32H,3-6,9-14,16-19H2,1-2H3,(H,33,37)(H,34,40)(H,35,39)
InChIKey=AVCUNXPNQKRPHH-UHFFFAOYSA-N

> <PUBCHEM_SUBSTANCE_SYNONYM>
SCHEMBL16119359

> <PUBCHEM_XREF_EXT_ID>
SCHEMBL16119359

> <PUBCHEM_EXT_DATASOURCE_URL>
https://www.surechembl.org/

> <PUBCHEM_EXT_SUBSTANCE_URL>
https://www.surechembl.org/chemical/SCHEMBL16119359

> <PUBCHEM_CID_ASSOCIATIONS>
86295704  1

> <PUBCHEM_COORDINATE_TYPE>
1
3

$$$$
