310946533
  -OEChem-07211613022D

 21 20  0     1  0  0  0  0  0999 V2000
   -3.0597    4.9281    0.0000 O   0  0  0  0  0  0  0  0  0  0  0  0
   -7.9961    2.4064    0.0000 O   0  0  0  0  0  0  0  0  0  0  0  0
   -8.3660    3.7866    0.0000 O   0  0  0  0  0  0  0  0  0  0  0  0
   -5.5347    3.4992    0.0000 O   0  0  0  0  0  0  0  0  0  0  0  0
   -1.8222    4.2137    0.0000 O   0  5  0  0  0  0  0  0  0  0  0  0
   -1.8222    5.6426    0.0000 O   0  0  0  0  0  0  0  0  0  0  0  0
   -6.7722    4.2137    0.0000 N   0  0  0  0  0  0  0  0  0  0  0  0
   -2.2347    4.9281    0.0000 N   0  3  0  0  0  0  0  0  0  0  0  0
   -6.9857    3.4168    0.0000 C   0  0  3  0  0  0  0  0  0  0  0  0
   -6.4024    2.8334    0.0000 C   0  0  3  0  0  0  0  0  0  0  0  0
   -7.7826    3.2032    0.0000 C   0  0  0  0  0  0  0  0  0  0  0  0
   -5.9472    4.2137    0.0000 C   0  0  0  0  0  0  0  0  0  0  0  0
   -3.4722    5.6426    0.0000 C   0  0  3  0  0  0  0  0  0  0  0  0
   -5.5347    4.9281    0.0000 C   0  0  0  0  0  0  0  0  0  0  0  0
   -4.2972    5.6426    0.0000 C   0  0  0  0  0  0  0  0  0  0  0  0
   -5.6055    3.0469    0.0000 C   0  0  0  0  0  0  0  0  0  0  0  0
   -4.7097    4.9281    0.0000 C   0  0  0  0  0  0  0  0  0  0  0  0
   -6.6159    2.0365    0.0000 C   0  0  0  0  0  0  0  0  0  0  0  0
   -3.0597    6.3571    0.0000 C   0  0  0  0  0  0  0  0  0  0  0  0
   -5.0221    2.4636    0.0000 C   0  0  0  0  0  0  0  0  0  0  0  0
   -2.2347    6.3571    0.0000 C   0  0  0  0  0  0  0  0  0  0  0  0
  1  8  1  0  0  0  0
  1 13  1  0  0  0  0
  2 11  2  0  0  0  0
  3 11  1  0  0  0  0
  4 12  2  0  0  0  0
  5  8  1  0  0  0  0
  6  8  2  0  0  0  0
  7  9  1  0  0  0  0
  7 12  1  0  0  0  0
  9 10  1  0  0  0  0
  9 11  1  0  0  0  0
 10 16  1  0  0  0  0
 10 18  1  0  0  0  0
 12 14  1  0  0  0  0
 13 15  1  0  0  0  0
 13 19  1  0  0  0  0
 14 17  1  0  0  0  0
 15 17  1  0  0  0  0
 16 20  1  0  0  0  0
 19 21  1  0  0  0  0
M  CHG  2   5  -1   8   1
M  END
> <PUBCHEM_COMPOUND_ID_TYPE>
0

> <PUBCHEM_TOTAL_CHARGE>
0

> <PUBCHEM_SUBSTANCE_ID>
310946533

> <PUBCHEM_SUBSTANCE_VERSION>
1

> <PUBCHEM_EXT_DATASOURCE_NAME>
4488

> <PUBCHEM_EXT_DATASOURCE_REGID>
SCHEMBL16124654

> <PUBCHEM_SUBSTANCE_COMMENT>
InChI=1S/C13H24N2O6/c1-4-9(3)12(13(17)18)14-11(16)8-6-7-10(5-2)21-15(19)20/h9-10,12H,4-8H2,1-3H3,(H,14,16)(H,17,18)
InChIKey=OENUWIHLMZMIRW-UHFFFAOYSA-N

> <PUBCHEM_SUBSTANCE_SYNONYM>
SCHEMBL16124654

> <PUBCHEM_XREF_EXT_ID>
SCHEMBL16124654

> <PUBCHEM_EXT_DATASOURCE_URL>
https://www.surechembl.org/

> <PUBCHEM_EXT_SUBSTANCE_URL>
https://www.surechembl.org/chemical/SCHEMBL16124654

> <PUBCHEM_CID_ASSOCIATIONS>
117612438  1

> <PUBCHEM_COORDINATE_TYPE>
1
3

$$$$
