310938576
  -OEChem-07211613022D

 13 13  0     1  0  0  0  0  0999 V2000
   -2.6149   -3.9525    0.0000 F   0  0  0  0  0  0  0  0  0  0  0  0
   -1.9004   -4.3650    0.0000 F   0  0  0  0  0  0  0  0  0  0  0  0
   -4.0438   -4.7775    0.0000 N   0  0  3  0  0  0  0  0  0  0  0  0
   -3.3293   -5.1900    0.0000 C   0  0  3  0  0  0  0  0  0  0  0  0
   -2.6149   -4.7775    0.0000 C   0  0  0  0  0  0  0  0  0  0  0  0
   -3.3293   -6.0150    0.0000 C   0  0  0  0  0  0  0  0  0  0  0  0
   -4.0438   -3.9525    0.0000 C   0  0  0  0  0  0  0  0  0  0  0  0
   -4.7583   -5.1900    0.0000 C   0  0  0  0  0  0  0  0  0  0  0  0
   -4.0438   -6.4275    0.0000 C   0  0  0  0  0  0  0  0  0  0  0  0
   -4.7583   -6.0150    0.0000 C   0  0  0  0  0  0  0  0  0  0  0  0
   -1.9004   -5.1900    0.0000 C   0  0  0  0  0  0  0  0  0  0  0  0
   -4.8688   -3.9525    0.0000 C   0  0  0  0  0  0  0  0  0  0  0  0
   -3.2188   -3.9525    0.0000 C   0  0  0  0  0  0  0  0  0  0  0  0
  1  5  1  0  0  0  0
  2  5  1  0  0  0  0
  3  4  1  0  0  0  0
  3  7  1  0  0  0  0
  3  8  1  0  0  0  0
  4  5  1  0  0  0  0
  4  6  1  0  0  0  0
  5 11  1  0  0  0  0
  6  9  1  0  0  0  0
  7 12  1  0  0  0  0
  7 13  1  0  0  0  0
  8 10  1  0  0  0  0
  9 10  1  0  0  0  0
M  END
> <PUBCHEM_COMPOUND_ID_TYPE>
0

> <PUBCHEM_TOTAL_CHARGE>
0

> <PUBCHEM_SUBSTANCE_ID>
310938576

> <PUBCHEM_SUBSTANCE_VERSION>
1

> <PUBCHEM_EXT_DATASOURCE_NAME>
4488

> <PUBCHEM_EXT_DATASOURCE_REGID>
SCHEMBL16116490

> <PUBCHEM_SUBSTANCE_COMMENT>
InChI=1S/C10H19F2N/c1-8(2)13-7-5-4-6-9(13)10(3,11)12/h8-9H,4-7H2,1-3H3
InChIKey=AKVOLKJJRGFPNH-UHFFFAOYSA-N

> <PUBCHEM_SUBSTANCE_SYNONYM>
SCHEMBL16116490

> <PUBCHEM_XREF_EXT_ID>
SCHEMBL16116490

> <PUBCHEM_EXT_DATASOURCE_URL>
https://www.surechembl.org/

> <PUBCHEM_EXT_SUBSTANCE_URL>
https://www.surechembl.org/chemical/SCHEMBL16116490

> <PUBCHEM_CID_ASSOCIATIONS>
117606013  1

> <PUBCHEM_COORDINATE_TYPE>
1
3

> <PUBCHEM_BONDANNOTATIONS>
7  12  3
7  13  3

$$$$
