310946920
  -OEChem-07211613022D

 11 10  0     1  0  0  0  0  0999 V2000
    1.5494   -0.5232    0.0000 O   0  0  0  0  0  0  0  0  0  0  0  0
    2.9982   -0.5031    0.0000 O   0  0  0  0  0  0  0  0  0  0  0  0
   -0.4025   -0.3219    0.0000 C   0  0  3  0  0  0  0  0  0  0  0  0
   -1.1067   -0.3018    0.0000 C   0  0  3  0  0  0  0  0  0  0  0  0
    0.4225    0.1610    0.0000 C   0  0  0  0  0  0  0  0  0  0  0  0
    2.2939   -0.1006    0.0000 C   0  0  0  0  0  0  0  0  0  0  0  0
   -1.8915    0.1610    0.0000 C   0  0  0  0  0  0  0  0  0  0  0  0
   -0.5232   -0.7244    0.0000 C   0  0  0  0  0  0  0  0  0  0  0  0
   -0.7244   -0.5031    0.0000 C   0  0  0  0  0  0  0  0  0  0  0  0
    2.2939    0.7244    0.0000 C   0  0  0  0  0  0  0  0  0  0  0  0
   -2.9982   -0.5835    0.0000 C   0  0  0  0  0  0  0  0  0  0  0  0
  1  5  1  0  0  0  0
  1  6  1  0  0  0  0
  2  6  2  0  0  0  0
  3  4  1  0  0  0  0
  3  5  1  0  0  0  0
  3  8  1  0  0  0  0
  4  7  1  0  0  0  0
  4  9  1  0  0  0  0
  6 10  1  0  0  0  0
  7 11  2  0  0  0  0
M  END
> <PUBCHEM_COMPOUND_ID_TYPE>
0

> <PUBCHEM_TOTAL_CHARGE>
0

> <PUBCHEM_SUBSTANCE_ID>
310946920

> <PUBCHEM_SUBSTANCE_VERSION>
1

> <PUBCHEM_EXT_DATASOURCE_NAME>
4488

> <PUBCHEM_EXT_DATASOURCE_REGID>
SCHEMBL16125044

> <PUBCHEM_SUBSTANCE_COMMENT>
InChI=1S/C9H16O2/c1-5-7(2)8(3)6-11-9(4)10/h5,7-8H,1,6H2,2-4H3
InChIKey=XKBORJWPZCJZGY-UHFFFAOYSA-N

> <PUBCHEM_SUBSTANCE_SYNONYM>
SCHEMBL16125044

> <PUBCHEM_XREF_EXT_ID>
SCHEMBL16125044

> <PUBCHEM_EXT_DATASOURCE_URL>
https://www.surechembl.org/

> <PUBCHEM_EXT_SUBSTANCE_URL>
https://www.surechembl.org/chemical/SCHEMBL16125044

> <PUBCHEM_CID_ASSOCIATIONS>
117612777  1

> <PUBCHEM_COORDINATE_TYPE>
1
3

> <PUBCHEM_BONDANNOTATIONS>
4  3  3

$$$$
