310929312
  -OEChem-07211613022D

 25 26  0     1  0  0  0  0  0999 V2000
    9.3971   -3.7588    0.0000 Cl  0  0  0  0  0  0  0  0  0  0  0  0
   10.8428   -1.2650    0.0000 Cl  0  0  0  0  0  0  0  0  0  0  0  0
    9.3971   -0.4337    0.0000 O   0  0  0  0  0  0  0  0  0  0  0  0
    0.0000   -1.6626    0.0000 O   0  0  0  0  0  0  0  0  0  0  0  0
    7.9875   -1.2650    0.0000 N   0  0  0  0  0  0  0  0  0  0  0  0
    6.5057   -1.2650    0.0000 N   0  0  3  0  0  0  0  0  0  0  0  0
    8.7104   -1.6626    0.0000 C   0  0  0  0  0  0  0  0  0  0  0  0
    8.7104   -2.5300    0.0000 C   0  0  0  0  0  0  0  0  0  0  0  0
    9.3971   -1.2650    0.0000 C   0  0  0  0  0  0  0  0  0  0  0  0
    9.3971   -2.9276    0.0000 C   0  0  0  0  0  0  0  0  0  0  0  0
   10.1200   -1.6626    0.0000 C   0  0  0  0  0  0  0  0  0  0  0  0
    7.2285   -1.6626    0.0000 C   0  0  0  0  0  0  0  0  0  0  0  0
    7.9875   -2.9276    0.0000 C   0  0  0  0  0  0  0  0  0  0  0  0
   10.1200   -2.5300    0.0000 C   0  0  0  0  0  0  0  0  0  0  0  0
    7.2285   -2.5300    0.0000 C   0  0  0  0  0  0  0  0  0  0  0  0
    5.7828   -1.6626    0.0000 C   0  0  0  0  0  0  0  0  0  0  0  0
    6.5057   -0.4337    0.0000 C   0  0  0  0  0  0  0  0  0  0  0  0
    8.6742    0.0000    0.0000 C   0  0  0  0  0  0  0  0  0  0  0  0
    5.0600   -1.2650    0.0000 C   0  0  0  0  0  0  0  0  0  0  0  0
    4.3371   -1.6626    0.0000 C   0  0  0  0  0  0  0  0  0  0  0  0
    3.6142   -1.2650    0.0000 C   0  0  0  0  0  0  0  0  0  0  0  0
    2.8914   -1.6626    0.0000 C   0  0  0  0  0  0  0  0  0  0  0  0
    2.1686   -1.2650    0.0000 C   0  0  0  0  0  0  0  0  0  0  0  0
    1.4457   -1.6626    0.0000 C   0  0  0  0  0  0  0  0  0  0  0  0
    0.7229   -1.2650    0.0000 C   0  0  0  0  0  0  0  0  0  0  0  0
  1 10  1  0  0  0  0
  2 11  1  0  0  0  0
  3  9  1  0  0  0  0
  3 18  1  0  0  0  0
  4 25  1  0  0  0  0
  5  7  2  0  0  0  0
  5 12  1  0  0  0  0
  6 12  1  0  0  0  0
  6 16  1  0  0  0  0
  6 17  1  0  0  0  0
  7  8  1  0  0  0  0
  7  9  1  0  0  0  0
  8 10  1  0  0  0  0
  8 13  2  0  0  0  0
  9 11  2  0  0  0  0
 10 14  2  0  0  0  0
 11 14  1  0  0  0  0
 12 15  2  0  0  0  0
 13 15  1  0  0  0  0
 16 19  1  0  0  0  0
 19 20  1  0  0  0  0
 20 21  1  0  0  0  0
 21 22  1  0  0  0  0
 22 23  1  0  0  0  0
 23 24  1  0  0  0  0
 24 25  1  0  0  0  0
M  END
> <PUBCHEM_COMPOUND_ID_TYPE>
0

> <PUBCHEM_TOTAL_CHARGE>
0

> <PUBCHEM_SUBSTANCE_ID>
310929312

> <PUBCHEM_SUBSTANCE_VERSION>
1

> <PUBCHEM_EXT_DATASOURCE_NAME>
4488

> <PUBCHEM_EXT_DATASOURCE_REGID>
SCHEMBL16106478

> <PUBCHEM_SUBSTANCE_COMMENT>
InChI=1S/C19H26Cl2N2O2/c1-23(11-7-5-3-4-6-8-12-24)17-10-9-14-15(20)13-16(21)19(25-2)18(14)22-17/h9-10,13,24H,3-8,11-12H2,1-2H3
InChIKey=YQFRYTQNYJHOLE-UHFFFAOYSA-N

> <PUBCHEM_SUBSTANCE_SYNONYM>
SCHEMBL16106478

> <PUBCHEM_XREF_EXT_ID>
SCHEMBL16106478

> <PUBCHEM_EXT_DATASOURCE_URL>
https://www.surechembl.org/

> <PUBCHEM_EXT_SUBSTANCE_URL>
https://www.surechembl.org/chemical/SCHEMBL16106478

> <PUBCHEM_CID_ASSOCIATIONS>
85472827  1

> <PUBCHEM_COORDINATE_TYPE>
1
3

$$$$
