310937668
  -OEChem-07211613022D

 37 40  0     1  0  0  0  0  0999 V2000
    0.0000    0.0000    0.0000 F   0  0  0  0  0  0  0  0  0  0  0  0
    0.0000   -1.4582    0.0000 F   0  0  0  0  0  0  0  0  0  0  0  0
    0.8149    0.0000    0.0000 F   0  0  0  0  0  0  0  0  0  0  0  0
    3.3024   -4.8464    0.0000 O   0  0  0  0  0  0  0  0  0  0  0  0
    6.1759   -4.8464    0.0000 O   0  0  0  0  0  0  0  0  0  0  0  0
    5.5326   -2.1015    0.0000 N   0  0  3  0  0  0  0  0  0  0  0  0
    4.7177   -4.8464    0.0000 N   0  0  0  0  0  0  0  0  0  0  0  0
    6.9050   -6.0901    0.0000 N   0  0  0  0  0  0  0  0  0  0  0  0
    4.7177   -3.1737    0.0000 C   0  0  0  0  0  0  0  0  0  0  0  0
    4.7177   -2.3589    0.0000 C   0  0  0  0  0  0  0  0  0  0  0  0
    3.9886   -3.6026    0.0000 C   0  0  0  0  0  0  0  0  0  0  0  0
    3.3024   -2.3589    0.0000 C   0  0  0  0  0  0  0  0  0  0  0  0
    3.9886   -1.9299    0.0000 C   0  0  0  0  0  0  0  0  0  0  0  0
    3.3024   -3.1737    0.0000 C   0  0  0  0  0  0  0  0  0  0  0  0
    5.5326   -3.4310    0.0000 C   0  0  0  0  0  0  0  0  0  0  0  0
    3.9886   -4.4174    0.0000 C   0  0  0  0  0  0  0  0  0  0  0  0
    2.5733   -1.9299    0.0000 C   0  0  0  0  0  0  0  0  0  0  0  0
    6.0043   -2.7449    0.0000 C   0  0  0  0  0  0  0  0  0  0  0  0
    5.7899   -1.2866    0.0000 C   0  0  0  0  0  0  0  0  0  0  0  0
    1.8442   -2.3589    0.0000 C   0  0  0  0  0  0  0  0  0  0  0  0
    2.5733   -1.1151    0.0000 C   0  0  0  0  0  0  0  0  0  0  0  0
    1.1151   -1.1151    0.0000 C   0  0  0  0  0  0  0  0  0  0  0  0
    5.4468   -6.0901    0.0000 C   0  0  0  0  0  0  0  0  0  0  0  0
    1.1151   -1.9728    0.0000 C   0  0  0  0  0  0  0  0  0  0  0  0
    1.8442   -0.7291    0.0000 C   0  0  0  0  0  0  0  0  0  0  0  0
    4.7177   -5.6612    0.0000 C   0  0  0  0  0  0  0  0  0  0  0  0
    0.3860   -0.7291    0.0000 C   0  0  0  0  0  0  0  0  0  0  0  0
    5.4468   -6.9479    0.0000 C   0  0  0  0  0  0  0  0  0  0  0  0
    6.1759   -5.7041    0.0000 C   0  0  0  0  0  0  0  0  0  0  0  0
    5.2324   -0.6862    0.0000 C   0  0  0  0  0  0  0  0  0  0  0  0
    6.5619   -1.1151    0.0000 C   0  0  0  0  0  0  0  0  0  0  0  0
    6.1759   -7.3339    0.0000 C   0  0  0  0  0  0  0  0  0  0  0  0
    6.9050   -6.9479    0.0000 C   0  0  0  0  0  0  0  0  0  0  0  0
    4.7606   -7.3339    0.0000 C   0  0  0  0  0  0  0  0  0  0  0  0
    7.6341   -7.3768    0.0000 C   0  0  0  0  0  0  0  0  0  0  0  0
    4.7606   -8.1916    0.0000 C   0  0  0  0  0  0  0  0  0  0  0  0
    5.4897   -8.5776    0.0000 C   0  0  0  0  0  0  0  0  0  0  0  0
  1 27  1  0  0  0  0
  2 27  1  0  0  0  0
  3 27  1  0  0  0  0
  4 16  2  0  0  0  0
  5 29  2  0  0  0  0
  6 10  1  0  0  0  0
  6 18  1  0  0  0  0
  6 19  1  0  0  0  0
  7 16  1  0  0  0  0
  7 26  1  0  0  0  0
  8 29  1  0  0  0  0
  8 33  1  0  0  0  0
  9 10  2  0  0  0  0
  9 11  1  0  0  0  0
  9 15  1  0  0  0  0
 10 13  1  0  0  0  0
 11 14  2  0  0  0  0
 11 16  1  0  0  0  0
 12 13  2  0  0  0  0
 12 14  1  0  0  0  0
 12 17  1  0  0  0  0
 15 18  1  0  0  0  0
 17 20  2  0  0  0  0
 17 21  1  0  0  0  0
 19 30  1  0  0  0  0
 19 31  1  0  0  0  0
 20 24  1  0  0  0  0
 21 25  2  0  0  0  0
 22 24  2  0  0  0  0
 22 25  1  0  0  0  0
 22 27  1  0  0  0  0
 23 26  1  0  0  0  0
 23 28  2  0  0  0  0
 23 29  1  0  0  0  0
 28 32  1  0  0  0  0
 28 34  1  0  0  0  0
 32 33  2  0  0  0  0
 33 35  1  0  0  0  0
 34 36  1  0  0  0  0
 36 37  1  0  0  0  0
M  END
> <PUBCHEM_COMPOUND_ID_TYPE>
0

> <PUBCHEM_TOTAL_CHARGE>
0

> <PUBCHEM_SUBSTANCE_ID>
310937668

> <PUBCHEM_SUBSTANCE_VERSION>
1

> <PUBCHEM_EXT_DATASOURCE_NAME>
4488

> <PUBCHEM_EXT_DATASOURCE_REGID>
SCHEMBL16115460

> <PUBCHEM_SUBSTANCE_COMMENT>
InChI=1S/C29H32F3N3O2/c1-5-6-20-13-18(4)34-28(37)25(20)16-33-27(36)24-14-21(15-26-23(24)11-12-35(26)17(2)3)19-7-9-22(10-8-19)29(30,31)32/h7-10,13-15,17H,5-6,11-12,16H2,1-4H3,(H,33,36)(H,34,37)
InChIKey=ZLAJPRVBYUGRNF-UHFFFAOYSA-N

> <PUBCHEM_SUBSTANCE_SYNONYM>
SCHEMBL16115460

> <PUBCHEM_XREF_EXT_ID>
SCHEMBL16115460

> <PUBCHEM_EXT_DATASOURCE_URL>
https://www.surechembl.org/

> <PUBCHEM_EXT_SUBSTANCE_URL>
https://www.surechembl.org/chemical/SCHEMBL16115460

> <PUBCHEM_CID_ASSOCIATIONS>
86274588  1

> <PUBCHEM_COORDINATE_TYPE>
1
3

$$$$
