310942043
  -OEChem-07211613022D

 24 25  0     1  0  0  0  0  0999 V2000
   -5.2099   -1.8632    0.0000 Cl  0  0  0  0  0  0  0  0  0  0  0  0
    2.8475    1.7507    0.0000 O   0  0  0  0  0  0  0  0  0  0  0  0
    2.8475    0.1055    0.0000 O   0  0  0  0  0  0  0  0  0  0  0  0
   -2.1444   -1.8632    0.0000 N   0  0  0  0  0  0  0  0  0  0  0  0
   -2.1304    0.5976    0.0000 N   0  0  0  0  0  0  0  0  0  0  0  0
    1.4132    1.0054    0.0000 N   0  0  0  0  0  0  0  0  0  0  0  0
    5.2099    0.9351    0.0000 N   0  0  0  0  0  0  0  0  0  0  0  0
   -2.8475   -0.6257    0.0000 C   0  0  0  0  0  0  0  0  0  0  0  0
   -2.8475   -1.4413    0.0000 C   0  0  0  0  0  0  0  0  0  0  0  0
   -2.1444   -0.2180    0.0000 C   0  0  0  0  0  0  0  0  0  0  0  0
   -3.5506   -0.2180    0.0000 C   0  0  0  0  0  0  0  0  0  0  0  0
   -3.5506   -1.8492    0.0000 C   0  0  0  0  0  0  0  0  0  0  0  0
   -1.4272   -0.6257    0.0000 C   0  0  0  0  0  0  0  0  0  0  0  0
   -4.2677   -1.4413    0.0000 C   0  0  0  0  0  0  0  0  0  0  0  0
   -4.2536   -0.6257    0.0000 C   0  0  0  0  0  0  0  0  0  0  0  0
   -1.4272   -1.4554    0.0000 C   0  0  0  0  0  0  0  0  0  0  0  0
   -1.4414    1.0194    0.0000 C   0  0  3  0  0  0  0  0  0  0  0  0
   -0.6960    0.6117    0.0000 C   0  0  0  0  0  0  0  0  0  0  0  0
   -1.4272    1.8632    0.0000 C   0  0  0  0  0  0  0  0  0  0  0  0
   -0.0352    1.0054    0.0000 C   0  0  0  0  0  0  0  0  0  0  0  0
    0.7242    0.6117    0.0000 C   0  0  0  0  0  0  0  0  0  0  0  0
    2.3694    0.9491    0.0000 C   0  0  0  0  0  0  0  0  0  0  0  0
    3.8177    1.7367    0.0000 C   0  0  0  0  0  0  0  0  0  0  0  0
    4.2818    0.9351    0.0000 C   0  0  0  0  0  0  0  0  0  0  0  0
  1 14  1  0  0  0  0
  2 22  1  0  0  0  0
  2 23  1  0  0  0  0
  3 22  2  0  0  0  0
  4  9  1  0  0  0  0
  4 16  2  0  0  0  0
  5 10  1  0  0  0  0
  5 17  1  0  0  0  0
  6 21  1  0  0  0  0
  6 22  1  0  0  0  0
  7 24  1  0  0  0  0
  8  9  1  0  0  0  0
  8 10  1  0  0  0  0
  8 11  2  0  0  0  0
  9 12  2  0  0  0  0
 10 13  2  0  0  0  0
 11 15  1  0  0  0  0
 12 14  1  0  0  0  0
 13 16  1  0  0  0  0
 14 15  2  0  0  0  0
 17 18  1  0  0  0  0
 17 19  1  0  0  0  0
 18 20  1  0  0  0  0
 20 21  1  0  0  0  0
 23 24  1  0  0  0  0
M  END
> <PUBCHEM_COMPOUND_ID_TYPE>
0

> <PUBCHEM_TOTAL_CHARGE>
0

> <PUBCHEM_SUBSTANCE_ID>
310942043

> <PUBCHEM_SUBSTANCE_VERSION>
1

> <PUBCHEM_EXT_DATASOURCE_NAME>
4488

> <PUBCHEM_EXT_DATASOURCE_REGID>
SCHEMBL16120077

> <PUBCHEM_SUBSTANCE_COMMENT>
InChI=1S/C17H23ClN4O2/c1-12(3-2-8-21-17(23)24-10-7-19)22-15-6-9-20-16-11-13(18)4-5-14(15)16/h4-6,9,11-12H,2-3,7-8,10,19H2,1H3,(H,20,22)(H,21,23)
InChIKey=FOKSXYCUGJYLRJ-UHFFFAOYSA-N

> <PUBCHEM_SUBSTANCE_SYNONYM>
SCHEMBL16120077

> <PUBCHEM_XREF_EXT_ID>
SCHEMBL16120077

> <PUBCHEM_EXT_DATASOURCE_URL>
https://www.surechembl.org/

> <PUBCHEM_EXT_SUBSTANCE_URL>
https://www.surechembl.org/chemical/SCHEMBL16120077

> <PUBCHEM_CID_ASSOCIATIONS>
117608728  1

> <PUBCHEM_COORDINATE_TYPE>
1
3

$$$$
