310945959
  -OEChem-07211613022D

 26 27  0     1  0  0  0  0  0999 V2000
   -3.3283   -0.2237    0.0000 F   0  0  0  0  0  0  0  0  0  0  0  0
   -3.5029    0.5838    0.0000 F   0  0  0  0  0  0  0  0  0  0  0  0
   -2.8918    1.1294    0.0000 F   0  0  0  0  0  0  0  0  0  0  0  0
   -1.3641   -2.4062    0.0000 N   0  0  0  0  0  0  0  0  0  0  0  0
   -0.9494   -3.1155    0.0000 N   0  0  0  0  0  0  0  0  0  0  0  0
    1.3641   -2.1333    0.0000 N   0  0  3  0  0  0  0  0  0  0  0  0
    3.5029   -1.7187    0.0000 N   0  0  0  0  0  0  0  0  0  0  0  0
   -0.9821   -0.9658    0.0000 C   0  0  0  0  0  0  0  0  0  0  0  0
   -0.8184   -1.7732    0.0000 C   0  0  0  0  0  0  0  0  0  0  0  0
   -1.9315    0.0927    0.0000 C   0  0  0  0  0  0  0  0  0  0  0  0
   -0.0546   -2.1006    0.0000 C   0  0  0  0  0  0  0  0  0  0  0  0
   -1.7569   -0.7147    0.0000 C   0  0  0  0  0  0  0  0  0  0  0  0
   -2.7282    0.3546    0.0000 C   0  0  0  0  0  0  0  0  0  0  0  0
   -0.5456    0.3874    0.0000 C   0  0  0  0  0  0  0  0  0  0  0  0
   -0.3710   -0.4201    0.0000 C   0  0  0  0  0  0  0  0  0  0  0  0
   -1.3204    0.6384    0.0000 C   0  0  0  0  0  0  0  0  0  0  0  0
   -0.1528   -2.9300    0.0000 C   0  0  0  0  0  0  0  0  0  0  0  0
    0.6438   -1.6969    0.0000 C   0  0  0  0  0  0  0  0  0  0  0  0
    0.0655    0.9549    0.0000 C   0  0  0  0  0  0  0  0  0  0  0  0
   -0.0873    1.7623    0.0000 C   0  0  0  0  0  0  0  0  0  0  0  0
    2.0625   -1.6969    0.0000 C   0  0  0  0  0  0  0  0  0  0  0  0
    1.3641   -2.9409    0.0000 C   0  0  0  0  0  0  0  0  0  0  0  0
    0.5019    2.2971    0.0000 C   0  0  0  0  0  0  0  0  0  0  0  0
    2.8045   -2.1006    0.0000 C   0  0  0  0  0  0  0  0  0  0  0  0
    0.3274    3.1155    0.0000 C   0  0  0  0  0  0  0  0  0  0  0  0
    1.2986    2.0351    0.0000 C   0  0  0  0  0  0  0  0  0  0  0  0
  1 13  1  0  0  0  0
  2 13  1  0  0  0  0
  3 13  1  0  0  0  0
  4  5  1  0  0  0  0
  4  9  2  0  0  0  0
  5 17  1  0  0  0  0
  6 18  1  0  0  0  0
  6 21  1  0  0  0  0
  6 22  1  0  0  0  0
  7 24  1  0  0  0  0
  8  9  1  0  0  0  0
  8 12  1  0  0  0  0
  8 15  2  0  0  0  0
  9 11  1  0  0  0  0
 10 12  2  0  0  0  0
 10 13  1  0  0  0  0
 10 16  1  0  0  0  0
 11 17  2  0  0  0  0
 11 18  1  0  0  0  0
 14 15  1  0  0  0  0
 14 16  2  0  0  0  0
 14 19  1  0  0  0  0
 19 20  1  0  0  0  0
 20 23  1  0  0  0  0
 21 24  1  0  0  0  0
 23 25  1  0  0  0  0
 23 26  1  0  0  0  0
M  END
> <PUBCHEM_COMPOUND_ID_TYPE>
0

> <PUBCHEM_TOTAL_CHARGE>
0

> <PUBCHEM_SUBSTANCE_ID>
310945959

> <PUBCHEM_SUBSTANCE_VERSION>
1

> <PUBCHEM_EXT_DATASOURCE_NAME>
4488

> <PUBCHEM_EXT_DATASOURCE_REGID>
SCHEMBL16124064

> <PUBCHEM_SUBSTANCE_COMMENT>
InChI=1S/C19H27F3N4/c1-13(2)4-5-14-8-15(10-17(9-14)19(20,21)22)18-16(11-24-25-18)12-26(3)7-6-23/h8-11,13H,4-7,12,23H2,1-3H3,(H,24,25)
InChIKey=YKPYIVCTLWMGAC-UHFFFAOYSA-N

> <PUBCHEM_SUBSTANCE_SYNONYM>
SCHEMBL16124064

> <PUBCHEM_XREF_EXT_ID>
SCHEMBL16124064

> <PUBCHEM_EXT_DATASOURCE_URL>
https://www.surechembl.org/

> <PUBCHEM_EXT_SUBSTANCE_URL>
https://www.surechembl.org/chemical/SCHEMBL16124064

> <PUBCHEM_CID_ASSOCIATIONS>
86300776  1

> <PUBCHEM_COORDINATE_TYPE>
1
3

$$$$
