310947023
  -OEChem-07211613022D

 36 40  0     1  0  0  0  0  0999 V2000
   -2.4209    0.7528    0.0000 F   0  0  0  0  0  0  0  0  0  0  0  0
   -3.8499   -0.0722    0.0000 O   0  0  0  0  0  0  0  0  0  0  0  0
   -2.4209   -2.5472    0.0000 O   0  0  0  0  0  0  0  0  0  0  0  0
    3.2459    1.5778    0.0000 O   0  0  0  0  0  0  0  0  0  0  0  0
    2.3485    2.9597    0.0000 O   0  0  0  0  0  0  0  0  0  0  0  0
    0.4369   -0.0722    0.0000 N   0  0  0  0  0  0  0  0  0  0  0  0
    1.8659   -0.0722    0.0000 N   0  0  0  0  0  0  0  0  0  0  0  0
   -0.9920   -0.0722    0.0000 N   0  0  0  0  0  0  0  0  0  0  0  0
    1.8659   -1.7222    0.0000 N   0  0  0  0  0  0  0  0  0  0  0  0
    1.9360    0.9104    0.0000 N   0  0  0  0  0  0  0  0  0  0  0  0
    4.0794    1.0077    0.0000 N   0  0  0  0  0  0  0  0  0  0  0  0
    4.5644    0.3403    0.0000 N   0  0  0  0  0  0  0  0  0  0  0  0
    1.1514   -0.4847    0.0000 C   0  0  0  0  0  0  0  0  0  0  0  0
   -0.2775   -0.4847    0.0000 C   0  0  0  0  0  0  0  0  0  0  0  0
    1.1514   -1.3097    0.0000 C   0  0  0  0  0  0  0  0  0  0  0  0
    2.5803   -0.4847    0.0000 C   0  0  0  0  0  0  0  0  0  0  0  0
    0.4369    0.7528    0.0000 C   0  0  0  0  0  0  0  0  0  0  0  0
   -1.7065   -0.4847    0.0000 C   0  0  0  0  0  0  0  0  0  0  0  0
   -0.2775   -1.3097    0.0000 C   0  0  0  0  0  0  0  0  0  0  0  0
    0.4369   -1.7222    0.0000 C   0  0  0  0  0  0  0  0  0  0  0  0
    1.1514    1.1653    0.0000 C   0  0  3  0  0  0  0  0  0  0  0  0
    3.2948   -0.0722    0.0000 C   0  0  0  0  0  0  0  0  0  0  0  0
    2.5803   -1.3097    0.0000 C   0  0  0  0  0  0  0  0  0  0  0  0
   -2.4209   -0.0722    0.0000 C   0  0  0  0  0  0  0  0  0  0  0  0
   -3.1354   -0.4847    0.0000 C   0  0  0  0  0  0  0  0  0  0  0  0
   -1.7065   -1.3097    0.0000 C   0  0  0  0  0  0  0  0  0  0  0  0
   -2.4209   -1.7222    0.0000 C   0  0  0  0  0  0  0  0  0  0  0  0
    1.1514    1.9903    0.0000 C   0  0  0  0  0  0  0  0  0  0  0  0
    2.4209    1.5778    0.0000 C   0  0  0  0  0  0  0  0  0  0  0  0
    1.9360    2.2452    0.0000 C   0  0  3  0  0  0  0  0  0  0  0  0
    3.2948    0.7528    0.0000 C   0  0  0  0  0  0  0  0  0  0  0  0
   -3.1354   -1.3097    0.0000 C   0  0  0  0  0  0  0  0  0  0  0  0
    4.0794   -0.3271    0.0000 C   0  0  0  0  0  0  0  0  0  0  0  0
    4.4919    1.7222    0.0000 C   0  0  0  0  0  0  0  0  0  0  0  0
   -4.5644   -0.4847    0.0000 C   0  0  0  0  0  0  0  0  0  0  0  0
   -1.7065   -2.9597    0.0000 C   0  0  0  0  0  0  0  0  0  0  0  0
  1 24  1  0  0  0  0
  2 25  1  0  0  0  0
  2 35  1  0  0  0  0
  3 27  1  0  0  0  0
  3 36  1  0  0  0  0
  4 29  2  0  0  0  0
  5 30  1  0  0  0  0
  6 13  1  0  0  0  0
  6 14  1  0  0  0  0
  6 17  1  0  0  0  0
  7 13  1  0  0  0  0
  7 16  2  0  0  0  0
  8 14  2  0  0  0  0
  8 18  1  0  0  0  0
  9 15  1  0  0  0  0
  9 23  2  0  0  0  0
 10 21  1  0  0  0  0
 10 29  1  0  0  0  0
 11 12  1  0  0  0  0
 11 31  1  0  0  0  0
 11 34  1  0  0  0  0
 12 33  2  0  0  0  0
 13 15  2  0  0  0  0
 14 19  1  0  0  0  0
 15 20  1  0  0  0  0
 16 22  1  0  0  0  0
 16 23  1  0  0  0  0
 17 21  1  0  0  0  0
 18 24  1  0  0  0  0
 18 26  2  0  0  0  0
 19 20  2  0  0  0  0
 21 28  1  0  0  0  0
 22 31  2  0  0  0  0
 22 33  1  0  0  0  0
 24 25  2  0  0  0  0
 25 32  1  0  0  0  0
 26 27  1  0  0  0  0
 27 32  2  0  0  0  0
 28 30  1  0  0  0  0
 29 30  1  0  0  0  0
M  END
> <PUBCHEM_COMPOUND_ID_TYPE>
0

> <PUBCHEM_TOTAL_CHARGE>
0

> <PUBCHEM_SUBSTANCE_ID>
310947023

> <PUBCHEM_SUBSTANCE_VERSION>
1

> <PUBCHEM_EXT_DATASOURCE_NAME>
4488

> <PUBCHEM_EXT_DATASOURCE_REGID>
SCHEMBL16125175

> <PUBCHEM_SUBSTANCE_COMMENT>
InChI=1S/C24H24FN7O4/c1-31-11-13(9-27-31)18-10-26-16-4-5-21(29-17-7-15(35-2)8-20(36-3)22(17)25)32(23(16)30-18)12-14-6-19(33)24(34)28-14/h4-5,7-11,14,19,33H,6,12H2,1-3H3,(H,28,34)/b29-21+
InChIKey=OXTVRALJDFDMLJ-XHLNEMQHSA-N

> <PUBCHEM_SUBSTANCE_SYNONYM>
SCHEMBL16125175

> <PUBCHEM_XREF_EXT_ID>
SCHEMBL16125175

> <PUBCHEM_EXT_DATASOURCE_URL>
https://www.surechembl.org/

> <PUBCHEM_EXT_SUBSTANCE_URL>
https://www.surechembl.org/chemical/SCHEMBL16125175

> <PUBCHEM_CID_ASSOCIATIONS>
117612875  1

> <PUBCHEM_COORDINATE_TYPE>
1
3

$$$$
