310944198
  -OEChem-07211613022D

 33 38  0     1  0  0  0  0  0999 V2000
    2.4274    0.2051    0.0000 O   0  0  0  0  0  0  0  0  0  0  0  0
    5.3757    0.4378    0.0000 O   0  0  0  0  0  0  0  0  0  0  0  0
    4.9656    1.8566    0.0000 O   0  0  0  0  0  0  0  0  0  0  0  0
    3.5579   -0.6928    0.0000 N   0  0  0  0  0  0  0  0  0  0  0  0
    0.2439   -0.8257    0.0000 N   0  0  0  0  0  0  0  0  0  0  0  0
   -4.0567    0.8368    0.0000 N   0  0  0  0  0  0  0  0  0  0  0  0
   -1.9064    0.4156    0.0000 N   0  0  0  0  0  0  0  0  0  0  0  0
   -2.6269    0.8368    0.0000 N   0  0  0  0  0  0  0  0  0  0  0  0
   -4.1453    1.6570    0.0000 N   0  0  0  0  0  0  0  0  0  0  0  0
   -4.9545    1.8344    0.0000 N   0  0  0  0  0  0  0  0  0  0  0  0
   -5.3757    1.1139    0.0000 N   0  0  0  0  0  0  0  0  0  0  0  0
    2.3165   -1.2469    0.0000 C   0  0  0  0  0  0  0  0  0  0  0  0
    2.7821   -0.5486    0.0000 C   0  0  0  0  0  0  0  0  0  0  0  0
    1.6072   -1.6459    0.0000 C   0  0  0  0  0  0  0  0  0  0  0  0
    1.5296   -1.0142    0.0000 C   0  0  0  0  0  0  0  0  0  0  0  0
    1.0419   -1.0364    0.0000 C   0  0  3  0  0  0  0  0  0  0  0  0
    0.9643   -0.4156    0.0000 C   0  0  3  0  0  0  0  0  0  0  0  0
    2.9040   -1.8566    0.0000 C   0  0  0  0  0  0  0  0  0  0  0  0
    4.1564   -0.1164    0.0000 C   0  0  0  0  0  0  0  0  0  0  0  0
    3.6466   -1.5130    0.0000 C   0  0  0  0  0  0  0  0  0  0  0  0
    1.4631   -0.3159    0.0000 C   0  0  0  0  0  0  0  0  0  0  0  0
    1.3965    0.2605    0.0000 C   0  0  0  0  0  0  0  0  0  0  0  0
    4.0678    0.7038    0.0000 C   0  0  0  0  0  0  0  0  0  0  0  0
   -0.4766   -0.4046    0.0000 C   0  0  0  0  0  0  0  0  0  0  0  0
    4.9766   -0.2716    0.0000 C   0  0  0  0  0  0  0  0  0  0  0  0
    4.7993    1.0364    0.0000 C   0  0  0  0  0  0  0  0  0  0  0  0
   -1.1749   -0.8036    0.0000 C   0  0  0  0  0  0  0  0  0  0  0  0
    3.3251    1.1139    0.0000 C   0  0  0  0  0  0  0  0  0  0  0  0
   -1.9064   -0.3935    0.0000 C   0  0  0  0  0  0  0  0  0  0  0  0
   -3.3362    0.4267    0.0000 C   0  0  0  0  0  0  0  0  0  0  0  0
   -2.6158   -0.8147    0.0000 C   0  0  0  0  0  0  0  0  0  0  0  0
   -3.3473   -0.3935    0.0000 C   0  0  0  0  0  0  0  0  0  0  0  0
   -4.8104    0.5043    0.0000 C   0  0  0  0  0  0  0  0  0  0  0  0
  1 13  2  0  0  0  0
  2 25  1  0  0  0  0
  2 26  1  0  0  0  0
  3 26  2  0  0  0  0
  4 13  1  0  0  0  0
  4 19  1  0  0  0  0
  4 20  1  0  0  0  0
  5 16  1  0  0  0  0
  5 17  1  0  0  0  0
  5 24  1  0  0  0  0
  6  9  1  0  0  0  0
  6 30  1  0  0  0  0
  6 33  1  0  0  0  0
  7  8  1  0  0  0  0
  7 29  2  0  0  0  0
  8 30  2  0  0  0  0
  9 10  2  0  0  0  0
 10 11  1  0  0  0  0
 11 33  2  0  0  0  0
 12 13  1  0  0  0  0
 12 14  1  0  0  0  0
 12 15  1  0  0  0  0
 12 18  1  0  0  0  0
 14 16  1  0  0  0  0
 15 17  1  0  0  0  0
 16 21  1  0  0  0  0
 17 22  1  0  0  0  0
 18 20  1  0  0  0  0
 19 23  2  0  0  0  0
 19 25  1  0  0  0  0
 21 22  1  0  0  0  0
 23 26  1  0  0  0  0
 23 28  1  0  0  0  0
 24 27  1  0  0  0  0
 27 29  1  0  0  0  0
 29 31  1  0  0  0  0
 30 32  1  0  0  0  0
 31 32  2  0  0  0  0
M  END
> <PUBCHEM_COMPOUND_ID_TYPE>
0

> <PUBCHEM_TOTAL_CHARGE>
0

> <PUBCHEM_SUBSTANCE_ID>
310944198

> <PUBCHEM_SUBSTANCE_VERSION>
1

> <PUBCHEM_EXT_DATASOURCE_NAME>
4488

> <PUBCHEM_EXT_DATASOURCE_REGID>
SCHEMBL16122273

> <PUBCHEM_SUBSTANCE_COMMENT>
InChI=1S/C22H26N8O3/c1-14-18(12-33-20(14)31)29-9-7-22(21(29)32)10-16-3-4-17(11-22)28(16)8-6-15-2-5-19(25-24-15)30-13-23-26-27-30/h2,5,13,16-17H,3-4,6-12H2,1H3
InChIKey=MLHOLJQFBRTYMK-UHFFFAOYSA-N

> <PUBCHEM_SUBSTANCE_SYNONYM>
SCHEMBL16122273

> <PUBCHEM_XREF_EXT_ID>
SCHEMBL16122273

> <PUBCHEM_EXT_DATASOURCE_URL>
https://www.surechembl.org/

> <PUBCHEM_EXT_SUBSTANCE_URL>
https://www.surechembl.org/chemical/SCHEMBL16122273

> <PUBCHEM_CID_ASSOCIATIONS>
117610469  1

> <PUBCHEM_COORDINATE_TYPE>
1
3

$$$$
