310948654
  -OEChem-07211613022D

 15 16  0     1  0  0  0  0  0999 V2000
   -2.8840    0.5167    0.0000 Br  0  0  0  0  0  0  0  0  0  0  0  0
    1.4561    0.8173    0.0000 F   0  0  0  0  0  0  0  0  0  0  0  0
    2.5834    1.1179    0.0000 F   0  0  0  0  0  0  0  0  0  0  0  0
    2.8840   -0.0282    0.0000 F   0  0  0  0  0  0  0  0  0  0  0  0
    0.9113   -0.3100    0.0000 N   0  0  3  0  0  0  0  0  0  0  0  0
   -0.3851    0.1033    0.0000 C   0  0  0  0  0  0  0  0  0  0  0  0
   -0.4039   -0.7046    0.0000 C   0  0  0  0  0  0  0  0  0  0  0  0
    0.3851    0.3664    0.0000 C   0  0  0  0  0  0  0  0  0  0  0  0
    0.4227   -0.9676    0.0000 C   0  0  0  0  0  0  0  0  0  0  0  0
    1.7567   -0.3100    0.0000 C   0  0  0  0  0  0  0  0  0  0  0  0
    2.1701    0.4039    0.0000 C   0  0  0  0  0  0  0  0  0  0  0  0
   -1.1367    0.5167    0.0000 C   0  0  0  0  0  0  0  0  0  0  0  0
   -1.0991   -1.1179    0.0000 C   0  0  0  0  0  0  0  0  0  0  0  0
   -1.8319    0.1033    0.0000 C   0  0  0  0  0  0  0  0  0  0  0  0
   -1.8507   -0.7233    0.0000 C   0  0  0  0  0  0  0  0  0  0  0  0
  1 14  1  0  0  0  0
  2 11  1  0  0  0  0
  3 11  1  0  0  0  0
  4 11  1  0  0  0  0
  5  8  1  0  0  0  0
  5  9  1  0  0  0  0
  5 10  1  0  0  0  0
  6  7  2  0  0  0  0
  6  8  1  0  0  0  0
  6 12  1  0  0  0  0
  7  9  1  0  0  0  0
  7 13  1  0  0  0  0
 10 11  1  0  0  0  0
 12 14  2  0  0  0  0
 13 15  2  0  0  0  0
 14 15  1  0  0  0  0
M  END
> <PUBCHEM_COMPOUND_ID_TYPE>
0

> <PUBCHEM_TOTAL_CHARGE>
0

> <PUBCHEM_SUBSTANCE_ID>
310948654

> <PUBCHEM_SUBSTANCE_VERSION>
1

> <PUBCHEM_EXT_DATASOURCE_NAME>
4488

> <PUBCHEM_EXT_DATASOURCE_REGID>
SCHEMBL16126838

> <PUBCHEM_SUBSTANCE_COMMENT>
InChI=1S/C10H9BrF3N/c11-9-2-1-7-4-15(5-8(7)3-9)6-10(12,13)14/h1-3H,4-6H2
InChIKey=HZQWVIWHZBWHJJ-UHFFFAOYSA-N

> <PUBCHEM_SUBSTANCE_SYNONYM>
SCHEMBL16126838

> <PUBCHEM_XREF_EXT_ID>
SCHEMBL16126838

> <PUBCHEM_EXT_DATASOURCE_URL>
https://www.surechembl.org/

> <PUBCHEM_EXT_SUBSTANCE_URL>
https://www.surechembl.org/chemical/SCHEMBL16126838

> <PUBCHEM_CID_ASSOCIATIONS>
117614198  1

> <PUBCHEM_COORDINATE_TYPE>
1
3

$$$$
