310946959
  -OEChem-07211613022D

 20 22  0     1  0  0  0  0  0999 V2000
    1.1521  -12.9245    0.0000 O   0  0  0  0  0  0  0  0  0  0  0  0
    1.1521  -14.5745    0.0000 N   0  0  3  0  0  0  0  0  0  0  0  0
    2.5810  -14.5745    0.0000 N   0  0  0  0  0  0  0  0  0  0  0  0
    4.0099  -14.5745    0.0000 N   0  0  0  0  0  0  0  0  0  0  0  0
    4.0099  -16.2245    0.0000 N   0  0  0  0  0  0  0  0  0  0  0  0
    1.8665  -14.9870    0.0000 C   0  0  3  0  0  0  0  0  0  0  0  0
    3.2955  -14.9870    0.0000 C   0  0  0  0  0  0  0  0  0  0  0  0
    3.2955  -15.8120    0.0000 C   0  0  0  0  0  0  0  0  0  0  0  0
    0.3552  -14.7880    0.0000 C   0  0  0  0  0  0  0  0  0  0  0  0
    1.8665  -15.8120    0.0000 C   0  0  0  0  0  0  0  0  0  0  0  0
    2.5810  -16.2245    0.0000 C   0  0  0  0  0  0  0  0  0  0  0  0
    4.7244  -14.9870    0.0000 C   0  0  0  0  0  0  0  0  0  0  0  0
    4.7244  -15.8120    0.0000 C   0  0  0  0  0  0  0  0  0  0  0  0
    1.1521  -13.7495    0.0000 C   0  0  0  0  0  0  0  0  0  0  0  0
   -0.2282  -14.2046    0.0000 C   0  0  0  0  0  0  0  0  0  0  0  0
    0.1416  -15.5849    0.0000 C   0  0  0  0  0  0  0  0  0  0  0  0
   -1.0251  -14.4182    0.0000 C   0  0  0  0  0  0  0  0  0  0  0  0
   -0.6553  -15.7984    0.0000 C   0  0  0  0  0  0  0  0  0  0  0  0
   -1.2382  -15.2146    0.0000 C   0  0  0  0  0  0  0  0  0  0  0  0
    5.4389  -14.5745    0.0000 H   1  0  0  0  0  0  0  0  0  0  0  0
  1 14  1  0  0  0  0
  2  6  1  0  0  0  0
  2  9  1  0  0  0  0
  2 14  1  0  0  0  0
  3  6  1  0  0  0  0
  3  7  1  0  0  0  0
  4  7  1  0  0  0  0
  4 12  2  0  0  0  0
  5  8  1  0  0  0  0
  5 13  2  0  0  0  0
  6 10  1  0  0  0  0
  7  8  2  0  0  0  0
  8 11  1  0  0  0  0
  9 15  2  0  0  0  0
  9 16  1  0  0  0  0
 10 11  2  0  0  0  0
 12 13  1  0  0  0  0
 12 20  1  0  0  0  0
 15 17  1  0  0  0  0
 16 18  2  0  0  0  0
 17 19  2  0  0  0  0
 18 19  1  0  0  0  0
M  ISO  1  20   2
M  END
> <PUBCHEM_COMPOUND_ID_TYPE>
0

> <PUBCHEM_TOTAL_CHARGE>
0

> <PUBCHEM_SUBSTANCE_ID>
310946959

> <PUBCHEM_SUBSTANCE_VERSION>
1

> <PUBCHEM_EXT_DATASOURCE_NAME>
4488

> <PUBCHEM_EXT_DATASOURCE_REGID>
SCHEMBL16125088

> <PUBCHEM_SUBSTANCE_COMMENT>
InChI=1S/C14H14N4O/c19-10-18(11-4-2-1-3-5-11)13-7-6-12-14(17-13)16-9-8-15-12/h1-9,13,19H,10H2,(H,16,17)/i9D
InChIKey=YOSAUDHPCTWLCY-QOWOAITPSA-N

> <PUBCHEM_SUBSTANCE_SYNONYM>
SCHEMBL16125088

> <PUBCHEM_XREF_EXT_ID>
SCHEMBL16125088

> <PUBCHEM_EXT_DATASOURCE_URL>
https://www.surechembl.org/

> <PUBCHEM_EXT_SUBSTANCE_URL>
https://www.surechembl.org/chemical/SCHEMBL16125088

> <PUBCHEM_CID_ASSOCIATIONS>
117612813  1

> <PUBCHEM_COORDINATE_TYPE>
1
3

$$$$
