310949969
  -OEChem-07211613022D

 22 23  0     1  0  0  0  0  0999 V2000
   -2.1750    0.4044    0.0000 N   0  0  0  0  0  0  0  0  0  0  0  0
    0.0000   -0.8226    0.0000 N   0  0  0  0  0  0  0  0  0  0  0  0
   -3.6251    1.2409    0.0000 N   0  0  0  0  0  0  0  0  0  0  0  0
   -1.4500    0.0000    0.0000 C   0  0  0  0  0  0  0  0  0  0  0  0
   -2.9001    0.0000    0.0000 C   0  0  0  0  0  0  0  0  0  0  0  0
   -3.6251    0.4044    0.0000 C   0  0  0  0  0  0  0  0  0  0  0  0
   -1.4500   -0.8226    0.0000 C   0  0  0  0  0  0  0  0  0  0  0  0
   -0.7389    0.4044    0.0000 C   0  0  0  0  0  0  0  0  0  0  0  0
   -0.0140    0.0000    0.0000 C   0  0  0  0  0  0  0  0  0  0  0  0
   -0.7111   -1.2409    0.0000 C   0  0  0  0  0  0  0  0  0  0  0  0
   -2.9001   -0.8226    0.0000 C   0  0  0  0  0  0  0  0  0  0  0  0
    0.7389   -1.2270    0.0000 C   0  0  0  0  0  0  0  0  0  0  0  0
   -4.3362   -0.0140    0.0000 C   0  0  0  0  0  0  0  0  0  0  0  0
    1.4361   -0.8226    0.0000 C   0  0  3  0  0  0  0  0  0  0  0  0
   -3.5972   -1.2270    0.0000 C   0  0  0  0  0  0  0  0  0  0  0  0
   -4.3362   -0.8226    0.0000 C   0  0  0  0  0  0  0  0  0  0  0  0
    2.1750   -1.2270    0.0000 C   0  0  0  0  0  0  0  0  0  0  0  0
    1.4500    0.0000    0.0000 C   0  0  0  0  0  0  0  0  0  0  0  0
    2.8861   -0.8226    0.0000 C   0  0  0  0  0  0  0  0  0  0  0  0
    2.1750    0.4183    0.0000 C   0  0  0  0  0  0  0  0  0  0  0  0
    3.6251   -1.2270    0.0000 C   0  0  0  0  0  0  0  0  0  0  0  0
    4.3362   -0.8086    0.0000 C   0  0  0  0  0  0  0  0  0  0  0  0
  1  4  1  0  0  0  0
  1  5  1  0  0  0  0
  2  9  1  0  0  0  0
  2 10  1  0  0  0  0
  2 12  1  0  0  0  0
  3  6  1  0  0  0  0
  4  7  1  0  0  0  0
  4  8  1  0  0  0  0
  5  6  2  0  0  0  0
  5 11  1  0  0  0  0
  6 13  1  0  0  0  0
  7 10  1  0  0  0  0
  8  9  1  0  0  0  0
 11 15  2  0  0  0  0
 12 14  1  0  0  0  0
 13 16  2  0  0  0  0
 14 17  1  0  0  0  0
 14 18  1  0  0  0  0
 15 16  1  0  0  0  0
 17 19  1  0  0  0  0
 18 20  1  0  0  0  0
 19 21  1  0  0  0  0
 21 22  1  0  0  0  0
M  END
> <PUBCHEM_COMPOUND_ID_TYPE>
0

> <PUBCHEM_TOTAL_CHARGE>
0

> <PUBCHEM_SUBSTANCE_ID>
310949969

> <PUBCHEM_SUBSTANCE_VERSION>
1

> <PUBCHEM_EXT_DATASOURCE_NAME>
4488

> <PUBCHEM_EXT_DATASOURCE_REGID>
SCHEMBL16128198

> <PUBCHEM_SUBSTANCE_COMMENT>
InChI=1S/C19H33N3/c1-3-5-8-16(4-2)15-22-13-11-17(12-14-22)21-19-10-7-6-9-18(19)20/h6-7,9-10,16-17,21H,3-5,8,11-15,20H2,1-2H3
InChIKey=ARBWUULRWWIUFM-UHFFFAOYSA-N

> <PUBCHEM_SUBSTANCE_SYNONYM>
SCHEMBL16128198

> <PUBCHEM_XREF_EXT_ID>
SCHEMBL16128198

> <PUBCHEM_EXT_DATASOURCE_URL>
https://www.surechembl.org/

> <PUBCHEM_EXT_SUBSTANCE_URL>
https://www.surechembl.org/chemical/SCHEMBL16128198

> <PUBCHEM_CID_ASSOCIATIONS>
117615213  1

> <PUBCHEM_COORDINATE_TYPE>
1
3

$$$$
