310930015
  -OEChem-07211613022D

 49 54  0     1  0  0  0  0  0999 V2000
    2.8772   -2.2059    0.0000 S   0  0  0  0  0  0  0  0  0  0  0  0
    2.7813  -16.9755    0.0000 S   0  0  0  0  0  0  0  0  0  0  0  0
    2.7813   -9.5907    0.0000 S   0  0  0  0  0  0  0  0  0  0  0  0
    2.7813   -8.8234    0.0000 O   0  0  0  0  0  0  0  0  0  0  0  0
    2.7813  -10.3579    0.0000 O   0  0  0  0  0  0  0  0  0  0  0  0
    3.6444   -9.5907    0.0000 O   0  0  0  0  0  0  0  0  0  0  0  0
    2.0141   -9.5907    0.0000 O   0  0  0  0  0  0  0  0  0  0  0  0
    4.1240   -2.2059    0.0000 N   0  0  0  0  0  0  0  0  0  0  0  0
    1.4386  -16.9755    0.0000 N   0  0  0  0  0  0  0  0  0  0  0  0
    3.5486   -3.4526    0.0000 N   0  0  0  0  0  0  0  0  0  0  0  0
    2.1099  -15.7287    0.0000 N   0  0  0  0  0  0  0  0  0  0  0  0
    4.2199   -3.8362    0.0000 N   0  0  0  0  0  0  0  0  0  0  0  0
    1.4386  -15.3451    0.0000 N   0  0  0  0  0  0  0  0  0  0  0  0
    4.2199   -7.1930    0.0000 N   0  0  3  0  0  0  0  0  0  0  0  0
    1.4386  -11.9883    0.0000 N   0  0  3  0  0  0  0  0  0  0  0  0
    3.0690   -1.4386    0.0000 C   0  0  0  0  0  0  0  0  0  0  0  0
    2.5895  -17.7428    0.0000 C   0  0  0  0  0  0  0  0  0  0  0  0
    3.9322   -1.4386    0.0000 C   0  0  0  0  0  0  0  0  0  0  0  0
    1.7263  -17.7428    0.0000 C   0  0  0  0  0  0  0  0  0  0  0  0
    3.5486   -2.6854    0.0000 C   0  0  0  0  0  0  0  0  0  0  0  0
    2.1099  -16.4960    0.0000 C   0  0  0  0  0  0  0  0  0  0  0  0
    2.6854   -0.6713    0.0000 C   0  0  0  0  0  0  0  0  0  0  0  0
    2.9731  -18.5100    0.0000 C   0  0  0  0  0  0  0  0  0  0  0  0
    4.3158   -0.6713    0.0000 C   0  0  0  0  0  0  0  0  0  0  0  0
    1.3427  -18.5100    0.0000 C   0  0  0  0  0  0  0  0  0  0  0  0
    4.2199   -4.6994    0.0000 C   0  0  0  0  0  0  0  0  0  0  0  0
    1.4386  -14.4819    0.0000 C   0  0  0  0  0  0  0  0  0  0  0  0
    4.2199   -6.3298    0.0000 C   0  0  0  0  0  0  0  0  0  0  0  0
    1.4386  -12.8515    0.0000 C   0  0  0  0  0  0  0  0  0  0  0  0
    3.0690    0.0000    0.0000 C   0  0  0  0  0  0  0  0  0  0  0  0
    2.5895  -19.1814    0.0000 C   0  0  0  0  0  0  0  0  0  0  0  0
    3.9322    0.0000    0.0000 C   0  0  0  0  0  0  0  0  0  0  0  0
    1.7263  -19.1814    0.0000 C   0  0  0  0  0  0  0  0  0  0  0  0
    3.5486   -5.0830    0.0000 C   0  0  0  0  0  0  0  0  0  0  0  0
    2.1099  -14.0983    0.0000 C   0  0  0  0  0  0  0  0  0  0  0  0
    4.8912   -5.0830    0.0000 C   0  0  0  0  0  0  0  0  0  0  0  0
    0.6713  -14.0983    0.0000 C   0  0  0  0  0  0  0  0  0  0  0  0
    3.5486   -5.9462    0.0000 C   0  0  0  0  0  0  0  0  0  0  0  0
    2.1099  -13.2351    0.0000 C   0  0  0  0  0  0  0  0  0  0  0  0
    4.8912   -5.9462    0.0000 C   0  0  0  0  0  0  0  0  0  0  0  0
    0.6713  -13.2351    0.0000 C   0  0  0  0  0  0  0  0  0  0  0  0
    3.5486   -7.5766    0.0000 C   0  0  0  0  0  0  0  0  0  0  0  0
    2.1099  -11.6047    0.0000 C   0  0  0  0  0  0  0  0  0  0  0  0
    4.8912   -7.5766    0.0000 C   0  0  0  0  0  0  0  0  0  0  0  0
    0.6713  -11.6047    0.0000 C   0  0  0  0  0  0  0  0  0  0  0  0
    3.5486   -8.3439    0.0000 C   0  0  0  0  0  0  0  0  0  0  0  0
    2.1099  -10.8375    0.0000 C   0  0  0  0  0  0  0  0  0  0  0  0
    5.6585   -7.1930    0.0000 C   0  0  0  0  0  0  0  0  0  0  0  0
    0.0000  -11.9883    0.0000 C   0  0  0  0  0  0  0  0  0  0  0  0
  1 16  1  0  0  0  0
  1 20  1  0  0  0  0
  2 17  1  0  0  0  0
  2 21  1  0  0  0  0
  3  4  1  0  0  0  0
  3  5  1  0  0  0  0
  3  6  2  0  0  0  0
  3  7  2  0  0  0  0
  4 46  1  0  0  0  0
  5 47  1  0  0  0  0
  8 18  1  0  0  0  0
  8 20  2  0  0  0  0
  9 19  1  0  0  0  0
  9 21  2  0  0  0  0
 10 12  2  0  0  0  0
 10 20  1  0  0  0  0
 11 13  2  0  0  0  0
 11 21  1  0  0  0  0
 12 26  1  0  0  0  0
 13 27  1  0  0  0  0
 14 28  1  0  0  0  0
 14 42  1  0  0  0  0
 14 44  1  0  0  0  0
 15 29  1  0  0  0  0
 15 43  1  0  0  0  0
 15 45  1  0  0  0  0
 16 18  2  0  0  0  0
 16 22  1  0  0  0  0
 17 19  2  0  0  0  0
 17 23  1  0  0  0  0
 18 24  1  0  0  0  0
 19 25  1  0  0  0  0
 22 30  2  0  0  0  0
 23 31  2  0  0  0  0
 24 32  2  0  0  0  0
 25 33  2  0  0  0  0
 26 34  2  0  0  0  0
 26 36  1  0  0  0  0
 27 35  2  0  0  0  0
 27 37  1  0  0  0  0
 28 38  2  0  0  0  0
 28 40  1  0  0  0  0
 29 39  2  0  0  0  0
 29 41  1  0  0  0  0
 30 32  1  0  0  0  0
 31 33  1  0  0  0  0
 34 38  1  0  0  0  0
 35 39  1  0  0  0  0
 36 40  2  0  0  0  0
 37 41  2  0  0  0  0
 42 46  1  0  0  0  0
 43 47  1  0  0  0  0
 44 48  1  0  0  0  0
 45 49  1  0  0  0  0
M  END
> <PUBCHEM_COMPOUND_ID_TYPE>
0

> <PUBCHEM_TOTAL_CHARGE>
0

> <PUBCHEM_SUBSTANCE_ID>
310930015

> <PUBCHEM_SUBSTANCE_VERSION>
1

> <PUBCHEM_EXT_DATASOURCE_NAME>
4488

> <PUBCHEM_EXT_DATASOURCE_REGID>
SCHEMBL16107254

> <PUBCHEM_SUBSTANCE_COMMENT>
InChI=1S/C34H34N8O4S3/c1-3-41(27-17-13-25(14-18-27)37-39-33-35-29-9-5-7-11-31(29)47-33)21-23-45-49(43,44)46-24-22-42(4-2)28-19-15-26(16-20-28)38-40-34-36-30-10-6-8-12-32(30)48-34/h5-20H,3-4,21-24H2,1-2H3/b39-37+,40-38+
InChIKey=ULNOIWSCFLIJNA-HVMBLDELSA-N

> <PUBCHEM_SUBSTANCE_SYNONYM>
SCHEMBL16107254

> <PUBCHEM_XREF_EXT_ID>
SCHEMBL16107254

> <PUBCHEM_EXT_DATASOURCE_URL>
https://www.surechembl.org/

> <PUBCHEM_EXT_SUBSTANCE_URL>
https://www.surechembl.org/chemical/SCHEMBL16107254

> <PUBCHEM_CID_ASSOCIATIONS>
117599262  1

> <PUBCHEM_COORDINATE_TYPE>
1
3

$$$$
