310938061
  -OEChem-07211613022D

 39 43  0     1  0  0  0  0  0999 V2000
    0.0000   -0.2171    0.0000 F   0  0  0  0  0  0  0  0  0  0  0  0
    0.0000   -1.6065    0.0000 F   0  0  0  0  0  0  0  0  0  0  0  0
    0.8250   -0.2171    0.0000 F   0  0  0  0  0  0  0  0  0  0  0  0
    3.2999   -4.9932    0.0000 O   0  0  0  0  0  0  0  0  0  0  0  0
    6.1655   -5.0367    0.0000 O   0  0  0  0  0  0  0  0  0  0  0  0
    5.5142   -2.2578    0.0000 N   0  0  3  0  0  0  0  0  0  0  0  0
    4.6893   -4.9932    0.0000 N   0  0  0  0  0  0  0  0  0  0  0  0
    1.1723   -2.1276    0.0000 N   0  0  0  0  0  0  0  0  0  0  0  0
    6.8603   -6.2524    0.0000 N   0  0  0  0  0  0  0  0  0  0  0  0
    4.7327   -3.3433    0.0000 C   0  0  0  0  0  0  0  0  0  0  0  0
    4.7327   -2.5183    0.0000 C   0  0  0  0  0  0  0  0  0  0  0  0
    3.9946   -3.7775    0.0000 C   0  0  0  0  0  0  0  0  0  0  0  0
    3.2999   -2.5183    0.0000 C   0  0  0  0  0  0  0  0  0  0  0  0
    3.9946   -2.1276    0.0000 C   0  0  0  0  0  0  0  0  0  0  0  0
    3.2999   -3.3433    0.0000 C   0  0  0  0  0  0  0  0  0  0  0  0
    5.5142   -3.6038    0.0000 C   0  0  0  0  0  0  0  0  0  0  0  0
    2.5617   -2.1276    0.0000 C   0  0  0  0  0  0  0  0  0  0  0  0
    3.9946   -4.5590    0.0000 C   0  0  0  0  0  0  0  0  0  0  0  0
    5.9919   -2.9525    0.0000 C   0  0  0  0  0  0  0  0  0  0  0  0
    5.7314   -1.4763    0.0000 C   0  0  0  0  0  0  0  0  0  0  0  0
    1.8670   -2.5183    0.0000 C   0  0  0  0  0  0  0  0  0  0  0  0
    2.5617   -1.3026    0.0000 C   0  0  0  0  0  0  0  0  0  0  0  0
    5.2103   -0.8684    0.0000 C   0  0  0  0  0  0  0  0  0  0  0  0
    1.1289   -1.3026    0.0000 C   0  0  0  0  0  0  0  0  0  0  0  0
    5.4275   -6.2524    0.0000 C   0  0  0  0  0  0  0  0  0  0  0  0
    1.8670   -0.9118    0.0000 C   0  0  0  0  0  0  0  0  0  0  0  0
    0.3908   -0.9118    0.0000 C   0  0  0  0  0  0  0  0  0  0  0  0
    4.6893   -5.8182    0.0000 C   0  0  0  0  0  0  0  0  0  0  0  0
    5.4275   -7.0774    0.0000 C   0  0  0  0  0  0  0  0  0  0  0  0
    6.1655   -5.8182    0.0000 C   0  0  0  0  0  0  0  0  0  0  0  0
    4.3854   -0.8250    0.0000 C   0  0  0  0  0  0  0  0  0  0  0  0
    5.2537   -0.0434    0.0000 C   0  0  0  0  0  0  0  0  0  0  0  0
    6.1222   -7.4681    0.0000 C   0  0  0  0  0  0  0  0  0  0  0  0
    6.8603   -7.0774    0.0000 C   0  0  0  0  0  0  0  0  0  0  0  0
    4.4288    0.0000    0.0000 C   0  0  0  0  0  0  0  0  0  0  0  0
    4.7327   -7.4681    0.0000 C   0  0  0  0  0  0  0  0  0  0  0  0
    7.5550   -7.4681    0.0000 C   0  0  0  0  0  0  0  0  0  0  0  0
    4.7327   -8.2931    0.0000 C   0  0  0  0  0  0  0  0  0  0  0  0
    5.4708   -8.6839    0.0000 C   0  0  0  0  0  0  0  0  0  0  0  0
  1 27  1  0  0  0  0
  2 27  1  0  0  0  0
  3 27  1  0  0  0  0
  4 18  2  0  0  0  0
  5 30  2  0  0  0  0
  6 11  1  0  0  0  0
  6 19  1  0  0  0  0
  6 20  1  0  0  0  0
  7 18  1  0  0  0  0
  7 28  1  0  0  0  0
  8 21  1  0  0  0  0
  8 24  2  0  0  0  0
  9 30  1  0  0  0  0
  9 34  1  0  0  0  0
 10 11  2  0  0  0  0
 10 12  1  0  0  0  0
 10 16  1  0  0  0  0
 11 14  1  0  0  0  0
 12 15  2  0  0  0  0
 12 18  1  0  0  0  0
 13 14  2  0  0  0  0
 13 15  1  0  0  0  0
 13 17  1  0  0  0  0
 16 19  1  0  0  0  0
 17 21  2  0  0  0  0
 17 22  1  0  0  0  0
 20 23  1  0  0  0  0
 22 26  2  0  0  0  0
 23 31  1  0  0  0  0
 23 32  1  0  0  0  0
 24 26  1  0  0  0  0
 24 27  1  0  0  0  0
 25 28  1  0  0  0  0
 25 29  2  0  0  0  0
 25 30  1  0  0  0  0
 29 33  1  0  0  0  0
 29 36  1  0  0  0  0
 31 35  1  0  0  0  0
 32 35  1  0  0  0  0
 33 34  2  0  0  0  0
 34 37  1  0  0  0  0
 36 38  1  0  0  0  0
 38 39  1  0  0  0  0
M  END
> <PUBCHEM_COMPOUND_ID_TYPE>
0

> <PUBCHEM_TOTAL_CHARGE>
0

> <PUBCHEM_SUBSTANCE_ID>
310938061

> <PUBCHEM_SUBSTANCE_VERSION>
1

> <PUBCHEM_EXT_DATASOURCE_NAME>
4488

> <PUBCHEM_EXT_DATASOURCE_REGID>
SCHEMBL16115902

> <PUBCHEM_SUBSTANCE_COMMENT>
InChI=1S/C30H33F3N4O2/c1-3-5-20-12-18(2)36-29(39)25(20)16-35-28(38)24-13-22(21-8-9-27(34-15-21)30(31,32)33)14-26-23(24)10-11-37(26)17-19-6-4-7-19/h8-9,12-15,19H,3-7,10-11,16-17H2,1-2H3,(H,35,38)(H,36,39)
InChIKey=DKIWFRCGNIMOBR-UHFFFAOYSA-N

> <PUBCHEM_SUBSTANCE_SYNONYM>
SCHEMBL16115902

> <PUBCHEM_XREF_EXT_ID>
SCHEMBL16115902

> <PUBCHEM_EXT_DATASOURCE_URL>
https://www.surechembl.org/

> <PUBCHEM_EXT_SUBSTANCE_URL>
https://www.surechembl.org/chemical/SCHEMBL16115902

> <PUBCHEM_CID_ASSOCIATIONS>
86274592  1

> <PUBCHEM_COORDINATE_TYPE>
1
3

$$$$
