310936054
  -OEChem-07211613022D

 40 45  0     1  0  0  0  0  0999 V2000
    5.6841   -4.1975    0.0000 S   0  0  0  0  0  0  0  0  0  0  0  0
    4.0808    0.0000    0.0000 F   0  0  0  0  0  0  0  0  0  0  0  0
    4.5764   -0.6996    0.0000 F   0  0  0  0  0  0  0  0  0  0  0  0
    6.1505   -4.9554    0.0000 O   0  0  0  0  0  0  0  0  0  0  0  0
    5.3052   -3.4979    0.0000 O   0  0  0  0  0  0  0  0  0  0  0  0
    2.1570   -4.6056    0.0000 N   0  0  3  0  0  0  0  0  0  0  0  0
    2.8566   -1.7490    0.0000 N   0  0  3  0  0  0  0  0  0  0  0  0
    0.7287   -4.6056    0.0000 N   0  0  0  0  0  0  0  0  0  0  0  0
    0.0292   -3.3521    0.0000 N   0  0  0  0  0  0  0  0  0  0  0  0
    6.3837   -3.7894    0.0000 N   0  0  3  0  0  0  0  0  0  0  0  0
    4.2557   -1.7198    0.0000 N   0  0  0  0  0  0  0  0  0  0  0  0
    1.4575   -3.3521    0.0000 C   0  0  0  0  0  0  0  0  0  0  0  0
    1.4283   -4.1975    0.0000 C   0  0  0  0  0  0  0  0  0  0  0  0
    0.7287   -2.9441    0.0000 C   0  0  0  0  0  0  0  0  0  0  0  0
    2.1570   -2.1570    0.0000 C   0  0  0  0  0  0  0  0  0  0  0  0
    3.5854   -4.6056    0.0000 C   0  0  0  0  0  0  0  0  0  0  0  0
    2.1570   -2.9732    0.0000 C   0  0  0  0  0  0  0  0  0  0  0  0
    0.7287   -2.1570    0.0000 C   0  0  0  0  0  0  0  0  0  0  0  0
    4.9845   -4.6056    0.0000 C   0  0  0  0  0  0  0  0  0  0  0  0
    3.5854   -5.4217    0.0000 C   0  0  0  0  0  0  0  0  0  0  0  0
    2.8566   -4.1975    0.0000 C   0  0  0  0  0  0  0  0  0  0  0  0
    1.4283   -1.7490    0.0000 C   0  0  0  0  0  0  0  0  0  0  0  0
    4.2557   -4.1975    0.0000 C   0  0  0  0  0  0  0  0  0  0  0  0
    2.1570   -5.4217    0.0000 C   0  0  0  0  0  0  0  0  0  0  0  0
    3.7311   -0.7579    0.0000 C   0  0  0  0  0  0  0  0  0  0  0  0
    2.8566   -5.8298    0.0000 C   0  0  0  0  0  0  0  0  0  0  0  0
    2.9441   -0.9328    0.0000 C   0  0  0  0  0  0  0  0  0  0  0  0
    4.9845   -5.4217    0.0000 C   0  0  0  0  0  0  0  0  0  0  0  0
    4.2557   -5.8298    0.0000 C   0  0  0  0  0  0  0  0  0  0  0  0
    0.0000   -4.1975    0.0000 C   0  0  0  0  0  0  0  0  0  0  0  0
    3.6145   -2.0696    0.0000 C   0  0  0  0  0  0  0  0  0  0  0  0
    4.1683   -1.4575    0.0000 C   0  0  0  0  0  0  0  0  0  0  0  0
    0.0000   -1.7490    0.0000 C   0  0  0  0  0  0  0  0  0  0  0  0
    6.3837   -2.9732    0.0000 C   0  0  0  0  0  0  0  0  0  0  0  0
    5.6549   -2.5651    0.0000 C   0  0  0  0  0  0  0  0  0  0  0  0
    7.0832   -4.1975    0.0000 C   0  0  0  0  0  0  0  0  0  0  0  0
    5.6841   -1.7198    0.0000 C   0  0  0  0  0  0  0  0  0  0  0  0
    4.9554   -2.9732    0.0000 C   0  0  0  0  0  0  0  0  0  0  0  0
    4.9554   -1.3117    0.0000 C   0  0  0  0  0  0  0  0  0  0  0  0
    4.2557   -2.5360    0.0000 C   0  0  0  0  0  0  0  0  0  0  0  0
  1  4  2  0  0  0  0
  1  5  2  0  0  0  0
  1 10  1  0  0  0  0
  1 19  1  0  0  0  0
  2 25  1  0  0  0  0
  3 25  1  0  0  0  0
  6 13  1  0  0  0  0
  6 21  1  0  0  0  0
  6 24  1  0  0  0  0
  7 15  1  0  0  0  0
  7 27  1  0  0  0  0
  7 31  1  0  0  0  0
  8 13  1  0  0  0  0
  8 30  2  0  0  0  0
  9 14  2  0  0  0  0
  9 30  1  0  0  0  0
 10 34  1  0  0  0  0
 10 36  1  0  0  0  0
 11 39  1  0  0  0  0
 11 40  1  0  0  0  0
 12 13  2  0  0  0  0
 12 14  1  0  0  0  0
 12 17  1  0  0  0  0
 14 18  1  0  0  0  0
 15 17  2  0  0  0  0
 15 22  1  0  0  0  0
 16 20  2  0  0  0  0
 16 21  1  0  0  0  0
 16 23  1  0  0  0  0
 18 22  2  0  0  0  0
 18 33  1  0  0  0  0
 19 23  2  0  0  0  0
 19 28  1  0  0  0  0
 20 26  1  0  0  0  0
 20 29  1  0  0  0  0
 24 26  1  0  0  0  0
 25 27  1  0  0  0  0
 25 32  1  0  0  0  0
 28 29  2  0  0  0  0
 31 32  1  0  0  0  0
 34 35  1  0  0  0  0
 35 37  1  0  0  0  0
 35 38  1  0  0  0  0
 37 39  1  0  0  0  0
 38 40  1  0  0  0  0
M  END
> <PUBCHEM_COMPOUND_ID_TYPE>
0

> <PUBCHEM_TOTAL_CHARGE>
0

> <PUBCHEM_SUBSTANCE_ID>
310936054

> <PUBCHEM_SUBSTANCE_VERSION>
1

> <PUBCHEM_EXT_DATASOURCE_NAME>
4488

> <PUBCHEM_EXT_DATASOURCE_REGID>
SCHEMBL16113660

> <PUBCHEM_SUBSTANCE_COMMENT>
InChI=1S/C29H36F2N6O2S/c1-20-13-24(37-12-8-29(30,31)18-37)15-26-27(20)33-19-34-28(26)36-11-7-22-3-4-25(14-23(22)17-36)40(38,39)35(2)16-21-5-9-32-10-6-21/h3-4,13-15,19,21,32H,5-12,16-18H2,1-2H3
InChIKey=ZAXCIGWZJWDXLB-UHFFFAOYSA-N

> <PUBCHEM_SUBSTANCE_SYNONYM>
SCHEMBL16113660

> <PUBCHEM_XREF_EXT_ID>
SCHEMBL16113660

> <PUBCHEM_EXT_DATASOURCE_URL>
https://www.surechembl.org/

> <PUBCHEM_EXT_SUBSTANCE_URL>
https://www.surechembl.org/chemical/SCHEMBL16113660

> <PUBCHEM_CID_ASSOCIATIONS>
86300035  1

> <PUBCHEM_COORDINATE_TYPE>
1
3

$$$$
