310935973
  -OEChem-07211613022D

 35 39  0     1  0  0  0  0  0999 V2000
    1.7296   -1.2431    0.0000 F   0  0  0  0  0  0  0  0  0  0  0  0
    4.5941   -2.8916    0.0000 O   0  0  0  0  0  0  0  0  0  0  0  0
    3.1619   -0.4054    0.0000 O   0  0  0  0  0  0  0  0  0  0  0  0
    5.2968   -4.9455    0.0000 O   0  0  0  0  0  0  0  0  0  0  0  0
    5.9994   -3.7024    0.0000 O   0  0  0  0  0  0  0  0  0  0  0  0
    2.4052   -4.9725    0.0000 N   0  0  0  0  0  0  0  0  0  0  0  0
    1.6485   -5.2157    0.0000 N   0  0  0  0  0  0  0  0  0  0  0  0
    3.1619   -3.7024    0.0000 C   0  0  0  0  0  0  0  0  0  0  0  0
    2.4052   -4.1347    0.0000 C   0  0  0  0  0  0  0  0  0  0  0  0
    3.8645   -4.1347    0.0000 C   0  0  0  0  0  0  0  0  0  0  0  0
    3.1619   -2.8916    0.0000 C   0  0  0  0  0  0  0  0  0  0  0  0
    1.6485   -3.9185    0.0000 C   0  0  0  0  0  0  0  0  0  0  0  0
    3.8645   -4.9725    0.0000 C   0  0  0  0  0  0  0  0  0  0  0  0
    1.1350   -4.5671    0.0000 C   0  0  0  0  0  0  0  0  0  0  0  0
    4.0537   -2.6484    0.0000 C   0  0  0  0  0  0  0  0  0  0  0  0
    4.5941   -3.7024    0.0000 C   0  0  3  0  0  0  0  0  0  0  0  0
    3.1619   -5.4049    0.0000 C   0  0  0  0  0  0  0  0  0  0  0  0
    3.8645   -1.6485    0.0000 C   0  0  0  0  0  0  0  0  0  0  0  0
    2.4322   -2.4592    0.0000 C   0  0  0  0  0  0  0  0  0  0  0  0
    3.1619   -1.2431    0.0000 C   0  0  0  0  0  0  0  0  0  0  0  0
    2.4322   -1.6485    0.0000 C   0  0  0  0  0  0  0  0  0  0  0  0
    1.2701   -3.1619    0.0000 C   0  0  0  0  0  0  0  0  0  0  0  0
    0.3243   -4.4861    0.0000 C   0  0  0  0  0  0  0  0  0  0  0  0
    5.2968   -4.1347    0.0000 C   0  0  0  0  0  0  0  0  0  0  0  0
    4.5941   -1.2431    0.0000 C   0  0  0  0  0  0  0  0  0  0  0  0
    4.5941   -5.3508    0.0000 C   0  0  0  0  0  0  0  0  0  0  0  0
    0.4594   -3.0808    0.0000 C   0  0  0  0  0  0  0  0  0  0  0  0
    4.7563   -3.0538    0.0000 C   0  0  0  0  0  0  0  0  0  0  0  0
    0.0000   -3.7294    0.0000 C   0  0  0  0  0  0  0  0  0  0  0  0
    3.8645   -2.4592    0.0000 C   0  0  0  0  0  0  0  0  0  0  0  0
    4.5941   -0.4054    0.0000 C   0  0  0  0  0  0  0  0  0  0  0  0
    3.8915    0.0000    0.0000 C   0  0  0  0  0  0  0  0  0  0  0  0
    3.1619   -2.0268    0.0000 C   0  0  0  0  0  0  0  0  0  0  0  0
    4.2969   -1.7566    0.0000 C   0  0  0  0  0  0  0  0  0  0  0  0
    3.4321   -3.1619    0.0000 C   0  0  0  0  0  0  0  0  0  0  0  0
  1 21  1  0  0  0  0
  2 16  1  0  0  0  0
  2 30  1  0  0  0  0
  3 20  1  0  0  0  0
  3 32  1  0  0  0  0
  4 24  2  0  0  0  0
  5 24  1  0  0  0  0
  6  7  1  0  0  0  0
  6  9  1  0  0  0  0
  6 17  1  0  0  0  0
  7 14  2  0  0  0  0
  8  9  1  0  0  0  0
  8 10  2  0  0  0  0
  8 11  1  0  0  0  0
  9 12  2  0  0  0  0
 10 13  1  0  0  0  0
 10 16  1  0  0  0  0
 11 15  2  0  0  0  0
 11 19  1  0  0  0  0
 12 14  1  0  0  0  0
 12 22  1  0  0  0  0
 13 17  2  0  0  0  0
 13 26  1  0  0  0  0
 14 23  1  0  0  0  0
 15 18  1  0  0  0  0
 15 28  1  0  0  0  0
 16 24  1  0  0  0  0
 18 20  2  0  0  0  0
 18 25  1  0  0  0  0
 19 21  2  0  0  0  0
 20 21  1  0  0  0  0
 22 27  2  0  0  0  0
 23 29  2  0  0  0  0
 25 31  1  0  0  0  0
 27 29  1  0  0  0  0
 30 33  1  0  0  0  0
 30 34  1  0  0  0  0
 30 35  1  0  0  0  0
 31 32  1  0  0  0  0
M  END
> <PUBCHEM_COMPOUND_ID_TYPE>
0

> <PUBCHEM_TOTAL_CHARGE>
0

> <PUBCHEM_SUBSTANCE_ID>
310935973

> <PUBCHEM_SUBSTANCE_VERSION>
1

> <PUBCHEM_EXT_DATASOURCE_NAME>
4488

> <PUBCHEM_EXT_DATASOURCE_REGID>
SCHEMBL16113573

> <PUBCHEM_SUBSTANCE_COMMENT>
InChI=1S/C28H29FN2O4/c1-15-14-31-24(18-9-6-7-11-21(18)30-31)23(22(15)26(27(32)33)35-28(3,4)5)19-13-20(29)25-17(16(19)2)10-8-12-34-25/h6-7,9,11,13-14,26H,8,10,12H2,1-5H3,(H,32,33)
InChIKey=JAORABFFBCNCEO-UHFFFAOYSA-N

> <PUBCHEM_SUBSTANCE_SYNONYM>
SCHEMBL16113573

> <PUBCHEM_XREF_EXT_ID>
SCHEMBL16113573

> <PUBCHEM_EXT_DATASOURCE_URL>
https://www.surechembl.org/

> <PUBCHEM_EXT_SUBSTANCE_URL>
https://www.surechembl.org/chemical/SCHEMBL16113573

> <PUBCHEM_CID_ASSOCIATIONS>
117603948  1

> <PUBCHEM_COORDINATE_TYPE>
1
3

$$$$
