310935737
  -OEChem-07211613022D

 35 40  0     1  0  0  0  0  0999 V2000
    3.5373   -5.7540    0.0000 O   0  0  0  0  0  0  0  0  0  0  0  0
    0.7075   -3.3015    0.0000 N   0  0  3  0  0  0  0  0  0  0  0  0
    0.0000   -2.0752    0.0000 N   0  0  0  0  0  0  0  0  0  0  0  0
    0.7075   -0.8018    0.0000 N   0  0  0  0  0  0  0  0  0  0  0  0
    2.8298   -6.9803    0.0000 N   0  0  0  0  0  0  0  0  0  0  0  0
    3.6316   -3.3015    0.0000 N   0  0  0  0  0  0  0  0  0  0  0  0
    4.4334   -3.4902    0.0000 N   0  0  0  0  0  0  0  0  0  0  0  0
    2.8298   -9.4328    0.0000 N   0  0  0  0  0  0  0  0  0  0  0  0
    1.4149   -2.0752    0.0000 C   0  0  0  0  0  0  0  0  0  0  0  0
    0.7075   -2.4525    0.0000 C   0  0  0  0  0  0  0  0  0  0  0  0
    1.4621   -1.2263    0.0000 C   0  0  0  0  0  0  0  0  0  0  0  0
    2.8298   -2.0752    0.0000 C   0  0  0  0  0  0  0  0  0  0  0  0
    2.1224   -0.8489    0.0000 C   0  0  0  0  0  0  0  0  0  0  0  0
    2.1224   -2.4525    0.0000 C   0  0  0  0  0  0  0  0  0  0  0  0
    1.4149   -4.5278    0.0000 C   0  0  0  0  0  0  0  0  0  0  0  0
    0.7075   -4.9522    0.0000 C   0  0  0  0  0  0  0  0  0  0  0  0
    1.4149   -3.6788    0.0000 C   0  0  0  0  0  0  0  0  0  0  0  0
    2.8298   -1.2263    0.0000 C   0  0  0  0  0  0  0  0  0  0  0  0
    0.0000   -3.6788    0.0000 C   0  0  0  0  0  0  0  0  0  0  0  0
    3.5373   -2.4525    0.0000 C   0  0  0  0  0  0  0  0  0  0  0  0
    2.1224   -5.7540    0.0000 C   0  0  0  0  0  0  0  0  0  0  0  0
    2.1224   -4.9051    0.0000 C   0  0  0  0  0  0  0  0  0  0  0  0
    0.0000   -4.5278    0.0000 C   0  0  0  0  0  0  0  0  0  0  0  0
    0.0000   -1.2263    0.0000 C   0  0  0  0  0  0  0  0  0  0  0  0
    0.7075   -5.7540    0.0000 C   0  0  0  0  0  0  0  0  0  0  0  0
    2.8298   -6.1313    0.0000 C   0  0  0  0  0  0  0  0  0  0  0  0
    1.4149   -6.1313    0.0000 C   0  0  0  0  0  0  0  0  0  0  0  0
    2.1224    0.0000    0.0000 C   0  0  0  0  0  0  0  0  0  0  0  0
    4.2920   -2.1224    0.0000 C   0  0  0  0  0  0  0  0  0  0  0  0
    4.8579   -2.7827    0.0000 C   0  0  0  0  0  0  0  0  0  0  0  0
    3.5373   -7.3576    0.0000 C   0  0  0  0  0  0  0  0  0  0  0  0
    2.1224   -7.3576    0.0000 C   0  0  0  0  0  0  0  0  0  0  0  0
    3.5373   -8.2065    0.0000 C   0  0  0  0  0  0  0  0  0  0  0  0
    2.1224   -8.2065    0.0000 C   0  0  0  0  0  0  0  0  0  0  0  0
    2.8298   -8.6310    0.0000 C   0  0  0  0  0  0  0  0  0  0  0  0
  1 26  2  0  0  0  0
  2 10  1  0  0  0  0
  2 17  1  0  0  0  0
  2 19  1  0  0  0  0
  3 10  1  0  0  0  0
  3 24  2  0  0  0  0
  4 11  2  0  0  0  0
  4 24  1  0  0  0  0
  5 26  1  0  0  0  0
  5 31  1  0  0  0  0
  5 32  1  0  0  0  0
  6  7  1  0  0  0  0
  6 20  1  0  0  0  0
  7 30  2  0  0  0  0
  8 35  1  0  0  0  0
  9 10  2  0  0  0  0
  9 11  1  0  0  0  0
  9 14  1  0  0  0  0
 11 13  1  0  0  0  0
 12 14  2  0  0  0  0
 12 18  1  0  0  0  0
 12 20  1  0  0  0  0
 13 18  2  0  0  0  0
 13 28  1  0  0  0  0
 15 16  2  0  0  0  0
 15 17  1  0  0  0  0
 15 22  1  0  0  0  0
 16 23  1  0  0  0  0
 16 25  1  0  0  0  0
 19 23  1  0  0  0  0
 20 29  2  0  0  0  0
 21 22  2  0  0  0  0
 21 26  1  0  0  0  0
 21 27  1  0  0  0  0
 25 27  2  0  0  0  0
 29 30  1  0  0  0  0
 31 33  1  0  0  0  0
 32 34  1  0  0  0  0
 33 35  1  0  0  0  0
 34 35  1  0  0  0  0
M  END
> <PUBCHEM_COMPOUND_ID_TYPE>
0

> <PUBCHEM_TOTAL_CHARGE>
0

> <PUBCHEM_SUBSTANCE_ID>
310935737

> <PUBCHEM_SUBSTANCE_VERSION>
1

> <PUBCHEM_EXT_DATASOURCE_NAME>
4488

> <PUBCHEM_EXT_DATASOURCE_REGID>
SCHEMBL16113321

> <PUBCHEM_SUBSTANCE_COMMENT>
InChI=1S/C27H29N7O/c1-17-12-20(24-4-8-31-32-24)14-23-25(17)29-16-30-26(23)34-9-5-18-2-3-19(13-21(18)15-34)27(35)33-10-6-22(28)7-11-33/h2-4,8,12-14,16,22H,5-7,9-11,15,28H2,1H3,(H,31,32)
InChIKey=ZRYKEXPFWBWMQN-UHFFFAOYSA-N

> <PUBCHEM_SUBSTANCE_SYNONYM>
SCHEMBL16113321

> <PUBCHEM_XREF_EXT_ID>
SCHEMBL16113321

> <PUBCHEM_EXT_DATASOURCE_URL>
https://www.surechembl.org/

> <PUBCHEM_EXT_SUBSTANCE_URL>
https://www.surechembl.org/chemical/SCHEMBL16113321

> <PUBCHEM_CID_ASSOCIATIONS>
86302158  1

> <PUBCHEM_COORDINATE_TYPE>
1
3

$$$$
