310938512
  -OEChem-07211613022D

 88 87  0     1  0  0  0  0  0999 V2000
    3.4095   -1.2814    0.0000 O   0  0  0  0  0  0  0  0  0  0  0  0
    0.7195   -0.2046    0.0000 O   0  0  0  0  0  0  0  0  0  0  0  0
    1.9570   -0.9191    0.0000 O   0  0  0  0  0  0  0  0  0  0  0  0
    5.0564    0.0756    0.0000 O   0  0  0  0  0  0  0  0  0  0  0  0
    3.9523    0.9228    0.0000 O   0  0  0  0  0  0  0  0  0  0  0  0
    4.2183   -2.3888    0.0000 O   0  0  0  0  0  0  0  0  0  0  0  0
    5.5574    0.3338    0.0000 O   0  0  0  0  0  0  0  0  0  0  0  0
    5.6085   -2.3281    0.0000 O   0  0  0  0  0  0  0  0  0  0  0  0
    1.9570    0.5098    0.0000 C   0  0  0  0  0  0  0  0  0  0  0  0
    3.8220   -0.5670    0.0000 C   0  0  3  0  0  0  0  0  0  0  0  0
    0.5137    1.3431    0.0000 C   0  0  3  0  0  0  0  0  0  0  0  0
    2.7902    1.9531    0.0000 C   0  0  3  0  0  0  0  0  0  0  0  0
    1.5445   -0.2046    0.0000 C   0  0  0  0  0  0  0  0  0  0  0  0
    4.7508   -1.1032    0.0000 C   0  0  3  0  0  0  0  0  0  0  0  0
    4.2345    0.1476    0.0000 C   0  0  0  0  0  0  0  0  0  0  0  0
   -0.2008    1.7556    0.0000 C   0  0  0  0  0  0  0  0  0  0  0  0
    3.2027    2.6676    0.0000 C   0  0  0  0  0  0  0  0  0  0  0  0
    0.1012    0.6286    0.0000 C   0  0  0  0  0  0  0  0  0  0  0  0
    2.0757    2.3656    0.0000 C   0  0  0  0  0  0  0  0  0  0  0  0
    0.9262    2.0575    0.0000 C   0  0  0  0  0  0  0  0  0  0  0  0
    3.5047    1.5406    0.0000 C   0  0  0  0  0  0  0  0  0  0  0  0
    3.8220   -1.9959    0.0000 C   0  0  3  0  0  0  0  0  0  0  0  0
    4.8941   -1.9156    0.0000 C   0  0  0  0  0  0  0  0  0  0  0  0
    5.6293   -0.4880    0.0000 C   0  0  0  0  0  0  0  0  0  0  0  0
   -0.9152    1.3431    0.0000 C   0  0  0  0  0  0  0  0  0  0  0  0
    4.0277    2.6676    0.0000 C   0  0  0  0  0  0  0  0  0  0  0  0
   -0.7238    0.6286    0.0000 C   0  0  0  0  0  0  0  0  0  0  0  0
    2.0757    3.1906    0.0000 C   0  0  0  0  0  0  0  0  0  0  0  0
    0.5137    2.7721    0.0000 C   0  0  0  0  0  0  0  0  0  0  0  0
    4.2191    1.9531    0.0000 C   0  0  0  0  0  0  0  0  0  0  0  0
    4.2345   -2.7104    0.0000 C   0  0  0  0  0  0  0  0  0  0  0  0
    4.5365   -1.5834    0.0000 C   0  0  0  0  0  0  0  0  0  0  0  0
    3.1075   -2.4084    0.0000 C   0  0  0  0  0  0  0  0  0  0  0  0
    6.3771   -0.8367    0.0000 C   0  0  0  0  0  0  0  0  0  0  0  0
   -1.6297    1.7556    0.0000 C   0  0  0  0  0  0  0  0  0  0  0  0
    4.4402    3.3820    0.0000 C   0  0  0  0  0  0  0  0  0  0  0  0
   -1.1363   -0.0859    0.0000 C   0  0  0  0  0  0  0  0  0  0  0  0
    1.3612    3.6031    0.0000 C   0  0  0  0  0  0  0  0  0  0  0  0
   -0.3113    2.7721    0.0000 C   0  0  0  0  0  0  0  0  0  0  0  0
    4.9336    1.5406    0.0000 C   0  0  0  0  0  0  0  0  0  0  0  0
    5.0595   -2.7104    0.0000 C   0  0  0  0  0  0  0  0  0  0  0  0
    5.3117   -1.8656    0.0000 C   0  0  0  0  0  0  0  0  0  0  0  0
    2.3930   -1.9959    0.0000 C   0  0  0  0  0  0  0  0  0  0  0  0
   -2.3442    1.3431    0.0000 C   0  0  0  0  0  0  0  0  0  0  0  0
    5.2652    3.3820    0.0000 C   0  0  0  0  0  0  0  0  0  0  0  0
   -1.9613   -0.0859    0.0000 C   0  0  0  0  0  0  0  0  0  0  0  0
    1.3612    4.4281    0.0000 C   0  0  0  0  0  0  0  0  0  0  0  0
   -0.7238    3.4865    0.0000 C   0  0  0  0  0  0  0  0  0  0  0  0
    5.6481    1.9531    0.0000 C   0  0  0  0  0  0  0  0  0  0  0  0
    5.4720   -3.4248    0.0000 C   0  0  0  0  0  0  0  0  0  0  0  0
    5.9437   -1.3353    0.0000 C   0  0  0  0  0  0  0  0  0  0  0  0
    1.6786   -2.4084    0.0000 C   0  0  0  0  0  0  0  0  0  0  0  0
   -3.0586    1.7556    0.0000 C   0  0  0  0  0  0  0  0  0  0  0  0
    5.6777    4.0965    0.0000 C   0  0  0  0  0  0  0  0  0  0  0  0
   -2.3738   -0.8003    0.0000 C   0  0  0  0  0  0  0  0  0  0  0  0
    0.6468    4.8406    0.0000 C   0  0  0  0  0  0  0  0  0  0  0  0
   -1.5488    3.4865    0.0000 C   0  0  0  0  0  0  0  0  0  0  0  0
    6.3626    1.5406    0.0000 C   0  0  0  0  0  0  0  0  0  0  0  0
    6.2970   -3.4248    0.0000 C   0  0  0  0  0  0  0  0  0  0  0  0
    6.7190   -1.6174    0.0000 C   0  0  0  0  0  0  0  0  0  0  0  0
    0.9641   -1.9959    0.0000 C   0  0  0  0  0  0  0  0  0  0  0  0
   -3.7731    1.3431    0.0000 C   0  0  0  0  0  0  0  0  0  0  0  0
    6.5027    4.0965    0.0000 C   0  0  0  0  0  0  0  0  0  0  0  0
   -3.1988   -0.8003    0.0000 C   0  0  0  0  0  0  0  0  0  0  0  0
    0.6468    5.6656    0.0000 C   0  0  0  0  0  0  0  0  0  0  0  0
    6.7095   -4.1393    0.0000 C   0  0  0  0  0  0  0  0  0  0  0  0
    7.3509   -1.0871    0.0000 C   0  0  0  0  0  0  0  0  0  0  0  0
    0.2496   -2.4084    0.0000 C   0  0  0  0  0  0  0  0  0  0  0  0
   -1.9613    4.2010    0.0000 C   0  0  0  0  0  0  0  0  0  0  0  0
    7.0770    1.9531    0.0000 C   0  0  0  0  0  0  0  0  0  0  0  0
   -4.4876    1.7556    0.0000 C   0  0  0  0  0  0  0  0  0  0  0  0
    6.9152    4.8110    0.0000 C   0  0  0  0  0  0  0  0  0  0  0  0
   -3.6113   -1.5148    0.0000 C   0  0  0  0  0  0  0  0  0  0  0  0
   -0.0677    6.0781    0.0000 C   0  0  0  0  0  0  0  0  0  0  0  0
    7.5345   -4.1393    0.0000 C   0  0  0  0  0  0  0  0  0  0  0  0
    8.1262   -1.3693    0.0000 C   0  0  0  0  0  0  0  0  0  0  0  0
   -0.4648   -1.9959    0.0000 C   0  0  0  0  0  0  0  0  0  0  0  0
   -5.2020    1.3431    0.0000 C   0  0  0  0  0  0  0  0  0  0  0  0
    7.7402    4.8110    0.0000 C   0  0  0  0  0  0  0  0  0  0  0  0
    7.9470   -4.8538    0.0000 C   0  0  0  0  0  0  0  0  0  0  0  0
    8.7581   -0.8390    0.0000 C   0  0  0  0  0  0  0  0  0  0  0  0
   -4.4363   -1.5148    0.0000 C   0  0  0  0  0  0  0  0  0  0  0  0
   -0.0677    6.9031    0.0000 C   0  0  0  0  0  0  0  0  0  0  0  0
    8.7720   -4.8538    0.0000 C   0  0  0  0  0  0  0  0  0  0  0  0
   -5.9165    1.7556    0.0000 C   0  0  0  0  0  0  0  0  0  0  0  0
    8.1527    5.5254    0.0000 C   0  0  0  0  0  0  0  0  0  0  0  0
    9.5334   -1.1211    0.0000 C   0  0  0  0  0  0  0  0  0  0  0  0
    9.1845   -5.5682    0.0000 C   0  0  0  0  0  0  0  0  0  0  0  0
  1 10  1  0  0  0  0
  1 22  1  0  0  0  0
  2 13  2  0  0  0  0
  3 13  1  0  0  0  0
  4 15  2  0  0  0  0
  5 15  1  0  0  0  0
  6 23  2  0  0  0  0
  7 24  2  0  0  0  0
  8 23  1  0  0  0  0
  9 10  1  0  0  0  0
  9 11  1  0  0  0  0
  9 12  1  0  0  0  0
  9 13  1  0  0  0  0
 10 14  1  0  0  0  0
 10 15  1  0  0  0  0
 11 16  1  0  0  0  0
 11 18  1  0  0  0  0
 11 20  1  0  0  0  0
 12 17  1  0  0  0  0
 12 19  1  0  0  0  0
 12 21  1  0  0  0  0
 14 23  1  0  0  0  0
 14 24  1  0  0  0  0
 16 25  1  0  0  0  0
 17 26  1  0  0  0  0
 18 27  1  0  0  0  0
 19 28  1  0  0  0  0
 20 29  1  0  0  0  0
 21 30  1  0  0  0  0
 22 31  1  0  0  0  0
 22 32  1  0  0  0  0
 22 33  1  0  0  0  0
 24 34  1  0  0  0  0
 25 35  1  0  0  0  0
 26 36  1  0  0  0  0
 27 37  1  0  0  0  0
 28 38  1  0  0  0  0
 29 39  1  0  0  0  0
 30 40  1  0  0  0  0
 31 41  1  0  0  0  0
 32 42  1  0  0  0  0
 33 43  1  0  0  0  0
 35 44  1  0  0  0  0
 36 45  1  0  0  0  0
 37 46  1  0  0  0  0
 38 47  1  0  0  0  0
 39 48  1  0  0  0  0
 40 49  1  0  0  0  0
 41 50  1  0  0  0  0
 42 51  1  0  0  0  0
 43 52  1  0  0  0  0
 44 53  1  0  0  0  0
 45 54  1  0  0  0  0
 46 55  1  0  0  0  0
 47 56  1  0  0  0  0
 48 57  1  0  0  0  0
 49 58  1  0  0  0  0
 50 59  1  0  0  0  0
 51 60  1  0  0  0  0
 52 61  1  0  0  0  0
 53 62  1  0  0  0  0
 54 63  1  0  0  0  0
 55 64  1  0  0  0  0
 56 65  1  0  0  0  0
 57 69  1  0  0  0  0
 58 70  1  0  0  0  0
 59 66  1  0  0  0  0
 60 67  1  0  0  0  0
 61 68  1  0  0  0  0
 62 71  1  0  0  0  0
 63 72  1  0  0  0  0
 64 73  1  0  0  0  0
 65 74  1  0  0  0  0
 66 75  1  0  0  0  0
 67 76  1  0  0  0  0
 68 77  1  0  0  0  0
 71 78  1  0  0  0  0
 72 79  1  0  0  0  0
 73 82  1  0  0  0  0
 74 83  1  0  0  0  0
 75 80  1  0  0  0  0
 76 81  1  0  0  0  0
 78 85  1  0  0  0  0
 79 86  1  0  0  0  0
 80 84  1  0  0  0  0
 81 87  1  0  0  0  0
 84 88  1  0  0  0  0
M  END
> <PUBCHEM_COMPOUND_ID_TYPE>
0

> <PUBCHEM_TOTAL_CHARGE>
0

> <PUBCHEM_SUBSTANCE_ID>
310938512

> <PUBCHEM_SUBSTANCE_VERSION>
1

> <PUBCHEM_EXT_DATASOURCE_NAME>
4488

> <PUBCHEM_EXT_DATASOURCE_REGID>
SCHEMBL16116419

> <PUBCHEM_SUBSTANCE_COMMENT>
InChI=1S/C80H154O8/c1-11-20-29-38-44-49-57-66-76(62-53-35-26-17-7,64-55-47-41-32-23-14-4)80(75(86)87,77(63-54-36-27-18-8,65-56-48-42-33-24-15-5)67-58-50-45-39-30-21-12-2)79(74(84)85,72(71(10)81)73(82)83)88-78(68-59-37-28-19-9,69-60-51-43-34-25-16-6)70-61-52-46-40-31-22-13-3/h72H,11-70H2,1-10H3,(H,82,83)(H,84,85)(H,86,87)
InChIKey=XHEGFYOKLQDOPT-UHFFFAOYSA-N

> <PUBCHEM_SUBSTANCE_SYNONYM>
SCHEMBL16116419

> <PUBCHEM_XREF_EXT_ID>
SCHEMBL16116419

> <PUBCHEM_EXT_DATASOURCE_URL>
https://www.surechembl.org/

> <PUBCHEM_EXT_SUBSTANCE_URL>
https://www.surechembl.org/chemical/SCHEMBL16116419

> <PUBCHEM_CID_ASSOCIATIONS>
117605966  1

> <PUBCHEM_COORDINATE_TYPE>
1
3

$$$$
