310933117
  -OEChem-07211613022D

 11 10  0     1  0  0  0  0  0999 V2000
    0.0000   -1.1914    0.0000 Cl  0  0  0  0  0  0  0  0  0  0  0  0
    1.6914    0.0000    0.0000 F   0  0  0  0  0  0  0  0  0  0  0  0
    2.7210   -1.3237    0.0000 F   0  0  0  0  0  0  0  0  0  0  0  0
    3.6476   -1.0296    0.0000 N   0  0  3  0  0  0  0  0  0  0  0  0
    2.2062   -2.2210    0.0000 N   0  0  0  0  0  0  0  0  0  0  0  0
    2.2062   -0.6619    0.0000 C   0  0  0  0  0  0  0  0  0  0  0  0
    3.0152   -0.5001    0.0000 C   0  0  0  0  0  0  0  0  0  0  0  0
    1.8238   -1.4414    0.0000 C   0  0  0  0  0  0  0  0  0  0  0  0
    3.6476   -1.8826    0.0000 C   0  0  0  0  0  0  0  0  0  0  0  0
    3.0152   -2.3827    0.0000 C   0  0  0  0  0  0  0  0  0  0  0  0
    4.4125   -0.6766    0.0000 C   0  0  0  0  0  0  0  0  0  0  0  0
  2  6  1  0  0  0  0
  3  6  1  0  0  0  0
  4  7  1  0  0  0  0
  4  9  1  0  0  0  0
  4 11  1  0  0  0  0
  5  8  1  0  0  0  0
  5 10  1  0  0  0  0
  6  7  1  0  0  0  0
  6  8  1  0  0  0  0
  9 10  1  0  0  0  0
M  END
> <PUBCHEM_COMPOUND_ID_TYPE>
0

> <PUBCHEM_TOTAL_CHARGE>
0

> <PUBCHEM_SUBSTANCE_ID>
310933117

> <PUBCHEM_SUBSTANCE_VERSION>
1

> <PUBCHEM_EXT_DATASOURCE_NAME>
4488

> <PUBCHEM_EXT_DATASOURCE_REGID>
SCHEMBL16110519

> <PUBCHEM_SUBSTANCE_COMMENT>
InChI=1S/C6H12F2N2.ClH/c1-10-3-2-9-4-6(7,8)5-10;/h9H,2-5H2,1H3;1H
InChIKey=OZDULSMDXHYTLG-UHFFFAOYSA-N

> <PUBCHEM_SUBSTANCE_SYNONYM>
SCHEMBL16110519

> <PUBCHEM_XREF_EXT_ID>
SCHEMBL16110519

> <PUBCHEM_EXT_DATASOURCE_URL>
https://www.surechembl.org/

> <PUBCHEM_EXT_SUBSTANCE_URL>
https://www.surechembl.org/chemical/SCHEMBL16110519

> <PUBCHEM_CID_ASSOCIATIONS>
117601574  1
313  2
84716413  2

> <PUBCHEM_COORDINATE_TYPE>
1
3

$$$$
