310935853
  -OEChem-07211613022D

 26 29  0     1  0  0  0  0  0999 V2000
   -0.7145    7.9651    0.0000 F   0  0  0  0  0  0  0  0  0  0  0  0
    1.9940    6.5440    0.0000 O   0  0  0  0  0  0  0  0  0  0  0  0
    3.7844    7.7927    0.0000 O   0  0  0  0  0  0  0  0  0  0  0  0
    3.2995    7.1252    0.0000 N   0  0  0  0  0  0  0  0  0  0  0  0
    1.4289    4.2526    0.0000 N   0  0  0  0  0  0  0  0  0  0  0  0
    0.0000    4.2526    0.0000 N   0  0  0  0  0  0  0  0  0  0  0  0
    2.1434    7.9651    0.0000 C   0  0  3  0  0  0  0  0  0  0  0  0
    1.4289    7.5526    0.0000 C   0  0  0  0  0  0  0  0  0  0  0  0
    0.7145    7.9651    0.0000 C   0  0  0  0  0  0  0  0  0  0  0  0
    2.4790    7.2115    0.0000 C   0  0  0  0  0  0  0  0  0  0  0  0
    0.7145    6.3151    0.0000 C   0  0  0  0  0  0  0  0  0  0  0  0
    1.4289    6.7276    0.0000 C   0  0  0  0  0  0  0  0  0  0  0  0
    1.6585    8.6326    0.0000 C   0  0  0  0  0  0  0  0  0  0  0  0
    2.9280    8.2201    0.0000 C   0  0  0  0  0  0  0  0  0  0  0  0
    0.0000    7.5526    0.0000 C   0  0  0  0  0  0  0  0  0  0  0  0
    0.7145    5.4901    0.0000 C   0  0  0  0  0  0  0  0  0  0  0  0
    0.0000    6.7276    0.0000 C   0  0  0  0  0  0  0  0  0  0  0  0
    2.1434    9.3000    0.0000 C   0  0  0  0  0  0  0  0  0  0  0  0
    2.9280    9.0451    0.0000 C   0  0  0  0  0  0  0  0  0  0  0  0
    0.7145    3.8401    0.0000 C   0  0  0  0  0  0  0  0  0  0  0  0
    0.7145    3.0151    0.0000 C   0  0  0  0  0  0  0  0  0  0  0  0
    1.4289    5.0776    0.0000 C   0  0  0  0  0  0  0  0  0  0  0  0
    0.0000    5.0776    0.0000 C   0  0  0  0  0  0  0  0  0  0  0  0
    0.7145    8.7901    0.0000 C   0  0  0  0  0  0  0  0  0  0  0  0
    1.1270    2.3007    0.0000 C   0  0  0  0  0  0  0  0  0  0  0  0
    0.3020    2.3007    0.0000 C   0  0  0  0  0  0  0  0  0  0  0  0
  1 15  1  0  0  0  0
  2 10  2  0  0  0  0
  3  4  1  0  0  0  0
  4 10  1  0  0  0  0
  5 20  2  0  0  0  0
  5 22  1  0  0  0  0
  6 20  1  0  0  0  0
  6 23  2  0  0  0  0
  7  8  1  0  0  0  0
  7 10  1  0  0  0  0
  7 13  1  0  0  0  0
  7 14  1  0  0  0  0
  8  9  2  0  0  0  0
  8 12  1  0  0  0  0
  9 15  1  0  0  0  0
  9 24  1  0  0  0  0
 11 12  2  0  0  0  0
 11 16  1  0  0  0  0
 11 17  1  0  0  0  0
 13 18  2  0  0  0  0
 14 19  1  0  0  0  0
 15 17  2  0  0  0  0
 16 22  2  0  0  0  0
 16 23  1  0  0  0  0
 18 19  1  0  0  0  0
 20 21  1  0  0  0  0
 21 25  1  0  0  0  0
 21 26  1  0  0  0  0
 25 26  1  0  0  0  0
M  END
> <PUBCHEM_COMPOUND_ID_TYPE>
0

> <PUBCHEM_TOTAL_CHARGE>
0

> <PUBCHEM_SUBSTANCE_ID>
310935853

> <PUBCHEM_SUBSTANCE_VERSION>
1

> <PUBCHEM_EXT_DATASOURCE_NAME>
4488

> <PUBCHEM_EXT_DATASOURCE_REGID>
SCHEMBL16113445

> <PUBCHEM_SUBSTANCE_COMMENT>
InChI=1S/C20H20FN3O2/c1-12-16(20(19(25)24-26)6-2-3-7-20)8-14(9-17(12)21)15-10-22-18(23-11-15)13-4-5-13/h2,6,8-11,13,26H,3-5,7H2,1H3,(H,24,25)
InChIKey=HGIIKPIFHPWWTP-UHFFFAOYSA-N

> <PUBCHEM_SUBSTANCE_SYNONYM>
SCHEMBL16113445

> <PUBCHEM_XREF_EXT_ID>
SCHEMBL16113445

> <PUBCHEM_EXT_DATASOURCE_URL>
https://www.surechembl.org/

> <PUBCHEM_EXT_SUBSTANCE_URL>
https://www.surechembl.org/chemical/SCHEMBL16113445

> <PUBCHEM_CID_ASSOCIATIONS>
117603844  1

> <PUBCHEM_COORDINATE_TYPE>
1
3

$$$$
