310939618
  -OEChem-07211613022D

 36 38  0     1  0  0  0  0  0999 V2000
   -2.1434    1.0312    0.0000 O   0  0  0  0  0  0  0  0  0  0  0  0
    2.8579   -2.6813    0.0000 O   0  0  0  0  0  0  0  0  0  0  0  0
    5.0013    1.0312    0.0000 O   0  0  0  0  0  0  0  0  0  0  0  0
    4.2868    2.2688    0.0000 O   0  0  0  0  0  0  0  0  0  0  0  0
   -3.5724    0.2062    0.0000 O   0  0  0  0  0  0  0  0  0  0  0  0
    0.7145    0.2062    0.0000 N   0  0  0  0  0  0  0  0  0  0  0  0
    1.4289    1.4437    0.0000 N   0  0  0  0  0  0  0  0  0  0  0  0
    2.8579    1.4437    0.0000 N   0  0  0  0  0  0  0  0  0  0  0  0
    1.4369   -2.6813    0.0000 N   0  0  0  0  0  0  0  0  0  0  0  0
   -5.0013    1.0312    0.0000 N   0  0  0  0  0  0  0  0  0  0  0  0
    0.7145    1.0312    0.0000 C   0  0  0  0  0  0  0  0  0  0  0  0
    1.4289   -0.2063    0.0000 C   0  0  0  0  0  0  0  0  0  0  0  0
    2.1434    1.0312    0.0000 C   0  0  0  0  0  0  0  0  0  0  0  0
    0.0000    1.4437    0.0000 C   0  0  0  0  0  0  0  0  0  0  0  0
    1.4289   -1.0313    0.0000 C   0  0  0  0  0  0  0  0  0  0  0  0
    2.1434    0.2062    0.0000 C   0  0  0  0  0  0  0  0  0  0  0  0
   -0.7145    1.0312    0.0000 C   0  0  0  0  0  0  0  0  0  0  0  0
    2.1434   -1.4438    0.0000 C   0  0  0  0  0  0  0  0  0  0  0  0
    0.0000    2.2687    0.0000 C   0  0  0  0  0  0  0  0  0  0  0  0
    0.7224   -1.4438    0.0000 C   0  0  0  0  0  0  0  0  0  0  0  0
   -1.4289    1.4437    0.0000 C   0  0  0  0  0  0  0  0  0  0  0  0
    2.1434   -2.2688    0.0000 C   0  0  0  0  0  0  0  0  0  0  0  0
    3.5724    1.0312    0.0000 C   0  0  0  0  0  0  0  0  0  0  0  0
    2.8579    2.2688    0.0000 C   0  0  0  0  0  0  0  0  0  0  0  0
   -0.7145    2.6812    0.0000 C   0  0  0  0  0  0  0  0  0  0  0  0
   -1.4289    2.2687    0.0000 C   0  0  0  0  0  0  0  0  0  0  0  0
    0.7224   -2.2688    0.0000 C   0  0  0  0  0  0  0  0  0  0  0  0
    4.2868    1.4437    0.0000 C   0  0  0  0  0  0  0  0  0  0  0  0
    3.5724    2.6813    0.0000 C   0  0  0  0  0  0  0  0  0  0  0  0
   -2.8579    1.4437    0.0000 C   0  0  0  0  0  0  0  0  0  0  0  0
   -3.5724    1.0312    0.0000 C   0  0  3  0  0  0  0  0  0  0  0  0
    3.5724   -2.2688    0.0000 C   0  0  0  0  0  0  0  0  0  0  0  0
   -4.2868    1.4437    0.0000 C   0  0  0  0  0  0  0  0  0  0  0  0
    5.0013    2.6813    0.0000 C   0  0  0  0  0  0  0  0  0  0  0  0
    5.7158    1.4438    0.0000 C   0  0  0  0  0  0  0  0  0  0  0  0
   -5.7158    1.4437    0.0000 C   0  0  0  0  0  0  0  0  0  0  0  0
  1 21  1  0  0  0  0
  1 30  1  0  0  0  0
  2 22  1  0  0  0  0
  2 32  1  0  0  0  0
  3 28  1  0  0  0  0
  3 35  1  0  0  0  0
  4 29  1  0  0  0  0
  4 34  1  0  0  0  0
  5 31  1  0  0  0  0
  6 11  2  0  0  0  0
  6 12  1  0  0  0  0
  7 11  1  0  0  0  0
  7 13  2  0  0  0  0
  8 13  1  0  0  0  0
  8 23  1  0  0  0  0
  8 24  1  0  0  0  0
  9 22  1  0  0  0  0
  9 27  2  0  0  0  0
 10 33  1  0  0  0  0
 10 36  1  0  0  0  0
 11 14  1  0  0  0  0
 12 15  1  0  0  0  0
 12 16  2  0  0  0  0
 13 16  1  0  0  0  0
 14 17  2  0  0  0  0
 14 19  1  0  0  0  0
 15 18  1  0  0  0  0
 15 20  2  0  0  0  0
 17 21  1  0  0  0  0
 18 22  2  0  0  0  0
 19 25  2  0  0  0  0
 20 27  1  0  0  0  0
 21 26  2  0  0  0  0
 23 28  1  0  0  0  0
 24 29  1  0  0  0  0
 25 26  1  0  0  0  0
 30 31  1  0  0  0  0
 31 33  1  0  0  0  0
M  END
> <PUBCHEM_COMPOUND_ID_TYPE>
0

> <PUBCHEM_TOTAL_CHARGE>
0

> <PUBCHEM_SUBSTANCE_ID>
310939618

> <PUBCHEM_SUBSTANCE_VERSION>
1

> <PUBCHEM_EXT_DATASOURCE_NAME>
4488

> <PUBCHEM_EXT_DATASOURCE_REGID>
SCHEMBL16117548

> <PUBCHEM_SUBSTANCE_COMMENT>
InChI=1S/C26H35N5O5/c1-27-17-21(32)18-36-22-7-5-6-20(14-22)26-29-23(19-8-9-28-25(15-19)35-4)16-24(30-26)31(10-12-33-2)11-13-34-3/h5-9,14-16,21,27,32H,10-13,17-18H2,1-4H3
InChIKey=CGEHQPFJKUSLMV-UHFFFAOYSA-N

> <PUBCHEM_SUBSTANCE_SYNONYM>
SCHEMBL16117548

> <PUBCHEM_XREF_EXT_ID>
SCHEMBL16117548

> <PUBCHEM_EXT_DATASOURCE_URL>
https://www.surechembl.org/

> <PUBCHEM_EXT_SUBSTANCE_URL>
https://www.surechembl.org/chemical/SCHEMBL16117548

> <PUBCHEM_CID_ASSOCIATIONS>
85472684  1

> <PUBCHEM_COORDINATE_TYPE>
1
3

$$$$
