310942368
  -OEChem-07211613022D

 36 39  0     1  0  0  0  0  0999 V2000
    3.9770    2.3995    0.0000 F   0  0  0  0  0  0  0  0  0  0  0  0
    5.2941    1.8685    0.0000 F   0  0  0  0  0  0  0  0  0  0  0  0
   -1.0160   -2.3586    0.0000 O   0  0  0  0  0  0  0  0  0  0  0  0
   -2.4556    0.1021    0.0000 O   0  0  0  0  0  0  0  0  0  0  0  0
   -3.8851   -2.3586    0.0000 O   0  0  0  0  0  0  0  0  0  0  0  0
    0.9955   -0.8271    0.0000 N   0  0  0  0  0  0  0  0  0  0  0  0
    1.8021   -1.0006    0.0000 N   0  0  0  0  0  0  0  0  0  0  0  0
   -1.7306   -1.1232    0.0000 N   0  0  0  0  0  0  0  0  0  0  0  0
    3.3643    0.9087    0.0000 N   0  0  0  0  0  0  0  0  0  0  0  0
   -4.5896   -1.1334    0.0000 N   0  0  0  0  0  0  0  0  0  0  0  0
    0.5769   -0.1328    0.0000 C   0  0  0  0  0  0  0  0  0  0  0  0
   -0.3115   -1.1129    0.0000 C   0  0  0  0  0  0  0  0  0  0  0  0
    0.4441   -1.4499    0.0000 C   0  0  0  0  0  0  0  0  0  0  0  0
   -0.2195   -0.2961    0.0000 C   0  0  0  0  0  0  0  0  0  0  0  0
    0.9036    0.6433    0.0000 C   0  0  3  0  0  0  0  0  0  0  0  0
   -1.0160   -1.5111    0.0000 C   0  0  0  0  0  0  0  0  0  0  0  0
    0.7096   -2.2259    0.0000 C   0  0  0  0  0  0  0  0  0  0  0  0
    1.7205    0.7250    0.0000 C   0  0  0  0  0  0  0  0  0  0  0  0
   -0.8424    0.2553    0.0000 C   0  0  0  0  0  0  0  0  0  0  0  0
    2.0574   -1.7766    0.0000 C   0  0  0  0  0  0  0  0  0  0  0  0
    1.5162   -2.3995    0.0000 C   0  0  0  0  0  0  0  0  0  0  0  0
    0.4135    1.3070    0.0000 C   0  0  0  0  0  0  0  0  0  0  0  0
   -3.1704   -1.1334    0.0000 C   0  0  0  0  0  0  0  0  0  0  0  0
    2.0574    1.4805    0.0000 C   0  0  0  0  0  0  0  0  0  0  0  0
    2.2105    0.0613    0.0000 C   0  0  0  0  0  0  0  0  0  0  0  0
   -2.4454   -1.5418    0.0000 C   0  0  0  0  0  0  0  0  0  0  0  0
   -3.1499   -0.3063    0.0000 C   0  0  0  0  0  0  0  0  0  0  0  0
   -3.8851   -1.5111    0.0000 C   0  0  0  0  0  0  0  0  0  0  0  0
    2.8742    1.5622    0.0000 C   0  0  0  0  0  0  0  0  0  0  0  0
    3.0274    0.1531    0.0000 C   0  0  0  0  0  0  0  0  0  0  0  0
   -3.8953    0.0919    0.0000 C   0  0  0  0  0  0  0  0  0  0  0  0
   -4.5794   -0.3063    0.0000 C   0  0  0  0  0  0  0  0  0  0  0  0
    4.1710    0.9904    0.0000 C   0  0  0  0  0  0  0  0  0  0  0  0
   -5.2941    0.1021    0.0000 C   0  0  0  0  0  0  0  0  0  0  0  0
    4.4874    1.7664    0.0000 C   0  0  0  0  0  0  0  0  0  0  0  0
   -2.4556    0.9394    0.0000 C   0  0  0  0  0  0  0  0  0  0  0  0
  1 35  1  0  0  0  0
  2 35  1  0  0  0  0
  3 16  2  0  0  0  0
  4 27  1  0  0  0  0
  4 36  1  0  0  0  0
  5 28  2  0  0  0  0
  6  7  1  0  0  0  0
  6 11  1  0  0  0  0
  6 13  1  0  0  0  0
  7 20  2  0  0  0  0
  8 16  1  0  0  0  0
  8 26  1  0  0  0  0
  9 29  1  0  0  0  0
  9 30  1  0  0  0  0
  9 33  1  0  0  0  0
 10 28  1  0  0  0  0
 10 32  1  0  0  0  0
 11 14  2  0  0  0  0
 11 15  1  0  0  0  0
 12 13  2  0  0  0  0
 12 14  1  0  0  0  0
 12 16  1  0  0  0  0
 13 17  1  0  0  0  0
 14 19  1  0  0  0  0
 15 18  1  0  0  0  0
 15 22  1  0  0  0  0
 17 21  2  0  0  0  0
 18 24  1  0  0  0  0
 18 25  1  0  0  0  0
 20 21  1  0  0  0  0
 23 26  1  0  0  0  0
 23 27  2  0  0  0  0
 23 28  1  0  0  0  0
 24 29  1  0  0  0  0
 25 30  1  0  0  0  0
 27 31  1  0  0  0  0
 31 32  2  0  0  0  0
 32 34  1  0  0  0  0
 33 35  1  0  0  0  0
M  END
> <PUBCHEM_COMPOUND_ID_TYPE>
0

> <PUBCHEM_TOTAL_CHARGE>
0

> <PUBCHEM_SUBSTANCE_ID>
310942368

> <PUBCHEM_SUBSTANCE_VERSION>
1

> <PUBCHEM_EXT_DATASOURCE_NAME>
4488

> <PUBCHEM_EXT_DATASOURCE_REGID>
SCHEMBL16120404

> <PUBCHEM_SUBSTANCE_COMMENT>
InChI=1S/C26H33F2N5O3/c1-15-12-21(36-4)19(25(34)31-15)13-29-26(35)23-17(3)24(33-20(23)6-5-9-30-33)16(2)18-7-10-32(11-8-18)14-22(27)28/h5-6,9,12,16,18,22H,7-8,10-11,13-14H2,1-4H3,(H,29,35)(H,31,34)
InChIKey=GYOAUFHCRSAGTA-UHFFFAOYSA-N

> <PUBCHEM_SUBSTANCE_SYNONYM>
SCHEMBL16120404

> <PUBCHEM_XREF_EXT_ID>
SCHEMBL16120404

> <PUBCHEM_EXT_DATASOURCE_URL>
https://www.surechembl.org/

> <PUBCHEM_EXT_SUBSTANCE_URL>
https://www.surechembl.org/chemical/SCHEMBL16120404

> <PUBCHEM_CID_ASSOCIATIONS>
86299845  1

> <PUBCHEM_COORDINATE_TYPE>
1
3

$$$$
