310934694
  -OEChem-07211613022D

 11 11  0     1  0  0  0  0  0999 V2000
   -0.9280    1.2094    0.0000 N   0  0  3  0  0  0  0  0  0  0  0  0
    1.4290    0.0000    0.0000 N   0  0  0  0  0  0  0  0  0  0  0  0
   -0.7145    0.4125    0.0000 C   0  0  3  0  0  0  0  0  0  0  0  0
   -0.5155    1.9239    0.0000 C   0  0  0  0  0  0  0  0  0  0  0  0
   -1.7249    0.9958    0.0000 C   0  0  0  0  0  0  0  0  0  0  0  0
   -1.5114    0.1990    0.0000 C   0  0  0  0  0  0  0  0  0  0  0  0
    0.0000    0.0000    0.0000 C   0  0  0  0  0  0  0  0  0  0  0  0
   -0.9280    2.6384    0.0000 C   0  0  0  0  0  0  0  0  0  0  0  0
   -0.1030    2.6384    0.0000 C   0  0  0  0  0  0  0  0  0  0  0  0
    0.3095    1.9239    0.0000 C   0  0  0  0  0  0  0  0  0  0  0  0
    0.7145    0.4125    0.0000 C   0  0  0  0  0  0  0  0  0  0  0  0
  1  3  1  0  0  0  0
  1  4  1  0  0  0  0
  1  5  1  0  0  0  0
  2 11  1  0  0  0  0
  3  6  1  0  0  0  0
  3  7  1  0  0  0  0
  4  8  1  0  0  0  0
  4  9  1  0  0  0  0
  4 10  1  0  0  0  0
  5  6  1  0  0  0  0
  7 11  1  0  0  0  0
M  END
> <PUBCHEM_COMPOUND_ID_TYPE>
0

> <PUBCHEM_TOTAL_CHARGE>
0

> <PUBCHEM_SUBSTANCE_ID>
310934694

> <PUBCHEM_SUBSTANCE_VERSION>
1

> <PUBCHEM_EXT_DATASOURCE_NAME>
4488

> <PUBCHEM_EXT_DATASOURCE_REGID>
SCHEMBL16112195

> <PUBCHEM_SUBSTANCE_COMMENT>
InChI=1S/C9H20N2/c1-9(2,3)11-7-5-8(11)4-6-10/h8H,4-7,10H2,1-3H3
InChIKey=DYPQSSUTKZOKID-UHFFFAOYSA-N

> <PUBCHEM_SUBSTANCE_SYNONYM>
SCHEMBL16112195

> <PUBCHEM_XREF_EXT_ID>
SCHEMBL16112195

> <PUBCHEM_EXT_DATASOURCE_URL>
https://www.surechembl.org/

> <PUBCHEM_EXT_SUBSTANCE_URL>
https://www.surechembl.org/chemical/SCHEMBL16112195

> <PUBCHEM_CID_ASSOCIATIONS>
84650454  1

> <PUBCHEM_COORDINATE_TYPE>
1
3

$$$$
