310940816
  -OEChem-07211613022D

 41 44  0     1  0  0  0  0  0999 V2000
    5.1580   -1.4219    0.0000 O   0  0  0  0  0  0  0  0  0  0  0  0
    4.0263    0.5368    0.0000 O   0  0  0  0  0  0  0  0  0  0  0  0
    1.6613   -1.4074    0.0000 O   0  0  0  0  0  0  0  0  0  0  0  0
   -0.4861    0.6529    0.0000 O   0  0  0  0  0  0  0  0  0  0  0  0
    2.3723    3.1485    0.0000 O   0  0  0  0  0  0  0  0  0  0  0  0
   -2.6335   -1.4074    0.0000 O   0  0  0  0  0  0  0  0  0  0  0  0
   -5.4918   -1.4074    0.0000 O   0  0  0  0  0  0  0  0  0  0  0  0
    2.3723   -0.1741    0.0000 N   0  0  0  0  0  0  0  0  0  0  0  0
    0.2249   -0.5804    0.0000 N   0  0  0  0  0  0  0  0  0  0  0  0
   -1.9225   -0.1741    0.0000 N   0  0  0  0  0  0  0  0  0  0  0  0
   -4.0698   -0.5804    0.0000 N   0  0  0  0  0  0  0  0  0  0  0  0
    4.7518   -0.6820    0.0000 C   0  0  3  0  0  0  0  0  0  0  0  0
    4.0119   -0.2902    0.0000 C   0  0  0  0  0  0  0  0  0  0  0  0
    4.3456   -1.3784    0.0000 C   0  0  0  0  0  0  0  0  0  0  0  0
    3.3299   -0.6674    0.0000 C   0  0  3  0  0  0  0  0  0  0  0  0
    5.4918   -0.2612    0.0000 C   0  0  0  0  0  0  0  0  0  0  0  0
    3.3153   -1.7556    0.0000 C   0  0  0  0  0  0  0  0  0  0  0  0
    1.6758   -0.5368    0.0000 C   0  0  0  0  0  0  0  0  0  0  0  0
    0.9504   -0.1451    0.0000 C   0  0  3  0  0  0  0  0  0  0  0  0
    2.6044   -2.1764    0.0000 C   0  0  0  0  0  0  0  0  0  0  0  0
    0.9649    0.6964    0.0000 C   0  0  0  0  0  0  0  0  0  0  0  0
    1.6758    1.1027    0.0000 C   0  0  0  0  0  0  0  0  0  0  0  0
   -0.4861   -0.1596    0.0000 C   0  0  0  0  0  0  0  0  0  0  0  0
    1.8499   -1.8427    0.0000 C   0  0  0  0  0  0  0  0  0  0  0  0
    2.5029   -2.9890    0.0000 C   0  0  0  0  0  0  0  0  0  0  0  0
    1.6903    1.9297    0.0000 C   0  0  0  0  0  0  0  0  0  0  0  0
   -1.1825   -0.5514    0.0000 C   0  0  3  0  0  0  0  0  0  0  0  0
    2.3868    2.3505    0.0000 C   0  0  0  0  0  0  0  0  0  0  0  0
    2.3868    0.6964    0.0000 C   0  0  0  0  0  0  0  0  0  0  0  0
    3.0978    1.9297    0.0000 C   0  0  0  0  0  0  0  0  0  0  0  0
    1.3131   -2.4666    0.0000 C   0  0  0  0  0  0  0  0  0  0  0  0
    1.7049   -3.1485    0.0000 C   0  0  0  0  0  0  0  0  0  0  0  0
    3.0978    1.1027    0.0000 C   0  0  0  0  0  0  0  0  0  0  0  0
   -2.6189   -0.5368    0.0000 C   0  0  0  0  0  0  0  0  0  0  0  0
   -3.3589   -0.1451    0.0000 C   0  0  0  0  0  0  0  0  0  0  0  0
   -1.1970   -1.3929    0.0000 C   0  0  0  0  0  0  0  0  0  0  0  0
    3.8087    2.3505    0.0000 C   0  0  0  0  0  0  0  0  0  0  0  0
   -4.0554   -1.3784    0.0000 C   0  0  0  0  0  0  0  0  0  0  0  0
   -4.7808   -0.1451    0.0000 C   0  0  0  0  0  0  0  0  0  0  0  0
   -4.7663   -1.7992    0.0000 C   0  0  0  0  0  0  0  0  0  0  0  0
   -5.4773   -0.5514    0.0000 C   0  0  0  0  0  0  0  0  0  0  0  0
  1 12  1  0  0  0  0
  1 14  1  0  0  0  0
  2 13  2  0  0  0  0
  3 18  2  0  0  0  0
  4 23  2  0  0  0  0
  5 28  1  0  0  0  0
  6 34  2  0  0  0  0
  7 40  1  0  0  0  0
  7 41  1  0  0  0  0
  8 15  1  0  0  0  0
  8 18  1  0  0  0  0
  9 19  1  0  0  0  0
  9 23  1  0  0  0  0
 10 27  1  0  0  0  0
 10 34  1  0  0  0  0
 11 35  1  0  0  0  0
 11 38  1  0  0  0  0
 11 39  1  0  0  0  0
 12 13  1  0  0  0  0
 12 14  1  0  0  0  0
 12 16  1  0  0  0  0
 13 15  1  0  0  0  0
 15 17  1  0  0  0  0
 17 20  1  0  0  0  0
 18 19  1  0  0  0  0
 19 21  1  0  0  0  0
 20 24  1  0  0  0  0
 20 25  1  0  0  0  0
 21 22  1  0  0  0  0
 22 26  1  0  0  0  0
 22 29  2  0  0  0  0
 23 27  1  0  0  0  0
 24 31  1  0  0  0  0
 25 32  1  0  0  0  0
 26 28  2  0  0  0  0
 27 36  1  0  0  0  0
 28 30  1  0  0  0  0
 29 33  1  0  0  0  0
 30 33  2  0  0  0  0
 30 37  1  0  0  0  0
 31 32  1  0  0  0  0
 34 35  1  0  0  0  0
 38 40  1  0  0  0  0
 39 41  1  0  0  0  0
M  END
> <PUBCHEM_COMPOUND_ID_TYPE>
0

> <PUBCHEM_TOTAL_CHARGE>
0

> <PUBCHEM_SUBSTANCE_ID>
310940816

> <PUBCHEM_SUBSTANCE_VERSION>
1

> <PUBCHEM_EXT_DATASOURCE_NAME>
4488

> <PUBCHEM_EXT_DATASOURCE_REGID>
SCHEMBL16118775

> <PUBCHEM_SUBSTANCE_COMMENT>
InChI=1S/C30H44N4O7/c1-19-8-9-22(16-25(19)35)15-24(33-28(38)20(2)31-26(36)17-34-10-12-40-13-11-34)29(39)32-23(14-21-6-4-5-7-21)27(37)30(3)18-41-30/h8-9,16,20-21,23-24,35H,4-7,10-15,17-18H2,1-3H3,(H,31,36)(H,32,39)(H,33,38)
InChIKey=PJWCHPAWGQORKJ-UHFFFAOYSA-N

> <PUBCHEM_SUBSTANCE_SYNONYM>
SCHEMBL16118775

> <PUBCHEM_XREF_EXT_ID>
SCHEMBL16118775

> <PUBCHEM_EXT_DATASOURCE_URL>
https://www.surechembl.org/

> <PUBCHEM_EXT_SUBSTANCE_URL>
https://www.surechembl.org/chemical/SCHEMBL16118775

> <PUBCHEM_CID_ASSOCIATIONS>
86296538  1

> <PUBCHEM_COORDINATE_TYPE>
1
3

$$$$
