310934240
  -OEChem-07211613022D

 37 41  0     1  0  0  0  0  0999 V2000
    6.2857   -7.8572    0.0000 Cl  0  0  0  0  0  0  0  0  0  0  0  0
    3.4572   -3.6929    0.0000 O   0  0  0  0  0  0  0  0  0  0  0  0
    4.1643   -1.6500    0.0000 O   0  0  0  0  0  0  0  0  0  0  0  0
    2.7107   -6.6000    0.0000 O   0  5  0  0  0  0  0  0  0  0  0  0
    3.4179   -5.3822    0.0000 O   0  0  0  0  0  0  0  0  0  0  0  0
    4.8714   -3.7322    0.0000 N   0  0  0  0  0  0  0  0  0  0  0  0
    3.4179   -2.9072    0.0000 N   0  0  0  0  0  0  0  0  0  0  0  0
    3.4179   -6.2072    0.0000 N   0  3  0  0  0  0  0  0  0  0  0  0
    0.5107   -1.4143    0.0000 N   0  0  0  0  0  0  0  0  0  0  0  0
    0.0000   -2.0821    0.0000 N   0  0  0  0  0  0  0  0  0  0  0  0
    4.8714   -5.3822    0.0000 C   0  0  0  0  0  0  0  0  0  0  0  0
    4.8714   -6.2072    0.0000 C   0  0  0  0  0  0  0  0  0  0  0  0
    4.8714   -2.9072    0.0000 C   0  0  3  0  0  0  0  0  0  0  0  0
    4.1643   -4.1250    0.0000 C   0  0  0  0  0  0  0  0  0  0  0  0
    4.1643   -6.6000    0.0000 C   0  0  0  0  0  0  0  0  0  0  0  0
    4.1250   -4.9500    0.0000 C   0  0  0  0  0  0  0  0  0  0  0  0
    4.1643   -2.4750    0.0000 C   0  0  0  0  0  0  0  0  0  0  0  0
    5.5786   -4.1250    0.0000 C   0  0  0  0  0  0  0  0  0  0  0  0
    5.5786   -4.9893    0.0000 C   0  0  0  0  0  0  0  0  0  0  0  0
    5.5786   -6.6000    0.0000 C   0  0  0  0  0  0  0  0  0  0  0  0
    2.7107   -2.4750    0.0000 C   0  0  0  0  0  0  0  0  0  0  0  0
    5.5786   -2.4750    0.0000 C   0  0  0  0  0  0  0  0  0  0  0  0
    1.2964   -2.5143    0.0000 C   0  0  0  0  0  0  0  0  0  0  0  0
    1.2964   -1.6500    0.0000 C   0  0  0  0  0  0  0  0  0  0  0  0
    4.1643   -7.4250    0.0000 C   0  0  0  0  0  0  0  0  0  0  0  0
    5.5786   -7.4250    0.0000 C   0  0  0  0  0  0  0  0  0  0  0  0
    2.0036   -2.8679    0.0000 C   0  0  0  0  0  0  0  0  0  0  0  0
    4.8714   -7.8572    0.0000 C   0  0  0  0  0  0  0  0  0  0  0  0
    5.5786   -1.6500    0.0000 C   0  0  0  0  0  0  0  0  0  0  0  0
    2.7107   -1.6107    0.0000 C   0  0  0  0  0  0  0  0  0  0  0  0
    2.0036   -1.2179    0.0000 C   0  0  0  0  0  0  0  0  0  0  0  0
    0.5107   -2.7107    0.0000 C   0  0  0  0  0  0  0  0  0  0  0  0
    4.8714   -1.2571    0.0000 C   0  0  0  0  0  0  0  0  0  0  0  0
    6.2857   -1.2571    0.0000 C   0  0  0  0  0  0  0  0  0  0  0  0
    4.8714   -0.4321    0.0000 C   0  0  0  0  0  0  0  0  0  0  0  0
    6.2857   -0.4321    0.0000 C   0  0  0  0  0  0  0  0  0  0  0  0
    5.5786    0.0000    0.0000 C   0  0  0  0  0  0  0  0  0  0  0  0
  1 26  1  0  0  0  0
  2 14  2  0  0  0  0
  3 17  2  0  0  0  0
  4  8  1  0  0  0  0
  5  8  2  0  0  0  0
  6 13  1  0  0  0  0
  6 14  1  0  0  0  0
  6 18  1  0  0  0  0
  7 17  1  0  0  0  0
  7 21  1  0  0  0  0
  8 15  1  0  0  0  0
  9 10  1  0  0  0  0
  9 24  1  0  0  0  0
 10 32  2  0  0  0  0
 11 12  1  0  0  0  0
 11 16  2  0  0  0  0
 11 19  1  0  0  0  0
 12 15  1  0  0  0  0
 12 20  2  0  0  0  0
 13 17  1  0  0  0  0
 13 22  1  0  0  0  0
 14 16  1  0  0  0  0
 15 25  2  0  0  0  0
 18 19  2  0  0  0  0
 20 26  1  0  0  0  0
 21 27  2  0  0  0  0
 21 30  1  0  0  0  0
 22 29  1  0  0  0  0
 23 24  2  0  0  0  0
 23 27  1  0  0  0  0
 23 32  1  0  0  0  0
 24 31  1  0  0  0  0
 25 28  1  0  0  0  0
 26 28  2  0  0  0  0
 29 33  2  0  0  0  0
 29 34  1  0  0  0  0
 30 31  2  0  0  0  0
 33 35  1  0  0  0  0
 34 36  2  0  0  0  0
 35 37  2  0  0  0  0
 36 37  1  0  0  0  0
M  CHG  2   4  -1   8   1
M  END
> <PUBCHEM_COMPOUND_ID_TYPE>
0

> <PUBCHEM_TOTAL_CHARGE>
0

> <PUBCHEM_SUBSTANCE_ID>
310934240

> <PUBCHEM_SUBSTANCE_VERSION>
1

> <PUBCHEM_EXT_DATASOURCE_NAME>
4488

> <PUBCHEM_EXT_DATASOURCE_REGID>
SCHEMBL16111698

> <PUBCHEM_SUBSTANCE_COMMENT>
InChI=1S/C27H20ClN5O4/c28-20-6-9-24(33(36)37)22(15-20)18-10-11-32(26(34)14-18)25(12-17-4-2-1-3-5-17)27(35)30-21-7-8-23-19(13-21)16-29-31-23/h1-11,13-16,25H,12H2,(H,29,31)(H,30,35)
InChIKey=FZRXTVYEJFJWMM-UHFFFAOYSA-N

> <PUBCHEM_SUBSTANCE_SYNONYM>
SCHEMBL16111698

> <PUBCHEM_XREF_EXT_ID>
SCHEMBL16111698

> <PUBCHEM_EXT_DATASOURCE_URL>
https://www.surechembl.org/

> <PUBCHEM_EXT_SUBSTANCE_URL>
https://www.surechembl.org/chemical/SCHEMBL16111698

> <PUBCHEM_CID_ASSOCIATIONS>
86301861  1

> <PUBCHEM_COORDINATE_TYPE>
1
3

$$$$
