310946470
  -OEChem-07211613022D

 19 18  0     1  0  0  0  0  0999 V2000
   -1.4289   11.8710    0.0000 O   0  0  0  0  0  0  0  0  0  0  0  0
    2.8579   11.8710    0.0000 O   0  0  0  0  0  0  0  0  0  0  0  0
   -2.1434   10.6335    0.0000 O   0  0  0  0  0  0  0  0  0  0  0  0
   -3.5724   13.1085    0.0000 O   0  0  0  0  0  0  0  0  0  0  0  0
    3.5724   13.1085    0.0000 O   0  5  0  0  0  0  0  0  0  0  0  0
    2.1434   13.1085    0.0000 O   0  0  0  0  0  0  0  0  0  0  0  0
    2.8579   12.6960    0.0000 N   0  3  0  0  0  0  0  0  0  0  0  0
   -3.5724   11.4585    0.0000 N   0  0  0  0  0  0  0  0  0  0  0  0
   -2.8579   11.8710    0.0000 C   0  0  3  0  0  0  0  0  0  0  0  0
   -2.1434   11.4585    0.0000 C   0  0  0  0  0  0  0  0  0  0  0  0
   -2.8579   12.6960    0.0000 C   0  0  3  0  0  0  0  0  0  0  0  0
    2.1434   11.4585    0.0000 C   0  0  3  0  0  0  0  0  0  0  0  0
    1.4289   11.8710    0.0000 C   0  0  0  0  0  0  0  0  0  0  0  0
   -0.7145   11.4585    0.0000 C   0  0  0  0  0  0  0  0  0  0  0  0
    0.7145   11.4585    0.0000 C   0  0  0  0  0  0  0  0  0  0  0  0
    0.0000   11.8710    0.0000 C   0  0  0  0  0  0  0  0  0  0  0  0
    2.1434   10.6335    0.0000 C   0  0  0  0  0  0  0  0  0  0  0  0
   -2.1434   13.1085    0.0000 C   0  0  0  0  0  0  0  0  0  0  0  0
    2.8579   10.2210    0.0000 C   0  0  0  0  0  0  0  0  0  0  0  0
  1 10  1  0  0  0  0
  1 14  1  0  0  0  0
  2  7  1  0  0  0  0
  2 12  1  0  0  0  0
  3 10  2  0  0  0  0
  4 11  1  0  0  0  0
  5  7  1  0  0  0  0
  6  7  2  0  0  0  0
  8  9  1  0  0  0  0
  9 10  1  0  0  0  0
  9 11  1  0  0  0  0
 11 18  1  0  0  0  0
 12 13  1  0  0  0  0
 12 17  1  0  0  0  0
 13 15  1  0  0  0  0
 14 16  1  0  0  0  0
 15 16  1  0  0  0  0
 17 19  1  0  0  0  0
M  CHG  2   5  -1   7   1
M  END
> <PUBCHEM_COMPOUND_ID_TYPE>
0

> <PUBCHEM_TOTAL_CHARGE>
0

> <PUBCHEM_SUBSTANCE_ID>
310946470

> <PUBCHEM_SUBSTANCE_VERSION>
1

> <PUBCHEM_EXT_DATASOURCE_NAME>
4488

> <PUBCHEM_EXT_DATASOURCE_REGID>
SCHEMBL16124591

> <PUBCHEM_SUBSTANCE_COMMENT>
InChI=1S/C11H22N2O6/c1-3-9(19-13(16)17)6-4-5-7-18-11(15)10(12)8(2)14/h8-10,14H,3-7,12H2,1-2H3
InChIKey=CLWKZVMLTSGHGF-UHFFFAOYSA-N

> <PUBCHEM_SUBSTANCE_SYNONYM>
SCHEMBL16124591

> <PUBCHEM_XREF_EXT_ID>
SCHEMBL16124591

> <PUBCHEM_EXT_DATASOURCE_URL>
https://www.surechembl.org/

> <PUBCHEM_EXT_SUBSTANCE_URL>
https://www.surechembl.org/chemical/SCHEMBL16124591

> <PUBCHEM_CID_ASSOCIATIONS>
117612379  1

> <PUBCHEM_COORDINATE_TYPE>
1
3

$$$$
