310941483
  -OEChem-07211613022D

 18 17  0     1  0  0  0  0  0999 V2000
    0.4553    1.3303    0.0000 Cl  0  0  0  0  0  0  0  0  0  0  0  0
    0.4553    1.3303    0.0000 Cl  0  0  0  0  0  0  0  0  0  0  0  0
    0.4553    1.3303    0.0000 Cl  0  0  0  0  0  0  0  0  0  0  0  0
    0.4553    1.3303    0.0000 S   0  0  0  0  0  0  0  0  0  0  0  0
   -0.3252    1.3303    0.0000 P   0  0  3  0  0  0  0  0  0  0  0  0
    0.4553    1.3303    0.0000 O   0  0  0  0  0  0  0  0  0  0  0  0
    0.4553    1.3303    0.0000 O   0  0  0  0  0  0  0  0  0  0  0  0
    0.4553    1.3303    0.0000 O   0  0  0  0  0  0  0  0  0  0  0  0
    0.0651    0.6563    0.0000 O   0  0  0  0  0  0  0  0  0  0  0  0
   -0.3370    2.1225    0.0000 O   0  0  0  0  0  0  0  0  0  0  0  0
    0.8928   -0.6917    0.0000 O   0  0  0  0  0  0  0  0  0  0  0  0
   -0.3015   -1.4604    0.0000 O   0  0  0  0  0  0  0  0  0  0  0  0
    0.4553    1.3303    0.0000 C   0  0  0  0  0  0  0  0  0  0  0  0
   -0.3252   -0.0295    0.0000 C   0  0  3  0  0  0  0  0  0  0  0  0
    0.0769   -0.7154    0.0000 C   0  0  0  0  0  0  0  0  0  0  0  0
   -1.3422   -0.0295    0.0000 C   0  0  0  0  0  0  0  0  0  0  0  0
    1.3422   -1.3894    0.0000 C   0  0  0  0  0  0  0  0  0  0  0  0
    0.9638   -2.1225    0.0000 C   0  0  0  0  0  0  0  0  0  0  0  0
  1 13  1  0  0  0  0
  2 13  1  0  0  0  0
  3 13  1  0  0  0  0
  4  6  1  0  0  0  0
  4  7  2  0  0  0  0
  4  8  2  0  0  0  0
  4 13  1  0  0  0  0
  5  6  1  0  0  0  0
  5  9  1  0  0  0  0
  5 10  2  0  0  0  0
  9 14  1  0  0  0  0
 11 15  1  0  0  0  0
 11 17  1  0  0  0  0
 12 15  2  0  0  0  0
 14 15  1  0  0  0  0
 14 16  1  0  0  0  0
 17 18  1  0  0  0  0
M  END
> <PUBCHEM_COMPOUND_ID_TYPE>
0

> <PUBCHEM_TOTAL_CHARGE>
0

> <PUBCHEM_SUBSTANCE_ID>
310941483

> <PUBCHEM_SUBSTANCE_VERSION>
1

> <PUBCHEM_EXT_DATASOURCE_NAME>
4488

> <PUBCHEM_EXT_DATASOURCE_REGID>
SCHEMBL16119514

> <PUBCHEM_SUBSTANCE_COMMENT>
InChI=1S/C6H10Cl3O7PS/c1-3-14-5(10)4(2)15-17(11)16-18(12,13)6(7,8)9/h4,17H,3H2,1-2H3
InChIKey=BGMPGTZJWGKOKR-UHFFFAOYSA-N

> <PUBCHEM_SUBSTANCE_SYNONYM>
SCHEMBL16119514

> <PUBCHEM_XREF_EXT_ID>
SCHEMBL16119514

> <PUBCHEM_EXT_DATASOURCE_URL>
https://www.surechembl.org/

> <PUBCHEM_EXT_SUBSTANCE_URL>
https://www.surechembl.org/chemical/SCHEMBL16119514

> <PUBCHEM_CID_ASSOCIATIONS>
117608305  1

> <PUBCHEM_COORDINATE_TYPE>
1
3

$$$$
