310931956
  -OEChem-07211613022D

 18 20  0     1  0  0  0  0  0999 V2000
    4.2571   -1.6373    0.0000 Br  0  0  0  0  0  0  0  0  0  0  0  0
    0.6959   -1.2280    0.0000 O   0  0  0  0  0  0  0  0  0  0  0  0
    0.0000    0.0000    0.0000 O   0  0  0  0  0  0  0  0  0  0  0  0
    1.4327    0.0000    0.0000 N   0  0  0  0  0  0  0  0  0  0  0  0
    2.1490   -1.2280    0.0000 C   0  0  0  0  0  0  0  0  0  0  0  0
    1.4327   -1.6373    0.0000 C   0  0  3  0  0  0  0  0  0  0  0  0
    2.1490   -0.4093    0.0000 C   0  0  0  0  0  0  0  0  0  0  0  0
    1.4327   -2.4560    0.0000 C   0  0  0  0  0  0  0  0  0  0  0  0
    2.8244   -1.6373    0.0000 C   0  0  0  0  0  0  0  0  0  0  0  0
    0.6959   -0.4093    0.0000 C   0  0  0  0  0  0  0  0  0  0  0  0
    2.8244    0.0000    0.0000 C   0  0  0  0  0  0  0  0  0  0  0  0
    3.5407   -1.2280    0.0000 C   0  0  0  0  0  0  0  0  0  0  0  0
    3.5407   -0.4093    0.0000 C   0  0  0  0  0  0  0  0  0  0  0  0
    2.1490   -2.8653    0.0000 C   0  0  0  0  0  0  0  0  0  0  0  0
    0.7164   -2.8653    0.0000 C   0  0  0  0  0  0  0  0  0  0  0  0
    2.1490   -3.6840    0.0000 C   0  0  0  0  0  0  0  0  0  0  0  0
    0.7164   -3.6840    0.0000 C   0  0  0  0  0  0  0  0  0  0  0  0
    1.4327   -4.0933    0.0000 C   0  0  0  0  0  0  0  0  0  0  0  0
  1 12  1  0  0  0  0
  2  6  1  0  0  0  0
  2 10  1  0  0  0  0
  3 10  2  0  0  0  0
  4  7  1  0  0  0  0
  4 10  1  0  0  0  0
  5  6  1  0  0  0  0
  5  7  2  0  0  0  0
  5  9  1  0  0  0  0
  6  8  1  0  0  0  0
  7 11  1  0  0  0  0
  8 14  2  0  0  0  0
  8 15  1  0  0  0  0
  9 12  2  0  0  0  0
 11 13  2  0  0  0  0
 12 13  1  0  0  0  0
 14 16  1  0  0  0  0
 15 17  2  0  0  0  0
 16 18  2  0  0  0  0
 17 18  1  0  0  0  0
M  END
> <PUBCHEM_COMPOUND_ID_TYPE>
0

> <PUBCHEM_TOTAL_CHARGE>
0

> <PUBCHEM_SUBSTANCE_ID>
310931956

> <PUBCHEM_SUBSTANCE_VERSION>
1

> <PUBCHEM_EXT_DATASOURCE_NAME>
4488

> <PUBCHEM_EXT_DATASOURCE_REGID>
SCHEMBL16109293

> <PUBCHEM_SUBSTANCE_COMMENT>
InChI=1S/C14H10BrNO2/c15-10-6-7-12-11(8-10)13(18-14(17)16-12)9-4-2-1-3-5-9/h1-8,13H,(H,16,17)
InChIKey=KJMIRDOFIFHLGV-UHFFFAOYSA-N

> <PUBCHEM_SUBSTANCE_SYNONYM>
SCHEMBL16109293

> <PUBCHEM_XREF_EXT_ID>
SCHEMBL16109293

> <PUBCHEM_EXT_DATASOURCE_URL>
https://www.surechembl.org/

> <PUBCHEM_EXT_SUBSTANCE_URL>
https://www.surechembl.org/chemical/SCHEMBL16109293

> <PUBCHEM_CID_ASSOCIATIONS>
117600605  1

> <PUBCHEM_COORDINATE_TYPE>
1
3

$$$$
