310934148
  -OEChem-07211613022D

 22 24  0     1  0  0  0  0  0999 V2000
    3.4555   -6.0979    0.0000 S   0  0  0  0  0  0  0  0  0  0  0  0
    2.5069   -3.1506    0.0000 O   0  0  0  0  0  0  0  0  0  0  0  0
    1.5922   -4.3701    0.0000 O   0  0  0  0  0  0  0  0  0  0  0  0
    0.0678   -5.0477    0.0000 O   0  0  0  0  0  0  0  0  0  0  0  0
    2.3037   -4.8783    0.0000 N   0  0  0  0  0  0  0  0  0  0  0  0
    2.4053   -2.3376    0.0000 N   0  0  0  0  0  0  0  0  0  0  0  0
    0.7453   -5.5559    0.0000 N   0  0  0  0  0  0  0  0  0  0  0  0
    2.1681   -5.6914    0.0000 C   0  0  3  0  0  0  0  0  0  0  0  0
    1.4906   -5.2171    0.0000 C   0  0  0  0  0  0  0  0  0  0  0  0
    2.9473   -5.4204    0.0000 C   0  0  0  0  0  0  0  0  0  0  0  0
    2.1681   -6.5045    0.0000 C   0  0  0  0  0  0  0  0  0  0  0  0
    1.7616   -3.5232    0.0000 C   0  0  0  0  0  0  0  0  0  0  0  0
    1.5584   -2.2359    0.0000 C   0  0  0  0  0  0  0  0  0  0  0  0
    1.8294   -4.5057    0.0000 C   0  0  0  0  0  0  0  0  0  0  0  0
    1.1857   -2.9473    0.0000 C   0  0  0  0  0  0  0  0  0  0  0  0
    2.9473   -6.7755    0.0000 C   0  0  0  0  0  0  0  0  0  0  0  0
    1.1857   -1.4906    0.0000 C   0  0  0  0  0  0  0  0  0  0  0  0
    0.3726   -1.4229    0.0000 C   0  0  0  0  0  0  0  0  0  0  0  0
    1.6261   -0.7792    0.0000 C   0  0  0  0  0  0  0  0  0  0  0  0
    0.0000   -0.7114    0.0000 C   0  0  0  0  0  0  0  0  0  0  0  0
    1.2534   -0.0339    0.0000 C   0  0  0  0  0  0  0  0  0  0  0  0
    0.4404    0.0000    0.0000 C   0  0  0  0  0  0  0  0  0  0  0  0
  1 10  1  0  0  0  0
  1 16  1  0  0  0  0
  2  6  1  0  0  0  0
  2 12  1  0  0  0  0
  3  9  2  0  0  0  0
  4  7  1  0  0  0  0
  5  8  1  0  0  0  0
  5 14  1  0  0  0  0
  6 13  2  0  0  0  0
  7  9  1  0  0  0  0
  8  9  1  0  0  0  0
  8 10  1  0  0  0  0
  8 11  1  0  0  0  0
 11 16  1  0  0  0  0
 12 14  1  0  0  0  0
 12 15  2  0  0  0  0
 13 15  1  0  0  0  0
 13 17  1  0  0  0  0
 17 18  2  0  0  0  0
 17 19  1  0  0  0  0
 18 20  1  0  0  0  0
 19 21  2  0  0  0  0
 20 22  2  0  0  0  0
 21 22  1  0  0  0  0
M  END
> <PUBCHEM_COMPOUND_ID_TYPE>
0

> <PUBCHEM_TOTAL_CHARGE>
0

> <PUBCHEM_SUBSTANCE_ID>
310934148

> <PUBCHEM_SUBSTANCE_VERSION>
1

> <PUBCHEM_EXT_DATASOURCE_NAME>
4488

> <PUBCHEM_EXT_DATASOURCE_REGID>
SCHEMBL16111598

> <PUBCHEM_SUBSTANCE_COMMENT>
InChI=1S/C15H17N3O3S/c19-14(17-20)15(6-7-22-10-15)16-9-12-8-13(18-21-12)11-4-2-1-3-5-11/h1-5,8,16,20H,6-7,9-10H2,(H,17,19)
InChIKey=WFSRGIGRHCMIQC-UHFFFAOYSA-N

> <PUBCHEM_SUBSTANCE_SYNONYM>
SCHEMBL16111598

> <PUBCHEM_XREF_EXT_ID>
SCHEMBL16111598

> <PUBCHEM_EXT_DATASOURCE_URL>
https://www.surechembl.org/

> <PUBCHEM_EXT_SUBSTANCE_URL>
https://www.surechembl.org/chemical/SCHEMBL16111598

> <PUBCHEM_CID_ASSOCIATIONS>
117602424  1

> <PUBCHEM_COORDINATE_TYPE>
1
3

$$$$
