310941718
  -OEChem-07211613022D

 12 11  0     1  0  0  0  0  0999 V2000
    1.3382   -0.2913    0.0000 P   0  0  3  0  0  0  0  0  0  0  0  0
    0.6218   -0.8108    0.0000 O   0  0  0  0  0  0  0  0  0  0  0  0
    2.0781    0.1338    0.0000 O   0  0  0  0  0  0  0  0  0  0  0  0
    1.3303    0.5667    0.0000 O   0  0  0  0  0  0  0  0  0  0  0  0
    2.0545   -0.7006    0.0000 O   0  0  0  0  0  0  0  0  0  0  0  0
   -0.8344   -0.9367    0.0000 O   0  0  0  0  0  0  0  0  0  0  0  0
   -1.5901    0.3542    0.0000 O   0  0  0  0  0  0  0  0  0  0  0  0
   -0.1259   -0.3463    0.0000 C   0  0  0  0  0  0  0  0  0  0  0  0
   -1.5979   -0.4801    0.0000 C   0  0  0  0  0  0  0  0  0  0  0  0
    2.3537    0.9367    0.0000 C   0  0  0  0  0  0  0  0  0  0  0  0
   -1.9286   -0.6612    0.0000 C   0  0  0  0  0  0  0  0  0  0  0  0
   -2.3537   -0.9131    0.0000 C   0  0  0  0  0  0  0  0  0  0  0  0
  1  2  1  0  0  0  0
  1  3  1  0  0  0  0
  1  4  2  0  0  0  0
  1  5  1  0  0  0  0
  2  8  1  0  0  0  0
  3 10  1  0  0  0  0
  6  8  1  0  0  0  0
  6  9  1  0  0  0  0
  7  9  2  0  0  0  0
  9 11  1  0  0  0  0
 11 12  1  0  0  0  0
M  END
> <PUBCHEM_COMPOUND_ID_TYPE>
0

> <PUBCHEM_TOTAL_CHARGE>
0

> <PUBCHEM_SUBSTANCE_ID>
310941718

> <PUBCHEM_SUBSTANCE_VERSION>
1

> <PUBCHEM_EXT_DATASOURCE_NAME>
4488

> <PUBCHEM_EXT_DATASOURCE_REGID>
SCHEMBL16119749

> <PUBCHEM_SUBSTANCE_COMMENT>
InChI=1S/C5H11O6P/c1-3-5(6)10-4-11-12(7,8)9-2/h3-4H2,1-2H3,(H,7,8)
InChIKey=IEXGNYFTEMJACQ-UHFFFAOYSA-N

> <PUBCHEM_SUBSTANCE_SYNONYM>
SCHEMBL16119749

> <PUBCHEM_XREF_EXT_ID>
SCHEMBL16119749

> <PUBCHEM_EXT_DATASOURCE_URL>
https://www.surechembl.org/

> <PUBCHEM_EXT_SUBSTANCE_URL>
https://www.surechembl.org/chemical/SCHEMBL16119749

> <PUBCHEM_CID_ASSOCIATIONS>
117608489  1

> <PUBCHEM_COORDINATE_TYPE>
1
3

$$$$
