310934700
  -OEChem-07211613022D

 10 10  0     1  0  0  0  0  0999 V2000
    2.9356   -1.4357    0.0000 S   0  0  0  0  0  0  0  0  0  0  0  0
    2.9035    0.0000    0.0000 O   0  0  0  0  0  0  0  0  0  0  0  0
    0.0000   -0.7179    0.0000 O   0  0  0  0  0  0  0  0  0  0  0  0
    0.0000   -2.1428    0.0000 N   0  0  0  0  0  0  0  0  0  0  0  0
    1.2428   -1.4357    0.0000 C   0  0  3  0  0  0  0  0  0  0  0  0
    2.4964   -0.7286    0.0000 C   0  0  3  0  0  0  0  0  0  0  0  0
    1.6821   -0.7286    0.0000 C   0  0  0  0  0  0  0  0  0  0  0  0
    0.4178   -1.4357    0.0000 C   0  0  0  0  0  0  0  0  0  0  0  0
    1.6821   -2.1428    0.0000 C   0  0  0  0  0  0  0  0  0  0  0  0
    2.4964   -2.1428    0.0000 C   0  0  0  0  0  0  0  0  0  0  0  0
  1  6  1  0  0  0  0
  1 10  1  0  0  0  0
  2  6  1  0  0  0  0
  3  8  2  0  0  0  0
  4  8  1  0  0  0  0
  5  7  1  0  0  0  0
  5  8  1  0  0  0  0
  5  9  1  0  0  0  0
  6  7  1  0  0  0  0
  9 10  1  0  0  0  0
M  END
> <PUBCHEM_COMPOUND_ID_TYPE>
0

> <PUBCHEM_TOTAL_CHARGE>
0

> <PUBCHEM_SUBSTANCE_ID>
310934700

> <PUBCHEM_SUBSTANCE_VERSION>
1

> <PUBCHEM_EXT_DATASOURCE_NAME>
4488

> <PUBCHEM_EXT_DATASOURCE_REGID>
SCHEMBL16112201

> <PUBCHEM_SUBSTANCE_COMMENT>
InChI=1S/C6H11NO2S/c7-6(9)4-1-2-10-5(8)3-4/h4-5,8H,1-3H2,(H2,7,9)
InChIKey=WCWNSQBHNBZZSZ-UHFFFAOYSA-N

> <PUBCHEM_SUBSTANCE_SYNONYM>
SCHEMBL16112201

> <PUBCHEM_XREF_EXT_ID>
SCHEMBL16112201

> <PUBCHEM_EXT_DATASOURCE_URL>
https://www.surechembl.org/

> <PUBCHEM_EXT_SUBSTANCE_URL>
https://www.surechembl.org/chemical/SCHEMBL16112201

> <PUBCHEM_CID_ASSOCIATIONS>
117602860  1

> <PUBCHEM_COORDINATE_TYPE>
1
3

$$$$
