310943177
  -OEChem-07211613022D

 36 40  0     1  0  0  0  0  0999 V2000
   -2.1919    1.8020    0.0000 Cl  0  0  0  0  0  0  0  0  0  0  0  0
    4.6926    1.6255    0.0000 F   0  0  0  0  0  0  0  0  0  0  0  0
    5.4870    1.0076    0.0000 F   0  0  0  0  0  0  0  0  0  0  0  0
   -5.4429    1.5961    0.0000 O   0  0  0  0  0  0  0  0  0  0  0  0
   -2.6332   -1.9638    0.0000 O   0  0  0  0  0  0  0  0  0  0  0  0
    1.8093    1.6108    0.0000 O   0  0  0  0  0  0  0  0  0  0  0  0
   -4.0601    0.6693    0.0000 N   0  0  0  0  0  0  0  0  0  0  0  0
   -3.3540   -0.7135    0.0000 N   0  0  0  0  0  0  0  0  0  0  0  0
   -0.4854    1.8168    0.0000 N   0  0  0  0  0  0  0  0  0  0  0  0
    0.9562    0.1398    0.0000 N   0  0  0  0  0  0  0  0  0  0  0  0
    3.9718   -0.4634    0.0000 N   0  0  0  0  0  0  0  0  0  0  0  0
   -3.3393    0.1398    0.0000 C   0  0  0  0  0  0  0  0  0  0  0  0
   -4.8103    0.3310    0.0000 C   0  0  3  0  0  0  0  0  0  0  0  0
   -4.0454    1.5225    0.0000 C   0  0  3  0  0  0  0  0  0  0  0  0
   -1.9124    0.1398    0.0000 C   0  0  0  0  0  0  0  0  0  0  0  0
   -2.6332    0.5517    0.0000 C   0  0  0  0  0  0  0  0  0  0  0  0
   -1.2062    0.5663    0.0000 C   0  0  0  0  0  0  0  0  0  0  0  0
   -2.6185   -1.0959    0.0000 C   0  0  0  0  0  0  0  0  0  0  0  0
   -1.9270   -0.7135    0.0000 C   0  0  0  0  0  0  0  0  0  0  0  0
   -4.9280    0.9341    0.0000 C   0  0  0  0  0  0  0  0  0  0  0  0
   -4.7514    1.3607    0.0000 C   0  0  0  0  0  0  0  0  0  0  0  0
   -5.4870    0.7576    0.0000 C   0  0  0  0  0  0  0  0  0  0  0  0
   -4.7220    1.9638    0.0000 C   0  0  0  0  0  0  0  0  0  0  0  0
   -1.1916    1.4048    0.0000 C   0  0  0  0  0  0  0  0  0  0  0  0
   -0.4560    0.1398    0.0000 C   0  0  0  0  0  0  0  0  0  0  0  0
    0.2207    0.5663    0.0000 C   0  0  0  0  0  0  0  0  0  0  0  0
   -4.0748   -1.1106    0.0000 C   0  0  0  0  0  0  0  0  0  0  0  0
    0.2500    1.3901    0.0000 C   0  0  0  0  0  0  0  0  0  0  0  0
    2.5302    0.3751    0.0000 C   0  0  0  0  0  0  0  0  0  0  0  0
    1.8093    0.7723    0.0000 C   0  0  0  0  0  0  0  0  0  0  0  0
    3.9718    0.3751    0.0000 C   0  0  0  0  0  0  0  0  0  0  0  0
    4.6926    0.8017    0.0000 C   0  0  0  0  0  0  0  0  0  0  0  0
    3.2363    0.7870    0.0000 C   0  0  0  0  0  0  0  0  0  0  0  0
    2.5302   -0.4634    0.0000 C   0  0  0  0  0  0  0  0  0  0  0  0
    3.2657   -0.8753    0.0000 C   0  0  0  0  0  0  0  0  0  0  0  0
    5.4134    0.3604    0.0000 C   0  0  0  0  0  0  0  0  0  0  0  0
  1 24  1  0  0  0  0
  2 32  1  0  0  0  0
  3 32  1  0  0  0  0
  4 22  1  0  0  0  0
  4 23  1  0  0  0  0
  5 18  2  0  0  0  0
  6 30  2  0  0  0  0
  7 12  1  0  0  0  0
  7 13  1  0  0  0  0
  7 14  1  0  0  0  0
  8 12  1  0  0  0  0
  8 18  1  0  0  0  0
  8 27  1  0  0  0  0
  9 24  2  0  0  0  0
  9 28  1  0  0  0  0
 10 26  1  0  0  0  0
 10 30  1  0  0  0  0
 11 31  1  0  0  0  0
 11 35  2  0  0  0  0
 12 16  2  0  0  0  0
 13 20  1  0  0  0  0
 13 22  1  0  0  0  0
 14 21  1  0  0  0  0
 14 23  1  0  0  0  0
 15 16  1  0  0  0  0
 15 17  1  0  0  0  0
 15 19  2  0  0  0  0
 17 24  1  0  0  0  0
 17 25  2  0  0  0  0
 18 19  1  0  0  0  0
 20 21  1  0  0  0  0
 25 26  1  0  0  0  0
 26 28  2  0  0  0  0
 29 30  1  0  0  0  0
 29 33  1  0  0  0  0
 29 34  2  0  0  0  0
 31 32  1  0  0  0  0
 31 33  2  0  0  0  0
 32 36  1  0  0  0  0
 34 35  1  0  0  0  0
M  END
> <PUBCHEM_COMPOUND_ID_TYPE>
0

> <PUBCHEM_TOTAL_CHARGE>
0

> <PUBCHEM_SUBSTANCE_ID>
310943177

> <PUBCHEM_SUBSTANCE_VERSION>
1

> <PUBCHEM_EXT_DATASOURCE_NAME>
4488

> <PUBCHEM_EXT_DATASOURCE_REGID>
SCHEMBL16121237

> <PUBCHEM_SUBSTANCE_COMMENT>
InChI=1S/C25H24ClF2N5O3/c1-25(27,28)20-7-14(5-6-29-20)24(35)31-16-10-19(23(26)30-11-16)15-8-21(32(2)22(34)9-15)33-17-3-4-18(33)13-36-12-17/h5-11,17-18H,3-4,12-13H2,1-2H3,(H,31,35)
InChIKey=AOBDORAYRRAJKK-UHFFFAOYSA-N

> <PUBCHEM_SUBSTANCE_SYNONYM>
SCHEMBL16121237

> <PUBCHEM_XREF_EXT_ID>
SCHEMBL16121237

> <PUBCHEM_EXT_DATASOURCE_URL>
https://www.surechembl.org/

> <PUBCHEM_EXT_SUBSTANCE_URL>
https://www.surechembl.org/chemical/SCHEMBL16121237

> <PUBCHEM_CID_ASSOCIATIONS>
117609605  1

> <PUBCHEM_COORDINATE_TYPE>
1
3

$$$$
