310944127
  -OEChem-07211613022D

 17 19  0     1  0  0  0  0  0999 V2000
   -0.4105   -1.9431    0.0000 F   0  0  0  0  0  0  0  0  0  0  0  0
    1.0016   -1.9431    0.0000 F   0  0  0  0  0  0  0  0  0  0  0  0
    2.4247   -1.1111    0.0000 O   0  0  0  0  0  0  0  0  0  0  0  0
   -1.1220    0.9359    0.0000 N   0  0  0  0  0  0  0  0  0  0  0  0
    0.3011    0.9469    0.0000 N   0  0  0  0  0  0  0  0  0  0  0  0
   -1.2096    1.7570    0.0000 N   0  0  0  0  0  0  0  0  0  0  0  0
   -2.0198    1.9431    0.0000 N   0  0  0  0  0  0  0  0  0  0  0  0
   -2.4247    1.2206    0.0000 N   0  0  0  0  0  0  0  0  0  0  0  0
    1.0126   -0.2901    0.0000 C   0  0  0  0  0  0  0  0  0  0  0  0
    0.3120   -0.6952    0.0000 C   0  0  0  0  0  0  0  0  0  0  0  0
    1.7132   -0.6842    0.0000 C   0  0  3  0  0  0  0  0  0  0  0  0
   -0.4105    0.5419    0.0000 C   0  0  0  0  0  0  0  0  0  0  0  0
   -0.4105   -0.2901    0.0000 C   0  0  0  0  0  0  0  0  0  0  0  0
    1.0126    0.5419    0.0000 C   0  0  0  0  0  0  0  0  0  0  0  0
    2.4138   -0.2901    0.0000 C   0  0  0  0  0  0  0  0  0  0  0  0
    0.3011   -1.5271    0.0000 C   0  0  0  0  0  0  0  0  0  0  0  0
   -1.8774    0.6185    0.0000 C   0  0  0  0  0  0  0  0  0  0  0  0
  1 16  1  0  0  0  0
  2 16  1  0  0  0  0
  3 11  1  0  0  0  0
  3 15  1  0  0  0  0
  4  6  1  0  0  0  0
  4 12  1  0  0  0  0
  4 17  1  0  0  0  0
  5 12  1  0  0  0  0
  5 14  2  0  0  0  0
  6  7  2  0  0  0  0
  7  8  1  0  0  0  0
  8 17  2  0  0  0  0
  9 10  2  0  0  0  0
  9 11  1  0  0  0  0
  9 14  1  0  0  0  0
 10 13  1  0  0  0  0
 10 16  1  0  0  0  0
 11 15  1  0  0  0  0
 12 13  2  0  0  0  0
M  END
> <PUBCHEM_COMPOUND_ID_TYPE>
0

> <PUBCHEM_TOTAL_CHARGE>
0

> <PUBCHEM_SUBSTANCE_ID>
310944127

> <PUBCHEM_SUBSTANCE_VERSION>
1

> <PUBCHEM_EXT_DATASOURCE_NAME>
4488

> <PUBCHEM_EXT_DATASOURCE_REGID>
SCHEMBL16122202

> <PUBCHEM_SUBSTANCE_COMMENT>
InChI=1S/C9H7F2N5O/c10-9(11)5-1-8(16-4-13-14-15-16)12-2-6(5)7-3-17-7/h1-2,4,7,9H,3H2
InChIKey=WIEKFGKNKUVFSY-UHFFFAOYSA-N

> <PUBCHEM_SUBSTANCE_SYNONYM>
SCHEMBL16122202

> <PUBCHEM_XREF_EXT_ID>
SCHEMBL16122202

> <PUBCHEM_EXT_DATASOURCE_URL>
https://www.surechembl.org/

> <PUBCHEM_EXT_SUBSTANCE_URL>
https://www.surechembl.org/chemical/SCHEMBL16122202

> <PUBCHEM_CID_ASSOCIATIONS>
117610408  1

> <PUBCHEM_COORDINATE_TYPE>
1
3

$$$$
