310935684
  -OEChem-07211613022D

 67 73  0     1  0  0  0  0  0999 V2000
    7.9697   -1.0717    0.0000 P   0  0  0  0  0  0  0  0  0  0  0  0
   -2.1434    0.4125    0.0000 P   0  0  0  0  0  0  0  0  0  0  0  0
    7.9697   -0.2467    0.0000 O   0  0  0  0  0  0  0  0  0  0  0  0
    7.1447   -1.0717    0.0000 O   0  0  0  0  0  0  0  0  0  0  0  0
   -1.4290    0.0000    0.0000 O   0  0  0  0  0  0  0  0  0  0  0  0
    5.8263    0.9908    0.0000 O   0  0  0  0  0  0  0  0  0  0  0  0
   -1.7309    1.1270    0.0000 O   0  0  0  0  0  0  0  0  0  0  0  0
    0.0000    0.0000    0.0000 O   0  0  0  0  0  0  0  0  0  0  0  0
    4.3974    0.9908    0.0000 O   0  0  0  0  0  0  0  0  0  0  0  0
    0.7144    1.2375    0.0000 O   0  0  0  0  0  0  0  0  0  0  0  0
    7.2552    0.1658    0.0000 C   0  0  3  0  0  0  0  0  0  0  0  0
    8.7947   -1.0717    0.0000 C   0  0  0  0  0  0  0  0  0  0  0  0
    7.9697   -1.8967    0.0000 C   0  0  0  0  0  0  0  0  0  0  0  0
    6.5408   -0.2467    0.0000 C   0  0  3  0  0  0  0  0  0  0  0  0
    7.2552    0.9908    0.0000 C   0  0  0  0  0  0  0  0  0  0  0  0
    5.8263    0.1658    0.0000 C   0  0  3  0  0  0  0  0  0  0  0  0
   -2.5559   -0.3020    0.0000 C   0  0  0  0  0  0  0  0  0  0  0  0
   -2.8579    0.8250    0.0000 C   0  0  0  0  0  0  0  0  0  0  0  0
    9.2072   -0.3572    0.0000 C   0  0  0  0  0  0  0  0  0  0  0  0
    7.2552   -2.3092    0.0000 C   0  0  0  0  0  0  0  0  0  0  0  0
    9.2072   -1.7862    0.0000 C   0  0  0  0  0  0  0  0  0  0  0  0
    8.6842   -2.3092    0.0000 C   0  0  0  0  0  0  0  0  0  0  0  0
    5.1118   -0.2467    0.0000 C   0  0  0  0  0  0  0  0  0  0  0  0
    7.9697    1.4033    0.0000 C   0  0  0  0  0  0  0  0  0  0  0  0
    6.5408    1.4033    0.0000 C   0  0  0  0  0  0  0  0  0  0  0  0
   -0.7144    0.4125    0.0000 C   0  0  3  0  0  0  0  0  0  0  0  0
    6.5408   -1.0717    0.0000 C   0  0  0  0  0  0  0  0  0  0  0  0
   10.0322   -0.3572    0.0000 C   0  0  0  0  0  0  0  0  0  0  0  0
    7.2552   -3.1342    0.0000 C   0  0  0  0  0  0  0  0  0  0  0  0
   10.0322   -1.7862    0.0000 C   0  0  0  0  0  0  0  0  0  0  0  0
    8.6842   -3.1342    0.0000 C   0  0  0  0  0  0  0  0  0  0  0  0
   -2.1434   -1.0165    0.0000 C   0  0  0  0  0  0  0  0  0  0  0  0
   -2.8579    1.6500    0.0000 C   0  0  0  0  0  0  0  0  0  0  0  0
   -3.3809   -0.3020    0.0000 C   0  0  0  0  0  0  0  0  0  0  0  0
   -3.5724    0.4125    0.0000 C   0  0  0  0  0  0  0  0  0  0  0  0
    5.1118    1.4033    0.0000 C   0  0  0  0  0  0  0  0  0  0  0  0
    5.1118   -1.0717    0.0000 C   0  0  0  0  0  0  0  0  0  0  0  0
    4.3974    0.1658    0.0000 C   0  0  0  0  0  0  0  0  0  0  0  0
   10.4447   -1.0717    0.0000 C   0  0  0  0  0  0  0  0  0  0  0  0
    7.9697   -3.5467    0.0000 C   0  0  0  0  0  0  0  0  0  0  0  0
    7.9697    2.2283    0.0000 C   0  0  0  0  0  0  0  0  0  0  0  0
    6.5408    2.2283    0.0000 C   0  0  0  0  0  0  0  0  0  0  0  0
    5.1118    2.2283    0.0000 C   0  0  0  0  0  0  0  0  0  0  0  0
   -2.5559   -1.7309    0.0000 C   0  0  0  0  0  0  0  0  0  0  0  0
   -3.5724    2.0625    0.0000 C   0  0  0  0  0  0  0  0  0  0  0  0
   -3.7934   -1.0165    0.0000 C   0  0  0  0  0  0  0  0  0  0  0  0
   -4.2868    0.8250    0.0000 C   0  0  0  0  0  0  0  0  0  0  0  0
    7.2552    2.6408    0.0000 C   0  0  0  0  0  0  0  0  0  0  0  0
   -0.7144    1.2375    0.0000 C   0  0  0  0  0  0  0  0  0  0  0  0
   -3.3809   -1.7309    0.0000 C   0  0  0  0  0  0  0  0  0  0  0  0
   -4.2868    1.6500    0.0000 C   0  0  0  0  0  0  0  0  0  0  0  0
    4.3974   -1.4842    0.0000 C   0  0  0  0  0  0  0  0  0  0  0  0
    3.6829   -0.2467    0.0000 C   0  0  0  0  0  0  0  0  0  0  0  0
    0.7144    0.4125    0.0000 C   0  0  0  0  0  0  0  0  0  0  0  0
    3.6829   -1.0717    0.0000 C   0  0  0  0  0  0  0  0  0  0  0  0
    1.4290    0.0000    0.0000 C   0  0  0  0  0  0  0  0  0  0  0  0
    4.3974    2.6408    0.0000 C   0  0  0  0  0  0  0  0  0  0  0  0
    5.8263    2.6408    0.0000 C   0  0  0  0  0  0  0  0  0  0  0  0
    4.3974    3.4658    0.0000 C   0  0  0  0  0  0  0  0  0  0  0  0
    5.8263    3.4658    0.0000 C   0  0  0  0  0  0  0  0  0  0  0  0
    0.0000    1.6500    0.0000 C   0  0  0  0  0  0  0  0  0  0  0  0
    2.1434    0.4125    0.0000 C   0  0  0  0  0  0  0  0  0  0  0  0
    1.4290   -0.8250    0.0000 C   0  0  0  0  0  0  0  0  0  0  0  0
    5.1118    3.8783    0.0000 C   0  0  0  0  0  0  0  0  0  0  0  0
    2.8579    0.0000    0.0000 C   0  0  0  0  0  0  0  0  0  0  0  0
    2.1434   -1.2375    0.0000 C   0  0  0  0  0  0  0  0  0  0  0  0
    2.8579   -0.8250    0.0000 C   0  0  0  0  0  0  0  0  0  0  0  0
  1  3  1  0  0  0  0
  1  4  2  0  0  0  0
  1 12  1  0  0  0  0
  1 13  1  0  0  0  0
  2  5  1  0  0  0  0
  2  7  2  0  0  0  0
  2 17  1  0  0  0  0
  2 18  1  0  0  0  0
  3 11  1  0  0  0  0
  5 26  1  0  0  0  0
  6 16  1  0  0  0  0
  6 36  1  0  0  0  0
  8 26  1  0  0  0  0
  8 54  1  0  0  0  0
  9 36  2  0  0  0  0
 10 54  2  0  0  0  0
 11 14  1  0  0  0  0
 11 15  1  0  0  0  0
 12 19  2  0  0  0  0
 12 21  1  0  0  0  0
 13 20  2  0  0  0  0
 13 22  1  0  0  0  0
 14 16  1  0  0  0  0
 14 27  1  0  0  0  0
 15 24  2  0  0  0  0
 15 25  1  0  0  0  0
 16 23  1  0  0  0  0
 17 32  2  0  0  0  0
 17 34  1  0  0  0  0
 18 33  2  0  0  0  0
 18 35  1  0  0  0  0
 19 28  1  0  0  0  0
 20 29  1  0  0  0  0
 21 30  2  0  0  0  0
 22 31  2  0  0  0  0
 23 37  2  0  0  0  0
 23 38  1  0  0  0  0
 24 41  1  0  0  0  0
 25 42  2  0  0  0  0
 26 49  1  0  0  0  0
 28 39  2  0  0  0  0
 29 40  2  0  0  0  0
 30 39  1  0  0  0  0
 31 40  1  0  0  0  0
 32 44  1  0  0  0  0
 33 45  1  0  0  0  0
 34 46  2  0  0  0  0
 35 47  2  0  0  0  0
 36 43  1  0  0  0  0
 37 52  1  0  0  0  0
 38 53  2  0  0  0  0
 41 48  2  0  0  0  0
 42 48  1  0  0  0  0
 43 57  2  0  0  0  0
 43 58  1  0  0  0  0
 44 50  2  0  0  0  0
 45 51  2  0  0  0  0
 46 50  1  0  0  0  0
 47 51  1  0  0  0  0
 49 61  1  0  0  0  0
 52 55  2  0  0  0  0
 53 55  1  0  0  0  0
 54 56  1  0  0  0  0
 56 62  2  0  0  0  0
 56 63  1  0  0  0  0
 57 59  1  0  0  0  0
 58 60  2  0  0  0  0
 59 64  2  0  0  0  0
 60 64  1  0  0  0  0
 62 65  1  0  0  0  0
 63 66  2  0  0  0  0
 65 67  2  0  0  0  0
 66 67  1  0  0  0  0
M  END
> <PUBCHEM_COMPOUND_ID_TYPE>
0

> <PUBCHEM_TOTAL_CHARGE>
0

> <PUBCHEM_SUBSTANCE_ID>
310935684

> <PUBCHEM_SUBSTANCE_VERSION>
1

> <PUBCHEM_EXT_DATASOURCE_NAME>
4488

> <PUBCHEM_EXT_DATASOURCE_REGID>
SCHEMBL16113267

> <PUBCHEM_SUBSTANCE_COMMENT>
InChI=1S/C35H31O4P.C22H21O4P/c1-27(33(28-17-7-2-8-18-28)38-35(36)30-21-11-4-12-22-30)34(29-19-9-3-10-20-29)39-40(37,31-23-13-5-14-24-31)32-25-15-6-16-26-32;1-2-21(25-22(23)18-12-6-3-7-13-18)26-27(24,19-14-8-4-9-15-19)20-16-10-5-11-17-20/h2-27,33-34H,1H3;3-17,21H,2H2,1H3
InChIKey=NULKSBUGBNMZCH-UHFFFAOYSA-N

> <PUBCHEM_SUBSTANCE_SYNONYM>
SCHEMBL16113267

> <PUBCHEM_XREF_EXT_ID>
SCHEMBL16113267

> <PUBCHEM_EXT_DATASOURCE_URL>
https://www.surechembl.org/

> <PUBCHEM_EXT_SUBSTANCE_URL>
https://www.surechembl.org/chemical/SCHEMBL16113267

> <PUBCHEM_CID_ASSOCIATIONS>
117603692  1
90415774  2
117603693  2

> <PUBCHEM_COORDINATE_TYPE>
1
3

$$$$
