310939562
  -OEChem-07211613022D

 37 40  0     1  0  0  0  0  0999 V2000
   -0.3578    3.0937    0.0000 Cl  0  0  0  0  0  0  0  0  0  0  0  0
   -1.7867    0.6187    0.0000 O   0  0  0  0  0  0  0  0  0  0  0  0
    3.9290   -2.6812    0.0000 O   0  0  0  0  0  0  0  0  0  0  0  0
   -3.2157   -0.2063    0.0000 O   0  0  0  0  0  0  0  0  0  0  0  0
    1.7856    1.0312    0.0000 N   0  0  0  0  0  0  0  0  0  0  0  0
    1.0711   -0.2063    0.0000 N   0  0  0  0  0  0  0  0  0  0  0  0
    1.7856   -1.4438    0.0000 N   0  0  0  0  0  0  0  0  0  0  0  0
    4.6390    1.8485    0.0000 N   0  0  0  0  0  0  0  0  0  0  0  0
   -4.6446    0.6187    0.0000 N   0  0  0  0  0  0  0  0  0  0  0  0
    2.5001    0.6187    0.0000 C   0  0  0  0  0  0  0  0  0  0  0  0
    1.7856   -0.6188    0.0000 C   0  0  0  0  0  0  0  0  0  0  0  0
    2.5001   -0.2063    0.0000 C   0  0  0  0  0  0  0  0  0  0  0  0
    1.0711    0.6187    0.0000 C   0  0  0  0  0  0  0  0  0  0  0  0
    3.2146    1.0312    0.0000 C   0  0  0  0  0  0  0  0  0  0  0  0
    0.3567    1.0312    0.0000 C   0  0  0  0  0  0  0  0  0  0  0  0
    2.5001   -1.8563    0.0000 C   0  0  0  0  0  0  0  0  0  0  0  0
   -0.3578    0.6187    0.0000 C   0  0  0  0  0  0  0  0  0  0  0  0
    3.2146    1.8563    0.0000 C   0  0  0  0  0  0  0  0  0  0  0  0
    3.9290    0.6187    0.0000 C   0  0  0  0  0  0  0  0  0  0  0  0
    0.3567    1.8562    0.0000 C   0  0  0  0  0  0  0  0  0  0  0  0
   -1.0723    1.0312    0.0000 C   0  0  0  0  0  0  0  0  0  0  0  0
    3.2146   -0.6187    0.0000 C   0  0  0  0  0  0  0  0  0  0  0  0
   -0.3578    2.2687    0.0000 C   0  0  0  0  0  0  0  0  0  0  0  0
    3.9290    2.2610    0.0000 C   0  0  0  0  0  0  0  0  0  0  0  0
    4.6435    1.0312    0.0000 C   0  0  0  0  0  0  0  0  0  0  0  0
   -1.0723    1.8562    0.0000 C   0  0  0  0  0  0  0  0  0  0  0  0
    1.0711   -1.8563    0.0000 C   0  0  0  0  0  0  0  0  0  0  0  0
    2.5001   -2.6812    0.0000 C   0  0  0  0  0  0  0  0  0  0  0  0
    3.2146   -1.4437    0.0000 C   0  0  0  0  0  0  0  0  0  0  0  0
    3.2146   -3.0937    0.0000 C   0  0  0  0  0  0  0  0  0  0  0  0
    3.9290   -1.8563    0.0000 C   0  0  0  0  0  0  0  0  0  0  0  0
    3.9335    3.0860    0.0000 C   0  0  0  0  0  0  0  0  0  0  0  0
    5.3591    0.6207    0.0000 C   0  0  0  0  0  0  0  0  0  0  0  0
   -2.5012    1.0312    0.0000 C   0  0  0  0  0  0  0  0  0  0  0  0
   -3.2157    0.6187    0.0000 C   0  0  3  0  0  0  0  0  0  0  0  0
   -3.9302    1.0312    0.0000 C   0  0  0  0  0  0  0  0  0  0  0  0
   -5.3591    1.0312    0.0000 C   0  0  0  0  0  0  0  0  0  0  0  0
  1 23  1  0  0  0  0
  2 21  1  0  0  0  0
  2 34  1  0  0  0  0
  3 30  1  0  0  0  0
  3 31  1  0  0  0  0
  4 35  1  0  0  0  0
  5 10  1  0  0  0  0
  5 13  2  0  0  0  0
  6 11  2  0  0  0  0
  6 13  1  0  0  0  0
  7 11  1  0  0  0  0
  7 16  1  0  0  0  0
  7 27  1  0  0  0  0
  8 24  2  0  0  0  0
  8 25  1  0  0  0  0
  9 36  1  0  0  0  0
  9 37  1  0  0  0  0
 10 12  2  0  0  0  0
 10 14  1  0  0  0  0
 11 12  1  0  0  0  0
 12 22  1  0  0  0  0
 13 15  1  0  0  0  0
 14 18  2  0  0  0  0
 14 19  1  0  0  0  0
 15 17  2  0  0  0  0
 15 20  1  0  0  0  0
 16 28  1  0  0  0  0
 16 29  1  0  0  0  0
 17 21  1  0  0  0  0
 18 24  1  0  0  0  0
 19 25  2  0  0  0  0
 20 23  2  0  0  0  0
 21 26  2  0  0  0  0
 23 26  1  0  0  0  0
 24 32  1  0  0  0  0
 25 33  1  0  0  0  0
 28 30  1  0  0  0  0
 29 31  1  0  0  0  0
 34 35  1  0  0  0  0
 35 36  1  0  0  0  0
M  END
> <PUBCHEM_COMPOUND_ID_TYPE>
0

> <PUBCHEM_TOTAL_CHARGE>
0

> <PUBCHEM_SUBSTANCE_ID>
310939562

> <PUBCHEM_SUBSTANCE_VERSION>
1

> <PUBCHEM_EXT_DATASOURCE_NAME>
4488

> <PUBCHEM_EXT_DATASOURCE_REGID>
SCHEMBL16117491

> <PUBCHEM_SUBSTANCE_COMMENT>
InChI=1S/C28H36ClN5O3/c1-17-10-20(11-18(2)31-17)26-19(3)28(34(5)23-6-8-36-9-7-23)33-27(32-26)21-12-22(29)14-25(13-21)37-16-24(35)15-30-4/h10-14,23-24,30,35H,6-9,15-16H2,1-5H3
InChIKey=FQCCIPMERXYWCX-UHFFFAOYSA-N

> <PUBCHEM_SUBSTANCE_SYNONYM>
SCHEMBL16117491

> <PUBCHEM_XREF_EXT_ID>
SCHEMBL16117491

> <PUBCHEM_EXT_DATASOURCE_URL>
https://www.surechembl.org/

> <PUBCHEM_EXT_SUBSTANCE_URL>
https://www.surechembl.org/chemical/SCHEMBL16117491

> <PUBCHEM_CID_ASSOCIATIONS>
85472807  1

> <PUBCHEM_COORDINATE_TYPE>
1
3

$$$$
