310931950
  -OEChem-07211613022D

 18 19  0     1  0  0  0  0  0999 V2000
    2.1947   -1.4631    0.0000 S   0  0  0  0  0  0  0  0  0  0  0  0
    0.0000   -2.7710    0.0000 O   0  0  0  0  0  0  0  0  0  0  0  0
    4.3228   -1.9508    0.0000 O   0  0  0  0  0  0  0  0  0  0  0  0
    5.0322   -3.1923    0.0000 O   0  0  0  0  0  0  0  0  0  0  0  0
    3.5469   -1.4631    0.0000 N   0  0  0  0  0  0  0  0  0  0  0  0
    1.4187   -4.4337    0.0000 N   0  0  0  0  0  0  0  0  0  0  0  0
    2.8819   -2.7710    0.0000 C   0  0  3  0  0  0  0  0  0  0  0  0
    2.8819   -1.9508    0.0000 C   0  0  0  0  0  0  0  0  0  0  0  0
    2.1503   -3.1923    0.0000 C   0  0  0  0  0  0  0  0  0  0  0  0
    2.4607   -0.6650    0.0000 C   0  0  0  0  0  0  0  0  0  0  0  0
    3.5912   -3.1923    0.0000 C   0  0  0  0  0  0  0  0  0  0  0  0
    1.4187   -2.7932    0.0000 C   0  0  0  0  0  0  0  0  0  0  0  0
    2.1282   -4.0346    0.0000 C   0  0  0  0  0  0  0  0  0  0  0  0
    3.2809   -0.6650    0.0000 C   0  0  0  0  0  0  0  0  0  0  0  0
    0.7094   -3.1923    0.0000 C   0  0  0  0  0  0  0  0  0  0  0  0
    4.3228   -2.7710    0.0000 C   0  0  0  0  0  0  0  0  0  0  0  0
    0.6872   -4.0346    0.0000 C   0  0  0  0  0  0  0  0  0  0  0  0
    1.9729    0.0000    0.0000 C   0  0  0  0  0  0  0  0  0  0  0  0
  1  8  1  0  0  0  0
  1 10  1  0  0  0  0
  2 15  1  0  0  0  0
  3 16  2  0  0  0  0
  4 16  1  0  0  0  0
  5  8  2  0  0  0  0
  5 14  1  0  0  0  0
  6 13  1  0  0  0  0
  6 17  2  0  0  0  0
  7  8  1  0  0  0  0
  7  9  1  0  0  0  0
  7 11  1  0  0  0  0
  9 12  1  0  0  0  0
  9 13  2  0  0  0  0
 10 14  2  0  0  0  0
 10 18  1  0  0  0  0
 11 16  1  0  0  0  0
 12 15  2  0  0  0  0
 15 17  1  0  0  0  0
M  END
> <PUBCHEM_COMPOUND_ID_TYPE>
0

> <PUBCHEM_TOTAL_CHARGE>
0

> <PUBCHEM_SUBSTANCE_ID>
310931950

> <PUBCHEM_SUBSTANCE_VERSION>
1

> <PUBCHEM_EXT_DATASOURCE_NAME>
4488

> <PUBCHEM_EXT_DATASOURCE_REGID>
SCHEMBL16109287

> <PUBCHEM_SUBSTANCE_COMMENT>
InChI=1S/C12H12N2O3S/c1-7-4-14-12(18-7)10(3-11(16)17)8-2-9(15)6-13-5-8/h2,4-6,10,15H,3H2,1H3,(H,16,17)
InChIKey=DQPZZPAOJJGEAK-UHFFFAOYSA-N

> <PUBCHEM_SUBSTANCE_SYNONYM>
SCHEMBL16109287

> <PUBCHEM_XREF_EXT_ID>
SCHEMBL16109287

> <PUBCHEM_EXT_DATASOURCE_URL>
https://www.surechembl.org/

> <PUBCHEM_EXT_SUBSTANCE_URL>
https://www.surechembl.org/chemical/SCHEMBL16109287

> <PUBCHEM_CID_ASSOCIATIONS>
117600599  1

> <PUBCHEM_COORDINATE_TYPE>
1
3

$$$$
