310933195
  -OEChem-07211613022D

 26 29  0     1  0  0  0  0  0999 V2000
    3.5604   -1.6184    0.0000 O   0  0  0  0  0  0  0  0  0  0  0  0
    4.6808   -3.5853    0.0000 O   0  0  0  0  0  0  0  0  0  0  0  0
    5.4029   -2.3404    0.0000 O   0  0  0  0  0  0  0  0  0  0  0  0
    0.7968    0.0000    0.0000 O   0  0  0  0  0  0  0  0  0  0  0  0
    3.1371   -2.3404    0.0000 C   0  0  3  0  0  0  0  0  0  0  0  0
    3.9837   -2.3404    0.0000 C   0  0  3  0  0  0  0  0  0  0  0  0
    2.5645   -1.7428    0.0000 C   0  0  0  0  0  0  0  0  0  0  0  0
    2.4400   -2.7637    0.0000 C   0  0  0  0  0  0  0  0  0  0  0  0
    4.6808   -2.7637    0.0000 C   0  0  0  0  0  0  0  0  0  0  0  0
    1.7428   -1.9669    0.0000 C   0  0  0  0  0  0  0  0  0  0  0  0
    2.7637   -0.9461    0.0000 C   0  0  0  0  0  0  0  0  0  0  0  0
    2.4151   -3.5853    0.0000 C   0  0  0  0  0  0  0  0  0  0  0  0
    1.7179   -2.3404    0.0000 C   0  0  0  0  0  0  0  0  0  0  0  0
    1.1702   -1.3943    0.0000 C   0  0  0  0  0  0  0  0  0  0  0  0
    2.1910   -0.3734    0.0000 C   0  0  0  0  0  0  0  0  0  0  0  0
    1.7179   -4.0086    0.0000 C   0  0  0  0  0  0  0  0  0  0  0  0
    0.9959   -2.7637    0.0000 C   0  0  0  0  0  0  0  0  0  0  0  0
    1.3943   -0.5975    0.0000 C   0  0  0  0  0  0  0  0  0  0  0  0
    0.9959   -3.5853    0.0000 C   0  0  0  0  0  0  0  0  0  0  0  0
    5.4029   -3.9837    0.0000 C   0  0  0  0  0  0  0  0  0  0  0  0
    6.1498   -3.6351    0.0000 C   0  0  0  0  0  0  0  0  0  0  0  0
    5.4776   -4.8053    0.0000 C   0  0  0  0  0  0  0  0  0  0  0  0
    0.2739   -3.9837    0.0000 C   0  0  0  0  0  0  0  0  0  0  0  0
    6.6976   -4.2575    0.0000 C   0  0  0  0  0  0  0  0  0  0  0  0
    6.2992   -4.9796    0.0000 C   0  0  0  0  0  0  0  0  0  0  0  0
    0.0000   -0.1992    0.0000 C   0  0  0  0  0  0  0  0  0  0  0  0
  1  5  1  0  0  0  0
  1  6  1  0  0  0  0
  2  9  1  0  0  0  0
  2 20  1  0  0  0  0
  3  9  2  0  0  0  0
  4 18  1  0  0  0  0
  4 26  1  0  0  0  0
  5  6  1  0  0  0  0
  5  7  1  0  0  0  0
  5  8  1  0  0  0  0
  6  9  1  0  0  0  0
  7 10  2  0  0  0  0
  7 11  1  0  0  0  0
  8 12  2  0  0  0  0
  8 13  1  0  0  0  0
 10 14  1  0  0  0  0
 11 15  2  0  0  0  0
 12 16  1  0  0  0  0
 13 17  2  0  0  0  0
 14 18  2  0  0  0  0
 15 18  1  0  0  0  0
 16 19  2  0  0  0  0
 17 19  1  0  0  0  0
 19 23  1  0  0  0  0
 20 21  1  0  0  0  0
 20 22  1  0  0  0  0
 21 24  1  0  0  0  0
 22 25  1  0  0  0  0
 24 25  1  0  0  0  0
M  END
> <PUBCHEM_COMPOUND_ID_TYPE>
0

> <PUBCHEM_TOTAL_CHARGE>
0

> <PUBCHEM_SUBSTANCE_ID>
310933195

> <PUBCHEM_SUBSTANCE_VERSION>
1

> <PUBCHEM_EXT_DATASOURCE_NAME>
4488

> <PUBCHEM_EXT_DATASOURCE_REGID>
SCHEMBL16110604

> <PUBCHEM_SUBSTANCE_COMMENT>
InChI=1S/C22H24O4/c1-15-7-9-16(10-8-15)22(17-11-13-18(24-2)14-12-17)20(26-22)21(23)25-19-5-3-4-6-19/h7-14,19-20H,3-6H2,1-2H3
InChIKey=ATEULBHUGXJVHH-UHFFFAOYSA-N

> <PUBCHEM_SUBSTANCE_SYNONYM>
SCHEMBL16110604

> <PUBCHEM_XREF_EXT_ID>
SCHEMBL16110604

> <PUBCHEM_EXT_DATASOURCE_URL>
https://www.surechembl.org/

> <PUBCHEM_EXT_SUBSTANCE_URL>
https://www.surechembl.org/chemical/SCHEMBL16110604

> <PUBCHEM_CID_ASSOCIATIONS>
117601637  1

> <PUBCHEM_COORDINATE_TYPE>
1
3

$$$$
