310945515
  -OEChem-07211613022D

 26 29  0     1  0  0  0  0  0999 V2000
    2.8724    3.0263    0.0000 F   0  0  0  0  0  0  0  0  0  0  0  0
   -2.3009    1.4435    0.0000 O   0  0  0  0  0  0  0  0  0  0  0  0
    0.5276    0.7108    0.0000 N   0  0  0  0  0  0  0  0  0  0  0  0
    2.5647    1.6341    0.0000 N   0  0  0  0  0  0  0  0  0  0  0  0
   -0.2345   -1.3849    0.0000 N   0  0  0  0  0  0  0  0  0  0  0  0
    1.2017    1.2090    0.0000 C   0  0  0  0  0  0  0  0  0  0  0  0
    0.9526    1.9858    0.0000 C   0  0  0  0  0  0  0  0  0  0  0  0
   -0.1319    1.1944    0.0000 C   0  0  0  0  0  0  0  0  0  0  0  0
    0.1173    1.9858    0.0000 C   0  0  0  0  0  0  0  0  0  0  0  0
    2.0078    1.0186    0.0000 C   0  0  0  0  0  0  0  0  0  0  0  0
    1.5095    2.5866    0.0000 C   0  0  0  0  0  0  0  0  0  0  0  0
   -0.9526    1.0479    0.0000 C   0  0  0  0  0  0  0  0  0  0  0  0
    0.5129   -0.1539    0.0000 C   0  0  0  0  0  0  0  0  0  0  0  0
   -0.4250    2.5866    0.0000 C   0  0  0  0  0  0  0  0  0  0  0  0
    2.3009    2.4108    0.0000 C   0  0  0  0  0  0  0  0  0  0  0  0
   -1.4801    1.6341    0.0000 C   0  0  0  0  0  0  0  0  0  0  0  0
   -1.2311    2.4108    0.0000 C   0  0  0  0  0  0  0  0  0  0  0  0
   -0.2199   -0.5496    0.0000 C   0  0  3  0  0  0  0  0  0  0  0  0
    2.3302    0.1685    0.0000 C   0  0  0  0  0  0  0  0  0  0  0  0
   -0.9379   -0.1245    0.0000 C   0  0  0  0  0  0  0  0  0  0  0  0
   -0.9379   -1.7952    0.0000 C   0  0  0  0  0  0  0  0  0  0  0  0
    0.4983   -1.8099    0.0000 C   0  0  0  0  0  0  0  0  0  0  0  0
   -2.8724    2.0591    0.0000 C   0  0  0  0  0  0  0  0  0  0  0  0
   -0.9379   -2.6160    0.0000 C   0  0  0  0  0  0  0  0  0  0  0  0
    0.4836   -2.6160    0.0000 C   0  0  0  0  0  0  0  0  0  0  0  0
   -0.2199   -3.0263    0.0000 C   0  0  0  0  0  0  0  0  0  0  0  0
  1 15  1  0  0  0  0
  2 16  1  0  0  0  0
  2 23  1  0  0  0  0
  3  6  1  0  0  0  0
  3  8  1  0  0  0  0
  3 13  1  0  0  0  0
  4 10  2  0  0  0  0
  4 15  1  0  0  0  0
  5 18  1  0  0  0  0
  5 21  1  0  0  0  0
  5 22  1  0  0  0  0
  6  7  2  0  0  0  0
  6 10  1  0  0  0  0
  7  9  1  0  0  0  0
  7 11  1  0  0  0  0
  8  9  2  0  0  0  0
  8 12  1  0  0  0  0
  9 14  1  0  0  0  0
 10 19  1  0  0  0  0
 11 15  2  0  0  0  0
 12 16  2  0  0  0  0
 13 18  1  0  0  0  0
 14 17  2  0  0  0  0
 16 17  1  0  0  0  0
 18 20  1  0  0  0  0
 21 24  1  0  0  0  0
 22 25  1  0  0  0  0
 24 26  1  0  0  0  0
 25 26  1  0  0  0  0
M  END
> <PUBCHEM_COMPOUND_ID_TYPE>
0

> <PUBCHEM_TOTAL_CHARGE>
0

> <PUBCHEM_SUBSTANCE_ID>
310945515

> <PUBCHEM_SUBSTANCE_VERSION>
1

> <PUBCHEM_EXT_DATASOURCE_NAME>
4488

> <PUBCHEM_EXT_DATASOURCE_REGID>
SCHEMBL16123613

> <PUBCHEM_SUBSTANCE_COMMENT>
InChI=1S/C21H26FN3O/c1-14(24-9-5-4-6-10-24)13-25-19-11-16(26-3)7-8-17(19)18-12-20(22)23-15(2)21(18)25/h7-8,11-12,14H,4-6,9-10,13H2,1-3H3
InChIKey=GVFNKACPOMZIQZ-UHFFFAOYSA-N

> <PUBCHEM_SUBSTANCE_SYNONYM>
SCHEMBL16123613

> <PUBCHEM_XREF_EXT_ID>
SCHEMBL16123613

> <PUBCHEM_EXT_DATASOURCE_URL>
https://www.surechembl.org/

> <PUBCHEM_EXT_SUBSTANCE_URL>
https://www.surechembl.org/chemical/SCHEMBL16123613

> <PUBCHEM_CID_ASSOCIATIONS>
117611556  1

> <PUBCHEM_COORDINATE_TYPE>
1
3

$$$$
