310946614
  -OEChem-07211613022D

 26 26  0     1  0  0  0  0  0999 V2000
   -6.3279   14.0685    0.0000 O   0  0  0  0  0  0  0  0  0  0  0  0
   -7.0424   12.8310    0.0000 O   0  0  0  0  0  0  0  0  0  0  0  0
   -7.7569   12.4185    0.0000 O   0  0  0  0  0  0  0  0  0  0  0  0
   -4.8990   14.0685    0.0000 O   0  0  0  0  0  0  0  0  0  0  0  0
   -4.1845   12.8310    0.0000 O   0  0  0  0  0  0  0  0  0  0  0  0
   -9.9003   10.3560    0.0000 O   0  0  0  0  0  0  0  0  0  0  0  0
   -9.1858    9.1185    0.0000 O   0  5  0  0  0  0  0  0  0  0  0  0
   -8.4713   10.3560    0.0000 O   0  0  0  0  0  0  0  0  0  0  0  0
   -8.4713   13.6560    0.0000 N   0  0  0  0  0  0  0  0  0  0  0  0
   -9.1858    9.9435    0.0000 N   0  3  0  0  0  0  0  0  0  0  0  0
   -7.7569   14.0685    0.0000 C   0  0  3  0  0  0  0  0  0  0  0  0
   -7.0424   13.6560    0.0000 C   0  0  0  0  0  0  0  0  0  0  0  0
   -8.4713   12.8310    0.0000 C   0  0  0  0  0  0  0  0  0  0  0  0
   -7.7569   14.8935    0.0000 C   0  0  0  0  0  0  0  0  0  0  0  0
   -9.1858   14.0685    0.0000 C   0  0  0  0  0  0  0  0  0  0  0  0
   -9.1858   14.8935    0.0000 C   0  0  0  0  0  0  0  0  0  0  0  0
   -5.6135   13.6560    0.0000 C   0  0  3  0  0  0  0  0  0  0  0  0
   -9.1858   12.4185    0.0000 C   0  0  0  0  0  0  0  0  0  0  0  0
   -9.1858   11.5935    0.0000 C   0  0  0  0  0  0  0  0  0  0  0  0
   -4.1845   13.6560    0.0000 C   0  0  0  0  0  0  0  0  0  0  0  0
   -5.6135   12.8310    0.0000 C   0  0  0  0  0  0  0  0  0  0  0  0
   -9.9003   11.1810    0.0000 C   0  0  0  0  0  0  0  0  0  0  0  0
   -3.4700   14.0685    0.0000 C   0  0  0  0  0  0  0  0  0  0  0  0
   -2.7556   13.6560    0.0000 C   0  0  0  0  0  0  0  0  0  0  0  0
   -2.0411   14.0685    0.0000 C   0  0  0  0  0  0  0  0  0  0  0  0
   -1.3266   13.6560    0.0000 C   0  0  0  0  0  0  0  0  0  0  0  0
  1 12  1  0  0  0  0
  1 17  1  0  0  0  0
  2 12  2  0  0  0  0
  3 13  2  0  0  0  0
  4 17  1  0  0  0  0
  4 20  1  0  0  0  0
  5 20  2  0  0  0  0
  6 10  1  0  0  0  0
  6 22  1  0  0  0  0
  7 10  1  0  0  0  0
  8 10  2  0  0  0  0
  9 11  1  0  0  0  0
  9 13  1  0  0  0  0
  9 15  1  0  0  0  0
 11 12  1  0  0  0  0
 11 14  1  0  0  0  0
 13 18  1  0  0  0  0
 14 16  1  0  0  0  0
 15 16  1  0  0  0  0
 17 21  1  0  0  0  0
 18 19  1  0  0  0  0
 19 22  1  0  0  0  0
 20 23  1  0  0  0  0
 23 24  1  0  0  0  0
 24 25  1  0  0  0  0
 25 26  1  0  0  0  0
M  CHG  2   7  -1  10   1
M  END
> <PUBCHEM_COMPOUND_ID_TYPE>
0

> <PUBCHEM_TOTAL_CHARGE>
0

> <PUBCHEM_SUBSTANCE_ID>
310946614

> <PUBCHEM_SUBSTANCE_VERSION>
1

> <PUBCHEM_EXT_DATASOURCE_NAME>
4488

> <PUBCHEM_EXT_DATASOURCE_REGID>
SCHEMBL16124735

> <PUBCHEM_SUBSTANCE_COMMENT>
InChI=1S/C16H26N2O8/c1-3-4-9-15(20)25-12(2)26-16(21)13-7-5-10-17(13)14(19)8-6-11-24-18(22)23/h12-13H,3-11H2,1-2H3
InChIKey=VQIORAMHQQEQSD-UHFFFAOYSA-N

> <PUBCHEM_SUBSTANCE_SYNONYM>
SCHEMBL16124735

> <PUBCHEM_XREF_EXT_ID>
SCHEMBL16124735

> <PUBCHEM_EXT_DATASOURCE_URL>
https://www.surechembl.org/

> <PUBCHEM_EXT_SUBSTANCE_URL>
https://www.surechembl.org/chemical/SCHEMBL16124735

> <PUBCHEM_CID_ASSOCIATIONS>
117612514  1

> <PUBCHEM_COORDINATE_TYPE>
1
3

$$$$
