310932175
  -OEChem-07211613022D

 33 37  0     1  0  0  0  0  0999 V2000
   10.6054   -0.4983    0.0000 O   0  0  0  0  0  0  0  0  0  0  0  0
    6.1078   -0.5933    0.0000 O   0  0  0  0  0  0  0  0  0  0  0  0
    9.6802    0.6442    0.0000 N   0  0  0  0  0  0  0  0  0  0  0  0
    9.7664    1.4647    0.0000 N   0  0  0  0  0  0  0  0  0  0  0  0
    6.8223   -3.4808    0.0000 N   0  0  3  0  0  0  0  0  0  0  0  0
    6.8223   -1.8308    0.0000 N   0  0  0  0  0  0  0  0  0  0  0  0
    8.2512    0.6442    0.0000 N   0  0  0  0  0  0  0  0  0  0  0  0
   15.0883    0.4906    0.0000 N   0  0  0  0  0  0  0  0  0  0  0  0
   10.9859    0.9218    0.0000 C   0  0  0  0  0  0  0  0  0  0  0  0
   10.4338    0.3087    0.0000 C   0  0  0  0  0  0  0  0  0  0  0  0
    8.9657    0.2317    0.0000 C   0  0  0  0  0  0  0  0  0  0  0  0
   11.8064    0.8355    0.0000 C   0  0  0  0  0  0  0  0  0  0  0  0
   10.5734    1.6363    0.0000 C   0  0  0  0  0  0  0  0  0  0  0  0
    7.5368   -0.5933    0.0000 C   0  0  0  0  0  0  0  0  0  0  0  0
    6.8223   -1.0058    0.0000 C   0  0  0  0  0  0  0  0  0  0  0  0
    6.8223   -4.3058    0.0000 C   0  0  0  0  0  0  0  0  0  0  0  0
   12.2913    1.5030    0.0000 C   0  0  0  0  0  0  0  0  0  0  0  0
    6.1078   -3.0683    0.0000 C   0  0  3  0  0  0  0  0  0  0  0  0
    8.9657   -0.5933    0.0000 C   0  0  0  0  0  0  0  0  0  0  0  0
    6.1078   -2.2433    0.0000 C   0  0  0  0  0  0  0  0  0  0  0  0
    7.5368    0.2317    0.0000 C   0  0  0  0  0  0  0  0  0  0  0  0
    8.2512   -1.0058    0.0000 C   0  0  0  0  0  0  0  0  0  0  0  0
   12.1419    0.0819    0.0000 C   0  0  0  0  0  0  0  0  0  0  0  0
    7.5368   -3.0683    0.0000 C   0  0  0  0  0  0  0  0  0  0  0  0
    7.5368   -2.2433    0.0000 C   0  0  0  0  0  0  0  0  0  0  0  0
    7.2348   -5.0202    0.0000 C   0  0  0  0  0  0  0  0  0  0  0  0
    6.4098   -5.0202    0.0000 C   0  0  0  0  0  0  0  0  0  0  0  0
   13.1118    1.4167    0.0000 C   0  0  0  0  0  0  0  0  0  0  0  0
   13.4473    0.6631    0.0000 C   0  0  0  0  0  0  0  0  0  0  0  0
   12.9624   -0.0044    0.0000 C   0  0  0  0  0  0  0  0  0  0  0  0
   11.9557    2.2567    0.0000 C   0  0  0  0  0  0  0  0  0  0  0  0
    5.3933   -3.4808    0.0000 C   0  0  0  0  0  0  0  0  0  0  0  0
   14.2678    0.5768    0.0000 C   0  0  0  0  0  0  0  0  0  0  0  0
  1 10  1  0  0  0  0
  2 15  2  0  0  0  0
  3  4  1  0  0  0  0
  3 10  1  0  0  0  0
  3 11  1  0  0  0  0
  4 13  2  0  0  0  0
  5 16  1  0  0  0  0
  5 18  1  0  0  0  0
  5 24  1  0  0  0  0
  6 15  1  0  0  0  0
  6 20  1  0  0  0  0
  6 25  1  0  0  0  0
  7 11  2  0  0  0  0
  7 21  1  0  0  0  0
  8 33  3  0  0  0  0
  9 10  2  0  0  0  0
  9 12  1  0  0  0  0
  9 13  1  0  0  0  0
 11 19  1  0  0  0  0
 12 17  2  0  0  0  0
 12 23  1  0  0  0  0
 14 15  1  0  0  0  0
 14 21  2  0  0  0  0
 14 22  1  0  0  0  0
 16 26  1  0  0  0  0
 16 27  1  0  0  0  0
 17 28  1  0  0  0  0
 17 31  1  0  0  0  0
 18 20  1  0  0  0  0
 18 32  1  0  0  0  0
 19 22  2  0  0  0  0
 23 30  2  0  0  0  0
 24 25  1  0  0  0  0
 26 27  1  0  0  0  0
 28 29  2  0  0  0  0
 29 30  1  0  0  0  0
 29 33  1  0  0  0  0
M  END
> <PUBCHEM_COMPOUND_ID_TYPE>
0

> <PUBCHEM_TOTAL_CHARGE>
0

> <PUBCHEM_SUBSTANCE_ID>
310932175

> <PUBCHEM_SUBSTANCE_VERSION>
1

> <PUBCHEM_EXT_DATASOURCE_NAME>
4488

> <PUBCHEM_EXT_DATASOURCE_REGID>
SCHEMBL16109529

> <PUBCHEM_SUBSTANCE_COMMENT>
InChI=1S/C25H26N6O2/c1-16-11-18(12-26)3-7-21(16)22-14-28-31(25(22)33)23-8-4-19(13-27-23)24(32)29-9-10-30(17(2)15-29)20-5-6-20/h3-4,7-8,11,13-14,17,20,33H,5-6,9-10,15H2,1-2H3
InChIKey=GHBASXWDGOMQBV-UHFFFAOYSA-N

> <PUBCHEM_SUBSTANCE_SYNONYM>
SCHEMBL16109529

> <PUBCHEM_XREF_EXT_ID>
SCHEMBL16109529

> <PUBCHEM_EXT_DATASOURCE_URL>
https://www.surechembl.org/

> <PUBCHEM_EXT_SUBSTANCE_URL>
https://www.surechembl.org/chemical/SCHEMBL16109529

> <PUBCHEM_CID_ASSOCIATIONS>
117600773  1

> <PUBCHEM_COORDINATE_TYPE>
1
3

$$$$
