310939699
  -OEChem-07211613022D

 34 36  0     1  0  0  0  0  0999 V2000
   -2.1436   13.5092    0.0000 O   0  0  0  0  0  0  0  0  0  0  0  0
   -3.5725   12.6841    0.0000 O   0  0  0  0  0  0  0  0  0  0  0  0
    0.7145   12.6841    0.0000 N   0  0  0  0  0  0  0  0  0  0  0  0
    1.4290   13.9217    0.0000 N   0  0  0  0  0  0  0  0  0  0  0  0
    2.8581   13.9217    0.0000 N   0  0  0  0  0  0  0  0  0  0  0  0
    1.0165   10.1770    0.0000 N   0  0  0  0  0  0  0  0  0  0  0  0
    1.8415   10.1770    0.0000 N   0  0  0  0  0  0  0  0  0  0  0  0
   -5.0015   13.5092    0.0000 N   0  0  0  0  0  0  0  0  0  0  0  0
    1.4290   12.2716    0.0000 C   0  0  0  0  0  0  0  0  0  0  0  0
    0.7145   13.5092    0.0000 C   0  0  0  0  0  0  0  0  0  0  0  0
    1.4290   11.4466    0.0000 C   0  0  0  0  0  0  0  0  0  0  0  0
    2.1435   13.5092    0.0000 C   0  0  0  0  0  0  0  0  0  0  0  0
    0.0000   13.9217    0.0000 C   0  0  0  0  0  0  0  0  0  0  0  0
    2.1435   12.6841    0.0000 C   0  0  0  0  0  0  0  0  0  0  0  0
    0.7615   10.9617    0.0000 C   0  0  0  0  0  0  0  0  0  0  0  0
    2.0965   10.9617    0.0000 C   0  0  0  0  0  0  0  0  0  0  0  0
   -0.7145   13.5092    0.0000 C   0  0  0  0  0  0  0  0  0  0  0  0
    0.0000   14.7467    0.0000 C   0  0  0  0  0  0  0  0  0  0  0  0
   -1.4290   13.9217    0.0000 C   0  0  0  0  0  0  0  0  0  0  0  0
   -0.7145   15.1592    0.0000 C   0  0  0  0  0  0  0  0  0  0  0  0
   -1.4290   14.7467    0.0000 C   0  0  0  0  0  0  0  0  0  0  0  0
    0.6040    9.4625    0.0000 C   0  0  0  0  0  0  0  0  0  0  0  0
    3.5725   13.5092    0.0000 C   0  0  0  0  0  0  0  0  0  0  0  0
    2.8581   14.7467    0.0000 C   0  0  0  0  0  0  0  0  0  0  0  0
    1.0165    8.7479    0.0000 C   0  0  0  0  0  0  0  0  0  0  0  0
    4.2870   13.9217    0.0000 C   0  0  0  0  0  0  0  0  0  0  0  0
   -2.8581   13.9217    0.0000 C   0  0  0  0  0  0  0  0  0  0  0  0
   -3.5725   13.5092    0.0000 C   0  0  3  0  0  0  0  0  0  0  0  0
    1.8415    8.7479    0.0000 C   0  0  0  0  0  0  0  0  0  0  0  0
    0.6040    8.0335    0.0000 C   0  0  0  0  0  0  0  0  0  0  0  0
    5.0015   13.5092    0.0000 C   0  0  0  0  0  0  0  0  0  0  0  0
   -4.2870   13.9217    0.0000 C   0  0  0  0  0  0  0  0  0  0  0  0
    5.7160   13.0966    0.0000 C   0  0  0  0  0  0  0  0  0  0  0  0
   -5.7160   13.9217    0.0000 C   0  0  0  0  0  0  0  0  0  0  0  0
  1 19  1  0  0  0  0
  1 27  1  0  0  0  0
  2 28  1  0  0  0  0
  3  9  1  0  0  0  0
  3 10  2  0  0  0  0
  4 10  1  0  0  0  0
  4 12  2  0  0  0  0
  5 12  1  0  0  0  0
  5 23  1  0  0  0  0
  5 24  1  0  0  0  0
  6  7  1  0  0  0  0
  6 15  1  0  0  0  0
  6 22  1  0  0  0  0
  7 16  2  0  0  0  0
  8 32  1  0  0  0  0
  8 34  1  0  0  0  0
  9 11  1  0  0  0  0
  9 14  2  0  0  0  0
 10 13  1  0  0  0  0
 11 15  2  0  0  0  0
 11 16  1  0  0  0  0
 12 14  1  0  0  0  0
 13 17  2  0  0  0  0
 13 18  1  0  0  0  0
 17 19  1  0  0  0  0
 18 20  2  0  0  0  0
 19 21  2  0  0  0  0
 20 21  1  0  0  0  0
 22 25  1  0  0  0  0
 23 26  1  0  0  0  0
 25 29  1  0  0  0  0
 25 30  1  0  0  0  0
 26 31  1  0  0  0  0
 27 28  1  0  0  0  0
 28 32  1  0  0  0  0
 31 33  3  0  0  0  0
M  END
> <PUBCHEM_COMPOUND_ID_TYPE>
0

> <PUBCHEM_TOTAL_CHARGE>
0

> <PUBCHEM_SUBSTANCE_ID>
310939699

> <PUBCHEM_SUBSTANCE_VERSION>
1

> <PUBCHEM_EXT_DATASOURCE_NAME>
4488

> <PUBCHEM_EXT_DATASOURCE_REGID>
SCHEMBL16117629

> <PUBCHEM_SUBSTANCE_COMMENT>
InChI=1S/C26H34N6O2/c1-6-7-11-31(5)25-13-24(21-14-28-32(17-21)16-19(2)3)29-26(30-25)20-9-8-10-23(12-20)34-18-22(33)15-27-4/h1,8-10,12-14,17,19,22,27,33H,7,11,15-16,18H2,2-5H3
InChIKey=MFDVMLPLWVUXRQ-UHFFFAOYSA-N

> <PUBCHEM_SUBSTANCE_SYNONYM>
SCHEMBL16117629

> <PUBCHEM_XREF_EXT_ID>
SCHEMBL16117629

> <PUBCHEM_EXT_DATASOURCE_URL>
https://www.surechembl.org/

> <PUBCHEM_EXT_SUBSTANCE_URL>
https://www.surechembl.org/chemical/SCHEMBL16117629

> <PUBCHEM_CID_ASSOCIATIONS>
117606929  1

> <PUBCHEM_COORDINATE_TYPE>
1
3

$$$$
