310936081
  -OEChem-07211613022D

 33 35  0     1  0  0  0  0  0999 V2000
    0.5866   -0.5471    0.0000 O   0  0  0  0  0  0  0  0  0  0  0  0
   -0.9783   -1.9991    0.0000 O   0  0  0  0  0  0  0  0  0  0  0  0
    0.4810   -2.7528    0.0000 O   0  0  0  0  0  0  0  0  0  0  0  0
    1.3481    0.7628    0.0000 O   0  0  0  0  0  0  0  0  0  0  0  0
   -0.0809    3.2378    0.0000 O   0  0  0  0  0  0  0  0  0  0  0  0
    4.8984    2.2982    0.0000 O   0  0  0  0  0  0  0  0  0  0  0  0
    5.6129    1.0607    0.0000 O   0  0  0  0  0  0  0  0  0  0  0  0
   -0.0809    0.7628    0.0000 N   0  0  0  0  0  0  0  0  0  0  0  0
    0.6336    2.0003    0.0000 N   0  0  0  0  0  0  0  0  0  0  0  0
    4.1840    1.0607    0.0000 N   0  0  0  0  0  0  0  0  0  0  0  0
   -0.0809   -0.0622    0.0000 C   0  0  3  0  0  0  0  0  0  0  0  0
    0.3316   -1.3317    0.0000 C   0  0  3  0  0  0  0  0  0  0  0  0
   -0.4934   -1.3317    0.0000 C   0  0  3  0  0  0  0  0  0  0  0  0
   -0.7483   -0.5471    0.0000 C   0  0  0  0  0  0  0  0  0  0  0  0
    0.8166   -1.9991    0.0000 C   0  0  0  0  0  0  0  0  0  0  0  0
    0.6336    1.1753    0.0000 C   0  0  0  0  0  0  0  0  0  0  0  0
   -0.7953    1.1753    0.0000 C   0  0  0  0  0  0  0  0  0  0  0  0
   -0.7953    2.0003    0.0000 C   0  0  0  0  0  0  0  0  0  0  0  0
   -0.0809    2.4128    0.0000 C   0  0  0  0  0  0  0  0  0  0  0  0
    4.8984   -0.1768    0.0000 C   0  0  0  0  0  0  0  0  0  0  0  0
    4.8984   -1.0018    0.0000 C   0  0  0  0  0  0  0  0  0  0  0  0
    4.1840    0.2357    0.0000 C   0  0  0  0  0  0  0  0  0  0  0  0
    5.6129    0.2357    0.0000 C   0  0  0  0  0  0  0  0  0  0  0  0
    4.1840   -1.4143    0.0000 C   0  0  0  0  0  0  0  0  0  0  0  0
    3.4695   -0.1768    0.0000 C   0  0  0  0  0  0  0  0  0  0  0  0
    5.6129   -1.4143    0.0000 C   0  0  0  0  0  0  0  0  0  0  0  0
    3.4695   -1.0018    0.0000 C   0  0  0  0  0  0  0  0  0  0  0  0
    6.3274   -0.1768    0.0000 C   0  0  0  0  0  0  0  0  0  0  0  0
    6.3274   -1.0018    0.0000 C   0  0  0  0  0  0  0  0  0  0  0  0
    4.8984    1.4732    0.0000 C   0  0  0  0  0  0  0  0  0  0  0  0
    0.6542    0.3124    0.0000 H   0  0  0  0  0  0  0  0  0  0  0  0
   -0.0429   -2.0668    0.0000 H   0  0  0  0  0  0  0  0  0  0  0  0
   -1.3082   -1.2026    0.0000 H   0  0  0  0  0  0  0  0  0  0  0  0
  1 11  1  0  0  0  0
  1 12  1  0  0  0  0
 13  2  1  1  0  0  0
  3 15  1  0  0  0  0
  4 16  2  0  0  0  0
  5 19  2  0  0  0  0
  6 30  2  0  0  0  0
  7 30  1  0  0  0  0
  8 11  1  0  0  0  0
  8 16  1  0  0  0  0
  8 17  1  0  0  0  0
  9 16  1  0  0  0  0
  9 19  1  0  0  0  0
 10 22  1  0  0  0  0
 10 30  1  0  0  0  0
 11 14  1  0  0  0  0
 11 31  1  1  0  0  0
 12 13  1  0  0  0  0
 12 15  1  6  0  0  0
 12 32  1  1  0  0  0
 13 14  1  0  0  0  0
 13 33  1  6  0  0  0
 17 18  2  0  0  0  0
 18 19  1  0  0  0  0
 20 21  1  0  0  0  0
 20 22  1  0  0  0  0
 20 23  2  0  0  0  0
 21 24  1  0  0  0  0
 21 26  2  0  0  0  0
 22 25  2  0  0  0  0
 23 28  1  0  0  0  0
 24 27  2  0  0  0  0
 25 27  1  0  0  0  0
 26 29  1  0  0  0  0
 28 29  2  0  0  0  0
M  END
> <PUBCHEM_COMPOUND_ID_TYPE>
0

> <PUBCHEM_TOTAL_CHARGE>
0

> <PUBCHEM_SUBSTANCE_ID>
310936081

> <PUBCHEM_SUBSTANCE_VERSION>
1

> <PUBCHEM_EXT_DATASOURCE_NAME>
4488

> <PUBCHEM_EXT_DATASOURCE_REGID>
SCHEMBL16113687

> <PUBCHEM_SUBSTANCE_COMMENT>
InChI=1S/C11H9NO2.C9H12N2O5/c13-11(14)12-10-7-3-5-8-4-1-2-6-9(8)10;12-4-6-5(13)3-8(16-6)11-2-1-7(14)10-9(11)15/h1-7,12H,(H,13,14);1-2,5-6,8,12-13H,3-4H2,(H,10,14,15)/t;5-,6+,8+/m.0/s1
InChIKey=KWZGEQQMOSOPIA-XUOJEKSQSA-N

> <PUBCHEM_SUBSTANCE_SYNONYM>
SCHEMBL16113687

> <PUBCHEM_XREF_EXT_ID>
SCHEMBL16113687

> <PUBCHEM_EXT_DATASOURCE_URL>
https://www.surechembl.org/

> <PUBCHEM_EXT_SUBSTANCE_URL>
https://www.surechembl.org/chemical/SCHEMBL16113687

> <PUBCHEM_CID_ASSOCIATIONS>
117604047  1
13712  2
18959257  2

> <PUBCHEM_COORDINATE_TYPE>
1
3

> <PUBCHEM_BONDANNOTATIONS>
11  31  5
12  15  6
12  32  5
13  33  6
13  2  5

$$$$
