310932399
  -OEChem-07211613022D

 38 42  0     1  0  0  0  0  0999 V2000
    4.3016   -6.2694    0.0000 O   0  0  0  0  0  0  0  0  0  0  0  0
    2.1509   -6.6356    0.0000 O   0  0  0  0  0  0  0  0  0  0  0  0
    2.8830   -7.9169    0.0000 O   0  0  0  0  0  0  0  0  0  0  0  0
    5.0338   -4.9881    0.0000 O   0  0  0  0  0  0  0  0  0  0  0  0
    2.3339   -5.1712    0.0000 O   0  0  0  0  0  0  0  0  0  0  0  0
    2.8830   -2.9288    0.0000 O   0  0  0  0  0  0  0  0  0  0  0  0
    3.5694   -2.5169    0.0000 O   0  0  0  0  0  0  0  0  0  0  0  0
    3.5694   -4.1644    0.0000 N   0  0  0  0  0  0  0  0  0  0  0  0
    5.0338   -2.5169    0.0000 N   0  0  0  0  0  0  0  0  0  0  0  0
    3.5694   -4.9881    0.0000 C   0  0  3  0  0  0  0  0  0  0  0  0
    2.8830   -6.2237    0.0000 C   0  0  3  0  0  0  0  0  0  0  0  0
    2.8830   -5.4457    0.0000 C   0  0  3  0  0  0  0  0  0  0  0  0
    3.6152   -6.6356    0.0000 C   0  0  3  0  0  0  0  0  0  0  0  0
    4.3016   -5.4000    0.0000 C   0  0  3  0  0  0  0  0  0  0  0  0
    2.8830   -3.7525    0.0000 C   0  0  0  0  0  0  0  0  0  0  0  0
    2.1509   -7.5050    0.0000 C   0  0  3  0  0  0  0  0  0  0  0  0
    3.6152   -7.4592    0.0000 C   0  0  0  0  0  0  0  0  0  0  0  0
    4.3016   -3.7525    0.0000 C   0  0  0  0  0  0  0  0  0  0  0  0
    2.1509   -4.1644    0.0000 C   0  0  0  0  0  0  0  0  0  0  0  0
    1.4644   -7.9169    0.0000 C   0  0  0  0  0  0  0  0  0  0  0  0
    4.3016   -2.9288    0.0000 C   0  0  0  0  0  0  0  0  0  0  0  0
    1.4187   -3.7525    0.0000 C   0  0  0  0  0  0  0  0  0  0  0  0
    2.1509   -4.9881    0.0000 C   0  0  0  0  0  0  0  0  0  0  0  0
    1.4644   -8.7406    0.0000 C   0  0  0  0  0  0  0  0  0  0  0  0
    0.7322   -7.5050    0.0000 C   0  0  0  0  0  0  0  0  0  0  0  0
    5.0338   -4.1644    0.0000 C   0  0  0  0  0  0  0  0  0  0  0  0
    0.7322   -4.1644    0.0000 C   0  0  0  0  0  0  0  0  0  0  0  0
    1.4187   -5.4000    0.0000 C   0  0  0  0  0  0  0  0  0  0  0  0
    0.7322   -9.1525    0.0000 C   0  0  0  0  0  0  0  0  0  0  0  0
    0.0000   -7.9169    0.0000 C   0  0  0  0  0  0  0  0  0  0  0  0
    5.0338   -1.6932    0.0000 C   0  0  0  0  0  0  0  0  0  0  0  0
    0.7322   -4.9881    0.0000 C   0  0  0  0  0  0  0  0  0  0  0  0
    0.0000   -8.7406    0.0000 C   0  0  0  0  0  0  0  0  0  0  0  0
    4.3016   -1.2356    0.0000 C   0  0  0  0  0  0  0  0  0  0  0  0
    5.7203   -1.2356    0.0000 C   0  0  0  0  0  0  0  0  0  0  0  0
    4.3016   -0.4576    0.0000 C   0  0  0  0  0  0  0  0  0  0  0  0
    5.7203   -0.4576    0.0000 C   0  0  0  0  0  0  0  0  0  0  0  0
    5.0338    0.0000    0.0000 C   0  0  0  0  0  0  0  0  0  0  0  0
  1 13  1  0  0  0  0
  1 14  1  0  0  0  0
  2 11  1  0  0  0  0
  2 16  1  0  0  0  0
  3 16  1  0  0  0  0
  3 17  1  0  0  0  0
  4 14  1  0  0  0  0
  4 26  1  0  0  0  0
  5 12  1  0  0  0  0
  6 15  2  0  0  0  0
  7 21  2  0  0  0  0
  8 10  1  0  0  0  0
  8 15  1  0  0  0  0
  8 18  1  0  0  0  0
  9 21  1  0  0  0  0
  9 31  1  0  0  0  0
 10 12  1  0  0  0  0
 10 14  1  0  0  0  0
 11 12  1  0  0  0  0
 11 13  1  0  0  0  0
 13 17  1  0  0  0  0
 15 19  1  0  0  0  0
 16 20  1  0  0  0  0
 18 21  1  0  0  0  0
 19 22  2  0  0  0  0
 19 23  1  0  0  0  0
 20 24  2  0  0  0  0
 20 25  1  0  0  0  0
 22 27  1  0  0  0  0
 23 28  2  0  0  0  0
 24 29  1  0  0  0  0
 25 30  2  0  0  0  0
 27 32  2  0  0  0  0
 28 32  1  0  0  0  0
 29 33  2  0  0  0  0
 30 33  1  0  0  0  0
 31 34  1  0  0  0  0
 31 35  1  0  0  0  0
 34 36  1  0  0  0  0
 35 37  1  0  0  0  0
 36 38  1  0  0  0  0
 37 38  1  0  0  0  0
M  END
> <PUBCHEM_COMPOUND_ID_TYPE>
0

> <PUBCHEM_TOTAL_CHARGE>
0

> <PUBCHEM_SUBSTANCE_ID>
310932399

> <PUBCHEM_SUBSTANCE_VERSION>
1

> <PUBCHEM_EXT_DATASOURCE_NAME>
4488

> <PUBCHEM_EXT_DATASOURCE_REGID>
SCHEMBL16109767

> <PUBCHEM_SUBSTANCE_COMMENT>
InChI=1S/C29H36N2O7/c1-35-29-24(25(33)26-22(37-29)18-36-28(38-26)20-13-7-3-8-14-20)31(27(34)19-11-5-2-6-12-19)17-23(32)30-21-15-9-4-10-16-21/h2-3,5-8,11-14,21-22,24-26,28-29,33H,4,9-10,15-18H2,1H3,(H,30,32)
InChIKey=DUVMZYIBXVSHBI-UHFFFAOYSA-N

> <PUBCHEM_SUBSTANCE_SYNONYM>
SCHEMBL16109767

> <PUBCHEM_XREF_EXT_ID>
SCHEMBL16109767

> <PUBCHEM_EXT_DATASOURCE_URL>
https://www.surechembl.org/

> <PUBCHEM_EXT_SUBSTANCE_URL>
https://www.surechembl.org/chemical/SCHEMBL16109767

> <PUBCHEM_CID_ASSOCIATIONS>
117600953  1

> <PUBCHEM_COORDINATE_TYPE>
1
3

$$$$
