310946823
  -OEChem-07211613022D

 41 43  0     1  0  0  0  0  0999 V2000
   -4.4827    6.7547    0.0000 O   0  0  0  0  0  0  0  0  0  0  0  0
   -1.1827    6.7547    0.0000 N   0  0  0  0  0  0  0  0  0  0  0  0
    2.1173    6.7547    0.0000 N   0  0  0  0  0  0  0  0  0  0  0  0
   -2.4202    6.0402    0.0000 C   0  0  0  0  0  0  0  0  0  0  0  0
   -2.0077    6.7547    0.0000 C   0  0  0  0  0  0  0  0  0  0  0  0
   -3.2452    6.0402    0.0000 C   0  0  0  0  0  0  0  0  0  0  0  0
   -3.6577    6.7547    0.0000 C   0  0  0  0  0  0  0  0  0  0  0  0
   -0.3577    6.7547    0.0000 C   0  0  0  0  0  0  0  0  0  0  0  0
   -3.2452    7.4692    0.0000 C   0  0  0  0  0  0  0  0  0  0  0  0
   -2.4202    7.4692    0.0000 C   0  0  0  0  0  0  0  0  0  0  0  0
    0.0548    6.0402    0.0000 C   0  0  0  0  0  0  0  0  0  0  0  0
    0.0548    7.4692    0.0000 C   0  0  0  0  0  0  0  0  0  0  0  0
    1.2923    6.7547    0.0000 C   0  0  0  0  0  0  0  0  0  0  0  0
   -2.0077    5.3258    0.0000 C   0  0  0  0  0  0  0  0  0  0  0  0
   -3.6577    5.3258    0.0000 C   0  0  0  0  0  0  0  0  0  0  0  0
    0.8798    6.0402    0.0000 C   0  0  0  0  0  0  0  0  0  0  0  0
    0.8798    7.4692    0.0000 C   0  0  0  0  0  0  0  0  0  0  0  0
   -3.6577    8.1836    0.0000 C   0  0  0  0  0  0  0  0  0  0  0  0
   -2.4202    4.6113    0.0000 C   0  0  0  0  0  0  0  0  0  0  0  0
   -3.2452    4.6113    0.0000 C   0  0  0  0  0  0  0  0  0  0  0  0
    2.5298    6.0402    0.0000 C   0  0  0  0  0  0  0  0  0  0  0  0
    2.5298    7.4692    0.0000 C   0  0  0  0  0  0  0  0  0  0  0  0
   -0.3577    5.3258    0.0000 C   0  0  0  0  0  0  0  0  0  0  0  0
   -0.3577    8.1836    0.0000 C   0  0  0  0  0  0  0  0  0  0  0  0
   -4.4827    8.1836    0.0000 C   0  0  0  0  0  0  0  0  0  0  0  0
    2.1173    5.3258    0.0000 C   0  0  3  0  0  0  0  0  0  0  0  0
    3.3548    7.4692    0.0000 C   0  0  3  0  0  0  0  0  0  0  0  0
    2.5298    4.6113    0.0000 C   0  0  0  0  0  0  0  0  0  0  0  0
    3.7673    8.1836    0.0000 C   0  0  0  0  0  0  0  0  0  0  0  0
   -4.8952    8.8981    0.0000 C   0  0  0  0  0  0  0  0  0  0  0  0
    1.2923    5.3258    0.0000 C   0  0  0  0  0  0  0  0  0  0  0  0
    3.7673    6.7547    0.0000 C   0  0  0  0  0  0  0  0  0  0  0  0
    2.1173    3.8968    0.0000 C   0  0  0  0  0  0  0  0  0  0  0  0
    4.5923    8.1836    0.0000 C   0  0  0  0  0  0  0  0  0  0  0  0
   -5.7202    8.8981    0.0000 C   0  0  0  0  0  0  0  0  0  0  0  0
    0.8798    6.0402    0.0000 C   0  0  0  0  0  0  0  0  0  0  0  0
    3.3548    6.0402    0.0000 C   0  0  0  0  0  0  0  0  0  0  0  0
    2.5298    3.1823    0.0000 C   0  0  0  0  0  0  0  0  0  0  0  0
    5.0048    8.8981    0.0000 C   0  0  0  0  0  0  0  0  0  0  0  0
    2.1173    2.4679    0.0000 C   0  0  0  0  0  0  0  0  0  0  0  0
    5.8298    8.8981    0.0000 C   0  0  0  0  0  0  0  0  0  0  0  0
  1  7  2  0  0  0  0
  2  5  2  3  0  0  0
  2  8  1  0  0  0  0
  3 13  1  0  0  0  0
  3 21  1  0  0  0  0
  3 22  1  0  0  0  0
  4  5  1  0  0  0  0
  4  6  1  0  0  0  0
  4 14  2  0  0  0  0
  5 10  1  0  0  0  0
  6  7  1  0  0  0  0
  6 15  2  0  0  0  0
  7  9  1  0  0  0  0
  8 11  2  0  0  0  0
  8 12  1  0  0  0  0
  9 10  2  0  0  0  0
  9 18  1  0  0  0  0
 11 16  1  0  0  0  0
 11 23  1  0  0  0  0
 12 17  2  0  0  0  0
 12 24  1  0  0  0  0
 13 16  2  0  0  0  0
 13 17  1  0  0  0  0
 14 19  1  0  0  0  0
 15 20  1  0  0  0  0
 18 25  1  0  0  0  0
 19 20  2  0  0  0  0
 21 26  1  0  0  0  0
 22 27  1  0  0  0  0
 25 30  1  0  0  0  0
 26 28  1  0  0  0  0
 26 31  1  0  0  0  0
 27 29  1  0  0  0  0
 27 32  1  0  0  0  0
 28 33  1  0  0  0  0
 29 34  1  0  0  0  0
 30 35  1  0  0  0  0
 31 36  1  0  0  0  0
 32 37  1  0  0  0  0
 33 38  1  0  0  0  0
 34 39  1  0  0  0  0
 38 40  1  0  0  0  0
 39 41  1  0  0  0  0
M  END
> <PUBCHEM_COMPOUND_ID_TYPE>
0

> <PUBCHEM_TOTAL_CHARGE>
0

> <PUBCHEM_SUBSTANCE_ID>
310946823

> <PUBCHEM_SUBSTANCE_VERSION>
1

> <PUBCHEM_EXT_DATASOURCE_NAME>
4488

> <PUBCHEM_EXT_DATASOURCE_REGID>
SCHEMBL16124947

> <PUBCHEM_SUBSTANCE_COMMENT>
InChI=1S/C38H56N2O/c1-8-13-18-30(11-4)26-40(27-31(12-5)19-14-9-2)33-23-28(6)37(29(7)24-33)39-36-25-32(20-15-10-3)38(41)35-22-17-16-21-34(35)36/h16-17,21-25,30-31H,8-15,18-20,26-27H2,1-7H3
InChIKey=SKPILGGQTOGQEA-UHFFFAOYSA-N

> <PUBCHEM_SUBSTANCE_SYNONYM>
SCHEMBL16124947

> <PUBCHEM_XREF_EXT_ID>
SCHEMBL16124947

> <PUBCHEM_EXT_DATASOURCE_URL>
https://www.surechembl.org/

> <PUBCHEM_EXT_SUBSTANCE_URL>
https://www.surechembl.org/chemical/SCHEMBL16124947

> <PUBCHEM_CID_ASSOCIATIONS>
117612683  1

> <PUBCHEM_COORDINATE_TYPE>
1
3

$$$$
