310947209
  -OEChem-07211613022D

 26 27  0     1  0  0  0  0  0999 V2000
    0.1054   -0.2648    0.0000 F   0  0  0  0  0  0  0  0  0  0  0  0
   -0.5352    2.1258    0.0000 F   0  0  0  0  0  0  0  0  0  0  0  0
    0.4753    1.1154    0.0000 F   0  0  0  0  0  0  0  0  0  0  0  0
    0.2617    1.9123    0.0000 F   0  0  0  0  0  0  0  0  0  0  0  0
   -1.9154    1.7560    0.0000 O   0  0  0  0  0  0  0  0  0  0  0  0
   -1.5462   -2.0990    0.0000 N   0  0  0  0  0  0  0  0  0  0  0  0
   -1.0613   -2.7664    0.0000 N   0  0  0  0  0  0  0  0  0  0  0  0
    1.1523   -1.6865    0.0000 N   0  0  3  0  0  0  0  0  0  0  0  0
    3.2957   -1.2740    0.0000 N   0  0  0  0  0  0  0  0  0  0  0  0
   -0.9050    0.7456    0.0000 C   0  0  0  0  0  0  0  0  0  0  0  0
   -1.2748   -0.6347    0.0000 C   0  0  0  0  0  0  0  0  0  0  0  0
   -0.6915   -0.0513    0.0000 C   0  0  0  0  0  0  0  0  0  0  0  0
   -1.7019    0.9591    0.0000 C   0  0  0  0  0  0  0  0  0  0  0  0
   -1.0613   -1.4315    0.0000 C   0  0  0  0  0  0  0  0  0  0  0  0
   -0.3216    1.3290    0.0000 C   0  0  0  0  0  0  0  0  0  0  0  0
   -0.2767   -1.6865    0.0000 C   0  0  0  0  0  0  0  0  0  0  0  0
   -2.0717   -0.4211    0.0000 C   0  0  0  0  0  0  0  0  0  0  0  0
   -2.2853    0.3758    0.0000 C   0  0  0  0  0  0  0  0  0  0  0  0
   -0.2767   -2.5115    0.0000 C   0  0  0  0  0  0  0  0  0  0  0  0
    0.4378   -1.2740    0.0000 C   0  0  0  0  0  0  0  0  0  0  0  0
   -2.7123    1.9695    0.0000 C   0  0  0  0  0  0  0  0  0  0  0  0
    1.8667   -1.2740    0.0000 C   0  0  0  0  0  0  0  0  0  0  0  0
   -3.2957    1.3862    0.0000 C   0  0  0  0  0  0  0  0  0  0  0  0
   -2.9258    2.7664    0.0000 C   0  0  0  0  0  0  0  0  0  0  0  0
    1.1523   -2.5115    0.0000 C   0  0  0  0  0  0  0  0  0  0  0  0
    2.5812   -1.6865    0.0000 C   0  0  0  0  0  0  0  0  0  0  0  0
  1 12  1  0  0  0  0
  2 15  1  0  0  0  0
  3 15  1  0  0  0  0
  4 15  1  0  0  0  0
  5 13  1  0  0  0  0
  5 21  1  0  0  0  0
  6  7  1  0  0  0  0
  6 14  2  0  0  0  0
  7 19  1  0  0  0  0
  8 20  1  0  0  0  0
  8 22  1  0  0  0  0
  8 25  1  0  0  0  0
  9 26  1  0  0  0  0
 10 12  2  0  0  0  0
 10 13  1  0  0  0  0
 10 15  1  0  0  0  0
 11 12  1  0  0  0  0
 11 14  1  0  0  0  0
 11 17  2  0  0  0  0
 13 18  2  0  0  0  0
 14 16  1  0  0  0  0
 16 19  2  0  0  0  0
 16 20  1  0  0  0  0
 17 18  1  0  0  0  0
 21 23  1  0  0  0  0
 21 24  1  0  0  0  0
 22 26  1  0  0  0  0
M  END
> <PUBCHEM_COMPOUND_ID_TYPE>
0

> <PUBCHEM_TOTAL_CHARGE>
0

> <PUBCHEM_SUBSTANCE_ID>
310947209

> <PUBCHEM_SUBSTANCE_VERSION>
1

> <PUBCHEM_EXT_DATASOURCE_NAME>
4488

> <PUBCHEM_EXT_DATASOURCE_REGID>
SCHEMBL16125364

> <PUBCHEM_SUBSTANCE_COMMENT>
InChI=1S/C17H22F4N4O/c1-10(2)26-13-5-4-12(15(18)14(13)17(19,20)21)16-11(8-23-24-16)9-25(3)7-6-22/h4-5,8,10H,6-7,9,22H2,1-3H3,(H,23,24)
InChIKey=OSSFLOZMQFYBHD-UHFFFAOYSA-N

> <PUBCHEM_SUBSTANCE_SYNONYM>
SCHEMBL16125364

> <PUBCHEM_XREF_EXT_ID>
SCHEMBL16125364

> <PUBCHEM_EXT_DATASOURCE_URL>
https://www.surechembl.org/

> <PUBCHEM_EXT_SUBSTANCE_URL>
https://www.surechembl.org/chemical/SCHEMBL16125364

> <PUBCHEM_CID_ASSOCIATIONS>
85472766  1

> <PUBCHEM_COORDINATE_TYPE>
1
3

$$$$
