310941940
  -OEChem-07211613022D

 45 49  0     1  0  0  0  0  0999 V2000
   -5.8544   -1.3399    0.0000 Cl  0  0  0  0  0  0  0  0  0  0  0  0
    0.1166   -0.6155    0.0000 O   0  0  0  0  0  0  0  0  0  0  0  0
   -1.1137   -1.2365    0.0000 O   0  0  0  0  0  0  0  0  0  0  0  0
    2.9641    2.1107    0.0000 O   0  0  0  0  0  0  0  0  0  0  0  0
    4.4092    3.0103    0.0000 O   0  0  0  0  0  0  0  0  0  0  0  0
   -2.6839    1.3881    0.0000 N   0  0  0  0  0  0  0  0  0  0  0  0
   -2.6839   -1.3252    0.0000 N   0  0  0  0  0  0  0  0  0  0  0  0
    0.9438    1.8306    0.0000 N   0  0  3  0  0  0  0  0  0  0  0  0
    5.8544    2.1107    0.0000 N   0  0  0  0  0  0  0  0  0  0  0  0
    1.3820   -1.2131    0.0000 C   0  0  0  0  0  0  0  0  0  0  0  0
    1.8625   -1.8809    0.0000 C   0  0  0  0  0  0  0  0  0  0  0  0
    1.8625   -0.5569    0.0000 C   0  0  0  0  0  0  0  0  0  0  0  0
    2.6357   -1.6349    0.0000 C   0  0  0  0  0  0  0  0  0  0  0  0
    2.6357   -0.8147    0.0000 C   0  0  0  0  0  0  0  0  0  0  0  0
   -2.6986    0.4739    0.0000 C   0  0  0  0  0  0  0  0  0  0  0  0
    0.6204   -1.2131    0.0000 C   0  0  0  0  0  0  0  0  0  0  0  0
   -3.4212    0.0315    0.0000 C   0  0  0  0  0  0  0  0  0  0  0  0
    1.6984    0.2516    0.0000 C   0  0  0  0  0  0  0  0  0  0  0  0
    1.6867   -2.6660    0.0000 C   0  0  0  0  0  0  0  0  0  0  0  0
    3.2451   -0.2640    0.0000 C   0  0  0  0  0  0  0  0  0  0  0  0
    3.2333   -2.1739    0.0000 C   0  0  0  0  0  0  0  0  0  0  0  0
   -0.6333   -0.6390    0.0000 C   0  0  0  0  0  0  0  0  0  0  0  0
   -3.4212   -0.8680    0.0000 C   0  0  0  0  0  0  0  0  0  0  0  0
   -1.9761    1.8453    0.0000 C   0  0  3  0  0  0  0  0  0  0  0  0
   -1.9613    0.0315    0.0000 C   0  0  0  0  0  0  0  0  0  0  0  0
    2.3077    0.7906    0.0000 C   0  0  0  0  0  0  0  0  0  0  0  0
    2.2843   -3.2167    0.0000 C   0  0  0  0  0  0  0  0  0  0  0  0
    3.0810    0.5328    0.0000 C   0  0  0  0  0  0  0  0  0  0  0  0
    3.0576   -2.9706    0.0000 C   0  0  0  0  0  0  0  0  0  0  0  0
   -4.1438    0.4591    0.0000 C   0  0  0  0  0  0  0  0  0  0  0  0
   -4.1142   -1.3104    0.0000 C   0  0  0  0  0  0  0  0  0  0  0  0
   -1.9613   -0.8828    0.0000 C   0  0  0  0  0  0  0  0  0  0  0  0
   -4.8811   -0.8680    0.0000 C   0  0  0  0  0  0  0  0  0  0  0  0
   -4.8516    0.0315    0.0000 C   0  0  0  0  0  0  0  0  0  0  0  0
   -1.2092    1.3881    0.0000 C   0  0  0  0  0  0  0  0  0  0  0  0
   -1.9613    2.7743    0.0000 C   0  0  0  0  0  0  0  0  0  0  0  0
   -0.5161    1.8306    0.0000 C   0  0  0  0  0  0  0  0  0  0  0  0
    0.2359    1.3881    0.0000 C   0  0  0  0  0  0  0  0  0  0  0  0
    1.5336    1.2112    0.0000 C   0  0  0  0  0  0  0  0  0  0  0  0
    0.9585    2.7448    0.0000 C   0  0  0  0  0  0  0  0  0  0  0  0
    2.4922    1.2259    0.0000 C   0  0  0  0  0  0  0  0  0  0  0  0
    1.6958    3.2167    0.0000 C   0  0  0  0  0  0  0  0  0  0  0  0
    3.9226    2.1107    0.0000 C   0  0  0  0  0  0  0  0  0  0  0  0
    4.4092    1.2259    0.0000 C   0  0  0  0  0  0  0  0  0  0  0  0
    5.3677    1.2112    0.0000 C   0  0  0  0  0  0  0  0  0  0  0  0
  1 33  1  0  0  0  0
  2 16  1  0  0  0  0
  2 22  1  0  0  0  0
  3 22  2  0  0  0  0
  4 41  1  0  0  0  0
  4 43  1  0  0  0  0
  5 43  2  0  0  0  0
  6 15  1  0  0  0  0
  6 22  1  0  0  0  0
  6 24  1  0  0  0  0
  7 23  1  0  0  0  0
  7 32  2  0  0  0  0
  8 38  1  0  0  0  0
  8 39  1  0  0  0  0
  8 40  1  0  0  0  0
  9 45  1  0  0  0  0
 10 11  1  0  0  0  0
 10 12  1  0  0  0  0
 10 16  1  0  0  0  0
 11 13  2  0  0  0  0
 11 19  1  0  0  0  0
 12 14  2  0  0  0  0
 12 18  1  0  0  0  0
 13 14  1  0  0  0  0
 13 21  1  0  0  0  0
 14 20  1  0  0  0  0
 15 17  1  0  0  0  0
 15 25  2  0  0  0  0
 17 23  1  0  0  0  0
 17 30  2  0  0  0  0
 18 26  2  0  0  0  0
 19 27  2  0  0  0  0
 20 28  2  0  0  0  0
 21 29  2  0  0  0  0
 23 31  2  0  0  0  0
 24 35  1  0  0  0  0
 24 36  1  0  0  0  0
 25 32  1  0  0  0  0
 26 28  1  0  0  0  0
 27 29  1  0  0  0  0
 30 34  1  0  0  0  0
 31 33  1  0  0  0  0
 33 34  2  0  0  0  0
 35 37  1  0  0  0  0
 37 38  1  0  0  0  0
 39 41  1  0  0  0  0
 40 42  1  0  0  0  0
 43 44  1  0  0  0  0
 44 45  1  0  0  0  0
M  END
> <PUBCHEM_COMPOUND_ID_TYPE>
0

> <PUBCHEM_TOTAL_CHARGE>
0

> <PUBCHEM_SUBSTANCE_ID>
310941940

> <PUBCHEM_SUBSTANCE_VERSION>
1

> <PUBCHEM_EXT_DATASOURCE_NAME>
4488

> <PUBCHEM_EXT_DATASOURCE_REGID>
SCHEMBL16119973

> <PUBCHEM_SUBSTANCE_COMMENT>
InChI=1S/C36H41ClN4O4/c1-3-40(21-22-44-35(42)16-18-38)20-8-9-25(2)41(34-17-19-39-33-23-26(37)14-15-31(33)34)36(43)45-24-32-29-12-6-4-10-27(29)28-11-5-7-13-30(28)32/h4-7,10-15,17,19,23,25,32H,3,8-9,16,18,20-22,24,38H2,1-2H3
InChIKey=COWNOGIVCPHMNX-UHFFFAOYSA-N

> <PUBCHEM_SUBSTANCE_SYNONYM>
SCHEMBL16119973

> <PUBCHEM_XREF_EXT_ID>
SCHEMBL16119973

> <PUBCHEM_EXT_DATASOURCE_URL>
https://www.surechembl.org/

> <PUBCHEM_EXT_SUBSTANCE_URL>
https://www.surechembl.org/chemical/SCHEMBL16119973

> <PUBCHEM_CID_ASSOCIATIONS>
117608664  1

> <PUBCHEM_COORDINATE_TYPE>
1
3

$$$$
