310942002
  -OEChem-07211613022D

 22 24  0     1  0  0  0  0  0999 V2000
   -1.5460    1.2093    0.0000 O   0  0  0  0  0  0  0  0  0  0  0  0
   -3.5386    1.9101    0.0000 O   0  0  0  0  0  0  0  0  0  0  0  0
   -1.3536   -2.0888    0.0000 N   0  0  0  0  0  0  0  0  0  0  0  0
   -0.5428   -2.1850    0.0000 N   0  0  0  0  0  0  0  0  0  0  0  0
    1.1338   -1.8690    0.0000 N   0  0  3  0  0  0  0  0  0  0  0  0
    3.2912   -2.1438    0.0000 N   0  0  0  0  0  0  0  0  0  0  0  0
   -0.8314   -0.8383    0.0000 C   0  0  0  0  0  0  0  0  0  0  0  0
   -1.5460   -1.2505    0.0000 C   0  0  0  0  0  0  0  0  0  0  0  0
   -0.1992   -1.4017    0.0000 C   0  0  0  0  0  0  0  0  0  0  0  0
   -0.8177   -0.0138    0.0000 C   0  0  0  0  0  0  0  0  0  0  0  0
   -1.5322    0.3985    0.0000 C   0  0  0  0  0  0  0  0  0  0  0  0
   -2.2194   -0.8383    0.0000 C   0  0  0  0  0  0  0  0  0  0  0  0
   -2.2194    0.0000    0.0000 C   0  0  0  0  0  0  0  0  0  0  0  0
    0.5978   -1.2368    0.0000 C   0  0  0  0  0  0  0  0  0  0  0  0
   -2.2606    1.6628    0.0000 C   0  0  3  0  0  0  0  0  0  0  0  0
   -2.9751    1.3193    0.0000 C   0  0  0  0  0  0  0  0  0  0  0  0
   -2.3293    2.4874    0.0000 C   0  0  0  0  0  0  0  0  0  0  0  0
   -3.1401    2.6523    0.0000 C   0  0  0  0  0  0  0  0  0  0  0  0
    1.9583   -1.6766    0.0000 C   0  0  0  0  0  0  0  0  0  0  0  0
    0.8864   -2.6523    0.0000 C   0  0  0  0  0  0  0  0  0  0  0  0
    2.5217   -2.2949    0.0000 C   0  0  0  0  0  0  0  0  0  0  0  0
    3.5386   -1.3055    0.0000 C   0  0  0  0  0  0  0  0  0  0  0  0
  1 11  1  0  0  0  0
  1 15  1  0  0  0  0
  2 16  1  0  0  0  0
  2 18  1  0  0  0  0
  3  4  1  0  0  0  0
  3  8  1  0  0  0  0
  4  9  2  0  0  0  0
  5 14  1  0  0  0  0
  5 19  1  0  0  0  0
  5 20  1  0  0  0  0
  6 21  1  0  0  0  0
  6 22  1  0  0  0  0
  7  8  1  0  0  0  0
  7  9  1  0  0  0  0
  7 10  2  0  0  0  0
  8 12  2  0  0  0  0
  9 14  1  0  0  0  0
 10 11  1  0  0  0  0
 11 13  2  0  0  0  0
 12 13  1  0  0  0  0
 15 16  1  0  0  0  0
 15 17  1  0  0  0  0
 17 18  1  0  0  0  0
 19 21  1  0  0  0  0
M  END
> <PUBCHEM_COMPOUND_ID_TYPE>
0

> <PUBCHEM_TOTAL_CHARGE>
0

> <PUBCHEM_SUBSTANCE_ID>
310942002

> <PUBCHEM_SUBSTANCE_VERSION>
1

> <PUBCHEM_EXT_DATASOURCE_NAME>
4488

> <PUBCHEM_EXT_DATASOURCE_REGID>
SCHEMBL16120036

> <PUBCHEM_SUBSTANCE_COMMENT>
InChI=1S/C16H24N4O2/c1-17-6-7-20(2)10-16-14-9-12(3-4-15(14)18-19-16)22-13-5-8-21-11-13/h3-4,9,13,17H,5-8,10-11H2,1-2H3,(H,18,19)
InChIKey=PIEPRHRLXPZWLH-UHFFFAOYSA-N

> <PUBCHEM_SUBSTANCE_SYNONYM>
SCHEMBL16120036

> <PUBCHEM_XREF_EXT_ID>
SCHEMBL16120036

> <PUBCHEM_EXT_DATASOURCE_URL>
https://www.surechembl.org/

> <PUBCHEM_EXT_SUBSTANCE_URL>
https://www.surechembl.org/chemical/SCHEMBL16120036

> <PUBCHEM_CID_ASSOCIATIONS>
117608694  1

> <PUBCHEM_COORDINATE_TYPE>
1
3

$$$$
