310945413
  -OEChem-07211613022D

 28 31  0     1  0  0  0  0  0999 V2000
    2.9601    0.6286    0.0000 F   0  0  0  0  0  0  0  0  0  0  0  0
    2.4777   -0.3947    0.0000 F   0  0  0  0  0  0  0  0  0  0  0  0
    1.4398    0.1023    0.0000 F   0  0  0  0  0  0  0  0  0  0  0  0
   -2.3900    1.6810    0.0000 O   0  0  0  0  0  0  0  0  0  0  0  0
    0.4166    0.9355    0.0000 N   0  0  0  0  0  0  0  0  0  0  0  0
    2.4338    1.8710    0.0000 N   0  0  0  0  0  0  0  0  0  0  0  0
   -0.3435   -1.1694    0.0000 N   0  0  0  0  0  0  0  0  0  0  0  0
    1.0744    1.4471    0.0000 C   0  0  0  0  0  0  0  0  0  0  0  0
    0.8259    2.2073    0.0000 C   0  0  0  0  0  0  0  0  0  0  0  0
   -0.2558    1.4325    0.0000 C   0  0  0  0  0  0  0  0  0  0  0  0
    0.0073    2.2218    0.0000 C   0  0  0  0  0  0  0  0  0  0  0  0
    1.8784    1.2425    0.0000 C   0  0  0  0  0  0  0  0  0  0  0  0
    2.1853    0.3654    0.0000 C   0  0  0  0  0  0  0  0  0  0  0  0
    1.3813    2.8212    0.0000 C   0  0  0  0  0  0  0  0  0  0  0  0
   -1.0452    1.2571    0.0000 C   0  0  0  0  0  0  0  0  0  0  0  0
    0.4019    0.0731    0.0000 C   0  0  0  0  0  0  0  0  0  0  0  0
   -0.5336    2.8066    0.0000 C   0  0  0  0  0  0  0  0  0  0  0  0
   -1.6006    1.8710    0.0000 C   0  0  0  0  0  0  0  0  0  0  0  0
    2.1853    2.6457    0.0000 C   0  0  0  0  0  0  0  0  0  0  0  0
   -1.3375    2.6457    0.0000 C   0  0  0  0  0  0  0  0  0  0  0  0
   -0.3289   -0.3362    0.0000 C   0  0  3  0  0  0  0  0  0  0  0  0
   -1.0597    0.0585    0.0000 C   0  0  0  0  0  0  0  0  0  0  0  0
   -1.0452   -1.5787    0.0000 C   0  0  0  0  0  0  0  0  0  0  0  0
    0.3727   -1.5933    0.0000 C   0  0  0  0  0  0  0  0  0  0  0  0
   -2.9601    2.2949    0.0000 C   0  0  0  0  0  0  0  0  0  0  0  0
   -1.0452   -2.4119    0.0000 C   0  0  0  0  0  0  0  0  0  0  0  0
    0.3727   -2.4119    0.0000 C   0  0  0  0  0  0  0  0  0  0  0  0
   -0.3289   -2.8212    0.0000 C   0  0  0  0  0  0  0  0  0  0  0  0
  1 13  1  0  0  0  0
  2 13  1  0  0  0  0
  3 13  1  0  0  0  0
  4 18  1  0  0  0  0
  4 25  1  0  0  0  0
  5  8  1  0  0  0  0
  5 10  1  0  0  0  0
  5 16  1  0  0  0  0
  6 12  2  0  0  0  0
  6 19  1  0  0  0  0
  7 21  1  0  0  0  0
  7 23  1  0  0  0  0
  7 24  1  0  0  0  0
  8  9  2  0  0  0  0
  8 12  1  0  0  0  0
  9 11  1  0  0  0  0
  9 14  1  0  0  0  0
 10 11  2  0  0  0  0
 10 15  1  0  0  0  0
 11 17  1  0  0  0  0
 12 13  1  0  0  0  0
 14 19  2  0  0  0  0
 15 18  2  0  0  0  0
 16 21  1  0  0  0  0
 17 20  2  0  0  0  0
 18 20  1  0  0  0  0
 21 22  1  0  0  0  0
 23 26  1  0  0  0  0
 24 27  1  0  0  0  0
 26 28  1  0  0  0  0
 27 28  1  0  0  0  0
M  END
> <PUBCHEM_COMPOUND_ID_TYPE>
0

> <PUBCHEM_TOTAL_CHARGE>
0

> <PUBCHEM_SUBSTANCE_ID>
310945413

> <PUBCHEM_SUBSTANCE_VERSION>
1

> <PUBCHEM_EXT_DATASOURCE_NAME>
4488

> <PUBCHEM_EXT_DATASOURCE_REGID>
SCHEMBL16123511

> <PUBCHEM_SUBSTANCE_COMMENT>
InChI=1S/C21H24F3N3O/c1-14(26-10-4-3-5-11-26)13-27-18-12-15(28-2)6-7-16(18)17-8-9-25-20(19(17)27)21(22,23)24/h6-9,12,14H,3-5,10-11,13H2,1-2H3
InChIKey=MOIDZWCCITVHHG-UHFFFAOYSA-N

> <PUBCHEM_SUBSTANCE_SYNONYM>
SCHEMBL16123511

> <PUBCHEM_XREF_EXT_ID>
SCHEMBL16123511

> <PUBCHEM_EXT_DATASOURCE_URL>
https://www.surechembl.org/

> <PUBCHEM_EXT_SUBSTANCE_URL>
https://www.surechembl.org/chemical/SCHEMBL16123511

> <PUBCHEM_CID_ASSOCIATIONS>
117611459  1

> <PUBCHEM_COORDINATE_TYPE>
1
3

$$$$
