310937563
  -OEChem-07211613022D

 32 34  0     1  0  0  0  0  0999 V2000
    7.8592   -6.1875    0.0000 S   0  0  0  0  0  0  0  0  0  0  0  0
    2.8579   -5.7750    0.0000 S   0  0  0  0  0  0  0  0  0  0  0  0
    6.4302   -3.7125    0.0000 P   0  0  3  0  0  0  0  0  0  0  0  0
    6.0177   -4.4270    0.0000 O   0  0  0  0  0  0  0  0  0  0  0  0
    6.8427   -2.9980    0.0000 O   0  0  0  0  0  0  0  0  0  0  0  0
    7.8592   -7.0125    0.0000 O   0  0  0  0  0  0  0  0  0  0  0  0
    8.6842   -6.1875    0.0000 O   0  0  0  0  0  0  0  0  0  0  0  0
    7.0342   -6.1875    0.0000 O   0  0  0  0  0  0  0  0  0  0  0  0
    2.8579   -6.6000    0.0000 O   0  0  0  0  0  0  0  0  0  0  0  0
    2.0329   -5.7750    0.0000 O   0  0  0  0  0  0  0  0  0  0  0  0
    3.6829   -5.7750    0.0000 O   0  0  0  0  0  0  0  0  0  0  0  0
    5.7158   -3.3000    0.0000 C   0  0  0  0  0  0  0  0  0  0  0  0
    7.1447   -4.1250    0.0000 C   0  0  0  0  0  0  0  0  0  0  0  0
    5.0013   -3.7125    0.0000 C   0  0  0  0  0  0  0  0  0  0  0  0
    4.2868   -3.3000    0.0000 C   0  0  0  0  0  0  0  0  0  0  0  0
    3.5724   -3.7125    0.0000 C   0  0  0  0  0  0  0  0  0  0  0  0
    7.8592   -3.7125    0.0000 C   0  0  0  0  0  0  0  0  0  0  0  0
    7.1447   -4.9500    0.0000 C   0  0  0  0  0  0  0  0  0  0  0  0
    7.8592   -5.3625    0.0000 C   0  0  0  0  0  0  0  0  0  0  0  0
    5.7158   -2.4750    0.0000 C   0  0  0  0  0  0  0  0  0  0  0  0
    4.2868   -2.4750    0.0000 C   0  0  0  0  0  0  0  0  0  0  0  0
    2.8579   -3.3000    0.0000 C   0  0  0  0  0  0  0  0  0  0  0  0
    3.5724   -4.5375    0.0000 C   0  0  0  0  0  0  0  0  0  0  0  0
    2.8579   -4.9500    0.0000 C   0  0  0  0  0  0  0  0  0  0  0  0
    8.5737   -4.1250    0.0000 C   0  0  0  0  0  0  0  0  0  0  0  0
    5.0013   -2.0625    0.0000 C   0  0  0  0  0  0  0  0  0  0  0  0
    8.5737   -4.9500    0.0000 C   0  0  0  0  0  0  0  0  0  0  0  0
    5.0013   -4.5375    0.0000 C   0  0  0  0  0  0  0  0  0  0  0  0
    2.1434   -3.7125    0.0000 C   0  0  0  0  0  0  0  0  0  0  0  0
    2.1434   -4.5375    0.0000 C   0  0  0  0  0  0  0  0  0  0  0  0
    7.8592   -2.8875    0.0000 C   0  0  0  0  0  0  0  0  0  0  0  0
    2.8579   -2.4750    0.0000 C   0  0  0  0  0  0  0  0  0  0  0  0
  1  6  2  0  0  0  0
  1  7  2  0  0  0  0
  1  8  1  0  0  0  0
  1 19  1  0  0  0  0
  2  9  2  0  0  0  0
  2 10  2  0  0  0  0
  2 11  1  0  0  0  0
  2 24  1  0  0  0  0
  3  4  2  0  0  0  0
  3  5  1  0  0  0  0
  3 12  1  0  0  0  0
  3 13  1  0  0  0  0
 12 14  2  0  0  0  0
 12 20  1  0  0  0  0
 13 17  1  0  0  0  0
 13 18  2  0  0  0  0
 14 15  1  0  0  0  0
 14 28  1  0  0  0  0
 15 16  1  0  0  0  0
 15 21  2  0  0  0  0
 16 22  1  0  0  0  0
 16 23  2  0  0  0  0
 17 25  2  0  0  0  0
 17 31  1  0  0  0  0
 18 19  1  0  0  0  0
 19 27  2  0  0  0  0
 20 26  2  0  0  0  0
 21 26  1  0  0  0  0
 22 29  2  0  0  0  0
 22 32  1  0  0  0  0
 23 24  1  0  0  0  0
 24 30  2  0  0  0  0
 25 27  1  0  0  0  0
 29 30  1  0  0  0  0
M  END
> <PUBCHEM_COMPOUND_ID_TYPE>
0

> <PUBCHEM_TOTAL_CHARGE>
0

> <PUBCHEM_SUBSTANCE_ID>
310937563

> <PUBCHEM_SUBSTANCE_VERSION>
1

> <PUBCHEM_EXT_DATASOURCE_NAME>
4488

> <PUBCHEM_EXT_DATASOURCE_REGID>
SCHEMBL16115340

> <PUBCHEM_SUBSTANCE_COMMENT>
InChI=1S/C21H21O8PS2/c1-13-7-9-16(31(24,25)26)11-19(13)18-5-4-6-20(15(18)3)30(22,23)21-12-17(32(27,28)29)10-8-14(21)2/h4-12H,1-3H3,(H,22,23)(H,24,25,26)(H,27,28,29)
InChIKey=RRNYJXFCOFMPSD-UHFFFAOYSA-N

> <PUBCHEM_SUBSTANCE_SYNONYM>
SCHEMBL16115340

> <PUBCHEM_XREF_EXT_ID>
SCHEMBL16115340

> <PUBCHEM_EXT_DATASOURCE_URL>
https://www.surechembl.org/

> <PUBCHEM_EXT_SUBSTANCE_URL>
https://www.surechembl.org/chemical/SCHEMBL16115340

> <PUBCHEM_CID_ASSOCIATIONS>
117605277  1

> <PUBCHEM_COORDINATE_TYPE>
1
3

$$$$
