310947158
  -OEChem-07211613022D

 25 28  0     1  0  0  0  0  0999 V2000
   -2.2962   -1.8310    0.0000 O   0  0  0  0  0  0  0  0  0  0  0  0
   -3.4443   -1.1778    0.0000 O   0  0  0  0  0  0  0  0  0  0  0  0
    2.9692    1.7123    0.0000 O   0  0  0  0  0  0  0  0  0  0  0  0
    2.9692    0.3662    0.0000 O   0  0  0  0  0  0  0  0  0  0  0  0
    0.0000   -1.4351    0.0000 N   0  0  0  0  0  0  0  0  0  0  0  0
    0.7324   -0.2078    0.0000 N   0  0  0  0  0  0  0  0  0  0  0  0
   -2.1181   -0.9996    0.0000 C   0  0  0  0  0  0  0  0  0  0  0  0
   -1.4252   -0.5839    0.0000 C   0  0  0  0  0  0  0  0  0  0  0  0
   -1.4055    0.2475    0.0000 C   0  0  0  0  0  0  0  0  0  0  0  0
   -2.8306   -0.5839    0.0000 C   0  0  0  0  0  0  0  0  0  0  0  0
   -0.6928    0.6631    0.0000 C   0  0  3  0  0  0  0  0  0  0  0  0
   -2.0982    0.6433    0.0000 C   0  0  0  0  0  0  0  0  0  0  0  0
   -2.8109    0.2475    0.0000 C   0  0  0  0  0  0  0  0  0  0  0  0
    2.1774    1.4945    0.0000 C   0  0  0  0  0  0  0  0  0  0  0  0
    2.1774    0.6830    0.0000 C   0  0  0  0  0  0  0  0  0  0  0  0
   -0.6928   -1.0194    0.0000 C   0  0  0  0  0  0  0  0  0  0  0  0
   -3.1276   -1.8904    0.0000 C   0  0  0  0  0  0  0  0  0  0  0  0
    0.7522    1.4747    0.0000 C   0  0  0  0  0  0  0  0  0  0  0  0
   -0.6730    1.4945    0.0000 C   0  0  0  0  0  0  0  0  0  0  0  0
    1.4648    1.8904    0.0000 C   0  0  0  0  0  0  0  0  0  0  0  0
    0.0396    1.8904    0.0000 C   0  0  0  0  0  0  0  0  0  0  0  0
    1.4648    0.2672    0.0000 C   0  0  0  0  0  0  0  0  0  0  0  0
    0.7720    0.6433    0.0000 C   0  0  0  0  0  0  0  0  0  0  0  0
    0.0396    0.2078    0.0000 C   0  0  0  0  0  0  0  0  0  0  0  0
    3.4443    1.0986    0.0000 C   0  0  0  0  0  0  0  0  0  0  0  0
  1  7  1  0  0  0  0
  1 17  1  0  0  0  0
  2 10  1  0  0  0  0
  2 17  1  0  0  0  0
  3 14  1  0  0  0  0
  3 25  1  0  0  0  0
  4 15  1  0  0  0  0
  4 25  1  0  0  0  0
  5 16  3  0  0  0  0
  6 24  3  0  0  0  0
  7  8  2  0  0  0  0
  7 10  1  0  0  0  0
  8  9  1  0  0  0  0
  8 16  1  0  0  0  0
  9 11  1  0  0  0  0
  9 12  2  0  0  0  0
 10 13  2  0  0  0  0
 11 19  1  0  0  0  0
 11 24  1  0  0  0  0
 12 13  1  0  0  0  0
 14 15  1  0  0  0  0
 14 20  2  0  0  0  0
 15 22  2  0  0  0  0
 18 20  1  0  0  0  0
 18 21  1  0  0  0  0
 18 23  2  0  0  0  0
 19 21  1  0  0  0  0
 22 23  1  0  0  0  0
M  END
> <PUBCHEM_COMPOUND_ID_TYPE>
0

> <PUBCHEM_TOTAL_CHARGE>
0

> <PUBCHEM_SUBSTANCE_ID>
310947158

> <PUBCHEM_SUBSTANCE_VERSION>
1

> <PUBCHEM_EXT_DATASOURCE_NAME>
4488

> <PUBCHEM_EXT_DATASOURCE_REGID>
SCHEMBL16125312

> <PUBCHEM_SUBSTANCE_COMMENT>
InChI=1S/C19H14N2O4/c20-8-13(3-1-12-2-5-16-18(7-12)24-10-22-16)14-4-6-17-19(15(14)9-21)25-11-23-17/h2,4-7,13H,1,3,10-11H2
InChIKey=KYOOHHVCKPQICI-UHFFFAOYSA-N

> <PUBCHEM_SUBSTANCE_SYNONYM>
SCHEMBL16125312

> <PUBCHEM_XREF_EXT_ID>
SCHEMBL16125312

> <PUBCHEM_EXT_DATASOURCE_URL>
https://www.surechembl.org/

> <PUBCHEM_EXT_SUBSTANCE_URL>
https://www.surechembl.org/chemical/SCHEMBL16125312

> <PUBCHEM_CID_ASSOCIATIONS>
86272400  1

> <PUBCHEM_COORDINATE_TYPE>
1
3

$$$$
