310946446
  -OEChem-07211613022D

 14 13  0     1  0  0  0  0  0999 V2000
   -1.7662   -8.3457    0.0000 O   0  0  0  0  0  0  0  0  0  0  0  0
   -2.4807   -7.1082    0.0000 O   0  0  0  0  0  0  0  0  0  0  0  0
   -3.9096   -7.9332    0.0000 N   0  0  0  0  0  0  0  0  0  0  0  0
   -3.1951   -8.3457    0.0000 C   0  0  3  0  0  0  0  0  0  0  0  0
   -2.4807   -7.9332    0.0000 C   0  0  0  0  0  0  0  0  0  0  0  0
   -3.1951   -9.1707    0.0000 C   0  0  3  0  0  0  0  0  0  0  0  0
   -2.4807   -9.5832    0.0000 C   0  0  0  0  0  0  0  0  0  0  0  0
   -1.0517   -7.9332    0.0000 C   0  0  0  0  0  0  0  0  0  0  0  0
   -3.9096   -9.5832    0.0000 C   0  0  0  0  0  0  0  0  0  0  0  0
   -0.3373   -8.3457    0.0000 C   0  0  0  0  0  0  0  0  0  0  0  0
   -1.7662   -9.1707    0.0000 C   0  0  0  0  0  0  0  0  0  0  0  0
    0.3772   -7.9332    0.0000 C   0  0  0  0  0  0  0  0  0  0  0  0
    1.0917   -8.3457    0.0000 C   0  0  0  0  0  0  0  0  0  0  0  0
    1.8062   -7.9332    0.0000 C   0  0  0  0  0  0  0  0  0  0  0  0
  1  5  1  0  0  0  0
  1  8  1  0  0  0  0
  2  5  2  0  0  0  0
  3  4  1  0  0  0  0
  4  5  1  0  0  0  0
  4  6  1  0  0  0  0
  6  7  1  0  0  0  0
  6  9  1  0  0  0  0
  7 11  1  0  0  0  0
  8 10  1  0  0  0  0
 10 12  1  0  0  0  0
 12 13  1  0  0  0  0
 13 14  1  0  0  0  0
M  END
> <PUBCHEM_COMPOUND_ID_TYPE>
0

> <PUBCHEM_TOTAL_CHARGE>
0

> <PUBCHEM_SUBSTANCE_ID>
310946446

> <PUBCHEM_SUBSTANCE_VERSION>
1

> <PUBCHEM_EXT_DATASOURCE_NAME>
4488

> <PUBCHEM_EXT_DATASOURCE_REGID>
SCHEMBL16124567

> <PUBCHEM_SUBSTANCE_COMMENT>
InChI=1S/C11H23NO2/c1-4-6-7-8-14-11(13)10(12)9(3)5-2/h9-10H,4-8,12H2,1-3H3
InChIKey=JOBHMMBWXPPVDF-UHFFFAOYSA-N

> <PUBCHEM_SUBSTANCE_SYNONYM>
SCHEMBL16124567

> <PUBCHEM_XREF_EXT_ID>
SCHEMBL16124567

> <PUBCHEM_EXT_DATASOURCE_URL>
https://www.surechembl.org/

> <PUBCHEM_EXT_SUBSTANCE_URL>
https://www.surechembl.org/chemical/SCHEMBL16124567

> <PUBCHEM_CID_ASSOCIATIONS>
61302322  1

> <PUBCHEM_COORDINATE_TYPE>
1
3

$$$$
