310943346
  -OEChem-07211613022D

 36 40  0     1  0  0  0  0  0999 V2000
   -5.7236    1.5004    0.0000 O   0  0  0  0  0  0  0  0  0  0  0  0
   -4.3915   -1.0174    0.0000 O   0  0  0  0  0  0  0  0  0  0  0  0
    1.4200    1.5004    0.0000 O   0  0  0  0  0  0  0  0  0  0  0  0
   -4.2891    0.6807    0.0000 N   0  0  0  0  0  0  0  0  0  0  0  0
   -2.8691   -0.9588    0.0000 N   0  0  0  0  0  0  0  0  0  0  0  0
    0.7027    0.2708    0.0000 N   0  0  0  0  0  0  0  0  0  0  0  0
    3.5571   -0.5489    0.0000 N   0  0  0  0  0  0  0  0  0  0  0  0
    5.7236   -0.1537    0.0000 N   0  0  0  0  0  0  0  0  0  0  0  0
   -3.5718    0.2708    0.0000 C   0  0  0  0  0  0  0  0  0  0  0  0
   -2.1372    0.2708    0.0000 C   0  0  0  0  0  0  0  0  0  0  0  0
   -3.5571   -0.5343    0.0000 C   0  0  0  0  0  0  0  0  0  0  0  0
   -5.7089    0.6953    0.0000 C   0  0  3  0  0  0  0  0  0  0  0  0
   -5.0063    1.9103    0.0000 C   0  0  3  0  0  0  0  0  0  0  0  0
   -2.8691    0.6807    0.0000 C   0  0  0  0  0  0  0  0  0  0  0  0
   -1.4492    0.6953    0.0000 C   0  0  0  0  0  0  0  0  0  0  0  0
   -4.2891    1.5150    0.0000 C   0  0  0  0  0  0  0  0  0  0  0  0
   -4.9916    0.2854    0.0000 C   0  0  0  0  0  0  0  0  0  0  0  0
   -5.0063    1.1052    0.0000 C   0  0  0  0  0  0  0  0  0  0  0  0
   -2.1518   -0.5489    0.0000 C   0  0  0  0  0  0  0  0  0  0  0  0
   -1.4346    1.5150    0.0000 C   0  0  0  0  0  0  0  0  0  0  0  0
   -0.7173    0.2854    0.0000 C   0  0  0  0  0  0  0  0  0  0  0  0
   -0.0146    0.6953    0.0000 C   0  0  0  0  0  0  0  0  0  0  0  0
   -0.7173    1.9103    0.0000 C   0  0  0  0  0  0  0  0  0  0  0  0
    2.1372    0.2854    0.0000 C   0  0  0  0  0  0  0  0  0  0  0  0
    3.5718    0.2854    0.0000 C   0  0  0  0  0  0  0  0  0  0  0  0
   -0.0146    1.5004    0.0000 C   0  0  0  0  0  0  0  0  0  0  0  0
    1.4053    0.6661    0.0000 C   0  0  0  0  0  0  0  0  0  0  0  0
    4.2891    0.6953    0.0000 C   0  0  0  0  0  0  0  0  0  0  0  0
   -2.8398   -1.9103    0.0000 C   0  0  0  0  0  0  0  0  0  0  0  0
    2.8398    0.6807    0.0000 C   0  0  0  0  0  0  0  0  0  0  0  0
   -2.1665    1.9103    0.0000 C   0  0  0  0  0  0  0  0  0  0  0  0
    2.1372   -0.5489    0.0000 C   0  0  0  0  0  0  0  0  0  0  0  0
    2.8545   -0.9588    0.0000 C   0  0  0  0  0  0  0  0  0  0  0  0
    4.9916    0.2562    0.0000 C   0  0  0  0  0  0  0  0  0  0  0  0
    4.2744    1.5297    0.0000 C   0  0  0  0  0  0  0  0  0  0  0  0
    5.0209    1.0906    0.0000 C   0  0  0  0  0  0  0  0  0  0  0  0
  1 12  1  0  0  0  0
  1 13  1  0  0  0  0
  2 11  2  0  0  0  0
  3 27  2  0  0  0  0
  4  9  1  0  0  0  0
  4 16  1  0  0  0  0
  4 17  1  0  0  0  0
  5 11  1  0  0  0  0
  5 19  1  0  0  0  0
  5 29  1  0  0  0  0
  6 22  1  0  0  0  0
  6 27  1  0  0  0  0
  7 25  1  0  0  0  0
  7 33  2  0  0  0  0
  8 34  3  0  0  0  0
  9 11  1  0  0  0  0
  9 14  2  0  0  0  0
 10 14  1  0  0  0  0
 10 15  1  0  0  0  0
 10 19  2  0  0  0  0
 12 17  1  0  0  0  0
 12 18  1  0  0  0  0
 13 16  1  0  0  0  0
 13 18  1  0  0  0  0
 15 20  2  0  0  0  0
 15 21  1  0  0  0  0
 20 23  1  0  0  0  0
 20 31  1  0  0  0  0
 21 22  2  0  0  0  0
 22 26  1  0  0  0  0
 23 26  2  0  0  0  0
 24 27  1  0  0  0  0
 24 30  1  0  0  0  0
 24 32  2  0  0  0  0
 25 28  1  0  0  0  0
 25 30  2  0  0  0  0
 28 34  1  0  0  0  0
 28 35  1  0  0  0  0
 28 36  1  0  0  0  0
 32 33  1  0  0  0  0
M  END
> <PUBCHEM_COMPOUND_ID_TYPE>
0

> <PUBCHEM_TOTAL_CHARGE>
0

> <PUBCHEM_SUBSTANCE_ID>
310943346

> <PUBCHEM_SUBSTANCE_VERSION>
1

> <PUBCHEM_EXT_DATASOURCE_NAME>
4488

> <PUBCHEM_EXT_DATASOURCE_REGID>
SCHEMBL16121409

> <PUBCHEM_SUBSTANCE_COMMENT>
InChI=1S/C28H29N5O3/c1-17-5-6-20(31-26(34)18-7-8-30-25(10-18)28(2,3)16-29)11-23(17)19-9-24(27(35)32(4)13-19)33-14-21-12-22(15-33)36-21/h5-11,13,21-22H,12,14-15H2,1-4H3,(H,31,34)
InChIKey=QCANTRHJQVRPBP-UHFFFAOYSA-N

> <PUBCHEM_SUBSTANCE_SYNONYM>
SCHEMBL16121409

> <PUBCHEM_XREF_EXT_ID>
SCHEMBL16121409

> <PUBCHEM_EXT_DATASOURCE_URL>
https://www.surechembl.org/

> <PUBCHEM_EXT_SUBSTANCE_URL>
https://www.surechembl.org/chemical/SCHEMBL16121409

> <PUBCHEM_CID_ASSOCIATIONS>
117609770  1

> <PUBCHEM_COORDINATE_TYPE>
1
3

$$$$
