310945594
  -OEChem-07211613022D

 25 27  0     1  0  0  0  0  0999 V2000
   -3.3000   -1.2725    0.0000 Cl  0  0  0  0  0  0  0  0  0  0  0  0
   -0.2377   -1.2725    0.0000 N   0  0  0  0  0  0  0  0  0  0  0  0
    0.4894    1.6081    0.0000 N   0  0  3  0  0  0  0  0  0  0  0  0
    2.6149    1.2165    0.0000 N   0  0  0  0  0  0  0  0  0  0  0  0
   -0.9229    0.0000    0.0000 C   0  0  0  0  0  0  0  0  0  0  0  0
   -0.9229   -0.8110    0.0000 C   0  0  0  0  0  0  0  0  0  0  0  0
   -0.2517    0.4195    0.0000 C   0  0  0  0  0  0  0  0  0  0  0  0
    0.4754   -0.8250    0.0000 C   0  0  0  0  0  0  0  0  0  0  0  0
    0.4894   -0.0140    0.0000 C   0  0  0  0  0  0  0  0  0  0  0  0
    1.2305   -1.2445    0.0000 C   0  0  0  0  0  0  0  0  0  0  0  0
   -1.6500   -1.2445    0.0000 C   0  0  0  0  0  0  0  0  0  0  0  0
   -1.6500    0.4055    0.0000 C   0  0  0  0  0  0  0  0  0  0  0  0
   -0.2237    1.2445    0.0000 C   0  0  0  0  0  0  0  0  0  0  0  0
   -2.3771   -0.8250    0.0000 C   0  0  0  0  0  0  0  0  0  0  0  0
   -2.3492   -0.0140    0.0000 C   0  0  0  0  0  0  0  0  0  0  0  0
    1.2305   -2.0695    0.0000 C   0  0  0  0  0  0  0  0  0  0  0  0
    1.8877   -0.8390    0.0000 C   0  0  0  0  0  0  0  0  0  0  0  0
    1.8877   -2.4890    0.0000 C   0  0  0  0  0  0  0  0  0  0  0  0
    2.6149   -1.2445    0.0000 C   0  0  0  0  0  0  0  0  0  0  0  0
    1.2305    1.2305    0.0000 C   0  0  0  0  0  0  0  0  0  0  0  0
    2.6149   -2.0695    0.0000 C   0  0  0  0  0  0  0  0  0  0  0  0
    0.4894    2.4890    0.0000 C   0  0  0  0  0  0  0  0  0  0  0  0
    1.8877    1.6220    0.0000 C   0  0  0  0  0  0  0  0  0  0  0  0
    2.6289    0.3915    0.0000 C   0  0  0  0  0  0  0  0  0  0  0  0
    3.3000    1.6360    0.0000 C   0  0  0  0  0  0  0  0  0  0  0  0
  1 14  1  0  0  0  0
  2  6  1  0  0  0  0
  2  8  2  0  0  0  0
  3 13  1  0  0  0  0
  3 20  1  0  0  0  0
  3 22  1  0  0  0  0
  4 23  1  0  0  0  0
  4 24  1  0  0  0  0
  4 25  1  0  0  0  0
  5  6  1  0  0  0  0
  5  7  1  0  0  0  0
  5 12  2  0  0  0  0
  6 11  2  0  0  0  0
  7  9  2  0  0  0  0
  7 13  1  0  0  0  0
  8  9  1  0  0  0  0
  8 10  1  0  0  0  0
 10 16  2  0  0  0  0
 10 17  1  0  0  0  0
 11 14  1  0  0  0  0
 12 15  1  0  0  0  0
 14 15  2  0  0  0  0
 16 18  1  0  0  0  0
 17 19  2  0  0  0  0
 18 21  2  0  0  0  0
 19 21  1  0  0  0  0
 20 23  1  0  0  0  0
M  END
> <PUBCHEM_COMPOUND_ID_TYPE>
0

> <PUBCHEM_TOTAL_CHARGE>
0

> <PUBCHEM_SUBSTANCE_ID>
310945594

> <PUBCHEM_SUBSTANCE_VERSION>
1

> <PUBCHEM_EXT_DATASOURCE_NAME>
4488

> <PUBCHEM_EXT_DATASOURCE_REGID>
SCHEMBL16123693

> <PUBCHEM_SUBSTANCE_COMMENT>
InChI=1S/C21H24ClN3/c1-24(2)11-12-25(3)15-17-13-20(16-7-5-4-6-8-16)23-21-14-18(22)9-10-19(17)21/h4-10,13-14H,11-12,15H2,1-3H3
InChIKey=HNLVKOUTEHOBKV-UHFFFAOYSA-N

> <PUBCHEM_SUBSTANCE_SYNONYM>
SCHEMBL16123693

> <PUBCHEM_XREF_EXT_ID>
SCHEMBL16123693

> <PUBCHEM_EXT_DATASOURCE_URL>
https://www.surechembl.org/

> <PUBCHEM_EXT_SUBSTANCE_URL>
https://www.surechembl.org/chemical/SCHEMBL16123693

> <PUBCHEM_CID_ASSOCIATIONS>
86272159  1

> <PUBCHEM_COORDINATE_TYPE>
1
3

$$$$
