310946411
  -OEChem-07211613022D

 14 14  0     1  0  0  0  0  0999 V2000
   -2.1692   12.8391    0.0000 O   0  0  0  0  0  0  0  0  0  0  0  0
   -2.8837   14.0766    0.0000 O   0  0  0  0  0  0  0  0  0  0  0  0
   -4.3126   13.2516    0.0000 N   0  0  0  0  0  0  0  0  0  0  0  0
   -0.7402   12.8391    0.0000 C   0  0  0  0  0  0  0  0  0  0  0  0
   -2.8837   13.2516    0.0000 C   0  0  0  0  0  0  0  0  0  0  0  0
   -1.4547   13.2516    0.0000 C   0  0  0  0  0  0  0  0  0  0  0  0
   -3.5981   12.8391    0.0000 C   0  0  3  0  0  0  0  0  0  0  0  0
   -0.0258   13.2516    0.0000 C   0  0  0  0  0  0  0  0  0  0  0  0
   -0.7402   12.0141    0.0000 C   0  0  0  0  0  0  0  0  0  0  0  0
    0.6887   12.0141    0.0000 C   0  0  0  0  0  0  0  0  0  0  0  0
    0.6887   12.8391    0.0000 C   0  0  0  0  0  0  0  0  0  0  0  0
   -0.0258   11.6016    0.0000 C   0  0  0  0  0  0  0  0  0  0  0  0
   -3.5981   12.0141    0.0000 C   0  0  0  0  0  0  0  0  0  0  0  0
    1.4032   11.6016    0.0000 C   0  0  0  0  0  0  0  0  0  0  0  0
  1  5  1  0  0  0  0
  1  6  1  0  0  0  0
  2  5  2  0  0  0  0
  3  7  1  0  0  0  0
  4  6  1  0  0  0  0
  4  8  2  0  0  0  0
  4  9  1  0  0  0  0
  5  7  1  0  0  0  0
  7 13  1  0  0  0  0
  8 11  1  0  0  0  0
  9 12  2  0  0  0  0
 10 11  2  0  0  0  0
 10 12  1  0  0  0  0
 10 14  1  0  0  0  0
M  END
> <PUBCHEM_COMPOUND_ID_TYPE>
0

> <PUBCHEM_TOTAL_CHARGE>
0

> <PUBCHEM_SUBSTANCE_ID>
310946411

> <PUBCHEM_SUBSTANCE_VERSION>
1

> <PUBCHEM_EXT_DATASOURCE_NAME>
4488

> <PUBCHEM_EXT_DATASOURCE_REGID>
SCHEMBL16124532

> <PUBCHEM_SUBSTANCE_COMMENT>
InChI=1S/C11H15NO2/c1-8-3-5-10(6-4-8)7-14-11(13)9(2)12/h3-6,9H,7,12H2,1-2H3
InChIKey=VBVMYSWHMAGTIX-UHFFFAOYSA-N

> <PUBCHEM_SUBSTANCE_SYNONYM>
SCHEMBL16124532

> <PUBCHEM_XREF_EXT_ID>
SCHEMBL16124532

> <PUBCHEM_EXT_DATASOURCE_URL>
https://www.surechembl.org/

> <PUBCHEM_EXT_SUBSTANCE_URL>
https://www.surechembl.org/chemical/SCHEMBL16124532

> <PUBCHEM_CID_ASSOCIATIONS>
82112005  1

> <PUBCHEM_COORDINATE_TYPE>
1
3

$$$$
