310940826
  -OEChem-07211613022D

 43 46  0     1  0  0  0  0  0999 V2000
    5.1595   -1.0131    0.0000 O   0  0  0  0  0  0  0  0  0  0  0  0
    4.0306    0.9407    0.0000 O   0  0  0  0  0  0  0  0  0  0  0  0
    1.6716   -0.9986    0.0000 O   0  0  0  0  0  0  0  0  0  0  0  0
   -0.4704    1.0565    0.0000 O   0  0  0  0  0  0  0  0  0  0  0  0
    3.8136    2.7064    0.0000 O   0  0  0  0  0  0  0  0  0  0  0  0
   -2.6123   -0.9986    0.0000 O   0  0  0  0  0  0  0  0  0  0  0  0
   -5.4635   -0.9986    0.0000 O   0  0  0  0  0  0  0  0  0  0  0  0
    2.3953    0.2315    0.0000 N   0  0  0  0  0  0  0  0  0  0  0  0
    0.2533   -0.1737    0.0000 N   0  0  0  0  0  0  0  0  0  0  0  0
   -1.8887    0.2315    0.0000 N   0  0  0  0  0  0  0  0  0  0  0  0
   -4.0306   -0.1737    0.0000 N   0  0  0  0  0  0  0  0  0  0  0  0
   -2.5979   -1.8236    0.0000 N   0  0  0  0  0  0  0  0  0  0  0  0
    4.7543   -0.2895    0.0000 C   0  0  3  0  0  0  0  0  0  0  0  0
    4.0306    0.1302    0.0000 C   0  0  0  0  0  0  0  0  0  0  0  0
    4.3636   -0.9842    0.0000 C   0  0  0  0  0  0  0  0  0  0  0  0
    3.3504   -0.2750    0.0000 C   0  0  3  0  0  0  0  0  0  0  0  0
    5.4635    0.1447    0.0000 C   0  0  0  0  0  0  0  0  0  0  0  0
    3.3360   -1.3315    0.0000 C   0  0  0  0  0  0  0  0  0  0  0  0
    1.7006   -0.1158    0.0000 C   0  0  0  0  0  0  0  0  0  0  0  0
    0.9769    0.2605    0.0000 C   0  0  3  0  0  0  0  0  0  0  0  0
    2.6123   -1.7512    0.0000 C   0  0  0  0  0  0  0  0  0  0  0  0
    0.9914    1.0999    0.0000 C   0  0  0  0  0  0  0  0  0  0  0  0
   -0.4704    0.2460    0.0000 C   0  0  0  0  0  0  0  0  0  0  0  0
    1.6716    1.5051    0.0000 C   0  0  0  0  0  0  0  0  0  0  0  0
    1.8598   -1.4328    0.0000 C   0  0  0  0  0  0  0  0  0  0  0  0
    2.5255   -2.5617    0.0000 C   0  0  0  0  0  0  0  0  0  0  0  0
   -1.1506   -0.1447    0.0000 C   0  0  3  0  0  0  0  0  0  0  0  0
    1.3243   -2.0262    0.0000 C   0  0  0  0  0  0  0  0  0  0  0  0
    1.7150   -2.7209    0.0000 C   0  0  0  0  0  0  0  0  0  0  0  0
    2.3953    1.0999    0.0000 C   0  0  0  0  0  0  0  0  0  0  0  0
    1.7006    2.3301    0.0000 C   0  0  0  0  0  0  0  0  0  0  0  0
   -2.5834   -0.1158    0.0000 C   0  0  0  0  0  0  0  0  0  0  0  0
   -1.1651   -0.9697    0.0000 C   0  0  0  0  0  0  0  0  0  0  0  0
    3.1189    2.3301    0.0000 C   0  0  0  0  0  0  0  0  0  0  0  0
    3.1189    1.5051    0.0000 C   0  0  0  0  0  0  0  0  0  0  0  0
    2.3808    2.7209    0.0000 C   0  0  0  0  0  0  0  0  0  0  0  0
   -3.3215    0.2605    0.0000 C   0  0  0  0  0  0  0  0  0  0  0  0
   -1.8743   -1.3604    0.0000 C   0  0  0  0  0  0  0  0  0  0  0  0
   -4.0306   -0.9697    0.0000 C   0  0  0  0  0  0  0  0  0  0  0  0
   -4.7543    0.2605    0.0000 C   0  0  0  0  0  0  0  0  0  0  0  0
   -4.7253   -1.3749    0.0000 C   0  0  0  0  0  0  0  0  0  0  0  0
   -5.4345   -0.1302    0.0000 C   0  0  0  0  0  0  0  0  0  0  0  0
    4.5517    2.3012    0.0000 C   0  0  0  0  0  0  0  0  0  0  0  0
  1 13  1  0  0  0  0
  1 15  1  0  0  0  0
  2 14  2  0  0  0  0
  3 19  2  0  0  0  0
  4 23  2  0  0  0  0
  5 34  1  0  0  0  0
  5 43  1  0  0  0  0
  6 32  2  0  0  0  0
  7 41  1  0  0  0  0
  7 42  1  0  0  0  0
  8 16  1  0  0  0  0
  8 19  1  0  0  0  0
  9 20  1  0  0  0  0
  9 23  1  0  0  0  0
 10 27  1  0  0  0  0
 10 32  1  0  0  0  0
 11 37  1  0  0  0  0
 11 39  1  0  0  0  0
 11 40  1  0  0  0  0
 12 38  3  0  0  0  0
 13 14  1  0  0  0  0
 13 15  1  0  0  0  0
 13 17  1  0  0  0  0
 14 16  1  0  0  0  0
 16 18  1  0  0  0  0
 18 21  1  0  0  0  0
 19 20  1  0  0  0  0
 20 22  1  0  0  0  0
 21 25  2  0  0  0  0
 21 26  1  0  0  0  0
 22 24  1  0  0  0  0
 23 27  1  0  0  0  0
 24 30  2  0  0  0  0
 24 31  1  0  0  0  0
 25 28  1  0  0  0  0
 26 29  1  0  0  0  0
 27 33  1  0  0  0  0
 28 29  1  0  0  0  0
 30 35  1  0  0  0  0
 31 36  2  0  0  0  0
 32 37  1  0  0  0  0
 33 38  1  0  0  0  0
 34 35  2  0  0  0  0
 34 36  1  0  0  0  0
 39 41  1  0  0  0  0
 40 42  1  0  0  0  0
M  END
> <PUBCHEM_COMPOUND_ID_TYPE>
0

> <PUBCHEM_TOTAL_CHARGE>
0

> <PUBCHEM_SUBSTANCE_ID>
310940826

> <PUBCHEM_SUBSTANCE_VERSION>
1

> <PUBCHEM_EXT_DATASOURCE_NAME>
4488

> <PUBCHEM_EXT_DATASOURCE_REGID>
SCHEMBL16118785

> <PUBCHEM_SUBSTANCE_COMMENT>
InChI=1S/C31H41N5O7/c1-31(20-43-31)28(38)25(17-21-5-3-4-6-21)34-30(40)26(18-22-7-9-23(41-2)10-8-22)35-29(39)24(11-12-32)33-27(37)19-36-13-15-42-16-14-36/h5,7-10,24-26H,3-4,6,11,13-20H2,1-2H3,(H,33,37)(H,34,40)(H,35,39)
InChIKey=LHOXZFKCPDJYHD-UHFFFAOYSA-N

> <PUBCHEM_SUBSTANCE_SYNONYM>
SCHEMBL16118785

> <PUBCHEM_XREF_EXT_ID>
SCHEMBL16118785

> <PUBCHEM_EXT_DATASOURCE_URL>
https://www.surechembl.org/

> <PUBCHEM_EXT_SUBSTANCE_URL>
https://www.surechembl.org/chemical/SCHEMBL16118785

> <PUBCHEM_CID_ASSOCIATIONS>
86297123  1

> <PUBCHEM_COORDINATE_TYPE>
1
3

$$$$
