310935064
  -OEChem-07211613022D

 31 34  0     1  0  0  0  0  0999 V2000
    9.8999   -0.6600    0.0000 F   0  0  0  0  0  0  0  0  0  0  0  0
    3.3659   -2.9040    0.0000 F   0  0  0  0  0  0  0  0  0  0  0  0
    8.7118   -2.9040    0.0000 O   0  0  0  0  0  0  0  0  0  0  0  0
    8.7118   -1.4850    0.0000 O   0  0  0  0  0  0  0  0  0  0  0  0
    3.5310   -4.5539    0.0000 O   0  0  0  0  0  0  0  0  0  0  0  0
    4.9499   -4.3889    0.0000 N   0  0  0  0  0  0  0  0  0  0  0  0
    1.3200   -4.3559    0.0000 N   0  0  0  0  0  0  0  0  0  0  0  0
    7.4909   -2.1780    0.0000 C   0  0  3  0  0  0  0  0  0  0  0  0
    7.8539   -1.4520    0.0000 C   0  0  0  0  0  0  0  0  0  0  0  0
    6.9959   -2.8709    0.0000 C   0  0  0  0  0  0  0  0  0  0  0  0
    6.2369   -2.6070    0.0000 C   0  0  3  0  0  0  0  0  0  0  0  0
    6.9959   -1.5180    0.0000 C   0  0  0  0  0  0  0  0  0  0  0  0
    8.3159   -2.1780    0.0000 C   0  0  0  0  0  0  0  0  0  0  0  0
    8.8769   -1.5840    0.0000 C   0  0  0  0  0  0  0  0  0  0  0  0
    6.2369   -1.7820    0.0000 C   0  0  0  0  0  0  0  0  0  0  0  0
    5.5439   -3.1020    0.0000 C   0  0  0  0  0  0  0  0  0  0  0  0
    7.4249   -0.7590    0.0000 C   0  0  0  0  0  0  0  0  0  0  0  0
    9.0749   -0.6930    0.0000 C   0  0  0  0  0  0  0  0  0  0  0  0
    4.7849   -2.7720    0.0000 C   0  0  0  0  0  0  0  0  0  0  0  0
    5.6099   -3.9269    0.0000 C   0  0  0  0  0  0  0  0  0  0  0  0
    4.1249   -3.2340    0.0000 C   0  0  0  0  0  0  0  0  0  0  0  0
    7.7879   -0.0330    0.0000 C   0  0  0  0  0  0  0  0  0  0  0  0
    4.1909   -4.0589    0.0000 C   0  0  0  0  0  0  0  0  0  0  0  0
    8.6459    0.0000    0.0000 C   0  0  0  0  0  0  0  0  0  0  0  0
    9.1408   -2.1119    0.0000 C   0  0  0  0  0  0  0  0  0  0  0  0
    2.7389   -4.2239    0.0000 C   0  0  0  0  0  0  0  0  0  0  0  0
    2.0790   -4.6859    0.0000 C   0  0  0  0  0  0  0  0  0  0  0  0
    0.5940   -4.7519    0.0000 C   0  0  0  0  0  0  0  0  0  0  0  0
    1.1550   -3.5310    0.0000 C   0  0  0  0  0  0  0  0  0  0  0  0
    0.0000   -4.2239    0.0000 C   0  0  0  0  0  0  0  0  0  0  0  0
    0.3300   -3.4649    0.0000 C   0  0  0  0  0  0  0  0  0  0  0  0
  1 18  1  0  0  0  0
  2 21  1  0  0  0  0
  3 13  2  0  0  0  0
  4 13  1  0  0  0  0
  5 23  1  0  0  0  0
  5 26  1  0  0  0  0
  6 20  1  0  0  0  0
  6 23  2  0  0  0  0
  7 27  1  0  0  0  0
  7 28  1  0  0  0  0
  7 29  1  0  0  0  0
  8  9  1  0  0  0  0
  8 10  1  0  0  0  0
  8 12  1  0  0  0  0
  8 13  1  0  0  0  0
  9 14  1  0  0  0  0
  9 17  2  0  0  0  0
 10 11  1  0  0  0  0
 11 15  1  0  0  0  0
 11 16  1  0  0  0  0
 12 15  1  0  0  0  0
 14 18  2  0  0  0  0
 14 25  1  0  0  0  0
 16 19  1  0  0  0  0
 16 20  2  0  0  0  0
 17 22  1  0  0  0  0
 18 24  1  0  0  0  0
 19 21  2  0  0  0  0
 21 23  1  0  0  0  0
 22 24  2  0  0  0  0
 26 27  1  0  0  0  0
 28 30  1  0  0  0  0
 29 31  1  0  0  0  0
 30 31  1  0  0  0  0
M  END
> <PUBCHEM_COMPOUND_ID_TYPE>
0

> <PUBCHEM_TOTAL_CHARGE>
0

> <PUBCHEM_SUBSTANCE_ID>
310935064

> <PUBCHEM_SUBSTANCE_VERSION>
1

> <PUBCHEM_EXT_DATASOURCE_NAME>
4488

> <PUBCHEM_EXT_DATASOURCE_REGID>
SCHEMBL16112585

> <PUBCHEM_SUBSTANCE_COMMENT>
InChI=1S/C24H28F2N2O3/c1-16-19(5-4-6-20(16)25)24(23(29)30)8-7-17(14-24)18-13-21(26)22(27-15-18)31-12-11-28-9-2-3-10-28/h4-6,13,15,17H,2-3,7-12,14H2,1H3,(H,29,30)
InChIKey=JHYKZKSNHRCCOW-UHFFFAOYSA-N

> <PUBCHEM_SUBSTANCE_SYNONYM>
SCHEMBL16112585

> <PUBCHEM_XREF_EXT_ID>
SCHEMBL16112585

> <PUBCHEM_EXT_DATASOURCE_URL>
https://www.surechembl.org/

> <PUBCHEM_EXT_SUBSTANCE_URL>
https://www.surechembl.org/chemical/SCHEMBL16112585

> <PUBCHEM_CID_ASSOCIATIONS>
117603164  1

> <PUBCHEM_COORDINATE_TYPE>
1
3

$$$$
