310943693
  -OEChem-07211613022D

 25 27  0     1  0  0  0  0  0999 V2000
    1.9211    0.3628    0.0000 N   0  0  0  0  0  0  0  0  0  0  0  0
   -2.4920   -0.4104    0.0000 N   0  0  3  0  0  0  0  0  0  0  0  0
    3.3366   -0.4580    0.0000 N   0  0  0  0  0  0  0  0  0  0  0  0
   -4.2644    0.1249    0.0000 N   0  0  3  0  0  0  0  0  0  0  0  0
    0.3747    0.4223    0.0000 C   0  0  0  0  0  0  0  0  0  0  0  0
   -1.0646   -0.4104    0.0000 C   0  0  0  0  0  0  0  0  0  0  0  0
    1.0646    0.8386    0.0000 C   0  0  0  0  0  0  0  0  0  0  0  0
   -1.7545   -0.8148    0.0000 C   0  0  0  0  0  0  0  0  0  0  0  0
   -0.3628    0.8267    0.0000 C   0  0  0  0  0  0  0  0  0  0  0  0
    0.3628   -0.3985    0.0000 C   0  0  0  0  0  0  0  0  0  0  0  0
   -1.0527    0.4223    0.0000 C   0  0  0  0  0  0  0  0  0  0  0  0
   -0.3390   -0.8148    0.0000 C   0  0  0  0  0  0  0  0  0  0  0  0
    1.9330   -0.4699    0.0000 C   0  0  0  0  0  0  0  0  0  0  0  0
    2.6110    0.7672    0.0000 C   0  0  0  0  0  0  0  0  0  0  0  0
    2.6348   -0.8743    0.0000 C   0  0  0  0  0  0  0  0  0  0  0  0
    3.3366    0.3747    0.0000 C   0  0  0  0  0  0  0  0  0  0  0  0
   -3.1700   -0.8743    0.0000 C   0  0  0  0  0  0  0  0  0  0  0  0
   -2.4325    0.4104    0.0000 C   0  0  0  0  0  0  0  0  0  0  0  0
   -3.9670   -0.6364    0.0000 C   0  0  0  0  0  0  0  0  0  0  0  0
    4.2288   -0.9695    0.0000 C   0  0  0  0  0  0  0  0  0  0  0  0
   -3.0392    0.9695    0.0000 C   0  0  0  0  0  0  0  0  0  0  0  0
   -3.8600    0.8505    0.0000 C   0  0  0  0  0  0  0  0  0  0  0  0
    5.0971   -0.4580    0.0000 C   0  0  0  0  0  0  0  0  0  0  0  0
   -5.0971    0.1249    0.0000 C   0  0  0  0  0  0  0  0  0  0  0  0
    5.0257    0.5769    0.0000 C   0  0  0  0  0  0  0  0  0  0  0  0
  1  7  1  0  0  0  0
  1 13  1  0  0  0  0
  1 14  1  0  0  0  0
  2  8  1  0  0  0  0
  2 17  1  0  0  0  0
  2 18  1  0  0  0  0
  3 15  1  0  0  0  0
  3 16  1  0  0  0  0
  3 20  1  0  0  0  0
  4 19  1  0  0  0  0
  4 22  1  0  0  0  0
  4 24  1  0  0  0  0
  5  7  1  0  0  0  0
  5  9  2  0  0  0  0
  5 10  1  0  0  0  0
  6  8  1  0  0  0  0
  6 11  2  0  0  0  0
  6 12  1  0  0  0  0
  9 11  1  0  0  0  0
 10 12  2  0  0  0  0
 13 15  1  0  0  0  0
 14 16  1  0  0  0  0
 17 19  1  0  0  0  0
 18 21  1  0  0  0  0
 20 23  1  0  0  0  0
 21 22  1  0  0  0  0
 23 25  2  0  0  0  0
M  END
> <PUBCHEM_COMPOUND_ID_TYPE>
0

> <PUBCHEM_TOTAL_CHARGE>
0

> <PUBCHEM_SUBSTANCE_ID>
310943693

> <PUBCHEM_SUBSTANCE_VERSION>
1

> <PUBCHEM_EXT_DATASOURCE_NAME>
4488

> <PUBCHEM_EXT_DATASOURCE_REGID>
SCHEMBL16121761

> <PUBCHEM_SUBSTANCE_COMMENT>
InChI=1S/C21H34N4/c1-3-9-23-14-16-25(17-15-23)19-21-7-5-20(6-8-21)18-24-11-4-10-22(2)12-13-24/h3,5-8H,1,4,9-19H2,2H3
InChIKey=YTLMILQGFQMRJF-UHFFFAOYSA-N

> <PUBCHEM_SUBSTANCE_SYNONYM>
SCHEMBL16121761

> <PUBCHEM_XREF_EXT_ID>
SCHEMBL16121761

> <PUBCHEM_EXT_DATASOURCE_URL>
https://www.surechembl.org/

> <PUBCHEM_EXT_SUBSTANCE_URL>
https://www.surechembl.org/chemical/SCHEMBL16121761

> <PUBCHEM_CID_ASSOCIATIONS>
86300324  1

> <PUBCHEM_COORDINATE_TYPE>
1
3

$$$$
