310938561
  -OEChem-07211613022D

 16 16  0     1  0  0  0  0  0999 V2000
    2.8762   -0.2771    0.0000 O   0  0  0  0  0  0  0  0  0  0  0  0
    2.8762    1.3729    0.0000 O   0  0  0  0  0  0  0  0  0  0  0  0
    2.1617    0.9604    0.0000 N   0  0  0  0  0  0  0  0  0  0  0  0
    1.4472   -0.2771    0.0000 N   0  0  0  0  0  0  0  0  0  0  0  0
    3.5907    0.1354    0.0000 C   0  0  3  0  0  0  0  0  0  0  0  0
    2.1617    0.1354    0.0000 C   0  0  0  0  0  0  0  0  0  0  0  0
    1.4472    1.3729    0.0000 C   0  0  0  0  0  0  0  0  0  0  0  0
    0.7328    0.9604    0.0000 C   0  0  0  0  0  0  0  0  0  0  0  0
    1.4472    2.1979    0.0000 C   0  0  0  0  0  0  0  0  0  0  0  0
    3.5907    0.9604    0.0000 C   0  0  0  0  0  0  0  0  0  0  0  0
    4.3051   -0.2771    0.0000 C   0  0  0  0  0  0  0  0  0  0  0  0
    0.7328    0.1354    0.0000 C   0  0  0  0  0  0  0  0  0  0  0  0
    4.3051    0.5479    0.0000 C   0  0  0  0  0  0  0  0  0  0  0  0
    0.6222    2.1979    0.0000 C   0  0  0  0  0  0  0  0  0  0  0  0
    2.2722    2.1979    0.0000 C   0  0  0  0  0  0  0  0  0  0  0  0
    5.0196    0.1354    0.0000 C   0  0  0  0  0  0  0  0  0  0  0  0
  1  5  1  0  0  0  0
  1  6  1  0  0  0  0
  2 10  1  0  0  0  0
  3  6  1  0  0  0  0
  3  7  2  0  0  0  0
  4  6  2  0  0  0  0
  4 12  1  0  0  0  0
  5 10  1  0  0  0  0
  5 11  1  0  0  0  0
  5 13  1  0  0  0  0
  7  8  1  0  0  0  0
  7  9  1  0  0  0  0
  8 12  2  0  0  0  0
  9 14  1  0  0  0  0
  9 15  1  0  0  0  0
 11 16  1  0  0  0  0
M  END
> <PUBCHEM_COMPOUND_ID_TYPE>
0

> <PUBCHEM_TOTAL_CHARGE>
0

> <PUBCHEM_SUBSTANCE_ID>
310938561

> <PUBCHEM_SUBSTANCE_VERSION>
1

> <PUBCHEM_EXT_DATASOURCE_NAME>
4488

> <PUBCHEM_EXT_DATASOURCE_REGID>
SCHEMBL16116475

> <PUBCHEM_SUBSTANCE_COMMENT>
InChI=1S/C12H20N2O2/c1-5-12(4,8-15)16-11-13-7-6-10(14-11)9(2)3/h6-7,9,15H,5,8H2,1-4H3
InChIKey=DNJJPZRSDIYGFB-UHFFFAOYSA-N

> <PUBCHEM_SUBSTANCE_SYNONYM>
SCHEMBL16116475

> <PUBCHEM_XREF_EXT_ID>
SCHEMBL16116475

> <PUBCHEM_EXT_DATASOURCE_URL>
https://www.surechembl.org/

> <PUBCHEM_EXT_SUBSTANCE_URL>
https://www.surechembl.org/chemical/SCHEMBL16116475

> <PUBCHEM_CID_ASSOCIATIONS>
117606000  1

> <PUBCHEM_COORDINATE_TYPE>
1
3

> <PUBCHEM_BONDANNOTATIONS>
9  14  3
9  15  3

$$$$
