310935631
  -OEChem-07211613022D

 29 31  0     1  0  0  0  0  0999 V2000
    0.6552   -4.3164    0.0000 P   0  0  0  0  0  0  0  0  0  0  0  0
   -0.0592   -3.9039    0.0000 O   0  0  0  0  0  0  0  0  0  0  0  0
    0.2427   -5.0309    0.0000 O   0  0  0  0  0  0  0  0  0  0  0  0
   -0.7737   -5.1414    0.0000 O   0  0  0  0  0  0  0  0  0  0  0  0
   -3.6316   -1.8414    0.0000 O   0  0  0  0  0  0  0  0  0  0  0  0
   -6.4895   -2.6664    0.0000 O   0  0  0  0  0  0  0  0  0  0  0  0
    1.3697   -4.7289    0.0000 C   0  0  0  0  0  0  0  0  0  0  0  0
    1.0677   -3.6020    0.0000 C   0  0  0  0  0  0  0  0  0  0  0  0
   -0.7737   -4.3164    0.0000 C   0  0  0  0  0  0  0  0  0  0  0  0
   -1.4882   -3.9039    0.0000 C   0  0  0  0  0  0  0  0  0  0  0  0
    2.0842   -4.3164    0.0000 C   0  0  0  0  0  0  0  0  0  0  0  0
    0.6552   -2.8875    0.0000 C   0  0  0  0  0  0  0  0  0  0  0  0
    1.3697   -5.5539    0.0000 C   0  0  0  0  0  0  0  0  0  0  0  0
    1.8927   -3.6020    0.0000 C   0  0  0  0  0  0  0  0  0  0  0  0
   -1.4882   -3.0789    0.0000 C   0  0  0  0  0  0  0  0  0  0  0  0
   -2.2026   -4.3164    0.0000 C   0  0  0  0  0  0  0  0  0  0  0  0
   -2.9171   -3.0789    0.0000 C   0  0  0  0  0  0  0  0  0  0  0  0
    2.7987   -4.7289    0.0000 C   0  0  0  0  0  0  0  0  0  0  0  0
    1.0677   -2.1730    0.0000 C   0  0  0  0  0  0  0  0  0  0  0  0
    2.0842   -5.9664    0.0000 C   0  0  0  0  0  0  0  0  0  0  0  0
    2.3052   -2.8875    0.0000 C   0  0  0  0  0  0  0  0  0  0  0  0
   -2.2026   -2.6664    0.0000 C   0  0  0  0  0  0  0  0  0  0  0  0
   -2.9171   -3.9039    0.0000 C   0  0  0  0  0  0  0  0  0  0  0  0
    2.7987   -5.5539    0.0000 C   0  0  0  0  0  0  0  0  0  0  0  0
    1.8927   -2.1730    0.0000 C   0  0  0  0  0  0  0  0  0  0  0  0
   -3.6316   -2.6664    0.0000 C   0  0  3  0  0  0  0  0  0  0  0  0
   -4.3461   -3.0789    0.0000 C   0  0  0  0  0  0  0  0  0  0  0  0
   -5.0605   -2.6664    0.0000 C   0  0  0  0  0  0  0  0  0  0  0  0
   -5.7750   -3.0789    0.0000 C   0  0  0  0  0  0  0  0  0  0  0  0
  1  2  1  0  0  0  0
  1  3  2  0  0  0  0
  1  7  1  0  0  0  0
  1  8  1  0  0  0  0
  2  9  1  0  0  0  0
  4  9  2  0  0  0  0
  5 26  1  0  0  0  0
  6 29  1  0  0  0  0
  7 11  2  0  0  0  0
  7 13  1  0  0  0  0
  8 12  2  0  0  0  0
  8 14  1  0  0  0  0
  9 10  1  0  0  0  0
 10 15  2  0  0  0  0
 10 16  1  0  0  0  0
 11 18  1  0  0  0  0
 12 19  1  0  0  0  0
 13 20  2  0  0  0  0
 14 21  2  0  0  0  0
 15 22  1  0  0  0  0
 16 23  2  0  0  0  0
 17 22  2  0  0  0  0
 17 23  1  0  0  0  0
 17 26  1  0  0  0  0
 18 24  2  0  0  0  0
 19 25  2  0  0  0  0
 20 24  1  0  0  0  0
 21 25  1  0  0  0  0
 26 27  1  0  0  0  0
 27 28  1  0  0  0  0
 28 29  1  0  0  0  0
M  END
> <PUBCHEM_COMPOUND_ID_TYPE>
0

> <PUBCHEM_TOTAL_CHARGE>
0

> <PUBCHEM_SUBSTANCE_ID>
310935631

> <PUBCHEM_SUBSTANCE_VERSION>
1

> <PUBCHEM_EXT_DATASOURCE_NAME>
4488

> <PUBCHEM_EXT_DATASOURCE_REGID>
SCHEMBL16113209

> <PUBCHEM_SUBSTANCE_COMMENT>
InChI=1S/C23H23O5P/c24-17-7-12-22(25)18-13-15-19(16-14-18)23(26)28-29(27,20-8-3-1-4-9-20)21-10-5-2-6-11-21/h1-6,8-11,13-16,22,24-25H,7,12,17H2
InChIKey=YMKCMLGKTFDZEW-UHFFFAOYSA-N

> <PUBCHEM_SUBSTANCE_SYNONYM>
SCHEMBL16113209

> <PUBCHEM_XREF_EXT_ID>
SCHEMBL16113209

> <PUBCHEM_EXT_DATASOURCE_URL>
https://www.surechembl.org/

> <PUBCHEM_EXT_SUBSTANCE_URL>
https://www.surechembl.org/chemical/SCHEMBL16113209

> <PUBCHEM_CID_ASSOCIATIONS>
117603647  1

> <PUBCHEM_COORDINATE_TYPE>
1
3

$$$$
