310941149
  -OEChem-07211613022D

 43 46  0     1  0  0  0  0  0999 V2000
    5.0652    0.6724    0.0000 O   0  0  0  0  0  0  0  0  0  0  0  0
    3.9396   -1.2864    0.0000 O   0  0  0  0  0  0  0  0  0  0  0  0
    1.7907    0.7894    0.0000 O   0  0  0  0  0  0  0  0  0  0  0  0
   -0.3728   -1.2864    0.0000 O   0  0  0  0  0  0  0  0  0  0  0  0
   -2.5217    0.7894    0.0000 O   0  0  0  0  0  0  0  0  0  0  0  0
    3.9396   -2.9382    0.0000 O   0  0  0  0  0  0  0  0  0  0  0  0
   -5.4014   -1.6957    0.0000 O   0  0  0  0  0  0  0  0  0  0  0  0
    2.5070   -0.4531    0.0000 N   0  0  0  0  0  0  0  0  0  0  0  0
    0.3435   -0.0439    0.0000 N   0  0  0  0  0  0  0  0  0  0  0  0
   -1.8054   -0.4531    0.0000 N   0  0  0  0  0  0  0  0  0  0  0  0
    4.6705    0.0000    0.0000 C   0  0  3  0  0  0  0  0  0  0  0  0
    3.9542   -0.4093    0.0000 C   0  0  0  0  0  0  0  0  0  0  0  0
    4.2758    0.6871    0.0000 C   0  0  0  0  0  0  0  0  0  0  0  0
    3.2086   -0.0147    0.0000 C   0  0  3  0  0  0  0  0  0  0  0  0
    5.4014   -0.4239    0.0000 C   0  0  0  0  0  0  0  0  0  0  0  0
    3.2233    1.3010    0.0000 C   0  0  0  0  0  0  0  0  0  0  0  0
    1.7761   -0.0439    0.0000 C   0  0  0  0  0  0  0  0  0  0  0  0
    1.0891   -0.4239    0.0000 C   0  0  3  0  0  0  0  0  0  0  0  0
    2.4924    1.7249    0.0000 C   0  0  0  0  0  0  0  0  0  0  0  0
    1.0744   -1.2571    0.0000 C   0  0  0  0  0  0  0  0  0  0  0  0
   -0.3581   -0.4093    0.0000 C   0  0  0  0  0  0  0  0  0  0  0  0
    2.5070    2.5436    0.0000 C   0  0  0  0  0  0  0  0  0  0  0  0
    1.7907    1.3157    0.0000 C   0  0  0  0  0  0  0  0  0  0  0  0
    1.8054   -1.6664    0.0000 C   0  0  0  0  0  0  0  0  0  0  0  0
   -1.0744   -0.0147    0.0000 C   0  0  3  0  0  0  0  0  0  0  0  0
    1.7907    2.9382    0.0000 C   0  0  0  0  0  0  0  0  0  0  0  0
    1.0891    1.7249    0.0000 C   0  0  0  0  0  0  0  0  0  0  0  0
    1.0891    2.5581    0.0000 C   0  0  0  0  0  0  0  0  0  0  0  0
   -2.5362   -0.0439    0.0000 C   0  0  0  0  0  0  0  0  0  0  0  0
    1.8054   -2.4997    0.0000 C   0  0  0  0  0  0  0  0  0  0  0  0
    2.5070   -1.2864    0.0000 C   0  0  0  0  0  0  0  0  0  0  0  0
   -3.2379   -0.4239    0.0000 C   0  0  0  0  0  0  0  0  0  0  0  0
    3.2233   -2.4851    0.0000 C   0  0  0  0  0  0  0  0  0  0  0  0
    2.5217   -2.9090    0.0000 C   0  0  0  0  0  0  0  0  0  0  0  0
    3.2233   -1.6811    0.0000 C   0  0  0  0  0  0  0  0  0  0  0  0
   -3.9542   -0.0439    0.0000 C   0  0  0  0  0  0  0  0  0  0  0  0
   -3.2379   -1.2571    0.0000 C   0  0  0  0  0  0  0  0  0  0  0  0
   -1.0598    0.8186    0.0000 C   0  0  0  0  0  0  0  0  0  0  0  0
   -4.6851   -1.2571    0.0000 C   0  0  0  0  0  0  0  0  0  0  0  0
   -4.6559   -0.4239    0.0000 C   0  0  0  0  0  0  0  0  0  0  0  0
   -3.9396   -1.6664    0.0000 C   0  0  0  0  0  0  0  0  0  0  0  0
    0.3435    2.9382    0.0000 C   0  0  0  0  0  0  0  0  0  0  0  0
    4.6851   -2.4851    0.0000 C   0  0  0  0  0  0  0  0  0  0  0  0
  1 11  1  0  0  0  0
  1 13  1  0  0  0  0
  2 12  2  0  0  0  0
  3 17  2  0  0  0  0
  4 21  2  0  0  0  0
  5 29  2  0  0  0  0
  6 33  1  0  0  0  0
  6 43  1  0  0  0  0
  7 39  1  0  0  0  0
  8 14  1  0  0  0  0
  8 17  1  0  0  0  0
  9 18  1  0  0  0  0
  9 21  1  0  0  0  0
 10 25  1  0  0  0  0
 10 29  1  0  0  0  0
 11 12  1  0  0  0  0
 11 13  1  0  0  0  0
 11 15  1  0  0  0  0
 12 14  1  0  0  0  0
 14 16  1  0  0  0  0
 16 19  1  0  0  0  0
 17 18  1  0  0  0  0
 18 20  1  0  0  0  0
 19 22  2  0  0  0  0
 19 23  1  0  0  0  0
 20 24  1  0  0  0  0
 21 25  1  0  0  0  0
 22 26  1  0  0  0  0
 23 27  2  0  0  0  0
 24 30  2  0  0  0  0
 24 31  1  0  0  0  0
 25 38  1  0  0  0  0
 26 28  2  0  0  0  0
 27 28  1  0  0  0  0
 28 42  1  0  0  0  0
 29 32  1  0  0  0  0
 30 34  1  0  0  0  0
 31 35  2  0  0  0  0
 32 36  1  0  0  0  0
 32 37  1  0  0  0  0
 33 34  2  0  0  0  0
 33 35  1  0  0  0  0
 36 40  1  0  0  0  0
 37 41  1  0  0  0  0
 39 40  1  0  0  0  0
 39 41  1  0  0  0  0
M  END
> <PUBCHEM_COMPOUND_ID_TYPE>
0

> <PUBCHEM_TOTAL_CHARGE>
0

> <PUBCHEM_SUBSTANCE_ID>
310941149

> <PUBCHEM_SUBSTANCE_VERSION>
1

> <PUBCHEM_EXT_DATASOURCE_NAME>
4488

> <PUBCHEM_EXT_DATASOURCE_REGID>
SCHEMBL16119109

> <PUBCHEM_SUBSTANCE_COMMENT>
InChI=1S/C33H43N3O7/c1-20-5-7-22(8-6-20)17-27(29(38)33(3)19-43-33)35-32(41)28(18-23-9-15-26(42-4)16-10-23)36-30(39)21(2)34-31(40)24-11-13-25(37)14-12-24/h5-10,15-16,21,24-25,27-28,37H,11-14,17-19H2,1-4H3,(H,34,40)(H,35,41)(H,36,39)
InChIKey=PDLNURFLCQTRBU-UHFFFAOYSA-N

> <PUBCHEM_SUBSTANCE_SYNONYM>
SCHEMBL16119109

> <PUBCHEM_XREF_EXT_ID>
SCHEMBL16119109

> <PUBCHEM_EXT_DATASOURCE_URL>
https://www.surechembl.org/

> <PUBCHEM_EXT_SUBSTANCE_URL>
https://www.surechembl.org/chemical/SCHEMBL16119109

> <PUBCHEM_CID_ASSOCIATIONS>
117608030  1

> <PUBCHEM_COORDINATE_TYPE>
1
3

$$$$
