310947312
  -OEChem-07211613022D

 34 37  0     1  0  0  0  0  0999 V2000
    4.5523   -1.7920    0.0000 S   0  0  0  0  0  0  0  0  0  0  0  0
    0.7814   -1.5213    0.0000 O   0  0  0  0  0  0  0  0  0  0  0  0
   -1.7768    2.1764    0.0000 O   0  0  0  0  0  0  0  0  0  0  0  0
    4.7658   -0.9951    0.0000 O   0  0  0  0  0  0  0  0  0  0  0  0
    4.3388   -2.5889    0.0000 O   0  0  0  0  0  0  0  0  0  0  0  0
    1.1512   -0.1410    0.0000 N   0  0  0  0  0  0  0  0  0  0  0  0
    1.6361    0.5264    0.0000 N   0  0  0  0  0  0  0  0  0  0  0  0
   -2.4913    0.9389    0.0000 N   0  0  0  0  0  0  0  0  0  0  0  0
    0.3666    0.1139    0.0000 C   0  0  0  0  0  0  0  0  0  0  0  0
    0.3666    0.9389    0.0000 C   0  0  0  0  0  0  0  0  0  0  0  0
    1.1512    1.1938    0.0000 C   0  0  0  0  0  0  0  0  0  0  0  0
    1.3647   -0.9379    0.0000 C   0  0  0  0  0  0  0  0  0  0  0  0
   -0.3479    1.3514    0.0000 C   0  0  0  0  0  0  0  0  0  0  0  0
   -1.0624    0.9389    0.0000 C   0  0  0  0  0  0  0  0  0  0  0  0
   -0.3479   -0.2986    0.0000 C   0  0  0  0  0  0  0  0  0  0  0  0
    2.1616   -1.1514    0.0000 C   0  0  0  0  0  0  0  0  0  0  0  0
   -1.0624    0.1139    0.0000 C   0  0  0  0  0  0  0  0  0  0  0  0
   -1.7768    1.3514    0.0000 C   0  0  0  0  0  0  0  0  0  0  0  0
    2.3751   -1.9483    0.0000 C   0  0  0  0  0  0  0  0  0  0  0  0
    2.7450   -0.5681    0.0000 C   0  0  0  0  0  0  0  0  0  0  0  0
    3.7554   -1.5785    0.0000 C   0  0  0  0  0  0  0  0  0  0  0  0
    1.5637    1.9083    0.0000 C   0  0  0  0  0  0  0  0  0  0  0  0
    3.1720   -2.1619    0.0000 C   0  0  0  0  0  0  0  0  0  0  0  0
    3.5419   -0.7816    0.0000 C   0  0  0  0  0  0  0  0  0  0  0  0
   -3.2058    1.3514    0.0000 C   0  0  3  0  0  0  0  0  0  0  0  0
   -3.9202    0.9389    0.0000 C   0  0  0  0  0  0  0  0  0  0  0  0
    5.3492   -2.0055    0.0000 C   0  0  0  0  0  0  0  0  0  0  0  0
   -3.2058    2.1764    0.0000 C   0  0  0  0  0  0  0  0  0  0  0  0
   -4.6347    1.3514    0.0000 C   0  0  0  0  0  0  0  0  0  0  0  0
   -3.9202    0.1139    0.0000 C   0  0  0  0  0  0  0  0  0  0  0  0
   -5.3492    0.9389    0.0000 C   0  0  0  0  0  0  0  0  0  0  0  0
   -4.6347   -0.2986    0.0000 C   0  0  0  0  0  0  0  0  0  0  0  0
   -5.3492    0.1139    0.0000 C   0  0  0  0  0  0  0  0  0  0  0  0
   -3.9202    2.5889    0.0000 C   0  0  0  0  0  0  0  0  0  0  0  0
  1  4  2  0  0  0  0
  1  5  2  0  0  0  0
  1 21  1  0  0  0  0
  1 27  1  0  0  0  0
  2 12  2  0  0  0  0
  3 18  2  0  0  0  0
  6  7  1  0  0  0  0
  6  9  1  0  0  0  0
  6 12  1  0  0  0  0
  7 11  2  0  0  0  0
  8 18  1  0  0  0  0
  8 25  1  0  0  0  0
  9 10  1  0  0  0  0
  9 15  2  0  0  0  0
 10 11  1  0  0  0  0
 10 13  2  0  0  0  0
 11 22  1  0  0  0  0
 12 16  1  0  0  0  0
 13 14  1  0  0  0  0
 14 17  2  0  0  0  0
 14 18  1  0  0  0  0
 15 17  1  0  0  0  0
 16 19  2  0  0  0  0
 16 20  1  0  0  0  0
 19 23  1  0  0  0  0
 20 24  2  0  0  0  0
 21 23  2  0  0  0  0
 21 24  1  0  0  0  0
 25 26  1  0  0  0  0
 25 28  1  0  0  0  0
 26 29  2  0  0  0  0
 26 30  1  0  0  0  0
 28 34  1  0  0  0  0
 29 31  1  0  0  0  0
 30 32  2  0  0  0  0
 31 33  2  0  0  0  0
 32 33  1  0  0  0  0
M  END
> <PUBCHEM_COMPOUND_ID_TYPE>
0

> <PUBCHEM_TOTAL_CHARGE>
0

> <PUBCHEM_SUBSTANCE_ID>
310947312

> <PUBCHEM_SUBSTANCE_VERSION>
1

> <PUBCHEM_EXT_DATASOURCE_NAME>
4488

> <PUBCHEM_EXT_DATASOURCE_REGID>
SCHEMBL16125467

> <PUBCHEM_SUBSTANCE_COMMENT>
InChI=1S/C26H25N3O4S/c1-4-23(18-8-6-5-7-9-18)27-25(30)20-12-15-24-22(16-20)17(2)28-29(24)26(31)19-10-13-21(14-11-19)34(3,32)33/h5-16,23H,4H2,1-3H3,(H,27,30)
InChIKey=KEBWHXXZWCFVJO-UHFFFAOYSA-N

> <PUBCHEM_SUBSTANCE_SYNONYM>
SCHEMBL16125467

> <PUBCHEM_XREF_EXT_ID>
SCHEMBL16125467

> <PUBCHEM_EXT_DATASOURCE_URL>
https://www.surechembl.org/

> <PUBCHEM_EXT_SUBSTANCE_URL>
https://www.surechembl.org/chemical/SCHEMBL16125467

> <PUBCHEM_CID_ASSOCIATIONS>
71577488  1

> <PUBCHEM_COORDINATE_TYPE>
1
3

$$$$
