310947206
  -OEChem-07211613022D

 31 32  0     1  0  0  0  0  0999 V2000
   -3.9401    9.6306    0.0000 S   0  0  0  0  0  0  0  0  0  0  0  0
   -6.1622    7.5857    0.0000 O   0  0  0  0  0  0  0  0  0  0  0  0
   -4.2689    7.8877    0.0000 O   0  0  0  0  0  0  0  0  0  0  0  0
   -7.2891    7.8877    0.0000 O   0  0  0  0  0  0  0  0  0  0  0  0
   -5.8603    8.7127    0.0000 O   0  0  0  0  0  0  0  0  0  0  0  0
   -8.4998    8.3931    0.0000 O   0  0  0  0  0  0  0  0  0  0  0  0
   -7.2574    6.6678    0.0000 O   0  0  0  0  0  0  0  0  0  0  0  0
   -2.5085    7.5317    0.0000 O   0  0  0  0  0  0  0  0  0  0  0  0
   -4.6545    9.2181    0.0000 O   0  0  0  0  0  0  0  0  0  0  0  0
   -9.1876    7.3480    0.0000 O   0  0  0  0  0  0  0  0  0  0  0  0
   -9.6774    7.6741    0.0000 O   0  0  0  0  0  0  0  0  0  0  0  0
   -5.0767    5.7885    0.0000 O   0  0  0  0  0  0  0  0  0  0  0  0
   -4.3526   10.3451    0.0000 O   0  0  0  0  0  0  0  0  0  0  0  0
   -3.5276    8.9161    0.0000 O   0  0  0  0  0  0  0  0  0  0  0  0
   -3.2256   10.0431    0.0000 O   0  0  0  0  0  0  0  0  0  0  0  0
   -9.7373    9.1076    0.0000 O   0  0  0  0  0  0  0  0  0  0  0  0
   -4.0663    6.7989    0.0000 N   0  0  0  0  0  0  0  0  0  0  0  0
   -5.4478    7.1732    0.0000 C   0  0  3  0  0  0  0  0  0  0  0  0
   -4.6497    7.3823    0.0000 C   0  0  3  0  0  0  0  0  0  0  0  0
   -5.8603    7.8877    0.0000 C   0  0  3  0  0  0  0  0  0  0  0  0
   -6.8767    7.1732    0.0000 C   0  0  3  0  0  0  0  0  0  0  0  0
   -5.0670    7.6786    0.0000 C   0  0  3  0  0  0  0  0  0  0  0  0
   -7.6699    7.3823    0.0000 C   0  0  3  0  0  0  0  0  0  0  0  0
   -3.8564    7.1732    0.0000 C   0  0  3  0  0  0  0  0  0  0  0  0
   -8.4680    7.1732    0.0000 C   0  0  3  0  0  0  0  0  0  0  0  0
   -8.8805    7.8877    0.0000 C   0  0  3  0  0  0  0  0  0  0  0  0
   -8.0873    7.6786    0.0000 C   0  0  3  0  0  0  0  0  0  0  0  0
   -4.6545    8.3931    0.0000 C   0  0  0  0  0  0  0  0  0  0  0  0
   -4.2798    6.0020    0.0000 C   0  0  0  0  0  0  0  0  0  0  0  0
   -9.3248    8.3931    0.0000 C   0  0  0  0  0  0  0  0  0  0  0  0
   -3.6965    5.4187    0.0000 C   0  0  0  0  0  0  0  0  0  0  0  0
  1  9  1  0  0  0  0
  1 13  2  0  0  0  0
  1 14  2  0  0  0  0
  1 15  1  0  0  0  0
  2 18  1  0  0  0  0
  2 21  1  0  0  0  0
  3 22  1  0  0  0  0
  3 24  1  0  0  0  0
  4 21  1  0  0  0  0
  4 27  1  0  0  0  0
  5 20  1  0  0  0  0
  6 27  1  0  0  0  0
  6 30  1  0  0  0  0
  7 23  1  0  0  0  0
  8 24  1  0  0  0  0
  9 28  1  0  0  0  0
 10 25  1  0  0  0  0
 11 26  1  0  0  0  0
 12 29  2  0  0  0  0
 16 30  2  0  0  0  0
 17 19  1  0  0  0  0
 17 29  1  0  0  0  0
 18 19  1  0  0  0  0
 18 20  1  0  0  0  0
 19 24  1  0  0  0  0
 20 22  1  0  0  0  0
 21 23  1  0  0  0  0
 22 28  1  0  0  0  0
 23 25  1  0  0  0  0
 25 26  1  0  0  0  0
 26 27  1  0  0  0  0
 29 31  1  0  0  0  0
M  END
> <PUBCHEM_COMPOUND_ID_TYPE>
0

> <PUBCHEM_TOTAL_CHARGE>
0

> <PUBCHEM_SUBSTANCE_ID>
310947206

> <PUBCHEM_SUBSTANCE_VERSION>
1

> <PUBCHEM_EXT_DATASOURCE_NAME>
4488

> <PUBCHEM_EXT_DATASOURCE_REGID>
SCHEMBL16125360

> <PUBCHEM_SUBSTANCE_COMMENT>
InChI=1S/C14H23NO15S/c1-4(17)15-6-11(7(18)5(28-12(6)22)2-27-31(23,24)25)29-14-10(21)8(19)9(20)13(30-14)26-3-16/h3,5-14,18-22H,2H2,1H3,(H,15,17)(H,23,24,25)
InChIKey=HJXSSFULJHGSHY-UHFFFAOYSA-N

> <PUBCHEM_SUBSTANCE_SYNONYM>
SCHEMBL16125360

> <PUBCHEM_XREF_EXT_ID>
SCHEMBL16125360

> <PUBCHEM_EXT_DATASOURCE_URL>
https://www.surechembl.org/

> <PUBCHEM_EXT_SUBSTANCE_URL>
https://www.surechembl.org/chemical/SCHEMBL16125360

> <PUBCHEM_CID_ASSOCIATIONS>
117613029  1

> <PUBCHEM_COORDINATE_TYPE>
1
3

$$$$
