310938233
  -OEChem-07211613022D

 28 30  0     1  0  0  0  0  0999 V2000
    0.0000   -1.2540    0.0000 Br  0  0  0  0  0  0  0  0  0  0  0  0
    0.6930   -4.1251    0.0000 O   0  0  0  0  0  0  0  0  0  0  0  0
    3.5641   -4.1251    0.0000 O   0  0  0  0  0  0  0  0  0  0  0  0
    2.9041   -1.3860    0.0000 N   0  0  3  0  0  0  0  0  0  0  0  0
    2.1121   -4.1251    0.0000 N   0  0  0  0  0  0  0  0  0  0  0  0
    4.2571   -5.3462    0.0000 N   0  0  0  0  0  0  0  0  0  0  0  0
    2.1121   -2.4751    0.0000 C   0  0  0  0  0  0  0  0  0  0  0  0
    2.9041   -2.7390    0.0000 C   0  0  0  0  0  0  0  0  0  0  0  0
    2.1121   -1.6501    0.0000 C   0  0  0  0  0  0  0  0  0  0  0  0
    1.4191   -2.8711    0.0000 C   0  0  0  0  0  0  0  0  0  0  0  0
    3.3661   -2.0460    0.0000 C   0  0  0  0  0  0  0  0  0  0  0  0
    1.4191   -1.2210    0.0000 C   0  0  0  0  0  0  0  0  0  0  0  0
    0.6930   -2.4751    0.0000 C   0  0  0  0  0  0  0  0  0  0  0  0
    1.4191   -3.6961    0.0000 C   0  0  0  0  0  0  0  0  0  0  0  0
    0.6930   -1.6501    0.0000 C   0  0  0  0  0  0  0  0  0  0  0  0
    3.1681   -0.6270    0.0000 C   0  0  0  0  0  0  0  0  0  0  0  0
    3.1681   -3.4981    0.0000 C   0  0  0  0  0  0  0  0  0  0  0  0
    3.6961   -2.8381    0.0000 C   0  0  0  0  0  0  0  0  0  0  0  0
    2.8381   -5.3462    0.0000 C   0  0  0  0  0  0  0  0  0  0  0  0
    2.1121   -4.9171    0.0000 C   0  0  0  0  0  0  0  0  0  0  0  0
    3.5641   -4.9501    0.0000 C   0  0  0  0  0  0  0  0  0  0  0  0
    2.8381   -6.1712    0.0000 C   0  0  0  0  0  0  0  0  0  0  0  0
    2.6071    0.0000    0.0000 C   0  0  0  0  0  0  0  0  0  0  0  0
    3.9601   -0.4620    0.0000 C   0  0  0  0  0  0  0  0  0  0  0  0
    4.2571   -6.1712    0.0000 C   0  0  0  0  0  0  0  0  0  0  0  0
    3.5311   -6.5671    0.0000 C   0  0  0  0  0  0  0  0  0  0  0  0
    2.1450   -6.6002    0.0000 C   0  0  0  0  0  0  0  0  0  0  0  0
    4.9831   -6.6002    0.0000 C   0  0  0  0  0  0  0  0  0  0  0  0
  1 15  1  0  0  0  0
  2 14  2  0  0  0  0
  3 21  2  0  0  0  0
  4  9  1  0  0  0  0
  4 11  1  0  0  0  0
  4 16  1  0  0  0  0
  5 14  1  0  0  0  0
  5 20  1  0  0  0  0
  6 21  1  0  0  0  0
  6 25  1  0  0  0  0
  7  8  1  0  0  0  0
  7  9  2  0  0  0  0
  7 10  1  0  0  0  0
  8 11  1  0  0  0  0
  8 17  1  0  0  0  0
  8 18  1  0  0  0  0
  9 12  1  0  0  0  0
 10 13  2  0  0  0  0
 10 14  1  0  0  0  0
 12 15  2  0  0  0  0
 13 15  1  0  0  0  0
 16 23  1  0  0  0  0
 16 24  1  0  0  0  0
 19 20  1  0  0  0  0
 19 21  1  0  0  0  0
 19 22  2  0  0  0  0
 22 26  1  0  0  0  0
 22 27  1  0  0  0  0
 25 26  2  0  0  0  0
 25 28  1  0  0  0  0
M  END
> <PUBCHEM_COMPOUND_ID_TYPE>
0

> <PUBCHEM_TOTAL_CHARGE>
0

> <PUBCHEM_SUBSTANCE_ID>
310938233

> <PUBCHEM_SUBSTANCE_VERSION>
1

> <PUBCHEM_EXT_DATASOURCE_NAME>
4488

> <PUBCHEM_EXT_DATASOURCE_REGID>
SCHEMBL16116098

> <PUBCHEM_SUBSTANCE_COMMENT>
InChI=1S/C22H28BrN3O2/c1-12(2)26-11-22(5,6)19-16(8-15(23)9-18(19)26)20(27)24-10-17-13(3)7-14(4)25-21(17)28/h7-9,12H,10-11H2,1-6H3,(H,24,27)(H,25,28)
InChIKey=MDWGKIUDQFPESW-UHFFFAOYSA-N

> <PUBCHEM_SUBSTANCE_SYNONYM>
SCHEMBL16116098

> <PUBCHEM_XREF_EXT_ID>
SCHEMBL16116098

> <PUBCHEM_EXT_DATASOURCE_URL>
https://www.surechembl.org/

> <PUBCHEM_EXT_SUBSTANCE_URL>
https://www.surechembl.org/chemical/SCHEMBL16116098

> <PUBCHEM_CID_ASSOCIATIONS>
86272207  1

> <PUBCHEM_COORDINATE_TYPE>
1
3

$$$$
