310931891
  -OEChem-07211613022D

  6  5  0     1  0  0  0  0  0999 V2000
    0.0000   -0.7221    0.0000 I   0  0  0  0  0  0  0  0  0  0  0  0
    1.2503   -1.4228    0.0000 O   0  0  0  0  0  0  0  0  0  0  0  0
    0.4204   -1.4335    0.0000 C   0  0  3  0  0  0  0  0  0  0  0  0
    1.6599   -0.7006    0.0000 C   0  0  0  0  0  0  0  0  0  0  0  0
    0.0216   -2.1557    0.0000 C   0  0  0  0  0  0  0  0  0  0  0  0
    1.2287    0.0000    0.0000 C   0  0  0  0  0  0  0  0  0  0  0  0
  1  3  1  0  0  0  0
  2  3  1  0  0  0  0
  2  4  1  0  0  0  0
  3  5  1  0  0  0  0
  4  6  2  0  0  0  0
M  END
> <PUBCHEM_COMPOUND_ID_TYPE>
0

> <PUBCHEM_TOTAL_CHARGE>
0

> <PUBCHEM_SUBSTANCE_ID>
310931891

> <PUBCHEM_SUBSTANCE_VERSION>
1

> <PUBCHEM_EXT_DATASOURCE_NAME>
4488

> <PUBCHEM_EXT_DATASOURCE_REGID>
SCHEMBL16109226

> <PUBCHEM_SUBSTANCE_COMMENT>
InChI=1S/C4H7IO/c1-3-6-4(2)5/h3-4H,1H2,2H3
InChIKey=JGWHQQXMXCYDCF-UHFFFAOYSA-N

> <PUBCHEM_SUBSTANCE_SYNONYM>
SCHEMBL16109226

> <PUBCHEM_XREF_EXT_ID>
SCHEMBL16109226

> <PUBCHEM_EXT_DATASOURCE_URL>
https://www.surechembl.org/

> <PUBCHEM_EXT_SUBSTANCE_URL>
https://www.surechembl.org/chemical/SCHEMBL16109226

> <PUBCHEM_CID_ASSOCIATIONS>
117600549  1

> <PUBCHEM_COORDINATE_TYPE>
1
3

$$$$
