310932319
  -OEChem-07211613022D

 18 20  0     1  0  0  0  0  0999 V2000
    2.7577   -1.6028    0.0000 O   0  0  0  0  0  0  0  0  0  0  0  0
    3.8656   -3.5591    0.0000 O   0  0  0  0  0  0  0  0  0  0  0  0
    4.5726   -2.3335    0.0000 O   0  0  0  0  0  0  0  0  0  0  0  0
    2.3335   -2.3335    0.0000 C   0  0  3  0  0  0  0  0  0  0  0  0
    3.1584   -2.3335    0.0000 C   0  0  3  0  0  0  0  0  0  0  0  0
    1.7442   -1.7442    0.0000 C   0  0  0  0  0  0  0  0  0  0  0  0
    3.8656   -2.7341    0.0000 C   0  0  0  0  0  0  0  0  0  0  0  0
    1.6263   -2.7341    0.0000 C   0  0  0  0  0  0  0  0  0  0  0  0
    0.9428   -1.9564    0.0000 C   0  0  0  0  0  0  0  0  0  0  0  0
    1.9564   -0.9428    0.0000 C   0  0  0  0  0  0  0  0  0  0  0  0
    4.5726   -3.9834    0.0000 C   0  0  0  0  0  0  0  0  0  0  0  0
    0.3536   -1.3907    0.0000 C   0  0  0  0  0  0  0  0  0  0  0  0
    1.3907   -0.3771    0.0000 C   0  0  0  0  0  0  0  0  0  0  0  0
    1.6263   -3.5591    0.0000 C   0  0  0  0  0  0  0  0  0  0  0  0
    0.5893   -0.5893    0.0000 C   0  0  0  0  0  0  0  0  0  0  0  0
    5.3976   -3.9834    0.0000 C   0  0  0  0  0  0  0  0  0  0  0  0
    5.0205   -4.7141    0.0000 C   0  0  0  0  0  0  0  0  0  0  0  0
    0.0000    0.0000    0.0000 C   0  0  0  0  0  0  0  0  0  0  0  0
  1  4  1  0  0  0  0
  1  5  1  0  0  0  0
  2  7  1  0  0  0  0
  2 11  1  0  0  0  0
  3  7  2  0  0  0  0
  4  5  1  0  0  0  0
  4  6  1  0  0  0  0
  4  8  1  0  0  0  0
  5  7  1  0  0  0  0
  6  9  2  0  0  0  0
  6 10  1  0  0  0  0
  8 14  1  0  0  0  0
  9 12  1  0  0  0  0
 10 13  2  0  0  0  0
 11 16  1  0  0  0  0
 11 17  1  0  0  0  0
 12 15  2  0  0  0  0
 13 15  1  0  0  0  0
 15 18  1  0  0  0  0
 16 17  1  0  0  0  0
M  END
> <PUBCHEM_COMPOUND_ID_TYPE>
0

> <PUBCHEM_TOTAL_CHARGE>
0

> <PUBCHEM_SUBSTANCE_ID>
310932319

> <PUBCHEM_SUBSTANCE_VERSION>
1

> <PUBCHEM_EXT_DATASOURCE_NAME>
4488

> <PUBCHEM_EXT_DATASOURCE_REGID>
SCHEMBL16109685

> <PUBCHEM_SUBSTANCE_COMMENT>
InChI=1S/C15H18O3/c1-3-15(11-6-4-10(2)5-7-11)13(18-15)14(16)17-12-8-9-12/h4-7,12-13H,3,8-9H2,1-2H3
InChIKey=BMEBCQRAEDHPRW-UHFFFAOYSA-N

> <PUBCHEM_SUBSTANCE_SYNONYM>
SCHEMBL16109685

> <PUBCHEM_XREF_EXT_ID>
SCHEMBL16109685

> <PUBCHEM_EXT_DATASOURCE_URL>
https://www.surechembl.org/

> <PUBCHEM_EXT_SUBSTANCE_URL>
https://www.surechembl.org/chemical/SCHEMBL16109685

> <PUBCHEM_CID_ASSOCIATIONS>
117600876  1

> <PUBCHEM_COORDINATE_TYPE>
1
3

$$$$
