310933843
  -OEChem-07211613022D

 21 23  0     1  0  0  0  0  0999 V2000
    4.9572   -4.9081    0.0000 Cl  0  0  0  0  0  0  0  0  0  0  0  0
    3.3130   -4.9081    0.0000 F   0  0  0  0  0  0  0  0  0  0  0  0
    0.0000   -2.0369    0.0000 O   0  0  0  0  0  0  0  0  0  0  0  0
    1.2270   -2.7485    0.0000 N   0  0  0  0  0  0  0  0  0  0  0  0
    1.2270   -1.3006    0.0000 N   0  0  0  0  0  0  0  0  0  0  0  0
    2.2332   -0.4172    0.0000 N   0  0  0  0  0  0  0  0  0  0  0  0
    2.4786   -3.4602    0.0000 C   0  0  3  0  0  0  0  0  0  0  0  0
    3.3130   -3.4602    0.0000 C   0  0  0  0  0  0  0  0  0  0  0  0
    0.8098   -2.0369    0.0000 C   0  0  0  0  0  0  0  0  0  0  0  0
    3.7302   -4.1964    0.0000 C   0  0  0  0  0  0  0  0  0  0  0  0
    2.0614   -2.7485    0.0000 C   0  0  0  0  0  0  0  0  0  0  0  0
    4.5400   -4.1964    0.0000 C   0  0  0  0  0  0  0  0  0  0  0  0
    2.0614   -4.1964    0.0000 C   0  0  0  0  0  0  0  0  0  0  0  0
    0.8098   -3.4602    0.0000 C   0  0  0  0  0  0  0  0  0  0  0  0
    3.7302   -2.7485    0.0000 C   0  0  0  0  0  0  0  0  0  0  0  0
    1.2270   -4.1719    0.0000 C   0  0  0  0  0  0  0  0  0  0  0  0
    2.0614   -1.2025    0.0000 C   0  0  0  0  0  0  0  0  0  0  0  0
    0.9080   -0.5399    0.0000 C   0  0  0  0  0  0  0  0  0  0  0  0
    4.9572   -3.4602    0.0000 C   0  0  0  0  0  0  0  0  0  0  0  0
    4.5645   -2.7485    0.0000 C   0  0  0  0  0  0  0  0  0  0  0  0
    1.5215    0.0000    0.0000 C   0  0  0  0  0  0  0  0  0  0  0  0
  1 12  1  0  0  0  0
  2 10  1  0  0  0  0
  3  9  2  0  0  0  0
  4  9  1  0  0  0  0
  4 11  1  0  0  0  0
  4 14  1  0  0  0  0
  5  9  1  0  0  0  0
  5 17  1  0  0  0  0
  5 18  1  0  0  0  0
  6 17  2  0  0  0  0
  6 21  1  0  0  0  0
  7  8  1  0  0  0  0
  7 11  1  0  0  0  0
  7 13  1  0  0  0  0
  8 10  1  0  0  0  0
  8 15  2  0  0  0  0
 10 12  2  0  0  0  0
 12 19  1  0  0  0  0
 13 16  1  0  0  0  0
 14 16  1  0  0  0  0
 15 20  1  0  0  0  0
 18 21  2  0  0  0  0
 19 20  2  0  0  0  0
M  END
> <PUBCHEM_COMPOUND_ID_TYPE>
0

> <PUBCHEM_TOTAL_CHARGE>
0

> <PUBCHEM_SUBSTANCE_ID>
310933843

> <PUBCHEM_SUBSTANCE_VERSION>
1

> <PUBCHEM_EXT_DATASOURCE_NAME>
4488

> <PUBCHEM_EXT_DATASOURCE_REGID>
SCHEMBL16111281

> <PUBCHEM_SUBSTANCE_COMMENT>
InChI=1S/C15H15ClFN3O/c16-13-5-1-4-12(14(13)17)11-3-2-7-19(9-11)15(21)20-8-6-18-10-20/h1,4-6,8,10-11H,2-3,7,9H2
InChIKey=UGTNJIPJLZJFDF-UHFFFAOYSA-N

> <PUBCHEM_SUBSTANCE_SYNONYM>
SCHEMBL16111281

> <PUBCHEM_XREF_EXT_ID>
SCHEMBL16111281

> <PUBCHEM_EXT_DATASOURCE_URL>
https://www.surechembl.org/

> <PUBCHEM_EXT_SUBSTANCE_URL>
https://www.surechembl.org/chemical/SCHEMBL16111281

> <PUBCHEM_CID_ASSOCIATIONS>
117602189  1

> <PUBCHEM_COORDINATE_TYPE>
1
3

$$$$
