310945506
  -OEChem-07211613022D

 25 28  0     1  0  0  0  0  0999 V2000
   -2.1415    1.6697    0.0000 O   0  0  0  0  0  0  0  0  0  0  0  0
    0.6751    0.9292    0.0000 N   0  0  0  0  0  0  0  0  0  0  0  0
    2.6931    1.8438    0.0000 N   0  0  0  0  0  0  0  0  0  0  0  0
   -0.0799   -1.1615    0.0000 N   0  0  0  0  0  0  0  0  0  0  0  0
    1.3285    1.4228    0.0000 C   0  0  0  0  0  0  0  0  0  0  0  0
   -0.0073    1.4228    0.0000 C   0  0  0  0  0  0  0  0  0  0  0  0
    1.0816    2.1778    0.0000 C   0  0  0  0  0  0  0  0  0  0  0  0
    0.2541    2.2068    0.0000 C   0  0  0  0  0  0  0  0  0  0  0  0
    2.1415    1.2341    0.0000 C   0  0  0  0  0  0  0  0  0  0  0  0
   -0.8058    1.2486    0.0000 C   0  0  0  0  0  0  0  0  0  0  0  0
    0.6606    0.0581    0.0000 C   0  0  0  0  0  0  0  0  0  0  0  0
   -0.2831    2.7875    0.0000 C   0  0  0  0  0  0  0  0  0  0  0  0
    1.6333    2.8020    0.0000 C   0  0  0  0  0  0  0  0  0  0  0  0
   -1.3430    1.8583    0.0000 C   0  0  0  0  0  0  0  0  0  0  0  0
   -1.0816    2.6278    0.0000 C   0  0  0  0  0  0  0  0  0  0  0  0
   -0.0799   -0.3339    0.0000 C   0  0  3  0  0  0  0  0  0  0  0  0
    2.4463    2.6278    0.0000 C   0  0  0  0  0  0  0  0  0  0  0  0
    2.4608    0.3484    0.0000 C   0  0  0  0  0  0  0  0  0  0  0  0
   -0.8058    0.0581    0.0000 C   0  0  0  0  0  0  0  0  0  0  0  0
   -0.7913   -1.5825    0.0000 C   0  0  0  0  0  0  0  0  0  0  0  0
    0.6316   -1.5825    0.0000 C   0  0  0  0  0  0  0  0  0  0  0  0
   -0.7913   -2.3956    0.0000 C   0  0  0  0  0  0  0  0  0  0  0  0
    0.6170   -2.4101    0.0000 C   0  0  0  0  0  0  0  0  0  0  0  0
   -2.6931    2.3084    0.0000 C   0  0  0  0  0  0  0  0  0  0  0  0
   -0.0944   -2.8020    0.0000 C   0  0  0  0  0  0  0  0  0  0  0  0
  1 14  1  0  0  0  0
  1 24  1  0  0  0  0
  2  5  1  0  0  0  0
  2  6  1  0  0  0  0
  2 11  1  0  0  0  0
  3  9  2  0  0  0  0
  3 17  1  0  0  0  0
  4 16  1  0  0  0  0
  4 20  1  0  0  0  0
  4 21  1  0  0  0  0
  5  7  2  0  0  0  0
  5  9  1  0  0  0  0
  6  8  2  0  0  0  0
  6 10  1  0  0  0  0
  7  8  1  0  0  0  0
  7 13  1  0  0  0  0
  8 12  1  0  0  0  0
  9 18  1  0  0  0  0
 10 14  2  0  0  0  0
 11 16  1  0  0  0  0
 12 15  2  0  0  0  0
 13 17  2  0  0  0  0
 14 15  1  0  0  0  0
 16 19  1  0  0  0  0
 20 22  1  0  0  0  0
 21 23  1  0  0  0  0
 22 25  1  0  0  0  0
 23 25  1  0  0  0  0
M  END
> <PUBCHEM_COMPOUND_ID_TYPE>
0

> <PUBCHEM_TOTAL_CHARGE>
0

> <PUBCHEM_SUBSTANCE_ID>
310945506

> <PUBCHEM_SUBSTANCE_VERSION>
1

> <PUBCHEM_EXT_DATASOURCE_NAME>
4488

> <PUBCHEM_EXT_DATASOURCE_REGID>
SCHEMBL16123604

> <PUBCHEM_SUBSTANCE_COMMENT>
InChI=1S/C21H27N3O/c1-15(23-11-5-4-6-12-23)14-24-20-13-17(25-3)7-8-18(20)19-9-10-22-16(2)21(19)24/h7-10,13,15H,4-6,11-12,14H2,1-3H3
InChIKey=NJKZKIHFIMNASZ-UHFFFAOYSA-N

> <PUBCHEM_SUBSTANCE_SYNONYM>
SCHEMBL16123604

> <PUBCHEM_XREF_EXT_ID>
SCHEMBL16123604

> <PUBCHEM_EXT_DATASOURCE_URL>
https://www.surechembl.org/

> <PUBCHEM_EXT_SUBSTANCE_URL>
https://www.surechembl.org/chemical/SCHEMBL16123604

> <PUBCHEM_CID_ASSOCIATIONS>
117611548  1

> <PUBCHEM_COORDINATE_TYPE>
1
3

$$$$
