310936339
  -OEChem-07211613022D

 32 37  0     1  0  0  0  0  0999 V2000
    1.6653    0.0162    0.0000 O   0  0  0  0  0  0  0  0  0  0  0  0
    2.9793   -0.2188    0.0000 O   0  0  0  0  0  0  0  0  0  0  0  0
    1.6065   -3.3919    0.0000 O   0  0  0  0  0  0  0  0  0  0  0  0
    2.9328    1.0123    0.0000 O   0  0  0  0  0  0  0  0  0  0  0  0
    1.2463   -1.4318    0.0000 C   0  0  3  0  0  0  0  0  0  0  0  0
    1.7781   -0.8011    0.0000 C   0  0  3  0  0  0  0  0  0  0  0  0
    1.5266   -2.2077    0.0000 C   0  0  3  0  0  0  0  0  0  0  0  0
    2.5902   -0.9463    0.0000 C   0  0  3  0  0  0  0  0  0  0  0  0
    2.8705   -1.7222    0.0000 C   0  0  3  0  0  0  0  0  0  0  0  0
    2.3387   -2.3529    0.0000 C   0  0  3  0  0  0  0  0  0  0  0  0
    0.9948   -2.8384    0.0000 C   0  0  3  0  0  0  0  0  0  0  0  0
    0.4342   -1.2866    0.0000 C   0  0  3  0  0  0  0  0  0  0  0  0
    2.4076    0.3760    0.0000 C   0  0  3  0  0  0  0  0  0  0  0  0
    3.6826   -1.8674    0.0000 C   0  0  3  0  0  0  0  0  0  0  0  0
    0.9660   -0.6559    0.0000 C   0  0  0  0  0  0  0  0  0  0  0  0
    0.1827   -2.6932    0.0000 C   0  0  0  0  0  0  0  0  0  0  0  0
    0.8780   -3.6551    0.0000 C   0  0  0  0  0  0  0  0  0  0  0  0
    1.0953   -0.3381    0.0000 C   0  0  0  0  0  0  0  0  0  0  0  0
   -0.0976   -1.9173    0.0000 C   0  0  0  0  0  0  0  0  0  0  0  0
    2.6190   -3.1289    0.0000 C   0  0  0  0  0  0  0  0  0  0  0  0
    3.9629   -2.6434    0.0000 C   0  0  3  0  0  0  0  0  0  0  0  0
    3.4311   -3.2741    0.0000 C   0  0  0  0  0  0  0  0  0  0  0  0
    4.3340   -1.3611    0.0000 C   0  0  0  0  0  0  0  0  0  0  0  0
    0.1539   -0.5107    0.0000 C   0  0  0  0  0  0  0  0  0  0  0  0
    2.1355    1.1548    0.0000 C   0  0  0  0  0  0  0  0  0  0  0  0
    0.1123   -3.9623    0.0000 C   0  0  0  0  0  0  0  0  0  0  0  0
    1.5269   -4.1646    0.0000 C   0  0  0  0  0  0  0  0  0  0  0  0
    4.7875   -2.6166    0.0000 C   0  0  0  0  0  0  0  0  0  0  0  0
    5.0168   -1.8241    0.0000 C   0  0  0  0  0  0  0  0  0  0  0  0
   -0.0045   -4.7790    0.0000 C   0  0  0  0  0  0  0  0  0  0  0  0
    1.4101   -4.9813    0.0000 C   0  0  0  0  0  0  0  0  0  0  0  0
    0.6444   -5.2885    0.0000 C   0  0  0  0  0  0  0  0  0  0  0  0
  1  6  1  0  0  0  0
  1 13  1  0  0  0  0
  2  8  1  0  0  0  0
  2 13  1  0  0  0  0
  3 11  1  0  0  0  0
  4 13  1  0  0  0  0
  5  6  1  0  0  0  0
  5  7  1  0  0  0  0
  5 12  1  0  0  0  0
  5 15  1  0  0  0  0
  6  8  1  0  0  0  0
  6 18  1  0  0  0  0
  7 10  1  0  0  0  0
  7 11  1  0  0  0  0
  8  9  1  0  0  0  0
  9 10  1  0  0  0  0
  9 14  1  0  0  0  0
 10 20  1  0  0  0  0
 11 16  1  0  0  0  0
 11 17  1  0  0  0  0
 12 19  1  0  0  0  0
 12 24  1  0  0  0  0
 13 25  1  0  0  0  0
 14 21  1  0  0  0  0
 14 23  1  0  0  0  0
 16 19  1  0  0  0  0
 17 26  2  0  0  0  0
 17 27  1  0  0  0  0
 20 22  1  0  0  0  0
 21 22  1  0  0  0  0
 21 28  1  0  0  0  0
 23 29  1  0  0  0  0
 26 30  1  0  0  0  0
 27 31  2  0  0  0  0
 28 29  1  0  0  0  0
 30 32  2  0  0  0  0
 31 32  1  0  0  0  0
M  END
> <PUBCHEM_COMPOUND_ID_TYPE>
0

> <PUBCHEM_TOTAL_CHARGE>
0

> <PUBCHEM_SUBSTANCE_ID>
310936339

> <PUBCHEM_SUBSTANCE_VERSION>
1

> <PUBCHEM_EXT_DATASOURCE_NAME>
4488

> <PUBCHEM_EXT_DATASOURCE_REGID>
SCHEMBL16113972

> <PUBCHEM_SUBSTANCE_COMMENT>
InChI=1S/C28H40O4/c1-17-15-16-28(30,19-10-6-5-7-11-19)23-21-14-13-18-9-8-12-20(18)22(21)24-26(3,25(17,23)2)32-27(4,29)31-24/h5-7,10-11,17-18,20-24,29-30H,8-9,12-16H2,1-4H3
InChIKey=RBCZRHDSAVBHFN-UHFFFAOYSA-N

> <PUBCHEM_SUBSTANCE_SYNONYM>
SCHEMBL16113972

> <PUBCHEM_XREF_EXT_ID>
SCHEMBL16113972

> <PUBCHEM_EXT_DATASOURCE_URL>
https://www.surechembl.org/

> <PUBCHEM_EXT_SUBSTANCE_URL>
https://www.surechembl.org/chemical/SCHEMBL16113972

> <PUBCHEM_CID_ASSOCIATIONS>
117604282  1

> <PUBCHEM_COORDINATE_TYPE>
1
3

$$$$
