310946404
  -OEChem-07211613022D

 14 14  0     1  0  0  0  0  0999 V2000
   -1.8398   12.0206    0.0000 O   0  0  0  0  0  0  0  0  0  0  0  0
   -2.5543   10.7831    0.0000 O   0  0  0  0  0  0  0  0  0  0  0  0
    0.3036   11.6081    0.0000 O   0  0  0  0  0  0  0  0  0  0  0  0
   -3.9832   11.6081    0.0000 N   0  0  0  0  0  0  0  0  0  0  0  0
   -3.2688   12.0206    0.0000 C   0  0  3  0  0  0  0  0  0  0  0  0
   -2.5543   11.6081    0.0000 C   0  0  0  0  0  0  0  0  0  0  0  0
   -3.2688   12.8456    0.0000 C   0  0  0  0  0  0  0  0  0  0  0  0
   -4.6977   12.0206    0.0000 C   0  0  0  0  0  0  0  0  0  0  0  0
   -4.6977   12.8456    0.0000 C   0  0  0  0  0  0  0  0  0  0  0  0
   -1.1253   11.6081    0.0000 C   0  0  0  0  0  0  0  0  0  0  0  0
   -0.4109   12.0206    0.0000 C   0  0  0  0  0  0  0  0  0  0  0  0
    1.0181   12.0206    0.0000 C   0  0  0  0  0  0  0  0  0  0  0  0
    1.7325   11.6081    0.0000 C   0  0  0  0  0  0  0  0  0  0  0  0
    2.4470   12.0206    0.0000 C   0  0  0  0  0  0  0  0  0  0  0  0
  1  6  1  0  0  0  0
  1 10  1  0  0  0  0
  2  6  2  0  0  0  0
  3 11  1  0  0  0  0
  3 12  1  0  0  0  0
  4  5  1  0  0  0  0
  4  8  1  0  0  0  0
  5  6  1  0  0  0  0
  5  7  1  0  0  0  0
  7  9  1  0  0  0  0
  8  9  1  0  0  0  0
 10 11  1  0  0  0  0
 12 13  1  0  0  0  0
 13 14  1  0  0  0  0
M  END
> <PUBCHEM_COMPOUND_ID_TYPE>
0

> <PUBCHEM_TOTAL_CHARGE>
0

> <PUBCHEM_SUBSTANCE_ID>
310946404

> <PUBCHEM_SUBSTANCE_VERSION>
1

> <PUBCHEM_EXT_DATASOURCE_NAME>
4488

> <PUBCHEM_EXT_DATASOURCE_REGID>
SCHEMBL16124525

> <PUBCHEM_SUBSTANCE_COMMENT>
InChI=1S/C10H19NO3/c1-2-6-13-7-8-14-10(12)9-4-3-5-11-9/h9,11H,2-8H2,1H3
InChIKey=UKVGLUJGHBCUIE-UHFFFAOYSA-N

> <PUBCHEM_SUBSTANCE_SYNONYM>
SCHEMBL16124525

> <PUBCHEM_XREF_EXT_ID>
SCHEMBL16124525

> <PUBCHEM_EXT_DATASOURCE_URL>
https://www.surechembl.org/

> <PUBCHEM_EXT_SUBSTANCE_URL>
https://www.surechembl.org/chemical/SCHEMBL16124525

> <PUBCHEM_CID_ASSOCIATIONS>
63685049  1

> <PUBCHEM_COORDINATE_TYPE>
1
3

$$$$
