310936865
  -OEChem-07211613022D

 19 20  0     1  0  0  0  0  0999 V2000
    0.0000   -3.7214    0.0000 Cl  0  0  0  0  0  0  0  0  0  0  0  0
    1.4296   -4.5383    0.0000 Cl  0  0  0  0  0  0  0  0  0  0  0  0
    2.1330    0.0000    0.0000 O   0  0  0  0  0  0  0  0  0  0  0  0
    0.0000   -0.4312    0.0000 N   0  0  0  0  0  0  0  0  0  0  0  0
    1.4296   -2.0650    0.0000 C   0  0  0  0  0  0  0  0  0  0  0  0
    1.4296   -1.2480    0.0000 C   0  0  3  0  0  0  0  0  0  0  0  0
    2.1330   -0.8169    0.0000 C   0  0  3  0  0  0  0  0  0  0  0  0
    0.7261   -2.4734    0.0000 C   0  0  0  0  0  0  0  0  0  0  0  0
    0.7261   -3.2903    0.0000 C   0  0  0  0  0  0  0  0  0  0  0  0
    2.8591   -1.2480    0.0000 C   0  0  0  0  0  0  0  0  0  0  0  0
    2.1330   -2.4734    0.0000 C   0  0  0  0  0  0  0  0  0  0  0  0
    1.4296   -3.7214    0.0000 C   0  0  0  0  0  0  0  0  0  0  0  0
    2.1330   -3.2903    0.0000 C   0  0  0  0  0  0  0  0  0  0  0  0
    0.7035   -0.8169    0.0000 C   0  0  0  0  0  0  0  0  0  0  0  0
    3.5626   -0.8169    0.0000 C   0  0  0  0  0  0  0  0  0  0  0  0
    2.8591   -2.0650    0.0000 C   0  0  0  0  0  0  0  0  0  0  0  0
    4.2887   -1.2254    0.0000 C   0  0  0  0  0  0  0  0  0  0  0  0
    3.5626   -2.4734    0.0000 C   0  0  0  0  0  0  0  0  0  0  0  0
    4.2887   -2.0650    0.0000 C   0  0  0  0  0  0  0  0  0  0  0  0
  1  9  1  0  0  0  0
  2 12  1  0  0  0  0
  3  7  1  0  0  0  0
  4 14  3  0  0  0  0
  5  6  1  0  0  0  0
  5  8  1  0  0  0  0
  5 11  2  0  0  0  0
  6  7  1  0  0  0  0
  6 14  1  0  0  0  0
  7 10  1  0  0  0  0
  8  9  2  0  0  0  0
  9 12  1  0  0  0  0
 10 15  2  0  0  0  0
 10 16  1  0  0  0  0
 11 13  1  0  0  0  0
 12 13  2  0  0  0  0
 15 17  1  0  0  0  0
 16 18  2  0  0  0  0
 17 19  2  0  0  0  0
 18 19  1  0  0  0  0
M  END
> <PUBCHEM_COMPOUND_ID_TYPE>
0

> <PUBCHEM_TOTAL_CHARGE>
0

> <PUBCHEM_SUBSTANCE_ID>
310936865

> <PUBCHEM_SUBSTANCE_VERSION>
1

> <PUBCHEM_EXT_DATASOURCE_NAME>
4488

> <PUBCHEM_EXT_DATASOURCE_REGID>
SCHEMBL16114559

> <PUBCHEM_SUBSTANCE_COMMENT>
InChI=1S/C15H11Cl2NO/c16-13-7-6-11(8-14(13)17)12(9-18)15(19)10-4-2-1-3-5-10/h1-8,12,15,19H
InChIKey=RBPNBAHIXJEVHO-UHFFFAOYSA-N

> <PUBCHEM_SUBSTANCE_SYNONYM>
SCHEMBL16114559

> <PUBCHEM_XREF_EXT_ID>
SCHEMBL16114559

> <PUBCHEM_EXT_DATASOURCE_URL>
https://www.surechembl.org/

> <PUBCHEM_EXT_SUBSTANCE_URL>
https://www.surechembl.org/chemical/SCHEMBL16114559

> <PUBCHEM_CID_ASSOCIATIONS>
117604757  1

> <PUBCHEM_COORDINATE_TYPE>
1
3

$$$$
