310946281
  -OEChem-07211613022D

 29 32  0     1  0  0  0  0  0999 V2000
    4.2157  -14.8470    0.0000 S   0  0  0  0  0  0  0  0  0  0  0  0
    3.3907  -14.8470    0.0000 O   0  0  0  0  0  0  0  0  0  0  0  0
    0.5328  -14.8470    0.0000 O   0  0  0  0  0  0  0  0  0  0  0  0
    0.5328  -11.5470    0.0000 O   0  0  0  0  0  0  0  0  0  0  0  0
   -0.8962  -12.3720    0.0000 O   0  0  0  0  0  0  0  0  0  0  0  0
    4.6282  -15.5615    0.0000 O   0  0  0  0  0  0  0  0  0  0  0  0
    4.6282  -14.1325    0.0000 O   0  0  0  0  0  0  0  0  0  0  0  0
    5.0407  -14.8470    0.0000 O   0  0  0  0  0  0  0  0  0  0  0  0
    1.2473  -13.6095    0.0000 N   0  0  0  0  0  0  0  0  0  0  0  0
    2.6762  -14.4345    0.0000 N   0  0  0  0  0  0  0  0  0  0  0  0
   -3.7252  -12.6575    0.0000 N   0  0  0  0  0  0  0  0  0  0  0  0
   -0.1817  -12.7845    0.0000 N   0  0  0  0  0  0  0  0  0  0  0  0
   -2.4899  -11.5636    0.0000 N   0  0  0  0  0  0  0  0  0  0  0  0
    1.2473  -14.4345    0.0000 C   0  0  0  0  0  0  0  0  0  0  0  0
    2.6762  -13.6095    0.0000 C   0  0  3  0  0  0  0  0  0  0  0  0
    1.2473  -12.7845    0.0000 C   0  0  3  0  0  0  0  0  0  0  0  0
    1.9617  -14.0220    0.0000 C   0  0  0  0  0  0  0  0  0  0  0  0
    2.6762  -12.7845    0.0000 C   0  0  0  0  0  0  0  0  0  0  0  0
    1.9617  -12.3720    0.0000 C   0  0  0  0  0  0  0  0  0  0  0  0
    0.5328  -12.3720    0.0000 C   0  0  0  0  0  0  0  0  0  0  0  0
   -2.9427  -12.9189    0.0000 C   0  0  0  0  0  0  0  0  0  0  0  0
   -2.3251  -12.3720    0.0000 C   0  0  3  0  0  0  0  0  0  0  0  0
   -4.2157  -13.3209    0.0000 C   0  0  0  0  0  0  0  0  0  0  0  0
   -2.9496  -13.7439    0.0000 C   0  0  0  0  0  0  0  0  0  0  0  0
   -3.8901  -11.8491    0.0000 C   0  0  0  0  0  0  0  0  0  0  0  0
   -3.7363  -13.9923    0.0000 C   0  0  0  0  0  0  0  0  0  0  0  0
   -1.6106  -12.7845    0.0000 C   0  0  0  0  0  0  0  0  0  0  0  0
   -3.2724  -11.3022    0.0000 C   0  0  0  0  0  0  0  0  0  0  0  0
   -5.0407  -13.3209    0.0000 C   0  0  0  0  0  0  0  0  0  0  0  0
  1  2  1  0  0  0  0
  1  6  2  0  0  0  0
  1  7  2  0  0  0  0
  1  8  1  0  0  0  0
  2 10  1  0  0  0  0
  3 14  2  0  0  0  0
  4 20  2  0  0  0  0
  5 12  1  0  0  0  0
  5 27  1  0  0  0  0
  9 14  1  0  0  0  0
  9 16  1  0  0  0  0
  9 17  1  0  0  0  0
 10 14  1  0  0  0  0
 10 15  1  0  0  0  0
 11 21  1  0  0  0  0
 11 23  1  0  0  0  0
 11 25  1  0  0  0  0
 12 20  1  0  0  0  0
 13 22  1  0  0  0  0
 13 28  1  0  0  0  0
 15 17  1  6  0  0  0
 15 18  1  0  0  0  0
 16 19  1  0  0  0  0
 16 20  1  6  0  0  0
 18 19  1  0  0  0  0
 21 22  1  0  0  0  0
 21 24  2  0  0  0  0
 22 27  1  0  0  0  0
 23 26  2  0  0  0  0
 23 29  1  0  0  0  0
 24 26  1  0  0  0  0
 25 28  1  0  0  0  0
M  END
> <PUBCHEM_COMPOUND_ID_TYPE>
0

> <PUBCHEM_TOTAL_CHARGE>
0

> <PUBCHEM_SUBSTANCE_ID>
310946281

> <PUBCHEM_SUBSTANCE_VERSION>
1

> <PUBCHEM_EXT_DATASOURCE_NAME>
4488

> <PUBCHEM_EXT_DATASOURCE_REGID>
SCHEMBL16124399

> <PUBCHEM_SUBSTANCE_COMMENT>
InChI=1S/C16H23N5O7S/c1-10-2-4-13-12(17-6-7-19(10)13)9-27-18-15(22)14-5-3-11-8-20(14)16(23)21(11)28-29(24,25)26/h2,4,11-12,14,17H,3,5-9H2,1H3,(H,18,22)(H,24,25,26)/t11-,12?,14+/m1/s1
InChIKey=TZSSWMVDVLRIRM-SOGVLRHJSA-N

> <PUBCHEM_SUBSTANCE_SYNONYM>
SCHEMBL16124399

> <PUBCHEM_XREF_EXT_ID>
SCHEMBL16124399

> <PUBCHEM_EXT_DATASOURCE_URL>
https://www.surechembl.org/

> <PUBCHEM_EXT_SUBSTANCE_URL>
https://www.surechembl.org/chemical/SCHEMBL16124399

> <PUBCHEM_CID_ASSOCIATIONS>
117612229  1

> <PUBCHEM_COORDINATE_TYPE>
1
3

> <PUBCHEM_BONDANNOTATIONS>
15  17  6
16  20  6

$$$$
