310934712
  -OEChem-07211613022D

 25 27  0     1  0  0  0  0  0999 V2000
    0.4320    0.8274    0.0000 S   0  0  0  0  0  0  0  0  0  0  0  0
   -0.2824    0.4149    0.0000 O   0  0  0  0  0  0  0  0  0  0  0  0
    0.3745    0.0045    0.0000 O   0  0  0  0  0  0  0  0  0  0  0  0
   -0.7798    1.5847    0.0000 O   0  0  0  0  0  0  0  0  0  0  0  0
    3.4028    0.9168    0.0000 O   0  0  0  0  0  0  0  0  0  0  0  0
    0.6800    3.5110    0.0000 O   0  0  0  0  0  0  0  0  0  0  0  0
    2.0209    2.6392    0.0000 N   0  0  0  0  0  0  0  0  0  0  0  0
    2.1055    3.4114    0.0000 N   0  0  0  0  0  0  0  0  0  0  0  0
    3.1479    0.1322    0.0000 N   0  0  0  0  0  0  0  0  0  0  0  0
    1.3064    2.2267    0.0000 C   0  0  3  0  0  0  0  0  0  0  0  0
    0.0447    1.5559    0.0000 C   0  0  3  0  0  0  0  0  0  0  0  0
    0.4819    2.2555    0.0000 C   0  0  0  0  0  0  0  0  0  0  0  0
    1.6937    1.4983    0.0000 C   0  0  0  0  0  0  0  0  0  0  0  0
    1.3640    3.0497    0.0000 C   0  0  0  0  0  0  0  0  0  0  0  0
    1.2565    0.7987    0.0000 C   0  0  0  0  0  0  0  0  0  0  0  0
    2.7354    2.2267    0.0000 C   0  0  0  0  0  0  0  0  0  0  0  0
    2.7354    1.4017    0.0000 C   0  0  0  0  0  0  0  0  0  0  0  0
    2.3229    0.1322    0.0000 C   0  0  0  0  0  0  0  0  0  0  0  0
    2.0679    0.9168    0.0000 C   0  0  0  0  0  0  0  0  0  0  0  0
    1.8379   -0.5353    0.0000 C   0  0  0  0  0  0  0  0  0  0  0  0
    2.1735   -1.2889    0.0000 C   0  0  0  0  0  0  0  0  0  0  0  0
    1.0175   -0.4490    0.0000 C   0  0  0  0  0  0  0  0  0  0  0  0
    1.6886   -1.9564    0.0000 C   0  0  0  0  0  0  0  0  0  0  0  0
    0.5325   -1.1165    0.0000 C   0  0  0  0  0  0  0  0  0  0  0  0
    0.8681   -1.8701    0.0000 C   0  0  0  0  0  0  0  0  0  0  0  0
  1  2  2  0  0  0  0
  1  3  2  0  0  0  0
  1 11  1  0  0  0  0
  1 15  1  0  0  0  0
  4 11  1  0  0  0  0
  5  9  1  0  0  0  0
  5 17  1  0  0  0  0
  6 14  2  0  0  0  0
  7 10  1  0  0  0  0
  7 16  1  0  0  0  0
  8 14  1  0  0  0  0
  9 18  2  0  0  0  0
 10 12  1  0  0  0  0
 10 13  1  0  0  0  0
 10 14  1  0  0  0  0
 11 12  1  0  0  0  0
 13 15  1  0  0  0  0
 16 17  1  0  0  0  0
 17 19  2  0  0  0  0
 18 19  1  0  0  0  0
 18 20  1  0  0  0  0
 20 21  2  0  0  0  0
 20 22  1  0  0  0  0
 21 23  1  0  0  0  0
 22 24  2  0  0  0  0
 23 25  2  0  0  0  0
 24 25  1  0  0  0  0
M  END
> <PUBCHEM_COMPOUND_ID_TYPE>
0

> <PUBCHEM_TOTAL_CHARGE>
0

> <PUBCHEM_SUBSTANCE_ID>
310934712

> <PUBCHEM_SUBSTANCE_VERSION>
1

> <PUBCHEM_EXT_DATASOURCE_NAME>
4488

> <PUBCHEM_EXT_DATASOURCE_REGID>
SCHEMBL16112213

> <PUBCHEM_SUBSTANCE_COMMENT>
InChI=1S/C16H19N3O5S/c17-15(21)16(6-7-25(22,23)14(20)9-16)18-10-12-8-13(19-24-12)11-4-2-1-3-5-11/h1-5,8,14,18,20H,6-7,9-10H2,(H2,17,21)
InChIKey=OBZGYGZRMRNEBV-UHFFFAOYSA-N

> <PUBCHEM_SUBSTANCE_SYNONYM>
SCHEMBL16112213

> <PUBCHEM_XREF_EXT_ID>
SCHEMBL16112213

> <PUBCHEM_EXT_DATASOURCE_URL>
https://www.surechembl.org/

> <PUBCHEM_EXT_SUBSTANCE_URL>
https://www.surechembl.org/chemical/SCHEMBL16112213

> <PUBCHEM_CID_ASSOCIATIONS>
117602871  1

> <PUBCHEM_COORDINATE_TYPE>
1
3

$$$$
