310941224
  -OEChem-07211613022D

 43 46  0     1  0  0  0  0  0999 V2000
    5.1961   -1.0231    0.0000 O   0  0  0  0  0  0  0  0  0  0  0  0
    4.0560    0.9500    0.0000 O   0  0  0  0  0  0  0  0  0  0  0  0
    1.6735   -1.0086    0.0000 O   0  0  0  0  0  0  0  0  0  0  0  0
   -0.4897    1.0670    0.0000 O   0  0  0  0  0  0  0  0  0  0  0  0
    3.8368    2.7332    0.0000 O   0  0  0  0  0  0  0  0  0  0  0  0
   -2.6528   -1.0086    0.0000 O   0  0  0  0  0  0  0  0  0  0  0  0
   -5.5323   -1.0086    0.0000 O   0  0  0  0  0  0  0  0  0  0  0  0
    2.3898    0.2339    0.0000 N   0  0  0  0  0  0  0  0  0  0  0  0
    0.2266   -0.1754    0.0000 N   0  0  0  0  0  0  0  0  0  0  0  0
   -1.9367    0.2339    0.0000 N   0  0  0  0  0  0  0  0  0  0  0  0
   -4.0999   -0.1754    0.0000 N   0  0  0  0  0  0  0  0  0  0  0  0
    4.7868   -0.2777    0.0000 C   0  0  3  0  0  0  0  0  0  0  0  0
    4.0414    0.1169    0.0000 C   0  0  0  0  0  0  0  0  0  0  0  0
    4.3776   -0.9793    0.0000 C   0  0  0  0  0  0  0  0  0  0  0  0
    3.3545   -0.2777    0.0000 C   0  0  3  0  0  0  0  0  0  0  0  0
    5.5323    0.1462    0.0000 C   0  0  0  0  0  0  0  0  0  0  0  0
    3.3399   -1.3447    0.0000 C   0  0  0  0  0  0  0  0  0  0  0  0
    1.6882   -0.1169    0.0000 C   0  0  0  0  0  0  0  0  0  0  0  0
    0.9574    0.2631    0.0000 C   0  0  3  0  0  0  0  0  0  0  0  0
    2.6236   -1.7685    0.0000 C   0  0  0  0  0  0  0  0  0  0  0  0
    0.9720    1.1109    0.0000 C   0  0  0  0  0  0  0  0  0  0  0  0
   -0.4897    0.2485    0.0000 C   0  0  0  0  0  0  0  0  0  0  0  0
    1.6882    1.5201    0.0000 C   0  0  0  0  0  0  0  0  0  0  0  0
    1.8636   -1.4470    0.0000 C   0  0  0  0  0  0  0  0  0  0  0  0
    2.5213   -2.5872    0.0000 C   0  0  0  0  0  0  0  0  0  0  0  0
   -1.1912   -0.1462    0.0000 C   0  0  3  0  0  0  0  0  0  0  0  0
    1.3228   -2.0609    0.0000 C   0  0  0  0  0  0  0  0  0  0  0  0
    1.7173   -2.7478    0.0000 C   0  0  0  0  0  0  0  0  0  0  0  0
    2.4044    1.1109    0.0000 C   0  0  0  0  0  0  0  0  0  0  0  0
    1.7028    2.3533    0.0000 C   0  0  0  0  0  0  0  0  0  0  0  0
   -2.6382   -0.1169    0.0000 C   0  0  0  0  0  0  0  0  0  0  0  0
    3.1206    2.3533    0.0000 C   0  0  0  0  0  0  0  0  0  0  0  0
   -1.2059   -0.9793    0.0000 C   0  0  0  0  0  0  0  0  0  0  0  0
    3.1206    1.5201    0.0000 C   0  0  0  0  0  0  0  0  0  0  0  0
    2.3898    2.7478    0.0000 C   0  0  0  0  0  0  0  0  0  0  0  0
   -3.3837    0.2631    0.0000 C   0  0  0  0  0  0  0  0  0  0  0  0
   -1.9220   -1.3886    0.0000 C   0  0  0  0  0  0  0  0  0  0  0  0
   -4.0853   -0.9793    0.0000 C   0  0  0  0  0  0  0  0  0  0  0  0
   -4.8161    0.2631    0.0000 C   0  0  0  0  0  0  0  0  0  0  0  0
   -4.8014   -1.3886    0.0000 C   0  0  0  0  0  0  0  0  0  0  0  0
   -5.5177   -0.1462    0.0000 C   0  0  0  0  0  0  0  0  0  0  0  0
   -2.6528   -1.8270    0.0000 C   0  0  0  0  0  0  0  0  0  0  0  0
    4.5823    2.3240    0.0000 C   0  0  0  0  0  0  0  0  0  0  0  0
  1 12  1  0  0  0  0
  1 14  1  0  0  0  0
  2 13  2  0  0  0  0
  3 18  2  0  0  0  0
  4 22  2  0  0  0  0
  5 32  1  0  0  0  0
  5 43  1  0  0  0  0
  6 31  2  0  0  0  0
  7 40  1  0  0  0  0
  7 41  1  0  0  0  0
  8 15  1  0  0  0  0
  8 18  1  0  0  0  0
  9 19  1  0  0  0  0
  9 22  1  0  0  0  0
 10 26  1  0  0  0  0
 10 31  1  0  0  0  0
 11 36  1  0  0  0  0
 11 38  1  0  0  0  0
 11 39  1  0  0  0  0
 12 13  1  0  0  0  0
 12 14  1  0  0  0  0
 12 16  1  0  0  0  0
 13 15  1  0  0  0  0
 15 17  1  0  0  0  0
 17 20  1  0  0  0  0
 18 19  1  0  0  0  0
 19 21  1  0  0  0  0
 20 24  2  0  0  0  0
 20 25  1  0  0  0  0
 21 23  1  0  0  0  0
 22 26  1  0  0  0  0
 23 29  2  0  0  0  0
 23 30  1  0  0  0  0
 24 27  1  0  0  0  0
 25 28  1  0  0  0  0
 26 33  1  0  0  0  0
 27 28  1  0  0  0  0
 29 34  1  0  0  0  0
 30 35  2  0  0  0  0
 31 36  1  0  0  0  0
 32 34  2  0  0  0  0
 32 35  1  0  0  0  0
 33 37  1  0  0  0  0
 37 42  3  0  0  0  0
 38 40  1  0  0  0  0
 39 41  1  0  0  0  0
M  END
> <PUBCHEM_COMPOUND_ID_TYPE>
0

> <PUBCHEM_TOTAL_CHARGE>
0

> <PUBCHEM_SUBSTANCE_ID>
310941224

> <PUBCHEM_SUBSTANCE_VERSION>
1

> <PUBCHEM_EXT_DATASOURCE_NAME>
4488

> <PUBCHEM_EXT_DATASOURCE_REGID>
SCHEMBL16119184

> <PUBCHEM_SUBSTANCE_COMMENT>
InChI=1S/C32H42N4O7/c1-4-7-25(33-28(37)20-36-14-16-42-17-15-36)30(39)35-27(19-23-10-12-24(41-3)13-11-23)31(40)34-26(18-22-8-5-6-9-22)29(38)32(2)21-43-32/h1,8,10-13,25-27H,5-7,9,14-21H2,2-3H3,(H,33,37)(H,34,40)(H,35,39)
InChIKey=BKOGCPVKGZFAFA-UHFFFAOYSA-N

> <PUBCHEM_SUBSTANCE_SYNONYM>
SCHEMBL16119184

> <PUBCHEM_XREF_EXT_ID>
SCHEMBL16119184

> <PUBCHEM_EXT_DATASOURCE_URL>
https://www.surechembl.org/

> <PUBCHEM_EXT_SUBSTANCE_URL>
https://www.surechembl.org/chemical/SCHEMBL16119184

> <PUBCHEM_CID_ASSOCIATIONS>
86297124  1

> <PUBCHEM_COORDINATE_TYPE>
1
3

$$$$
