310936347
  -OEChem-07211613022D

 22 23  0     1  0  0  0  0  0999 V2000
    2.8592   -3.7215    0.0000 Cl  0  0  0  0  0  0  0  0  0  0  0  0
    4.2661   -4.5384    0.0000 Cl  0  0  0  0  0  0  0  0  0  0  0  0
    3.5627    0.0000    0.0000 O   0  0  0  0  0  0  0  0  0  0  0  0
    0.7035   -0.8169    0.0000 N   0  0  0  0  0  0  0  0  0  0  0  0
    5.6957   -1.2480    0.0000 N   0  0  0  0  0  0  0  0  0  0  0  0
    4.2661   -1.2480    0.0000 C   0  0  3  0  0  0  0  0  0  0  0  0
    4.2661   -2.0650    0.0000 C   0  0  0  0  0  0  0  0  0  0  0  0
    3.5627   -0.8169    0.0000 C   0  0  3  0  0  0  0  0  0  0  0  0
    2.8365   -1.2480    0.0000 C   0  0  0  0  0  0  0  0  0  0  0  0
    3.5627   -2.4734    0.0000 C   0  0  0  0  0  0  0  0  0  0  0  0
    3.5627   -3.2903    0.0000 C   0  0  0  0  0  0  0  0  0  0  0  0
    4.9923   -2.4734    0.0000 C   0  0  0  0  0  0  0  0  0  0  0  0
    4.2661   -3.7215    0.0000 C   0  0  0  0  0  0  0  0  0  0  0  0
    2.1331   -0.8396    0.0000 C   0  0  0  0  0  0  0  0  0  0  0  0
    1.4069   -1.2480    0.0000 C   0  0  0  0  0  0  0  0  0  0  0  0
    2.8365   -2.0650    0.0000 C   0  0  0  0  0  0  0  0  0  0  0  0
    4.9923   -3.2903    0.0000 C   0  0  0  0  0  0  0  0  0  0  0  0
    4.9923   -0.8169    0.0000 C   0  0  0  0  0  0  0  0  0  0  0  0
    1.4069   -2.0650    0.0000 C   0  0  0  0  0  0  0  0  0  0  0  0
    2.1331   -2.4734    0.0000 C   0  0  0  0  0  0  0  0  0  0  0  0
    0.7035   -0.0227    0.0000 C   0  0  0  0  0  0  0  0  0  0  0  0
    0.0000   -1.2480    0.0000 C   0  0  0  0  0  0  0  0  0  0  0  0
  1 11  1  0  0  0  0
  2 13  1  0  0  0  0
  3  8  1  0  0  0  0
  4 15  1  0  0  0  0
  4 21  1  0  0  0  0
  4 22  1  0  0  0  0
  5 18  1  0  0  0  0
  6  7  1  0  0  0  0
  6  8  1  0  0  0  0
  6 18  1  0  0  0  0
  7 10  1  0  0  0  0
  7 12  2  0  0  0  0
  8  9  1  0  0  0  0
  9 14  1  0  0  0  0
  9 16  2  0  0  0  0
 10 11  2  0  0  0  0
 11 13  1  0  0  0  0
 12 17  1  0  0  0  0
 13 17  2  0  0  0  0
 14 15  2  0  0  0  0
 15 19  1  0  0  0  0
 16 20  1  0  0  0  0
 19 20  2  0  0  0  0
M  END
> <PUBCHEM_COMPOUND_ID_TYPE>
0

> <PUBCHEM_TOTAL_CHARGE>
0

> <PUBCHEM_SUBSTANCE_ID>
310936347

> <PUBCHEM_SUBSTANCE_VERSION>
1

> <PUBCHEM_EXT_DATASOURCE_NAME>
4488

> <PUBCHEM_EXT_DATASOURCE_REGID>
SCHEMBL16113980

> <PUBCHEM_SUBSTANCE_COMMENT>
InChI=1S/C17H20Cl2N2O/c1-21(2)13-5-3-4-12(8-13)17(22)14(10-20)11-6-7-15(18)16(19)9-11/h3-9,14,17,22H,10,20H2,1-2H3
InChIKey=KEWKXXNDUOUDSM-UHFFFAOYSA-N

> <PUBCHEM_SUBSTANCE_SYNONYM>
SCHEMBL16113980

> <PUBCHEM_XREF_EXT_ID>
SCHEMBL16113980

> <PUBCHEM_EXT_DATASOURCE_URL>
https://www.surechembl.org/

> <PUBCHEM_EXT_SUBSTANCE_URL>
https://www.surechembl.org/chemical/SCHEMBL16113980

> <PUBCHEM_CID_ASSOCIATIONS>
117604289  1

> <PUBCHEM_COORDINATE_TYPE>
1
3

$$$$
