310948583
  -OEChem-07211613022D

 21 22  0     1  0  0  0  0  0999 V2000
    1.5281    1.6648    0.0000 S   0  0  0  0  0  0  0  0  0  0  0  0
    1.8139   -1.1430    0.0000 N   0  0  0  0  0  0  0  0  0  0  0  0
   -0.8945   -0.7330    0.0000 N   0  0  3  0  0  0  0  0  0  0  0  0
    1.4537   -1.8139    0.0000 N   0  0  0  0  0  0  0  0  0  0  0  0
   -3.0563   -0.3106    0.0000 N   0  0  0  0  0  0  0  0  0  0  0  0
    1.5405    0.3354    0.0000 C   0  0  0  0  0  0  0  0  0  0  0  0
    2.3108    0.5839    0.0000 C   0  0  0  0  0  0  0  0  0  0  0  0
    2.3233    1.4163    0.0000 C   0  0  0  0  0  0  0  0  0  0  0  0
    1.3045   -0.4597    0.0000 C   0  0  3  0  0  0  0  0  0  0  0  0
    1.0436    0.9939    0.0000 C   0  0  0  0  0  0  0  0  0  0  0  0
    0.5466   -0.7206    0.0000 C   0  0  3  0  0  0  0  0  0  0  0  0
    3.0438    0.1739    0.0000 C   0  0  0  0  0  0  0  0  0  0  0  0
    3.0314    1.8139    0.0000 C   0  0  0  0  0  0  0  0  0  0  0  0
   -0.1864   -0.3231    0.0000 C   0  0  0  0  0  0  0  0  0  0  0  0
    3.7520    0.5839    0.0000 C   0  0  0  0  0  0  0  0  0  0  0  0
    3.7520    1.4163    0.0000 C   0  0  0  0  0  0  0  0  0  0  0  0
    0.5342   -1.5529    0.0000 C   0  0  0  0  0  0  0  0  0  0  0  0
   -1.6151   -0.3106    0.0000 C   0  0  0  0  0  0  0  0  0  0  0  0
   -0.8945   -1.5529    0.0000 C   0  0  0  0  0  0  0  0  0  0  0  0
   -2.3233   -0.7206    0.0000 C   0  0  0  0  0  0  0  0  0  0  0  0
   -3.7520   -0.7330    0.0000 C   0  0  0  0  0  0  0  0  0  0  0  0
  1  8  1  0  0  0  0
  1 10  1  0  0  0  0
  2  9  1  0  0  0  0
  3 14  1  0  0  0  0
  3 18  1  0  0  0  0
  3 19  1  0  0  0  0
  4 17  1  0  0  0  0
  5 20  1  0  0  0  0
  5 21  1  0  0  0  0
  6  7  1  0  0  0  0
  6  9  1  0  0  0  0
  6 10  2  0  0  0  0
  7  8  2  0  0  0  0
  7 12  1  0  0  0  0
  8 13  1  0  0  0  0
  9 11  1  0  0  0  0
 11 14  1  0  0  0  0
 11 17  1  0  0  0  0
 12 15  2  0  0  0  0
 13 16  2  0  0  0  0
 15 16  1  0  0  0  0
 18 20  1  0  0  0  0
M  END
> <PUBCHEM_COMPOUND_ID_TYPE>
0

> <PUBCHEM_TOTAL_CHARGE>
0

> <PUBCHEM_SUBSTANCE_ID>
310948583

> <PUBCHEM_SUBSTANCE_VERSION>
1

> <PUBCHEM_EXT_DATASOURCE_NAME>
4488

> <PUBCHEM_EXT_DATASOURCE_REGID>
SCHEMBL16126766

> <PUBCHEM_SUBSTANCE_COMMENT>
InChI=1S/C16H26N4S/c1-19-7-8-20(2)10-12(9-17)16(18)14-11-21-15-6-4-3-5-13(14)15/h3-6,11-12,16,19H,7-10,17-18H2,1-2H3
InChIKey=MRYPLYORHAAEFT-UHFFFAOYSA-N

> <PUBCHEM_SUBSTANCE_SYNONYM>
SCHEMBL16126766

> <PUBCHEM_XREF_EXT_ID>
SCHEMBL16126766

> <PUBCHEM_EXT_DATASOURCE_URL>
https://www.surechembl.org/

> <PUBCHEM_EXT_SUBSTANCE_URL>
https://www.surechembl.org/chemical/SCHEMBL16126766

> <PUBCHEM_CID_ASSOCIATIONS>
117614132  1

> <PUBCHEM_COORDINATE_TYPE>
1
3

$$$$
