310946602
  -OEChem-07211613022D

 28 27  0     1  0  0  0  0  0999 V2000
   -6.9850   -2.5770    0.0000 O   0  0  0  0  0  0  0  0  0  0  0  0
   -9.8349   -4.2270    0.0000 O   0  0  0  0  0  0  0  0  0  0  0  0
   -6.2705   -1.3395    0.0000 O   0  0  0  0  0  0  0  0  0  0  0  0
   -6.9850   -5.0520    0.0000 O   0  0  0  0  0  0  0  0  0  0  0  0
   -6.2705   -3.8145    0.0000 O   0  0  0  0  0  0  0  0  0  0  0  0
   -9.1184   -2.9895    0.0000 O   0  0  0  0  0  0  0  0  0  0  0  0
   -7.6995   -1.3395    0.0000 O   0  0  0  0  0  0  0  0  0  0  0  0
  -10.5494   -6.2895    0.0000 O   0  0  0  0  0  0  0  0  0  0  0  0
  -10.5494   -7.9395    0.0000 O   0  0  0  0  0  0  0  0  0  0  0  0
   -4.1271   -1.7520    0.0000 O   0  0  0  0  0  0  0  0  0  0  0  0
   -9.1204   -7.9395    0.0000 O   0  5  0  0  0  0  0  0  0  0  0  0
   -9.8349   -6.7020    0.0000 O   0  0  0  0  0  0  0  0  0  0  0  0
   -8.4139   -4.2270    0.0000 N   0  0  0  0  0  0  0  0  0  0  0  0
   -9.8349   -7.5270    0.0000 N   0  3  0  0  0  0  0  0  0  0  0  0
   -7.6995   -3.8145    0.0000 C   0  0  3  0  0  0  0  0  0  0  0  0
   -6.9850   -4.2270    0.0000 C   0  0  0  0  0  0  0  0  0  0  0  0
   -7.6995   -2.9895    0.0000 C   0  0  0  0  0  0  0  0  0  0  0  0
   -9.1204   -3.8145    0.0000 C   0  0  0  0  0  0  0  0  0  0  0  0
   -6.9850   -1.7520    0.0000 C   0  0  0  0  0  0  0  0  0  0  0  0
   -9.8349   -5.0520    0.0000 C   0  0  0  0  0  0  0  0  0  0  0  0
   -5.5561   -1.7520    0.0000 C   0  0  0  0  0  0  0  0  0  0  0  0
  -10.5494   -5.4645    0.0000 C   0  0  0  0  0  0  0  0  0  0  0  0
   -4.8416   -1.3395    0.0000 C   0  0  0  0  0  0  0  0  0  0  0  0
  -11.2638   -6.7020    0.0000 C   0  0  0  0  0  0  0  0  0  0  0  0
  -11.2638   -7.5270    0.0000 C   0  0  0  0  0  0  0  0  0  0  0  0
   -3.4126   -1.3395    0.0000 C   0  0  0  0  0  0  0  0  0  0  0  0
   -2.6982   -1.7520    0.0000 C   0  0  0  0  0  0  0  0  0  0  0  0
   -1.9837   -1.3395    0.0000 C   0  0  0  0  0  0  0  0  0  0  0  0
  1 17  1  0  0  0  0
  1 19  1  0  0  0  0
  2 18  1  0  0  0  0
  2 20  1  0  0  0  0
  3 19  1  0  0  0  0
  3 21  1  0  0  0  0
  4 16  2  0  0  0  0
  5 16  1  0  0  0  0
  6 18  2  0  0  0  0
  7 19  2  0  0  0  0
  8 22  1  0  0  0  0
  8 24  1  0  0  0  0
  9 14  1  0  0  0  0
  9 25  1  0  0  0  0
 10 23  1  0  0  0  0
 10 26  1  0  0  0  0
 11 14  1  0  0  0  0
 12 14  2  0  0  0  0
 13 15  1  0  0  0  0
 13 18  1  0  0  0  0
 15 16  1  0  0  0  0
 15 17  1  0  0  0  0
 20 22  1  0  0  0  0
 21 23  1  0  0  0  0
 24 25  1  0  0  0  0
 26 27  1  0  0  0  0
 27 28  1  0  0  0  0
M  CHG  2  11  -1  14   1
M  END
> <PUBCHEM_COMPOUND_ID_TYPE>
0

> <PUBCHEM_TOTAL_CHARGE>
0

> <PUBCHEM_SUBSTANCE_ID>
310946602

> <PUBCHEM_SUBSTANCE_VERSION>
1

> <PUBCHEM_EXT_DATASOURCE_NAME>
4488

> <PUBCHEM_EXT_DATASOURCE_REGID>
SCHEMBL16124723

> <PUBCHEM_SUBSTANCE_COMMENT>
InChI=1S/C14H24N2O12/c1-2-3-23-5-8-26-14(20)27-10-11(12(17)18)15-13(19)25-7-4-24-6-9-28-16(21)22/h11H,2-10H2,1H3,(H,15,19)(H,17,18)
InChIKey=DIITWAOZNWJNRG-UHFFFAOYSA-N

> <PUBCHEM_SUBSTANCE_SYNONYM>
SCHEMBL16124723

> <PUBCHEM_XREF_EXT_ID>
SCHEMBL16124723

> <PUBCHEM_EXT_DATASOURCE_URL>
https://www.surechembl.org/

> <PUBCHEM_EXT_SUBSTANCE_URL>
https://www.surechembl.org/chemical/SCHEMBL16124723

> <PUBCHEM_CID_ASSOCIATIONS>
117612502  1

> <PUBCHEM_COORDINATE_TYPE>
1
3

$$$$
