310932408
  -OEChem-07211613022D

  8  6  0     1  0  0  0  0  0999 V2000
    4.0765    0.0000    0.0000 Cl  0  0  0  0  0  0  0  0  0  0  0  0
   -1.0207    0.3536    0.0000 O   0  0  0  0  0  0  0  0  0  0  0  0
    1.8372    0.3536    0.0000 N   0  0  0  0  0  0  0  0  0  0  0  0
   -0.3062   -0.0589    0.0000 C   0  0  3  0  0  0  0  0  0  0  0  0
    0.4083    0.3536    0.0000 C   0  0  0  0  0  0  0  0  0  0  0  0
    1.1227   -0.0589    0.0000 C   0  0  0  0  0  0  0  0  0  0  0  0
   -0.3062   -0.8839    0.0000 C   0  0  0  0  0  0  0  0  0  0  0  0
   -1.7351   -0.0589    0.0000 C   0  0  0  0  0  0  0  0  0  0  0  0
  2  4  1  0  0  0  0
  2  8  1  0  0  0  0
  3  6  1  0  0  0  0
  4  5  1  0  0  0  0
  4  7  1  0  0  0  0
  5  6  1  0  0  0  0
M  END
> <PUBCHEM_COMPOUND_ID_TYPE>
0

> <PUBCHEM_TOTAL_CHARGE>
0

> <PUBCHEM_SUBSTANCE_ID>
310932408

> <PUBCHEM_SUBSTANCE_VERSION>
1

> <PUBCHEM_EXT_DATASOURCE_NAME>
4488

> <PUBCHEM_EXT_DATASOURCE_REGID>
SCHEMBL16109776

> <PUBCHEM_SUBSTANCE_COMMENT>
InChI=1S/C5H13NO.ClH/c1-5(7-2)3-4-6;/h5H,3-4,6H2,1-2H3;1H
InChIKey=CGTMLIVNJXQPRV-UHFFFAOYSA-N

> <PUBCHEM_SUBSTANCE_SYNONYM>
SCHEMBL16109776

> <PUBCHEM_XREF_EXT_ID>
SCHEMBL16109776

> <PUBCHEM_EXT_DATASOURCE_URL>
https://www.surechembl.org/

> <PUBCHEM_EXT_SUBSTANCE_URL>
https://www.surechembl.org/chemical/SCHEMBL16109776

> <PUBCHEM_CID_ASSOCIATIONS>
75539466  1
313  2
22273215  2

> <PUBCHEM_COORDINATE_TYPE>
1
3

$$$$
