310937056
  -OEChem-07211613022D

 24 25  0     1  0  0  0  0  0999 V2000
   -4.2869    1.2375    0.0000 Br  0  0  0  0  0  0  0  0  0  0  0  0
   -2.8579    0.4125    0.0000 Cl  0  0  0  0  0  0  0  0  0  0  0  0
   -5.0013   -3.3000    0.0000 O   0  0  0  0  0  0  0  0  0  0  0  0
   -2.1434   -3.3000    0.0000 O   0  0  0  0  0  0  0  0  0  0  0  0
   -1.4290   -2.0625    0.0000 O   0  0  0  0  0  0  0  0  0  0  0  0
   -2.8579   -2.0625    0.0000 N   0  0  0  0  0  0  0  0  0  0  0  0
   -4.2869   -2.0625    0.0000 C   0  0  3  0  0  0  0  0  0  0  0  0
   -4.2869   -1.2375    0.0000 C   0  0  0  0  0  0  0  0  0  0  0  0
   -5.0013   -2.4750    0.0000 C   0  0  3  0  0  0  0  0  0  0  0  0
   -5.7158   -2.0625    0.0000 C   0  0  0  0  0  0  0  0  0  0  0  0
   -3.5724   -2.4750    0.0000 C   0  0  0  0  0  0  0  0  0  0  0  0
   -3.5724   -0.8250    0.0000 C   0  0  0  0  0  0  0  0  0  0  0  0
   -3.5724    0.0000    0.0000 C   0  0  0  0  0  0  0  0  0  0  0  0
   -5.0013   -0.8250    0.0000 C   0  0  0  0  0  0  0  0  0  0  0  0
   -4.2869    0.4125    0.0000 C   0  0  0  0  0  0  0  0  0  0  0  0
   -5.0013    0.0000    0.0000 C   0  0  0  0  0  0  0  0  0  0  0  0
   -6.4303   -2.4750    0.0000 C   0  0  0  0  0  0  0  0  0  0  0  0
   -5.7158   -1.2375    0.0000 C   0  0  0  0  0  0  0  0  0  0  0  0
   -2.1434   -2.4750    0.0000 C   0  0  0  0  0  0  0  0  0  0  0  0
   -2.8579   -1.2375    0.0000 C   0  0  0  0  0  0  0  0  0  0  0  0
   -7.1448   -2.0625    0.0000 C   0  0  0  0  0  0  0  0  0  0  0  0
   -6.4303   -0.8250    0.0000 C   0  0  0  0  0  0  0  0  0  0  0  0
   -7.1448   -1.2375    0.0000 C   0  0  0  0  0  0  0  0  0  0  0  0
   -2.1434   -0.8250    0.0000 C   0  0  0  0  0  0  0  0  0  0  0  0
  1 15  1  0  0  0  0
  2 13  1  0  0  0  0
  3  9  1  0  0  0  0
  4 19  2  0  0  0  0
  5 19  1  0  0  0  0
  6 11  1  0  0  0  0
  6 19  1  0  0  0  0
  6 20  1  0  0  0  0
  7  8  1  0  0  0  0
  7  9  1  0  0  0  0
  7 11  1  0  0  0  0
  8 12  1  0  0  0  0
  8 14  2  0  0  0  0
  9 10  1  0  0  0  0
 10 17  2  0  0  0  0
 10 18  1  0  0  0  0
 12 13  2  0  0  0  0
 13 15  1  0  0  0  0
 14 16  1  0  0  0  0
 15 16  2  0  0  0  0
 17 21  1  0  0  0  0
 18 22  2  0  0  0  0
 20 24  1  0  0  0  0
 21 23  2  0  0  0  0
 22 23  1  0  0  0  0
M  END
> <PUBCHEM_COMPOUND_ID_TYPE>
0

> <PUBCHEM_TOTAL_CHARGE>
0

> <PUBCHEM_SUBSTANCE_ID>
310937056

> <PUBCHEM_SUBSTANCE_VERSION>
1

> <PUBCHEM_EXT_DATASOURCE_NAME>
4488

> <PUBCHEM_EXT_DATASOURCE_REGID>
SCHEMBL16114766

> <PUBCHEM_SUBSTANCE_COMMENT>
InChI=1S/C18H19BrClNO3/c1-2-21(18(23)24)11-14(13-8-9-15(19)16(20)10-13)17(22)12-6-4-3-5-7-12/h3-10,14,17,22H,2,11H2,1H3,(H,23,24)
InChIKey=BXYFAHAKOPCXGV-UHFFFAOYSA-N

> <PUBCHEM_SUBSTANCE_SYNONYM>
SCHEMBL16114766

> <PUBCHEM_XREF_EXT_ID>
SCHEMBL16114766

> <PUBCHEM_EXT_DATASOURCE_URL>
https://www.surechembl.org/

> <PUBCHEM_EXT_SUBSTANCE_URL>
https://www.surechembl.org/chemical/SCHEMBL16114766

> <PUBCHEM_CID_ASSOCIATIONS>
117604902  1

> <PUBCHEM_COORDINATE_TYPE>
1
3

$$$$
