310935517
  -OEChem-07211613022D

 37 42  0     1  0  0  0  0  0999 V2000
    3.5372   -5.7538    0.0000 O   0  0  0  0  0  0  0  0  0  0  0  0
    0.7074   -3.3014    0.0000 N   0  0  3  0  0  0  0  0  0  0  0  0
    0.0000   -2.0751    0.0000 N   0  0  0  0  0  0  0  0  0  0  0  0
    0.7074   -0.8018    0.0000 N   0  0  0  0  0  0  0  0  0  0  0  0
    2.8297   -6.9801    0.0000 N   0  0  0  0  0  0  0  0  0  0  0  0
    4.9992   -2.4996    0.0000 N   0  0  0  0  0  0  0  0  0  0  0  0
    2.8297   -9.4325    0.0000 N   0  0  0  0  0  0  0  0  0  0  0  0
    1.4149   -2.0751    0.0000 C   0  0  0  0  0  0  0  0  0  0  0  0
    0.7074   -2.4524    0.0000 C   0  0  0  0  0  0  0  0  0  0  0  0
    1.4620   -1.2263    0.0000 C   0  0  0  0  0  0  0  0  0  0  0  0
    2.8297   -2.0751    0.0000 C   0  0  0  0  0  0  0  0  0  0  0  0
    2.1223   -0.8490    0.0000 C   0  0  0  0  0  0  0  0  0  0  0  0
    2.1223   -2.4524    0.0000 C   0  0  0  0  0  0  0  0  0  0  0  0
    1.4149   -4.5277    0.0000 C   0  0  0  0  0  0  0  0  0  0  0  0
    0.7074   -4.9521    0.0000 C   0  0  0  0  0  0  0  0  0  0  0  0
    1.4149   -3.6787    0.0000 C   0  0  0  0  0  0  0  0  0  0  0  0
    2.8297   -1.2263    0.0000 C   0  0  0  0  0  0  0  0  0  0  0  0
    0.0000   -3.6787    0.0000 C   0  0  0  0  0  0  0  0  0  0  0  0
    3.5372   -2.4524    0.0000 C   0  0  0  0  0  0  0  0  0  0  0  0
    2.1223   -5.7538    0.0000 C   0  0  0  0  0  0  0  0  0  0  0  0
    2.1223   -4.9050    0.0000 C   0  0  0  0  0  0  0  0  0  0  0  0
    0.0000   -4.5277    0.0000 C   0  0  0  0  0  0  0  0  0  0  0  0
    0.0000   -1.2263    0.0000 C   0  0  0  0  0  0  0  0  0  0  0  0
    0.7074   -5.7538    0.0000 C   0  0  0  0  0  0  0  0  0  0  0  0
    2.8297   -6.1311    0.0000 C   0  0  0  0  0  0  0  0  0  0  0  0
    1.4149   -6.1311    0.0000 C   0  0  0  0  0  0  0  0  0  0  0  0
    3.5844   -3.3014    0.0000 C   0  0  0  0  0  0  0  0  0  0  0  0
    2.1223    0.0000    0.0000 C   0  0  0  0  0  0  0  0  0  0  0  0
    4.2918   -2.0751    0.0000 C   0  0  0  0  0  0  0  0  0  0  0  0
    4.2446   -3.7259    0.0000 C   0  0  0  0  0  0  0  0  0  0  0  0
    3.5372   -7.3574    0.0000 C   0  0  0  0  0  0  0  0  0  0  0  0
    2.1223   -7.3574    0.0000 C   0  0  0  0  0  0  0  0  0  0  0  0
    4.9992   -3.3014    0.0000 C   0  0  0  0  0  0  0  0  0  0  0  0
    3.5372   -8.2064    0.0000 C   0  0  0  0  0  0  0  0  0  0  0  0
    2.1223   -8.2064    0.0000 C   0  0  0  0  0  0  0  0  0  0  0  0
    2.8297   -8.6308    0.0000 C   0  0  0  0  0  0  0  0  0  0  0  0
    4.2446   -4.5277    0.0000 C   0  0  0  0  0  0  0  0  0  0  0  0
  1 25  2  0  0  0  0
  2  9  1  0  0  0  0
  2 16  1  0  0  0  0
  2 18  1  0  0  0  0
  3  9  1  0  0  0  0
  3 23  2  0  0  0  0
  4 10  2  0  0  0  0
  4 23  1  0  0  0  0
  5 25  1  0  0  0  0
  5 31  1  0  0  0  0
  5 32  1  0  0  0  0
  6 29  1  0  0  0  0
  6 33  2  0  0  0  0
  7 36  1  0  0  0  0
  8  9  2  0  0  0  0
  8 10  1  0  0  0  0
  8 13  1  0  0  0  0
 10 12  1  0  0  0  0
 11 13  2  0  0  0  0
 11 17  1  0  0  0  0
 11 19  1  0  0  0  0
 12 17  2  0  0  0  0
 12 28  1  0  0  0  0
 14 15  2  0  0  0  0
 14 16  1  0  0  0  0
 14 21  1  0  0  0  0
 15 22  1  0  0  0  0
 15 24  1  0  0  0  0
 18 22  1  0  0  0  0
 19 27  1  0  0  0  0
 19 29  2  0  0  0  0
 20 21  2  0  0  0  0
 20 25  1  0  0  0  0
 20 26  1  0  0  0  0
 24 26  2  0  0  0  0
 27 30  2  0  0  0  0
 30 33  1  0  0  0  0
 30 37  1  0  0  0  0
 31 34  1  0  0  0  0
 32 35  1  0  0  0  0
 34 36  1  0  0  0  0
 35 36  1  0  0  0  0
M  END
> <PUBCHEM_COMPOUND_ID_TYPE>
0

> <PUBCHEM_TOTAL_CHARGE>
0

> <PUBCHEM_SUBSTANCE_ID>
310935517

> <PUBCHEM_SUBSTANCE_VERSION>
1

> <PUBCHEM_EXT_DATASOURCE_NAME>
4488

> <PUBCHEM_EXT_DATASOURCE_REGID>
SCHEMBL16113085

> <PUBCHEM_SUBSTANCE_COMMENT>
InChI=1S/C30H32N6O/c1-19-11-24(16-32-15-19)23-12-20(2)28-27(14-23)29(34-18-33-28)36-8-5-21-3-4-22(13-25(21)17-36)30(37)35-9-6-26(31)7-10-35/h3-4,11-16,18,26H,5-10,17,31H2,1-2H3
InChIKey=GNTFTKHFVZLWPZ-UHFFFAOYSA-N

> <PUBCHEM_SUBSTANCE_SYNONYM>
SCHEMBL16113085

> <PUBCHEM_XREF_EXT_ID>
SCHEMBL16113085

> <PUBCHEM_EXT_DATASOURCE_URL>
https://www.surechembl.org/

> <PUBCHEM_EXT_SUBSTANCE_URL>
https://www.surechembl.org/chemical/SCHEMBL16113085

> <PUBCHEM_CID_ASSOCIATIONS>
86300909  1

> <PUBCHEM_COORDINATE_TYPE>
1
3

$$$$
