310930375
  -OEChem-07211613022D

 19 19  0     1  0  0  0  0  0999 V2000
    0.4197   -6.4570    0.0000 F   0  0  0  0  0  0  0  0  0  0  0  0
    1.6465    0.0000    0.0000 O   0  0  0  0  0  0  0  0  0  0  0  0
    2.9056   -0.7103    0.0000 O   0  0  0  0  0  0  0  0  0  0  0  0
    0.8394   -2.8734    0.0000 O   0  0  0  0  0  0  0  0  0  0  0  0
    1.6465   -1.4206    0.0000 N   0  0  0  0  0  0  0  0  0  0  0  0
    0.8394   -1.4206    0.0000 C   0  0  0  0  0  0  0  0  0  0  0  0
    2.0663   -2.1631    0.0000 C   0  0  0  0  0  0  0  0  0  0  0  0
    2.0663   -0.7103    0.0000 C   0  0  0  0  0  0  0  0  0  0  0  0
    1.6465   -2.8734    0.0000 C   0  0  3  0  0  0  0  0  0  0  0  0
    1.6465   -4.2939    0.0000 C   0  0  0  0  0  0  0  0  0  0  0  0
    2.0663   -3.5836    0.0000 C   0  0  0  0  0  0  0  0  0  0  0  0
    0.8394   -0.5811    0.0000 C   0  0  0  0  0  0  0  0  0  0  0  0
    0.0000   -1.4206    0.0000 C   0  0  0  0  0  0  0  0  0  0  0  0
    0.8394   -2.2599    0.0000 C   0  0  0  0  0  0  0  0  0  0  0  0
    2.0663   -5.0365    0.0000 C   0  0  0  0  0  0  0  0  0  0  0  0
    0.8394   -4.3262    0.0000 C   0  0  0  0  0  0  0  0  0  0  0  0
    0.8394   -5.7467    0.0000 C   0  0  0  0  0  0  0  0  0  0  0  0
    1.6465   -5.7467    0.0000 C   0  0  0  0  0  0  0  0  0  0  0  0
    0.4197   -5.0365    0.0000 C   0  0  0  0  0  0  0  0  0  0  0  0
  1 17  1  0  0  0  0
  2  8  2  0  0  0  0
  3  8  1  0  0  0  0
  4  9  1  0  0  0  0
  5  6  1  0  0  0  0
  5  7  1  0  0  0  0
  5  8  1  0  0  0  0
  6 12  1  0  0  0  0
  6 13  1  0  0  0  0
  6 14  1  0  0  0  0
  7  9  1  0  0  0  0
  9 11  1  0  0  0  0
 10 11  1  0  0  0  0
 10 15  2  0  0  0  0
 10 16  1  0  0  0  0
 15 18  1  0  0  0  0
 16 19  2  0  0  0  0
 17 18  2  0  0  0  0
 17 19  1  0  0  0  0
M  END
> <PUBCHEM_COMPOUND_ID_TYPE>
0

> <PUBCHEM_TOTAL_CHARGE>
0

> <PUBCHEM_SUBSTANCE_ID>
310930375

> <PUBCHEM_SUBSTANCE_VERSION>
1

> <PUBCHEM_EXT_DATASOURCE_NAME>
4488

> <PUBCHEM_EXT_DATASOURCE_REGID>
SCHEMBL16107660

> <PUBCHEM_SUBSTANCE_COMMENT>
InChI=1S/C14H20FNO3/c1-14(2,3)16(13(18)19)9-12(17)8-10-4-6-11(15)7-5-10/h4-7,12,17H,8-9H2,1-3H3,(H,18,19)
InChIKey=YCJDCRYUUYNSSS-UHFFFAOYSA-N

> <PUBCHEM_SUBSTANCE_SYNONYM>
SCHEMBL16107660

> <PUBCHEM_XREF_EXT_ID>
SCHEMBL16107660

> <PUBCHEM_EXT_DATASOURCE_URL>
https://www.surechembl.org/

> <PUBCHEM_EXT_SUBSTANCE_URL>
https://www.surechembl.org/chemical/SCHEMBL16107660

> <PUBCHEM_CID_ASSOCIATIONS>
117599528  1

> <PUBCHEM_COORDINATE_TYPE>
1
3

$$$$
