310944908
  -OEChem-07211613022D

 43 49  0     1  0  0  0  0  0999 V2000
   -5.5012   -2.3101    0.0000 O   0  0  0  0  0  0  0  0  0  0  0  0
    2.3551   -0.4405    0.0000 O   0  0  0  0  0  0  0  0  0  0  0  0
   -4.3147   -1.4652    0.0000 N   0  0  0  0  0  0  0  0  0  0  0  0
   -4.7282   -0.7281    0.0000 N   0  0  0  0  0  0  0  0  0  0  0  0
    4.5124   -0.0449    0.0000 N   0  0  0  0  0  0  0  0  0  0  0  0
   -0.5573    1.2495    0.0000 C   0  0  0  0  0  0  0  0  0  0  0  0
   -0.5393    2.0944    0.0000 C   0  0  0  0  0  0  0  0  0  0  0  0
   -1.2405    0.8359    0.0000 C   0  0  0  0  0  0  0  0  0  0  0  0
   -1.2764    2.5079    0.0000 C   0  0  0  0  0  0  0  0  0  0  0  0
    0.1977    0.8359    0.0000 C   0  0  0  0  0  0  0  0  0  0  0  0
    0.1797    2.5079    0.0000 C   0  0  0  0  0  0  0  0  0  0  0  0
   -2.7146   -0.0090    0.0000 C   0  0  0  0  0  0  0  0  0  0  0  0
   -1.9955    1.2315    0.0000 C   0  0  0  0  0  0  0  0  0  0  0  0
   -1.2584   -0.0090    0.0000 C   0  0  0  0  0  0  0  0  0  0  0  0
   -3.4158   -0.4225    0.0000 C   0  0  0  0  0  0  0  0  0  0  0  0
   -2.0495    2.2922    0.0000 C   0  0  0  0  0  0  0  0  0  0  0  0
   -1.4742    3.2810    0.0000 C   0  0  0  0  0  0  0  0  0  0  0  0
   -2.6787    0.8359    0.0000 C   0  0  0  0  0  0  0  0  0  0  0  0
   -1.9955   -0.4045    0.0000 C   0  0  0  0  0  0  0  0  0  0  0  0
    0.2157   -0.0090    0.0000 C   0  0  0  0  0  0  0  0  0  0  0  0
    0.8809    1.2315    0.0000 C   0  0  0  0  0  0  0  0  0  0  0  0
    0.9168    2.0944    0.0000 C   0  0  0  0  0  0  0  0  0  0  0  0
    0.2157    3.3349    0.0000 C   0  0  0  0  0  0  0  0  0  0  0  0
   -2.2652    3.0832    0.0000 C   0  0  0  0  0  0  0  0  0  0  0  0
   -3.5236   -1.2495    0.0000 C   0  0  0  0  0  0  0  0  0  0  0  0
   -4.1889   -0.0989    0.0000 C   0  0  0  0  0  0  0  0  0  0  0  0
    1.6180   -0.0090    0.0000 C   0  0  0  0  0  0  0  0  0  0  0  0
    0.9348   -0.4045    0.0000 C   0  0  0  0  0  0  0  0  0  0  0  0
    1.6180    0.8180    0.0000 C   0  0  0  0  0  0  0  0  0  0  0  0
   -4.6743   -2.2203    0.0000 C   0  0  3  0  0  0  0  0  0  0  0  0
    1.6180    2.5079    0.0000 C   0  0  0  0  0  0  0  0  0  0  0  0
    0.9168    3.7304    0.0000 C   0  0  0  0  0  0  0  0  0  0  0  0
    1.6180    3.3169    0.0000 C   0  0  0  0  0  0  0  0  0  0  0  0
   -4.2068   -2.8494    0.0000 C   0  0  0  0  0  0  0  0  0  0  0  0
   -5.8248   -3.0652    0.0000 C   0  0  0  0  0  0  0  0  0  0  0  0
   -4.5304   -3.6045    0.0000 C   0  0  0  0  0  0  0  0  0  0  0  0
    3.0742   -0.0090    0.0000 C   0  0  0  0  0  0  0  0  0  0  0  0
   -5.3034   -3.7304    0.0000 C   0  0  0  0  0  0  0  0  0  0  0  0
    3.8113   -0.4225    0.0000 C   0  0  0  0  0  0  0  0  0  0  0  0
    5.2675   -0.3326    0.0000 C   0  0  0  0  0  0  0  0  0  0  0  0
    4.6023    0.8180    0.0000 C   0  0  0  0  0  0  0  0  0  0  0  0
    5.8248    0.2607    0.0000 C   0  0  0  0  0  0  0  0  0  0  0  0
    5.4113    0.9798    0.0000 C   0  0  0  0  0  0  0  0  0  0  0  0
  1 30  1  0  0  0  0
  1 35  1  0  0  0  0
  2 27  1  0  0  0  0
  2 37  1  0  0  0  0
  3  4  1  0  0  0  0
  3 25  1  0  0  0  0
  3 30  1  0  0  0  0
  4 26  2  0  0  0  0
  5 39  1  0  0  0  0
  5 40  1  0  0  0  0
  5 41  1  0  0  0  0
  6  7  2  0  0  0  0
  6  8  1  0  0  0  0
  6 10  1  0  0  0  0
  7  9  1  0  0  0  0
  7 11  1  0  0  0  0
  8 13  2  0  0  0  0
  8 14  1  0  0  0  0
  9 16  1  0  0  0  0
  9 17  1  0  0  0  0
 10 20  2  0  0  0  0
 10 21  1  0  0  0  0
 11 22  2  0  0  0  0
 11 23  1  0  0  0  0
 12 15  1  0  0  0  0
 12 18  2  0  0  0  0
 12 19  1  0  0  0  0
 13 18  1  0  0  0  0
 14 19  2  0  0  0  0
 15 25  2  0  0  0  0
 15 26  1  0  0  0  0
 16 24  1  0  0  0  0
 17 24  1  0  0  0  0
 20 28  1  0  0  0  0
 21 29  2  0  0  0  0
 22 31  1  0  0  0  0
 23 32  2  0  0  0  0
 27 28  2  0  0  0  0
 27 29  1  0  0  0  0
 30 34  1  0  0  0  0
 31 33  2  0  0  0  0
 32 33  1  0  0  0  0
 34 36  1  0  0  0  0
 35 38  1  0  0  0  0
 36 38  1  0  0  0  0
 37 39  1  0  0  0  0
 40 42  1  0  0  0  0
 41 43  1  0  0  0  0
 42 43  1  0  0  0  0
M  END
> <PUBCHEM_COMPOUND_ID_TYPE>
0

> <PUBCHEM_TOTAL_CHARGE>
0

> <PUBCHEM_SUBSTANCE_ID>
310944908

> <PUBCHEM_SUBSTANCE_VERSION>
1

> <PUBCHEM_EXT_DATASOURCE_NAME>
4488

> <PUBCHEM_EXT_DATASOURCE_REGID>
SCHEMBL16122993

> <PUBCHEM_SUBSTANCE_COMMENT>
InChI=1S/C38H43N3O2/c1-2-9-30(10-3-1)37(31-11-8-12-31)38(33-18-20-35(21-19-33)42-26-24-40-22-5-6-23-40)32-16-14-29(15-17-32)34-27-39-41(28-34)36-13-4-7-25-43-36/h1-3,9-10,14-21,27-28,31,36H,4-8,11-13,22-26H2/b38-37+
InChIKey=PVCHCBGOGKXDSU-HEFFKOSUSA-N

> <PUBCHEM_SUBSTANCE_SYNONYM>
SCHEMBL16122993

> <PUBCHEM_XREF_EXT_ID>
SCHEMBL16122993

> <PUBCHEM_EXT_DATASOURCE_URL>
https://www.surechembl.org/

> <PUBCHEM_EXT_SUBSTANCE_URL>
https://www.surechembl.org/chemical/SCHEMBL16122993

> <PUBCHEM_CID_ASSOCIATIONS>
117611084  1

> <PUBCHEM_COORDINATE_TYPE>
1
3

$$$$
