310943591
  -OEChem-07211613022D

 27 29  0     1  0  0  0  0  0999 V2000
    3.4646    2.2213    0.0000 O   0  0  0  0  0  0  0  0  0  0  0  0
   -2.2772   -1.3411    0.0000 N   0  0  3  0  0  0  0  0  0  0  0  0
   -4.0654   -0.7963    0.0000 N   0  0  3  0  0  0  0  0  0  0  0  0
    4.1910    0.7684    0.0000 N   0  0  0  0  0  0  0  0  0  0  0  0
    2.2072   -2.2213    0.0000 N   0  0  0  0  0  0  0  0  0  0  0  0
    4.9036    1.2014    0.0000 N   0  0  0  0  0  0  0  0  0  0  0  0
    0.5868   -0.4750    0.0000 C   0  0  0  0  0  0  0  0  0  0  0  0
    1.3132   -0.0559    0.0000 C   0  0  0  0  0  0  0  0  0  0  0  0
    0.5868   -1.3132    0.0000 C   0  0  0  0  0  0  0  0  0  0  0  0
   -0.8662   -1.3272    0.0000 C   0  0  0  0  0  0  0  0  0  0  0  0
   -0.1118   -1.7183    0.0000 C   0  0  0  0  0  0  0  0  0  0  0  0
   -0.1397   -0.0838    0.0000 C   0  0  0  0  0  0  0  0  0  0  0  0
   -0.8382   -0.4890    0.0000 C   0  0  0  0  0  0  0  0  0  0  0  0
    1.3272    0.7684    0.0000 C   0  0  0  0  0  0  0  0  0  0  0  0
    2.0396   -0.4610    0.0000 C   0  0  0  0  0  0  0  0  0  0  0  0
    2.7381    0.7824    0.0000 C   0  0  0  0  0  0  0  0  0  0  0  0
   -1.5646   -1.7323    0.0000 C   0  0  0  0  0  0  0  0  0  0  0  0
    2.0117    1.1735    0.0000 C   0  0  0  0  0  0  0  0  0  0  0  0
    2.7381   -0.0419    0.0000 C   0  0  0  0  0  0  0  0  0  0  0  0
    1.4808   -1.8301    0.0000 C   0  0  0  0  0  0  0  0  0  0  0  0
    3.4506    1.1874    0.0000 C   0  0  0  0  0  0  0  0  0  0  0  0
   -2.9896   -1.7882    0.0000 C   0  0  0  0  0  0  0  0  0  0  0  0
   -2.2213   -0.5169    0.0000 C   0  0  0  0  0  0  0  0  0  0  0  0
   -3.7720   -1.5507    0.0000 C   0  0  0  0  0  0  0  0  0  0  0  0
   -2.8359    0.0559    0.0000 C   0  0  0  0  0  0  0  0  0  0  0  0
   -3.6462   -0.0559    0.0000 C   0  0  0  0  0  0  0  0  0  0  0  0
   -4.9036   -0.7963    0.0000 C   0  0  0  0  0  0  0  0  0  0  0  0
  1 21  2  0  0  0  0
  2 17  1  0  0  0  0
  2 22  1  0  0  0  0
  2 23  1  0  0  0  0
  3 24  1  0  0  0  0
  3 26  1  0  0  0  0
  3 27  1  0  0  0  0
  4  6  1  0  0  0  0
  4 21  1  0  0  0  0
  5 20  3  0  0  0  0
  7  8  1  0  0  0  0
  7  9  1  0  0  0  0
  7 12  2  0  0  0  0
  8 14  2  0  0  0  0
  8 15  1  0  0  0  0
  9 11  2  0  0  0  0
  9 20  1  0  0  0  0
 10 11  1  0  0  0  0
 10 13  2  0  0  0  0
 10 17  1  0  0  0  0
 12 13  1  0  0  0  0
 14 18  1  0  0  0  0
 15 19  2  0  0  0  0
 16 18  2  0  0  0  0
 16 19  1  0  0  0  0
 16 21  1  0  0  0  0
 22 24  1  0  0  0  0
 23 25  1  0  0  0  0
 25 26  1  0  0  0  0
M  END
> <PUBCHEM_COMPOUND_ID_TYPE>
0

> <PUBCHEM_TOTAL_CHARGE>
0

> <PUBCHEM_SUBSTANCE_ID>
310943591

> <PUBCHEM_SUBSTANCE_VERSION>
1

> <PUBCHEM_EXT_DATASOURCE_NAME>
4488

> <PUBCHEM_EXT_DATASOURCE_REGID>
SCHEMBL16121658

> <PUBCHEM_SUBSTANCE_COMMENT>
InChI=1S/C21H25N5O/c1-25-9-2-10-26(12-11-25)15-16-3-8-20(19(13-16)14-22)17-4-6-18(7-5-17)21(27)24-23/h3-8,13H,2,9-12,15,23H2,1H3,(H,24,27)
InChIKey=HFJJIIZCZPLDNA-UHFFFAOYSA-N

> <PUBCHEM_SUBSTANCE_SYNONYM>
SCHEMBL16121658

> <PUBCHEM_XREF_EXT_ID>
SCHEMBL16121658

> <PUBCHEM_EXT_DATASOURCE_URL>
https://www.surechembl.org/

> <PUBCHEM_EXT_SUBSTANCE_URL>
https://www.surechembl.org/chemical/SCHEMBL16121658

> <PUBCHEM_CID_ASSOCIATIONS>
117609990  1

> <PUBCHEM_COORDINATE_TYPE>
1
3

$$$$
