310946568
  -OEChem-07211613022D

 25 25  0     1  0  0  0  0  0999 V2000
   -4.7170    7.5956    0.0000 S   0  0  0  0  0  0  0  0  0  0  0  0
   -7.5749    5.1206    0.0000 O   0  0  0  0  0  0  0  0  0  0  0  0
   -6.8604    6.3581    0.0000 O   0  0  0  0  0  0  0  0  0  0  0  0
   -4.7170    4.2956    0.0000 O   0  0  0  0  0  0  0  0  0  0  0  0
   -7.5749    9.2456    0.0000 O   0  0  0  0  0  0  0  0  0  0  0  0
   -6.8604   10.4831    0.0000 O   0  5  0  0  0  0  0  0  0  0  0  0
   -8.2893   10.4831    0.0000 O   0  0  0  0  0  0  0  0  0  0  0  0
   -6.1459    5.1206    0.0000 N   0  0  0  0  0  0  0  0  0  0  0  0
   -7.5749   10.0706    0.0000 N   0  3  0  0  0  0  0  0  0  0  0  0
   -8.2893    5.5331    0.0000 C   0  0  0  0  0  0  0  0  0  0  0  0
   -9.0038    6.7706    0.0000 C   0  0  0  0  0  0  0  0  0  0  0  0
   -6.8604    5.5331    0.0000 C   0  0  0  0  0  0  0  0  0  0  0  0
   -5.4315    5.5331    0.0000 C   0  0  3  0  0  0  0  0  0  0  0  0
   -8.2893    6.3581    0.0000 C   0  0  0  0  0  0  0  0  0  0  0  0
   -9.0038    5.1206    0.0000 C   0  0  0  0  0  0  0  0  0  0  0  0
   -9.7183    6.3581    0.0000 C   0  0  0  0  0  0  0  0  0  0  0  0
   -4.7170    5.1206    0.0000 C   0  0  0  0  0  0  0  0  0  0  0  0
   -9.7183    5.5331    0.0000 C   0  0  0  0  0  0  0  0  0  0  0  0
   -9.0038    7.5956    0.0000 C   0  0  0  0  0  0  0  0  0  0  0  0
   -5.4315    6.3581    0.0000 C   0  0  0  0  0  0  0  0  0  0  0  0
   -8.2893    8.0081    0.0000 C   0  0  0  0  0  0  0  0  0  0  0  0
   -4.7170    6.7706    0.0000 C   0  0  0  0  0  0  0  0  0  0  0  0
   -4.0025    5.5331    0.0000 C   0  0  0  0  0  0  0  0  0  0  0  0
   -8.2893    8.8331    0.0000 C   0  0  0  0  0  0  0  0  0  0  0  0
   -4.0025    8.0081    0.0000 C   0  0  0  0  0  0  0  0  0  0  0  0
  1 22  1  0  0  0  0
  1 25  1  0  0  0  0
  2 10  1  0  0  0  0
  2 12  1  0  0  0  0
  3 12  2  0  0  0  0
  4 17  2  0  0  0  0
  5  9  1  0  0  0  0
  5 24  1  0  0  0  0
  6  9  1  0  0  0  0
  7  9  2  0  0  0  0
  8 12  1  0  0  0  0
  8 13  1  0  0  0  0
 10 14  2  0  0  0  0
 10 15  1  0  0  0  0
 11 14  1  0  0  0  0
 11 16  2  0  0  0  0
 11 19  1  0  0  0  0
 13 17  1  0  0  0  0
 13 20  1  0  0  0  0
 15 18  2  0  0  0  0
 16 18  1  0  0  0  0
 17 23  1  0  0  0  0
 19 21  1  0  0  0  0
 20 22  1  0  0  0  0
 21 24  1  0  0  0  0
M  CHG  2   6  -1   9   1
M  END
> <PUBCHEM_COMPOUND_ID_TYPE>
0

> <PUBCHEM_TOTAL_CHARGE>
0

> <PUBCHEM_SUBSTANCE_ID>
310946568

> <PUBCHEM_SUBSTANCE_VERSION>
1

> <PUBCHEM_EXT_DATASOURCE_NAME>
4488

> <PUBCHEM_EXT_DATASOURCE_REGID>
SCHEMBL16124689

> <PUBCHEM_SUBSTANCE_COMMENT>
InChI=1S/C16H22N2O6S/c1-12(19)15(8-10-25-2)17-16(20)24-14-7-3-5-13(11-14)6-4-9-23-18(21)22/h3,5,7,11,15H,4,6,8-10H2,1-2H3,(H,17,20)
InChIKey=IAOODYAEPWZVME-UHFFFAOYSA-N

> <PUBCHEM_SUBSTANCE_SYNONYM>
SCHEMBL16124689

> <PUBCHEM_XREF_EXT_ID>
SCHEMBL16124689

> <PUBCHEM_EXT_DATASOURCE_URL>
https://www.surechembl.org/

> <PUBCHEM_EXT_SUBSTANCE_URL>
https://www.surechembl.org/chemical/SCHEMBL16124689

> <PUBCHEM_CID_ASSOCIATIONS>
117612470  1

> <PUBCHEM_COORDINATE_TYPE>
1
3

$$$$
