310939702
  -OEChem-07211613022D

 35 37  0     1  0  0  0  0  0999 V2000
    1.4241  -13.7520    0.0000 S   0  0  0  0  0  0  0  0  0  0  0  0
   -2.1482   -9.2147    0.0000 O   0  0  0  0  0  0  0  0  0  0  0  0
    2.2491  -13.7520    0.0000 O   0  0  0  0  0  0  0  0  0  0  0  0
    0.5991  -13.7520    0.0000 O   0  0  0  0  0  0  0  0  0  0  0  0
   -3.5770  -10.0397    0.0000 O   0  0  0  0  0  0  0  0  0  0  0  0
    0.7096  -10.0397    0.0000 N   0  0  0  0  0  0  0  0  0  0  0  0
    1.4241   -8.8021    0.0000 N   0  0  0  0  0  0  0  0  0  0  0  0
    2.8529   -8.8021    0.0000 N   0  0  0  0  0  0  0  0  0  0  0  0
   -5.0060   -9.2147    0.0000 N   0  0  0  0  0  0  0  0  0  0  0  0
    1.4241  -10.4521    0.0000 C   0  0  0  0  0  0  0  0  0  0  0  0
    0.7096   -9.2147    0.0000 C   0  0  0  0  0  0  0  0  0  0  0  0
    1.4241  -11.2771    0.0000 C   0  0  0  0  0  0  0  0  0  0  0  0
    2.1386   -9.2147    0.0000 C   0  0  0  0  0  0  0  0  0  0  0  0
   -0.0048   -8.8021    0.0000 C   0  0  0  0  0  0  0  0  0  0  0  0
    2.1386  -10.0397    0.0000 C   0  0  0  0  0  0  0  0  0  0  0  0
    1.4241  -12.9270    0.0000 C   0  0  0  0  0  0  0  0  0  0  0  0
    0.7096  -11.6895    0.0000 C   0  0  0  0  0  0  0  0  0  0  0  0
    2.1386  -11.6895    0.0000 C   0  0  0  0  0  0  0  0  0  0  0  0
   -0.7193   -9.2147    0.0000 C   0  0  0  0  0  0  0  0  0  0  0  0
    0.7096  -12.5145    0.0000 C   0  0  0  0  0  0  0  0  0  0  0  0
    2.1386  -12.5145    0.0000 C   0  0  0  0  0  0  0  0  0  0  0  0
   -0.0048   -7.9772    0.0000 C   0  0  0  0  0  0  0  0  0  0  0  0
   -1.4338   -8.8021    0.0000 C   0  0  0  0  0  0  0  0  0  0  0  0
   -0.7193   -7.5647    0.0000 C   0  0  0  0  0  0  0  0  0  0  0  0
   -1.4338   -7.9772    0.0000 C   0  0  0  0  0  0  0  0  0  0  0  0
    3.5674   -9.2147    0.0000 C   0  0  0  0  0  0  0  0  0  0  0  0
    2.8529   -7.9772    0.0000 C   0  0  0  0  0  0  0  0  0  0  0  0
    1.4241  -14.5770    0.0000 C   0  0  0  0  0  0  0  0  0  0  0  0
    4.2818   -8.8021    0.0000 C   0  0  0  0  0  0  0  0  0  0  0  0
   -2.8626   -8.8021    0.0000 C   0  0  0  0  0  0  0  0  0  0  0  0
   -3.5770   -9.2147    0.0000 C   0  0  3  0  0  0  0  0  0  0  0  0
    4.9963   -9.2147    0.0000 C   0  0  0  0  0  0  0  0  0  0  0  0
   -4.2915   -8.8021    0.0000 C   0  0  0  0  0  0  0  0  0  0  0  0
    5.7108   -9.6271    0.0000 C   0  0  0  0  0  0  0  0  0  0  0  0
   -5.7204   -8.8021    0.0000 C   0  0  0  0  0  0  0  0  0  0  0  0
  1  3  2  0  0  0  0
  1  4  2  0  0  0  0
  1 16  1  0  0  0  0
  1 28  1  0  0  0  0
  2 23  1  0  0  0  0
  2 30  1  0  0  0  0
  5 31  1  0  0  0  0
  6 10  1  0  0  0  0
  6 11  2  0  0  0  0
  7 11  1  0  0  0  0
  7 13  2  0  0  0  0
  8 13  1  0  0  0  0
  8 26  1  0  0  0  0
  8 27  1  0  0  0  0
  9 33  1  0  0  0  0
  9 35  1  0  0  0  0
 10 12  1  0  0  0  0
 10 15  2  0  0  0  0
 11 14  1  0  0  0  0
 12 17  2  0  0  0  0
 12 18  1  0  0  0  0
 13 15  1  0  0  0  0
 14 19  2  0  0  0  0
 14 22  1  0  0  0  0
 16 20  2  0  0  0  0
 16 21  1  0  0  0  0
 17 20  1  0  0  0  0
 18 21  2  0  0  0  0
 19 23  1  0  0  0  0
 22 24  2  0  0  0  0
 23 25  2  0  0  0  0
 24 25  1  0  0  0  0
 26 29  1  0  0  0  0
 29 32  1  0  0  0  0
 30 31  1  0  0  0  0
 31 33  1  0  0  0  0
 32 34  3  0  0  0  0
M  END
> <PUBCHEM_COMPOUND_ID_TYPE>
0

> <PUBCHEM_TOTAL_CHARGE>
0

> <PUBCHEM_SUBSTANCE_ID>
310939702

> <PUBCHEM_SUBSTANCE_VERSION>
1

> <PUBCHEM_EXT_DATASOURCE_NAME>
4488

> <PUBCHEM_EXT_DATASOURCE_REGID>
SCHEMBL16117632

> <PUBCHEM_SUBSTANCE_COMMENT>
InChI=1S/C26H30N4O4S/c1-5-6-14-30(3)25-16-24(19-10-12-23(13-11-19)35(4,32)33)28-26(29-25)20-8-7-9-22(15-20)34-18-21(31)17-27-2/h1,7-13,15-16,21,27,31H,6,14,17-18H2,2-4H3
InChIKey=PWRQNDKNRKOEHD-UHFFFAOYSA-N

> <PUBCHEM_SUBSTANCE_SYNONYM>
SCHEMBL16117632

> <PUBCHEM_XREF_EXT_ID>
SCHEMBL16117632

> <PUBCHEM_EXT_DATASOURCE_URL>
https://www.surechembl.org/

> <PUBCHEM_EXT_SUBSTANCE_URL>
https://www.surechembl.org/chemical/SCHEMBL16117632

> <PUBCHEM_CID_ASSOCIATIONS>
117606932  1

> <PUBCHEM_COORDINATE_TYPE>
1
3

$$$$
