310943719
  -OEChem-07211613022D

 28 30  0     1  0  0  0  0  0999 V2000
    4.1491    0.6834    0.0000 S   0  0  0  0  0  0  0  0  0  0  0  0
    3.4413   -0.0488    0.0000 O   0  0  0  0  0  0  0  0  0  0  0  0
    4.8691   -0.0366    0.0000 O   0  0  0  0  0  0  0  0  0  0  0  0
   -2.4162   -1.3179    0.0000 N   0  0  3  0  0  0  0  0  0  0  0  0
    3.2705    1.1959    0.0000 N   0  0  0  0  0  0  0  0  0  0  0  0
   -4.1857   -0.7811    0.0000 N   0  0  3  0  0  0  0  0  0  0  0  0
   -0.2929    1.7817    0.0000 N   0  0  0  0  0  0  0  0  0  0  0  0
    0.4393   -0.4759    0.0000 C   0  0  0  0  0  0  0  0  0  0  0  0
    1.1348   -0.0610    0.0000 C   0  0  0  0  0  0  0  0  0  0  0  0
   -0.2929   -0.0732    0.0000 C   0  0  0  0  0  0  0  0  0  0  0  0
   -0.9885   -1.2935    0.0000 C   0  0  0  0  0  0  0  0  0  0  0  0
   -0.9885   -0.4881    0.0000 C   0  0  0  0  0  0  0  0  0  0  0  0
    0.4393   -1.2935    0.0000 C   0  0  0  0  0  0  0  0  0  0  0  0
    2.5504    0.7811    0.0000 C   0  0  0  0  0  0  0  0  0  0  0  0
    1.1471    0.7689    0.0000 C   0  0  0  0  0  0  0  0  0  0  0  0
    1.8549   -0.4637    0.0000 C   0  0  0  0  0  0  0  0  0  0  0  0
   -0.2807   -1.7085    0.0000 C   0  0  0  0  0  0  0  0  0  0  0  0
    1.8549    1.1715    0.0000 C   0  0  0  0  0  0  0  0  0  0  0  0
    2.5504   -0.0610    0.0000 C   0  0  0  0  0  0  0  0  0  0  0  0
   -1.6963   -1.7207    0.0000 C   0  0  0  0  0  0  0  0  0  0  0  0
   -0.2929    0.9518    0.0000 C   0  0  0  0  0  0  0  0  0  0  0  0
   -3.0875   -1.7817    0.0000 C   0  0  0  0  0  0  0  0  0  0  0  0
   -2.3553   -0.5003    0.0000 C   0  0  0  0  0  0  0  0  0  0  0  0
   -3.8807   -1.5376    0.0000 C   0  0  0  0  0  0  0  0  0  0  0  0
   -2.9532    0.0610    0.0000 C   0  0  0  0  0  0  0  0  0  0  0  0
    5.0156    1.1959    0.0000 C   0  0  0  0  0  0  0  0  0  0  0  0
   -3.7709   -0.0610    0.0000 C   0  0  0  0  0  0  0  0  0  0  0  0
   -5.0156   -0.7932    0.0000 C   0  0  0  0  0  0  0  0  0  0  0  0
  1  2  2  0  0  0  0
  1  3  2  0  0  0  0
  1  5  1  0  0  0  0
  1 26  1  0  0  0  0
  4 20  1  0  0  0  0
  4 22  1  0  0  0  0
  4 23  1  0  0  0  0
  5 14  1  0  0  0  0
  6 24  1  0  0  0  0
  6 27  1  0  0  0  0
  6 28  1  0  0  0  0
  7 21  3  0  0  0  0
  8  9  1  0  0  0  0
  8 10  2  0  0  0  0
  8 13  1  0  0  0  0
  9 15  2  0  0  0  0
  9 16  1  0  0  0  0
 10 12  1  0  0  0  0
 10 21  1  0  0  0  0
 11 12  2  0  0  0  0
 11 17  1  0  0  0  0
 11 20  1  0  0  0  0
 13 17  2  0  0  0  0
 14 18  2  0  0  0  0
 14 19  1  0  0  0  0
 15 18  1  0  0  0  0
 16 19  2  0  0  0  0
 22 24  1  0  0  0  0
 23 25  1  0  0  0  0
 25 27  1  0  0  0  0
M  END
> <PUBCHEM_COMPOUND_ID_TYPE>
0

> <PUBCHEM_TOTAL_CHARGE>
0

> <PUBCHEM_SUBSTANCE_ID>
310943719

> <PUBCHEM_SUBSTANCE_VERSION>
1

> <PUBCHEM_EXT_DATASOURCE_NAME>
4488

> <PUBCHEM_EXT_DATASOURCE_REGID>
SCHEMBL16121787

> <PUBCHEM_SUBSTANCE_COMMENT>
InChI=1S/C21H26N4O2S/c1-24-10-3-11-25(13-12-24)16-17-4-9-21(19(14-17)15-22)18-5-7-20(8-6-18)23-28(2,26)27/h4-9,14,23H,3,10-13,16H2,1-2H3
InChIKey=SPDNZCLQCMBMLC-UHFFFAOYSA-N

> <PUBCHEM_SUBSTANCE_SYNONYM>
SCHEMBL16121787

> <PUBCHEM_XREF_EXT_ID>
SCHEMBL16121787

> <PUBCHEM_EXT_DATASOURCE_URL>
https://www.surechembl.org/

> <PUBCHEM_EXT_SUBSTANCE_URL>
https://www.surechembl.org/chemical/SCHEMBL16121787

> <PUBCHEM_CID_ASSOCIATIONS>
117610089  1

> <PUBCHEM_COORDINATE_TYPE>
1
3

$$$$
