310948343
  -OEChem-07211613022D

 18 20  0     1  0  0  0  0  0999 V2000
   -2.9871    0.5665    0.0000 Br  0  0  0  0  0  0  0  0  0  0  0  0
    0.2404   -0.9614    0.0000 S   0  0  0  0  0  0  0  0  0  0  0  0
    0.8755   -1.5108    0.0000 O   0  0  0  0  0  0  0  0  0  0  0  0
    0.0858   -1.7683    0.0000 O   0  0  0  0  0  0  0  0  0  0  0  0
    0.7381   -0.2747    0.0000 N   0  0  3  0  0  0  0  0  0  0  0  0
   -0.5494   -0.6695    0.0000 C   0  0  0  0  0  0  0  0  0  0  0  0
   -0.5323    0.1545    0.0000 C   0  0  0  0  0  0  0  0  0  0  0  0
    0.2404    0.4120    0.0000 C   0  0  0  0  0  0  0  0  0  0  0  0
   -1.2360   -1.0815    0.0000 C   0  0  0  0  0  0  0  0  0  0  0  0
   -1.2704    0.5665    0.0000 C   0  0  0  0  0  0  0  0  0  0  0  0
    1.5794   -0.2747    0.0000 C   0  0  0  0  0  0  0  0  0  0  0  0
   -1.9742    0.1717    0.0000 C   0  0  0  0  0  0  0  0  0  0  0  0
   -1.9742   -0.6867    0.0000 C   0  0  0  0  0  0  0  0  0  0  0  0
    1.9914    0.4807    0.0000 C   0  0  0  0  0  0  0  0  0  0  0  0
    1.6825    1.2360    0.0000 C   0  0  0  0  0  0  0  0  0  0  0  0
    2.8154    0.5665    0.0000 C   0  0  0  0  0  0  0  0  0  0  0  0
    2.2833    1.7683    0.0000 C   0  0  0  0  0  0  0  0  0  0  0  0
    2.9871    1.3734    0.0000 C   0  0  0  0  0  0  0  0  0  0  0  0
  1 12  1  0  0  0  0
  2  3  2  0  0  0  0
  2  4  2  0  0  0  0
  2  5  1  0  0  0  0
  2  6  1  0  0  0  0
  5  8  1  0  0  0  0
  5 11  1  0  0  0  0
  6  7  1  0  0  0  0
  6  9  2  0  0  0  0
  7  8  1  0  0  0  0
  7 10  2  0  0  0  0
  9 13  1  0  0  0  0
 10 12  1  0  0  0  0
 11 14  1  0  0  0  0
 12 13  2  0  0  0  0
 14 15  1  0  0  0  0
 14 16  1  0  0  0  0
 15 17  1  0  0  0  0
 16 18  1  0  0  0  0
 17 18  1  0  0  0  0
M  END
> <PUBCHEM_COMPOUND_ID_TYPE>
0

> <PUBCHEM_TOTAL_CHARGE>
0

> <PUBCHEM_SUBSTANCE_ID>
310948343

> <PUBCHEM_SUBSTANCE_VERSION>
1

> <PUBCHEM_EXT_DATASOURCE_NAME>
4488

> <PUBCHEM_EXT_DATASOURCE_REGID>
SCHEMBL16126521

> <PUBCHEM_SUBSTANCE_COMMENT>
InChI=1S/C13H16BrNO2S/c14-12-5-6-13-11(7-12)9-15(18(13,16)17)8-10-3-1-2-4-10/h5-7,10H,1-4,8-9H2
InChIKey=VJCIYWMNNXIZOM-UHFFFAOYSA-N

> <PUBCHEM_SUBSTANCE_SYNONYM>
SCHEMBL16126521

> <PUBCHEM_XREF_EXT_ID>
SCHEMBL16126521

> <PUBCHEM_EXT_DATASOURCE_URL>
https://www.surechembl.org/

> <PUBCHEM_EXT_SUBSTANCE_URL>
https://www.surechembl.org/chemical/SCHEMBL16126521

> <PUBCHEM_CID_ASSOCIATIONS>
117613907  1

> <PUBCHEM_COORDINATE_TYPE>
1
3

$$$$
