310949297
  -OEChem-07211613022D

 22 24  0     1  0  0  0  0  0999 V2000
   -2.8748    0.1032    0.0000 O   0  0  0  0  0  0  0  0  0  0  0  0
   -2.3440   -1.1352    0.0000 O   0  0  0  0  0  0  0  0  0  0  0  0
    2.8060   -0.2605    0.0000 O   0  0  0  0  0  0  0  0  0  0  0  0
    2.1965   -1.5184    0.0000 O   0  0  0  0  0  0  0  0  0  0  0  0
    0.0737   -0.0639    0.0000 C   0  0  3  0  0  0  0  0  0  0  0  0
   -0.7224    0.1524    0.0000 C   0  0  3  0  0  0  0  0  0  0  0  0
    0.4669    0.6438    0.0000 C   0  0  3  0  0  0  0  0  0  0  0  0
   -0.3391    0.8697    0.0000 C   0  0  3  0  0  0  0  0  0  0  0  0
   -1.5184   -0.0737    0.0000 C   0  0  0  0  0  0  0  0  0  0  0  0
   -0.6929    1.5184    0.0000 C   0  0  0  0  0  0  0  0  0  0  0  0
   -1.0762    0.6536    0.0000 C   0  0  0  0  0  0  0  0  0  0  0  0
    0.6438   -0.6831    0.0000 C   0  0  0  0  0  0  0  0  0  0  0  0
    1.3710   -0.3587    0.0000 C   0  0  0  0  0  0  0  0  0  0  0  0
    1.3121    0.4669    0.0000 C   0  0  0  0  0  0  0  0  0  0  0  0
   -2.2359   -0.3391    0.0000 C   0  0  0  0  0  0  0  0  0  0  0  0
    2.1474   -0.6831    0.0000 C   0  0  0  0  0  0  0  0  0  0  0  0
   -3.5922   -0.1916    0.0000 C   0  0  0  0  0  0  0  0  0  0  0  0
    3.5333   -0.6143    0.0000 C   0  0  0  0  0  0  0  0  0  0  0  0
   -4.2114    0.2703    0.0000 C   0  0  0  0  0  0  0  0  0  0  0  0
    4.1819   -0.1720    0.0000 C   0  0  0  0  0  0  0  0  0  0  0  0
   -4.9191   -0.1032    0.0000 C   0  0  0  0  0  0  0  0  0  0  0  0
    4.9191   -0.5848    0.0000 C   0  0  0  0  0  0  0  0  0  0  0  0
  1 15  1  0  0  0  0
  1 17  1  0  0  0  0
  2 15  2  0  0  0  0
  3 16  1  0  0  0  0
  3 18  1  0  0  0  0
  4 16  2  0  0  0  0
  5  6  1  0  0  0  0
  5  7  1  0  0  0  0
  5 12  1  0  0  0  0
  6  9  1  0  0  0  0
  6 10  1  0  0  0  0
  7  8  1  0  0  0  0
  7 14  1  0  0  0  0
  8 10  1  0  0  0  0
  8 11  1  0  0  0  0
  9 11  2  0  0  0  0
  9 15  1  0  0  0  0
 12 13  1  0  0  0  0
 13 14  2  0  0  0  0
 13 16  1  0  0  0  0
 17 19  1  0  0  0  0
 18 20  1  0  0  0  0
 19 21  2  0  0  0  0
 20 22  2  0  0  0  0
M  END
> <PUBCHEM_COMPOUND_ID_TYPE>
0

> <PUBCHEM_TOTAL_CHARGE>
0

> <PUBCHEM_SUBSTANCE_ID>
310949297

> <PUBCHEM_SUBSTANCE_VERSION>
1

> <PUBCHEM_EXT_DATASOURCE_NAME>
4488

> <PUBCHEM_EXT_DATASOURCE_REGID>
SCHEMBL16127487

> <PUBCHEM_SUBSTANCE_COMMENT>
InChI=1S/C18H20O4/c1-3-5-21-17(19)12-9-13-11-7-15(14(13)10-12)16(8-11)18(20)22-6-4-2/h3-4,8-9,11,13-15H,1-2,5-7,10H2
InChIKey=AAYIJDXIGPINPH-UHFFFAOYSA-N

> <PUBCHEM_SUBSTANCE_SYNONYM>
SCHEMBL16127487

> <PUBCHEM_XREF_EXT_ID>
SCHEMBL16127487

> <PUBCHEM_EXT_DATASOURCE_URL>
https://www.surechembl.org/

> <PUBCHEM_EXT_SUBSTANCE_URL>
https://www.surechembl.org/chemical/SCHEMBL16127487

> <PUBCHEM_CID_ASSOCIATIONS>
117614781  1

> <PUBCHEM_COORDINATE_TYPE>
1
3

$$$$
