310932670
  -OEChem-07211613022D

 30 33  0     1  0  0  0  0  0999 V2000
    2.5713    0.2260    0.0000 O   0  0  0  0  0  0  0  0  0  0  0  0
    2.5713    1.6549    0.0000 O   0  0  0  0  0  0  0  0  0  0  0  0
   -0.3630    0.9414    0.0000 N   0  0  0  0  0  0  0  0  0  0  0  0
    1.3338    0.9404    0.0000 N   0  0  0  0  0  0  0  0  0  0  0  0
   -1.6005    1.6558    0.0000 N   0  0  0  0  0  0  0  0  0  0  0  0
   -1.6005    0.2269    0.0000 N   0  0  0  0  0  0  0  0  0  0  0  0
    0.1716    1.8673    0.0000 C   0  0  3  0  0  0  0  0  0  0  0  0
    0.1716    0.0136    0.0000 C   0  0  3  0  0  0  0  0  0  0  0  0
   -1.1880    0.9414    0.0000 C   0  0  0  0  0  0  0  0  0  0  0  0
   -0.4734    0.5279    0.0000 C   0  0  0  0  0  0  0  0  0  0  0  0
   -0.4734    1.3529    0.0000 C   0  0  0  0  0  0  0  0  0  0  0  0
    0.9759    1.6838    0.0000 C   0  0  0  0  0  0  0  0  0  0  0  0
    0.9759    0.1972    0.0000 C   0  0  0  0  0  0  0  0  0  0  0  0
    2.1588    0.9404    0.0000 C   0  0  0  0  0  0  0  0  0  0  0  0
   -2.4255    1.6558    0.0000 C   0  0  0  0  0  0  0  0  0  0  0  0
   -2.4255    0.2269    0.0000 C   0  0  0  0  0  0  0  0  0  0  0  0
   -2.8380    0.9414    0.0000 C   0  0  0  0  0  0  0  0  0  0  0  0
    3.3963    0.2260    0.0000 C   0  0  0  0  0  0  0  0  0  0  0  0
   -3.6630    0.9414    0.0000 C   0  0  0  0  0  0  0  0  0  0  0  0
   -4.0755    1.6558    0.0000 C   0  0  0  0  0  0  0  0  0  0  0  0
    3.8088    0.9404    0.0000 C   0  0  0  0  0  0  0  0  0  0  0  0
    4.2213    0.2260    0.0000 C   0  0  0  0  0  0  0  0  0  0  0  0
    3.8088   -0.4885    0.0000 C   0  0  0  0  0  0  0  0  0  0  0  0
   -3.6630    2.3703    0.0000 C   0  0  0  0  0  0  0  0  0  0  0  0
   -4.9005    1.6558    0.0000 C   0  0  0  0  0  0  0  0  0  0  0  0
   -4.0755    3.0848    0.0000 C   0  0  0  0  0  0  0  0  0  0  0  0
   -5.3130    2.3703    0.0000 C   0  0  0  0  0  0  0  0  0  0  0  0
   -4.9005    3.0848    0.0000 C   0  0  0  0  0  0  0  0  0  0  0  0
   -0.0120    2.6716    0.0000 H   0  0  0  0  0  0  0  0  0  0  0  0
   -0.0120   -0.7908    0.0000 H   0  0  0  0  0  0  0  0  0  0  0  0
  1 14  1  0  0  0  0
  1 18  1  0  0  0  0
  2 14  2  0  0  0  0
  3  7  1  0  0  0  0
  3  8  1  0  0  0  0
  3  9  1  0  0  0  0
  4 12  1  0  0  0  0
  4 13  1  0  0  0  0
  4 14  1  0  0  0  0
  5  9  2  0  0  0  0
  5 15  1  0  0  0  0
  6  9  1  0  0  0  0
  6 16  2  0  0  0  0
  7 11  1  0  0  0  0
  7 12  1  0  0  0  0
  7 29  1  1  0  0  0
  8 10  1  0  0  0  0
  8 13  1  0  0  0  0
  8 30  1  1  0  0  0
 10 11  1  0  0  0  0
 15 17  2  0  0  0  0
 16 17  1  0  0  0  0
 17 19  1  0  0  0  0
 18 21  1  0  0  0  0
 18 22  1  0  0  0  0
 18 23  1  0  0  0  0
 19 20  1  0  0  0  0
 20 24  2  0  0  0  0
 20 25  1  0  0  0  0
 24 26  1  0  0  0  0
 25 27  2  0  0  0  0
 26 28  2  0  0  0  0
 27 28  1  0  0  0  0
M  END
> <PUBCHEM_COMPOUND_ID_TYPE>
0

> <PUBCHEM_TOTAL_CHARGE>
0

> <PUBCHEM_SUBSTANCE_ID>
310932670

> <PUBCHEM_SUBSTANCE_VERSION>
1

> <PUBCHEM_EXT_DATASOURCE_NAME>
4488

> <PUBCHEM_EXT_DATASOURCE_REGID>
SCHEMBL16110050

> <PUBCHEM_SUBSTANCE_COMMENT>
InChI=1S/C22H28N4O2/c1-22(2,3)28-21(27)25-14-18-9-10-19(15-25)26(18)20-23-12-17(13-24-20)11-16-7-5-4-6-8-16/h4-8,12-13,18-19H,9-11,14-15H2,1-3H3/t18-,19+
InChIKey=HIKIIQLKYYOHIK-KDURUIRLSA-N

> <PUBCHEM_SUBSTANCE_SYNONYM>
SCHEMBL16110050

> <PUBCHEM_XREF_EXT_ID>
SCHEMBL16110050

> <PUBCHEM_EXT_DATASOURCE_URL>
https://www.surechembl.org/

> <PUBCHEM_EXT_SUBSTANCE_URL>
https://www.surechembl.org/chemical/SCHEMBL16110050

> <PUBCHEM_CID_ASSOCIATIONS>
117601185  1

> <PUBCHEM_COORDINATE_TYPE>
1
3

> <PUBCHEM_BONDANNOTATIONS>
7  29  5
8  30  5

$$$$
