310934560
  -OEChem-07211613022D

 32 35  0     1  0  0  0  0  0999 V2000
    5.3430   -0.7072    0.0000 S   0  0  0  0  0  0  0  0  0  0  0  0
    2.4751    0.0000    0.0000 O   0  0  0  0  0  0  0  0  0  0  0  0
    1.6501   -1.4143    0.0000 O   0  0  0  0  0  0  0  0  0  0  0  0
    1.6501   -2.8286    0.0000 O   0  0  0  0  0  0  0  0  0  0  0  0
    0.9036   -7.1502    0.0000 O   0  0  0  0  0  0  0  0  0  0  0  0
    3.3001   -1.4143    0.0000 N   0  0  0  0  0  0  0  0  0  0  0  0
    2.4751   -1.4143    0.0000 N   0  0  0  0  0  0  0  0  0  0  0  0
    3.6930   -0.7072    0.0000 C   0  0  0  0  0  0  0  0  0  0  0  0
    2.8680   -0.7072    0.0000 C   0  0  0  0  0  0  0  0  0  0  0  0
    4.1251   -1.4143    0.0000 C   0  0  0  0  0  0  0  0  0  0  0  0
    4.1251    0.0000    0.0000 C   0  0  0  0  0  0  0  0  0  0  0  0
    3.6930   -2.1215    0.0000 C   0  0  0  0  0  0  0  0  0  0  0  0
    3.3001   -2.8286    0.0000 C   0  0  0  0  0  0  0  0  0  0  0  0
    2.5144   -4.2823    0.0000 C   0  0  0  0  0  0  0  0  0  0  0  0
    4.9109   -1.4143    0.0000 C   0  0  0  0  0  0  0  0  0  0  0  0
    4.9109    0.0000    0.0000 C   0  0  0  0  0  0  0  0  0  0  0  0
    2.0822   -4.9894    0.0000 C   0  0  0  0  0  0  0  0  0  0  0  0
    2.4751   -2.8680    0.0000 C   0  0  0  0  0  0  0  0  0  0  0  0
    3.6930   -3.5358    0.0000 C   0  0  0  0  0  0  0  0  0  0  0  0
    2.0822   -3.5751    0.0000 C   0  0  0  0  0  0  0  0  0  0  0  0
    3.3394   -4.2823    0.0000 C   0  0  0  0  0  0  0  0  0  0  0  0
    1.2179   -2.1215    0.0000 C   0  0  3  0  0  0  0  0  0  0  0  0
    2.5144   -5.6966    0.0000 C   0  0  0  0  0  0  0  0  0  0  0  0
    1.2965   -5.0287    0.0000 C   0  0  0  0  0  0  0  0  0  0  0  0
    1.2965   -6.4430    0.0000 C   0  0  0  0  0  0  0  0  0  0  0  0
    2.1215   -6.4038    0.0000 C   0  0  0  0  0  0  0  0  0  0  0  0
    0.9036   -5.7359    0.0000 C   0  0  0  0  0  0  0  0  0  0  0  0
    0.4322   -2.1215    0.0000 C   0  0  0  0  0  0  0  0  0  0  0  0
    1.2179   -3.5358    0.0000 C   0  0  0  0  0  0  0  0  0  0  0  0
    0.0000   -2.8286    0.0000 C   0  0  0  0  0  0  0  0  0  0  0  0
    0.4322   -3.5358    0.0000 C   0  0  0  0  0  0  0  0  0  0  0  0
    1.3357   -7.8573    0.0000 C   0  0  0  0  0  0  0  0  0  0  0  0
  1 15  1  0  0  0  0
  1 16  1  0  0  0  0
  2  9  2  0  0  0  0
  3  7  1  0  0  0  0
  3 22  1  0  0  0  0
  4 22  1  0  0  0  0
  4 29  1  0  0  0  0
  5 25  1  0  0  0  0
  5 32  1  0  0  0  0
  6  8  1  0  0  0  0
  6 12  1  0  0  0  0
  7  9  1  0  0  0  0
  8  9  1  0  0  0  0
  8 10  1  0  0  0  0
  8 11  1  0  0  0  0
 10 15  1  0  0  0  0
 11 16  1  0  0  0  0
 12 13  1  0  0  0  0
 13 18  2  0  0  0  0
 13 19  1  0  0  0  0
 14 17  1  0  0  0  0
 14 20  2  0  0  0  0
 14 21  1  0  0  0  0
 17 23  2  0  0  0  0
 17 24  1  0  0  0  0
 18 20  1  0  0  0  0
 19 21  2  0  0  0  0
 22 28  1  0  0  0  0
 23 26  1  0  0  0  0
 24 27  2  0  0  0  0
 25 26  2  0  0  0  0
 25 27  1  0  0  0  0
 28 30  1  0  0  0  0
 29 31  1  0  0  0  0
 30 31  1  0  0  0  0
M  END
> <PUBCHEM_COMPOUND_ID_TYPE>
0

> <PUBCHEM_TOTAL_CHARGE>
0

> <PUBCHEM_SUBSTANCE_ID>
310934560

> <PUBCHEM_SUBSTANCE_VERSION>
1

> <PUBCHEM_EXT_DATASOURCE_NAME>
4488

> <PUBCHEM_EXT_DATASOURCE_REGID>
SCHEMBL16112051

> <PUBCHEM_SUBSTANCE_COMMENT>
InChI=1S/C25H32N2O4S/c1-29-22-11-9-21(10-12-22)20-7-5-19(6-8-20)18-26-25(13-16-32-17-14-25)24(28)27-31-23-4-2-3-15-30-23/h5-12,23,26H,2-4,13-18H2,1H3,(H,27,28)
InChIKey=SXPXZHULRIELFO-UHFFFAOYSA-N

> <PUBCHEM_SUBSTANCE_SYNONYM>
SCHEMBL16112051

> <PUBCHEM_XREF_EXT_ID>
SCHEMBL16112051

> <PUBCHEM_EXT_DATASOURCE_URL>
https://www.surechembl.org/

> <PUBCHEM_EXT_SUBSTANCE_URL>
https://www.surechembl.org/chemical/SCHEMBL16112051

> <PUBCHEM_CID_ASSOCIATIONS>
117602751  1

> <PUBCHEM_COORDINATE_TYPE>
1
3

$$$$
