310941958
  -OEChem-07211613022D

 24 26  0     1  0  0  0  0  0999 V2000
   -3.9992    1.9297    0.0000 Cl  0  0  0  0  0  0  0  0  0  0  0  0
   -2.2793   -0.5453    0.0000 O   0  0  0  0  0  0  0  0  0  0  0  0
    0.6992   -2.0555    0.0000 N   0  0  0  0  0  0  0  0  0  0  0  0
    1.1886   -1.3983    0.0000 N   0  0  0  0  0  0  0  0  0  0  0  0
    1.7898    0.2097    0.0000 N   0  0  3  0  0  0  0  0  0  0  0  0
    3.1463    1.9297    0.0000 N   0  0  0  0  0  0  0  0  0  0  0  0
   -0.0979   -0.9369    0.0000 C   0  0  0  0  0  0  0  0  0  0  0  0
   -0.0979   -1.7479    0.0000 C   0  0  0  0  0  0  0  0  0  0  0  0
    0.6852   -0.6992    0.0000 C   0  0  0  0  0  0  0  0  0  0  0  0
   -0.8110   -0.5314    0.0000 C   0  0  0  0  0  0  0  0  0  0  0  0
   -1.5381   -0.9229    0.0000 C   0  0  0  0  0  0  0  0  0  0  0  0
   -0.8390   -2.1394    0.0000 C   0  0  0  0  0  0  0  0  0  0  0  0
   -1.5381   -1.7479    0.0000 C   0  0  0  0  0  0  0  0  0  0  0  0
    0.9788    0.0839    0.0000 C   0  0  0  0  0  0  0  0  0  0  0  0
   -2.2653    0.3076    0.0000 C   0  0  0  0  0  0  0  0  0  0  0  0
   -2.9925    0.7271    0.0000 C   0  0  0  0  0  0  0  0  0  0  0  0
   -1.5381    0.7131    0.0000 C   0  0  0  0  0  0  0  0  0  0  0  0
   -2.9785    1.5381    0.0000 C   0  0  0  0  0  0  0  0  0  0  0  0
    2.0695    1.0208    0.0000 C   0  0  0  0  0  0  0  0  0  0  0  0
   -1.5381    1.5242    0.0000 C   0  0  0  0  0  0  0  0  0  0  0  0
   -2.2793    1.9297    0.0000 C   0  0  0  0  0  0  0  0  0  0  0  0
    2.3632   -0.3636    0.0000 C   0  0  0  0  0  0  0  0  0  0  0  0
    2.8806    1.1886    0.0000 C   0  0  0  0  0  0  0  0  0  0  0  0
    3.9992    2.1394    0.0000 C   0  0  0  0  0  0  0  0  0  0  0  0
  1 18  1  0  0  0  0
  2 11  1  0  0  0  0
  2 15  1  0  0  0  0
  3  4  1  0  0  0  0
  3  8  1  0  0  0  0
  4  9  2  0  0  0  0
  5 14  1  0  0  0  0
  5 19  1  0  0  0  0
  5 22  1  0  0  0  0
  6 23  1  0  0  0  0
  6 24  1  0  0  0  0
  7  8  1  0  0  0  0
  7  9  1  0  0  0  0
  7 10  2  0  0  0  0
  8 12  2  0  0  0  0
  9 14  1  0  0  0  0
 10 11  1  0  0  0  0
 11 13  2  0  0  0  0
 12 13  1  0  0  0  0
 15 16  2  0  0  0  0
 15 17  1  0  0  0  0
 16 18  1  0  0  0  0
 17 20  2  0  0  0  0
 18 21  2  0  0  0  0
 19 23  1  0  0  0  0
 20 21  1  0  0  0  0
M  END
> <PUBCHEM_COMPOUND_ID_TYPE>
0

> <PUBCHEM_TOTAL_CHARGE>
0

> <PUBCHEM_SUBSTANCE_ID>
310941958

> <PUBCHEM_SUBSTANCE_VERSION>
1

> <PUBCHEM_EXT_DATASOURCE_NAME>
4488

> <PUBCHEM_EXT_DATASOURCE_REGID>
SCHEMBL16119992

> <PUBCHEM_SUBSTANCE_COMMENT>
InChI=1S/C18H21ClN4O/c1-20-8-9-23(2)12-18-16-11-15(6-7-17(16)21-22-18)24-14-5-3-4-13(19)10-14/h3-7,10-11,20H,8-9,12H2,1-2H3,(H,21,22)
InChIKey=MKXDLELZSIIPEQ-UHFFFAOYSA-N

> <PUBCHEM_SUBSTANCE_SYNONYM>
SCHEMBL16119992

> <PUBCHEM_XREF_EXT_ID>
SCHEMBL16119992

> <PUBCHEM_EXT_DATASOURCE_URL>
https://www.surechembl.org/

> <PUBCHEM_EXT_SUBSTANCE_URL>
https://www.surechembl.org/chemical/SCHEMBL16119992

> <PUBCHEM_CID_ASSOCIATIONS>
117608675  1

> <PUBCHEM_COORDINATE_TYPE>
1
3

$$$$
