310944758
  -OEChem-07211613022D

 25 26  0     1  0  0  0  0  0999 V2000
   -4.0241    0.7974    0.0000 Cl  0  0  0  0  0  0  0  0  0  0  0  0
   -4.0241   -0.8469    0.0000 Cl  0  0  0  0  0  0  0  0  0  0  0  0
    0.4141    1.6257    0.0000 O   0  0  0  0  0  0  0  0  0  0  0  0
   -1.0075   -0.8469    0.0000 O   0  0  0  0  0  0  0  0  0  0  0  0
    3.9871   -0.4389    0.0000 O   0  0  0  0  0  0  0  0  0  0  0  0
    2.5653    2.0337    0.0000 O   0  0  0  0  0  0  0  0  0  0  0  0
    1.1436    0.3895    0.0000 N   0  0  0  0  0  0  0  0  0  0  0  0
    2.5901   -0.4265    0.0000 N   0  0  0  0  0  0  0  0  0  0  0  0
   -0.9952    0.8098    0.0000 N   0  0  0  0  0  0  0  0  0  0  0  0
    1.8482    0.8098    0.0000 C   0  0  3  0  0  0  0  0  0  0  0  0
    0.4141    0.7974    0.0000 C   0  0  0  0  0  0  0  0  0  0  0  0
   -1.7122    0.4018    0.0000 C   0  0  0  0  0  0  0  0  0  0  0  0
    2.5777    0.3895    0.0000 C   0  0  0  0  0  0  0  0  0  0  0  0
   -1.7246   -0.4265    0.0000 C   0  0  0  0  0  0  0  0  0  0  0  0
    1.1559   -0.4389    0.0000 C   0  0  0  0  0  0  0  0  0  0  0  0
   -3.1340    0.3895    0.0000 C   0  0  0  0  0  0  0  0  0  0  0  0
    1.8730   -0.8469    0.0000 C   0  0  0  0  0  0  0  0  0  0  0  0
   -3.1464   -0.4265    0.0000 C   0  0  0  0  0  0  0  0  0  0  0  0
   -2.4169    0.7974    0.0000 C   0  0  0  0  0  0  0  0  0  0  0  0
   -0.2782    0.3895    0.0000 C   0  0  0  0  0  0  0  0  0  0  0  0
   -2.4293   -0.8345    0.0000 C   0  0  0  0  0  0  0  0  0  0  0  0
    3.2824   -0.8469    0.0000 C   0  0  0  0  0  0  0  0  0  0  0  0
    1.8730    1.6381    0.0000 C   0  0  0  0  0  0  0  0  0  0  0  0
    3.2948   -1.6628    0.0000 C   0  0  0  0  0  0  0  0  0  0  0  0
    4.0241   -2.0337    0.0000 C   0  0  0  0  0  0  0  0  0  0  0  0
  1 16  1  0  0  0  0
  2 18  1  0  0  0  0
  3 11  2  0  0  0  0
  4 14  1  0  0  0  0
  5 22  2  0  0  0  0
  6 23  1  0  0  0  0
  7 10  1  0  0  0  0
  7 11  1  0  0  0  0
  7 15  1  0  0  0  0
  8 13  1  0  0  0  0
  8 17  1  0  0  0  0
  8 22  1  0  0  0  0
  9 12  1  0  0  0  0
  9 20  1  0  0  0  0
 10 13  1  0  0  0  0
 10 23  1  0  0  0  0
 11 20  1  0  0  0  0
 12 14  1  0  0  0  0
 12 19  2  0  0  0  0
 14 21  2  0  0  0  0
 15 17  1  0  0  0  0
 16 18  2  0  0  0  0
 16 19  1  0  0  0  0
 18 21  1  0  0  0  0
 22 24  1  0  0  0  0
 24 25  2  0  0  0  0
M  END
> <PUBCHEM_COMPOUND_ID_TYPE>
0

> <PUBCHEM_TOTAL_CHARGE>
0

> <PUBCHEM_SUBSTANCE_ID>
310944758

> <PUBCHEM_SUBSTANCE_VERSION>
1

> <PUBCHEM_EXT_DATASOURCE_NAME>
4488

> <PUBCHEM_EXT_DATASOURCE_REGID>
SCHEMBL16122837

> <PUBCHEM_SUBSTANCE_COMMENT>
InChI=1S/C16H19Cl2N3O4/c1-2-15(24)20-3-4-21(10(8-20)9-22)16(25)7-19-13-5-11(17)12(18)6-14(13)23/h2,5-6,10,19,22-23H,1,3-4,7-9H2
InChIKey=AZPIGCFYUZDNAL-UHFFFAOYSA-N

> <PUBCHEM_SUBSTANCE_SYNONYM>
SCHEMBL16122837

> <PUBCHEM_XREF_EXT_ID>
SCHEMBL16122837

> <PUBCHEM_EXT_DATASOURCE_URL>
https://www.surechembl.org/

> <PUBCHEM_EXT_SUBSTANCE_URL>
https://www.surechembl.org/chemical/SCHEMBL16122837

> <PUBCHEM_CID_ASSOCIATIONS>
117610974  1

> <PUBCHEM_COORDINATE_TYPE>
1
3

$$$$
