310943952
  -OEChem-07211613022D

 43 51  0     1  0  0  0  0  0999 V2000
    0.8508    3.7641    0.0000 F   0  0  0  0  0  0  0  0  0  0  0  0
   -0.6273    1.2891    0.0000 N   0  0  0  0  0  0  0  0  0  0  0  0
   -1.3321    3.2828    0.0000 N   0  0  0  0  0  0  0  0  0  0  0  0
    3.0164    3.2828    0.0000 N   0  0  0  0  0  0  0  0  0  0  0  0
    0.0258   -1.6328    0.0000 C   0  0  3  0  0  0  0  0  0  0  0  0
   -0.4211   -0.9281    0.0000 C   0  0  0  0  0  0  0  0  0  0  0  0
   -0.5414   -2.2516    0.0000 C   0  0  0  0  0  0  0  0  0  0  0  0
    0.7476   -1.2203    0.0000 C   0  0  0  0  0  0  0  0  0  0  0  0
    0.4383   -2.3375    0.0000 C   0  0  0  0  0  0  0  0  0  0  0  0
   -1.2461   -1.0828    0.0000 C   0  0  0  0  0  0  0  0  0  0  0  0
   -1.3321   -1.9249    0.0000 C   0  0  0  0  0  0  0  0  0  0  0  0
    1.4695   -1.5984    0.0000 C   0  0  0  0  0  0  0  0  0  0  0  0
    1.2461   -2.4234    0.0000 C   0  0  0  0  0  0  0  0  0  0  0  0
   -0.7305    0.4812    0.0000 C   0  0  0  0  0  0  0  0  0  0  0  0
   -0.1633   -0.1203    0.0000 C   0  0  0  0  0  0  0  0  0  0  0  0
   -1.5383    0.3094    0.0000 C   0  0  0  0  0  0  0  0  0  0  0  0
   -1.7617   -0.4812    0.0000 C   0  0  0  0  0  0  0  0  0  0  0  0
   -1.9336    1.0140    0.0000 C   0  0  0  0  0  0  0  0  0  0  0  0
   -0.4555   -3.0594    0.0000 C   0  0  0  0  0  0  0  0  0  0  0  0
    0.7649   -0.3953    0.0000 C   0  0  0  0  0  0  0  0  0  0  0  0
    0.0258   -3.0594    0.0000 C   0  0  0  0  0  0  0  0  0  0  0  0
   -1.4180    1.6328    0.0000 C   0  0  0  0  0  0  0  0  0  0  0  0
   -1.9852   -2.4234    0.0000 C   0  0  0  0  0  0  0  0  0  0  0  0
    2.1742   -1.2031    0.0000 C   0  0  0  0  0  0  0  0  0  0  0  0
    1.6586   -3.0937    0.0000 C   0  0  0  0  0  0  0  0  0  0  0  0
    0.1117    1.7188    0.0000 C   0  0  0  0  0  0  0  0  0  0  0  0
   -1.1258   -3.5406    0.0000 C   0  0  0  0  0  0  0  0  0  0  0  0
    1.4351    0.0000    0.0000 C   0  0  0  0  0  0  0  0  0  0  0  0
    0.4211   -3.7468    0.0000 C   0  0  0  0  0  0  0  0  0  0  0  0
   -1.8820   -3.2312    0.0000 C   0  0  0  0  0  0  0  0  0  0  0  0
   -2.7414    1.2031    0.0000 C   0  0  0  0  0  0  0  0  0  0  0  0
    2.2086   -0.4125    0.0000 C   0  0  0  0  0  0  0  0  0  0  0  0
    1.2461   -3.7641    0.0000 C   0  0  0  0  0  0  0  0  0  0  0  0
   -1.6586    2.4062    0.0000 C   0  0  0  0  0  0  0  0  0  0  0  0
    0.1117    2.5438    0.0000 C   0  0  0  0  0  0  0  0  0  0  0  0
    0.8680    1.3234    0.0000 C   0  0  0  0  0  0  0  0  0  0  0  0
    0.8336    2.9562    0.0000 C   0  0  0  0  0  0  0  0  0  0  0  0
   -3.0164    1.9766    0.0000 C   0  0  0  0  0  0  0  0  0  0  0  0
   -2.4664    2.5781    0.0000 C   0  0  0  0  0  0  0  0  0  0  0  0
    1.5726    2.5438    0.0000 C   0  0  0  0  0  0  0  0  0  0  0  0
    1.5555    1.7015    0.0000 C   0  0  0  0  0  0  0  0  0  0  0  0
   -0.6273    2.9391    0.0000 C   0  0  0  0  0  0  0  0  0  0  0  0
    2.2945    2.9391    0.0000 C   0  0  0  0  0  0  0  0  0  0  0  0
  1 37  1  0  0  0  0
  2 14  1  0  0  0  0
  2 22  1  0  0  0  0
  2 26  1  0  0  0  0
  3 42  3  0  0  0  0
  4 43  3  0  0  0  0
  5  6  1  0  0  0  0
  5  7  1  0  0  0  0
  5  8  1  0  0  0  0
  5  9  1  0  0  0  0
  6 10  1  0  0  0  0
  6 15  2  0  0  0  0
  7 11  2  0  0  0  0
  7 19  1  0  0  0  0
  8 12  2  0  0  0  0
  8 20  1  0  0  0  0
  9 13  1  0  0  0  0
  9 21  2  0  0  0  0
 10 11  1  0  0  0  0
 10 17  2  0  0  0  0
 11 23  1  0  0  0  0
 12 13  1  0  0  0  0
 12 24  1  0  0  0  0
 13 25  2  0  0  0  0
 14 15  1  0  0  0  0
 14 16  2  0  0  0  0
 16 17  1  0  0  0  0
 16 18  1  0  0  0  0
 18 22  2  0  0  0  0
 18 31  1  0  0  0  0
 19 27  2  0  0  0  0
 20 28  2  0  0  0  0
 21 29  1  0  0  0  0
 22 34  1  0  0  0  0
 23 30  2  0  0  0  0
 24 32  2  0  0  0  0
 25 33  1  0  0  0  0
 26 35  2  0  0  0  0
 26 36  1  0  0  0  0
 27 30  1  0  0  0  0
 28 32  1  0  0  0  0
 29 33  2  0  0  0  0
 31 38  2  0  0  0  0
 34 39  2  0  0  0  0
 35 37  1  0  0  0  0
 35 42  1  0  0  0  0
 36 41  2  0  0  0  0
 37 40  2  0  0  0  0
 38 39  1  0  0  0  0
 40 41  1  0  0  0  0
 40 43  1  0  0  0  0
M  END
> <PUBCHEM_COMPOUND_ID_TYPE>
0

> <PUBCHEM_TOTAL_CHARGE>
0

> <PUBCHEM_SUBSTANCE_ID>
310943952

> <PUBCHEM_SUBSTANCE_VERSION>
1

> <PUBCHEM_EXT_DATASOURCE_NAME>
4488

> <PUBCHEM_EXT_DATASOURCE_REGID>
SCHEMBL16122023

> <PUBCHEM_SUBSTANCE_COMMENT>
InChI=1S/C39H20FN3/c40-38-23(21-41)17-18-36(30(38)22-42)43-35-16-8-4-12-27(35)29-19-28-26-11-3-7-15-33(26)39(34(28)20-37(29)43)31-13-5-1-9-24(31)25-10-2-6-14-32(25)39/h1-20H
InChIKey=GXDBWTINIRZXLB-UHFFFAOYSA-N

> <PUBCHEM_SUBSTANCE_SYNONYM>
SCHEMBL16122023

> <PUBCHEM_XREF_EXT_ID>
SCHEMBL16122023

> <PUBCHEM_EXT_DATASOURCE_URL>
https://www.surechembl.org/

> <PUBCHEM_EXT_SUBSTANCE_URL>
https://www.surechembl.org/chemical/SCHEMBL16122023

> <PUBCHEM_CID_ASSOCIATIONS>
117610260  1

> <PUBCHEM_COORDINATE_TYPE>
1
3

$$$$
