310947199
  -OEChem-07211613022D

 24 23  0     1  0  0  0  0  0999 V2000
   -6.4302    0.6187    0.0000 O   0  0  0  0  0  0  0  0  0  0  0  0
   -7.1447   -0.6187    0.0000 O   0  0  0  0  0  0  0  0  0  0  0  0
    6.4302    0.6187    0.0000 O   0  0  0  0  0  0  0  0  0  0  0  0
    7.1447   -0.6187    0.0000 O   0  0  0  0  0  0  0  0  0  0  0  0
   -0.7145   -0.2062    0.0000 C   0  0  3  0  0  0  0  0  0  0  0  0
   -1.4289   -0.6187    0.0000 C   0  0  0  0  0  0  0  0  0  0  0  0
    0.0000   -0.6187    0.0000 C   0  0  0  0  0  0  0  0  0  0  0  0
   -2.1434   -0.2062    0.0000 C   0  0  0  0  0  0  0  0  0  0  0  0
    0.7145   -0.2062    0.0000 C   0  0  0  0  0  0  0  0  0  0  0  0
   -2.8579   -0.6187    0.0000 C   0  0  0  0  0  0  0  0  0  0  0  0
    1.4289   -0.6187    0.0000 C   0  0  0  0  0  0  0  0  0  0  0  0
   -3.5724   -0.2062    0.0000 C   0  0  0  0  0  0  0  0  0  0  0  0
   -6.4302   -0.2062    0.0000 C   0  0  0  0  0  0  0  0  0  0  0  0
   -4.2868   -0.6187    0.0000 C   0  0  0  0  0  0  0  0  0  0  0  0
   -5.7158   -0.6187    0.0000 C   0  0  0  0  0  0  0  0  0  0  0  0
   -5.0013   -0.2062    0.0000 C   0  0  0  0  0  0  0  0  0  0  0  0
    6.4302   -0.2062    0.0000 C   0  0  0  0  0  0  0  0  0  0  0  0
    2.1434   -0.2062    0.0000 C   0  0  0  0  0  0  0  0  0  0  0  0
    5.7158   -0.6187    0.0000 C   0  0  0  0  0  0  0  0  0  0  0  0
    5.0013   -0.2062    0.0000 C   0  0  0  0  0  0  0  0  0  0  0  0
   -0.7145    0.6187    0.0000 C   0  0  0  0  0  0  0  0  0  0  0  0
    2.8579   -0.6187    0.0000 C   0  0  0  0  0  0  0  0  0  0  0  0
    4.2868   -0.6187    0.0000 C   0  0  0  0  0  0  0  0  0  0  0  0
    3.5724   -0.2062    0.0000 C   0  0  0  0  0  0  0  0  0  0  0  0
  1 13  2  0  0  0  0
  2 13  1  0  0  0  0
  3 17  2  0  0  0  0
  4 17  1  0  0  0  0
  5  6  1  0  0  0  0
  5  7  1  0  0  0  0
  5 21  1  0  0  0  0
  6  8  1  0  0  0  0
  7  9  2  0  0  0  0
  8 10  1  0  0  0  0
  9 11  1  0  0  0  0
 10 12  1  0  0  0  0
 11 18  1  0  0  0  0
 12 14  1  0  0  0  0
 13 15  1  0  0  0  0
 14 16  1  0  0  0  0
 15 16  1  0  0  0  0
 17 19  1  0  0  0  0
 18 22  1  0  0  0  0
 19 20  1  0  0  0  0
 20 23  1  0  0  0  0
 22 24  1  0  0  0  0
 23 24  1  0  0  0  0
M  END
> <PUBCHEM_COMPOUND_ID_TYPE>
0

> <PUBCHEM_TOTAL_CHARGE>
0

> <PUBCHEM_SUBSTANCE_ID>
310947199

> <PUBCHEM_SUBSTANCE_VERSION>
1

> <PUBCHEM_EXT_DATASOURCE_NAME>
4488

> <PUBCHEM_EXT_DATASOURCE_REGID>
SCHEMBL16125353

> <PUBCHEM_SUBSTANCE_COMMENT>
InChI=1S/C20H36O4/c1-18(15-11-7-5-9-13-17-20(23)24)14-10-6-3-2-4-8-12-16-19(21)22/h10,14,18H,2-9,11-13,15-17H2,1H3,(H,21,22)(H,23,24)/b14-10+
InChIKey=DLWPWTHCXRLMDR-GXDHUFHOSA-N

> <PUBCHEM_SUBSTANCE_SYNONYM>
SCHEMBL16125353

> <PUBCHEM_XREF_EXT_ID>
SCHEMBL16125353

> <PUBCHEM_EXT_DATASOURCE_URL>
https://www.surechembl.org/

> <PUBCHEM_EXT_SUBSTANCE_URL>
https://www.surechembl.org/chemical/SCHEMBL16125353

> <PUBCHEM_CID_ASSOCIATIONS>
117613022  1

> <PUBCHEM_COORDINATE_TYPE>
1
3

$$$$
