310932649
  -OEChem-07211613022D

 17 18  0     1  0  0  0  0  0999 V2000
    1.1476    0.0000    0.0000 O   0  0  0  0  0  0  0  0  0  0  0  0
    2.2796   -1.9809    0.0000 O   0  0  0  0  0  0  0  0  0  0  0  0
    3.0185   -0.7232    0.0000 O   0  0  0  0  0  0  0  0  0  0  0  0
    1.5722   -0.7232    0.0000 C   0  0  3  0  0  0  0  0  0  0  0  0
    0.7232   -0.7232    0.0000 C   0  0  3  0  0  0  0  0  0  0  0  0
    2.2796   -1.1476    0.0000 C   0  0  0  0  0  0  0  0  0  0  0  0
    1.4149   -0.8175    0.0000 C   0  0  0  0  0  0  0  0  0  0  0  0
    0.8647   -0.8175    0.0000 C   0  0  0  0  0  0  0  0  0  0  0  0
    0.0000   -1.1476    0.0000 C   0  0  0  0  0  0  0  0  0  0  0  0
    1.2734   -0.7232    0.0000 C   0  0  0  0  0  0  0  0  0  0  0  0
    1.0062   -0.7232    0.0000 C   0  0  0  0  0  0  0  0  0  0  0  0
    3.0185   -2.4054    0.0000 C   0  0  0  0  0  0  0  0  0  0  0  0
    1.1634   -0.8175    0.0000 C   0  0  0  0  0  0  0  0  0  0  0  0
    0.0000   -1.9809    0.0000 C   0  0  0  0  0  0  0  0  0  0  0  0
    2.5783   -3.1443    0.0000 C   0  0  0  0  0  0  0  0  0  0  0  0
    3.7260   -2.8141    0.0000 C   0  0  0  0  0  0  0  0  0  0  0  0
    3.4273   -1.6822    0.0000 C   0  0  0  0  0  0  0  0  0  0  0  0
  1  4  1  0  0  0  0
  1  5  1  0  0  0  0
  2  6  1  0  0  0  0
  2 12  1  0  0  0  0
  3  6  2  0  0  0  0
  4  5  1  0  0  0  0
  4  6  1  0  0  0  0
  4  7  1  0  0  0  0
  5  8  1  0  0  0  0
  5  9  1  0  0  0  0
  7 10  1  0  0  0  0
  8 11  1  0  0  0  0
  9 14  1  0  0  0  0
 10 13  1  0  0  0  0
 11 13  1  0  0  0  0
 12 15  1  0  0  0  0
 12 16  1  0  0  0  0
 12 17  1  0  0  0  0
M  END
> <PUBCHEM_COMPOUND_ID_TYPE>
0

> <PUBCHEM_TOTAL_CHARGE>
0

> <PUBCHEM_SUBSTANCE_ID>
310932649

> <PUBCHEM_SUBSTANCE_VERSION>
1

> <PUBCHEM_EXT_DATASOURCE_NAME>
4488

> <PUBCHEM_EXT_DATASOURCE_REGID>
SCHEMBL16110028

> <PUBCHEM_SUBSTANCE_COMMENT>
InChI=1S/C14H24O3/c1-5-13-9-7-6-8-10-14(13,17-13)11(15)16-12(2,3)4/h5-10H2,1-4H3
InChIKey=PWCKQEBNKXNHAK-UHFFFAOYSA-N

> <PUBCHEM_SUBSTANCE_SYNONYM>
SCHEMBL16110028

> <PUBCHEM_XREF_EXT_ID>
SCHEMBL16110028

> <PUBCHEM_EXT_DATASOURCE_URL>
https://www.surechembl.org/

> <PUBCHEM_EXT_SUBSTANCE_URL>
https://www.surechembl.org/chemical/SCHEMBL16110028

> <PUBCHEM_CID_ASSOCIATIONS>
117601166  1

> <PUBCHEM_COORDINATE_TYPE>
1
3

$$$$
