310938105
  -OEChem-07211613022D

 19 20  0     1  0  0  0  0  0999 V2000
   -0.7317    1.4045    0.0000 Br  0  0  0  0  0  0  0  0  0  0  0  0
    2.1262    1.4045    0.0000 F   0  0  0  0  0  0  0  0  0  0  0  0
   -0.7709   -1.1475    0.0000 O   0  0  0  0  0  0  0  0  0  0  0  0
    2.1262   -0.2455    0.0000 O   0  0  0  0  0  0  0  0  0  0  0  0
    2.8407   -1.4830    0.0000 O   0  0  0  0  0  0  0  0  0  0  0  0
   -0.1035   -2.3035    0.0000 N   0  0  0  0  0  0  0  0  0  0  0  0
    0.6973   -1.0705    0.0000 C   0  0  3  0  0  0  0  0  0  0  0  0
    0.6973   -0.2455    0.0000 C   0  0  0  0  0  0  0  0  0  0  0  0
   -0.0172   -1.4830    0.0000 C   0  0  0  0  0  0  0  0  0  0  0  0
   -0.0172    0.1670    0.0000 C   0  0  0  0  0  0  0  0  0  0  0  0
    1.4117    0.1670    0.0000 C   0  0  0  0  0  0  0  0  0  0  0  0
    1.4117   -1.4830    0.0000 C   0  0  0  0  0  0  0  0  0  0  0  0
   -1.3230   -1.7606    0.0000 C   0  0  0  0  0  0  0  0  0  0  0  0
   -0.0172    0.9920    0.0000 C   0  0  0  0  0  0  0  0  0  0  0  0
    1.4117    0.9920    0.0000 C   0  0  0  0  0  0  0  0  0  0  0  0
   -0.9105   -2.4751    0.0000 C   0  0  0  0  0  0  0  0  0  0  0  0
    0.6973    1.4045    0.0000 C   0  0  0  0  0  0  0  0  0  0  0  0
    2.1262   -1.0705    0.0000 C   0  0  0  0  0  0  0  0  0  0  0  0
   -2.1435   -1.6743    0.0000 C   0  0  0  0  0  0  0  0  0  0  0  0
  1 14  1  0  0  0  0
  2 15  1  0  0  0  0
  3  9  1  0  0  0  0
  3 13  1  0  0  0  0
  4 18  2  0  0  0  0
  5 18  1  0  0  0  0
  6  9  2  0  0  0  0
  6 16  1  0  0  0  0
  7  8  1  0  0  0  0
  7  9  1  0  0  0  0
  7 12  1  0  0  0  0
  8 10  1  0  0  0  0
  8 11  2  0  0  0  0
 10 14  2  0  0  0  0
 11 15  1  0  0  0  0
 12 18  1  0  0  0  0
 13 16  2  0  0  0  0
 13 19  1  0  0  0  0
 14 17  1  0  0  0  0
 15 17  2  0  0  0  0
M  END
> <PUBCHEM_COMPOUND_ID_TYPE>
0

> <PUBCHEM_TOTAL_CHARGE>
0

> <PUBCHEM_SUBSTANCE_ID>
310938105

> <PUBCHEM_SUBSTANCE_VERSION>
1

> <PUBCHEM_EXT_DATASOURCE_NAME>
4488

> <PUBCHEM_EXT_DATASOURCE_REGID>
SCHEMBL16115951

> <PUBCHEM_SUBSTANCE_COMMENT>
InChI=1S/C13H11BrFNO3/c1-7-6-16-13(19-7)11(5-12(17)18)8-2-9(14)4-10(15)3-8/h2-4,6,11H,5H2,1H3,(H,17,18)
InChIKey=KHYSSCIRGSRZTM-UHFFFAOYSA-N

> <PUBCHEM_SUBSTANCE_SYNONYM>
SCHEMBL16115951

> <PUBCHEM_XREF_EXT_ID>
SCHEMBL16115951

> <PUBCHEM_EXT_DATASOURCE_URL>
https://www.surechembl.org/

> <PUBCHEM_EXT_SUBSTANCE_URL>
https://www.surechembl.org/chemical/SCHEMBL16115951

> <PUBCHEM_CID_ASSOCIATIONS>
117605666  1

> <PUBCHEM_COORDINATE_TYPE>
1
3

$$$$
