310939044
  -OEChem-07211613022D

 22 21  0     1  0  0  0  0  0999 V2000
   -0.4829    0.4802    0.0000 O   0  0  0  0  0  0  0  0  0  0  0  0
   -1.1974    1.7177    0.0000 O   0  0  0  0  0  0  0  0  0  0  0  0
   -0.9460   -1.7177    0.0000 O   0  0  0  0  0  0  0  0  0  0  0  0
   -1.9119   -0.3448    0.0000 N   0  0  0  0  0  0  0  0  0  0  0  0
   -1.9119    0.4802    0.0000 C   0  0  3  0  0  0  0  0  0  0  0  0
   -1.1974    0.8927    0.0000 C   0  0  0  0  0  0  0  0  0  0  0  0
   -2.6263    0.8927    0.0000 C   0  0  0  0  0  0  0  0  0  0  0  0
   -0.9460   -0.8927    0.0000 C   0  0  0  0  0  0  0  0  0  0  0  0
   -3.3408    0.4802    0.0000 C   0  0  0  0  0  0  0  0  0  0  0  0
   -0.2316   -0.4802    0.0000 C   0  0  0  0  0  0  0  0  0  0  0  0
    0.2316    0.8927    0.0000 C   0  0  0  0  0  0  0  0  0  0  0  0
    0.4829   -0.8927    0.0000 C   0  0  0  0  0  0  0  0  0  0  0  0
   -4.0553    0.8927    0.0000 C   0  0  0  0  0  0  0  0  0  0  0  0
   -3.3408   -0.3448    0.0000 C   0  0  0  0  0  0  0  0  0  0  0  0
    0.9460    0.4802    0.0000 C   0  0  0  0  0  0  0  0  0  0  0  0
    1.1974   -0.4802    0.0000 C   0  0  0  0  0  0  0  0  0  0  0  0
    1.9119   -0.8927    0.0000 C   0  0  0  0  0  0  0  0  0  0  0  0
    1.6605    0.8927    0.0000 C   0  0  0  0  0  0  0  0  0  0  0  0
    2.6263   -0.4802    0.0000 C   0  0  0  0  0  0  0  0  0  0  0  0
    2.3750    0.4802    0.0000 C   0  0  0  0  0  0  0  0  0  0  0  0
    3.3408   -0.8927    0.0000 C   0  0  0  0  0  0  0  0  0  0  0  0
    4.0553   -0.4802    0.0000 C   0  0  0  0  0  0  0  0  0  0  0  0
  1  6  1  0  0  0  0
  1 11  1  0  0  0  0
  2  6  2  0  0  0  0
  3  8  2  0  0  0  0
  4  5  1  0  0  0  0
  4  8  1  0  0  0  0
  5  6  1  0  0  0  0
  5  7  1  0  0  0  0
  7  9  1  0  0  0  0
  8 10  1  0  0  0  0
  9 13  1  0  0  0  0
  9 14  1  0  0  0  0
 10 12  1  0  0  0  0
 11 15  1  0  0  0  0
 12 16  1  0  0  0  0
 15 18  1  0  0  0  0
 16 17  1  0  0  0  0
 17 19  1  0  0  0  0
 18 20  1  0  0  0  0
 19 21  1  0  0  0  0
 21 22  1  0  0  0  0
M  END
> <PUBCHEM_COMPOUND_ID_TYPE>
0

> <PUBCHEM_TOTAL_CHARGE>
0

> <PUBCHEM_SUBSTANCE_ID>
310939044

> <PUBCHEM_SUBSTANCE_VERSION>
1

> <PUBCHEM_EXT_DATASOURCE_NAME>
4488

> <PUBCHEM_EXT_DATASOURCE_REGID>
SCHEMBL16116963

> <PUBCHEM_SUBSTANCE_COMMENT>
InChI=1S/C18H35NO3/c1-5-7-9-10-11-12-17(20)19-16(14-15(3)4)18(21)22-13-8-6-2/h15-16H,5-14H2,1-4H3,(H,19,20)
InChIKey=APURROJXEZLARG-UHFFFAOYSA-N

> <PUBCHEM_SUBSTANCE_SYNONYM>
SCHEMBL16116963

> <PUBCHEM_XREF_EXT_ID>
SCHEMBL16116963

> <PUBCHEM_EXT_DATASOURCE_URL>
https://www.surechembl.org/

> <PUBCHEM_EXT_SUBSTANCE_URL>
https://www.surechembl.org/chemical/SCHEMBL16116963

> <PUBCHEM_CID_ASSOCIATIONS>
117606414  1

> <PUBCHEM_COORDINATE_TYPE>
1
3

$$$$
