310934834
  -OEChem-07211613022D

 31 34  0     1  0  0  0  0  0999 V2000
    1.8396    0.0000    0.0000 Br  0  0  0  0  0  0  0  0  0  0  0  0
    2.1643   -9.1982    0.0000 O   0  0  0  0  0  0  0  0  0  0  0  0
    0.7034   -9.1982    0.0000 O   0  0  0  0  0  0  0  0  0  0  0  0
    1.4609   -6.3305    0.0000 N   0  0  0  0  0  0  0  0  0  0  0  0
    0.7575   -1.8396    0.0000 N   0  0  0  0  0  0  0  0  0  0  0  0
    1.4609   -7.9538    0.0000 N   0  0  0  0  0  0  0  0  0  0  0  0
    2.1643   -1.8396    0.0000 N   0  0  0  0  0  0  0  0  0  0  0  0
    0.1623   -1.2445    0.0000 N   0  0  0  0  0  0  0  0  0  0  0  0
    1.4609   -1.4068    0.0000 C   0  0  0  0  0  0  0  0  0  0  0  0
    1.4609   -5.5189    0.0000 C   0  0  0  0  0  0  0  0  0  0  0  0
    1.4609   -3.0300    0.0000 C   0  0  0  0  0  0  0  0  0  0  0  0
    1.4609   -3.8957    0.0000 C   0  0  0  0  0  0  0  0  0  0  0  0
    0.7034   -6.7634    0.0000 C   0  0  3  0  0  0  0  0  0  0  0  0
    2.1643   -6.7634    0.0000 C   0  0  3  0  0  0  0  0  0  0  0  0
    0.7575   -2.6513    0.0000 C   0  0  0  0  0  0  0  0  0  0  0  0
    1.2985   -0.5952    0.0000 C   0  0  0  0  0  0  0  0  0  0  0  0
    2.1643   -7.5750    0.0000 C   0  0  0  0  0  0  0  0  0  0  0  0
    0.7034   -7.5750    0.0000 C   0  0  0  0  0  0  0  0  0  0  0  0
    2.1643   -2.5971    0.0000 C   0  0  0  0  0  0  0  0  0  0  0  0
    0.7034   -5.0860    0.0000 C   0  0  0  0  0  0  0  0  0  0  0  0
    2.1643   -5.0860    0.0000 C   0  0  0  0  0  0  0  0  0  0  0  0
    0.7034   -4.2745    0.0000 C   0  0  0  0  0  0  0  0  0  0  0  0
    2.1643   -4.2745    0.0000 C   0  0  0  0  0  0  0  0  0  0  0  0
    1.4609   -8.7653    0.0000 C   0  0  0  0  0  0  0  0  0  0  0  0
    0.4870   -0.4870    0.0000 C   0  0  0  0  0  0  0  0  0  0  0  0
    0.0000   -6.3305    0.0000 C   0  0  0  0  0  0  0  0  0  0  0  0
    2.8677   -6.3305    0.0000 C   0  0  0  0  0  0  0  0  0  0  0  0
    2.1643  -10.0098    0.0000 C   0  0  0  0  0  0  0  0  0  0  0  0
    1.2985  -10.0098    0.0000 C   0  0  0  0  0  0  0  0  0  0  0  0
    2.1643  -10.8214    0.0000 C   0  0  0  0  0  0  0  0  0  0  0  0
    2.9759  -10.0098    0.0000 C   0  0  0  0  0  0  0  0  0  0  0  0
  1 16  1  0  0  0  0
  2 24  1  0  0  0  0
  2 28  1  0  0  0  0
  3 24  2  0  0  0  0
  4 10  1  0  0  0  0
  4 13  1  0  0  0  0
  4 14  1  0  0  0  0
  5  8  1  0  0  0  0
  5  9  1  0  0  0  0
  5 15  1  0  0  0  0
  6 17  1  0  0  0  0
  6 18  1  0  0  0  0
  6 24  1  0  0  0  0
  7  9  1  0  0  0  0
  7 19  2  0  0  0  0
  8 25  2  0  0  0  0
  9 16  2  0  0  0  0
 10 20  2  0  0  0  0
 10 21  1  0  0  0  0
 11 12  1  0  0  0  0
 11 15  2  0  0  0  0
 11 19  1  0  0  0  0
 12 22  2  0  0  0  0
 12 23  1  0  0  0  0
 13 18  1  0  0  0  0
 13 26  1  0  0  0  0
 14 17  1  0  0  0  0
 14 27  1  0  0  0  0
 16 25  1  0  0  0  0
 20 22  1  0  0  0  0
 21 23  2  0  0  0  0
 28 29  1  0  0  0  0
 28 30  1  0  0  0  0
 28 31  1  0  0  0  0
M  END
> <PUBCHEM_COMPOUND_ID_TYPE>
0

> <PUBCHEM_TOTAL_CHARGE>
0

> <PUBCHEM_SUBSTANCE_ID>
310934834

> <PUBCHEM_SUBSTANCE_VERSION>
1

> <PUBCHEM_EXT_DATASOURCE_NAME>
4488

> <PUBCHEM_EXT_DATASOURCE_REGID>
SCHEMBL16112341

> <PUBCHEM_SUBSTANCE_COMMENT>
InChI=1S/C23H28BrN5O2/c1-15-12-27(22(30)31-23(3,4)5)13-16(2)29(15)19-8-6-17(7-9-19)18-10-25-21-20(24)11-26-28(21)14-18/h6-11,14-16H,12-13H2,1-5H3
InChIKey=KNGSSPUSICSZSU-UHFFFAOYSA-N

> <PUBCHEM_SUBSTANCE_SYNONYM>
SCHEMBL16112341

> <PUBCHEM_XREF_EXT_ID>
SCHEMBL16112341

> <PUBCHEM_EXT_DATASOURCE_URL>
https://www.surechembl.org/

> <PUBCHEM_EXT_SUBSTANCE_URL>
https://www.surechembl.org/chemical/SCHEMBL16112341

> <PUBCHEM_CID_ASSOCIATIONS>
117602974  1

> <PUBCHEM_COORDINATE_TYPE>
1
3

$$$$
