310935584
  -OEChem-07211613022D

 30 33  0     1  0  0  0  0  0999 V2000
    3.7447   -0.9178    0.0000 S   0  0  0  0  0  0  0  0  0  0  0  0
    3.7447    0.0000    0.0000 O   0  0  0  0  0  0  0  0  0  0  0  0
    3.7447   -1.7255    0.0000 O   0  0  0  0  0  0  0  0  0  0  0  0
    3.7447   -3.7814    0.0000 N   0  0  0  0  0  0  0  0  0  0  0  0
    4.9929   -4.4789    0.0000 N   0  0  0  0  0  0  0  0  0  0  0  0
    4.9929   -5.9474    0.0000 N   0  0  0  0  0  0  0  0  0  0  0  0
    2.9370   -0.9178    0.0000 N   0  0  3  0  0  0  0  0  0  0  0  0
    0.4406   -6.6083    0.0000 N   0  0  0  0  0  0  0  0  0  0  0  0
    3.7447   -5.2132    0.0000 C   0  0  0  0  0  0  0  0  0  0  0  0
    4.1485   -5.9474    0.0000 C   0  0  0  0  0  0  0  0  0  0  0  0
    4.1485   -4.4789    0.0000 C   0  0  0  0  0  0  0  0  0  0  0  0
    3.7447   -6.6450    0.0000 C   0  0  0  0  0  0  0  0  0  0  0  0
    2.5332   -5.9107    0.0000 C   0  0  0  0  0  0  0  0  0  0  0  0
    2.9370   -5.2132    0.0000 C   0  0  0  0  0  0  0  0  0  0  0  0
    2.9370   -6.6450    0.0000 C   0  0  0  0  0  0  0  0  0  0  0  0
    1.6888   -5.9107    0.0000 C   0  0  0  0  0  0  0  0  0  0  0  0
    5.4335   -5.2132    0.0000 C   0  0  0  0  0  0  0  0  0  0  0  0
    2.9003   -3.7814    0.0000 C   0  0  0  0  0  0  0  0  0  0  0  0
    4.1485   -3.0838    0.0000 C   0  0  0  0  0  0  0  0  0  0  0  0
    2.9370   -2.3496    0.0000 C   0  0  0  0  0  0  0  0  0  0  0  0
    2.4965   -3.0838    0.0000 C   0  0  0  0  0  0  0  0  0  0  0  0
    3.7447   -2.3496    0.0000 C   0  0  0  0  0  0  0  0  0  0  0  0
    4.1853   -7.3425    0.0000 C   0  0  0  0  0  0  0  0  0  0  0  0
    1.2482   -6.6083    0.0000 C   0  0  0  0  0  0  0  0  0  0  0  0
    1.2482   -5.2132    0.0000 C   0  0  0  0  0  0  0  0  0  0  0  0
    2.5332   -1.6154    0.0000 C   0  0  0  0  0  0  0  0  0  0  0  0
    0.4406   -5.2132    0.0000 C   0  0  0  0  0  0  0  0  0  0  0  0
    0.0000   -5.9107    0.0000 C   0  0  0  0  0  0  0  0  0  0  0  0
    2.5332   -0.1836    0.0000 C   0  0  0  0  0  0  0  0  0  0  0  0
    4.5524   -0.9178    0.0000 C   0  0  0  0  0  0  0  0  0  0  0  0
  1  2  2  0  0  0  0
  1  3  2  0  0  0  0
  1  7  1  0  0  0  0
  1 30  1  0  0  0  0
  4 11  1  0  0  0  0
  4 18  1  0  0  0  0
  4 19  1  0  0  0  0
  5 11  1  0  0  0  0
  5 17  2  0  0  0  0
  6 10  2  0  0  0  0
  6 17  1  0  0  0  0
  7 26  1  0  0  0  0
  7 29  1  0  0  0  0
  8 24  1  0  0  0  0
  8 28  2  0  0  0  0
  9 10  1  0  0  0  0
  9 11  2  0  0  0  0
  9 14  1  0  0  0  0
 10 12  1  0  0  0  0
 12 15  2  0  0  0  0
 12 23  1  0  0  0  0
 13 14  2  0  0  0  0
 13 15  1  0  0  0  0
 13 16  1  0  0  0  0
 16 24  2  0  0  0  0
 16 25  1  0  0  0  0
 18 21  1  0  0  0  0
 19 22  1  0  0  0  0
 20 21  1  0  0  0  0
 20 22  1  0  0  0  0
 20 26  1  0  0  0  0
 25 27  2  0  0  0  0
 27 28  1  0  0  0  0
M  END
> <PUBCHEM_COMPOUND_ID_TYPE>
0

> <PUBCHEM_TOTAL_CHARGE>
0

> <PUBCHEM_SUBSTANCE_ID>
310935584

> <PUBCHEM_SUBSTANCE_VERSION>
1

> <PUBCHEM_EXT_DATASOURCE_NAME>
4488

> <PUBCHEM_EXT_DATASOURCE_REGID>
SCHEMBL16113157

> <PUBCHEM_SUBSTANCE_COMMENT>
InChI=1S/C22H27N5O2S/c1-16-11-19(18-5-4-8-23-13-18)12-20-21(16)24-15-25-22(20)27-9-6-17(7-10-27)14-26(2)30(3,28)29/h4-5,8,11-13,15,17H,6-7,9-10,14H2,1-3H3
InChIKey=JCDNUSNKROBCAQ-UHFFFAOYSA-N

> <PUBCHEM_SUBSTANCE_SYNONYM>
SCHEMBL16113157

> <PUBCHEM_XREF_EXT_ID>
SCHEMBL16113157

> <PUBCHEM_EXT_DATASOURCE_URL>
https://www.surechembl.org/

> <PUBCHEM_EXT_SUBSTANCE_URL>
https://www.surechembl.org/chemical/SCHEMBL16113157

> <PUBCHEM_CID_ASSOCIATIONS>
117603606  1

> <PUBCHEM_COORDINATE_TYPE>
1
3

$$$$
