310932962
  -OEChem-07211613022D

 31 35  0     1  0  0  0  0  0999 V2000
    6.5160   -2.6435    0.0000 O   0  0  0  0  0  0  0  0  0  0  0  0
   -2.3236   -1.4470    0.0000 O   0  0  0  0  0  0  0  0  0  0  0  0
   -2.8334    0.1223    0.0000 O   0  0  0  0  0  0  0  0  0  0  0  0
    3.3855   -0.4908    0.0000 O   0  0  0  0  0  0  0  0  0  0  0  0
    0.0000    0.8772    0.0000 N   0  0  0  0  0  0  0  0  0  0  0  0
    1.7715   -0.8339    0.0000 N   0  0  3  0  0  0  0  0  0  0  0  0
    2.0264   -0.0493    0.0000 N   0  0  0  0  0  0  0  0  0  0  0  0
    3.6826   -1.8885    0.0000 N   0  0  0  0  0  0  0  0  0  0  0  0
    6.9285   -1.3740    0.0000 N   0  0  0  0  0  0  0  0  0  0  0  0
   -0.4125   -0.3923    0.0000 C   0  0  0  0  0  0  0  0  0  0  0  0
    0.4125   -0.3923    0.0000 C   0  0  0  0  0  0  0  0  0  0  0  0
   -0.6674    0.3923    0.0000 C   0  0  0  0  0  0  0  0  0  0  0  0
    0.6674    0.3923    0.0000 C   0  0  0  0  0  0  0  0  0  0  0  0
    0.9645   -1.0054    0.0000 C   0  0  0  0  0  0  0  0  0  0  0  0
   -0.9645   -1.0054    0.0000 C   0  0  0  0  0  0  0  0  0  0  0  0
   -1.4744    0.5638    0.0000 C   0  0  0  0  0  0  0  0  0  0  0  0
   -1.7715   -0.8339    0.0000 C   0  0  0  0  0  0  0  0  0  0  0  0
   -2.0264   -0.0493    0.0000 C   0  0  0  0  0  0  0  0  0  0  0  0
    1.4744    0.5638    0.0000 C   0  0  0  0  0  0  0  0  0  0  0  0
    5.8485   -2.1586    0.0000 C   0  0  0  0  0  0  0  0  0  0  0  0
    6.1035   -1.3740    0.0000 C   0  0  0  0  0  0  0  0  0  0  0  0
    4.4895   -1.7170    0.0000 C   0  0  0  0  0  0  0  0  0  0  0  0
    2.3236   -1.4470    0.0000 C   0  0  0  0  0  0  0  0  0  0  0  0
    3.1305   -1.2755    0.0000 C   0  0  0  0  0  0  0  0  0  0  0  0
    5.0416   -2.3301    0.0000 C   0  0  0  0  0  0  0  0  0  0  0  0
    7.1834   -2.1586    0.0000 C   0  0  0  0  0  0  0  0  0  0  0  0
    5.5514   -0.7609    0.0000 C   0  0  0  0  0  0  0  0  0  0  0  0
    4.7445   -0.9324    0.0000 C   0  0  0  0  0  0  0  0  0  0  0  0
    3.4276   -2.6732    0.0000 C   0  0  0  0  0  0  0  0  0  0  0  0
    7.9680   -2.4135    0.0000 C   0  0  0  0  0  0  0  0  0  0  0  0
   -3.1305   -1.2755    0.0000 C   0  0  0  0  0  0  0  0  0  0  0  0
  1 20  1  0  0  0  0
  1 26  1  0  0  0  0
  2 17  1  0  0  0  0
  2 31  1  0  0  0  0
  3 18  2  0  0  0  0
  4 24  2  0  0  0  0
  5 12  1  0  0  0  0
  5 13  1  0  0  0  0
  6  7  1  0  0  0  0
  6 14  1  0  0  0  0
  6 23  1  0  0  0  0
  7 19  1  0  0  0  0
  8 22  1  0  0  0  0
  8 24  1  0  0  0  0
  8 29  1  0  0  0  0
  9 21  1  0  0  0  0
  9 26  2  0  0  0  0
 10 11  2  0  0  0  0
 10 12  1  0  0  0  0
 10 15  1  0  0  0  0
 11 13  1  0  0  0  0
 11 14  1  0  0  0  0
 12 16  2  0  0  0  0
 13 19  2  0  0  0  0
 15 17  2  0  0  0  0
 16 18  1  0  0  0  0
 17 18  1  0  0  0  0
 20 21  1  0  0  0  0
 20 25  2  0  0  0  0
 21 27  2  0  0  0  0
 22 25  1  0  0  0  0
 22 28  2  0  0  0  0
 23 24  1  0  0  0  0
 26 30  1  0  0  0  0
 27 28  1  0  0  0  0
M  END
> <PUBCHEM_COMPOUND_ID_TYPE>
0

> <PUBCHEM_TOTAL_CHARGE>
0

> <PUBCHEM_SUBSTANCE_ID>
310932962

> <PUBCHEM_SUBSTANCE_VERSION>
1

> <PUBCHEM_EXT_DATASOURCE_NAME>
4488

> <PUBCHEM_EXT_DATASOURCE_REGID>
SCHEMBL16110358

> <PUBCHEM_SUBSTANCE_COMMENT>
InChI=1S/C22H21N5O4/c1-12-24-16-5-4-13(6-20(16)31-12)26(2)22(29)11-27-10-15-14-7-21(30-3)19(28)8-17(14)25-18(15)9-23-27/h4-9,23,25H,10-11H2,1-3H3
InChIKey=CIEWFAADVBXCGE-UHFFFAOYSA-N

> <PUBCHEM_SUBSTANCE_SYNONYM>
SCHEMBL16110358

> <PUBCHEM_XREF_EXT_ID>
SCHEMBL16110358

> <PUBCHEM_EXT_DATASOURCE_URL>
https://www.surechembl.org/

> <PUBCHEM_EXT_SUBSTANCE_URL>
https://www.surechembl.org/chemical/SCHEMBL16110358

> <PUBCHEM_CID_ASSOCIATIONS>
117601439  1

> <PUBCHEM_COORDINATE_TYPE>
1
3

$$$$
