310938114
  -OEChem-07211613022D

 19 19  0     1  0  0  0  0  0999 V2000
   -2.8579    0.0000    0.0000 S   0  0  0  0  0  0  0  0  0  0  0  0
   -3.5724   -1.2375    0.0000 F   0  0  0  0  0  0  0  0  0  0  0  0
   -4.2868   -0.8250    0.0000 F   0  0  0  0  0  0  0  0  0  0  0  0
   -4.2868    0.0000    0.0000 F   0  0  0  0  0  0  0  0  0  0  0  0
   -2.1434    0.4125    0.0000 O   0  0  0  0  0  0  0  0  0  0  0  0
   -2.4454   -0.7145    0.0000 O   0  0  0  0  0  0  0  0  0  0  0  0
   -3.2704    0.7145    0.0000 O   0  0  0  0  0  0  0  0  0  0  0  0
    0.0000    0.0000    0.0000 O   0  0  0  0  0  0  0  0  0  0  0  0
   -0.7145    1.2375    0.0000 O   0  0  0  0  0  0  0  0  0  0  0  0
   -3.5724   -0.4125    0.0000 C   0  0  0  0  0  0  0  0  0  0  0  0
   -1.4290    0.0000    0.0000 C   0  0  3  0  0  0  0  0  0  0  0  0
   -0.7145    0.4125    0.0000 C   0  0  0  0  0  0  0  0  0  0  0  0
   -1.4290   -0.8250    0.0000 C   0  0  0  0  0  0  0  0  0  0  0  0
   -2.1434   -1.2375    0.0000 C   0  0  0  0  0  0  0  0  0  0  0  0
   -2.9403   -1.0240    0.0000 C   0  0  0  0  0  0  0  0  0  0  0  0
   -2.3570   -2.0344    0.0000 C   0  0  0  0  0  0  0  0  0  0  0  0
   -3.1538   -1.8208    0.0000 C   0  0  0  0  0  0  0  0  0  0  0  0
    0.7145    0.4125    0.0000 C   0  0  0  0  0  0  0  0  0  0  0  0
    1.4290    0.0000    0.0000 C   0  0  0  0  0  0  0  0  0  0  0  0
  1  5  1  0  0  0  0
  1  6  2  0  0  0  0
  1  7  2  0  0  0  0
  1 10  1  0  0  0  0
  2 10  1  0  0  0  0
  3 10  1  0  0  0  0
  4 10  1  0  0  0  0
  5 11  1  0  0  0  0
  8 12  1  0  0  0  0
  8 18  1  0  0  0  0
  9 12  2  0  0  0  0
 11 12  1  0  0  0  0
 11 13  1  0  0  0  0
 13 14  1  0  0  0  0
 14 15  1  0  0  0  0
 14 16  1  0  0  0  0
 15 17  1  0  0  0  0
 16 17  1  0  0  0  0
 18 19  1  0  0  0  0
M  END
> <PUBCHEM_COMPOUND_ID_TYPE>
0

> <PUBCHEM_TOTAL_CHARGE>
0

> <PUBCHEM_SUBSTANCE_ID>
310938114

> <PUBCHEM_SUBSTANCE_VERSION>
1

> <PUBCHEM_EXT_DATASOURCE_NAME>
4488

> <PUBCHEM_EXT_DATASOURCE_REGID>
SCHEMBL16115963

> <PUBCHEM_SUBSTANCE_COMMENT>
InChI=1S/C10H15F3O5S/c1-2-17-9(14)8(6-7-4-3-5-7)18-19(15,16)10(11,12)13/h7-8H,2-6H2,1H3
InChIKey=WTXDKCPPJLHOOX-UHFFFAOYSA-N

> <PUBCHEM_SUBSTANCE_SYNONYM>
SCHEMBL16115963

> <PUBCHEM_XREF_EXT_ID>
SCHEMBL16115963

> <PUBCHEM_EXT_DATASOURCE_URL>
https://www.surechembl.org/

> <PUBCHEM_EXT_SUBSTANCE_URL>
https://www.surechembl.org/chemical/SCHEMBL16115963

> <PUBCHEM_CID_ASSOCIATIONS>
117605675  1

> <PUBCHEM_COORDINATE_TYPE>
1
3

$$$$
