310931658
  -OEChem-07211613022D

 26 29  0     1  0  0  0  0  0999 V2000
    3.2782    0.0000    0.0000 O   0  0  0  0  0  0  0  0  0  0  0  0
    4.3854   -1.9322    0.0000 O   0  0  0  0  0  0  0  0  0  0  0  0
    5.1019   -0.7164    0.0000 O   0  0  0  0  0  0  0  0  0  0  0  0
    0.0000   -2.3447    0.0000 O   0  0  0  0  0  0  0  0  0  0  0  0
    3.6907   -0.7164    0.0000 C   0  0  3  0  0  0  0  0  0  0  0  0
    2.8657   -0.7164    0.0000 C   0  0  3  0  0  0  0  0  0  0  0  0
    3.4736   -1.4980    0.0000 C   0  0  0  0  0  0  0  0  0  0  0  0
    4.3854   -1.1072    0.0000 C   0  0  0  0  0  0  0  0  0  0  0  0
    2.1493   -1.1072    0.0000 C   0  0  0  0  0  0  0  0  0  0  0  0
    4.0598   -2.0842    0.0000 C   0  0  0  0  0  0  0  0  0  0  0  0
    2.6704   -1.7151    0.0000 C   0  0  0  0  0  0  0  0  0  0  0  0
    2.1493   -1.9539    0.0000 C   0  0  0  0  0  0  0  0  0  0  0  0
    1.4329   -0.7164    0.0000 C   0  0  0  0  0  0  0  0  0  0  0  0
    5.1019   -2.3447    0.0000 C   0  0  0  0  0  0  0  0  0  0  0  0
    3.8427   -2.8874    0.0000 C   0  0  0  0  0  0  0  0  0  0  0  0
    2.4749   -2.5184    0.0000 C   0  0  0  0  0  0  0  0  0  0  0  0
    1.4329   -2.3447    0.0000 C   0  0  0  0  0  0  0  0  0  0  0  0
    0.7381   -1.1072    0.0000 C   0  0  0  0  0  0  0  0  0  0  0  0
    0.7164   -1.9322    0.0000 C   0  0  0  0  0  0  0  0  0  0  0  0
    3.0394   -3.0828    0.0000 C   0  0  0  0  0  0  0  0  0  0  0  0
    5.8183   -1.9322    0.0000 C   0  0  0  0  0  0  0  0  0  0  0  0
    5.1019   -3.1697    0.0000 C   0  0  0  0  0  0  0  0  0  0  0  0
    6.5130   -2.3447    0.0000 C   0  0  0  0  0  0  0  0  0  0  0  0
    5.8183   -3.5604    0.0000 C   0  0  0  0  0  0  0  0  0  0  0  0
    6.5130   -3.1697    0.0000 C   0  0  0  0  0  0  0  0  0  0  0  0
    0.0000   -3.1697    0.0000 C   0  0  0  0  0  0  0  0  0  0  0  0
  1  5  1  0  0  0  0
  1  6  1  0  0  0  0
  2  8  1  0  0  0  0
  2 14  1  0  0  0  0
  3  8  2  0  0  0  0
  4 19  1  0  0  0  0
  4 26  1  0  0  0  0
  5  6  1  0  0  0  0
  5  7  1  0  0  0  0
  5  8  1  0  0  0  0
  6  9  1  0  0  0  0
  7 10  2  0  0  0  0
  7 11  1  0  0  0  0
  9 12  2  0  0  0  0
  9 13  1  0  0  0  0
 10 15  1  0  0  0  0
 11 16  2  0  0  0  0
 12 17  1  0  0  0  0
 13 18  2  0  0  0  0
 14 21  2  0  0  0  0
 14 22  1  0  0  0  0
 15 20  2  0  0  0  0
 16 20  1  0  0  0  0
 17 19  2  0  0  0  0
 18 19  1  0  0  0  0
 21 23  1  0  0  0  0
 22 24  2  0  0  0  0
 23 25  2  0  0  0  0
 24 25  1  0  0  0  0
M  END
> <PUBCHEM_COMPOUND_ID_TYPE>
0

> <PUBCHEM_TOTAL_CHARGE>
0

> <PUBCHEM_SUBSTANCE_ID>
310931658

> <PUBCHEM_SUBSTANCE_VERSION>
1

> <PUBCHEM_EXT_DATASOURCE_NAME>
4488

> <PUBCHEM_EXT_DATASOURCE_REGID>
SCHEMBL16108984

> <PUBCHEM_SUBSTANCE_COMMENT>
InChI=1S/C22H18O4/c1-24-18-14-12-16(13-15-18)20-22(26-20,17-8-4-2-5-9-17)21(23)25-19-10-6-3-7-11-19/h2-15,20H,1H3
InChIKey=IENWGABUUYKJHJ-UHFFFAOYSA-N

> <PUBCHEM_SUBSTANCE_SYNONYM>
SCHEMBL16108984

> <PUBCHEM_XREF_EXT_ID>
SCHEMBL16108984

> <PUBCHEM_EXT_DATASOURCE_URL>
https://www.surechembl.org/

> <PUBCHEM_EXT_SUBSTANCE_URL>
https://www.surechembl.org/chemical/SCHEMBL16108984

> <PUBCHEM_CID_ASSOCIATIONS>
117600368  1

> <PUBCHEM_COORDINATE_TYPE>
1
3

$$$$
