310946065
  -OEChem-07211613022D

 37 40  0     1  0  0  0  0  0999 V2000
    3.6367    1.0381    0.0000 O   0  0  0  0  0  0  0  0  0  0  0  0
    1.3818    1.0381    0.0000 O   0  0  0  0  0  0  0  0  0  0  0  0
    0.6668    0.6256    0.0000 O   0  0  0  0  0  0  0  0  0  0  0  0
   -0.0481    1.0381    0.0000 O   0  0  0  0  0  0  0  0  0  0  0  0
   -2.9079   -3.1004    0.0000 O   0  0  0  0  0  0  0  0  0  0  0  0
   -2.1930    3.1004    0.0000 O   0  0  0  0  0  0  0  0  0  0  0  0
    1.3818   -0.6119    0.0000 N   0  0  0  0  0  0  0  0  0  0  0  0
   -0.7631   -0.1994    0.0000 N   0  0  0  0  0  0  0  0  0  0  0  0
   -1.4780    1.8768    0.0000 N   0  0  0  0  0  0  0  0  0  0  0  0
    2.8254    1.0655    0.0000 C   0  0  3  0  0  0  0  0  0  0  0  0
    2.1243    0.6531    0.0000 C   0  0  0  0  0  0  0  0  0  0  0  0
    3.2242    0.3781    0.0000 C   0  0  0  0  0  0  0  0  0  0  0  0
    2.0967   -0.1719    0.0000 C   0  0  3  0  0  0  0  0  0  0  0  0
    2.8117    1.9042    0.0000 C   0  0  0  0  0  0  0  0  0  0  0  0
    2.8117   -0.5843    0.0000 C   0  0  0  0  0  0  0  0  0  0  0  0
    0.6668   -0.1856    0.0000 C   0  0  0  0  0  0  0  0  0  0  0  0
   -0.0344   -0.5706    0.0000 C   0  0  3  0  0  0  0  0  0  0  0  0
    2.8117   -1.4093    0.0000 C   0  0  0  0  0  0  0  0  0  0  0  0
   -0.0481   -1.4093    0.0000 C   0  0  0  0  0  0  0  0  0  0  0  0
   -0.7769    0.6531    0.0000 C   0  0  0  0  0  0  0  0  0  0  0  0
   -1.4918    1.0793    0.0000 C   0  0  0  0  0  0  0  0  0  0  0  0
   -0.7631   -1.8080    0.0000 C   0  0  0  0  0  0  0  0  0  0  0  0
    3.5267   -1.8217    0.0000 C   0  0  0  0  0  0  0  0  0  0  0  0
    2.1105   -1.8217    0.0000 C   0  0  0  0  0  0  0  0  0  0  0  0
   -2.1655    0.6668    0.0000 C   0  0  0  0  0  0  0  0  0  0  0  0
   -1.4918   -1.4230    0.0000 C   0  0  0  0  0  0  0  0  0  0  0  0
   -0.7631   -2.6467    0.0000 C   0  0  0  0  0  0  0  0  0  0  0  0
   -2.1930    2.2893    0.0000 C   0  0  0  0  0  0  0  0  0  0  0  0
   -2.2068   -2.6467    0.0000 C   0  0  0  0  0  0  0  0  0  0  0  0
   -2.1792   -1.8217    0.0000 C   0  0  0  0  0  0  0  0  0  0  0  0
   -1.4643   -3.0592    0.0000 C   0  0  0  0  0  0  0  0  0  0  0  0
    3.5267   -2.6467    0.0000 C   0  0  0  0  0  0  0  0  0  0  0  0
    2.1105   -2.6467    0.0000 C   0  0  0  0  0  0  0  0  0  0  0  0
   -2.9079    1.0793    0.0000 C   0  0  0  0  0  0  0  0  0  0  0  0
   -2.8942    1.9042    0.0000 C   0  0  0  0  0  0  0  0  0  0  0  0
    2.8254   -3.0592    0.0000 C   0  0  0  0  0  0  0  0  0  0  0  0
   -3.6367   -2.6604    0.0000 C   0  0  0  0  0  0  0  0  0  0  0  0
  1 10  1  0  0  0  0
  1 12  1  0  0  0  0
  2 11  2  0  0  0  0
  3 16  2  0  0  0  0
  4 20  2  0  0  0  0
  5 29  1  0  0  0  0
  5 37  1  0  0  0  0
  6 28  2  0  0  0  0
  7 13  1  0  0  0  0
  7 16  1  0  0  0  0
  8 17  1  0  0  0  0
  8 20  1  0  0  0  0
  9 21  1  0  0  0  0
  9 28  1  0  0  0  0
 10 11  1  0  0  0  0
 10 12  1  0  0  0  0
 10 14  1  0  0  0  0
 11 13  1  0  0  0  0
 13 15  1  0  0  0  0
 15 18  1  0  0  0  0
 16 17  1  0  0  0  0
 17 19  1  0  0  0  0
 18 23  2  0  0  0  0
 18 24  1  0  0  0  0
 19 22  1  0  0  0  0
 20 21  1  0  0  0  0
 21 25  2  0  0  0  0
 22 26  2  0  0  0  0
 22 27  1  0  0  0  0
 23 32  1  0  0  0  0
 24 33  2  0  0  0  0
 25 34  1  0  0  0  0
 26 30  1  0  0  0  0
 27 31  2  0  0  0  0
 28 35  1  0  0  0  0
 29 30  2  0  0  0  0
 29 31  1  0  0  0  0
 32 36  2  0  0  0  0
 33 36  1  0  0  0  0
 34 35  2  0  0  0  0
M  END
> <PUBCHEM_COMPOUND_ID_TYPE>
0

> <PUBCHEM_TOTAL_CHARGE>
0

> <PUBCHEM_SUBSTANCE_ID>
310946065

> <PUBCHEM_SUBSTANCE_VERSION>
1

> <PUBCHEM_EXT_DATASOURCE_NAME>
4488

> <PUBCHEM_EXT_DATASOURCE_REGID>
SCHEMBL16124171

> <PUBCHEM_SUBSTANCE_COMMENT>
InChI=1S/C28H29N3O6/c1-28(17-37-28)25(33)22(15-18-7-4-3-5-8-18)30-27(35)23(16-19-11-13-20(36-2)14-12-19)31-26(34)21-9-6-10-24(32)29-21/h3-14,22-23H,15-17H2,1-2H3,(H,29,32)(H,30,35)(H,31,34)
InChIKey=SSVSAZRGBWOUOO-UHFFFAOYSA-N

> <PUBCHEM_SUBSTANCE_SYNONYM>
SCHEMBL16124171

> <PUBCHEM_XREF_EXT_ID>
SCHEMBL16124171

> <PUBCHEM_EXT_DATASOURCE_URL>
https://www.surechembl.org/

> <PUBCHEM_EXT_SUBSTANCE_URL>
https://www.surechembl.org/chemical/SCHEMBL16124171

> <PUBCHEM_CID_ASSOCIATIONS>
117612036  1

> <PUBCHEM_COORDINATE_TYPE>
1
3

$$$$
