310941810
  -OEChem-07211613022D

 16 15  0     1  0  0  0  0  0999 V2000
    0.7014    0.7453    0.0000 O   0  0  0  0  0  0  0  0  0  0  0  0
   -0.7390    0.7453    0.0000 O   0  0  0  0  0  0  0  0  0  0  0  0
    0.7014   -0.0814    0.0000 C   0  0  3  0  0  0  0  0  0  0  0  0
    1.4530   -0.5072    0.0000 C   0  0  0  0  0  0  0  0  0  0  0  0
    0.0000   -0.5072    0.0000 C   0  0  0  0  0  0  0  0  0  0  0  0
   -0.7265   -0.0939    0.0000 C   0  0  3  0  0  0  0  0  0  0  0  0
   -1.4530   -0.5072    0.0000 C   0  0  0  0  0  0  0  0  0  0  0  0
    0.7140    0.5574    0.0000 C   0  0  0  0  0  0  0  0  0  0  0  0
    2.1669   -0.0939    0.0000 C   0  0  0  0  0  0  0  0  0  0  0  0
    2.1669   -0.9207    0.0000 C   0  0  0  0  0  0  0  0  0  0  0  0
    1.4530   -1.3340    0.0000 C   0  0  0  0  0  0  0  0  0  0  0  0
   -1.4404   -1.3340    0.0000 C   0  0  0  0  0  0  0  0  0  0  0  0
   -2.1544   -0.9332    0.0000 C   0  0  0  0  0  0  0  0  0  0  0  0
   -2.1669   -0.0939    0.0000 C   0  0  0  0  0  0  0  0  0  0  0  0
    0.1378    1.3340    0.0000 C   0  0  0  0  0  0  0  0  0  0  0  0
   -0.1378    1.3340    0.0000 C   0  0  0  0  0  0  0  0  0  0  0  0
  1  3  1  0  0  0  0
  1 15  1  0  0  0  0
  2  6  1  0  0  0  0
  2 16  1  0  0  0  0
  3  4  1  0  0  0  0
  3  5  1  0  0  0  0
  3  8  1  0  0  0  0
  4  9  1  0  0  0  0
  4 10  1  0  0  0  0
  4 11  1  0  0  0  0
  5  6  1  0  0  0  0
  6  7  1  0  0  0  0
  7 12  1  0  0  0  0
  7 13  1  0  0  0  0
  7 14  1  0  0  0  0
M  END
> <PUBCHEM_COMPOUND_ID_TYPE>
0

> <PUBCHEM_TOTAL_CHARGE>
0

> <PUBCHEM_SUBSTANCE_ID>
310941810

> <PUBCHEM_SUBSTANCE_VERSION>
1

> <PUBCHEM_EXT_DATASOURCE_NAME>
4488

> <PUBCHEM_EXT_DATASOURCE_REGID>
SCHEMBL16119842

> <PUBCHEM_SUBSTANCE_COMMENT>
InChI=1S/C14H30O2/c1-12(2,3)11(15-8)10-14(7,16-9)13(4,5)6/h11H,10H2,1-9H3
InChIKey=RFEYKUZOWXUNHC-UHFFFAOYSA-N

> <PUBCHEM_SUBSTANCE_SYNONYM>
SCHEMBL16119842

> <PUBCHEM_XREF_EXT_ID>
SCHEMBL16119842

> <PUBCHEM_EXT_DATASOURCE_URL>
https://www.surechembl.org/

> <PUBCHEM_EXT_SUBSTANCE_URL>
https://www.surechembl.org/chemical/SCHEMBL16119842

> <PUBCHEM_CID_ASSOCIATIONS>
117608557  1

> <PUBCHEM_COORDINATE_TYPE>
1
3

$$$$
