310946844
  -OEChem-07211613022D

 23 26  0     1  0  0  0  0  0999 V2000
   -1.3341   -1.4973    0.0000 S   0  0  0  0  0  0  0  0  0  0  0  0
   -1.9483   -0.9405    0.0000 O   0  0  0  0  0  0  0  0  0  0  0  0
   -2.1211   -1.7467    0.0000 O   0  0  0  0  0  0  0  0  0  0  0  0
   -0.2975    0.6526    0.0000 O   0  0  0  0  0  0  0  0  0  0  0  0
   -0.9886   -2.2458    0.0000 N   0  0  3  0  0  0  0  0  0  0  0  0
    1.4492    0.2879    0.0000 N   0  0  0  0  0  0  0  0  0  0  0  0
    2.1211    1.6124    0.0000 N   0  0  0  0  0  0  0  0  0  0  0  0
    1.8524    2.3802    0.0000 N   0  0  0  0  0  0  0  0  0  0  0  0
   -0.5854    2.0539    0.0000 N   0  0  0  0  0  0  0  0  0  0  0  0
   -0.7007   -0.9405    0.0000 C   0  0  0  0  0  0  0  0  0  0  0  0
    0.0096   -1.3437    0.0000 C   0  0  0  0  0  0  0  0  0  0  0  0
    0.7582    1.6124    0.0000 C   0  0  0  0  0  0  0  0  0  0  0  0
   -0.1632   -2.1691    0.0000 C   0  0  0  0  0  0  0  0  0  0  0  0
    1.4492    1.1325    0.0000 C   0  0  0  0  0  0  0  0  0  0  0  0
    0.7390   -0.1151    0.0000 C   0  0  0  0  0  0  0  0  0  0  0  0
    0.7199   -0.9405    0.0000 C   0  0  0  0  0  0  0  0  0  0  0  0
   -0.6815   -0.1151    0.0000 C   0  0  0  0  0  0  0  0  0  0  0  0
    1.0270    2.3994    0.0000 C   0  0  0  0  0  0  0  0  0  0  0  0
    0.0288    0.2687    0.0000 C   0  0  0  0  0  0  0  0  0  0  0  0
   -0.0288    1.4396    0.0000 C   0  0  0  0  0  0  0  0  0  0  0  0
    0.4703    2.9945    0.0000 C   0  0  0  0  0  0  0  0  0  0  0  0
   -1.3917   -2.9945    0.0000 C   0  0  0  0  0  0  0  0  0  0  0  0
   -0.3359    2.8409    0.0000 C   0  0  0  0  0  0  0  0  0  0  0  0
  1  2  2  0  0  0  0
  1  3  2  0  0  0  0
  1  5  1  0  0  0  0
  1 10  1  0  0  0  0
  4 20  2  0  0  0  0
  5 13  1  0  0  0  0
  5 22  1  0  0  0  0
  6 14  1  0  0  0  0
  6 15  1  0  0  0  0
  7  8  1  0  0  0  0
  7 14  2  0  0  0  0
  8 18  1  0  0  0  0
  9 20  1  0  0  0  0
  9 23  1  0  0  0  0
 10 11  2  0  0  0  0
 10 17  1  0  0  0  0
 11 13  1  0  0  0  0
 11 16  1  0  0  0  0
 12 14  1  0  0  0  0
 12 18  2  0  0  0  0
 12 20  1  0  0  0  0
 15 16  2  0  0  0  0
 15 19  1  0  0  0  0
 17 19  2  0  0  0  0
 18 21  1  0  0  0  0
 21 23  2  0  0  0  0
M  END
> <PUBCHEM_COMPOUND_ID_TYPE>
0

> <PUBCHEM_TOTAL_CHARGE>
0

> <PUBCHEM_SUBSTANCE_ID>
310946844

> <PUBCHEM_SUBSTANCE_VERSION>
1

> <PUBCHEM_EXT_DATASOURCE_NAME>
4488

> <PUBCHEM_EXT_DATASOURCE_REGID>
SCHEMBL16124968

> <PUBCHEM_SUBSTANCE_COMMENT>
InChI=1S/C14H13N5O3S/c1-19-7-8-6-9(2-3-11(8)23(19,21)22)16-13-12-10(17-18-13)4-5-15-14(12)20/h2-6H,7H2,1H3,(H,15,20)(H2,16,17,18)
InChIKey=XGYYBRRFRZTHNH-UHFFFAOYSA-N

> <PUBCHEM_SUBSTANCE_SYNONYM>
SCHEMBL16124968

> <PUBCHEM_XREF_EXT_ID>
SCHEMBL16124968

> <PUBCHEM_EXT_DATASOURCE_URL>
https://www.surechembl.org/

> <PUBCHEM_EXT_SUBSTANCE_URL>
https://www.surechembl.org/chemical/SCHEMBL16124968

> <PUBCHEM_CID_ASSOCIATIONS>
117612703  1

> <PUBCHEM_COORDINATE_TYPE>
1
3

$$$$
