310946581
  -OEChem-07211613022D

 27 27  0     1  0  0  0  0  0999 V2000
    4.8502    0.0192    0.0000 S   0  0  0  0  0  0  0  0  0  0  0  0
    7.2485   -1.2586    0.0000 O   0  0  0  0  0  0  0  0  0  0  0  0
    8.3285   -2.0433    0.0000 O   0  0  0  0  0  0  0  0  0  0  0  0
    5.5646   -2.0433    0.0000 O   0  0  0  0  0  0  0  0  0  0  0  0
    4.8502   -3.2808    0.0000 O   0  0  0  0  0  0  0  0  0  0  0  0
    1.9923   -2.4558    0.0000 O   0  0  0  0  0  0  0  0  0  0  0  0
    2.7068   -1.2183    0.0000 O   0  0  0  0  0  0  0  0  0  0  0  0
    1.9923   -4.9308    0.0000 O   0  0  0  0  0  0  0  0  0  0  0  0
    3.4212   -4.9308    0.0000 O   0  5  0  0  0  0  0  0  0  0  0  0
    2.7068   -3.6933    0.0000 O   0  0  0  0  0  0  0  0  0  0  0  0
    3.4212   -2.4558    0.0000 N   0  0  0  0  0  0  0  0  0  0  0  0
    2.7068   -4.5183    0.0000 N   0  3  0  0  0  0  0  0  0  0  0  0
    6.9936   -2.0433    0.0000 C   0  0  0  0  0  0  0  0  0  0  0  0
    7.6610   -2.5282    0.0000 C   0  0  0  0  0  0  0  0  0  0  0  0
    8.0735   -1.2586    0.0000 C   0  0  0  0  0  0  0  0  0  0  0  0
    6.2791   -2.4558    0.0000 C   0  0  0  0  0  0  0  0  0  0  0  0
    4.8502   -2.4558    0.0000 C   0  0  0  0  0  0  0  0  0  0  0  0
    4.1357   -2.0433    0.0000 C   0  0  3  0  0  0  0  0  0  0  0  0
    7.6610   -3.3532    0.0000 C   0  0  0  0  0  0  0  0  0  0  0  0
    4.1357   -1.2183    0.0000 C   0  0  0  0  0  0  0  0  0  0  0  0
    2.7068   -2.0433    0.0000 C   0  0  0  0  0  0  0  0  0  0  0  0
    8.4860   -0.5442    0.0000 C   0  0  0  0  0  0  0  0  0  0  0  0
    4.8502   -0.8058    0.0000 C   0  0  0  0  0  0  0  0  0  0  0  0
    1.9923   -3.2808    0.0000 C   0  0  0  0  0  0  0  0  0  0  0  0
    1.2778   -3.6933    0.0000 C   0  0  0  0  0  0  0  0  0  0  0  0
    1.2778   -4.5183    0.0000 C   0  0  0  0  0  0  0  0  0  0  0  0
    5.5646    0.4317    0.0000 C   0  0  0  0  0  0  0  0  0  0  0  0
  1 23  1  0  0  0  0
  1 27  1  0  0  0  0
  2 13  1  0  0  0  0
  2 15  1  0  0  0  0
  3 14  1  0  0  0  0
  3 15  1  0  0  0  0
  4 16  1  0  0  0  0
  4 17  1  0  0  0  0
  5 17  2  0  0  0  0
  6 21  1  0  0  0  0
  6 24  1  0  0  0  0
  7 21  2  0  0  0  0
  8 12  1  0  0  0  0
  8 26  1  0  0  0  0
  9 12  1  0  0  0  0
 10 12  2  0  0  0  0
 11 18  1  0  0  0  0
 11 21  1  0  0  0  0
 13 14  2  0  0  0  0
 13 16  1  0  0  0  0
 14 19  1  0  0  0  0
 15 22  2  0  0  0  0
 17 18  1  0  0  0  0
 18 20  1  0  0  0  0
 20 23  1  0  0  0  0
 24 25  1  0  0  0  0
 25 26  1  0  0  0  0
M  CHG  2   9  -1  12   1
M  END
> <PUBCHEM_COMPOUND_ID_TYPE>
0

> <PUBCHEM_TOTAL_CHARGE>
0

> <PUBCHEM_SUBSTANCE_ID>
310946581

> <PUBCHEM_SUBSTANCE_VERSION>
1

> <PUBCHEM_EXT_DATASOURCE_NAME>
4488

> <PUBCHEM_EXT_DATASOURCE_REGID>
SCHEMBL16124702

> <PUBCHEM_SUBSTANCE_COMMENT>
InChI=1S/C15H22N2O9S/c1-10-13(26-11(2)25-10)9-23-14(18)12(5-8-27-3)16-15(19)22-6-4-7-24-17(20)21/h12H,2,4-9H2,1,3H3,(H,16,19)
InChIKey=HQQBNEGJRBIPFE-UHFFFAOYSA-N

> <PUBCHEM_SUBSTANCE_SYNONYM>
SCHEMBL16124702

> <PUBCHEM_XREF_EXT_ID>
SCHEMBL16124702

> <PUBCHEM_EXT_DATASOURCE_URL>
https://www.surechembl.org/

> <PUBCHEM_EXT_SUBSTANCE_URL>
https://www.surechembl.org/chemical/SCHEMBL16124702

> <PUBCHEM_CID_ASSOCIATIONS>
117612481  1

> <PUBCHEM_COORDINATE_TYPE>
1
3

$$$$
