310931733
  -OEChem-07211613022D

 44 47  0     1  0  0  0  0  0999 V2000
    1.5305   -7.8486    0.0000 Cl  0  0  0  0  0  0  0  0  0  0  0  0
    6.5535   -5.8079    0.0000 S   0  0  0  0  0  0  0  0  0  0  0  0
    6.5535   -4.1205    0.0000 F   0  0  0  0  0  0  0  0  0  0  0  0
    3.6888   -5.7686    0.0000 F   0  0  0  0  0  0  0  0  0  0  0  0
   10.2816   -5.1408    0.0000 F   0  0  0  0  0  0  0  0  0  0  0  0
    6.1219   -6.5143    0.0000 O   0  0  0  0  0  0  0  0  0  0  0  0
    7.2599   -6.2396    0.0000 O   0  0  0  0  0  0  0  0  0  0  0  0
    3.6888   -4.1205    0.0000 O   0  0  0  0  0  0  0  0  0  0  0  0
    5.7294   -4.3559    0.0000 O   0  0  0  0  0  0  0  0  0  0  0  0
    0.8241   -1.6482    0.0000 O   0  0  0  0  0  0  0  0  0  0  0  0
    2.2761   -1.6482    0.0000 O   0  0  0  0  0  0  0  0  0  0  0  0
    6.9852   -5.1016    0.0000 N   0  0  3  0  0  0  0  0  0  0  0  0
    8.2017   -4.3952    0.0000 N   0  0  0  0  0  0  0  0  0  0  0  0
    1.5305   -2.8647    0.0000 N   0  0  0  0  0  0  0  0  0  0  0  0
    5.8471   -5.3762    0.0000 C   0  0  0  0  0  0  0  0  0  0  0  0
    5.8471   -4.5522    0.0000 C   0  0  0  0  0  0  0  0  0  0  0  0
    5.1408   -5.7686    0.0000 C   0  0  0  0  0  0  0  0  0  0  0  0
    7.8093   -5.1016    0.0000 C   0  0  0  0  0  0  0  0  0  0  0  0
    4.4344   -4.5522    0.0000 C   0  0  0  0  0  0  0  0  0  0  0  0
    4.3952   -5.3762    0.0000 C   0  0  0  0  0  0  0  0  0  0  0  0
    5.1408   -4.1205    0.0000 C   0  0  0  0  0  0  0  0  0  0  0  0
    6.5535   -4.3559    0.0000 C   0  0  0  0  0  0  0  0  0  0  0  0
    2.2761   -4.1205    0.0000 C   0  0  3  0  0  0  0  0  0  0  0  0
    1.5305   -4.5129    0.0000 C   0  0  3  0  0  0  0  0  0  0  0  0
    8.2017   -5.8471    0.0000 C   0  0  0  0  0  0  0  0  0  0  0  0
    2.9825   -4.5129    0.0000 C   0  0  0  0  0  0  0  0  0  0  0  0
    1.5305   -5.3370    0.0000 C   0  0  0  0  0  0  0  0  0  0  0  0
    2.2761   -3.2964    0.0000 C   0  0  0  0  0  0  0  0  0  0  0  0
    0.8241   -4.1205    0.0000 C   0  0  0  0  0  0  0  0  0  0  0  0
    9.0258   -4.3952    0.0000 C   0  0  0  0  0  0  0  0  0  0  0  0
    9.0258   -5.8471    0.0000 C   0  0  0  0  0  0  0  0  0  0  0  0
    9.4575   -5.1408    0.0000 C   0  0  0  0  0  0  0  0  0  0  0  0
    0.8241   -3.2964    0.0000 C   0  0  0  0  0  0  0  0  0  0  0  0
    1.5305   -2.0406    0.0000 C   0  0  0  0  0  0  0  0  0  0  0  0
    2.2761   -5.7686    0.0000 C   0  0  0  0  0  0  0  0  0  0  0  0
    0.8241   -5.7686    0.0000 C   0  0  0  0  0  0  0  0  0  0  0  0
    2.2761   -6.5928    0.0000 C   0  0  0  0  0  0  0  0  0  0  0  0
    0.8241   -6.5928    0.0000 C   0  0  0  0  0  0  0  0  0  0  0  0
    1.5305   -7.0244    0.0000 C   0  0  0  0  0  0  0  0  0  0  0  0
    0.8241   -0.8241    0.0000 C   0  0  0  0  0  0  0  0  0  0  0  0
    5.2977   -5.0623    0.0000 C   0  0  0  0  0  0  0  0  0  0  0  0
    1.6874   -0.8241    0.0000 C   0  0  0  0  0  0  0  0  0  0  0  0
    0.8241    0.0000    0.0000 C   0  0  0  0  0  0  0  0  0  0  0  0
    0.0000   -0.8241    0.0000 C   0  0  0  0  0  0  0  0  0  0  0  0
  1 39  1  0  0  0  0
  2  6  2  0  0  0  0
  2  7  2  0  0  0  0
  2 12  1  0  0  0  0
  2 15  1  0  0  0  0
  3 16  1  0  0  0  0
  4 20  1  0  0  0  0
  5 32  1  0  0  0  0
  8 19  1  0  0  0  0
  8 26  1  0  0  0  0
  9 22  1  0  0  0  0
  9 41  1  0  0  0  0
 10 34  1  0  0  0  0
 10 40  1  0  0  0  0
 11 34  2  0  0  0  0
 12 18  1  0  0  0  0
 12 22  1  0  0  0  0
 13 18  1  0  0  0  0
 13 30  2  0  0  0  0
 14 28  1  0  0  0  0
 14 33  1  0  0  0  0
 14 34  1  0  0  0  0
 15 16  1  0  0  0  0
 15 17  2  0  0  0  0
 16 21  2  0  0  0  0
 17 20  1  0  0  0  0
 18 25  2  0  0  0  0
 19 20  2  0  0  0  0
 19 21  1  0  0  0  0
 23 24  1  0  0  0  0
 23 26  1  0  0  0  0
 23 28  1  0  0  0  0
 24 27  1  0  0  0  0
 24 29  1  0  0  0  0
 25 31  1  0  0  0  0
 27 35  2  0  0  0  0
 27 36  1  0  0  0  0
 29 33  1  0  0  0  0
 30 32  1  0  0  0  0
 31 32  2  0  0  0  0
 35 37  1  0  0  0  0
 36 38  2  0  0  0  0
 37 39  2  0  0  0  0
 38 39  1  0  0  0  0
 40 42  1  0  0  0  0
 40 43  1  0  0  0  0
 40 44  1  0  0  0  0
M  END
> <PUBCHEM_COMPOUND_ID_TYPE>
0

> <PUBCHEM_TOTAL_CHARGE>
0

> <PUBCHEM_SUBSTANCE_ID>
310931733

> <PUBCHEM_SUBSTANCE_VERSION>
1

> <PUBCHEM_EXT_DATASOURCE_NAME>
4488

> <PUBCHEM_EXT_DATASOURCE_REGID>
SCHEMBL16109062

> <PUBCHEM_SUBSTANCE_COMMENT>
InChI=1S/C30H33ClF3N3O6S/c1-30(2,3)43-29(38)36-12-11-23(19-5-7-21(31)8-6-19)20(16-36)17-42-26-13-25(34)27(14-24(26)33)44(39,40)37(18-41-4)28-10-9-22(32)15-35-28/h5-10,13-15,20,23H,11-12,16-18H2,1-4H3
InChIKey=MVCKHSOHBVFKAT-UHFFFAOYSA-N

> <PUBCHEM_SUBSTANCE_SYNONYM>
SCHEMBL16109062

> <PUBCHEM_XREF_EXT_ID>
SCHEMBL16109062

> <PUBCHEM_EXT_DATASOURCE_URL>
https://www.surechembl.org/

> <PUBCHEM_EXT_SUBSTANCE_URL>
https://www.surechembl.org/chemical/SCHEMBL16109062

> <PUBCHEM_CID_ASSOCIATIONS>
117600426  1

> <PUBCHEM_COORDINATE_TYPE>
1
3

$$$$
