310935220
  -OEChem-07211613022D

 40 45  0     1  0  0  0  0  0999 V2000
    5.7560   -3.7292    0.0000 S   0  0  0  0  0  0  0  0  0  0  0  0
    6.2154   -4.5399    0.0000 O   0  0  0  0  0  0  0  0  0  0  0  0
    5.3506   -3.0536    0.0000 O   0  0  0  0  0  0  0  0  0  0  0  0
    2.1619   -4.1616    0.0000 N   0  0  3  0  0  0  0  0  0  0  0  0
    0.7297   -4.1616    0.0000 N   0  0  0  0  0  0  0  0  0  0  0  0
    0.0270   -2.8915    0.0000 N   0  0  0  0  0  0  0  0  0  0  0  0
    6.4586   -3.3509    0.0000 N   0  0  3  0  0  0  0  0  0  0  0  0
    4.3508   -1.2701    0.0000 N   0  0  0  0  0  0  0  0  0  0  0  0
    3.6211   -0.0270    0.0000 N   0  0  0  0  0  0  0  0  0  0  0  0
    5.0804    0.0000    0.0000 N   0  0  0  0  0  0  0  0  0  0  0  0
    4.4859   -1.4323    0.0000 N   0  0  0  0  0  0  0  0  0  0  0  0
    1.4593   -2.9185    0.0000 C   0  0  0  0  0  0  0  0  0  0  0  0
    1.4593   -3.7292    0.0000 C   0  0  0  0  0  0  0  0  0  0  0  0
    0.7297   -2.4862    0.0000 C   0  0  0  0  0  0  0  0  0  0  0  0
    3.6211   -4.1616    0.0000 C   0  0  0  0  0  0  0  0  0  0  0  0
    5.0263   -4.1616    0.0000 C   0  0  0  0  0  0  0  0  0  0  0  0
    3.6211   -4.9723    0.0000 C   0  0  0  0  0  0  0  0  0  0  0  0
    2.1619   -1.6755    0.0000 C   0  0  0  0  0  0  0  0  0  0  0  0
    0.7297   -1.6755    0.0000 C   0  0  0  0  0  0  0  0  0  0  0  0
    2.1619   -2.5132    0.0000 C   0  0  0  0  0  0  0  0  0  0  0  0
    2.8915   -3.7292    0.0000 C   0  0  0  0  0  0  0  0  0  0  0  0
    4.3237   -3.7292    0.0000 C   0  0  0  0  0  0  0  0  0  0  0  0
    2.1619   -4.9723    0.0000 C   0  0  0  0  0  0  0  0  0  0  0  0
    1.4593   -1.2701    0.0000 C   0  0  0  0  0  0  0  0  0  0  0  0
    2.8915   -5.4047    0.0000 C   0  0  0  0  0  0  0  0  0  0  0  0
    5.0263   -4.9723    0.0000 C   0  0  0  0  0  0  0  0  0  0  0  0
    4.3237   -5.4047    0.0000 C   0  0  0  0  0  0  0  0  0  0  0  0
    2.8915   -1.2701    0.0000 C   0  0  0  0  0  0  0  0  0  0  0  0
    0.0000   -3.7562    0.0000 C   0  0  0  0  0  0  0  0  0  0  0  0
    6.4586   -2.5132    0.0000 C   0  0  0  0  0  0  0  0  0  0  0  0
    0.0000   -1.2701    0.0000 C   0  0  0  0  0  0  0  0  0  0  0  0
    3.6211   -1.6755    0.0000 C   0  0  0  0  0  0  0  0  0  0  0  0
    2.9185   -0.4323    0.0000 C   0  0  0  0  0  0  0  0  0  0  0  0
    5.7289   -2.0808    0.0000 C   0  0  0  0  0  0  0  0  0  0  0  0
    7.1882   -3.7562    0.0000 C   0  0  0  0  0  0  0  0  0  0  0  0
    4.3778   -0.4323    0.0000 C   0  0  0  0  0  0  0  0  0  0  0  0
    5.7289   -1.2701    0.0000 C   0  0  0  0  0  0  0  0  0  0  0  0
    5.0263   -2.5132    0.0000 C   0  0  0  0  0  0  0  0  0  0  0  0
    5.0263   -0.8377    0.0000 C   0  0  0  0  0  0  0  0  0  0  0  0
    4.3237   -2.0808    0.0000 C   0  0  0  0  0  0  0  0  0  0  0  0
  1  2  2  0  0  0  0
  1  3  2  0  0  0  0
  1  7  1  0  0  0  0
  1 16  1  0  0  0  0
  4 13  1  0  0  0  0
  4 21  1  0  0  0  0
  4 23  1  0  0  0  0
  5 13  1  0  0  0  0
  5 29  2  0  0  0  0
  6 14  2  0  0  0  0
  6 29  1  0  0  0  0
  7 30  1  0  0  0  0
  7 35  1  0  0  0  0
  8 32  2  0  0  0  0
  8 36  1  0  0  0  0
  9 33  1  0  0  0  0
  9 36  2  0  0  0  0
 10 36  1  0  0  0  0
 11 39  1  0  0  0  0
 11 40  1  0  0  0  0
 12 13  2  0  0  0  0
 12 14  1  0  0  0  0
 12 20  1  0  0  0  0
 14 19  1  0  0  0  0
 15 17  2  0  0  0  0
 15 21  1  0  0  0  0
 15 22  1  0  0  0  0
 16 22  2  0  0  0  0
 16 26  1  0  0  0  0
 17 25  1  0  0  0  0
 17 27  1  0  0  0  0
 18 20  2  0  0  0  0
 18 24  1  0  0  0  0
 18 28  1  0  0  0  0
 19 24  2  0  0  0  0
 19 31  1  0  0  0  0
 23 25  1  0  0  0  0
 26 27  2  0  0  0  0
 28 32  1  0  0  0  0
 28 33  2  0  0  0  0
 30 34  1  0  0  0  0
 34 37  1  0  0  0  0
 34 38  1  0  0  0  0
 37 39  1  0  0  0  0
 38 40  1  0  0  0  0
M  END
> <PUBCHEM_COMPOUND_ID_TYPE>
0

> <PUBCHEM_TOTAL_CHARGE>
0

> <PUBCHEM_SUBSTANCE_ID>
310935220

> <PUBCHEM_SUBSTANCE_VERSION>
1

> <PUBCHEM_EXT_DATASOURCE_NAME>
4488

> <PUBCHEM_EXT_DATASOURCE_REGID>
SCHEMBL16112748

> <PUBCHEM_SUBSTANCE_COMMENT>
InChI=1S/C29H34N8O2S/c1-19-11-22(24-14-32-29(30)33-15-24)13-26-27(19)34-18-35-28(26)37-10-7-21-3-4-25(12-23(21)17-37)40(38,39)36(2)16-20-5-8-31-9-6-20/h3-4,11-15,18,20,31H,5-10,16-17H2,1-2H3,(H2,30,32,33)
InChIKey=YJFNWMMXJSMNHG-UHFFFAOYSA-N

> <PUBCHEM_SUBSTANCE_SYNONYM>
SCHEMBL16112748

> <PUBCHEM_XREF_EXT_ID>
SCHEMBL16112748

> <PUBCHEM_EXT_DATASOURCE_URL>
https://www.surechembl.org/

> <PUBCHEM_EXT_SUBSTANCE_URL>
https://www.surechembl.org/chemical/SCHEMBL16112748

> <PUBCHEM_CID_ASSOCIATIONS>
86300332  1

> <PUBCHEM_COORDINATE_TYPE>
1
3

$$$$
