310933417
  -OEChem-07211613022D

 14 15  0     1  0  0  0  0  0999 V2000
    2.8604   -3.7148    0.0000 Cl  0  0  0  0  0  0  0  0  0  0  0  0
    1.4488   -2.8976    0.0000 F   0  0  0  0  0  0  0  0  0  0  0  0
    0.7058    0.0000    0.0000 N   0  0  0  0  0  0  0  0  0  0  0  0
    2.1546   -1.6531    0.0000 C   0  0  0  0  0  0  0  0  0  0  0  0
    2.1546   -2.4703    0.0000 C   0  0  0  0  0  0  0  0  0  0  0  0
    1.4488   -1.2445    0.0000 C   0  0  3  0  0  0  0  0  0  0  0  0
    2.8604   -2.8976    0.0000 C   0  0  0  0  0  0  0  0  0  0  0  0
    2.8790   -1.2445    0.0000 C   0  0  0  0  0  0  0  0  0  0  0  0
    3.5848   -2.4703    0.0000 C   0  0  0  0  0  0  0  0  0  0  0  0
    1.4488   -0.4086    0.0000 C   0  0  0  0  0  0  0  0  0  0  0  0
    0.7058   -1.6531    0.0000 C   0  0  0  0  0  0  0  0  0  0  0  0
    3.5848   -1.6531    0.0000 C   0  0  0  0  0  0  0  0  0  0  0  0
    0.0000   -1.2445    0.0000 C   0  0  0  0  0  0  0  0  0  0  0  0
    0.0000   -0.4086    0.0000 C   0  0  0  0  0  0  0  0  0  0  0  0
  1  7  1  0  0  0  0
  2  5  1  0  0  0  0
  3 10  1  0  0  0  0
  3 14  1  0  0  0  0
  4  5  1  0  0  0  0
  4  6  1  0  0  0  0
  4  8  2  0  0  0  0
  5  7  2  0  0  0  0
  6 10  1  0  0  0  0
  6 11  1  0  0  0  0
  7  9  1  0  0  0  0
  8 12  1  0  0  0  0
  9 12  2  0  0  0  0
 11 13  1  0  0  0  0
 13 14  1  0  0  0  0
M  END
> <PUBCHEM_COMPOUND_ID_TYPE>
0

> <PUBCHEM_TOTAL_CHARGE>
0

> <PUBCHEM_SUBSTANCE_ID>
310933417

> <PUBCHEM_SUBSTANCE_VERSION>
1

> <PUBCHEM_EXT_DATASOURCE_NAME>
4488

> <PUBCHEM_EXT_DATASOURCE_REGID>
SCHEMBL16110833

> <PUBCHEM_SUBSTANCE_COMMENT>
InChI=1S/C11H13ClFN/c12-10-5-1-4-9(11(10)13)8-3-2-6-14-7-8/h1,4-5,8,14H,2-3,6-7H2
InChIKey=FXHIFQQBOCXHMF-UHFFFAOYSA-N

> <PUBCHEM_SUBSTANCE_SYNONYM>
SCHEMBL16110833

> <PUBCHEM_XREF_EXT_ID>
SCHEMBL16110833

> <PUBCHEM_EXT_DATASOURCE_URL>
https://www.surechembl.org/

> <PUBCHEM_EXT_SUBSTANCE_URL>
https://www.surechembl.org/chemical/SCHEMBL16110833

> <PUBCHEM_CID_ASSOCIATIONS>
84680010  1

> <PUBCHEM_COORDINATE_TYPE>
1
3

$$$$
