310938276
  -OEChem-07211613022D

 32 35  0     1  0  0  0  0  0999 V2000
    2.0367    1.0527    0.0000 O   0  0  0  0  0  0  0  0  0  0  0  0
    6.3235   -0.5973    0.0000 O   0  0  0  0  0  0  0  0  0  0  0  0
    4.8946    4.3527    0.0000 O   0  0  0  0  0  0  0  0  0  0  0  0
    3.4186   -0.6697    0.0000 N   0  0  0  0  0  0  0  0  0  0  0  0
    3.1637   -1.4544    0.0000 N   0  0  0  0  0  0  0  0  0  0  0  0
    3.4656    1.8777    0.0000 N   0  0  0  0  0  0  0  0  0  0  0  0
    4.8946   -0.5973    0.0000 N   0  0  0  0  0  0  0  0  0  0  0  0
    5.6091    2.2902    0.0000 N   0  0  0  0  0  0  0  0  0  0  0  0
    2.7512   -0.1848    0.0000 C   0  0  0  0  0  0  0  0  0  0  0  0
    2.0837   -0.6697    0.0000 C   0  0  0  0  0  0  0  0  0  0  0  0
    2.7512    0.6402    0.0000 C   0  0  0  0  0  0  0  0  0  0  0  0
    3.4656    1.0527    0.0000 C   0  0  3  0  0  0  0  0  0  0  0  0
    1.2991   -0.4148    0.0000 C   0  0  0  0  0  0  0  0  0  0  0  0
    4.1801    0.6402    0.0000 C   0  0  0  0  0  0  0  0  0  0  0  0
    2.3387   -1.4544    0.0000 C   0  0  0  0  0  0  0  0  0  0  0  0
    4.1801    2.2902    0.0000 C   0  0  0  0  0  0  0  0  0  0  0  0
    4.1801   -0.1848    0.0000 C   0  0  0  0  0  0  0  0  0  0  0  0
    4.8946    1.0527    0.0000 C   0  0  0  0  0  0  0  0  0  0  0  0
    0.6860   -0.9668    0.0000 C   0  0  0  0  0  0  0  0  0  0  0  0
    1.1276    0.3922    0.0000 C   0  0  0  0  0  0  0  0  0  0  0  0
    5.6091   -0.1848    0.0000 C   0  0  0  0  0  0  0  0  0  0  0  0
    4.1801    3.1152    0.0000 C   0  0  0  0  0  0  0  0  0  0  0  0
    5.6091    0.6402    0.0000 C   0  0  0  0  0  0  0  0  0  0  0  0
    3.6486   -2.1218    0.0000 C   0  0  0  0  0  0  0  0  0  0  0  0
    4.8946    1.8777    0.0000 C   0  0  0  0  0  0  0  0  0  0  0  0
    4.8946    3.5277    0.0000 C   0  0  0  0  0  0  0  0  0  0  0  0
   -0.0986   -0.7119    0.0000 C   0  0  0  0  0  0  0  0  0  0  0  0
    0.3430    0.6471    0.0000 C   0  0  0  0  0  0  0  0  0  0  0  0
   -0.2701    0.0951    0.0000 C   0  0  0  0  0  0  0  0  0  0  0  0
    5.6091    3.1152    0.0000 C   0  0  0  0  0  0  0  0  0  0  0  0
    6.3235   -1.4223    0.0000 C   0  0  0  0  0  0  0  0  0  0  0  0
    5.6091    4.7652    0.0000 C   0  0  0  0  0  0  0  0  0  0  0  0
  1 11  2  0  0  0  0
  2 21  1  0  0  0  0
  2 31  1  0  0  0  0
  3 26  1  0  0  0  0
  3 32  1  0  0  0  0
  4  5  1  0  0  0  0
  4  9  2  0  0  0  0
  5 15  1  0  0  0  0
  5 24  1  0  0  0  0
  6 12  1  0  0  0  0
  6 16  1  0  0  0  0
  7 17  2  0  0  0  0
  7 21  1  0  0  0  0
  8 25  2  0  0  0  0
  8 30  1  0  0  0  0
  9 10  1  0  0  0  0
  9 11  1  0  0  0  0
 10 13  1  0  0  0  0
 10 15  2  0  0  0  0
 11 12  1  0  0  0  0
 12 14  1  0  0  0  0
 13 19  2  0  0  0  0
 13 20  1  0  0  0  0
 14 17  1  0  0  0  0
 14 18  2  0  0  0  0
 16 22  2  0  0  0  0
 16 25  1  0  0  0  0
 18 23  1  0  0  0  0
 19 27  1  0  0  0  0
 20 28  2  0  0  0  0
 21 23  2  0  0  0  0
 22 26  1  0  0  0  0
 26 30  2  0  0  0  0
 27 29  2  0  0  0  0
 28 29  1  0  0  0  0
M  END
> <PUBCHEM_COMPOUND_ID_TYPE>
0

> <PUBCHEM_TOTAL_CHARGE>
0

> <PUBCHEM_SUBSTANCE_ID>
310938276

> <PUBCHEM_SUBSTANCE_VERSION>
1

> <PUBCHEM_EXT_DATASOURCE_NAME>
4488

> <PUBCHEM_EXT_DATASOURCE_REGID>
SCHEMBL16116146

> <PUBCHEM_SUBSTANCE_COMMENT>
InChI=1S/C24H23N5O3/c1-29-15-20(16-7-5-4-6-8-16)23(28-29)24(30)22(17-9-10-21(32-3)26-12-17)27-18-11-19(31-2)14-25-13-18/h4-15,22,27H,1-3H3
InChIKey=ILASWTGUQNWSAN-UHFFFAOYSA-N

> <PUBCHEM_SUBSTANCE_SYNONYM>
SCHEMBL16116146

> <PUBCHEM_XREF_EXT_ID>
SCHEMBL16116146

> <PUBCHEM_EXT_DATASOURCE_URL>
https://www.surechembl.org/

> <PUBCHEM_EXT_SUBSTANCE_URL>
https://www.surechembl.org/chemical/SCHEMBL16116146

> <PUBCHEM_CID_ASSOCIATIONS>
117605786  1

> <PUBCHEM_COORDINATE_TYPE>
1
3

$$$$
