310937302
  -OEChem-07211613022D

 43 44  0     1  0  0  0  0  0999 V2000
    0.7145   -0.4125    0.0000 Br  0  5  0  0  0  0  0  0  0  0  0  0
    0.0000    6.3791    0.0000 Br  0  5  0  0  0  0  0  0  0  0  0  0
    4.6994    3.1895    0.0000 O   0  0  0  0  0  0  0  0  0  0  0  0
    3.5724    1.2375    0.0000 O   0  0  0  0  0  0  0  0  0  0  0  0
    3.5724    5.1416    0.0000 O   0  0  0  0  0  0  0  0  0  0  0  0
    2.8579    2.4751    0.0000 O   0  0  0  0  0  0  0  0  0  0  0  0
    2.8579    3.9040    0.0000 O   0  0  0  0  0  0  0  0  0  0  0  0
    5.5244    1.7606    0.0000 O   0  0  0  0  0  0  0  0  0  0  0  0
    5.5244    4.6185    0.0000 O   0  0  0  0  0  0  0  0  0  0  0  0
    0.7145    0.4125    0.0000 N   0  3  0  0  0  0  0  0  0  0  0  0
    0.7145    5.9666    0.0000 N   0  3  0  0  0  0  0  0  0  0  0  0
    4.2869    2.4751    0.0000 C   0  0  3  0  0  0  0  0  0  0  0  0
    4.2869    3.9040    0.0000 C   0  0  3  0  0  0  0  0  0  0  0  0
    4.2869    1.6500    0.0000 C   0  0  0  0  0  0  0  0  0  0  0  0
    4.2869    4.7291    0.0000 C   0  0  0  0  0  0  0  0  0  0  0  0
    3.5724    2.8876    0.0000 C   0  0  0  0  0  0  0  0  0  0  0  0
    3.5724    3.4915    0.0000 C   0  0  0  0  0  0  0  0  0  0  0  0
    2.8579    1.6500    0.0000 C   0  0  3  0  0  0  0  0  0  0  0  0
    5.1119    2.4751    0.0000 C   0  0  0  0  0  0  0  0  0  0  0  0
    2.8579    4.7291    0.0000 C   0  0  3  0  0  0  0  0  0  0  0  0
    5.1119    3.9040    0.0000 C   0  0  0  0  0  0  0  0  0  0  0  0
    2.1435    1.2375    0.0000 C   0  0  0  0  0  0  0  0  0  0  0  0
    2.1435    5.1416    0.0000 C   0  0  0  0  0  0  0  0  0  0  0  0
    5.0014    1.2375    0.0000 C   0  0  0  0  0  0  0  0  0  0  0  0
    5.0014    5.1416    0.0000 C   0  0  0  0  0  0  0  0  0  0  0  0
    2.1435    0.4125    0.0000 C   0  0  0  0  0  0  0  0  0  0  0  0
    1.4290    1.6500    0.0000 C   0  0  0  0  0  0  0  0  0  0  0  0
    1.4290    4.7291    0.0000 C   0  0  0  0  0  0  0  0  0  0  0  0
    2.1435    5.9666    0.0000 C   0  0  0  0  0  0  0  0  0  0  0  0
    1.4290    0.0000    0.0000 C   0  0  0  0  0  0  0  0  0  0  0  0
    0.7145    1.2375    0.0000 C   0  0  0  0  0  0  0  0  0  0  0  0
    0.7145    5.1416    0.0000 C   0  0  0  0  0  0  0  0  0  0  0  0
    1.4290    6.3791    0.0000 C   0  0  0  0  0  0  0  0  0  0  0  0
    0.0000    0.0000    0.0000 C   0  0  0  0  0  0  0  0  0  0  0  0
   -0.7145    0.4125    0.0000 C   0  0  0  0  0  0  0  0  0  0  0  0
   -1.4290    0.0000    0.0000 C   0  0  0  0  0  0  0  0  0  0  0  0
   -2.1435    0.4125    0.0000 C   0  0  0  0  0  0  0  0  0  0  0  0
   -2.8579    0.0000    0.0000 C   0  0  0  0  0  0  0  0  0  0  0  0
   -3.5724    0.4125    0.0000 C   0  0  0  0  0  0  0  0  0  0  0  0
   -4.2869    0.0000    0.0000 C   0  0  0  0  0  0  0  0  0  0  0  0
   -5.0014    0.4125    0.0000 C   0  0  0  0  0  0  0  0  0  0  0  0
   -5.7159    0.0000    0.0000 C   0  0  0  0  0  0  0  0  0  0  0  0
   -6.4304    0.4125    0.0000 C   0  0  0  0  0  0  0  0  0  0  0  0
  3 12  1  0  0  0  0
  3 13  1  0  0  0  0
  4 14  1  0  0  0  0
  4 18  1  0  0  0  0
  5 15  1  0  0  0  0
  5 20  1  0  0  0  0
  6 16  1  0  0  0  0
  6 18  1  0  0  0  0
  7 17  1  0  0  0  0
  7 20  1  0  0  0  0
  8 19  1  0  0  0  0
  9 21  1  0  0  0  0
 10 30  2  0  0  0  0
 10 31  1  0  0  0  0
 10 34  1  0  0  0  0
 11 32  2  0  0  0  0
 11 33  1  0  0  0  0
 12 14  1  0  0  0  0
 12 16  1  0  0  0  0
 12 19  1  0  0  0  0
 13 15  1  0  0  0  0
 13 17  1  0  0  0  0
 13 21  1  0  0  0  0
 14 24  2  0  0  0  0
 15 25  2  0  0  0  0
 18 22  1  0  0  0  0
 20 23  1  0  0  0  0
 22 26  2  0  0  0  0
 22 27  1  0  0  0  0
 23 28  2  0  0  0  0
 23 29  1  0  0  0  0
 26 30  1  0  0  0  0
 27 31  2  0  0  0  0
 28 32  1  0  0  0  0
 29 33  2  0  0  0  0
 34 35  1  0  0  0  0
 35 36  1  0  0  0  0
 36 37  1  0  0  0  0
 37 38  1  0  0  0  0
 38 39  1  0  0  0  0
 39 40  1  0  0  0  0
 40 41  1  0  0  0  0
 41 42  1  0  0  0  0
 42 43  1  0  0  0  0
M  CHG  4   1  -1   2  -1  10   1  11   1
M  END
> <PUBCHEM_COMPOUND_ID_TYPE>
0

> <PUBCHEM_TOTAL_CHARGE>
0

> <PUBCHEM_SUBSTANCE_ID>
310937302

> <PUBCHEM_SUBSTANCE_VERSION>
1

> <PUBCHEM_EXT_DATASOURCE_NAME>
4488

> <PUBCHEM_EXT_DATASOURCE_REGID>
SCHEMBL16115050

> <PUBCHEM_SUBSTANCE_COMMENT>
InChI=1S/C32H45N2O7.2BrH/c1-4-5-6-7-8-9-10-11-18-34-19-14-28(15-20-34)30-38-24-32(22-36,26(3)40-30)41-31(21-35)23-37-29(39-25(31)2)27-12-16-33-17-13-27;;/h12-17,19-20,29-30,35-36H,2-11,18,21-24H2,1H3;2*1H/q+1;;/p-1
InChIKey=DNSUEPNVKSXIJL-UHFFFAOYSA-M

> <PUBCHEM_SUBSTANCE_SYNONYM>
SCHEMBL16115050

> <PUBCHEM_XREF_EXT_ID>
SCHEMBL16115050

> <PUBCHEM_EXT_DATASOURCE_URL>
https://www.surechembl.org/

> <PUBCHEM_EXT_SUBSTANCE_URL>
https://www.surechembl.org/chemical/SCHEMBL16115050

> <PUBCHEM_CID_ASSOCIATIONS>
117605086  1
260  2
117605087  2

> <PUBCHEM_COORDINATE_TYPE>
1
3

$$$$
