310946010
  -OEChem-07211613022D

 43 47  0     1  0  0  0  0  0999 V2000
    4.0018    0.2004    0.0000 O   0  0  0  0  0  0  0  0  0  0  0  0
    1.7348    0.2004    0.0000 O   0  0  0  0  0  0  0  0  0  0  0  0
    1.0160   -0.2143    0.0000 O   0  0  0  0  0  0  0  0  0  0  0  0
    0.2972    0.2004    0.0000 O   0  0  0  0  0  0  0  0  0  0  0  0
   -2.5642   -3.9327    0.0000 O   0  0  0  0  0  0  0  0  0  0  0  0
   -4.0018    3.5180    0.0000 O   0  0  0  0  0  0  0  0  0  0  0  0
    1.7486   -1.4307    0.0000 N   0  0  0  0  0  0  0  0  0  0  0  0
   -0.4078   -1.0160    0.0000 N   0  0  0  0  0  0  0  0  0  0  0  0
   -1.1266    1.0437    0.0000 N   0  0  0  0  0  0  0  0  0  0  0  0
   -2.5642    1.0437    0.0000 N   0  0  0  0  0  0  0  0  0  0  0  0
   -2.5642    2.7025    0.0000 N   0  0  0  0  0  0  0  0  0  0  0  0
    3.1862    0.2143    0.0000 C   0  0  3  0  0  0  0  0  0  0  0  0
    2.4813   -0.2004    0.0000 C   0  0  0  0  0  0  0  0  0  0  0  0
    3.6009   -0.4907    0.0000 C   0  0  0  0  0  0  0  0  0  0  0  0
    2.4536   -1.0160    0.0000 C   0  0  3  0  0  0  0  0  0  0  0  0
    3.1724    1.0575    0.0000 C   0  0  0  0  0  0  0  0  0  0  0  0
    3.1862   -1.4307    0.0000 C   0  0  0  0  0  0  0  0  0  0  0  0
    1.0298   -1.0437    0.0000 C   0  0  0  0  0  0  0  0  0  0  0  0
    0.3110   -1.4307    0.0000 C   0  0  3  0  0  0  0  0  0  0  0  0
    3.1724   -2.2601    0.0000 C   0  0  0  0  0  0  0  0  0  0  0  0
   -0.4216   -0.2004    0.0000 C   0  0  0  0  0  0  0  0  0  0  0  0
   -1.1266    0.2281    0.0000 C   0  0  0  0  0  0  0  0  0  0  0  0
    0.2972   -2.2739    0.0000 C   0  0  0  0  0  0  0  0  0  0  0  0
   -0.4078   -2.6748    0.0000 C   0  0  0  0  0  0  0  0  0  0  0  0
   -1.8592    1.4584    0.0000 C   0  0  0  0  0  0  0  0  0  0  0  0
    3.8912   -2.6748    0.0000 C   0  0  0  0  0  0  0  0  0  0  0  0
    2.4674   -2.6748    0.0000 C   0  0  0  0  0  0  0  0  0  0  0  0
   -1.8316   -0.1866    0.0000 C   0  0  0  0  0  0  0  0  0  0  0  0
   -1.8454    2.2878    0.0000 C   0  0  0  0  0  0  0  0  0  0  0  0
   -1.1266   -2.2739    0.0000 C   0  0  0  0  0  0  0  0  0  0  0  0
   -0.4216   -3.5042    0.0000 C   0  0  0  0  0  0  0  0  0  0  0  0
   -2.5642    0.2143    0.0000 C   0  0  0  0  0  0  0  0  0  0  0  0
    3.8912   -3.5042    0.0000 C   0  0  0  0  0  0  0  0  0  0  0  0
    2.4674   -3.5042    0.0000 C   0  0  0  0  0  0  0  0  0  0  0  0
   -1.8454   -3.5042    0.0000 C   0  0  0  0  0  0  0  0  0  0  0  0
   -1.8454   -2.6748    0.0000 C   0  0  0  0  0  0  0  0  0  0  0  0
   -1.1404   -3.9051    0.0000 C   0  0  0  0  0  0  0  0  0  0  0  0
    3.1724   -3.9051    0.0000 C   0  0  0  0  0  0  0  0  0  0  0  0
   -2.5642    3.5318    0.0000 C   0  0  0  0  0  0  0  0  0  0  0  0
   -3.2692    2.2878    0.0000 C   0  0  0  0  0  0  0  0  0  0  0  0
   -3.2968    3.9327    0.0000 C   0  0  0  0  0  0  0  0  0  0  0  0
   -4.0018    2.7025    0.0000 C   0  0  0  0  0  0  0  0  0  0  0  0
   -3.2968   -3.5180    0.0000 C   0  0  0  0  0  0  0  0  0  0  0  0
  1 12  1  0  0  0  0
  1 14  1  0  0  0  0
  2 13  2  0  0  0  0
  3 18  2  0  0  0  0
  4 21  2  0  0  0  0
  5 35  1  0  0  0  0
  5 43  1  0  0  0  0
  6 41  1  0  0  0  0
  6 42  1  0  0  0  0
  7 15  1  0  0  0  0
  7 18  1  0  0  0  0
  8 19  1  0  0  0  0
  8 21  1  0  0  0  0
  9 22  1  0  0  0  0
  9 25  2  0  0  0  0
 10 25  1  0  0  0  0
 10 32  2  0  0  0  0
 11 29  1  0  0  0  0
 11 39  1  0  0  0  0
 11 40  1  0  0  0  0
 12 13  1  0  0  0  0
 12 14  1  0  0  0  0
 12 16  1  0  0  0  0
 13 15  1  0  0  0  0
 15 17  1  0  0  0  0
 17 20  1  0  0  0  0
 18 19  1  0  0  0  0
 19 23  1  0  0  0  0
 20 26  2  0  0  0  0
 20 27  1  0  0  0  0
 21 22  1  0  0  0  0
 22 28  2  0  0  0  0
 23 24  1  0  0  0  0
 24 30  2  0  0  0  0
 24 31  1  0  0  0  0
 25 29  1  0  0  0  0
 26 33  1  0  0  0  0
 27 34  2  0  0  0  0
 28 32  1  0  0  0  0
 30 36  1  0  0  0  0
 31 37  2  0  0  0  0
 33 38  2  0  0  0  0
 34 38  1  0  0  0  0
 35 36  2  0  0  0  0
 35 37  1  0  0  0  0
 39 41  1  0  0  0  0
 40 42  1  0  0  0  0
M  END
> <PUBCHEM_COMPOUND_ID_TYPE>
0

> <PUBCHEM_TOTAL_CHARGE>
0

> <PUBCHEM_SUBSTANCE_ID>
310946010

> <PUBCHEM_SUBSTANCE_VERSION>
1

> <PUBCHEM_EXT_DATASOURCE_NAME>
4488

> <PUBCHEM_EXT_DATASOURCE_REGID>
SCHEMBL16124116

> <PUBCHEM_SUBSTANCE_COMMENT>
InChI=1S/C32H37N5O6/c1-32(21-43-32)29(38)26(18-22-6-4-3-5-7-22)35-31(40)27(19-23-8-10-24(41-2)11-9-23)36-30(39)25-12-13-33-28(34-25)20-37-14-16-42-17-15-37/h3-13,26-27H,14-21H2,1-2H3,(H,35,40)(H,36,39)
InChIKey=BENNZAOVXOIYET-UHFFFAOYSA-N

> <PUBCHEM_SUBSTANCE_SYNONYM>
SCHEMBL16124116

> <PUBCHEM_XREF_EXT_ID>
SCHEMBL16124116

> <PUBCHEM_EXT_DATASOURCE_URL>
https://www.surechembl.org/

> <PUBCHEM_EXT_SUBSTANCE_URL>
https://www.surechembl.org/chemical/SCHEMBL16124116

> <PUBCHEM_CID_ASSOCIATIONS>
117611981  1

> <PUBCHEM_COORDINATE_TYPE>
1
3

$$$$
