310930747
  -OEChem-07211613022D

 21 22  0     1  0  0  0  0  0999 V2000
    0.7013    0.0000    0.0000 Br  0  0  0  0  0  0  0  0  0  0  0  0
    3.5683   -2.4751    0.0000 O   0  0  0  0  0  0  0  0  0  0  0  0
    2.8464   -3.7127    0.0000 O   0  0  0  0  0  0  0  0  0  0  0  0
    4.2696   -1.2375    0.0000 O   0  5  0  0  0  0  0  0  0  0  0  0
    3.7333   -2.6195    0.0000 O   0  0  0  0  0  0  0  0  0  0  0  0
    3.5683   -1.6501    0.0000 N   0  3  0  0  0  0  0  0  0  0  0  0
    2.1451   -1.6501    0.0000 C   0  0  0  0  0  0  0  0  0  0  0  0
    2.1451   -2.4751    0.0000 C   0  0  3  0  0  0  0  0  0  0  0  0
    2.8464   -1.2375    0.0000 C   0  0  0  0  0  0  0  0  0  0  0  0
    1.4232   -2.8877    0.0000 C   0  0  0  0  0  0  0  0  0  0  0  0
    1.4232   -1.2375    0.0000 C   0  0  0  0  0  0  0  0  0  0  0  0
    2.8464   -2.8877    0.0000 C   0  0  0  0  0  0  0  0  0  0  0  0
    2.8464   -0.4125    0.0000 C   0  0  0  0  0  0  0  0  0  0  0  0
    1.4232   -0.4125    0.0000 C   0  0  0  0  0  0  0  0  0  0  0  0
    2.1451    0.0000    0.0000 C   0  0  0  0  0  0  0  0  0  0  0  0
    1.4232   -3.7127    0.0000 C   0  0  0  0  0  0  0  0  0  0  0  0
    0.7013   -2.4751    0.0000 C   0  0  0  0  0  0  0  0  0  0  0  0
    0.7013   -4.1252    0.0000 C   0  0  0  0  0  0  0  0  0  0  0  0
    0.0000   -2.8877    0.0000 C   0  0  0  0  0  0  0  0  0  0  0  0
    0.0000   -3.7127    0.0000 C   0  0  0  0  0  0  0  0  0  0  0  0
    4.2696   -2.8877    0.0000 C   0  0  0  0  0  0  0  0  0  0  0  0
  1 14  1  0  0  0  0
  2 12  1  0  0  0  0
  2 21  1  0  0  0  0
  3 12  2  0  0  0  0
  4  6  1  0  0  0  0
  5  6  2  0  0  0  0
  6  9  1  0  0  0  0
  7  8  1  0  0  0  0
  7  9  1  0  0  0  0
  7 11  2  0  0  0  0
  8 10  1  0  0  0  0
  8 12  1  0  0  0  0
  9 13  2  0  0  0  0
 10 16  2  0  0  0  0
 10 17  1  0  0  0  0
 11 14  1  0  0  0  0
 13 15  1  0  0  0  0
 14 15  2  0  0  0  0
 16 18  1  0  0  0  0
 17 19  2  0  0  0  0
 18 20  2  0  0  0  0
 19 20  1  0  0  0  0
M  CHG  2   4  -1   6   1
M  END
> <PUBCHEM_COMPOUND_ID_TYPE>
0

> <PUBCHEM_TOTAL_CHARGE>
0

> <PUBCHEM_SUBSTANCE_ID>
310930747

> <PUBCHEM_SUBSTANCE_VERSION>
1

> <PUBCHEM_EXT_DATASOURCE_NAME>
4488

> <PUBCHEM_EXT_DATASOURCE_REGID>
SCHEMBL16108044

> <PUBCHEM_SUBSTANCE_COMMENT>
InChI=1S/C15H12BrNO4/c1-21-15(18)14(10-5-3-2-4-6-10)12-9-11(16)7-8-13(12)17(19)20/h2-9,14H,1H3
InChIKey=RXXBXIZEYIXKLW-UHFFFAOYSA-N

> <PUBCHEM_SUBSTANCE_SYNONYM>
SCHEMBL16108044

> <PUBCHEM_XREF_EXT_ID>
SCHEMBL16108044

> <PUBCHEM_EXT_DATASOURCE_URL>
https://www.surechembl.org/

> <PUBCHEM_EXT_SUBSTANCE_URL>
https://www.surechembl.org/chemical/SCHEMBL16108044

> <PUBCHEM_CID_ASSOCIATIONS>
117599770  1

> <PUBCHEM_COORDINATE_TYPE>
1
3

$$$$
