310941161
  -OEChem-07211613022D

 42 46  0     1  0  0  0  0  0999 V2000
    5.1510   -1.4562    0.0000 O   0  0  0  0  0  0  0  0  0  0  0  0
    4.0208    0.4999    0.0000 O   0  0  0  0  0  0  0  0  0  0  0  0
    1.6590   -1.4417    0.0000 O   0  0  0  0  0  0  0  0  0  0  0  0
   -0.4854    0.6303    0.0000 O   0  0  0  0  0  0  0  0  0  0  0  0
   -2.6298   -1.4417    0.0000 O   0  0  0  0  0  0  0  0  0  0  0  0
   -5.4843   -1.4417    0.0000 O   0  0  0  0  0  0  0  0  0  0  0  0
    2.3835   -0.1956    0.0000 N   0  0  0  0  0  0  0  0  0  0  0  0
    0.2391   -0.6158    0.0000 N   0  0  0  0  0  0  0  0  0  0  0  0
    3.7165    2.4270    0.0000 N   0  0  0  0  0  0  0  0  0  0  0  0
    3.3688    3.1805    0.0000 N   0  0  0  0  0  0  0  0  0  0  0  0
   -1.9054   -0.1956    0.0000 N   0  0  0  0  0  0  0  0  0  0  0  0
   -4.0498   -0.6158    0.0000 N   0  0  0  0  0  0  0  0  0  0  0  0
    4.7453   -0.7317    0.0000 C   0  0  3  0  0  0  0  0  0  0  0  0
    4.0353   -0.3116    0.0000 C   0  0  0  0  0  0  0  0  0  0  0  0
    4.3541   -1.4272    0.0000 C   0  0  0  0  0  0  0  0  0  0  0  0
    3.3398   -0.7172    0.0000 C   0  0  3  0  0  0  0  0  0  0  0  0
    5.4843   -0.3116    0.0000 C   0  0  0  0  0  0  0  0  0  0  0  0
    3.3254   -1.7895    0.0000 C   0  0  0  0  0  0  0  0  0  0  0  0
    1.6880   -0.5579    0.0000 C   0  0  0  0  0  0  0  0  0  0  0  0
    0.9636   -0.1667    0.0000 C   0  0  3  0  0  0  0  0  0  0  0  0
    2.6008   -2.1952    0.0000 C   0  0  0  0  0  0  0  0  0  0  0  0
    1.6736    1.0650    0.0000 C   0  0  0  0  0  0  0  0  0  0  0  0
    2.3835    2.3111    0.0000 C   0  0  0  0  0  0  0  0  0  0  0  0
    0.9780    0.6592    0.0000 C   0  0  0  0  0  0  0  0  0  0  0  0
    3.1080    1.8909    0.0000 C   0  0  0  0  0  0  0  0  0  0  0  0
    1.6880    1.8909    0.0000 C   0  0  0  0  0  0  0  0  0  0  0  0
    2.3980    0.6592    0.0000 C   0  0  0  0  0  0  0  0  0  0  0  0
    3.1080    1.0650    0.0000 C   0  0  0  0  0  0  0  0  0  0  0  0
   -0.4854   -0.1956    0.0000 C   0  0  0  0  0  0  0  0  0  0  0  0
    2.5719    3.1225    0.0000 C   0  0  0  0  0  0  0  0  0  0  0  0
    1.8474   -1.8764    0.0000 C   0  0  0  0  0  0  0  0  0  0  0  0
    2.4995   -3.0211    0.0000 C   0  0  0  0  0  0  0  0  0  0  0  0
   -1.1664   -0.5868    0.0000 C   0  0  3  0  0  0  0  0  0  0  0  0
    1.3113   -2.4849    0.0000 C   0  0  0  0  0  0  0  0  0  0  0  0
    1.7025   -3.1805    0.0000 C   0  0  0  0  0  0  0  0  0  0  0  0
   -2.6008   -0.5579    0.0000 C   0  0  0  0  0  0  0  0  0  0  0  0
   -1.1809   -1.4272    0.0000 C   0  0  0  0  0  0  0  0  0  0  0  0
   -3.3398   -0.1811    0.0000 C   0  0  0  0  0  0  0  0  0  0  0  0
   -4.0498   -1.4127    0.0000 C   0  0  0  0  0  0  0  0  0  0  0  0
   -4.7888   -0.1811    0.0000 C   0  0  0  0  0  0  0  0  0  0  0  0
   -4.7309   -1.8185    0.0000 C   0  0  0  0  0  0  0  0  0  0  0  0
   -5.4553   -0.5723    0.0000 C   0  0  0  0  0  0  0  0  0  0  0  0
  1 13  1  0  0  0  0
  1 15  1  0  0  0  0
  2 14  2  0  0  0  0
  3 19  2  0  0  0  0
  4 29  2  0  0  0  0
  5 36  2  0  0  0  0
  6 41  1  0  0  0  0
  6 42  1  0  0  0  0
  7 16  1  0  0  0  0
  7 19  1  0  0  0  0
  8 20  1  0  0  0  0
  8 29  1  0  0  0  0
  9 10  1  0  0  0  0
  9 25  1  0  0  0  0
 10 30  2  0  0  0  0
 11 33  1  0  0  0  0
 11 36  1  0  0  0  0
 12 38  1  0  0  0  0
 12 39  1  0  0  0  0
 12 40  1  0  0  0  0
 13 14  1  0  0  0  0
 13 15  1  0  0  0  0
 13 17  1  0  0  0  0
 14 16  1  0  0  0  0
 16 18  1  0  0  0  0
 18 21  1  0  0  0  0
 19 20  1  0  0  0  0
 20 24  1  0  0  0  0
 21 31  1  0  0  0  0
 21 32  1  0  0  0  0
 22 24  1  0  0  0  0
 22 26  1  0  0  0  0
 22 27  2  0  0  0  0
 23 25  1  0  0  0  0
 23 26  2  0  0  0  0
 23 30  1  0  0  0  0
 25 28  2  0  0  0  0
 27 28  1  0  0  0  0
 29 33  1  0  0  0  0
 31 34  1  0  0  0  0
 32 35  1  0  0  0  0
 33 37  1  0  0  0  0
 34 35  1  0  0  0  0
 36 38  1  0  0  0  0
 39 41  1  0  0  0  0
 40 42  1  0  0  0  0
M  END
> <PUBCHEM_COMPOUND_ID_TYPE>
0

> <PUBCHEM_TOTAL_CHARGE>
0

> <PUBCHEM_SUBSTANCE_ID>
310941161

> <PUBCHEM_SUBSTANCE_VERSION>
1

> <PUBCHEM_EXT_DATASOURCE_NAME>
4488

> <PUBCHEM_EXT_DATASOURCE_REGID>
SCHEMBL16119121

> <PUBCHEM_SUBSTANCE_COMMENT>
InChI=1S/C30H42N6O6/c1-19(32-26(37)17-36-9-11-41-12-10-36)28(39)34-25(15-21-7-8-23-22(13-21)16-31-35-23)29(40)33-24(14-20-5-3-4-6-20)27(38)30(2)18-42-30/h7-8,13,16,19-20,24-25H,3-6,9-12,14-15,17-18H2,1-2H3,(H,31,35)(H,32,37)(H,33,40)(H,34,39)
InChIKey=UWODHVGTNZLZHO-UHFFFAOYSA-N

> <PUBCHEM_SUBSTANCE_SYNONYM>
SCHEMBL16119121

> <PUBCHEM_XREF_EXT_ID>
SCHEMBL16119121

> <PUBCHEM_EXT_DATASOURCE_URL>
https://www.surechembl.org/

> <PUBCHEM_EXT_SUBSTANCE_URL>
https://www.surechembl.org/chemical/SCHEMBL16119121

> <PUBCHEM_CID_ASSOCIATIONS>
86295283  1

> <PUBCHEM_COORDINATE_TYPE>
1
3

$$$$
