310936996
  -OEChem-07211613022D

 25 28  0     1  0  0  0  0  0999 V2000
    2.7549   -2.9403    0.0000 O   0  0  0  0  0  0  0  0  0  0  0  0
    6.8607   -2.2251    0.0000 O   0  0  0  0  0  0  0  0  0  0  0  0
    5.5892   -1.8277    0.0000 N   0  0  0  0  0  0  0  0  0  0  0  0
    5.0064   -3.9204    0.0000 N   0  0  0  0  0  0  0  0  0  0  0  0
    6.3839   -2.9138    0.0000 N   0  0  0  0  0  0  0  0  0  0  0  0
    0.8212   -3.8674    0.0000 N   0  0  3  0  0  0  0  0  0  0  0  0
    3.6025   -4.0793    0.0000 C   0  0  0  0  0  0  0  0  0  0  0  0
    3.5231   -3.2847    0.0000 C   0  0  0  0  0  0  0  0  0  0  0  0
    4.9269   -3.1257    0.0000 C   0  0  0  0  0  0  0  0  0  0  0  0
    5.5892   -2.6489    0.0000 C   0  0  0  0  0  0  0  0  0  0  0  0
    2.9138   -4.5561    0.0000 C   0  0  0  0  0  0  0  0  0  0  0  0
    6.3839   -1.5629    0.0000 C   0  0  0  0  0  0  0  0  0  0  0  0
    4.1853   -2.7549    0.0000 C   0  0  0  0  0  0  0  0  0  0  0  0
    4.3442   -4.4237    0.0000 C   0  0  0  0  0  0  0  0  0  0  0  0
    6.6223   -0.7682    0.0000 C   0  0  0  0  0  0  0  0  0  0  0  0
    2.5959   -5.2978    0.0000 C   0  0  0  0  0  0  0  0  0  0  0  0
    2.0926   -4.6356    0.0000 C   0  0  0  0  0  0  0  0  0  0  0  0
    2.0926   -3.4436    0.0000 C   0  0  3  0  0  0  0  0  0  0  0  0
    1.2980   -3.2052    0.0000 C   0  0  0  0  0  0  0  0  0  0  0  0
    2.0926   -4.2647    0.0000 C   0  0  0  0  0  0  0  0  0  0  0  0
    7.4434   -1.0331    0.0000 C   0  0  0  0  0  0  0  0  0  0  0  0
    6.8872    0.0000    0.0000 C   0  0  0  0  0  0  0  0  0  0  0  0
    5.8541   -0.5298    0.0000 C   0  0  0  0  0  0  0  0  0  0  0  0
    1.3245   -4.5296    0.0000 C   0  0  0  0  0  0  0  0  0  0  0  0
    0.0000   -3.8939    0.0000 C   0  0  0  0  0  0  0  0  0  0  0  0
  1  8  1  0  0  0  0
  1 18  1  0  0  0  0
  2  5  1  0  0  0  0
  2 12  1  0  0  0  0
  3 10  1  0  0  0  0
  3 12  2  0  0  0  0
  4  9  1  0  0  0  0
  4 14  2  0  0  0  0
  5 10  2  0  0  0  0
  6 19  1  0  0  0  0
  6 24  1  0  0  0  0
  6 25  1  0  0  0  0
  7  8  2  0  0  0  0
  7 11  1  0  0  0  0
  7 14  1  0  0  0  0
  8 13  1  0  0  0  0
  9 10  1  0  0  0  0
  9 13  2  0  0  0  0
 11 16  1  0  0  0  0
 11 17  1  0  0  0  0
 12 15  1  0  0  0  0
 15 21  1  0  0  0  0
 15 22  1  0  0  0  0
 15 23  1  0  0  0  0
 16 17  1  0  0  0  0
 18 19  1  0  0  0  0
 18 20  1  0  0  0  0
 20 24  1  0  0  0  0
M  END
> <PUBCHEM_COMPOUND_ID_TYPE>
0

> <PUBCHEM_TOTAL_CHARGE>
0

> <PUBCHEM_SUBSTANCE_ID>
310936996

> <PUBCHEM_SUBSTANCE_VERSION>
1

> <PUBCHEM_EXT_DATASOURCE_NAME>
4488

> <PUBCHEM_EXT_DATASOURCE_REGID>
SCHEMBL16114702

> <PUBCHEM_SUBSTANCE_COMMENT>
InChI=1S/C19H26N4O2/c1-19(2,3)18-21-17(22-25-18)15-9-16(14(10-20-15)12-5-6-12)24-13-7-8-23(4)11-13/h9-10,12-13H,5-8,11H2,1-4H3
InChIKey=NYWVYTLJBSZCJZ-UHFFFAOYSA-N

> <PUBCHEM_SUBSTANCE_SYNONYM>
SCHEMBL16114702

> <PUBCHEM_XREF_EXT_ID>
SCHEMBL16114702

> <PUBCHEM_EXT_DATASOURCE_URL>
https://www.surechembl.org/

> <PUBCHEM_EXT_SUBSTANCE_URL>
https://www.surechembl.org/chemical/SCHEMBL16114702

> <PUBCHEM_CID_ASSOCIATIONS>
86275983  1

> <PUBCHEM_COORDINATE_TYPE>
1
3

$$$$
