310934951
  -OEChem-07211613022D

 26 29  0     1  0  0  0  0  0999 V2000
    2.4250   -3.9000    0.0000 S   0  0  0  0  0  0  0  0  0  0  0  0
    6.7500   -0.6500    0.0000 F   0  0  0  0  0  0  0  0  0  0  0  0
    5.5750   -1.5000    0.0000 O   0  0  0  0  0  0  0  0  0  0  0  0
    5.5750   -2.9000    0.0000 O   0  0  0  0  0  0  0  0  0  0  0  0
    1.6500   -2.8250    0.0000 N   0  0  0  0  0  0  0  0  0  0  0  0
    4.3500   -2.2000    0.0000 C   0  0  3  0  0  0  0  0  0  0  0  0
    4.7250   -1.4750    0.0000 C   0  0  0  0  0  0  0  0  0  0  0  0
    3.1000   -2.6000    0.0000 C   0  0  3  0  0  0  0  0  0  0  0  0
    3.8750   -2.8750    0.0000 C   0  0  0  0  0  0  0  0  0  0  0  0
    5.1750   -2.2000    0.0000 C   0  0  0  0  0  0  0  0  0  0  0  0
    3.8750   -1.5250    0.0000 C   0  0  0  0  0  0  0  0  0  0  0  0
    2.4250   -3.0750    0.0000 C   0  0  0  0  0  0  0  0  0  0  0  0
    3.1000   -1.8000    0.0000 C   0  0  0  0  0  0  0  0  0  0  0  0
    5.7250   -1.5750    0.0000 C   0  0  0  0  0  0  0  0  0  0  0  0
    1.6500   -4.1750    0.0000 C   0  0  0  0  0  0  0  0  0  0  0  0
    1.1500   -3.4750    0.0000 C   0  0  0  0  0  0  0  0  0  0  0  0
    4.3000   -0.7750    0.0000 C   0  0  0  0  0  0  0  0  0  0  0  0
    5.9250   -0.7000    0.0000 C   0  0  0  0  0  0  0  0  0  0  0  0
    4.6500   -0.0250    0.0000 C   0  0  0  0  0  0  0  0  0  0  0  0
    5.5000    0.0000    0.0000 C   0  0  0  0  0  0  0  0  0  0  0  0
    1.2750   -4.9250    0.0000 C   0  0  0  0  0  0  0  0  0  0  0  0
    0.3250   -3.5750    0.0000 C   0  0  0  0  0  0  0  0  0  0  0  0
    5.9999   -2.1000    0.0000 C   0  0  0  0  0  0  0  0  0  0  0  0
    0.5000   -5.0000    0.0000 C   0  0  0  0  0  0  0  0  0  0  0  0
    0.0000   -4.3000    0.0000 C   0  0  0  0  0  0  0  0  0  0  0  0
    6.4000   -1.5000    0.0000 C   0  0  0  0  0  0  0  0  0  0  0  0
  1 12  1  0  0  0  0
  1 15  1  0  0  0  0
  2 18  1  0  0  0  0
  3 10  1  0  0  0  0
  3 26  1  0  0  0  0
  4 10  2  0  0  0  0
  5 12  2  0  0  0  0
  5 16  1  0  0  0  0
  6  7  1  0  0  0  0
  6  9  1  0  0  0  0
  6 10  1  0  0  0  0
  6 11  1  0  0  0  0
  7 14  1  0  0  0  0
  7 17  2  0  0  0  0
  8  9  1  0  0  0  0
  8 12  1  0  0  0  0
  8 13  1  0  0  0  0
 11 13  1  0  0  0  0
 14 18  2  0  0  0  0
 14 23  1  0  0  0  0
 15 16  2  0  0  0  0
 15 21  1  0  0  0  0
 16 22  1  0  0  0  0
 17 19  1  0  0  0  0
 18 20  1  0  0  0  0
 19 20  2  0  0  0  0
 21 24  2  0  0  0  0
 22 25  2  0  0  0  0
 24 25  1  0  0  0  0
M  END
> <PUBCHEM_COMPOUND_ID_TYPE>
0

> <PUBCHEM_TOTAL_CHARGE>
0

> <PUBCHEM_SUBSTANCE_ID>
310934951

> <PUBCHEM_SUBSTANCE_VERSION>
1

> <PUBCHEM_EXT_DATASOURCE_NAME>
4488

> <PUBCHEM_EXT_DATASOURCE_REGID>
SCHEMBL16112467

> <PUBCHEM_SUBSTANCE_COMMENT>
InChI=1S/C21H20FNO2S/c1-13-15(6-5-7-16(13)22)21(20(24)25-2)11-10-14(12-21)19-23-17-8-3-4-9-18(17)26-19/h3-9,14H,10-12H2,1-2H3
InChIKey=DWUGXYRHUNVCEI-UHFFFAOYSA-N

> <PUBCHEM_SUBSTANCE_SYNONYM>
SCHEMBL16112467

> <PUBCHEM_XREF_EXT_ID>
SCHEMBL16112467

> <PUBCHEM_EXT_DATASOURCE_URL>
https://www.surechembl.org/

> <PUBCHEM_EXT_SUBSTANCE_URL>
https://www.surechembl.org/chemical/SCHEMBL16112467

> <PUBCHEM_CID_ASSOCIATIONS>
117603073  1

> <PUBCHEM_COORDINATE_TYPE>
1
3

$$$$
