310947143
  -OEChem-07211613022D

 19 20  0     1  0  0  0  0  0999 V2000
   -2.5375   17.0954    0.0000 O   0  0  0  0  0  0  0  0  0  0  0  0
    0.3700   14.1946    0.0000 O   0  0  0  0  0  0  0  0  0  0  0  0
    2.0200   12.7656    0.0000 O   0  0  0  0  0  0  0  0  0  0  0  0
   -1.0384   14.7779    0.0000 N   0  0  0  0  0  0  0  0  0  0  0  0
   -2.5375   14.6204    0.0000 N   0  0  0  0  0  0  0  0  0  0  0  0
   -1.0384   16.1128    0.0000 N   0  0  0  0  0  0  0  0  0  0  0  0
   -3.2519   15.8579    0.0000 N   0  0  0  0  0  0  0  0  0  0  0  0
   -3.9664   14.6204    0.0000 N   0  0  0  0  0  0  0  0  0  0  0  0
   -1.8230   15.0329    0.0000 C   0  0  3  0  0  0  0  0  0  0  0  0
   -1.8230   15.8579    0.0000 C   0  0  3  0  0  0  0  0  0  0  0  0
   -2.5375   16.2704    0.0000 C   0  0  0  0  0  0  0  0  0  0  0  0
   -0.5535   15.4454    0.0000 C   0  0  0  0  0  0  0  0  0  0  0  0
   -3.2519   15.0329    0.0000 C   0  0  0  0  0  0  0  0  0  0  0  0
   -0.4550   14.1946    0.0000 C   0  0  0  0  0  0  0  0  0  0  0  0
    0.7825   13.4801    0.0000 C   0  0  0  0  0  0  0  0  0  0  0  0
    1.6075   13.4801    0.0000 C   0  0  0  0  0  0  0  0  0  0  0  0
    2.8450   12.7656    0.0000 C   0  0  0  0  0  0  0  0  0  0  0  0
    2.8450   13.5906    0.0000 C   0  0  0  0  0  0  0  0  0  0  0  0
    2.8450   11.9406    0.0000 C   0  0  0  0  0  0  0  0  0  0  0  0
  1 11  2  0  0  0  0
  2 14  1  0  0  0  0
  2 15  1  0  0  0  0
  3 16  1  0  0  0  0
  3 17  1  0  0  0  0
  4  9  1  0  0  0  0
  4 12  1  0  0  0  0
  4 14  1  0  0  0  0
  5  9  1  0  0  0  0
  5 13  2  0  0  0  0
  6 10  1  0  0  0  0
  6 12  2  0  0  0  0
  7 11  1  0  0  0  0
  7 13  1  0  0  0  0
  8 13  1  0  0  0  0
  9 10  1  0  0  0  0
 10 11  1  0  0  0  0
 15 16  1  0  0  0  0
 17 18  1  0  0  0  0
 17 19  1  0  0  0  0
M  END
> <PUBCHEM_COMPOUND_ID_TYPE>
0

> <PUBCHEM_TOTAL_CHARGE>
0

> <PUBCHEM_SUBSTANCE_ID>
310947143

> <PUBCHEM_SUBSTANCE_VERSION>
1

> <PUBCHEM_EXT_DATASOURCE_NAME>
4488

> <PUBCHEM_EXT_DATASOURCE_REGID>
SCHEMBL16125297

> <PUBCHEM_SUBSTANCE_COMMENT>
InChI=1S/C11H19N5O3/c1-7(2)19-4-3-18-6-16-5-13-8-9(16)14-11(12)15-10(8)17/h5,7-9H,3-4,6H2,1-2H3,(H3,12,14,15,17)
InChIKey=WTMCNVHWEGIFHP-UHFFFAOYSA-N

> <PUBCHEM_SUBSTANCE_SYNONYM>
SCHEMBL16125297

> <PUBCHEM_XREF_EXT_ID>
SCHEMBL16125297

> <PUBCHEM_EXT_DATASOURCE_URL>
https://www.surechembl.org/

> <PUBCHEM_EXT_SUBSTANCE_URL>
https://www.surechembl.org/chemical/SCHEMBL16125297

> <PUBCHEM_CID_ASSOCIATIONS>
117612979  1

> <PUBCHEM_COORDINATE_TYPE>
1
3

> <PUBCHEM_BONDANNOTATIONS>
17  18  3
17  19  3

$$$$
