310946505
  -OEChem-07211613022D

 18 17  0     1  0  0  0  0  0999 V2000
   -8.4560    5.9471    0.0000 O   0  0  0  0  0  0  0  0  0  0  0  0
   -9.8850    5.9471    0.0000 O   0  0  0  0  0  0  0  0  0  0  0  0
   -9.5403    2.5043    0.0000 O   0  0  0  0  0  0  0  0  0  0  0  0
  -10.2548    3.7418    0.0000 O   0  0  0  0  0  0  0  0  0  0  0  0
   -7.2321    7.7544    0.0000 O   0  0  0  0  0  0  0  0  0  0  0  0
   -9.1705    4.7096    0.0000 N   0  0  0  0  0  0  0  0  0  0  0  0
   -8.9570    3.9127    0.0000 C   0  0  3  0  0  0  0  0  0  0  0  0
   -9.5403    3.3293    0.0000 C   0  0  0  0  0  0  0  0  0  0  0  0
   -9.1705    5.5346    0.0000 C   0  0  0  0  0  0  0  0  0  0  0  0
   -8.1601    3.6992    0.0000 C   0  0  0  0  0  0  0  0  0  0  0  0
   -7.9466    2.9023    0.0000 C   0  0  0  0  0  0  0  0  0  0  0  0
   -8.2425    6.7440    0.0000 C   0  0  0  0  0  0  0  0  0  0  0  0
   -7.4456    6.9575    0.0000 C   0  0  0  0  0  0  0  0  0  0  0  0
   -7.1216    2.9023    0.0000 C   0  0  0  0  0  0  0  0  0  0  0  0
   -8.3591    2.1878    0.0000 C   0  0  0  0  0  0  0  0  0  0  0  0
   -6.4352    7.9679    0.0000 C   0  0  0  0  0  0  0  0  0  0  0  0
   -6.2217    8.7648    0.0000 C   0  0  0  0  0  0  0  0  0  0  0  0
   -5.4248    8.9783    0.0000 C   0  0  0  0  0  0  0  0  0  0  0  0
  1  9  1  0  0  0  0
  1 12  1  0  0  0  0
  2  9  2  0  0  0  0
  3  8  2  0  0  0  0
  4  8  1  0  0  0  0
  5 13  1  0  0  0  0
  5 16  1  0  0  0  0
  6  7  1  0  0  0  0
  6  9  1  0  0  0  0
  7  8  1  0  0  0  0
  7 10  1  0  0  0  0
 10 11  1  0  0  0  0
 11 14  1  0  0  0  0
 11 15  1  0  0  0  0
 12 13  1  0  0  0  0
 16 17  1  0  0  0  0
 17 18  1  0  0  0  0
M  END
> <PUBCHEM_COMPOUND_ID_TYPE>
0

> <PUBCHEM_TOTAL_CHARGE>
0

> <PUBCHEM_SUBSTANCE_ID>
310946505

> <PUBCHEM_SUBSTANCE_VERSION>
1

> <PUBCHEM_EXT_DATASOURCE_NAME>
4488

> <PUBCHEM_EXT_DATASOURCE_REGID>
SCHEMBL16124626

> <PUBCHEM_SUBSTANCE_COMMENT>
InChI=1S/C12H23NO5/c1-4-5-17-6-7-18-12(16)13-10(11(14)15)8-9(2)3/h9-10H,4-8H2,1-3H3,(H,13,16)(H,14,15)
InChIKey=ACHKLLNQYQUEPG-UHFFFAOYSA-N

> <PUBCHEM_SUBSTANCE_SYNONYM>
SCHEMBL16124626

> <PUBCHEM_XREF_EXT_ID>
SCHEMBL16124626

> <PUBCHEM_EXT_DATASOURCE_URL>
https://www.surechembl.org/

> <PUBCHEM_EXT_SUBSTANCE_URL>
https://www.surechembl.org/chemical/SCHEMBL16124626

> <PUBCHEM_CID_ASSOCIATIONS>
117612410  1

> <PUBCHEM_COORDINATE_TYPE>
1
3

$$$$
