310936310
  -OEChem-07211613022D

 33 37  0     1  0  0  0  0  0999 V2000
    0.9532    2.7886    0.0000 F   0  0  0  0  0  0  0  0  0  0  0  0
    8.5546    3.1870    0.0000 F   0  0  0  0  0  0  0  0  0  0  0  0
    4.4496    4.6724    0.0000 F   0  0  0  0  0  0  0  0  0  0  0  0
    3.5504    3.5619    0.0000 F   0  0  0  0  0  0  0  0  0  0  0  0
    4.7819    2.4537    0.0000 O   0  0  0  0  0  0  0  0  0  0  0  0
    1.5938    0.3979    0.0000 O   0  0  0  0  0  0  0  0  0  0  0  0
    0.5833    1.4083    0.0000 N   0  0  0  0  0  0  0  0  0  0  0  0
    5.7319    3.6341    0.0000 N   0  0  3  0  0  0  0  0  0  0  0  0
    0.0000    0.8250    0.0000 C   0  0  0  0  0  0  0  0  0  0  0  0
   -0.8250    0.0000    0.0000 C   0  0  0  0  0  0  0  0  0  0  0  0
   -0.1819    0.1814    0.0000 C   0  0  0  0  0  0  0  0  0  0  0  0
    0.0000    0.0000    0.0000 C   0  0  0  0  0  0  0  0  0  0  0  0
   -0.8250    0.8250    0.0000 C   0  0  0  0  0  0  0  0  0  0  0  0
    1.3802    1.1948    0.0000 C   0  0  0  0  0  0  0  0  0  0  0  0
    1.9636    1.7782    0.0000 C   0  0  0  0  0  0  0  0  0  0  0  0
    3.3438    2.1481    0.0000 C   0  0  0  0  0  0  0  0  0  0  0  0
    4.1407    1.9345    0.0000 C   0  0  0  0  0  0  0  0  0  0  0  0
    5.4738    2.0044    0.0000 C   0  0  0  0  0  0  0  0  0  0  0  0
    6.2440    2.3000    0.0000 C   0  0  0  0  0  0  0  0  0  0  0  0
    2.7605    1.5647    0.0000 C   0  0  0  0  0  0  0  0  0  0  0  0
    1.7501    2.5751    0.0000 C   0  0  0  0  0  0  0  0  0  0  0  0
    6.3731    3.1148    0.0000 C   0  0  0  0  0  0  0  0  0  0  0  0
    4.4364    1.1643    0.0000 C   0  0  0  0  0  0  0  0  0  0  0  0
    5.2603    1.2075    0.0000 C   0  0  0  0  0  0  0  0  0  0  0  0
    3.1303    2.9450    0.0000 C   0  0  0  0  0  0  0  0  0  0  0  0
    2.3335    3.1585    0.0000 C   0  0  0  0  0  0  0  0  0  0  0  0
    6.8852    1.7808    0.0000 C   0  0  0  0  0  0  0  0  0  0  0  0
    7.1433    3.4106    0.0000 C   0  0  0  0  0  0  0  0  0  0  0  0
    7.7844    2.8913    0.0000 C   0  0  0  0  0  0  0  0  0  0  0  0
    7.6554    2.0765    0.0000 C   0  0  0  0  0  0  0  0  0  0  0  0
    4.9617    3.3384    0.0000 C   0  0  0  0  0  0  0  0  0  0  0  0
    5.8610    4.4489    0.0000 C   0  0  0  0  0  0  0  0  0  0  0  0
    4.3206    3.8576    0.0000 C   0  0  0  0  0  0  0  0  0  0  0  0
  1 21  1  0  0  0  0
  2 29  1  0  0  0  0
  3 33  1  0  0  0  0
  4 33  1  0  0  0  0
  5 17  1  0  0  0  0
  5 18  1  0  0  0  0
  6 14  2  0  0  0  0
  7  9  1  0  0  0  0
  7 14  1  0  0  0  0
  8 22  1  0  0  0  0
  8 31  1  0  0  0  0
  8 32  1  0  0  0  0
  9 11  1  0  0  0  0
  9 12  1  0  0  0  0
  9 13  1  0  0  0  0
 10 11  1  0  0  0  0
 10 12  1  0  0  0  0
 10 13  1  0  0  0  0
 14 15  1  0  0  0  0
 15 20  2  0  0  0  0
 15 21  1  0  0  0  0
 16 17  1  0  0  0  0
 16 20  1  0  0  0  0
 16 25  2  0  0  0  0
 17 23  2  0  0  0  0
 18 19  1  0  0  0  0
 18 24  2  0  0  0  0
 19 22  2  0  0  0  0
 19 27  1  0  0  0  0
 21 26  2  0  0  0  0
 22 28  1  0  0  0  0
 23 24  1  0  0  0  0
 25 26  1  0  0  0  0
 27 30  2  0  0  0  0
 28 29  2  0  0  0  0
 29 30  1  0  0  0  0
 31 33  1  0  0  0  0
M  END
> <PUBCHEM_COMPOUND_ID_TYPE>
0

> <PUBCHEM_TOTAL_CHARGE>
0

> <PUBCHEM_SUBSTANCE_ID>
310936310

> <PUBCHEM_SUBSTANCE_VERSION>
1

> <PUBCHEM_EXT_DATASOURCE_NAME>
4488

> <PUBCHEM_EXT_DATASOURCE_REGID>
SCHEMBL16113936

> <PUBCHEM_SUBSTANCE_COMMENT>
InChI=1S/C25H22F4N2O2/c1-31(13-23(28)29)20-9-16(26)3-4-17(20)22-7-6-21(33-22)15-2-5-19(27)18(8-15)24(32)30-25-10-14(11-25)12-25/h2-9,14,23H,10-13H2,1H3,(H,30,32)
InChIKey=OXHSEOURFOGQFK-UHFFFAOYSA-N

> <PUBCHEM_SUBSTANCE_SYNONYM>
SCHEMBL16113936

> <PUBCHEM_XREF_EXT_ID>
SCHEMBL16113936

> <PUBCHEM_EXT_DATASOURCE_URL>
https://www.surechembl.org/

> <PUBCHEM_EXT_SUBSTANCE_URL>
https://www.surechembl.org/chemical/SCHEMBL16113936

> <PUBCHEM_CID_ASSOCIATIONS>
117604254  1

> <PUBCHEM_COORDINATE_TYPE>
1
3

$$$$
