310929012
  -OEChem-07211613022D

 15 16  0     1  0  0  0  0  0999 V2000
    2.2247    0.8320    0.0000 O   0  0  0  0  0  0  0  0  0  0  0  0
   -1.7652    0.0334    0.0000 O   0  0  0  0  0  0  0  0  0  0  0  0
    0.8344    1.2438    0.0000 O   0  0  0  0  0  0  0  0  0  0  0  0
    0.3782   -0.3791    0.0000 C   0  0  0  0  0  0  0  0  0  0  0  0
    1.1628   -0.1242    0.0000 C   0  0  3  0  0  0  0  0  0  0  0  0
    0.3782   -1.2041    0.0000 C   0  0  0  0  0  0  0  0  0  0  0  0
   -0.3363    0.0334    0.0000 C   0  0  0  0  0  0  0  0  0  0  0  0
    1.6478   -0.7916    0.0000 C   0  0  0  0  0  0  0  0  0  0  0  0
    1.1628   -1.4590    0.0000 C   0  0  0  0  0  0  0  0  0  0  0  0
    1.4178    0.6605    0.0000 C   0  0  0  0  0  0  0  0  0  0  0  0
   -1.0507   -0.3791    0.0000 C   0  0  0  0  0  0  0  0  0  0  0  0
   -0.3363   -1.6166    0.0000 C   0  0  0  0  0  0  0  0  0  0  0  0
   -1.0507   -1.2041    0.0000 C   0  0  0  0  0  0  0  0  0  0  0  0
    2.4797    1.6166    0.0000 C   0  0  0  0  0  0  0  0  0  0  0  0
   -2.4797   -0.3791    0.0000 C   0  0  0  0  0  0  0  0  0  0  0  0
  1 10  1  0  0  0  0
  1 14  1  0  0  0  0
  2 11  1  0  0  0  0
  2 15  1  0  0  0  0
  3 10  2  0  0  0  0
  4  5  1  0  0  0  0
  4  6  2  0  0  0  0
  4  7  1  0  0  0  0
  5  8  1  0  0  0  0
  5 10  1  0  0  0  0
  6  9  1  0  0  0  0
  6 12  1  0  0  0  0
  7 11  2  0  0  0  0
  8  9  1  0  0  0  0
 11 13  1  0  0  0  0
 12 13  2  0  0  0  0
M  END
> <PUBCHEM_COMPOUND_ID_TYPE>
0

> <PUBCHEM_TOTAL_CHARGE>
0

> <PUBCHEM_SUBSTANCE_ID>
310929012

> <PUBCHEM_SUBSTANCE_VERSION>
1

> <PUBCHEM_EXT_DATASOURCE_NAME>
11752

> <PUBCHEM_EXT_DATASOURCE_REGID>
BD328149

> <PUBCHEM_SUBSTANCE_SYNONYM>
58491-00-2
Methyl 6-methoxy-2,3-dihydro-1H-indene-1-carboxylate

> <PUBCHEM_GENERIC_REGISTRY_NAME>
58491-00-2

> <PUBCHEM_XREF_EXT_ID>
BD328149

> <PUBCHEM_EXT_DATASOURCE_URL>
http://www.bidepharmatech.com/en/index.html

> <PUBCHEM_EXT_SUBSTANCE_URL>
http://www.bidepharmatech.com/en/goodsview_goodscode_BD328149.html

> <PUBCHEM_CID_ASSOCIATIONS>
14843791  1

> <PUBCHEM_COORDINATE_TYPE>
1
3

$$$$
