310939405
  -OEChem-07211613022D

 41 47  0     1  0  0  0  0  0999 V2000
   -0.0101    1.8068    0.0000 O   0  0  0  0  0  0  0  0  0  0  0  0
   -4.6768    1.8068    0.0000 O   0  0  0  0  0  0  0  0  0  0  0  0
   -2.3434   -0.5266    0.0000 C   0  0  3  0  0  0  0  0  0  0  0  0
   -3.0579   -0.9392    0.0000 C   0  0  0  0  0  0  0  0  0  0  0  0
   -1.6290   -0.9392    0.0000 C   0  0  0  0  0  0  0  0  0  0  0  0
   -3.0579   -1.7641    0.0000 C   0  0  0  0  0  0  0  0  0  0  0  0
   -1.6290   -1.7641    0.0000 C   0  0  0  0  0  0  0  0  0  0  0  0
   -1.7601    0.0567    0.0000 C   0  0  0  0  0  0  0  0  0  0  0  0
   -2.9268    0.0567    0.0000 C   0  0  0  0  0  0  0  0  0  0  0  0
   -3.7724   -0.5266    0.0000 C   0  0  0  0  0  0  0  0  0  0  0  0
   -0.9145   -0.5266    0.0000 C   0  0  0  0  0  0  0  0  0  0  0  0
   -3.7724   -2.1766    0.0000 C   0  0  0  0  0  0  0  0  0  0  0  0
   -0.9145   -2.1766    0.0000 C   0  0  0  0  0  0  0  0  0  0  0  0
   -0.9632   -0.1568    0.0000 C   0  0  0  0  0  0  0  0  0  0  0  0
   -1.9736    0.8536    0.0000 C   0  0  0  0  0  0  0  0  0  0  0  0
   -2.7132    0.8536    0.0000 C   0  0  0  0  0  0  0  0  0  0  0  0
   -3.7237   -0.1568    0.0000 C   0  0  0  0  0  0  0  0  0  0  0  0
   -4.4868   -0.9392    0.0000 C   0  0  0  0  0  0  0  0  0  0  0  0
   -0.2000   -0.9392    0.0000 C   0  0  0  0  0  0  0  0  0  0  0  0
   -4.4868   -1.7641    0.0000 C   0  0  0  0  0  0  0  0  0  0  0  0
   -0.2000   -1.7641    0.0000 C   0  0  0  0  0  0  0  0  0  0  0  0
   -0.3799    0.4265    0.0000 C   0  0  0  0  0  0  0  0  0  0  0  0
   -1.3903    1.4369    0.0000 C   0  0  0  0  0  0  0  0  0  0  0  0
   -3.2966    1.4369    0.0000 C   0  0  0  0  0  0  0  0  0  0  0  0
   -4.3070    0.4265    0.0000 C   0  0  0  0  0  0  0  0  0  0  0  0
   -0.5934    1.2234    0.0000 C   0  0  0  0  0  0  0  0  0  0  0  0
   -4.0935    1.2234    0.0000 C   0  0  0  0  0  0  0  0  0  0  0  0
    0.7868    1.5932    0.0000 C   0  0  0  0  0  0  0  0  0  0  0  0
    1.0004    0.7963    0.0000 C   0  0  0  0  0  0  0  0  0  0  0  0
    1.3703    2.1766    0.0000 C   0  0  0  0  0  0  0  0  0  0  0  0
    2.3806    1.1663    0.0000 C   0  0  3  0  0  0  0  0  0  0  0  0
   -5.8775    1.8068    0.0000 C   0  0  0  0  0  0  0  0  0  0  0  0
    1.7972    0.5828    0.0000 C   0  0  0  0  0  0  0  0  0  0  0  0
    2.1670    1.9631    0.0000 C   0  0  0  0  0  0  0  0  0  0  0  0
    3.0891    0.9527    0.0000 C   0  0  0  0  0  0  0  0  0  0  0  0
    3.3026    0.1558    0.0000 C   0  0  0  0  0  0  0  0  0  0  0  0
    3.6725    1.5361    0.0000 C   0  0  0  0  0  0  0  0  0  0  0  0
    4.6829    0.5256    0.0000 C   0  0  3  0  0  0  0  0  0  0  0  0
    4.0995   -0.0577    0.0000 C   0  0  0  0  0  0  0  0  0  0  0  0
    4.4693    1.3225    0.0000 C   0  0  0  0  0  0  0  0  0  0  0  0
    5.8775    0.1575    0.0000 C   0  0  0  0  0  0  0  0  0  0  0  0
  1 26  1  0  0  0  0
  1 28  1  0  0  0  0
  2 27  1  0  0  0  0
  2 32  1  0  0  0  0
  3  4  1  0  0  0  0
  3  5  1  0  0  0  0
  3  8  1  0  0  0  0
  3  9  1  0  0  0  0
  4  6  1  0  0  0  0
  4 10  2  0  0  0  0
  5  7  2  0  0  0  0
  5 11  1  0  0  0  0
  6  7  1  0  0  0  0
  6 12  2  0  0  0  0
  7 13  1  0  0  0  0
  8 14  2  0  0  0  0
  8 15  1  0  0  0  0
  9 16  2  0  0  0  0
  9 17  1  0  0  0  0
 10 18  1  0  0  0  0
 11 19  2  0  0  0  0
 12 20  1  0  0  0  0
 13 21  2  0  0  0  0
 14 22  1  0  0  0  0
 15 23  2  0  0  0  0
 16 24  1  0  0  0  0
 17 25  2  0  0  0  0
 18 20  2  0  0  0  0
 19 21  1  0  0  0  0
 22 26  2  0  0  0  0
 23 26  1  0  0  0  0
 24 27  2  0  0  0  0
 25 27  1  0  0  0  0
 28 29  2  0  0  0  0
 28 30  1  0  0  0  0
 29 33  1  0  0  0  0
 30 34  2  0  0  0  0
 31 33  1  0  0  0  0
 31 34  1  0  0  0  0
 31 35  1  0  0  0  0
 35 36  2  0  0  0  0
 35 37  1  0  0  0  0
 36 39  1  0  0  0  0
 37 40  2  0  0  0  0
 38 39  1  0  0  0  0
 38 40  1  0  0  0  0
 38 41  1  0  0  0  0
M  END
> <PUBCHEM_COMPOUND_ID_TYPE>
0

> <PUBCHEM_TOTAL_CHARGE>
0

> <PUBCHEM_SUBSTANCE_ID>
310939405

> <PUBCHEM_SUBSTANCE_VERSION>
1

> <PUBCHEM_EXT_DATASOURCE_NAME>
4488

> <PUBCHEM_EXT_DATASOURCE_REGID>
SCHEMBL16117326

> <PUBCHEM_SUBSTANCE_COMMENT>
InChI=1S/C39H34O2/c1-27-11-13-28(14-12-27)29-15-21-33(22-16-29)41-34-25-19-31(20-26-34)39(30-17-23-32(40-2)24-18-30)37-9-5-3-7-35(37)36-8-4-6-10-38(36)39/h3-11,13-15,17-27,29H,12,16H2,1-2H3
InChIKey=VCSQYCIUSWUXIY-UHFFFAOYSA-N

> <PUBCHEM_SUBSTANCE_SYNONYM>
SCHEMBL16117326

> <PUBCHEM_XREF_EXT_ID>
SCHEMBL16117326

> <PUBCHEM_EXT_DATASOURCE_URL>
https://www.surechembl.org/

> <PUBCHEM_EXT_SUBSTANCE_URL>
https://www.surechembl.org/chemical/SCHEMBL16117326

> <PUBCHEM_CID_ASSOCIATIONS>
117606732  1

> <PUBCHEM_COORDINATE_TYPE>
1
3

$$$$
