310946826
  -OEChem-07211613022D

 57 61  0     1  0  0  0  0  0999 V2000
    0.5058    1.3417    0.0000 O   0  0  0  0  0  0  0  0  0  0  0  0
   -0.3192    2.7707    0.0000 O   0  0  0  0  0  0  0  0  0  0  0  0
   -4.2867    4.2698    0.0000 N   0  0  0  0  0  0  0  0  0  0  0  0
   -2.9518    4.2698    0.0000 N   0  0  0  0  0  0  0  0  0  0  0  0
   -4.9541    4.7547    0.0000 N   0  0  0  0  0  0  0  0  0  0  0  0
   -4.0317    3.4852    0.0000 N   0  0  0  0  0  0  0  0  0  0  0  0
   -3.4617    6.2538    0.0000 N   0  0  0  0  0  0  0  0  0  0  0  0
   -0.1617    6.2538    0.0000 N   0  0  3  0  0  0  0  0  0  0  0  0
   -1.5567    2.0562    0.0000 N   0  0  0  0  0  0  0  0  0  0  0  0
   -3.6192    4.7547    0.0000 C   0  0  0  0  0  0  0  0  0  0  0  0
   -3.8742    5.5393    0.0000 C   0  0  0  0  0  0  0  0  0  0  0  0
   -4.6992    5.5393    0.0000 C   0  0  0  0  0  0  0  0  0  0  0  0
   -3.2067    3.4852    0.0000 C   0  0  0  0  0  0  0  0  0  0  0  0
   -2.6367    6.2538    0.0000 C   0  0  0  0  0  0  0  0  0  0  0  0
   -2.7942    2.7707    0.0000 C   0  0  3  0  0  0  0  0  0  0  0  0
   -1.3992    5.5393    0.0000 C   0  0  0  0  0  0  0  0  0  0  0  0
   -0.9867    6.2538    0.0000 C   0  0  0  0  0  0  0  0  0  0  0  0
    1.9347    1.3417    0.0000 C   0  0  0  0  0  0  0  0  0  0  0  0
   -2.2242    5.5393    0.0000 C   0  0  0  0  0  0  0  0  0  0  0  0
    1.2202    1.7542    0.0000 C   0  0  0  0  0  0  0  0  0  0  0  0
   -2.2242    6.9683    0.0000 C   0  0  0  0  0  0  0  0  0  0  0  0
    1.9347    0.5167    0.0000 C   0  0  0  0  0  0  0  0  0  0  0  0
   -5.1117    6.2538    0.0000 C   0  0  0  0  0  0  0  0  0  0  0  0
    2.6492    2.5792    0.0000 C   0  0  0  0  0  0  0  0  0  0  0  0
   -1.3992    6.9683    0.0000 C   0  0  0  0  0  0  0  0  0  0  0  0
    2.6492    1.7542    0.0000 C   0  0  0  0  0  0  0  0  0  0  0  0
   -0.5742    4.9842    0.0000 C   0  0  0  0  0  0  0  0  0  0  0  0
    3.3636    2.9917    0.0000 C   0  0  0  0  0  0  0  0  0  0  0  0
   -1.9692    2.7707    0.0000 C   0  0  0  0  0  0  0  0  0  0  0  0
    0.0933    5.4692    0.0000 C   0  0  0  0  0  0  0  0  0  0  0  0
    1.2202    2.5792    0.0000 C   0  0  0  0  0  0  0  0  0  0  0  0
    1.9347    2.9917    0.0000 C   0  0  0  0  0  0  0  0  0  0  0  0
   -0.3192    1.3417    0.0000 C   0  0  3  0  0  0  0  0  0  0  0  0
   -3.2067    2.0562    0.0000 C   0  0  0  0  0  0  0  0  0  0  0  0
   -0.7317    2.0562    0.0000 C   0  0  0  0  0  0  0  0  0  0  0  0
    0.2508    6.9683    0.0000 C   0  0  0  0  0  0  0  0  0  0  0  0
    1.9347   -0.3083    0.0000 C   0  0  0  0  0  0  0  0  0  0  0  0
    1.2202    0.1042    0.0000 C   0  0  0  0  0  0  0  0  0  0  0  0
    2.6492    0.1042    0.0000 C   0  0  0  0  0  0  0  0  0  0  0  0
    4.0781    3.4042    0.0000 C   0  0  0  0  0  0  0  0  0  0  0  0
    2.9511    3.7062    0.0000 C   0  0  0  0  0  0  0  0  0  0  0  0
    4.0781    2.5792    0.0000 C   0  0  0  0  0  0  0  0  0  0  0  0
   -0.7317    0.6273    0.0000 C   0  0  0  0  0  0  0  0  0  0  0  0
   -0.1617    7.6827    0.0000 C   0  0  0  0  0  0  0  0  0  0  0  0
    2.6492   -0.7208    0.0000 C   0  0  0  0  0  0  0  0  0  0  0  0
   -0.3192   -0.0872    0.0000 C   0  0  0  0  0  0  0  0  0  0  0  0
    3.8646    4.2011    0.0000 C   0  0  0  0  0  0  0  0  0  0  0  0
    0.2508    8.3972    0.0000 C   0  0  0  0  0  0  0  0  0  0  0  0
   -0.7317   -0.8017    0.0000 C   0  0  0  0  0  0  0  0  0  0  0  0
   -0.1617    9.1117    0.0000 C   0  0  0  0  0  0  0  0  0  0  0  0
   -0.3192   -1.5161    0.0000 C   0  0  0  0  0  0  0  0  0  0  0  0
    0.2508    9.8261    0.0000 C   0  0  0  0  0  0  0  0  0  0  0  0
   -0.7317   -2.2306    0.0000 C   0  0  0  0  0  0  0  0  0  0  0  0
   -0.1617   10.5406    0.0000 C   0  0  0  0  0  0  0  0  0  0  0  0
   -0.3192   -2.9451    0.0000 C   0  0  0  0  0  0  0  0  0  0  0  0
    0.2508   11.2551    0.0000 C   0  0  0  0  0  0  0  0  0  0  0  0
   -0.1617   11.9696    0.0000 C   0  0  0  0  0  0  0  0  0  0  0  0
  1 20  1  0  0  0  0
  1 33  1  0  0  0  0
  2 35  2  0  0  0  0
  3  5  1  0  0  0  0
  3  6  1  0  0  0  0
  3 10  1  0  0  0  0
  4 10  2  0  0  0  0
  4 13  1  0  0  0  0
  5 12  2  0  0  0  0
  6 13  2  0  0  0  0
  7 11  2  0  0  0  0
  7 14  1  0  0  0  0
  8 17  1  0  0  0  0
  8 30  1  0  0  0  0
  8 36  1  0  0  0  0
  9 29  1  0  0  0  0
  9 35  1  0  0  0  0
 10 11  1  0  0  0  0
 11 12  1  0  0  0  0
 12 23  1  0  0  0  0
 13 15  1  0  0  0  0
 14 19  1  0  0  0  0
 14 21  2  0  0  0  0
 15 29  1  0  0  0  0
 15 34  1  0  0  0  0
 16 17  1  0  0  0  0
 16 19  2  0  0  0  0
 16 27  1  0  0  0  0
 17 25  2  0  0  0  0
 18 20  2  0  0  0  0
 18 22  1  0  0  0  0
 18 26  1  0  0  0  0
 20 31  1  0  0  0  0
 21 25  1  0  0  0  0
 22 37  1  0  0  0  0
 22 38  1  0  0  0  0
 22 39  1  0  0  0  0
 24 26  2  0  0  0  0
 24 28  1  0  0  0  0
 24 32  1  0  0  0  0
 27 30  1  0  0  0  0
 28 40  1  0  0  0  0
 28 41  1  0  0  0  0
 28 42  1  0  0  0  0
 31 32  2  0  0  0  0
 33 35  1  0  0  0  0
 33 43  1  0  0  0  0
 36 44  1  0  0  0  0
 37 45  1  0  0  0  0
 40 47  1  0  0  0  0
 43 46  1  0  0  0  0
 44 48  1  0  0  0  0
 46 49  1  0  0  0  0
 48 50  1  0  0  0  0
 49 51  1  0  0  0  0
 50 52  1  0  0  0  0
 51 53  1  0  0  0  0
 52 54  1  0  0  0  0
 53 55  1  0  0  0  0
 54 56  1  0  0  0  0
 56 57  1  0  0  0  0
M  END
> <PUBCHEM_COMPOUND_ID_TYPE>
0

> <PUBCHEM_TOTAL_CHARGE>
0

> <PUBCHEM_SUBSTANCE_ID>
310946826

> <PUBCHEM_SUBSTANCE_VERSION>
1

> <PUBCHEM_EXT_DATASOURCE_NAME>
4488

> <PUBCHEM_EXT_DATASOURCE_REGID>
SCHEMBL16124950

> <PUBCHEM_SUBSTANCE_COMMENT>
InChI=1S/C48H73N7O2/c1-11-15-17-19-20-22-29-54-30-28-36-31-38(25-26-40(36)54)50-43-35(6)52-55-45(43)51-44(53-55)34(5)33-49-46(56)42(23-21-18-16-12-2)57-41-27-24-37(47(7,8)13-3)32-39(41)48(9,10)14-4/h24-27,31-32,34,42H,11-23,28-30,33H2,1-10H3,(H,49,56)/b50-43-
InChIKey=BPSQNLDQNRKZFP-BRGRJDHNSA-N

> <PUBCHEM_SUBSTANCE_SYNONYM>
SCHEMBL16124950

> <PUBCHEM_XREF_EXT_ID>
SCHEMBL16124950

> <PUBCHEM_EXT_DATASOURCE_URL>
https://www.surechembl.org/

> <PUBCHEM_EXT_SUBSTANCE_URL>
https://www.surechembl.org/chemical/SCHEMBL16124950

> <PUBCHEM_CID_ASSOCIATIONS>
117612686  1

> <PUBCHEM_COORDINATE_TYPE>
1
3

$$$$
