310949544
  -OEChem-07211613022D

 32 36  0     1  0  0  0  0  0999 V2000
   -3.1695    2.4890    0.0000 Cl  0  0  0  0  0  0  0  0  0  0  0  0
   -4.8612    1.6528    0.0000 Cl  0  0  0  0  0  0  0  0  0  0  0  0
   -1.7501    2.4890    0.0000 O   0  0  0  0  0  0  0  0  0  0  0  0
    1.0889   -0.0195    0.0000 N   0  0  0  0  0  0  0  0  0  0  0  0
   -1.0306    1.2445    0.0000 N   0  0  0  0  0  0  0  0  0  0  0  0
    1.2250    1.3806    0.0000 N   0  0  0  0  0  0  0  0  0  0  0  0
    1.6333    0.6612    0.0000 N   0  0  0  0  0  0  0  0  0  0  0  0
    2.0612   -1.1278    0.0000 N   0  0  0  0  0  0  0  0  0  0  0  0
    0.7778   -1.4778    0.0000 N   0  0  0  0  0  0  0  0  0  0  0  0
    0.3306    0.3889    0.0000 C   0  0  0  0  0  0  0  0  0  0  0  0
    0.4472    1.2056    0.0000 C   0  0  0  0  0  0  0  0  0  0  0  0
   -0.3306    1.6528    0.0000 C   0  0  3  0  0  0  0  0  0  0  0  0
    1.3028   -0.7973    0.0000 C   0  0  0  0  0  0  0  0  0  0  0  0
   -0.3111   -0.0195    0.0000 C   0  0  0  0  0  0  0  0  0  0  0  0
   -1.7501    1.6333    0.0000 C   0  0  0  0  0  0  0  0  0  0  0  0
   -1.0111    0.4083    0.0000 C   0  0  0  0  0  0  0  0  0  0  0  0
   -2.4501    1.2445    0.0000 C   0  0  0  0  0  0  0  0  0  0  0  0
   -3.1695    1.6528    0.0000 C   0  0  0  0  0  0  0  0  0  0  0  0
    2.0223   -1.9639    0.0000 C   0  0  0  0  0  0  0  0  0  0  0  0
   -0.3306    2.5084    0.0000 C   0  0  0  0  0  0  0  0  0  0  0  0
    2.7612   -0.7194    0.0000 C   0  0  0  0  0  0  0  0  0  0  0  0
    1.2639   -2.1778    0.0000 C   0  0  0  0  0  0  0  0  0  0  0  0
   -2.4695    0.3889    0.0000 C   0  0  0  0  0  0  0  0  0  0  0  0
   -3.8501    1.2445    0.0000 C   0  0  0  0  0  0  0  0  0  0  0  0
    3.5001   -1.1278    0.0000 C   0  0  0  0  0  0  0  0  0  0  0  0
   -3.1695    0.0000    0.0000 C   0  0  0  0  0  0  0  0  0  0  0  0
   -3.8501    0.4083    0.0000 C   0  0  0  0  0  0  0  0  0  0  0  0
    3.3057   -1.9445    0.0000 C   0  0  0  0  0  0  0  0  0  0  0  0
    4.2973   -0.9139    0.0000 C   0  0  0  0  0  0  0  0  0  0  0  0
    3.8696   -2.5084    0.0000 C   0  0  0  0  0  0  0  0  0  0  0  0
    4.8612   -1.4972    0.0000 C   0  0  0  0  0  0  0  0  0  0  0  0
    4.6668   -2.2945    0.0000 C   0  0  0  0  0  0  0  0  0  0  0  0
  1 18  1  0  0  0  0
  2 24  1  0  0  0  0
  3 15  2  0  0  0  0
  4  7  1  0  0  0  0
  4 10  1  0  0  0  0
  4 13  1  0  0  0  0
  5 12  1  0  0  0  0
  5 15  1  0  0  0  0
  5 16  1  0  0  0  0
  6  7  2  0  0  0  0
  6 11  1  0  0  0  0
  8 13  1  0  0  0  0
  8 19  1  0  0  0  0
  8 21  1  0  0  0  0
  9 13  2  0  0  0  0
  9 22  1  0  0  0  0
 10 11  2  0  0  0  0
 10 14  1  0  0  0  0
 11 12  1  0  0  0  0
 12 20  1  0  0  0  0
 14 16  2  0  0  0  0
 15 17  1  0  0  0  0
 17 18  2  0  0  0  0
 17 23  1  0  0  0  0
 18 24  1  0  0  0  0
 19 22  2  0  0  0  0
 21 25  1  0  0  0  0
 23 26  2  0  0  0  0
 24 27  2  0  0  0  0
 25 28  2  0  0  0  0
 25 29  1  0  0  0  0
 26 27  1  0  0  0  0
 28 30  1  0  0  0  0
 29 31  2  0  0  0  0
 30 32  2  0  0  0  0
 31 32  1  0  0  0  0
M  END
> <PUBCHEM_COMPOUND_ID_TYPE>
0

> <PUBCHEM_TOTAL_CHARGE>
0

> <PUBCHEM_SUBSTANCE_ID>
310949544

> <PUBCHEM_SUBSTANCE_VERSION>
1

> <PUBCHEM_EXT_DATASOURCE_NAME>
4488

> <PUBCHEM_EXT_DATASOURCE_REGID>
SCHEMBL16127739

> <PUBCHEM_SUBSTANCE_COMMENT>
InChI=1S/C23H18Cl2N6O/c1-15-21-19(10-12-30(15)22(32)17-8-5-9-18(24)20(17)25)31(28-27-21)23-26-11-13-29(23)14-16-6-3-2-4-7-16/h2-13,15H,14H2,1H3
InChIKey=QXSWLQMBVIWDHY-UHFFFAOYSA-N

> <PUBCHEM_SUBSTANCE_SYNONYM>
SCHEMBL16127739

> <PUBCHEM_XREF_EXT_ID>
SCHEMBL16127739

> <PUBCHEM_EXT_DATASOURCE_URL>
https://www.surechembl.org/

> <PUBCHEM_EXT_SUBSTANCE_URL>
https://www.surechembl.org/chemical/SCHEMBL16127739

> <PUBCHEM_CID_ASSOCIATIONS>
117614967  1

> <PUBCHEM_COORDINATE_TYPE>
1
3

$$$$
