310947421
  -OEChem-07211613022D

 12 12  0     1  0  0  0  0  0999 V2000
    2.3069   -1.5371    0.0000 N   0  0  0  0  0  0  0  0  0  0  0  0
    0.8078   -0.0447    0.0000 N   0  0  0  0  0  0  0  0  0  0  0  0
    1.5223   -1.2822    0.0000 C   0  0  0  0  0  0  0  0  0  0  0  0
    2.7918   -0.8697    0.0000 C   0  0  0  0  0  0  0  0  0  0  0  0
    1.5223   -0.4572    0.0000 C   0  0  3  0  0  0  0  0  0  0  0  0
    2.3069   -0.2023    0.0000 C   0  0  0  0  0  0  0  0  0  0  0  0
    0.8078   -1.6947    0.0000 C   0  0  0  0  0  0  0  0  0  0  0  0
    3.6168   -0.8697    0.0000 C   0  0  0  0  0  0  0  0  0  0  0  0
    0.3953   -0.9802    0.0000 C   0  0  0  0  0  0  0  0  0  0  0  0
    1.2203   -2.4092    0.0000 C   0  0  0  0  0  0  0  0  0  0  0  0
    3.6168   -0.0447    0.0000 C   0  0  0  0  0  0  0  0  0  0  0  0
    3.6168   -1.6947    0.0000 C   0  0  0  0  0  0  0  0  0  0  0  0
  1  3  2  0  0  0  0
  1  4  1  0  0  0  0
  2  5  1  0  0  0  0
  3  5  1  0  0  0  0
  3  7  1  0  0  0  0
  4  6  2  0  0  0  0
  4  8  1  0  0  0  0
  5  6  1  0  0  0  0
  7  9  1  0  0  0  0
  7 10  1  0  0  0  0
  8 11  1  0  0  0  0
  8 12  1  0  0  0  0
M  END
> <PUBCHEM_COMPOUND_ID_TYPE>
0

> <PUBCHEM_TOTAL_CHARGE>
0

> <PUBCHEM_SUBSTANCE_ID>
310947421

> <PUBCHEM_SUBSTANCE_VERSION>
1

> <PUBCHEM_EXT_DATASOURCE_NAME>
4488

> <PUBCHEM_EXT_DATASOURCE_REGID>
SCHEMBL16125582

> <PUBCHEM_SUBSTANCE_COMMENT>
InChI=1S/C10H18N2/c1-6(2)9-5-8(11)10(12-9)7(3)4/h5-8H,11H2,1-4H3
InChIKey=CGEFIIHJTAIMDP-UHFFFAOYSA-N

> <PUBCHEM_SUBSTANCE_SYNONYM>
SCHEMBL16125582

> <PUBCHEM_XREF_EXT_ID>
SCHEMBL16125582

> <PUBCHEM_EXT_DATASOURCE_URL>
https://www.surechembl.org/

> <PUBCHEM_EXT_SUBSTANCE_URL>
https://www.surechembl.org/chemical/SCHEMBL16125582

> <PUBCHEM_CID_ASSOCIATIONS>
117613154  1

> <PUBCHEM_COORDINATE_TYPE>
1
3

> <PUBCHEM_BONDANNOTATIONS>
7  10  3
7  9  3
8  11  3
8  12  3

$$$$
