310939024
  -OEChem-07211613022D

 31 34  0     1  0  0  0  0  0999 V2000
    3.2276   -3.1719    0.0000 I   0  0  0  0  0  0  0  0  0  0  0  0
    2.5166   -0.6622    0.0000 F   0  0  0  0  0  0  0  0  0  0  0  0
    1.6521   -3.1579    0.0000 F   0  0  0  0  0  0  0  0  0  0  0  0
    2.4748   -3.9945    0.0000 F   0  0  0  0  0  0  0  0  0  0  0  0
    2.5026   -2.3492    0.0000 O   0  0  0  0  0  0  0  0  0  0  0  0
    1.8195    0.5786    0.0000 O   0  0  0  0  0  0  0  0  0  0  0  0
    0.3694    0.6065    0.0000 N   0  0  0  0  0  0  0  0  0  0  0  0
   -1.8055    0.2161    0.0000 N   0  0  0  0  0  0  0  0  0  0  0  0
   -2.5026    1.4709    0.0000 N   0  0  0  0  0  0  0  0  0  0  0  0
   -2.4469    3.1997    0.0000 N   0  0  0  0  0  0  0  0  0  0  0  0
   -2.1820    3.9945    0.0000 N   0  0  0  0  0  0  0  0  0  0  0  0
   -1.0527    1.4570    0.0000 C   0  0  0  0  0  0  0  0  0  0  0  0
   -1.0805    0.6205    0.0000 C   0  0  0  0  0  0  0  0  0  0  0  0
   -1.7916    1.8752    0.0000 C   0  0  0  0  0  0  0  0  0  0  0  0
    1.0666    0.1743    0.0000 C   0  0  0  0  0  0  0  0  0  0  0  0
    0.3834    1.4291    0.0000 C   0  0  3  0  0  0  0  0  0  0  0  0
    1.0666   -0.6483    0.0000 C   0  0  0  0  0  0  0  0  0  0  0  0
   -0.3416    0.2022    0.0000 C   0  0  0  0  0  0  0  0  0  0  0  0
   -0.3416    1.8613    0.0000 C   0  0  0  0  0  0  0  0  0  0  0  0
   -1.7637    2.7257    0.0000 C   0  0  0  0  0  0  0  0  0  0  0  0
    1.7916   -1.0805    0.0000 C   0  0  0  0  0  0  0  0  0  0  0  0
   -2.5166    0.6344    0.0000 C   0  0  0  0  0  0  0  0  0  0  0  0
    1.7776   -1.8892    0.0000 C   0  0  0  0  0  0  0  0  0  0  0  0
    0.3694   -1.0666    0.0000 C   0  0  0  0  0  0  0  0  0  0  0  0
    1.0666   -2.3075    0.0000 C   0  0  0  0  0  0  0  0  0  0  0  0
   -1.0945    3.1997    0.0000 C   0  0  0  0  0  0  0  0  0  0  0  0
    0.3555   -1.8892    0.0000 C   0  0  0  0  0  0  0  0  0  0  0  0
    1.1224    1.8335    0.0000 C   0  0  0  0  0  0  0  0  0  0  0  0
    2.4887   -3.1579    0.0000 C   0  0  0  0  0  0  0  0  0  0  0  0
   -1.3315    3.9805    0.0000 C   0  0  0  0  0  0  0  0  0  0  0  0
   -3.2276    0.2022    0.0000 C   0  0  0  0  0  0  0  0  0  0  0  0
  1 29  1  0  0  0  0
  2 21  1  0  0  0  0
  3 29  1  0  0  0  0
  4 29  1  0  0  0  0
  5 23  1  0  0  0  0
  5 29  1  0  0  0  0
  6 15  2  0  0  0  0
  7 15  1  0  0  0  0
  7 16  1  0  0  0  0
  7 18  1  0  0  0  0
  8 13  1  0  0  0  0
  8 22  2  0  0  0  0
  9 14  2  0  0  0  0
  9 22  1  0  0  0  0
 10 11  1  0  0  0  0
 10 20  1  0  0  0  0
 11 30  2  0  0  0  0
 12 13  2  0  0  0  0
 12 14  1  0  0  0  0
 12 19  1  0  0  0  0
 13 18  1  0  0  0  0
 14 20  1  0  0  0  0
 15 17  1  0  0  0  0
 16 19  1  0  0  0  0
 16 28  1  0  0  0  0
 17 21  1  0  0  0  0
 17 24  2  0  0  0  0
 20 26  2  0  0  0  0
 21 23  2  0  0  0  0
 22 31  1  0  0  0  0
 23 25  1  0  0  0  0
 24 27  1  0  0  0  0
 25 27  2  0  0  0  0
 26 30  1  0  0  0  0
M  END
> <PUBCHEM_COMPOUND_ID_TYPE>
0

> <PUBCHEM_TOTAL_CHARGE>
0

> <PUBCHEM_SUBSTANCE_ID>
310939024

> <PUBCHEM_SUBSTANCE_VERSION>
1

> <PUBCHEM_EXT_DATASOURCE_NAME>
4488

> <PUBCHEM_EXT_DATASOURCE_REGID>
SCHEMBL16116943

> <PUBCHEM_SUBSTANCE_COMMENT>
InChI=1S/C20H17F3IN5O2/c1-10-8-13-15(26-11(2)27-18(13)14-6-7-25-28-14)9-29(10)19(30)12-4-3-5-16(17(12)21)31-20(22,23)24/h3-7,10H,8-9H2,1-2H3,(H,25,28)
InChIKey=LKTJUVFULNMNBT-UHFFFAOYSA-N

> <PUBCHEM_SUBSTANCE_SYNONYM>
SCHEMBL16116943

> <PUBCHEM_XREF_EXT_ID>
SCHEMBL16116943

> <PUBCHEM_EXT_DATASOURCE_URL>
https://www.surechembl.org/

> <PUBCHEM_EXT_SUBSTANCE_URL>
https://www.surechembl.org/chemical/SCHEMBL16116943

> <PUBCHEM_CID_ASSOCIATIONS>
117606403  1

> <PUBCHEM_COORDINATE_TYPE>
1
3

$$$$
