310935167
  -OEChem-07211613022D

 25 26  0     1  0  0  0  0  0999 V2000
   -4.7548    0.4125    0.0000 S   0  0  0  0  0  0  0  0  0  0  0  0
   -6.1838    1.2375    0.0000 F   0  0  0  0  0  0  0  0  0  0  0  0
   -5.4693    1.6500    0.0000 F   0  0  0  0  0  0  0  0  0  0  0  0
   -6.1838    0.4125    0.0000 F   0  0  0  0  0  0  0  0  0  0  0  0
   -0.3769    3.2888    0.0000 F   0  0  0  0  0  0  0  0  0  0  0  0
   -4.0404    0.0000    0.0000 O   0  0  0  0  0  0  0  0  0  0  0  0
   -5.1673   -0.3020    0.0000 O   0  0  0  0  0  0  0  0  0  0  0  0
   -4.3423    1.1270    0.0000 O   0  0  0  0  0  0  0  0  0  0  0  0
   -1.6745   -0.6965    0.0000 O   0  0  0  0  0  0  0  0  0  0  0  0
   -0.6466    0.2962    0.0000 O   0  0  0  0  0  0  0  0  0  0  0  0
   -2.0202    0.6901    0.0000 C   0  0  3  0  0  0  0  0  0  0  0  0
   -2.5722    0.0770    0.0000 C   0  0  0  0  0  0  0  0  0  0  0  0
   -1.0914    1.2263    0.0000 C   0  0  0  0  0  0  0  0  0  0  0  0
   -3.3259    0.4125    0.0000 C   0  0  0  0  0  0  0  0  0  0  0  0
   -2.4327    1.4045    0.0000 C   0  0  0  0  0  0  0  0  0  0  0  0
   -1.4471    0.0966    0.0000 C   0  0  0  0  0  0  0  0  0  0  0  0
   -3.2397    1.2330    0.0000 C   0  0  0  0  0  0  0  0  0  0  0  0
   -1.0914    2.0513    0.0000 C   0  0  0  0  0  0  0  0  0  0  0  0
   -5.4693    0.8250    0.0000 C   0  0  0  0  0  0  0  0  0  0  0  0
   -0.3769    0.8138    0.0000 C   0  0  0  0  0  0  0  0  0  0  0  0
   -2.4007   -0.7300    0.0000 C   0  0  0  0  0  0  0  0  0  0  0  0
   -0.3769    2.4638    0.0000 C   0  0  0  0  0  0  0  0  0  0  0  0
    0.3376    1.2263    0.0000 C   0  0  0  0  0  0  0  0  0  0  0  0
    0.3376    2.0513    0.0000 C   0  0  0  0  0  0  0  0  0  0  0  0
   -1.8059    2.4638    0.0000 C   0  0  0  0  0  0  0  0  0  0  0  0
  1  6  1  0  0  0  0
  1  7  2  0  0  0  0
  1  8  2  0  0  0  0
  1 19  1  0  0  0  0
  2 19  1  0  0  0  0
  3 19  1  0  0  0  0
  4 19  1  0  0  0  0
  5 22  1  0  0  0  0
  6 14  1  0  0  0  0
  9 16  2  0  0  0  0
 10 16  1  0  0  0  0
 11 12  1  0  0  0  0
 11 13  1  0  0  0  0
 11 15  1  0  0  0  0
 11 16  1  0  0  0  0
 12 14  2  0  0  0  0
 12 21  1  0  0  0  0
 13 18  1  0  0  0  0
 13 20  2  0  0  0  0
 14 17  1  0  0  0  0
 15 17  1  0  0  0  0
 18 22  2  0  0  0  0
 18 25  1  0  0  0  0
 20 23  1  0  0  0  0
 22 24  1  0  0  0  0
 23 24  2  0  0  0  0
M  END
> <PUBCHEM_COMPOUND_ID_TYPE>
0

> <PUBCHEM_TOTAL_CHARGE>
0

> <PUBCHEM_SUBSTANCE_ID>
310935167

> <PUBCHEM_SUBSTANCE_VERSION>
1

> <PUBCHEM_EXT_DATASOURCE_NAME>
4488

> <PUBCHEM_EXT_DATASOURCE_REGID>
SCHEMBL16112695

> <PUBCHEM_SUBSTANCE_COMMENT>
InChI=1S/C15H14F4O5S/c1-8-10(4-3-5-11(8)16)14(13(20)21)7-6-12(9(14)2)24-25(22,23)15(17,18)19/h3-5H,6-7H2,1-2H3,(H,20,21)
InChIKey=ZMGGSSTZHOKLRX-UHFFFAOYSA-N

> <PUBCHEM_SUBSTANCE_SYNONYM>
SCHEMBL16112695

> <PUBCHEM_XREF_EXT_ID>
SCHEMBL16112695

> <PUBCHEM_EXT_DATASOURCE_URL>
https://www.surechembl.org/

> <PUBCHEM_EXT_SUBSTANCE_URL>
https://www.surechembl.org/chemical/SCHEMBL16112695

> <PUBCHEM_CID_ASSOCIATIONS>
117603251  1

> <PUBCHEM_COORDINATE_TYPE>
1
3

$$$$
