310941526
  -OEChem-07211613022D

  8  8  0     1  0  0  0  0  0999 V2000
    1.7258   -0.0194    0.0000 O   0  0  0  0  0  0  0  0  0  0  0  0
    0.4654    0.6981    0.0000 N   0  0  0  0  0  0  0  0  0  0  0  0
   -1.7258   -0.5624    0.0000 N   0  0  0  0  0  0  0  0  0  0  0  0
   -0.7369    0.0388    0.0000 C   0  0  3  0  0  0  0  0  0  0  0  0
    0.8726    0.0388    0.0000 C   0  0  0  0  0  0  0  0  0  0  0  0
   -0.3297   -0.6787    0.0000 C   0  0  0  0  0  0  0  0  0  0  0  0
    0.4654   -0.6981    0.0000 C   0  0  0  0  0  0  0  0  0  0  0  0
   -0.3684    0.6787    0.0000 C   0  0  0  0  0  0  0  0  0  0  0  0
  1  5  2  0  0  0  0
  2  4  1  0  0  0  0
  2  5  1  0  0  0  0
  3  4  1  0  0  0  0
  4  6  1  0  0  0  0
  4  8  1  0  0  0  0
  5  7  1  0  0  0  0
  6  7  1  0  0  0  0
M  END
> <PUBCHEM_COMPOUND_ID_TYPE>
0

> <PUBCHEM_TOTAL_CHARGE>
0

> <PUBCHEM_SUBSTANCE_ID>
310941526

> <PUBCHEM_SUBSTANCE_VERSION>
1

> <PUBCHEM_EXT_DATASOURCE_NAME>
4488

> <PUBCHEM_EXT_DATASOURCE_REGID>
SCHEMBL16119557

> <PUBCHEM_SUBSTANCE_COMMENT>
InChI=1S/C5H10N2O/c1-5(6)3-2-4(8)7-5/h2-3,6H2,1H3,(H,7,8)
InChIKey=YZSADEDCJVTRQZ-UHFFFAOYSA-N

> <PUBCHEM_SUBSTANCE_SYNONYM>
SCHEMBL16119557

> <PUBCHEM_XREF_EXT_ID>
SCHEMBL16119557

> <PUBCHEM_EXT_DATASOURCE_URL>
https://www.surechembl.org/

> <PUBCHEM_EXT_SUBSTANCE_URL>
https://www.surechembl.org/chemical/SCHEMBL16119557

> <PUBCHEM_CID_ASSOCIATIONS>
117608337  1

> <PUBCHEM_COORDINATE_TYPE>
1
3

> <PUBCHEM_BONDANNOTATIONS>
4  2  3

$$$$
