310934469
  -OEChem-07211613022D

 32 36  0     1  0  0  0  0  0999 V2000
   -0.3575    2.0452    0.0000 O   0  0  0  0  0  0  0  0  0  0  0  0
    3.6722    0.0649    0.0000 O   0  0  0  0  0  0  0  0  0  0  0  0
   -2.3577    2.1863    0.0000 O   0  0  0  0  0  0  0  0  0  0  0  0
    1.7218    1.5887    0.0000 N   0  0  0  0  0  0  0  0  0  0  0  0
    0.9754    2.6953    0.0000 N   0  0  0  0  0  0  0  0  0  0  0  0
    2.4651    2.8256    0.0000 N   0  0  0  0  0  0  0  0  0  0  0  0
    1.2146   -0.9488    0.0000 N   0  0  0  0  0  0  0  0  0  0  0  0
    0.9288    1.3613    0.0000 C   0  0  3  0  0  0  0  0  0  0  0  0
   -0.2143    0.7012    0.0000 C   0  0  0  0  0  0  0  0  0  0  0  0
    1.2110    0.5860    0.0000 C   0  0  0  0  0  0  0  0  0  0  0  0
    0.4675    2.0452    0.0000 C   0  0  0  0  0  0  0  0  0  0  0  0
    1.7507    2.4131    0.0000 C   0  0  0  0  0  0  0  0  0  0  0  0
   -0.9288    1.1138    0.0000 C   0  0  0  0  0  0  0  0  0  0  0  0
   -0.2143   -0.1238    0.0000 C   0  0  0  0  0  0  0  0  0  0  0  0
    2.3719    1.0808    0.0000 C   0  0  0  0  0  0  0  0  0  0  0  0
    1.0677   -0.2265    0.0000 C   0  0  0  0  0  0  0  0  0  0  0  0
    1.8430    0.0557    0.0000 C   0  0  0  0  0  0  0  0  0  0  0  0
   -0.9288    2.1863    0.0000 C   0  0  0  0  0  0  0  0  0  0  0  0
   -1.6433    0.7012    0.0000 C   0  0  0  0  0  0  0  0  0  0  0  0
   -0.9288   -0.5363    0.0000 C   0  0  0  0  0  0  0  0  0  0  0  0
    2.2571    0.2638    0.0000 C   0  0  0  0  0  0  0  0  0  0  0  0
    3.1369    1.3898    0.0000 C   0  0  0  0  0  0  0  0  0  0  0  0
    0.5001   -0.5363    0.0000 C   0  0  0  0  0  0  0  0  0  0  0  0
   -1.6433   -0.1238    0.0000 C   0  0  0  0  0  0  0  0  0  0  0  0
   -1.6433    2.5988    0.0000 C   0  0  0  0  0  0  0  0  0  0  0  0
   -0.2143    2.5988    0.0000 C   0  0  0  0  0  0  0  0  0  0  0  0
    2.9072   -0.2441    0.0000 C   0  0  0  0  0  0  0  0  0  0  0  0
    3.7870    0.8819    0.0000 C   0  0  0  0  0  0  0  0  0  0  0  0
   -1.6433    3.4238    0.0000 C   0  0  0  0  0  0  0  0  0  0  0  0
   -0.2143    3.4238    0.0000 C   0  0  0  0  0  0  0  0  0  0  0  0
   -0.9288    3.8363    0.0000 C   0  0  0  0  0  0  0  0  0  0  0  0
   -2.3577    1.3613    0.0000 C   0  0  0  0  0  0  0  0  0  0  0  0
  1 11  2  0  0  0  0
  2 27  1  0  0  0  0
  2 28  1  0  0  0  0
  3 25  1  0  0  0  0
  3 32  1  0  0  0  0
  4  8  1  0  0  0  0
  4 12  1  0  0  0  0
  4 15  1  0  0  0  0
  5 11  1  0  0  0  0
  5 12  1  0  0  0  0
  6 12  2  3  0  0  0
  7 23  3  0  0  0  0
  8  9  1  0  0  0  0
  8 10  1  0  0  0  0
  8 11  1  0  0  0  0
  9 13  1  0  0  0  0
  9 14  2  0  0  0  0
 10 16  1  0  0  0  0
 10 17  1  0  0  0  0
 13 18  1  0  0  0  0
 13 19  2  0  0  0  0
 14 20  1  0  0  0  0
 14 23  1  0  0  0  0
 15 21  1  0  0  0  0
 15 22  1  0  0  0  0
 16 17  1  0  0  0  0
 18 25  1  0  0  0  0
 18 26  2  0  0  0  0
 19 24  1  0  0  0  0
 20 24  2  0  0  0  0
 21 27  1  0  0  0  0
 22 28  1  0  0  0  0
 25 29  2  0  0  0  0
 26 30  1  0  0  0  0
 29 31  1  0  0  0  0
 30 31  2  0  0  0  0
M  END
> <PUBCHEM_COMPOUND_ID_TYPE>
0

> <PUBCHEM_TOTAL_CHARGE>
0

> <PUBCHEM_SUBSTANCE_ID>
310934469

> <PUBCHEM_SUBSTANCE_VERSION>
1

> <PUBCHEM_EXT_DATASOURCE_NAME>
4488

> <PUBCHEM_EXT_DATASOURCE_REGID>
SCHEMBL16111949

> <PUBCHEM_SUBSTANCE_COMMENT>
InChI=1S/C25H26N4O3/c1-31-21-8-3-2-6-19(21)20-7-4-5-16(15-26)22(20)25(17-9-10-17)23(30)28-24(27)29(25)18-11-13-32-14-12-18/h2-8,17-18H,9-14H2,1H3,(H2,27,28,30)
InChIKey=JAOVPIUIWBVFRM-UHFFFAOYSA-N

> <PUBCHEM_SUBSTANCE_SYNONYM>
SCHEMBL16111949

> <PUBCHEM_XREF_EXT_ID>
SCHEMBL16111949

> <PUBCHEM_EXT_DATASOURCE_URL>
https://www.surechembl.org/

> <PUBCHEM_EXT_SUBSTANCE_URL>
https://www.surechembl.org/chemical/SCHEMBL16111949

> <PUBCHEM_CID_ASSOCIATIONS>
117602674  1

> <PUBCHEM_COORDINATE_TYPE>
1
3

$$$$
