310932846
  -OEChem-07211613022D

 26 28  0     1  0  0  0  0  0999 V2000
    1.4423   -1.6293    0.0000 O   0  0  0  0  0  0  0  0  0  0  0  0
    2.1635   -0.4007    0.0000 O   0  0  0  0  0  0  0  0  0  0  0  0
    4.2736    0.0000    0.0000 O   0  0  0  0  0  0  0  0  0  0  0  0
    2.8579    0.0000    0.0000 O   0  0  0  0  0  0  0  0  0  0  0  0
    2.8579   -1.6293    0.0000 N   0  0  0  0  0  0  0  0  0  0  0  0
    4.2468   -4.9146    0.0000 N   0  0  0  0  0  0  0  0  0  0  0  0
    5.6358   -4.9146    0.0000 N   0  0  0  0  0  0  0  0  0  0  0  0
    4.2736   -1.6293    0.0000 C   0  0  0  0  0  0  0  0  0  0  0  0
    3.5524   -1.2287    0.0000 C   0  0  3  0  0  0  0  0  0  0  0  0
    4.2736   -2.4573    0.0000 C   0  0  0  0  0  0  0  0  0  0  0  0
    4.9680   -2.8579    0.0000 C   0  0  0  0  0  0  0  0  0  0  0  0
    3.5524   -2.8579    0.0000 C   0  0  0  0  0  0  0  0  0  0  0  0
    2.8579   -2.4573    0.0000 C   0  0  0  0  0  0  0  0  0  0  0  0
    2.1368   -1.2287    0.0000 C   0  0  0  0  0  0  0  0  0  0  0  0
    3.5524   -0.4007    0.0000 C   0  0  0  0  0  0  0  0  0  0  0  0
    4.9680   -1.2287    0.0000 C   0  0  0  0  0  0  0  0  0  0  0  0
    4.9680   -3.6859    0.0000 C   0  0  0  0  0  0  0  0  0  0  0  0
    5.6892   -2.4573    0.0000 C   0  0  0  0  0  0  0  0  0  0  0  0
    5.6892   -1.6293    0.0000 C   0  0  0  0  0  0  0  0  0  0  0  0
    0.7211   -1.2287    0.0000 C   0  0  0  0  0  0  0  0  0  0  0  0
    4.2468   -4.1133    0.0000 C   0  0  0  0  0  0  0  0  0  0  0  0
    5.6625   -4.1133    0.0000 C   0  0  0  0  0  0  0  0  0  0  0  0
    4.9413   -5.3419    0.0000 C   0  0  0  0  0  0  0  0  0  0  0  0
    0.0000   -0.8013    0.0000 C   0  0  0  0  0  0  0  0  0  0  0  0
    1.1218   -0.5075    0.0000 C   0  0  0  0  0  0  0  0  0  0  0  0
    0.3205   -1.9231    0.0000 C   0  0  0  0  0  0  0  0  0  0  0  0
  1 14  1  0  0  0  0
  1 20  1  0  0  0  0
  2 14  2  0  0  0  0
  3 15  2  0  0  0  0
  4 15  1  0  0  0  0
  5  9  1  0  0  0  0
  5 13  1  0  0  0  0
  5 14  1  0  0  0  0
  6 21  2  0  0  0  0
  6 23  1  0  0  0  0
  7 22  1  0  0  0  0
  7 23  2  0  0  0  0
  8  9  1  0  0  0  0
  8 10  2  0  0  0  0
  8 16  1  0  0  0  0
  9 15  1  0  0  0  0
 10 11  1  0  0  0  0
 10 12  1  0  0  0  0
 11 17  1  0  0  0  0
 11 18  2  0  0  0  0
 12 13  1  0  0  0  0
 16 19  2  0  0  0  0
 17 21  1  0  0  0  0
 17 22  2  0  0  0  0
 18 19  1  0  0  0  0
 20 24  1  0  0  0  0
 20 25  1  0  0  0  0
 20 26  1  0  0  0  0
M  END
> <PUBCHEM_COMPOUND_ID_TYPE>
0

> <PUBCHEM_TOTAL_CHARGE>
0

> <PUBCHEM_SUBSTANCE_ID>
310932846

> <PUBCHEM_SUBSTANCE_VERSION>
1

> <PUBCHEM_EXT_DATASOURCE_NAME>
4488

> <PUBCHEM_EXT_DATASOURCE_REGID>
SCHEMBL16110237

> <PUBCHEM_SUBSTANCE_COMMENT>
InChI=1S/C19H21N3O4/c1-19(2,3)26-18(25)22-8-7-14-13(12-9-20-11-21-10-12)5-4-6-15(14)16(22)17(23)24/h4-6,9-11,16H,7-8H2,1-3H3,(H,23,24)
InChIKey=JTTWCVVINCCYKG-UHFFFAOYSA-N

> <PUBCHEM_SUBSTANCE_SYNONYM>
SCHEMBL16110237

> <PUBCHEM_XREF_EXT_ID>
SCHEMBL16110237

> <PUBCHEM_EXT_DATASOURCE_URL>
https://www.surechembl.org/

> <PUBCHEM_EXT_SUBSTANCE_URL>
https://www.surechembl.org/chemical/SCHEMBL16110237

> <PUBCHEM_CID_ASSOCIATIONS>
117601332  1

> <PUBCHEM_COORDINATE_TYPE>
1
3

$$$$
