310949738
  -OEChem-07211613022D

 27 29  0     1  0  0  0  0  0999 V2000
    1.4840   -2.2158    0.0000 O   0  0  0  0  0  0  0  0  0  0  0  0
   -1.3620   -1.4027    0.0000 O   0  0  0  0  0  0  0  0  0  0  0  0
    2.9477   -1.3214    0.0000 N   0  0  0  0  0  0  0  0  0  0  0  0
    3.5168   -0.7115    0.0000 N   0  0  0  0  0  0  0  0  0  0  0  0
    0.7725   -0.9758    0.0000 N   0  0  0  0  0  0  0  0  0  0  0  0
    2.8054    1.4230    0.0000 N   0  0  3  0  0  0  0  0  0  0  0  0
    2.2768   -0.1627    0.0000 C   0  0  0  0  0  0  0  0  0  0  0  0
    2.1955   -0.9961    0.0000 C   0  0  3  0  0  0  0  0  0  0  0  0
    3.0899    0.0203    0.0000 C   0  0  0  0  0  0  0  0  0  0  0  0
    1.4840   -1.3620    0.0000 C   0  0  0  0  0  0  0  0  0  0  0  0
    1.7279    0.4676    0.0000 C   0  0  0  0  0  0  0  0  0  0  0  0
    3.3339    0.7928    0.0000 C   0  0  0  0  0  0  0  0  0  0  0  0
   -2.0736   -0.1627    0.0000 C   0  0  0  0  0  0  0  0  0  0  0  0
    1.9719    1.2197    0.0000 C   0  0  0  0  0  0  0  0  0  0  0  0
   -2.1142   -0.9758    0.0000 C   0  0  0  0  0  0  0  0  0  0  0  0
   -1.3417    0.2642    0.0000 C   0  0  0  0  0  0  0  0  0  0  0  0
    0.0407   -1.3824    0.0000 C   0  0  0  0  0  0  0  0  0  0  0  0
   -2.8257    0.2439    0.0000 C   0  0  0  0  0  0  0  0  0  0  0  0
   -2.8257   -1.3620    0.0000 C   0  0  0  0  0  0  0  0  0  0  0  0
   -0.6911   -0.9961    0.0000 C   0  0  0  0  0  0  0  0  0  0  0  0
    0.7725   -0.1423    0.0000 C   0  0  0  0  0  0  0  0  0  0  0  0
    3.0493    2.2158    0.0000 C   0  0  0  0  0  0  0  0  0  0  0  0
   -3.4965   -0.1423    0.0000 C   0  0  0  0  0  0  0  0  0  0  0  0
   -3.5168   -0.9555    0.0000 C   0  0  0  0  0  0  0  0  0  0  0  0
   -1.3824    1.0978    0.0000 C   0  0  0  0  0  0  0  0  0  0  0  0
   -0.6709    0.6912    0.0000 C   0  0  0  0  0  0  0  0  0  0  0  0
   -0.6302   -0.1627    0.0000 C   0  0  0  0  0  0  0  0  0  0  0  0
  1 10  2  0  0  0  0
  2 15  1  0  0  0  0
  2 20  1  0  0  0  0
  3  4  1  0  0  0  0
  3  8  1  0  0  0  0
  4  9  1  0  0  0  0
  5 10  1  0  0  0  0
  5 17  1  0  0  0  0
  5 21  1  0  0  0  0
  6 12  1  0  0  0  0
  6 14  1  0  0  0  0
  6 22  1  0  0  0  0
  7  8  1  0  0  0  0
  7  9  2  0  0  0  0
  7 11  1  0  0  0  0
  8 10  1  0  0  0  0
  9 12  1  0  0  0  0
 11 14  1  0  0  0  0
 13 15  1  0  0  0  0
 13 16  1  0  0  0  0
 13 18  2  0  0  0  0
 15 19  2  0  0  0  0
 16 25  1  0  0  0  0
 16 26  1  0  0  0  0
 16 27  1  0  0  0  0
 17 20  1  0  0  0  0
 18 23  1  0  0  0  0
 19 24  1  0  0  0  0
 23 24  2  0  0  0  0
M  END
> <PUBCHEM_COMPOUND_ID_TYPE>
0

> <PUBCHEM_TOTAL_CHARGE>
0

> <PUBCHEM_SUBSTANCE_ID>
310949738

> <PUBCHEM_SUBSTANCE_VERSION>
1

> <PUBCHEM_EXT_DATASOURCE_NAME>
4488

> <PUBCHEM_EXT_DATASOURCE_REGID>
SCHEMBL16127936

> <PUBCHEM_SUBSTANCE_COMMENT>
InChI=1S/C21H32N4O2/c1-21(2,3)16-8-6-7-9-18(16)27-13-12-25(5)20(26)19-15-10-11-24(4)14-17(15)22-23-19/h6-9,19,22-23H,10-14H2,1-5H3
InChIKey=SQIIXLBZVJMWGB-UHFFFAOYSA-N

> <PUBCHEM_SUBSTANCE_SYNONYM>
SCHEMBL16127936

> <PUBCHEM_XREF_EXT_ID>
SCHEMBL16127936

> <PUBCHEM_EXT_DATASOURCE_URL>
https://www.surechembl.org/

> <PUBCHEM_EXT_SUBSTANCE_URL>
https://www.surechembl.org/chemical/SCHEMBL16127936

> <PUBCHEM_CID_ASSOCIATIONS>
117615077  1

> <PUBCHEM_COORDINATE_TYPE>
1
3

$$$$
