310945410
  -OEChem-07211613022D

 25 27  0     1  0  0  0  0  0999 V2000
    2.6965    0.6301    0.0000 F   0  0  0  0  0  0  0  0  0  0  0  0
    2.2129   -0.3957    0.0000 F   0  0  0  0  0  0  0  0  0  0  0  0
    1.1724    0.1026    0.0000 F   0  0  0  0  0  0  0  0  0  0  0  0
   -2.6965    1.6706    0.0000 O   0  0  0  0  0  0  0  0  0  0  0  0
   -2.0224   -2.8137    0.0000 O   0  0  0  0  0  0  0  0  0  0  0  0
    0.1319    0.9232    0.0000 N   0  0  0  0  0  0  0  0  0  0  0  0
    2.1689    1.8612    0.0000 N   0  0  0  0  0  0  0  0  0  0  0  0
   -0.6009   -1.1431    0.0000 N   0  0  3  0  0  0  0  0  0  0  0  0
    0.7914    1.4362    0.0000 C   0  0  0  0  0  0  0  0  0  0  0  0
    0.5422    2.1983    0.0000 C   0  0  0  0  0  0  0  0  0  0  0  0
   -0.2931    2.2129    0.0000 C   0  0  0  0  0  0  0  0  0  0  0  0
   -0.5422    1.4215    0.0000 C   0  0  0  0  0  0  0  0  0  0  0  0
    1.6120    1.2457    0.0000 C   0  0  0  0  0  0  0  0  0  0  0  0
    1.9198    0.3664    0.0000 C   0  0  0  0  0  0  0  0  0  0  0  0
    1.0991    2.8137    0.0000 C   0  0  0  0  0  0  0  0  0  0  0  0
   -1.3483    1.2457    0.0000 C   0  0  0  0  0  0  0  0  0  0  0  0
   -0.8353    2.8137    0.0000 C   0  0  0  0  0  0  0  0  0  0  0  0
    0.1319    0.1026    0.0000 C   0  0  0  0  0  0  0  0  0  0  0  0
    1.9051    2.6379    0.0000 C   0  0  0  0  0  0  0  0  0  0  0  0
   -1.8905    1.8612    0.0000 C   0  0  0  0  0  0  0  0  0  0  0  0
   -1.6267    2.6379    0.0000 C   0  0  0  0  0  0  0  0  0  0  0  0
   -0.5862   -0.3078    0.0000 C   0  0  0  0  0  0  0  0  0  0  0  0
   -1.3043   -1.5535    0.0000 C   0  0  0  0  0  0  0  0  0  0  0  0
    0.1319   -1.5827    0.0000 C   0  0  0  0  0  0  0  0  0  0  0  0
   -1.3189   -2.3888    0.0000 C   0  0  0  0  0  0  0  0  0  0  0  0
  1 14  1  0  0  0  0
  2 14  1  0  0  0  0
  3 14  1  0  0  0  0
  4 20  1  0  0  0  0
  5 25  1  0  0  0  0
  6  9  1  0  0  0  0
  6 12  1  0  0  0  0
  6 18  1  0  0  0  0
  7 13  2  0  0  0  0
  7 19  1  0  0  0  0
  8 22  1  0  0  0  0
  8 23  1  0  0  0  0
  8 24  1  0  0  0  0
  9 10  2  0  0  0  0
  9 13  1  0  0  0  0
 10 11  1  0  0  0  0
 10 15  1  0  0  0  0
 11 12  2  0  0  0  0
 11 17  1  0  0  0  0
 12 16  1  0  0  0  0
 13 14  1  0  0  0  0
 15 19  2  0  0  0  0
 16 20  2  0  0  0  0
 17 21  2  0  0  0  0
 18 22  1  0  0  0  0
 20 21  1  0  0  0  0
 23 25  1  0  0  0  0
M  END
> <PUBCHEM_COMPOUND_ID_TYPE>
0

> <PUBCHEM_TOTAL_CHARGE>
0

> <PUBCHEM_SUBSTANCE_ID>
310945410

> <PUBCHEM_SUBSTANCE_VERSION>
1

> <PUBCHEM_EXT_DATASOURCE_NAME>
4488

> <PUBCHEM_EXT_DATASOURCE_REGID>
SCHEMBL16123508

> <PUBCHEM_SUBSTANCE_COMMENT>
InChI=1S/C17H18F3N3O2/c1-22(8-9-24)6-7-23-14-10-11(25)2-3-12(14)13-4-5-21-16(15(13)23)17(18,19)20/h2-5,10,24-25H,6-9H2,1H3
InChIKey=WVODGOJXMFTDPI-UHFFFAOYSA-N

> <PUBCHEM_SUBSTANCE_SYNONYM>
SCHEMBL16123508

> <PUBCHEM_XREF_EXT_ID>
SCHEMBL16123508

> <PUBCHEM_EXT_DATASOURCE_URL>
https://www.surechembl.org/

> <PUBCHEM_EXT_SUBSTANCE_URL>
https://www.surechembl.org/chemical/SCHEMBL16123508

> <PUBCHEM_CID_ASSOCIATIONS>
117611456  1

> <PUBCHEM_COORDINATE_TYPE>
1
3

$$$$
