310932512
  -OEChem-07211613022D

 36 37  0     1  0  0  0  0  0999 V2000
    2.5166    0.0000    0.0000 O   0  0  0  0  0  0  0  0  0  0  0  0
    8.8082   -2.1571    0.0000 O   0  0  0  0  0  0  0  0  0  0  0  0
    9.6620   -5.0332    0.0000 O   0  0  0  0  0  0  0  0  0  0  0  0
    8.4037   -5.7523    0.0000 O   0  0  0  0  0  0  0  0  0  0  0  0
    5.8871   -4.3142    0.0000 O   0  0  0  0  0  0  0  0  0  0  0  0
    5.8871   -5.7523    0.0000 O   0  0  0  0  0  0  0  0  0  0  0  0
   11.3248   -3.1008    0.0000 O   0  0  0  0  0  0  0  0  0  0  0  0
   13.4819   -2.6514    0.0000 O   0  0  0  0  0  0  0  0  0  0  0  0
    3.3705   -1.4380    0.0000 N   0  0  0  0  0  0  0  0  0  0  0  0
    1.2583   -2.1571    0.0000 N   0  0  0  0  0  0  0  0  0  0  0  0
    2.5166   -2.8761    0.0000 N   0  0  0  0  0  0  0  0  0  0  0  0
    1.2583   -0.7191    0.0000 N   0  0  0  0  0  0  0  0  0  0  0  0
    5.0332   -2.8761    0.0000 N   0  0  0  0  0  0  0  0  0  0  0  0
    0.0000   -1.4380    0.0000 N   0  0  0  0  0  0  0  0  0  0  0  0
    8.8082   -3.5952    0.0000 N   0  0  0  0  0  0  0  0  0  0  0  0
    2.5166   -1.4380    0.0000 C   0  0  0  0  0  0  0  0  0  0  0  0
    2.1122   -2.1571    0.0000 C   0  0  0  0  0  0  0  0  0  0  0  0
    2.1122   -0.7191    0.0000 C   0  0  0  0  0  0  0  0  0  0  0  0
    3.7749   -2.1571    0.0000 C   0  0  0  0  0  0  0  0  0  0  0  0
    0.8539   -1.4380    0.0000 C   0  0  0  0  0  0  0  0  0  0  0  0
    3.3705   -2.8761    0.0000 C   0  0  0  0  0  0  0  0  0  0  0  0
    4.6288   -2.1571    0.0000 C   0  0  0  0  0  0  0  0  0  0  0  0
    5.8871   -2.8761    0.0000 C   0  0  0  0  0  0  0  0  0  0  0  0
    7.5499   -2.8761    0.0000 C   0  0  0  0  0  0  0  0  0  0  0  0
    8.4037   -2.8761    0.0000 C   0  0  0  0  0  0  0  0  0  0  0  0
    6.2916   -2.1571    0.0000 C   0  0  0  0  0  0  0  0  0  0  0  0
    6.2916   -3.5952    0.0000 C   0  0  0  0  0  0  0  0  0  0  0  0
    7.1454   -2.1571    0.0000 C   0  0  0  0  0  0  0  0  0  0  0  0
    7.1454   -3.5952    0.0000 C   0  0  0  0  0  0  0  0  0  0  0  0
    8.4037   -4.3142    0.0000 C   0  0  3  0  0  0  0  0  0  0  0  0
    8.8082   -5.0332    0.0000 C   0  0  0  0  0  0  0  0  0  0  0  0
    7.5499   -4.3142    0.0000 C   0  0  0  0  0  0  0  0  0  0  0  0
    7.1454   -5.0332    0.0000 C   0  0  0  0  0  0  0  0  0  0  0  0
    6.2916   -5.0332    0.0000 C   0  0  0  0  0  0  0  0  0  0  0  0
   12.7628   -3.1008    0.0000 C   0  0  0  0  0  0  0  0  0  0  0  0
   12.0439   -2.6514    0.0000 C   0  0  0  0  0  0  0  0  0  0  0  0
  1 18  2  0  0  0  0
  2 25  2  0  0  0  0
  3 31  2  0  0  0  0
  4 31  1  0  0  0  0
  5 34  2  0  0  0  0
  6 34  1  0  0  0  0
  7 36  1  0  0  0  0
  8 35  1  0  0  0  0
  9 16  1  0  0  0  0
  9 19  2  0  0  0  0
 10 17  1  0  0  0  0
 10 20  1  0  0  0  0
 11 17  1  0  0  0  0
 11 21  2  0  0  0  0
 12 18  1  0  0  0  0
 12 20  2  0  0  0  0
 13 22  1  0  0  0  0
 13 23  1  0  0  0  0
 14 20  1  0  0  0  0
 15 25  1  0  0  0  0
 30 15  1  6  0  0  0
 16 17  2  0  0  0  0
 16 18  1  0  0  0  0
 19 21  1  0  0  0  0
 19 22  1  0  0  0  0
 23 26  2  0  0  0  0
 23 27  1  0  0  0  0
 24 25  1  0  0  0  0
 24 28  2  0  0  0  0
 24 29  1  0  0  0  0
 26 28  1  0  0  0  0
 27 29  2  0  0  0  0
 30 31  1  0  0  0  0
 30 32  1  0  0  0  0
 32 33  1  0  0  0  0
 33 34  1  0  0  0  0
 35 36  1  0  0  0  0
M  END
> <PUBCHEM_COMPOUND_ID_TYPE>
0

> <PUBCHEM_TOTAL_CHARGE>
0

> <PUBCHEM_SUBSTANCE_ID>
310932512

> <PUBCHEM_SUBSTANCE_VERSION>
1

> <PUBCHEM_EXT_DATASOURCE_NAME>
4488

> <PUBCHEM_EXT_DATASOURCE_REGID>
SCHEMBL16109887

> <PUBCHEM_SUBSTANCE_COMMENT>
InChI=1S/C19H19N7O6.C2H6O2/c20-19-25-15-14(17(30)26-19)23-11(8-22-15)7-21-10-3-1-9(2-4-10)16(29)24-12(18(31)32)5-6-13(27)28;3-1-2-4/h1-4,8,12,21H,5-7H2,(H,24,29)(H,27,28)(H,31,32)(H3,20,22,25,26,30);3-4H,1-2H2/t12-;/m0./s1
InChIKey=KIVSEZVDJHYZJM-YDALLXLXSA-N

> <PUBCHEM_SUBSTANCE_SYNONYM>
SCHEMBL16109887

> <PUBCHEM_XREF_EXT_ID>
SCHEMBL16109887

> <PUBCHEM_EXT_DATASOURCE_URL>
https://www.surechembl.org/

> <PUBCHEM_EXT_SUBSTANCE_URL>
https://www.surechembl.org/chemical/SCHEMBL16109887

> <PUBCHEM_CID_ASSOCIATIONS>
117601047  1
174  2
6037  2

> <PUBCHEM_COORDINATE_TYPE>
1
3

> <PUBCHEM_BONDANNOTATIONS>
30  15  6

$$$$
