310943712
  -OEChem-07211613022D

 25 27  0     1  0  0  0  0  0999 V2000
    2.3850   -1.5302    0.0000 F   0  0  0  0  0  0  0  0  0  0  0  0
    3.8077   -0.7054    0.0000 F   0  0  0  0  0  0  0  0  0  0  0  0
    3.7957    2.0204    0.0000 O   0  0  0  0  0  0  0  0  0  0  0  0
   -1.9068   -1.5661    0.0000 N   0  0  3  0  0  0  0  0  0  0  0  0
   -3.7001   -1.0281    0.0000 N   0  0  3  0  0  0  0  0  0  0  0  0
    1.6558   -0.2750    0.0000 C   0  0  0  0  0  0  0  0  0  0  0  0
    2.3731   -0.6934    0.0000 C   0  0  0  0  0  0  0  0  0  0  0  0
    0.9624   -0.6934    0.0000 C   0  0  0  0  0  0  0  0  0  0  0  0
    3.0785   -0.2511    0.0000 C   0  0  0  0  0  0  0  0  0  0  0  0
    3.0904    0.5619    0.0000 C   0  0  0  0  0  0  0  0  0  0  0  0
    1.6677    0.5499    0.0000 C   0  0  0  0  0  0  0  0  0  0  0  0
    2.3731    0.9684    0.0000 C   0  0  0  0  0  0  0  0  0  0  0  0
    0.2092   -0.3108    0.0000 C   0  0  0  0  0  0  0  0  0  0  0  0
    0.9504   -1.5422    0.0000 C   0  0  0  0  0  0  0  0  0  0  0  0
   -0.4722   -1.5422    0.0000 C   0  0  0  0  0  0  0  0  0  0  0  0
   -0.4722   -0.7054    0.0000 C   0  0  0  0  0  0  0  0  0  0  0  0
    0.2331   -1.9487    0.0000 C   0  0  0  0  0  0  0  0  0  0  0  0
    3.7838    0.9803    0.0000 C   0  0  0  0  0  0  0  0  0  0  0  0
   -1.1776   -1.9607    0.0000 C   0  0  0  0  0  0  0  0  0  0  0  0
   -2.5763   -2.0204    0.0000 C   0  0  0  0  0  0  0  0  0  0  0  0
   -1.8590   -0.7413    0.0000 C   0  0  0  0  0  0  0  0  0  0  0  0
   -3.3892   -1.7933    0.0000 C   0  0  0  0  0  0  0  0  0  0  0  0
   -2.4687   -0.1674    0.0000 C   0  0  0  0  0  0  0  0  0  0  0  0
   -3.2936   -0.2989    0.0000 C   0  0  0  0  0  0  0  0  0  0  0  0
   -4.5250   -1.0401    0.0000 C   0  0  0  0  0  0  0  0  0  0  0  0
  1  7  1  0  0  0  0
  2  9  1  0  0  0  0
  3 18  2  0  0  0  0
  4 19  1  0  0  0  0
  4 20  1  0  0  0  0
  4 21  1  0  0  0  0
  5 22  1  0  0  0  0
  5 24  1  0  0  0  0
  5 25  1  0  0  0  0
  6  7  2  0  0  0  0
  6  8  1  0  0  0  0
  6 11  1  0  0  0  0
  7  9  1  0  0  0  0
  8 13  2  0  0  0  0
  8 14  1  0  0  0  0
  9 10  2  0  0  0  0
 10 12  1  0  0  0  0
 10 18  1  0  0  0  0
 11 12  2  0  0  0  0
 13 16  1  0  0  0  0
 14 17  2  0  0  0  0
 15 16  2  0  0  0  0
 15 17  1  0  0  0  0
 15 19  1  0  0  0  0
 20 22  1  0  0  0  0
 21 23  1  0  0  0  0
 23 24  1  0  0  0  0
M  END
> <PUBCHEM_COMPOUND_ID_TYPE>
0

> <PUBCHEM_TOTAL_CHARGE>
0

> <PUBCHEM_SUBSTANCE_ID>
310943712

> <PUBCHEM_SUBSTANCE_VERSION>
1

> <PUBCHEM_EXT_DATASOURCE_NAME>
4488

> <PUBCHEM_EXT_DATASOURCE_REGID>
SCHEMBL16121780

> <PUBCHEM_SUBSTANCE_COMMENT>
InChI=1S/C20H22F2N2O/c1-23-9-2-10-24(12-11-23)13-15-3-5-16(6-4-15)18-8-7-17(14-25)19(21)20(18)22/h3-8,14H,2,9-13H2,1H3
InChIKey=RSDYJDVKXDSAOY-UHFFFAOYSA-N

> <PUBCHEM_SUBSTANCE_SYNONYM>
SCHEMBL16121780

> <PUBCHEM_XREF_EXT_ID>
SCHEMBL16121780

> <PUBCHEM_EXT_DATASOURCE_URL>
https://www.surechembl.org/

> <PUBCHEM_EXT_SUBSTANCE_URL>
https://www.surechembl.org/chemical/SCHEMBL16121780

> <PUBCHEM_CID_ASSOCIATIONS>
86300762  1

> <PUBCHEM_COORDINATE_TYPE>
1
3

$$$$
