310937204
  -OEChem-07211613022D

 21 23  0     1  0  0  0  0  0999 V2000
    3.6135   -1.3213    0.0000 S   0  0  0  0  0  0  0  0  0  0  0  0
    0.7011   -0.4045    0.0000 N   0  0  0  0  0  0  0  0  0  0  0  0
    1.4292   -2.4809    0.0000 C   0  0  0  0  0  0  0  0  0  0  0  0
    1.4292   -1.6719    0.0000 C   0  0  3  0  0  0  0  0  0  0  0  0
    0.7281   -3.7214    0.0000 C   0  0  0  0  0  0  0  0  0  0  0  0
    1.4292   -4.1258    0.0000 C   0  0  0  0  0  0  0  0  0  0  0  0
    0.7011   -2.9123    0.0000 C   0  0  0  0  0  0  0  0  0  0  0  0
    2.8584   -1.6719    0.0000 C   0  0  0  0  0  0  0  0  0  0  0  0
    2.1573   -1.2405    0.0000 C   0  0  0  0  0  0  0  0  0  0  0  0
    2.1573   -2.9123    0.0000 C   0  0  0  0  0  0  0  0  0  0  0  0
    2.1573   -3.7214    0.0000 C   0  0  0  0  0  0  0  0  0  0  0  0
    0.0000   -4.1528    0.0000 C   0  0  0  0  0  0  0  0  0  0  0  0
    1.4292   -4.9618    0.0000 C   0  0  0  0  0  0  0  0  0  0  0  0
    0.7011   -1.2405    0.0000 C   0  0  0  0  0  0  0  0  0  0  0  0
    4.2068   -1.9416    0.0000 C   0  0  0  0  0  0  0  0  0  0  0  0
    2.9663   -2.4809    0.0000 C   0  0  0  0  0  0  0  0  0  0  0  0
    3.7753   -2.6427    0.0000 C   0  0  0  0  0  0  0  0  0  0  0  0
    0.0000   -4.9888    0.0000 C   0  0  0  0  0  0  0  0  0  0  0  0
    0.7281   -5.3932    0.0000 C   0  0  0  0  0  0  0  0  0  0  0  0
    5.0157   -1.8337    0.0000 C   0  0  0  0  0  0  0  0  0  0  0  0
    0.0000    0.0000    0.0000 C   0  0  0  0  0  0  0  0  0  0  0  0
  1  8  1  0  0  0  0
  1 15  1  0  0  0  0
  2 14  1  0  0  0  0
  2 21  1  0  0  0  0
  3  4  1  0  0  0  0
  3  7  2  0  0  0  0
  3 10  1  0  0  0  0
  4  9  1  0  0  0  0
  4 14  1  0  0  0  0
  5  6  2  0  0  0  0
  5  7  1  0  0  0  0
  5 12  1  0  0  0  0
  6 11  1  0  0  0  0
  6 13  1  0  0  0  0
  8  9  1  0  0  0  0
  8 16  2  0  0  0  0
 10 11  2  0  0  0  0
 12 18  2  0  0  0  0
 13 19  2  0  0  0  0
 15 17  2  0  0  0  0
 15 20  1  0  0  0  0
 16 17  1  0  0  0  0
 18 19  1  0  0  0  0
M  END
> <PUBCHEM_COMPOUND_ID_TYPE>
0

> <PUBCHEM_TOTAL_CHARGE>
0

> <PUBCHEM_SUBSTANCE_ID>
310937204

> <PUBCHEM_SUBSTANCE_VERSION>
1

> <PUBCHEM_EXT_DATASOURCE_NAME>
4488

> <PUBCHEM_EXT_DATASOURCE_REGID>
SCHEMBL16114934

> <PUBCHEM_SUBSTANCE_COMMENT>
InChI=1S/C19H21NS/c1-14-7-10-19(21-14)12-18(13-20-2)17-9-8-15-5-3-4-6-16(15)11-17/h3-11,18,20H,12-13H2,1-2H3
InChIKey=ZTPBYUKSIHXSEW-UHFFFAOYSA-N

> <PUBCHEM_SUBSTANCE_SYNONYM>
SCHEMBL16114934

> <PUBCHEM_XREF_EXT_ID>
SCHEMBL16114934

> <PUBCHEM_EXT_DATASOURCE_URL>
https://www.surechembl.org/

> <PUBCHEM_EXT_SUBSTANCE_URL>
https://www.surechembl.org/chemical/SCHEMBL16114934

> <PUBCHEM_CID_ASSOCIATIONS>
117605014  1

> <PUBCHEM_COORDINATE_TYPE>
1
3

$$$$
