310936446
  -OEChem-07211613022D

 28 30  0     1  0  0  0  0  0999 V2000
   -4.3164   -4.0145    0.0000 P   0  0  0  0  0  0  0  0  0  0  0  0
   -3.6020   -3.6020    0.0000 O   0  0  0  0  0  0  0  0  0  0  0  0
   -4.7289   -3.3000    0.0000 O   0  0  0  0  0  0  0  0  0  0  0  0
   -4.3164   -2.3645    0.0000 O   0  0  0  0  0  0  0  0  0  0  0  0
   -2.8875    0.1105    0.0000 O   0  0  0  0  0  0  0  0  0  0  0  0
   -0.7441    1.3480    0.0000 O   0  0  0  0  0  0  0  0  0  0  0  0
   -5.0309   -4.4270    0.0000 C   0  0  0  0  0  0  0  0  0  0  0  0
   -3.9039   -4.7289    0.0000 C   0  0  0  0  0  0  0  0  0  0  0  0
   -3.6020   -2.7770    0.0000 C   0  0  0  0  0  0  0  0  0  0  0  0
   -2.8875   -2.3645    0.0000 C   0  0  0  0  0  0  0  0  0  0  0  0
   -5.0309   -5.2520    0.0000 C   0  0  0  0  0  0  0  0  0  0  0  0
   -3.0789   -4.7289    0.0000 C   0  0  0  0  0  0  0  0  0  0  0  0
   -5.7454   -4.0145    0.0000 C   0  0  0  0  0  0  0  0  0  0  0  0
   -4.3164   -5.4434    0.0000 C   0  0  0  0  0  0  0  0  0  0  0  0
   -2.8875   -1.5395    0.0000 C   0  0  0  0  0  0  0  0  0  0  0  0
   -2.1730   -1.1270    0.0000 C   0  0  0  0  0  0  0  0  0  0  0  0
   -2.1730   -2.7770    0.0000 C   0  0  0  0  0  0  0  0  0  0  0  0
   -5.7454   -5.6645    0.0000 C   0  0  0  0  0  0  0  0  0  0  0  0
   -2.6664   -5.4434    0.0000 C   0  0  0  0  0  0  0  0  0  0  0  0
   -6.4599   -4.4270    0.0000 C   0  0  0  0  0  0  0  0  0  0  0  0
   -3.9039   -6.1579    0.0000 C   0  0  0  0  0  0  0  0  0  0  0  0
   -2.1730   -0.3020    0.0000 C   0  0  3  0  0  0  0  0  0  0  0  0
   -1.4586   -1.5395    0.0000 C   0  0  0  0  0  0  0  0  0  0  0  0
   -1.4586   -2.3645    0.0000 C   0  0  0  0  0  0  0  0  0  0  0  0
   -6.4599   -5.2520    0.0000 C   0  0  0  0  0  0  0  0  0  0  0  0
   -3.0789   -6.1579    0.0000 C   0  0  0  0  0  0  0  0  0  0  0  0
   -1.4586    0.1105    0.0000 C   0  0  0  0  0  0  0  0  0  0  0  0
   -1.4586    0.9355    0.0000 C   0  0  0  0  0  0  0  0  0  0  0  0
  1  2  1  0  0  0  0
  1  3  2  0  0  0  0
  1  7  1  0  0  0  0
  1  8  1  0  0  0  0
  2  9  1  0  0  0  0
  4  9  2  0  0  0  0
  5 22  1  0  0  0  0
  6 28  1  0  0  0  0
  7 11  2  0  0  0  0
  7 13  1  0  0  0  0
  8 12  2  0  0  0  0
  8 14  1  0  0  0  0
  9 10  1  0  0  0  0
 10 15  2  0  0  0  0
 10 17  1  0  0  0  0
 11 18  1  0  0  0  0
 12 19  1  0  0  0  0
 13 20  2  0  0  0  0
 14 21  2  0  0  0  0
 15 16  1  0  0  0  0
 16 22  1  0  0  0  0
 16 23  2  0  0  0  0
 17 24  2  0  0  0  0
 18 25  2  0  0  0  0
 19 26  2  0  0  0  0
 20 25  1  0  0  0  0
 21 26  1  0  0  0  0
 22 27  1  0  0  0  0
 23 24  1  0  0  0  0
 27 28  1  0  0  0  0
M  END
> <PUBCHEM_COMPOUND_ID_TYPE>
0

> <PUBCHEM_TOTAL_CHARGE>
0

> <PUBCHEM_SUBSTANCE_ID>
310936446

> <PUBCHEM_SUBSTANCE_VERSION>
1

> <PUBCHEM_EXT_DATASOURCE_NAME>
4488

> <PUBCHEM_EXT_DATASOURCE_REGID>
SCHEMBL16114088

> <PUBCHEM_SUBSTANCE_COMMENT>
InChI=1S/C22H21O5P/c23-15-14-21(24)17-8-7-9-18(16-17)22(25)27-28(26,19-10-3-1-4-11-19)20-12-5-2-6-13-20/h1-13,16,21,23-24H,14-15H2
InChIKey=QWXKXAIXPTWUOC-UHFFFAOYSA-N

> <PUBCHEM_SUBSTANCE_SYNONYM>
SCHEMBL16114088

> <PUBCHEM_XREF_EXT_ID>
SCHEMBL16114088

> <PUBCHEM_EXT_DATASOURCE_URL>
https://www.surechembl.org/

> <PUBCHEM_EXT_SUBSTANCE_URL>
https://www.surechembl.org/chemical/SCHEMBL16114088

> <PUBCHEM_CID_ASSOCIATIONS>
117604379  1

> <PUBCHEM_COORDINATE_TYPE>
1
3

$$$$
