310931729
  -OEChem-07211613022D

 49 53  0     1  0  0  0  0  0999 V2000
    1.5305   -7.8485    0.0000 Cl  0  0  0  0  0  0  0  0  0  0  0  0
    6.5535   -5.8079    0.0000 S   0  0  0  0  0  0  0  0  0  0  0  0
    5.7294   -4.2775    0.0000 S   0  0  0  0  0  0  0  0  0  0  0  0
    3.6888   -5.7686    0.0000 F   0  0  0  0  0  0  0  0  0  0  0  0
    6.1218   -6.5142    0.0000 O   0  0  0  0  0  0  0  0  0  0  0  0
    7.2599   -6.2395    0.0000 O   0  0  0  0  0  0  0  0  0  0  0  0
    3.6888   -4.1204    0.0000 O   0  0  0  0  0  0  0  0  0  0  0  0
    9.4575   -5.1408    0.0000 O   0  0  0  0  0  0  0  0  0  0  0  0
    0.8241   -1.6482    0.0000 O   0  0  0  0  0  0  0  0  0  0  0  0
    9.4967   -2.2760    0.0000 O   0  0  0  0  0  0  0  0  0  0  0  0
    2.2760   -1.6482    0.0000 O   0  0  0  0  0  0  0  0  0  0  0  0
    6.9851   -5.1015    0.0000 N   0  0  0  0  0  0  0  0  0  0  0  0
    6.9067   -3.6103    0.0000 N   0  0  0  0  0  0  0  0  0  0  0  0
    1.5305   -2.8647    0.0000 N   0  0  0  0  0  0  0  0  0  0  0  0
    5.5724   -3.4533    0.0000 N   0  0  0  0  0  0  0  0  0  0  0  0
    5.8471   -5.3762    0.0000 C   0  0  0  0  0  0  0  0  0  0  0  0
    6.5535   -4.3559    0.0000 C   0  0  0  0  0  0  0  0  0  0  0  0
    7.8093   -5.1015    0.0000 C   0  0  0  0  0  0  0  0  0  0  0  0
    5.1408   -5.7686    0.0000 C   0  0  0  0  0  0  0  0  0  0  0  0
    5.8471   -4.5521    0.0000 C   0  0  0  0  0  0  0  0  0  0  0  0
    8.2409   -4.3951    0.0000 C   0  0  0  0  0  0  0  0  0  0  0  0
    4.3951   -5.3762    0.0000 C   0  0  0  0  0  0  0  0  0  0  0  0
    4.4344   -4.5521    0.0000 C   0  0  0  0  0  0  0  0  0  0  0  0
    5.1408   -4.1204    0.0000 C   0  0  0  0  0  0  0  0  0  0  0  0
    9.0650   -4.3951    0.0000 C   0  0  0  0  0  0  0  0  0  0  0  0
    2.2760   -4.1204    0.0000 C   0  0  3  0  0  0  0  0  0  0  0  0
    1.5305   -4.5129    0.0000 C   0  0  3  0  0  0  0  0  0  0  0  0
    7.8485   -3.6495    0.0000 C   0  0  0  0  0  0  0  0  0  0  0  0
    2.9824   -4.5129    0.0000 C   0  0  0  0  0  0  0  0  0  0  0  0
    1.5305   -5.3370    0.0000 C   0  0  0  0  0  0  0  0  0  0  0  0
    6.3180   -3.0609    0.0000 C   0  0  0  0  0  0  0  0  0  0  0  0
    2.2760   -3.2964    0.0000 C   0  0  0  0  0  0  0  0  0  0  0  0
    9.4967   -3.6888    0.0000 C   0  0  0  0  0  0  0  0  0  0  0  0
    9.0650   -2.9824    0.0000 C   0  0  0  0  0  0  0  0  0  0  0  0
    0.8241   -4.1204    0.0000 C   0  0  0  0  0  0  0  0  0  0  0  0
    8.2409   -2.9824    0.0000 C   0  0  0  0  0  0  0  0  0  0  0  0
    0.8241   -3.2964    0.0000 C   0  0  0  0  0  0  0  0  0  0  0  0
    1.5305   -2.0406    0.0000 C   0  0  0  0  0  0  0  0  0  0  0  0
    2.2760   -5.7686    0.0000 C   0  0  0  0  0  0  0  0  0  0  0  0
    0.8241   -5.7686    0.0000 C   0  0  0  0  0  0  0  0  0  0  0  0
    2.2760   -6.5928    0.0000 C   0  0  0  0  0  0  0  0  0  0  0  0
    0.8241   -6.5928    0.0000 C   0  0  0  0  0  0  0  0  0  0  0  0
    1.5305   -7.0244    0.0000 C   0  0  0  0  0  0  0  0  0  0  0  0
    0.8241   -0.8241    0.0000 C   0  0  0  0  0  0  0  0  0  0  0  0
   10.2815   -5.1408    0.0000 C   0  0  0  0  0  0  0  0  0  0  0  0
    9.1042   -1.5305    0.0000 C   0  0  0  0  0  0  0  0  0  0  0  0
    1.6874   -0.8241    0.0000 C   0  0  0  0  0  0  0  0  0  0  0  0
    0.8241    0.0000    0.0000 C   0  0  0  0  0  0  0  0  0  0  0  0
    0.0000   -0.8241    0.0000 C   0  0  0  0  0  0  0  0  0  0  0  0
  1 43  1  0  0  0  0
  2  5  2  0  0  0  0
  2  6  2  0  0  0  0
  2 12  1  0  0  0  0
  2 16  1  0  0  0  0
  3 15  1  0  0  0  0
  3 17  1  0  0  0  0
  4 22  1  0  0  0  0
  7 23  1  0  0  0  0
  7 29  1  0  0  0  0
  8 25  1  0  0  0  0
  8 45  1  0  0  0  0
  9 38  1  0  0  0  0
  9 44  1  0  0  0  0
 10 34  1  0  0  0  0
 10 46  1  0  0  0  0
 11 38  2  0  0  0  0
 12 17  1  0  0  0  0
 12 18  1  0  0  0  0
 13 17  2  0  0  0  0
 13 31  1  0  0  0  0
 14 32  1  0  0  0  0
 14 37  1  0  0  0  0
 14 38  1  0  0  0  0
 15 31  2  0  0  0  0
 16 19  2  0  0  0  0
 16 20  1  0  0  0  0
 18 21  1  0  0  0  0
 19 22  1  0  0  0  0
 20 24  2  0  0  0  0
 21 25  2  0  0  0  0
 21 28  1  0  0  0  0
 22 23  2  0  0  0  0
 23 24  1  0  0  0  0
 25 33  1  0  0  0  0
 26 27  1  0  0  0  0
 26 29  1  0  0  0  0
 26 32  1  0  0  0  0
 27 30  1  0  0  0  0
 27 35  1  0  0  0  0
 28 36  2  0  0  0  0
 30 39  2  0  0  0  0
 30 40  1  0  0  0  0
 33 34  2  0  0  0  0
 34 36  1  0  0  0  0
 35 37  1  0  0  0  0
 39 41  1  0  0  0  0
 40 42  2  0  0  0  0
 41 43  2  0  0  0  0
 42 43  1  0  0  0  0
 44 47  1  0  0  0  0
 44 48  1  0  0  0  0
 44 49  1  0  0  0  0
M  END
> <PUBCHEM_COMPOUND_ID_TYPE>
0

> <PUBCHEM_TOTAL_CHARGE>
0

> <PUBCHEM_SUBSTANCE_ID>
310931729

> <PUBCHEM_SUBSTANCE_VERSION>
1

> <PUBCHEM_EXT_DATASOURCE_NAME>
4488

> <PUBCHEM_EXT_DATASOURCE_REGID>
SCHEMBL16109058

> <PUBCHEM_SUBSTANCE_COMMENT>
InChI=1S/C34H38ClFN4O7S2/c1-34(2,3)47-33(41)39-15-14-28(22-6-9-25(35)10-7-22)24(18-39)20-46-30-13-12-27(17-29(30)36)49(42,43)40(32-37-21-38-48-32)19-23-8-11-26(44-4)16-31(23)45-5/h6-13,16-17,21,24,28H,14-15,18-20H2,1-5H3
InChIKey=ZZOUYOVUWXKMIQ-UHFFFAOYSA-N

> <PUBCHEM_SUBSTANCE_SYNONYM>
SCHEMBL16109058

> <PUBCHEM_XREF_EXT_ID>
SCHEMBL16109058

> <PUBCHEM_EXT_DATASOURCE_URL>
https://www.surechembl.org/

> <PUBCHEM_EXT_SUBSTANCE_URL>
https://www.surechembl.org/chemical/SCHEMBL16109058

> <PUBCHEM_CID_ASSOCIATIONS>
117600422  1

> <PUBCHEM_COORDINATE_TYPE>
1
3

$$$$
