310938651
  -OEChem-07211613022D

 29 28  0     1  0  0  0  0  0999 V2000
    0.3692    1.0322    0.0000 Cl  0  0  0  0  0  0  0  0  0  0  0  0
    1.1942    1.0322    0.0000 Cl  0  0  0  0  0  0  0  0  0  0  0  0
    0.4797    2.8737    0.0000 Cl  0  0  0  0  0  0  0  0  0  0  0  0
   -0.3453    2.8737    0.0000 Cl  0  0  0  0  0  0  0  0  0  0  0  0
    1.9086    2.8737    0.0000 Cl  0  0  0  0  0  0  0  0  0  0  0  0
    1.0836    2.8737    0.0000 Cl  0  0  0  0  0  0  0  0  0  0  0  0
   -0.6473    0.9217    0.0000 Cl  0  0  0  0  0  0  0  0  0  0  0  0
   -0.9492    2.8737    0.0000 Cl  0  0  0  0  0  0  0  0  0  0  0  0
   -1.7742    2.8737    0.0000 Cl  0  0  0  0  0  0  0  0  0  0  0  0
    2.9251    2.9842    0.0000 Cl  0  0  0  0  0  0  0  0  0  0  0  0
    3.2271    1.0322    0.0000 Cl  0  0  0  0  0  0  0  0  0  0  0  0
    4.0521    1.0322    0.0000 Cl  0  0  0  0  0  0  0  0  0  0  0  0
   -2.7907    2.9842    0.0000 Cl  0  0  0  0  0  0  0  0  0  0  0  0
   -3.5052    0.9217    0.0000 Cl  0  0  0  0  0  0  0  0  0  0  0  0
   -4.2196    2.9842    0.0000 Cl  0  0  0  0  0  0  0  0  0  0  0  0
    0.7817    1.7467    0.0000 C   0  0  0  0  0  0  0  0  0  0  0  0
    0.0672    2.1592    0.0000 C   0  0  0  0  0  0  0  0  0  0  0  0
    1.4961    2.1592    0.0000 C   0  0  0  0  0  0  0  0  0  0  0  0
   -0.6473    1.7467    0.0000 C   0  0  3  0  0  0  0  0  0  0  0  0
   -1.3617    2.1592    0.0000 C   0  0  0  0  0  0  0  0  0  0  0  0
    2.2106    1.7467    0.0000 C   0  0  0  0  0  0  0  0  0  0  0  0
    2.9251    2.1592    0.0000 C   0  0  3  0  0  0  0  0  0  0  0  0
   -2.0762    1.7467    0.0000 C   0  0  0  0  0  0  0  0  0  0  0  0
    3.6396    1.7467    0.0000 C   0  0  0  0  0  0  0  0  0  0  0  0
   -2.7907    2.1592    0.0000 C   0  0  3  0  0  0  0  0  0  0  0  0
   -3.5052    1.7467    0.0000 C   0  0  3  0  0  0  0  0  0  0  0  0
    4.9341    2.3525    0.0000 C   0  0  0  0  0  0  0  0  0  0  0  0
   -4.2196    2.1592    0.0000 C   0  0  3  0  0  0  0  0  0  0  0  0
   -4.9341    1.7467    0.0000 C   0  0  0  0  0  0  0  0  0  0  0  0
  1 16  1  0  0  0  0
  2 16  1  0  0  0  0
  3 17  1  0  0  0  0
  4 17  1  0  0  0  0
  5 18  1  0  0  0  0
  6 18  1  0  0  0  0
  7 19  1  0  0  0  0
  8 20  1  0  0  0  0
  9 20  1  0  0  0  0
 10 22  1  0  0  0  0
 11 24  1  0  0  0  0
 12 24  1  0  0  0  0
 13 25  1  0  0  0  0
 14 26  1  0  0  0  0
 15 28  1  0  0  0  0
 16 17  1  0  0  0  0
 16 18  1  0  0  0  0
 17 19  1  0  0  0  0
 18 21  1  0  0  0  0
 19 20  1  0  0  0  0
 20 23  1  0  0  0  0
 21 22  1  0  0  0  0
 22 24  1  0  0  0  0
 23 25  1  0  0  0  0
 24 27  1  0  0  0  0
 25 26  1  0  0  0  0
 26 28  1  0  0  0  0
 28 29  1  0  0  0  0
M  END
> <PUBCHEM_COMPOUND_ID_TYPE>
0

> <PUBCHEM_TOTAL_CHARGE>
0

> <PUBCHEM_SUBSTANCE_ID>
310938651

> <PUBCHEM_SUBSTANCE_VERSION>
1

> <PUBCHEM_EXT_DATASOURCE_NAME>
4488

> <PUBCHEM_EXT_DATASOURCE_REGID>
SCHEMBL16116565

> <PUBCHEM_SUBSTANCE_COMMENT>
InChI=1S/C14H15Cl15/c1-5(15)8(18)6(16)3-11(22,23)9(19)13(26,27)14(28,29)12(24,25)4-7(17)10(2,20)21/h5-9H,3-4H2,1-2H3
InChIKey=FQDTWFSWGKMCQB-UHFFFAOYSA-N

> <PUBCHEM_SUBSTANCE_SYNONYM>
SCHEMBL16116565

> <PUBCHEM_XREF_EXT_ID>
SCHEMBL16116565

> <PUBCHEM_EXT_DATASOURCE_URL>
https://www.surechembl.org/

> <PUBCHEM_EXT_SUBSTANCE_URL>
https://www.surechembl.org/chemical/SCHEMBL16116565

> <PUBCHEM_CID_ASSOCIATIONS>
117606083  1

> <PUBCHEM_COORDINATE_TYPE>
1
3

$$$$
