310947165
  -OEChem-07211613022D

 31 36  0     1  0  0  0  0  0999 V2000
   -2.7190   -1.8286    0.0000 O   0  0  0  0  0  0  0  0  0  0  0  0
   -3.8639   -1.1766    0.0000 O   0  0  0  0  0  0  0  0  0  0  0  0
    2.5123    0.3816    0.0000 O   0  0  0  0  0  0  0  0  0  0  0  0
    2.5123    1.7331    0.0000 O   0  0  0  0  0  0  0  0  0  0  0  0
   -0.4293   -0.5884    0.0000 N   0  0  3  0  0  0  0  0  0  0  0  0
   -0.4452    0.2544    0.0000 C   0  0  0  0  0  0  0  0  0  0  0  0
   -1.1290    0.6519    0.0000 C   0  0  0  0  0  0  0  0  0  0  0  0
   -1.8445   -0.5724    0.0000 C   0  0  0  0  0  0  0  0  0  0  0  0
   -1.8286    0.2544    0.0000 C   0  0  0  0  0  0  0  0  0  0  0  0
    0.2862    0.6679    0.0000 C   0  0  0  0  0  0  0  0  0  0  0  0
   -1.0971   -1.0018    0.0000 C   0  0  3  0  0  0  0  0  0  0  0  0
   -2.5441   -0.9859    0.0000 C   0  0  0  0  0  0  0  0  0  0  0  0
    0.3021    1.4788    0.0000 C   0  0  0  0  0  0  0  0  0  0  0  0
   -3.2755   -0.5884    0.0000 C   0  0  0  0  0  0  0  0  0  0  0  0
   -1.1130    1.4788    0.0000 C   0  0  0  0  0  0  0  0  0  0  0  0
   -2.5600    0.6360    0.0000 C   0  0  0  0  0  0  0  0  0  0  0  0
    1.0176    0.2544    0.0000 C   0  0  0  0  0  0  0  0  0  0  0  0
   -0.4452    1.8922    0.0000 C   0  0  0  0  0  0  0  0  0  0  0  0
    1.7173    0.6679    0.0000 C   0  0  0  0  0  0  0  0  0  0  0  0
    1.7331    1.4946    0.0000 C   0  0  0  0  0  0  0  0  0  0  0  0
    1.0018    1.8922    0.0000 C   0  0  0  0  0  0  0  0  0  0  0  0
   -3.2755    0.2385    0.0000 C   0  0  0  0  0  0  0  0  0  0  0  0
    0.3180   -0.9859    0.0000 C   0  0  0  0  0  0  0  0  0  0  0  0
   -0.7632   -0.6042    0.0000 C   0  0  0  0  0  0  0  0  0  0  0  0
   -3.5618   -1.8922    0.0000 C   0  0  0  0  0  0  0  0  0  0  0  0
    2.9894    1.0813    0.0000 C   0  0  0  0  0  0  0  0  0  0  0  0
    1.0018   -0.5884    0.0000 C   0  0  0  0  0  0  0  0  0  0  0  0
    1.7491   -1.0018    0.0000 C   0  0  0  0  0  0  0  0  0  0  0  0
    2.4010   -0.5884    0.0000 C   0  0  0  0  0  0  0  0  0  0  0  0
    3.1643   -0.9859    0.0000 C   0  0  0  0  0  0  0  0  0  0  0  0
    3.8639   -0.5884    0.0000 C   0  0  0  0  0  0  0  0  0  0  0  0
  1 12  1  0  0  0  0
  1 25  1  0  0  0  0
  2 14  1  0  0  0  0
  2 25  1  0  0  0  0
  3 19  1  0  0  0  0
  3 26  1  0  0  0  0
  4 20  1  0  0  0  0
  4 26  1  0  0  0  0
  5  6  1  0  0  0  0
  5 11  1  0  0  0  0
  5 23  1  0  0  0  0
  6  7  2  0  0  0  0
  6 10  1  0  0  0  0
  7  9  1  0  0  0  0
  7 15  1  0  0  0  0
  8  9  1  0  0  0  0
  8 11  1  0  0  0  0
  8 12  2  0  0  0  0
  9 16  2  0  0  0  0
 10 13  2  0  0  0  0
 10 17  1  0  0  0  0
 11 24  1  0  0  0  0
 12 14  1  0  0  0  0
 13 18  1  0  0  0  0
 13 21  1  0  0  0  0
 14 22  2  0  0  0  0
 15 18  1  0  0  0  0
 16 22  1  0  0  0  0
 17 19  2  0  0  0  0
 19 20  1  0  0  0  0
 20 21  2  0  0  0  0
 23 27  1  0  0  0  0
 27 28  1  0  0  0  0
 28 29  1  0  0  0  0
 29 30  1  0  0  0  0
 30 31  1  0  0  0  0
M  END
> <PUBCHEM_COMPOUND_ID_TYPE>
0

> <PUBCHEM_TOTAL_CHARGE>
0

> <PUBCHEM_SUBSTANCE_ID>
310947165

> <PUBCHEM_SUBSTANCE_VERSION>
1

> <PUBCHEM_EXT_DATASOURCE_NAME>
4488

> <PUBCHEM_EXT_DATASOURCE_REGID>
SCHEMBL16125319

> <PUBCHEM_SUBSTANCE_COMMENT>
InChI=1S/C26H29NO4/c1-3-4-5-6-11-27-16(2)24-18(9-10-21-26(24)31-15-28-21)19-8-7-17-12-22-23(30-14-29-22)13-20(17)25(19)27/h9-10,12-13,16H,3-8,11,14-15H2,1-2H3
InChIKey=KSLBJZSTLQZWLX-UHFFFAOYSA-N

> <PUBCHEM_SUBSTANCE_SYNONYM>
SCHEMBL16125319

> <PUBCHEM_XREF_EXT_ID>
SCHEMBL16125319

> <PUBCHEM_EXT_DATASOURCE_URL>
https://www.surechembl.org/

> <PUBCHEM_EXT_SUBSTANCE_URL>
https://www.surechembl.org/chemical/SCHEMBL16125319

> <PUBCHEM_CID_ASSOCIATIONS>
117612991  1

> <PUBCHEM_COORDINATE_TYPE>
1
3

$$$$
