310937679
  -OEChem-07211613022D

 20 22  0     1  0  0  0  0  0999 V2000
    0.0000   -6.3089    0.0000 O   0  0  0  0  0  0  0  0  0  0  0  0
    0.3505    0.0000    0.0000 O   0  0  0  0  0  0  0  0  0  0  0  0
    1.8226   -3.5050    0.0000 N   0  3  3  0  0  0  0  0  0  0  0  0
    1.6473   -4.8719    0.0000 N   0  0  0  0  0  0  0  0  0  0  0  0
    1.2618   -4.1358    0.0000 C   0  0  0  0  0  0  0  0  0  0  0  0
    1.6473   -2.6988    0.0000 C   0  0  0  0  0  0  0  0  0  0  0  0
    2.5586   -3.8555    0.0000 C   0  0  0  0  0  0  0  0  0  0  0  0
    2.4885   -4.6616    0.0000 C   0  0  0  0  0  0  0  0  0  0  0  0
    0.4206   -4.1358    0.0000 C   0  0  0  0  0  0  0  0  0  0  0  0
    1.2618   -5.5729    0.0000 C   0  0  0  0  0  0  0  0  0  0  0  0
    2.4535   -2.9792    0.0000 C   0  0  0  0  0  0  0  0  0  0  0  0
    0.4206   -5.5729    0.0000 C   0  0  0  0  0  0  0  0  0  0  0  0
    0.8412   -2.4184    0.0000 C   0  0  0  0  0  0  0  0  0  0  0  0
    2.2431   -2.1380    0.0000 C   0  0  0  0  0  0  0  0  0  0  0  0
    0.0000   -4.8719    0.0000 C   0  0  0  0  0  0  0  0  0  0  0  0
    0.6659   -1.6123    0.0000 C   0  0  0  0  0  0  0  0  0  0  0  0
    2.0679   -1.3319    0.0000 C   0  0  0  0  0  0  0  0  0  0  0  0
    1.2969   -1.0515    0.0000 C   0  0  0  0  0  0  0  0  0  0  0  0
    1.1216   -0.2453    0.0000 C   0  0  0  0  0  0  0  0  0  0  0  0
    0.4206   -7.0099    0.0000 C   0  0  0  0  0  0  0  0  0  0  0  0
  1 12  1  0  0  0  0
  1 20  1  0  0  0  0
  2 19  2  0  0  0  0
  3  5  1  0  0  0  0
  3  6  1  0  0  0  0
  3  7  1  0  0  0  0
  3 11  1  0  0  0  0
  4  5  1  0  0  0  0
  4  8  1  0  0  0  0
  4 10  1  0  0  0  0
  5  9  2  0  0  0  0
  6 13  2  0  0  0  0
  6 14  1  0  0  0  0
  7  8  2  0  0  0  0
  9 15  1  0  0  0  0
 10 12  1  0  0  0  0
 12 15  2  0  0  0  0
 13 16  1  0  0  0  0
 14 17  2  0  0  0  0
 16 18  2  0  0  0  0
 17 18  1  0  0  0  0
 18 19  1  0  0  0  0
M  CHG  1   3   1
M  END
> <PUBCHEM_COMPOUND_ID_TYPE>
0

> <PUBCHEM_TOTAL_CHARGE>
1

> <PUBCHEM_SUBSTANCE_ID>
310937679

> <PUBCHEM_SUBSTANCE_VERSION>
1

> <PUBCHEM_EXT_DATASOURCE_NAME>
4488

> <PUBCHEM_EXT_DATASOURCE_REGID>
SCHEMBL16115471

> <PUBCHEM_SUBSTANCE_COMMENT>
InChI=1S/C16H17N2O2/c1-18(14-5-3-13(12-19)4-6-14)10-9-17-11-15(20-2)7-8-16(17)18/h3-10,12H,11H2,1-2H3/q+1
InChIKey=HCWCFHBHYNYYNE-UHFFFAOYSA-N

> <PUBCHEM_SUBSTANCE_SYNONYM>
SCHEMBL16115471

> <PUBCHEM_XREF_EXT_ID>
SCHEMBL16115471

> <PUBCHEM_EXT_DATASOURCE_URL>
https://www.surechembl.org/

> <PUBCHEM_EXT_SUBSTANCE_URL>
https://www.surechembl.org/chemical/SCHEMBL16115471

> <PUBCHEM_CID_ASSOCIATIONS>
117605362  1

> <PUBCHEM_COORDINATE_TYPE>
1
3

$$$$
