310945155
  -OEChem-07211613022D

 16 16  0     1  0  0  0  0  0999 V2000
   -1.0822   -1.8681    0.0000 S   0  0  0  0  0  0  0  0  0  0  0  0
    1.3579   -1.7991    0.0000 O   0  0  0  0  0  0  0  0  0  0  0  0
   -2.2265    0.2688    0.0000 O   0  0  0  0  0  0  0  0  0  0  0  0
    0.6410   -0.5446    0.0000 N   0  0  0  0  0  0  0  0  0  0  0  0
   -0.8065    0.2827    0.0000 N   0  0  0  0  0  0  0  0  0  0  0  0
   -0.0758   -0.9582    0.0000 C   0  0  3  0  0  0  0  0  0  0  0  0
   -0.8065   -0.5446    0.0000 C   0  0  3  0  0  0  0  0  0  0  0  0
   -0.2688   -1.7853    0.0000 C   0  0  0  0  0  0  0  0  0  0  0  0
   -1.4131   -1.1374    0.0000 C   0  0  0  0  0  0  0  0  0  0  0  0
    1.3442   -0.9306    0.0000 C   0  0  0  0  0  0  0  0  0  0  0  0
   -1.5096    0.7100    0.0000 C   0  0  0  0  0  0  0  0  0  0  0  0
    2.0059   -0.5170    0.0000 C   0  0  0  0  0  0  0  0  0  0  0  0
   -1.5096    1.5096    0.0000 C   0  0  0  0  0  0  0  0  0  0  0  0
    1.7578   -0.1172    0.0000 C   0  0  0  0  0  0  0  0  0  0  0  0
    2.2816   -0.9306    0.0000 C   0  0  0  0  0  0  0  0  0  0  0  0
   -2.2816    1.8681    0.0000 C   0  0  0  0  0  0  0  0  0  0  0  0
  1  8  1  0  0  0  0
  1  9  1  0  0  0  0
  2 10  2  0  0  0  0
  3 11  2  0  0  0  0
  4  6  1  0  0  0  0
  4 10  1  0  0  0  0
  5  7  1  0  0  0  0
  5 11  1  0  0  0  0
  6  7  1  0  0  0  0
  6  8  1  0  0  0  0
  7  9  1  0  0  0  0
 10 12  1  0  0  0  0
 11 13  1  0  0  0  0
 12 14  1  0  0  0  0
 12 15  1  0  0  0  0
 13 16  2  0  0  0  0
M  END
> <PUBCHEM_COMPOUND_ID_TYPE>
0

> <PUBCHEM_TOTAL_CHARGE>
0

> <PUBCHEM_SUBSTANCE_ID>
310945155

> <PUBCHEM_SUBSTANCE_VERSION>
1

> <PUBCHEM_EXT_DATASOURCE_NAME>
4488

> <PUBCHEM_EXT_DATASOURCE_REGID>
SCHEMBL16123245

> <PUBCHEM_SUBSTANCE_COMMENT>
InChI=1S/C11H18N2O2S/c1-4-10(14)12-8-5-16-6-9(8)13-11(15)7(2)3/h4,7-9H,1,5-6H2,2-3H3,(H,12,14)(H,13,15)
InChIKey=OHEVIYRTMIKGEW-UHFFFAOYSA-N

> <PUBCHEM_SUBSTANCE_SYNONYM>
SCHEMBL16123245

> <PUBCHEM_XREF_EXT_ID>
SCHEMBL16123245

> <PUBCHEM_EXT_DATASOURCE_URL>
https://www.surechembl.org/

> <PUBCHEM_EXT_SUBSTANCE_URL>
https://www.surechembl.org/chemical/SCHEMBL16123245

> <PUBCHEM_CID_ASSOCIATIONS>
117611241  1

> <PUBCHEM_COORDINATE_TYPE>
1
3

$$$$
