310943004
  -OEChem-07211613022D

 31 32  0     1  0  0  0  0  0999 V2000
   -4.3807   -2.3239    0.0000 Br  0  0  0  0  0  0  0  0  0  0  0  0
    4.3006   -2.3773    0.0000 Br  0  0  0  0  0  0  0  0  0  0  0  0
   -0.7480   -1.0951    0.0000 O   0  0  0  0  0  0  0  0  0  0  0  0
    0.6945   -1.1219    0.0000 O   0  0  0  0  0  0  0  0  0  0  0  0
   -4.3540    0.6411    0.0000 O   0  0  0  0  0  0  0  0  0  0  0  0
    4.3273    0.5877    0.0000 O   0  0  0  0  0  0  0  0  0  0  0  0
   -1.4692   -0.0267    0.0000 N   0  0  0  0  0  0  0  0  0  0  0  0
    1.4157   -0.0534    0.0000 N   0  0  0  0  0  0  0  0  0  0  0  0
   -2.1904   -0.4274    0.0000 N   0  0  0  0  0  0  0  0  0  0  0  0
    2.1369   -0.4541    0.0000 N   0  0  0  0  0  0  0  0  0  0  0  0
   -0.0267    0.0000    0.0000 C   0  0  3  0  0  0  0  0  0  0  0  0
   -3.6328   -0.4007    0.0000 C   0  0  0  0  0  0  0  0  0  0  0  0
    3.6061   -0.4541    0.0000 C   0  0  0  0  0  0  0  0  0  0  0  0
   -0.7480   -0.4007    0.0000 C   0  0  0  0  0  0  0  0  0  0  0  0
    0.6945   -0.4007    0.0000 C   0  0  0  0  0  0  0  0  0  0  0  0
   -4.3807    0.0000    0.0000 C   0  0  0  0  0  0  0  0  0  0  0  0
    4.3273   -0.0534    0.0000 C   0  0  0  0  0  0  0  0  0  0  0  0
   -3.6595   -1.2288    0.0000 C   0  0  0  0  0  0  0  0  0  0  0  0
    3.6328   -1.2822    0.0000 C   0  0  0  0  0  0  0  0  0  0  0  0
   -4.3807   -1.6294    0.0000 C   0  0  0  0  0  0  0  0  0  0  0  0
    4.3273   -1.6828    0.0000 C   0  0  0  0  0  0  0  0  0  0  0  0
   -2.9383   -0.0267    0.0000 C   0  0  0  0  0  0  0  0  0  0  0  0
    2.8581   -0.0534    0.0000 C   0  0  0  0  0  0  0  0  0  0  0  0
    0.0267    0.8281    0.0000 C   0  0  0  0  0  0  0  0  0  0  0  0
   -5.0485   -0.4274    0.0000 C   0  0  0  0  0  0  0  0  0  0  0  0
    5.0485   -0.4808    0.0000 C   0  0  0  0  0  0  0  0  0  0  0  0
   -5.0485   -1.2288    0.0000 C   0  0  0  0  0  0  0  0  0  0  0  0
    5.0485   -1.2822    0.0000 C   0  0  0  0  0  0  0  0  0  0  0  0
    0.7212    1.2020    0.0000 C   0  0  0  0  0  0  0  0  0  0  0  0
    0.7480    2.0568    0.0000 C   0  0  0  0  0  0  0  0  0  0  0  0
    1.3356    2.3773    0.0000 C   0  0  0  0  0  0  0  0  0  0  0  0
  1 20  1  0  0  0  0
  2 21  1  0  0  0  0
  3 14  2  0  0  0  0
  4 15  2  0  0  0  0
  5 16  1  0  0  0  0
  6 17  1  0  0  0  0
  7  9  1  0  0  0  0
  7 14  1  0  0  0  0
  8 10  1  0  0  0  0
  8 15  1  0  0  0  0
  9 22  2  0  0  0  0
 10 23  2  0  0  0  0
 11 14  1  0  0  0  0
 11 15  1  0  0  0  0
 11 24  1  0  0  0  0
 12 16  1  0  0  0  0
 12 18  2  0  0  0  0
 12 22  1  0  0  0  0
 13 17  2  0  0  0  0
 13 19  1  0  0  0  0
 13 23  1  0  0  0  0
 16 25  2  0  0  0  0
 17 26  1  0  0  0  0
 18 20  1  0  0  0  0
 19 21  2  0  0  0  0
 20 27  2  0  0  0  0
 21 28  1  0  0  0  0
 24 29  1  0  0  0  0
 25 27  1  0  0  0  0
 26 28  2  0  0  0  0
 29 30  1  0  0  0  0
 30 31  1  0  0  0  0
M  END
> <PUBCHEM_COMPOUND_ID_TYPE>
0

> <PUBCHEM_TOTAL_CHARGE>
0

> <PUBCHEM_SUBSTANCE_ID>
310943004

> <PUBCHEM_SUBSTANCE_VERSION>
1

> <PUBCHEM_EXT_DATASOURCE_NAME>
4488

> <PUBCHEM_EXT_DATASOURCE_REGID>
SCHEMBL16121063

> <PUBCHEM_SUBSTANCE_COMMENT>
InChI=1S/C21H22Br2N4O4/c1-2-3-4-17(20(30)26-24-11-13-9-15(22)5-7-18(13)28)21(31)27-25-12-14-10-16(23)6-8-19(14)29/h5-12,17,28-29H,2-4H2,1H3,(H,26,30)(H,27,31)/b24-11+,25-12+
InChIKey=YVQCOHPNFNANKU-DHSUVYDUSA-N

> <PUBCHEM_SUBSTANCE_SYNONYM>
SCHEMBL16121063

> <PUBCHEM_XREF_EXT_ID>
SCHEMBL16121063

> <PUBCHEM_EXT_DATASOURCE_URL>
https://www.surechembl.org/

> <PUBCHEM_EXT_SUBSTANCE_URL>
https://www.surechembl.org/chemical/SCHEMBL16121063

> <PUBCHEM_CID_ASSOCIATIONS>
5931668  1

> <PUBCHEM_COORDINATE_TYPE>
1
3

$$$$
