310937657
  -OEChem-07211613022D

 24 26  0     1  0  0  0  0  0999 V2000
    2.2684   -1.9946    0.0000 O   0  0  0  0  0  0  0  0  0  0  0  0
    4.4194   -4.0674    0.0000 O   0  0  0  0  0  0  0  0  0  0  0  0
    3.6763   -7.0006    0.0000 O   0  0  0  0  0  0  0  0  0  0  0  0
    2.2684   -4.4976    0.0000 N   0  0  0  0  0  0  0  0  0  0  0  0
    3.6763   -5.3189    0.0000 N   0  0  0  0  0  0  0  0  0  0  0  0
    1.5253   -3.2461    0.0000 C   0  0  0  0  0  0  0  0  0  0  0  0
    0.8213   -2.8159    0.0000 C   0  0  0  0  0  0  0  0  0  0  0  0
    2.2684   -2.8159    0.0000 C   0  0  0  0  0  0  0  0  0  0  0  0
    2.9723   -4.0674    0.0000 C   0  0  0  0  0  0  0  0  0  0  0  0
    2.9723   -3.2461    0.0000 C   0  0  0  0  0  0  0  0  0  0  0  0
    1.5253   -4.0674    0.0000 C   0  0  0  0  0  0  0  0  0  0  0  0
    0.0000   -2.8159    0.0000 C   0  0  0  0  0  0  0  0  0  0  0  0
    0.3911   -2.1119    0.0000 C   0  0  0  0  0  0  0  0  0  0  0  0
    3.6763   -4.4976    0.0000 C   0  0  0  0  0  0  0  0  0  0  0  0
    1.5253   -0.7431    0.0000 C   0  0  0  0  0  0  0  0  0  0  0  0
    1.5253   -1.5644    0.0000 C   0  0  0  0  0  0  0  0  0  0  0  0
    4.4194   -6.5704    0.0000 C   0  0  3  0  0  0  0  0  0  0  0  0
    5.1234   -7.0006    0.0000 C   0  0  0  0  0  0  0  0  0  0  0  0
    4.4194   -5.7491    0.0000 C   0  0  0  0  0  0  0  0  0  0  0  0
    1.1342   -0.0391    0.0000 C   0  0  0  0  0  0  0  0  0  0  0  0
    1.9554    0.0000    0.0000 C   0  0  0  0  0  0  0  0  0  0  0  0
    5.1234   -7.8219    0.0000 C   0  0  0  0  0  0  0  0  0  0  0  0
    5.8273   -6.5704    0.0000 C   0  0  0  0  0  0  0  0  0  0  0  0
    5.8664   -7.3917    0.0000 C   0  0  0  0  0  0  0  0  0  0  0  0
  1  8  1  0  0  0  0
  1 16  1  0  0  0  0
  2 14  2  0  0  0  0
  3 17  1  0  0  0  0
  4  9  1  0  0  0  0
  4 11  2  0  0  0  0
  5 14  1  0  0  0  0
  5 19  1  0  0  0  0
  6  7  1  0  0  0  0
  6  8  2  0  0  0  0
  6 11  1  0  0  0  0
  7 12  1  0  0  0  0
  7 13  1  0  0  0  0
  8 10  1  0  0  0  0
  9 10  2  0  0  0  0
  9 14  1  0  0  0  0
 12 13  1  0  0  0  0
 15 16  1  0  0  0  0
 15 20  1  0  0  0  0
 15 21  1  0  0  0  0
 17 18  1  0  0  0  0
 17 19  1  0  0  0  0
 18 22  1  0  0  0  0
 18 23  1  0  0  0  0
 18 24  1  0  0  0  0
 20 21  1  0  0  0  0
M  END
> <PUBCHEM_COMPOUND_ID_TYPE>
0

> <PUBCHEM_TOTAL_CHARGE>
0

> <PUBCHEM_SUBSTANCE_ID>
310937657

> <PUBCHEM_SUBSTANCE_VERSION>
1

> <PUBCHEM_EXT_DATASOURCE_NAME>
4488

> <PUBCHEM_EXT_DATASOURCE_REGID>
SCHEMBL16115447

> <PUBCHEM_SUBSTANCE_COMMENT>
InChI=1S/C19H28N2O3/c1-19(2,3)17(22)10-21-18(23)15-8-16(24-11-12-4-5-12)14(9-20-15)13-6-7-13/h8-9,12-13,17,22H,4-7,10-11H2,1-3H3,(H,21,23)
InChIKey=SHBBDXPJASJCHJ-UHFFFAOYSA-N

> <PUBCHEM_SUBSTANCE_SYNONYM>
SCHEMBL16115447

> <PUBCHEM_XREF_EXT_ID>
SCHEMBL16115447

> <PUBCHEM_EXT_DATASOURCE_URL>
https://www.surechembl.org/

> <PUBCHEM_EXT_SUBSTANCE_URL>
https://www.surechembl.org/chemical/SCHEMBL16115447

> <PUBCHEM_CID_ASSOCIATIONS>
117605346  1

> <PUBCHEM_COORDINATE_TYPE>
1
3

$$$$
