310944562
  -OEChem-07211613022D

 33 35  0     1  0  0  0  0  0999 V2000
   -3.0507   -0.8547    0.0000 Cl  0  0  0  0  0  0  0  0  0  0  0  0
   -2.1523    2.0525    0.0000 Cl  0  0  0  0  0  0  0  0  0  0  0  0
   -5.0345    0.3930    0.0000 F   0  0  0  0  0  0  0  0  0  0  0  0
   -0.0063   -0.8547    0.0000 O   0  0  0  0  0  0  0  0  0  0  0  0
    1.4286    1.6408    0.0000 O   0  0  0  0  0  0  0  0  0  0  0  0
    5.0345   -0.4429    0.0000 O   0  0  0  0  0  0  0  0  0  0  0  0
    3.5996    2.0525    0.0000 O   0  0  0  0  0  0  0  0  0  0  0  0
    2.1772    0.3930    0.0000 N   0  0  0  0  0  0  0  0  0  0  0  0
    0.0063    0.8173    0.0000 N   0  0  0  0  0  0  0  0  0  0  0  0
    3.6121   -0.4304    0.0000 N   0  0  0  0  0  0  0  0  0  0  0  0
   -2.1523    0.3930    0.0000 C   0  0  0  0  0  0  0  0  0  0  0  0
   -2.8885    0.8173    0.0000 C   0  0  0  0  0  0  0  0  0  0  0  0
   -0.7174    0.4055    0.0000 C   0  0  0  0  0  0  0  0  0  0  0  0
   -2.1648   -0.4304    0.0000 C   0  0  0  0  0  0  0  0  0  0  0  0
   -0.7299   -0.4304    0.0000 C   0  0  0  0  0  0  0  0  0  0  0  0
   -1.4286    0.8047    0.0000 C   0  0  0  0  0  0  0  0  0  0  0  0
   -1.4411   -0.8422    0.0000 C   0  0  0  0  0  0  0  0  0  0  0  0
   -2.8759    1.6532    0.0000 C   0  0  0  0  0  0  0  0  0  0  0  0
    2.8759    0.8173    0.0000 C   0  0  3  0  0  0  0  0  0  0  0  0
   -3.5996    0.4055    0.0000 C   0  0  0  0  0  0  0  0  0  0  0  0
    1.4411    0.8047    0.0000 C   0  0  0  0  0  0  0  0  0  0  0  0
   -4.3108    0.8173    0.0000 C   0  0  0  0  0  0  0  0  0  0  0  0
    0.7299    0.3930    0.0000 C   0  0  0  0  0  0  0  0  0  0  0  0
    3.6121    0.3930    0.0000 C   0  0  0  0  0  0  0  0  0  0  0  0
    2.1648   -0.4304    0.0000 C   0  0  0  0  0  0  0  0  0  0  0  0
   -3.5871    2.0525    0.0000 C   0  0  0  0  0  0  0  0  0  0  0  0
    2.9009   -0.8422    0.0000 C   0  0  0  0  0  0  0  0  0  0  0  0
   -4.2984    1.6408    0.0000 C   0  0  0  0  0  0  0  0  0  0  0  0
    4.3108   -0.8547    0.0000 C   0  0  0  0  0  0  0  0  0  0  0  0
    2.9009    1.6532    0.0000 C   0  0  0  0  0  0  0  0  0  0  0  0
    4.3233   -1.6906    0.0000 C   0  0  0  0  0  0  0  0  0  0  0  0
    0.0063   -1.6906    0.0000 C   0  0  0  0  0  0  0  0  0  0  0  0
    3.5871   -2.0525    0.0000 C   0  0  0  0  0  0  0  0  0  0  0  0
  1 14  1  0  0  0  0
  2 18  1  0  0  0  0
  3 22  1  0  0  0  0
  4 15  1  0  0  0  0
  4 32  1  0  0  0  0
  5 21  2  0  0  0  0
  6 29  2  0  0  0  0
  7 30  1  0  0  0  0
  8 19  1  0  0  0  0
  8 21  1  0  0  0  0
  8 25  1  0  0  0  0
  9 13  1  0  0  0  0
  9 23  1  0  0  0  0
 10 24  1  0  0  0  0
 10 27  1  0  0  0  0
 10 29  1  0  0  0  0
 11 12  1  0  0  0  0
 11 14  2  0  0  0  0
 11 16  1  0  0  0  0
 12 18  1  0  0  0  0
 12 20  2  0  0  0  0
 13 15  1  0  0  0  0
 13 16  2  0  0  0  0
 14 17  1  0  0  0  0
 15 17  2  0  0  0  0
 18 26  2  0  0  0  0
 19 24  1  0  0  0  0
 19 30  1  0  0  0  0
 20 22  1  0  0  0  0
 21 23  1  0  0  0  0
 22 28  2  0  0  0  0
 25 27  1  0  0  0  0
 26 28  1  0  0  0  0
 29 31  1  0  0  0  0
 31 33  2  0  0  0  0
M  END
> <PUBCHEM_COMPOUND_ID_TYPE>
0

> <PUBCHEM_TOTAL_CHARGE>
0

> <PUBCHEM_SUBSTANCE_ID>
310944562

> <PUBCHEM_SUBSTANCE_VERSION>
1

> <PUBCHEM_EXT_DATASOURCE_NAME>
4488

> <PUBCHEM_EXT_DATASOURCE_REGID>
SCHEMBL16122639

> <PUBCHEM_SUBSTANCE_COMMENT>
InChI=1S/C23H24Cl2FN3O4/c1-3-22(31)28-6-7-29(15(12-28)13-30)23(32)11-27-20-9-17(19(25)10-21(20)33-2)16-8-14(26)4-5-18(16)24/h3-5,8-10,15,27,30H,1,6-7,11-13H2,2H3
InChIKey=QBTQHAMRZUUUIZ-UHFFFAOYSA-N

> <PUBCHEM_SUBSTANCE_SYNONYM>
SCHEMBL16122639

> <PUBCHEM_XREF_EXT_ID>
SCHEMBL16122639

> <PUBCHEM_EXT_DATASOURCE_URL>
https://www.surechembl.org/

> <PUBCHEM_EXT_SUBSTANCE_URL>
https://www.surechembl.org/chemical/SCHEMBL16122639

> <PUBCHEM_CID_ASSOCIATIONS>
117610797  1

> <PUBCHEM_COORDINATE_TYPE>
1
3

$$$$
