310929707
  -OEChem-07211613022D

 64 72  0     1  0  0  0  0  0999 V2000
    4.4346   -1.3407    0.0000 S   0  0  0  0  0  0  0  0  0  0  0  0
    2.4751   -2.3205    0.0000 O   0  0  0  0  0  0  0  0  0  0  0  0
    5.0019   -1.9079    0.0000 O   0  0  0  0  0  0  0  0  0  0  0  0
    3.8159   -0.7735    0.0000 O   0  0  0  0  0  0  0  0  0  0  0  0
    4.5378   -0.0516    0.0000 O   0  0  0  0  0  0  0  0  0  0  0  0
    7.3738   -3.3518    0.0000 O   0  0  0  0  0  0  0  0  0  0  0  0
    1.2376   -2.0626    0.0000 O   0  0  0  0  0  0  0  0  0  0  0  0
    8.3536   -6.1878    0.0000 O   0  0  0  0  0  0  0  0  0  0  0  0
    2.8361   -8.1989    0.0000 O   0  0  0  0  0  0  0  0  0  0  0  0
    1.6501   -8.6114    0.0000 O   0  0  0  0  0  0  0  0  0  0  0  0
    7.1160  -10.3131    0.0000 O   0  0  0  0  0  0  0  0  0  0  0  0
    3.6096   -0.8251    0.0000 N   0  0  0  0  0  0  0  0  0  0  0  0
    3.8674   -1.9595    0.0000 N   0  0  0  0  0  0  0  0  0  0  0  0
    5.9816   -1.4438    0.0000 N   0  0  0  0  0  0  0  0  0  0  0  0
    8.3021   -3.8159    0.0000 N   0  0  0  0  0  0  0  0  0  0  0  0
    1.3922   -7.4254    0.0000 N   0  0  0  0  0  0  0  0  0  0  0  0
    7.0645   -8.7146    0.0000 N   0  0  0  0  0  0  0  0  0  0  0  0
    2.8361   -0.9797    0.0000 C   0  0  3  0  0  0  0  0  0  0  0  0
    2.0626   -1.2891    0.0000 C   0  0  3  0  0  0  0  0  0  0  0  0
    2.2173   -0.5157    0.0000 C   0  0  0  0  0  0  0  0  0  0  0  0
    3.0424   -1.7532    0.0000 C   0  0  0  0  0  0  0  0  0  0  0  0
    4.9503   -0.7735    0.0000 C   0  0  0  0  0  0  0  0  0  0  0  0
    4.3830   -0.8251    0.0000 C   0  0  0  0  0  0  0  0  0  0  0  0
    1.3922   -1.7532    0.0000 C   0  0  0  0  0  0  0  0  0  0  0  0
    5.1565    0.0000    0.0000 C   0  0  0  0  0  0  0  0  0  0  0  0
    5.7753   -0.5672    0.0000 C   0  0  0  0  0  0  0  0  0  0  0  0
    5.2081   -1.1344    0.0000 C   0  0  3  0  0  0  0  0  0  0  0  0
    4.2284   -0.4125    0.0000 C   0  0  0  0  0  0  0  0  0  0  0  0
    6.6004   -1.3407    0.0000 C   0  0  0  0  0  0  0  0  0  0  0  0
    7.0645   -2.6814    0.0000 C   0  0  3  0  0  0  0  0  0  0  0  0
    0.7735   -2.2173    0.0000 C   0  0  0  0  0  0  0  0  0  0  0  0
    6.6004   -1.9079    0.0000 C   0  0  0  0  0  0  0  0  0  0  0  0
    1.8048   -2.6298    0.0000 C   0  0  0  0  0  0  0  0  0  0  0  0
    7.5286   -4.1252    0.0000 C   0  0  0  0  0  0  0  0  0  0  0  0
    0.7735   -6.8067    0.0000 C   0  0  3  0  0  0  0  0  0  0  0  0
    7.5286   -5.0534    0.0000 C   0  0  0  0  0  0  0  0  0  0  0  0
    8.3021   -5.3628    0.0000 C   0  0  0  0  0  0  0  0  0  0  0  0
    8.9724   -5.0534    0.0000 C   0  0  0  0  0  0  0  0  0  0  0  0
    0.3094   -3.0424    0.0000 C   0  0  0  0  0  0  0  0  0  0  0  0
    8.9724   -4.1252    0.0000 C   0  0  0  0  0  0  0  0  0  0  0  0
    0.3094   -6.1878    0.0000 C   0  0  0  0  0  0  0  0  0  0  0  0
    7.3738   -5.8269    0.0000 C   0  0  0  0  0  0  0  0  0  0  0  0
    9.7459   -5.3628    0.0000 C   0  0  0  0  0  0  0  0  0  0  0  0
    9.7459   -3.8159    0.0000 C   0  0  0  0  0  0  0  0  0  0  0  0
    0.1547   -3.8159    0.0000 C   0  0  0  0  0  0  0  0  0  0  0  0
    2.0626   -7.8895    0.0000 C   0  0  0  0  0  0  0  0  0  0  0  0
    3.6096   -8.3536    0.0000 C   0  0  3  0  0  0  0  0  0  0  0  0
    4.3830   -8.3536    0.0000 C   0  0  3  0  0  0  0  0  0  0  0  0
    0.1547   -5.3628    0.0000 C   0  0  0  0  0  0  0  0  0  0  0  0
   10.3646   -5.0534    0.0000 C   0  0  0  0  0  0  0  0  0  0  0  0
   10.3646   -4.1252    0.0000 C   0  0  0  0  0  0  0  0  0  0  0  0
    0.0000   -4.5894    0.0000 C   0  0  0  0  0  0  0  0  0  0  0  0
    4.0737   -9.0240    0.0000 C   0  0  0  0  0  0  0  0  0  0  0  0
    6.9613   -6.3941    0.0000 C   0  0  0  0  0  0  0  0  0  0  0  0
    7.6832   -6.6004    0.0000 C   0  0  0  0  0  0  0  0  0  0  0  0
    5.2081   -8.0442    0.0000 C   0  0  0  0  0  0  0  0  0  0  0  0
    6.6004   -7.1160    0.0000 C   0  0  0  0  0  0  0  0  0  0  0  0
    5.9816   -7.7348    0.0000 C   0  0  0  0  0  0  0  0  0  0  0  0
    7.7348   -7.4254    0.0000 C   0  0  0  0  0  0  0  0  0  0  0  0
    7.0129   -7.8895    0.0000 C   0  0  0  0  0  0  0  0  0  0  0  0
    7.7864   -9.0756    0.0000 C   0  0  0  0  0  0  0  0  0  0  0  0
    6.3941   -9.1271    0.0000 C   0  0  0  0  0  0  0  0  0  0  0  0
    6.3941   -9.9521    0.0000 C   0  0  0  0  0  0  0  0  0  0  0  0
    7.7864   -9.9006    0.0000 C   0  0  0  0  0  0  0  0  0  0  0  0
  1  3  2  0  0  0  0
  1  4  2  0  0  0  0
  1 13  1  0  0  0  0
  1 22  1  0  0  0  0
  2 21  2  0  0  0  0
  5 23  2  0  0  0  0
  6 30  1  0  0  0  0
  6 34  1  0  0  0  0
  7 33  2  0  0  0  0
  8 37  1  0  0  0  0
  8 55  1  0  0  0  0
  9 46  1  0  0  0  0
  9 47  1  0  0  0  0
 10 46  2  0  0  0  0
 11 63  1  0  0  0  0
 11 64  1  0  0  0  0
 12 18  1  0  0  0  0
 12 23  1  0  0  0  0
 13 21  1  0  0  0  0
 14 27  1  0  0  0  0
 14 32  1  0  0  0  0
 14 33  1  0  0  0  0
 15 34  1  0  0  0  0
 15 40  2  0  0  0  0
 16 35  1  0  0  0  0
 16 46  1  0  0  0  0
 17 60  1  0  0  0  0
 17 61  1  0  0  0  0
 17 62  1  0  0  0  0
 18 19  1  0  0  0  0
 18 20  1  0  0  0  0
 18 21  1  6  0  0  0
 19 20  1  6  0  0  0
 19 24  1  0  0  0  0
 22 25  1  0  0  0  0
 22 26  1  0  0  0  0
 22 28  1  0  0  0  0
 23 27  1  0  0  0  0
 24 31  2  3  0  0  0
 25 26  1  0  0  0  0
 27 29  1  6  0  0  0
 30 29  1  1  0  0  0
 30 32  1  0  0  0  0
 31 39  1  0  0  0  0
 33 35  1  0  0  0  0
 34 36  2  0  0  0  0
 35 41  1  1  0  0  0
 36 37  1  0  0  0  0
 36 42  1  0  0  0  0
 37 38  2  0  0  0  0
 38 40  1  0  0  0  0
 38 43  1  0  0  0  0
 39 45  1  0  0  0  0
 40 44  1  0  0  0  0
 41 49  1  0  0  0  0
 42 54  2  0  0  0  0
 43 50  2  0  0  0  0
 44 51  2  0  0  0  0
 45 52  1  0  0  0  0
 47 48  1  0  0  0  0
 47 53  1  1  0  0  0
 48 53  1  6  0  0  0
 48 56  1  0  0  0  0
 49 52  1  0  0  0  0
 50 51  1  0  0  0  0
 54 57  1  0  0  0  0
 55 59  1  0  0  0  0
 56 58  1  0  0  0  0
 57 58  1  0  0  0  0
 59 60  1  0  0  0  0
 61 64  1  0  0  0  0
 62 63  1  0  0  0  0
M  END
> <PUBCHEM_COMPOUND_ID_TYPE>
0

> <PUBCHEM_TOTAL_CHARGE>
0

> <PUBCHEM_SUBSTANCE_ID>
310929707

> <PUBCHEM_SUBSTANCE_VERSION>
1

> <PUBCHEM_EXT_DATASOURCE_NAME>
4488

> <PUBCHEM_EXT_DATASOURCE_REGID>
SCHEMBL16106899

> <PUBCHEM_SUBSTANCE_COMMENT>
InChI=1S/C47H62N6O10S/c1-46(19-20-46)64(58,59)51-44(56)47-29-32(47)14-7-3-2-4-9-18-37-43(55)53-30-33(28-38(53)41(54)50-47)62-42-35(16-8-5-6-13-31-27-39(31)63-45(57)49-37)40(34-15-10-11-17-36(34)48-42)61-24-12-21-52-22-25-60-26-23-52/h7-8,10-11,14-17,31-33,37-39H,2-6,9,12-13,18-30H2,1H3,(H,49,57)(H,50,54)(H,51,56)/b14-7-,16-8+/t31-,32-,33-,37+,38+,39-,47-/m1/s1
InChIKey=UJCDKXQEYPUZJE-IGUNCKMPSA-N

> <PUBCHEM_SUBSTANCE_SYNONYM>
SCHEMBL16106899

> <PUBCHEM_XREF_EXT_ID>
SCHEMBL16106899

> <PUBCHEM_EXT_DATASOURCE_URL>
https://www.surechembl.org/

> <PUBCHEM_EXT_SUBSTANCE_URL>
https://www.surechembl.org/chemical/SCHEMBL16106899

> <PUBCHEM_CID_ASSOCIATIONS>
117599005  1

> <PUBCHEM_COORDINATE_TYPE>
1
3

> <PUBCHEM_BONDANNOTATIONS>
18  21  6
19  20  6
27  29  6
30  29  5
35  41  5
47  53  5
48  53  6

$$$$
