310942032
  -OEChem-07211613022D

 33 35  0     1  0  0  0  0  0999 V2000
   -0.9832   -1.7343    0.0000 S   0  0  0  0  0  0  0  0  0  0  0  0
   -0.1912   -1.4749    0.0000 O   0  0  0  0  0  0  0  0  0  0  0  0
   -1.7616   -1.9938    0.0000 O   0  0  0  0  0  0  0  0  0  0  0  0
   -4.1788    0.5462    0.0000 O   0  0  0  0  0  0  0  0  0  0  0  0
    2.5537    2.6766    0.0000 O   0  0  0  0  0  0  0  0  0  0  0  0
    2.1850    4.0559    0.0000 O   0  0  0  0  0  0  0  0  0  0  0  0
   -1.2291   -0.9423    0.0000 N   0  0  0  0  0  0  0  0  0  0  0  0
   -0.7374   -0.2731    0.0000 N   0  0  0  0  0  0  0  0  0  0  0  0
   -0.1639    1.3520    0.0000 N   0  0  3  0  0  0  0  0  0  0  0  0
    1.1608    3.1000    0.0000 N   0  0  0  0  0  0  0  0  0  0  0  0
   -2.0075   -0.6418    0.0000 C   0  0  0  0  0  0  0  0  0  0  0  0
   -1.9938    0.1639    0.0000 C   0  0  0  0  0  0  0  0  0  0  0  0
   -1.2428    0.4233    0.0000 C   0  0  0  0  0  0  0  0  0  0  0  0
   -0.7238   -2.4718    0.0000 C   0  0  0  0  0  0  0  0  0  0  0  0
   -2.7312   -1.0652    0.0000 C   0  0  0  0  0  0  0  0  0  0  0  0
   -2.7449    0.5599    0.0000 C   0  0  0  0  0  0  0  0  0  0  0  0
   -0.9696    1.2017    0.0000 C   0  0  0  0  0  0  0  0  0  0  0  0
   -3.4277    0.1639    0.0000 C   0  0  0  0  0  0  0  0  0  0  0  0
   -3.4277   -0.6691    0.0000 C   0  0  0  0  0  0  0  0  0  0  0  0
   -1.2564   -3.1136    0.0000 C   0  0  0  0  0  0  0  0  0  0  0  0
    0.0956   -2.6630    0.0000 C   0  0  0  0  0  0  0  0  0  0  0  0
   -1.0105   -3.8783    0.0000 C   0  0  0  0  0  0  0  0  0  0  0  0
    0.3414   -3.4550    0.0000 C   0  0  0  0  0  0  0  0  0  0  0  0
   -0.2049   -4.0559    0.0000 C   0  0  0  0  0  0  0  0  0  0  0  0
    0.0956    2.1577    0.0000 C   0  0  0  0  0  0  0  0  0  0  0  0
    0.4097    0.7374    0.0000 C   0  0  0  0  0  0  0  0  0  0  0  0
    0.9013    2.3216    0.0000 C   0  0  0  0  0  0  0  0  0  0  0  0
    1.9665    3.2775    0.0000 C   0  0  0  0  0  0  0  0  0  0  0  0
    3.3731    2.9361    0.0000 C   0  0  0  0  0  0  0  0  0  0  0  0
    0.5599    3.7009    0.0000 C   0  0  0  0  0  0  0  0  0  0  0  0
    3.9603    2.3216    0.0000 C   0  0  0  0  0  0  0  0  0  0  0  0
    3.5642    3.7282    0.0000 C   0  0  0  0  0  0  0  0  0  0  0  0
    4.1788    3.1136    0.0000 C   0  0  0  0  0  0  0  0  0  0  0  0
  1  2  2  0  0  0  0
  1  3  2  0  0  0  0
  1  7  1  0  0  0  0
  1 14  1  0  0  0  0
  4 18  1  0  0  0  0
  5 28  1  0  0  0  0
  5 29  1  0  0  0  0
  6 28  2  0  0  0  0
  7  8  1  0  0  0  0
  7 11  1  0  0  0  0
  8 13  2  0  0  0  0
  9 17  1  0  0  0  0
  9 25  1  0  0  0  0
  9 26  1  0  0  0  0
 10 27  1  0  0  0  0
 10 28  1  0  0  0  0
 10 30  1  0  0  0  0
 11 12  1  0  0  0  0
 11 15  2  0  0  0  0
 12 13  1  0  0  0  0
 12 16  2  0  0  0  0
 13 17  1  0  0  0  0
 14 20  2  0  0  0  0
 14 21  1  0  0  0  0
 15 19  1  0  0  0  0
 16 18  1  0  0  0  0
 18 19  2  0  0  0  0
 20 22  1  0  0  0  0
 21 23  2  0  0  0  0
 22 24  2  0  0  0  0
 23 24  1  0  0  0  0
 25 27  1  0  0  0  0
 29 31  1  0  0  0  0
 29 32  1  0  0  0  0
 29 33  1  0  0  0  0
M  END
> <PUBCHEM_COMPOUND_ID_TYPE>
0

> <PUBCHEM_TOTAL_CHARGE>
0

> <PUBCHEM_SUBSTANCE_ID>
310942032

> <PUBCHEM_SUBSTANCE_VERSION>
1

> <PUBCHEM_EXT_DATASOURCE_NAME>
4488

> <PUBCHEM_EXT_DATASOURCE_REGID>
SCHEMBL16120066

> <PUBCHEM_SUBSTANCE_COMMENT>
InChI=1S/C23H30N4O5S/c1-23(2,3)32-22(29)26(5)14-13-25(4)16-20-19-15-17(28)11-12-21(19)27(24-20)33(30,31)18-9-7-6-8-10-18/h6-12,15,28H,13-14,16H2,1-5H3
InChIKey=DPEPBYGKUVCVMO-UHFFFAOYSA-N

> <PUBCHEM_SUBSTANCE_SYNONYM>
SCHEMBL16120066

> <PUBCHEM_XREF_EXT_ID>
SCHEMBL16120066

> <PUBCHEM_EXT_DATASOURCE_URL>
https://www.surechembl.org/

> <PUBCHEM_EXT_SUBSTANCE_URL>
https://www.surechembl.org/chemical/SCHEMBL16120066

> <PUBCHEM_CID_ASSOCIATIONS>
117608718  1

> <PUBCHEM_COORDINATE_TYPE>
1
3

$$$$
