310938102
  -OEChem-07211613022D

  9 10  0     1  0  0  0  0  0999 V2000
    1.1224    1.1050    0.0000 I   0  0  0  0  0  0  0  0  0  0  0  0
    2.7275   -0.0612    0.0000 O   0  0  0  0  0  0  0  0  0  0  0  0
    2.4975    1.3909    0.0000 O   0  0  0  0  0  0  0  0  0  0  0  0
    2.4975   -1.5133    0.0000 O   0  0  0  0  0  0  0  0  0  0  0  0
    1.4579    0.3513    0.0000 C   0  0  3  0  0  0  0  0  0  0  0  0
    1.4579   -0.4737    0.0000 C   0  0  3  0  0  0  0  0  0  0  0  0
    0.7434   -0.0612    0.0000 C   0  0  0  0  0  0  0  0  0  0  0  0
    2.2425    0.6062    0.0000 C   0  0  0  0  0  0  0  0  0  0  0  0
    2.2425   -0.7286    0.0000 C   0  0  0  0  0  0  0  0  0  0  0  0
  1  5  1  0  0  0  0
  2  8  1  0  0  0  0
  2  9  1  0  0  0  0
  3  8  2  0  0  0  0
  4  9  2  0  0  0  0
  5  6  1  0  0  0  0
  5  7  1  0  0  0  0
  5  8  1  0  0  0  0
  6  7  1  0  0  0  0
  6  9  1  0  0  0  0
M  END
> <PUBCHEM_COMPOUND_ID_TYPE>
0

> <PUBCHEM_TOTAL_CHARGE>
0

> <PUBCHEM_SUBSTANCE_ID>
310938102

> <PUBCHEM_SUBSTANCE_VERSION>
1

> <PUBCHEM_EXT_DATASOURCE_NAME>
4488

> <PUBCHEM_EXT_DATASOURCE_REGID>
SCHEMBL16115948

> <PUBCHEM_SUBSTANCE_COMMENT>
InChI=1S/C5H3IO3/c6-5-1-2(5)3(7)9-4(5)8/h2H,1H2
InChIKey=RHDLZKAGVAJHNC-UHFFFAOYSA-N

> <PUBCHEM_SUBSTANCE_SYNONYM>
SCHEMBL16115948

> <PUBCHEM_XREF_EXT_ID>
SCHEMBL16115948

> <PUBCHEM_EXT_DATASOURCE_URL>
https://www.surechembl.org/

> <PUBCHEM_EXT_SUBSTANCE_URL>
https://www.surechembl.org/chemical/SCHEMBL16115948

> <PUBCHEM_CID_ASSOCIATIONS>
117605664  1

> <PUBCHEM_COORDINATE_TYPE>
1
3

$$$$
