310946939
  -OEChem-07211613022D

 35 38  0     1  0  0  0  0  0999 V2000
   -0.5978    3.2638    0.0000 F   0  0  0  0  0  0  0  0  0  0  0  0
    0.1293    0.4847    0.0000 F   0  0  0  0  0  0  0  0  0  0  0  0
    2.1489    2.5044    0.0000 O   0  0  0  0  0  0  0  0  0  0  0  0
   -0.2747   -1.5027    0.0000 N   0  0  0  0  0  0  0  0  0  0  0  0
   -1.6804   -1.8743    0.0000 N   0  0  0  0  0  0  0  0  0  0  0  0
   -1.2926    0.8563    0.0000 N   0  0  0  0  0  0  0  0  0  0  0  0
   -0.6463   -2.8922    0.0000 N   0  0  0  0  0  0  0  0  0  0  0  0
    0.7432   -2.5206    0.0000 N   0  0  0  0  0  0  0  0  0  0  0  0
   -0.8079    0.1777    0.0000 N   0  0  0  0  0  0  0  0  0  0  0  0
   -2.0359   -3.2638    0.0000 N   0  0  0  0  0  0  0  0  0  0  0  0
    2.5206   -0.7756    0.0000 N   0  0  0  0  0  0  0  0  0  0  0  0
   -2.1005   -0.1939    0.0000 C   0  0  0  0  0  0  0  0  0  0  0  0
   -1.3088   -0.4524    0.0000 C   0  0  0  0  0  0  0  0  0  0  0  0
   -1.0826   -1.2441    0.0000 C   0  0  0  0  0  0  0  0  0  0  0  0
   -2.0843    0.6140    0.0000 C   0  0  0  0  0  0  0  0  0  0  0  0
   -0.2909    1.9066    0.0000 C   0  0  0  0  0  0  0  0  0  0  0  0
   -0.0646   -2.2459    0.0000 C   0  0  3  0  0  0  0  0  0  0  0  0
   -0.0323    2.6983    0.0000 C   0  0  0  0  0  0  0  0  0  0  0  0
    0.3070    1.3088    0.0000 C   0  0  0  0  0  0  0  0  0  0  0  0
   -1.4541   -2.6175    0.0000 C   0  0  0  0  0  0  0  0  0  0  0  0
   -2.8114   -0.6140    0.0000 C   0  0  0  0  0  0  0  0  0  0  0  0
   -1.0502    1.6804    0.0000 C   0  0  0  0  0  0  0  0  0  0  0  0
   -2.7952    1.0179    0.0000 C   0  0  0  0  0  0  0  0  0  0  0  0
    1.3411    2.3106    0.0000 C   0  0  0  0  0  0  0  0  0  0  0  0
    0.7432    2.9084    0.0000 C   0  0  0  0  0  0  0  0  0  0  0  0
    1.1148    1.5188    0.0000 C   0  0  0  0  0  0  0  0  0  0  0  0
   -3.5224   -0.2101    0.0000 C   0  0  0  0  0  0  0  0  0  0  0  0
    1.3411   -1.9066    0.0000 C   0  0  0  0  0  0  0  0  0  0  0  0
   -3.5385    0.6140    0.0000 C   0  0  0  0  0  0  0  0  0  0  0  0
    1.1310   -1.1310    0.0000 C   0  0  0  0  0  0  0  0  0  0  0  0
    2.1489   -2.1328    0.0000 C   0  0  0  0  0  0  0  0  0  0  0  0
    1.7127   -0.5332    0.0000 C   0  0  0  0  0  0  0  0  0  0  0  0
    2.7145   -1.5673    0.0000 C   0  0  0  0  0  0  0  0  0  0  0  0
    2.7629    1.9389    0.0000 C   0  0  0  0  0  0  0  0  0  0  0  0
    3.5385    2.1328    0.0000 C   0  0  0  0  0  0  0  0  0  0  0  0
  1 18  1  0  0  0  0
  2 19  1  0  0  0  0
  3 24  1  0  0  0  0
  3 34  1  0  0  0  0
  4 14  2  0  0  0  0
  4 17  1  0  0  0  0
  5 14  1  0  0  0  0
  5 20  2  0  0  0  0
  6 15  1  0  0  0  0
  6 22  1  0  0  0  0
  7 17  1  0  0  0  0
  7 20  1  0  0  0  0
  8 17  1  0  0  0  0
  8 28  1  0  0  0  0
  9 13  2  3  0  0  0
 10 20  1  0  0  0  0
 11 32  2  0  0  0  0
 11 33  1  0  0  0  0
 12 13  1  0  0  0  0
 12 15  2  0  0  0  0
 12 21  1  0  0  0  0
 13 14  1  0  0  0  0
 15 23  1  0  0  0  0
 16 18  2  0  0  0  0
 16 19  1  0  0  0  0
 16 22  1  0  0  0  0
 18 25  1  0  0  0  0
 19 26  2  0  0  0  0
 21 27  2  0  0  0  0
 23 29  2  0  0  0  0
 24 25  2  0  0  0  0
 24 26  1  0  0  0  0
 27 29  1  0  0  0  0
 28 30  2  0  0  0  0
 28 31  1  0  0  0  0
 30 32  1  0  0  0  0
 31 33  2  0  0  0  0
 34 35  1  0  0  0  0
M  END
> <PUBCHEM_COMPOUND_ID_TYPE>
0

> <PUBCHEM_TOTAL_CHARGE>
0

> <PUBCHEM_SUBSTANCE_ID>
310946939

> <PUBCHEM_SUBSTANCE_VERSION>
1

> <PUBCHEM_EXT_DATASOURCE_NAME>
4488

> <PUBCHEM_EXT_DATASOURCE_REGID>
SCHEMBL16125064

> <PUBCHEM_SUBSTANCE_COMMENT>
InChI=1S/C24H24F2N8O/c1-2-35-15-11-18(25)17(19(26)12-15)13-30-20-6-4-3-5-16(20)21(27)22-32-23(28)34-24(33-22)31-14-7-9-29-10-8-14/h3-12,24,27,30H,2,13H2,1H3,(H,29,31)(H3,28,32,33,34)
InChIKey=OMBRUGRBQGFYCJ-UHFFFAOYSA-N

> <PUBCHEM_SUBSTANCE_SYNONYM>
SCHEMBL16125064

> <PUBCHEM_XREF_EXT_ID>
SCHEMBL16125064

> <PUBCHEM_EXT_DATASOURCE_URL>
https://www.surechembl.org/

> <PUBCHEM_EXT_SUBSTANCE_URL>
https://www.surechembl.org/chemical/SCHEMBL16125064

> <PUBCHEM_CID_ASSOCIATIONS>
117612795  1

> <PUBCHEM_COORDINATE_TYPE>
1
3

$$$$
