310939589
  -OEChem-07211613022D

 34 36  0     1  0  0  0  0  0999 V2000
   -2.1434    1.9127    0.0000 O   0  0  0  0  0  0  0  0  0  0  0  0
   -3.5724    1.0877    0.0000 O   0  0  0  0  0  0  0  0  0  0  0  0
    0.7145    1.0877    0.0000 N   0  0  0  0  0  0  0  0  0  0  0  0
    1.4289    2.3252    0.0000 N   0  0  0  0  0  0  0  0  0  0  0  0
    2.8579    2.3252    0.0000 N   0  0  0  0  0  0  0  0  0  0  0  0
    1.0164   -1.4193    0.0000 N   0  0  0  0  0  0  0  0  0  0  0  0
    1.8414   -1.4193    0.0000 N   0  0  0  0  0  0  0  0  0  0  0  0
    5.7158    1.5002    0.0000 N   0  0  0  0  0  0  0  0  0  0  0  0
   -5.0013    1.9127    0.0000 N   0  0  0  0  0  0  0  0  0  0  0  0
    1.4289    0.6752    0.0000 C   0  0  0  0  0  0  0  0  0  0  0  0
    0.7145    1.9127    0.0000 C   0  0  0  0  0  0  0  0  0  0  0  0
    1.4289   -0.1498    0.0000 C   0  0  0  0  0  0  0  0  0  0  0  0
    2.1434    1.9127    0.0000 C   0  0  0  0  0  0  0  0  0  0  0  0
    0.0000    2.3252    0.0000 C   0  0  0  0  0  0  0  0  0  0  0  0
    2.1434    1.0877    0.0000 C   0  0  0  0  0  0  0  0  0  0  0  0
    0.7615   -0.6347    0.0000 C   0  0  0  0  0  0  0  0  0  0  0  0
    2.0964   -0.6347    0.0000 C   0  0  0  0  0  0  0  0  0  0  0  0
   -0.7145    1.9127    0.0000 C   0  0  0  0  0  0  0  0  0  0  0  0
    0.0000    3.1502    0.0000 C   0  0  0  0  0  0  0  0  0  0  0  0
   -1.4289    2.3252    0.0000 C   0  0  0  0  0  0  0  0  0  0  0  0
   -0.7145    3.5627    0.0000 C   0  0  0  0  0  0  0  0  0  0  0  0
    0.6039   -2.1338    0.0000 C   0  0  0  0  0  0  0  0  0  0  0  0
   -1.4289    3.1502    0.0000 C   0  0  0  0  0  0  0  0  0  0  0  0
    3.5724    1.9127    0.0000 C   0  0  0  0  0  0  0  0  0  0  0  0
    2.8579    3.1502    0.0000 C   0  0  0  0  0  0  0  0  0  0  0  0
    1.0164   -2.8483    0.0000 C   0  0  0  0  0  0  0  0  0  0  0  0
    4.2868    2.3252    0.0000 C   0  0  0  0  0  0  0  0  0  0  0  0
   -2.8579    2.3252    0.0000 C   0  0  0  0  0  0  0  0  0  0  0  0
   -3.5724    1.9127    0.0000 C   0  0  3  0  0  0  0  0  0  0  0  0
    0.6039   -3.5627    0.0000 C   0  0  0  0  0  0  0  0  0  0  0  0
    1.8414   -2.8483    0.0000 C   0  0  0  0  0  0  0  0  0  0  0  0
    5.0013    1.9127    0.0000 C   0  0  0  0  0  0  0  0  0  0  0  0
   -4.2868    2.3252    0.0000 C   0  0  0  0  0  0  0  0  0  0  0  0
   -5.7158    2.3252    0.0000 C   0  0  0  0  0  0  0  0  0  0  0  0
  1 20  1  0  0  0  0
  1 28  1  0  0  0  0
  2 29  1  0  0  0  0
  3 10  1  0  0  0  0
  3 11  2  0  0  0  0
  4 11  1  0  0  0  0
  4 13  2  0  0  0  0
  5 13  1  0  0  0  0
  5 24  1  0  0  0  0
  5 25  1  0  0  0  0
  6  7  1  0  0  0  0
  6 16  1  0  0  0  0
  6 22  1  0  0  0  0
  7 17  2  0  0  0  0
  8 32  3  0  0  0  0
  9 33  1  0  0  0  0
  9 34  1  0  0  0  0
 10 12  1  0  0  0  0
 10 15  2  0  0  0  0
 11 14  1  0  0  0  0
 12 16  2  0  0  0  0
 12 17  1  0  0  0  0
 13 15  1  0  0  0  0
 14 18  2  0  0  0  0
 14 19  1  0  0  0  0
 18 20  1  0  0  0  0
 19 21  2  0  0  0  0
 20 23  2  0  0  0  0
 21 23  1  0  0  0  0
 22 26  1  0  0  0  0
 24 27  1  0  0  0  0
 26 30  1  0  0  0  0
 26 31  1  0  0  0  0
 27 32  1  0  0  0  0
 28 29  1  0  0  0  0
 29 33  1  0  0  0  0
M  END
> <PUBCHEM_COMPOUND_ID_TYPE>
0

> <PUBCHEM_TOTAL_CHARGE>
0

> <PUBCHEM_SUBSTANCE_ID>
310939589

> <PUBCHEM_SUBSTANCE_VERSION>
1

> <PUBCHEM_EXT_DATASOURCE_NAME>
4488

> <PUBCHEM_EXT_DATASOURCE_REGID>
SCHEMBL16117518

> <PUBCHEM_SUBSTANCE_COMMENT>
InChI=1S/C25H33N7O2/c1-18(2)15-32-16-20(13-28-32)23-12-24(31(4)10-6-9-26)30-25(29-23)19-7-5-8-22(11-19)34-17-21(33)14-27-3/h5,7-8,11-13,16,18,21,27,33H,6,10,14-15,17H2,1-4H3
InChIKey=QOJGUJJAUIUAIG-UHFFFAOYSA-N

> <PUBCHEM_SUBSTANCE_SYNONYM>
SCHEMBL16117518

> <PUBCHEM_XREF_EXT_ID>
SCHEMBL16117518

> <PUBCHEM_EXT_DATASOURCE_URL>
https://www.surechembl.org/

> <PUBCHEM_EXT_SUBSTANCE_URL>
https://www.surechembl.org/chemical/SCHEMBL16117518

> <PUBCHEM_CID_ASSOCIATIONS>
85472298  1

> <PUBCHEM_COORDINATE_TYPE>
1
3

$$$$
