310935308
  -OEChem-07211613022D

 35 37  0     1  0  0  0  0  0999 V2000
    2.0612   -3.5629    0.0000 O   0  0  0  0  0  0  0  0  0  0  0  0
    2.4734   -5.7419    0.0000 O   0  0  0  0  0  0  0  0  0  0  0  0
    2.0906   -0.7067    0.0000 O   0  0  0  0  0  0  0  0  0  0  0  0
    6.5664   -2.0612    0.0000 O   0  0  0  0  0  0  0  0  0  0  0  0
    1.2367   -5.0058    0.0000 O   0  0  0  0  0  0  0  0  0  0  0  0
    7.2731   -3.2979    0.0000 O   0  0  0  0  0  0  0  0  0  0  0  0
    4.9469   -4.2991    0.0000 N   0  0  0  0  0  0  0  0  0  0  0  0
    3.3274   -2.8562    0.0000 N   0  0  0  0  0  0  0  0  0  0  0  0
    5.8008   -4.0930    0.0000 N   0  0  0  0  0  0  0  0  0  0  0  0
    3.7396   -3.5924    0.0000 C   0  0  0  0  0  0  0  0  0  0  0  0
    4.5346   -3.5924    0.0000 C   0  0  0  0  0  0  0  0  0  0  0  0
    3.3274   -4.2991    0.0000 C   0  0  0  0  0  0  0  0  0  0  0  0
    3.7396   -5.0058    0.0000 C   0  0  0  0  0  0  0  0  0  0  0  0
    2.4734   -4.2991    0.0000 C   0  0  3  0  0  0  0  0  0  0  0  0
    5.0941   -2.9446    0.0000 C   0  0  0  0  0  0  0  0  0  0  0  0
    4.5346   -5.0058    0.0000 C   0  0  0  0  0  0  0  0  0  0  0  0
    5.8597   -3.2979    0.0000 C   0  0  0  0  0  0  0  0  0  0  0  0
    2.4734   -2.8562    0.0000 C   0  0  0  0  0  0  0  0  0  0  0  0
    3.7396   -2.1496    0.0000 C   0  0  0  0  0  0  0  0  0  0  0  0
    2.0612   -5.0058    0.0000 C   0  0  0  0  0  0  0  0  0  0  0  0
    2.5029   -1.4428    0.0000 C   0  0  0  0  0  0  0  0  0  0  0  0
    6.5664   -2.8562    0.0000 C   0  0  0  0  0  0  0  0  0  0  0  0
    2.0612   -2.1496    0.0000 C   0  0  0  0  0  0  0  0  0  0  0  0
    3.3274   -1.4428    0.0000 C   0  0  0  0  0  0  0  0  0  0  0  0
    3.4746   -5.8891    0.0000 C   0  0  0  0  0  0  0  0  0  0  0  0
    1.2367   -3.5629    0.0000 C   0  0  0  0  0  0  0  0  0  0  0  0
    2.9151   -0.7067    0.0000 C   0  0  0  0  0  0  0  0  0  0  0  0
    0.4123   -3.5335    0.0000 C   0  0  0  0  0  0  0  0  0  0  0  0
    1.2661   -2.7384    0.0000 C   0  0  0  0  0  0  0  0  0  0  0  0
    1.2367   -4.3874    0.0000 C   0  0  0  0  0  0  0  0  0  0  0  0
    1.2661   -0.7067    0.0000 C   0  0  0  0  0  0  0  0  0  0  0  0
    3.3274   -5.7419    0.0000 C   0  0  0  0  0  0  0  0  0  0  0  0
    7.2731   -1.6195    0.0000 C   0  0  0  0  0  0  0  0  0  0  0  0
    0.8539    0.0000    0.0000 C   0  0  0  0  0  0  0  0  0  0  0  0
    0.0000    0.0000    0.0000 C   0  0  0  0  0  0  0  0  0  0  0  0
  1 14  1  0  0  0  0
  1 26  1  0  0  0  0
  2 20  1  0  0  0  0
  2 32  1  0  0  0  0
  3 21  1  0  0  0  0
  3 31  1  0  0  0  0
  4 22  1  0  0  0  0
  4 33  1  0  0  0  0
  5 20  2  0  0  0  0
  6 22  2  0  0  0  0
  7  9  1  0  0  0  0
  7 11  1  0  0  0  0
  7 16  1  0  0  0  0
  8 10  1  0  0  0  0
  8 18  1  0  0  0  0
  8 19  1  0  0  0  0
  9 17  2  0  0  0  0
 10 11  1  0  0  0  0
 10 12  2  0  0  0  0
 11 15  2  0  0  0  0
 12 13  1  0  0  0  0
 12 14  1  0  0  0  0
 13 16  2  0  0  0  0
 13 25  1  0  0  0  0
 14 20  1  0  0  0  0
 15 17  1  0  0  0  0
 17 22  1  0  0  0  0
 18 23  1  0  0  0  0
 19 24  1  0  0  0  0
 21 23  1  0  0  0  0
 21 24  1  0  0  0  0
 21 27  1  0  0  0  0
 26 28  1  0  0  0  0
 26 29  1  0  0  0  0
 26 30  1  0  0  0  0
 31 34  1  0  0  0  0
 34 35  2  0  0  0  0
M  END
> <PUBCHEM_COMPOUND_ID_TYPE>
0

> <PUBCHEM_TOTAL_CHARGE>
0

> <PUBCHEM_SUBSTANCE_ID>
310935308

> <PUBCHEM_SUBSTANCE_VERSION>
1

> <PUBCHEM_EXT_DATASOURCE_NAME>
4488

> <PUBCHEM_EXT_DATASOURCE_REGID>
SCHEMBL16112842

> <PUBCHEM_SUBSTANCE_COMMENT>
InChI=1S/C26H37N3O6/c1-9-14-34-26(6)10-12-28(13-11-26)21-19-15-18(23(30)32-7)27-29(19)16-17(2)20(21)22(24(31)33-8)35-25(3,4)5/h9,15-16,22H,1,10-14H2,2-8H3
InChIKey=IBIGDPRJYKIZAV-UHFFFAOYSA-N

> <PUBCHEM_SUBSTANCE_SYNONYM>
SCHEMBL16112842

> <PUBCHEM_XREF_EXT_ID>
SCHEMBL16112842

> <PUBCHEM_EXT_DATASOURCE_URL>
https://www.surechembl.org/

> <PUBCHEM_EXT_SUBSTANCE_URL>
https://www.surechembl.org/chemical/SCHEMBL16112842

> <PUBCHEM_CID_ASSOCIATIONS>
117603371  1

> <PUBCHEM_COORDINATE_TYPE>
1
3

$$$$
