310939661
  -OEChem-07211613022D

 35 38  0     1  0  0  0  0  0999 V2000
   -1.4398    5.6164    0.0000 O   0  0  0  0  0  0  0  0  0  0  0  0
    2.1799    1.0062    0.0000 O   0  0  0  0  0  0  0  0  0  0  0  0
   -2.8688    4.7914    0.0000 O   0  0  0  0  0  0  0  0  0  0  0  0
    2.1329    6.0289    0.0000 N   0  0  0  0  0  0  0  0  0  0  0  0
    1.4183    4.7914    0.0000 N   0  0  0  0  0  0  0  0  0  0  0  0
    2.1329    3.5538    0.0000 N   0  0  0  0  0  0  0  0  0  0  0  0
    4.2764    7.2588    0.0000 N   0  0  0  0  0  0  0  0  0  0  0  0
    3.5619    1.0786    0.0000 N   0  0  0  0  0  0  0  0  0  0  0  0
   -4.2979    5.6164    0.0000 N   0  0  0  0  0  0  0  0  0  0  0  0
    1.4183    5.6164    0.0000 C   0  0  0  0  0  0  0  0  0  0  0  0
    2.8473    5.6164    0.0000 C   0  0  0  0  0  0  0  0  0  0  0  0
    0.7038    6.0289    0.0000 C   0  0  0  0  0  0  0  0  0  0  0  0
    2.1329    4.3788    0.0000 C   0  0  0  0  0  0  0  0  0  0  0  0
    3.5619    6.0289    0.0000 C   0  0  0  0  0  0  0  0  0  0  0  0
    2.8473    4.7914    0.0000 C   0  0  0  0  0  0  0  0  0  0  0  0
   -0.0107    5.6164    0.0000 C   0  0  0  0  0  0  0  0  0  0  0  0
    0.7038    6.8540    0.0000 C   0  0  0  0  0  0  0  0  0  0  0  0
   -0.7253    6.0289    0.0000 C   0  0  0  0  0  0  0  0  0  0  0  0
    3.5619    6.8540    0.0000 C   0  0  0  0  0  0  0  0  0  0  0  0
    4.2764    5.6164    0.0000 C   0  0  0  0  0  0  0  0  0  0  0  0
   -0.0107    7.2665    0.0000 C   0  0  0  0  0  0  0  0  0  0  0  0
   -0.7253    6.8540    0.0000 C   0  0  0  0  0  0  0  0  0  0  0  0
    2.8473    3.1412    0.0000 C   0  0  0  0  0  0  0  0  0  0  0  0
    4.9909    6.0289    0.0000 C   0  0  0  0  0  0  0  0  0  0  0  0
    4.9865    6.8463    0.0000 C   0  0  0  0  0  0  0  0  0  0  0  0
    2.8944    0.5936    0.0000 C   0  0  0  0  0  0  0  0  0  0  0  0
    2.8473    2.3162    0.0000 C   0  0  0  0  0  0  0  0  0  0  0  0
    3.5619    1.9036    0.0000 C   0  0  0  0  0  0  0  0  0  0  0  0
   -2.1544    6.0289    0.0000 C   0  0  0  0  0  0  0  0  0  0  0  0
    4.2294    0.5936    0.0000 C   0  0  0  0  0  0  0  0  0  0  0  0
    3.1493   -0.1910    0.0000 C   0  0  0  0  0  0  0  0  0  0  0  0
    3.9744   -0.1910    0.0000 C   0  0  0  0  0  0  0  0  0  0  0  0
   -2.8688    5.6164    0.0000 C   0  0  3  0  0  0  0  0  0  0  0  0
   -3.5834    6.0289    0.0000 C   0  0  0  0  0  0  0  0  0  0  0  0
   -5.0124    6.0289    0.0000 C   0  0  0  0  0  0  0  0  0  0  0  0
  1 18  1  0  0  0  0
  1 29  1  0  0  0  0
  2 26  2  0  0  0  0
  3 33  1  0  0  0  0
  4 10  2  0  0  0  0
  4 11  1  0  0  0  0
  5 10  1  0  0  0  0
  5 13  2  0  0  0  0
  6 13  1  0  0  0  0
  6 23  1  0  0  0  0
  7 19  1  0  0  0  0
  7 25  2  0  0  0  0
  8 26  1  0  0  0  0
  8 28  1  0  0  0  0
  8 30  1  0  0  0  0
  9 34  1  0  0  0  0
  9 35  1  0  0  0  0
 10 12  1  0  0  0  0
 11 14  1  0  0  0  0
 11 15  2  0  0  0  0
 12 16  2  0  0  0  0
 12 17  1  0  0  0  0
 13 15  1  0  0  0  0
 14 19  2  0  0  0  0
 14 20  1  0  0  0  0
 16 18  1  0  0  0  0
 17 21  2  0  0  0  0
 18 22  2  0  0  0  0
 20 24  2  0  0  0  0
 21 22  1  0  0  0  0
 23 27  1  0  0  0  0
 24 25  1  0  0  0  0
 26 31  1  0  0  0  0
 27 28  1  0  0  0  0
 29 33  1  0  0  0  0
 30 32  1  0  0  0  0
 31 32  1  0  0  0  0
 33 34  1  0  0  0  0
M  END
> <PUBCHEM_COMPOUND_ID_TYPE>
0

> <PUBCHEM_TOTAL_CHARGE>
0

> <PUBCHEM_SUBSTANCE_ID>
310939661

> <PUBCHEM_SUBSTANCE_VERSION>
1

> <PUBCHEM_EXT_DATASOURCE_NAME>
4488

> <PUBCHEM_EXT_DATASOURCE_REGID>
SCHEMBL16117591

> <PUBCHEM_SUBSTANCE_COMMENT>
InChI=1S/C26H32N6O3/c1-27-17-21(33)18-35-22-8-2-6-19(14-22)26-30-23(20-7-3-10-28-16-20)15-24(31-26)29-11-5-13-32-12-4-9-25(32)34/h2-3,6-8,10,14-16,21,27,33H,4-5,9,11-13,17-18H2,1H3,(H,29,30,31)
InChIKey=GNWRIHZTCUJJRL-UHFFFAOYSA-N

> <PUBCHEM_SUBSTANCE_SYNONYM>
SCHEMBL16117591

> <PUBCHEM_XREF_EXT_ID>
SCHEMBL16117591

> <PUBCHEM_EXT_DATASOURCE_URL>
https://www.surechembl.org/

> <PUBCHEM_EXT_SUBSTANCE_URL>
https://www.surechembl.org/chemical/SCHEMBL16117591

> <PUBCHEM_CID_ASSOCIATIONS>
117606896  1

> <PUBCHEM_COORDINATE_TYPE>
1
3

$$$$
