310937385
  -OEChem-07211613022D

 14 15  0     1  0  0  0  0  0999 V2000
    0.8418   -2.1303    0.0000 O   0  0  0  0  0  0  0  0  0  0  0  0
    1.6493   -2.1475    0.0000 N   0  0  0  0  0  0  0  0  0  0  0  0
    0.4467   -1.4260    0.0000 N   0  0  0  0  0  0  0  0  0  0  0  0
    2.4739   -2.2163    0.0000 N   0  0  0  0  0  0  0  0  0  0  0  0
    2.6458   -3.0409    0.0000 N   0  0  0  0  0  0  0  0  0  0  0  0
    1.2542   -1.4260    0.0000 C   0  0  3  0  0  0  0  0  0  0  0  0
    1.6837   -0.7044    0.0000 C   0  0  0  0  0  0  0  0  0  0  0  0
    1.3057   -2.8863    0.0000 C   0  0  0  0  0  0  0  0  0  0  0  0
    1.2542    0.0000    0.0000 C   0  0  0  0  0  0  0  0  0  0  0  0
    0.0000   -0.7044    0.0000 C   0  0  0  0  0  0  0  0  0  0  0  0
    1.9242   -3.4360    0.0000 C   0  0  0  0  0  0  0  0  0  0  0  0
    0.4467    0.0000    0.0000 C   0  0  0  0  0  0  0  0  0  0  0  0
    2.5083   -0.7044    0.0000 C   0  0  0  0  0  0  0  0  0  0  0  0
    1.4088   -3.0065    0.0000 C   0  0  0  0  0  0  0  0  0  0  0  0
  1  6  1  0  0  0  0
  1 14  1  0  0  0  0
  2  4  1  0  0  0  0
  2  6  1  0  0  0  0
  2  8  1  0  0  0  0
  3  6  1  0  0  0  0
  3 10  1  0  0  0  0
  4  5  2  0  0  0  0
  5 11  1  0  0  0  0
  6  7  1  0  0  0  0
  7  9  2  0  0  0  0
  7 13  1  0  0  0  0
  8 11  2  0  0  0  0
  9 12  1  0  0  0  0
 10 12  2  0  0  0  0
M  END
> <PUBCHEM_COMPOUND_ID_TYPE>
0

> <PUBCHEM_TOTAL_CHARGE>
0

> <PUBCHEM_SUBSTANCE_ID>
310937385

> <PUBCHEM_SUBSTANCE_VERSION>
1

> <PUBCHEM_EXT_DATASOURCE_NAME>
4488

> <PUBCHEM_EXT_DATASOURCE_REGID>
SCHEMBL16115143

> <PUBCHEM_SUBSTANCE_COMMENT>
InChI=1S/C9H12N4O/c1-8-4-3-5-10-9(8,14-2)13-7-6-11-12-13/h3-7,10H,1-2H3
InChIKey=XVKQSCSIAFROMS-UHFFFAOYSA-N

> <PUBCHEM_SUBSTANCE_SYNONYM>
SCHEMBL16115143

> <PUBCHEM_XREF_EXT_ID>
SCHEMBL16115143

> <PUBCHEM_EXT_DATASOURCE_URL>
https://www.surechembl.org/

> <PUBCHEM_EXT_SUBSTANCE_URL>
https://www.surechembl.org/chemical/SCHEMBL16115143

> <PUBCHEM_CID_ASSOCIATIONS>
117605152  1

> <PUBCHEM_COORDINATE_TYPE>
1
3

$$$$
