310946415
  -OEChem-07211613022D

 30 31  0     1  0  0  0  0  0999 V2000
   -1.2566   12.9644    0.0000 O   0  0  0  0  0  0  0  0  0  0  0  0
    0.4946   14.2349    0.0000 O   0  0  0  0  0  0  0  0  0  0  0  0
    1.5746   13.4502    0.0000 O   0  0  0  0  0  0  0  0  0  0  0  0
   -2.7927   10.5754    0.0000 O   0  0  0  0  0  0  0  0  0  0  0  0
   -1.8399   11.5560    0.0000 O   0  0  0  0  0  0  0  0  0  0  0  0
   -4.3470   11.1192    0.0000 O   0  0  0  0  0  0  0  0  0  0  0  0
    1.7321   14.9493    0.0000 O   0  0  0  0  0  0  0  0  0  0  0  0
    1.1922   11.7024    0.0000 O   0  0  0  0  0  0  0  0  0  0  0  0
    1.1922   13.1313    0.0000 O   0  5  0  0  0  0  0  0  0  0  0  0
   -0.0453   12.4168    0.0000 O   0  0  0  0  0  0  0  0  0  0  0  0
   -3.2689   12.3810    0.0000 N   0  0  0  0  0  0  0  0  0  0  0  0
    0.7797   12.4168    0.0000 N   0  3  0  0  0  0  0  0  0  0  0  0
   -2.5544   12.7935    0.0000 C   0  0  3  0  0  0  0  0  0  0  0  0
   -1.8399   12.3810    0.0000 C   0  0  0  0  0  0  0  0  0  0  0  0
    0.2397   13.4502    0.0000 C   0  0  0  0  0  0  0  0  0  0  0  0
   -3.5501   11.3328    0.0000 C   0  0  0  0  0  0  0  0  0  0  0  0
    0.9071   12.9653    0.0000 C   0  0  0  0  0  0  0  0  0  0  0  0
   -2.5544   13.6185    0.0000 C   0  0  0  0  0  0  0  0  0  0  0  0
   -3.9834   12.7935    0.0000 C   0  0  0  0  0  0  0  0  0  0  0  0
    1.3196   14.2349    0.0000 C   0  0  0  0  0  0  0  0  0  0  0  0
   -0.4597   12.7509    0.0000 C   0  0  0  0  0  0  0  0  0  0  0  0
   -3.9834   13.6185    0.0000 C   0  0  0  0  0  0  0  0  0  0  0  0
    0.9071   12.1693    0.0000 C   0  0  0  0  0  0  0  0  0  0  0  0
   -2.0782   10.9879    0.0000 C   0  0  0  0  0  0  0  0  0  0  0  0
   -1.3638   10.5754    0.0000 C   0  0  0  0  0  0  0  0  0  0  0  0
    0.7797   10.9879    0.0000 C   0  0  3  0  0  0  0  0  0  0  0  0
   -0.6493   10.9879    0.0000 C   0  0  0  0  0  0  0  0  0  0  0  0
    0.0652   10.5754    0.0000 C   0  0  0  0  0  0  0  0  0  0  0  0
    1.4941   10.5754    0.0000 C   0  0  0  0  0  0  0  0  0  0  0  0
    2.2086   10.9879    0.0000 C   0  0  0  0  0  0  0  0  0  0  0  0
  1 14  1  0  0  0  0
  1 21  1  0  0  0  0
  2 15  1  0  0  0  0
  2 20  1  0  0  0  0
  3 17  1  0  0  0  0
  3 20  1  0  0  0  0
  4 16  1  0  0  0  0
  4 24  1  0  0  0  0
  5 14  2  0  0  0  0
  6 16  2  0  0  0  0
  7 20  2  0  0  0  0
  8 12  1  0  0  0  0
  8 26  1  0  0  0  0
  9 12  1  0  0  0  0
 10 12  2  0  0  0  0
 11 13  1  0  0  0  0
 11 16  1  0  0  0  0
 11 19  1  0  0  0  0
 13 14  1  0  0  0  0
 13 18  1  0  0  0  0
 15 17  2  0  0  0  0
 15 21  1  0  0  0  0
 17 23  1  0  0  0  0
 18 22  1  0  0  0  0
 19 22  1  0  0  0  0
 24 25  1  0  0  0  0
 25 27  1  0  0  0  0
 26 28  1  0  0  0  0
 26 29  1  0  0  0  0
 27 28  1  0  0  0  0
 29 30  1  0  0  0  0
M  CHG  2   9  -1  12   1
M  END
> <PUBCHEM_COMPOUND_ID_TYPE>
0

> <PUBCHEM_TOTAL_CHARGE>
0

> <PUBCHEM_SUBSTANCE_ID>
310946415

> <PUBCHEM_SUBSTANCE_VERSION>
1

> <PUBCHEM_EXT_DATASOURCE_NAME>
4488

> <PUBCHEM_EXT_DATASOURCE_REGID>
SCHEMBL16124536

> <PUBCHEM_SUBSTANCE_COMMENT>
InChI=1S/C18H26N2O10/c1-3-13(30-20(24)25)7-4-5-10-26-17(22)19-9-6-8-14(19)16(21)27-11-15-12(2)28-18(23)29-15/h13-14H,3-11H2,1-2H3
InChIKey=ULTOIFMZMDUQGK-UHFFFAOYSA-N

> <PUBCHEM_SUBSTANCE_SYNONYM>
SCHEMBL16124536

> <PUBCHEM_XREF_EXT_ID>
SCHEMBL16124536

> <PUBCHEM_EXT_DATASOURCE_URL>
https://www.surechembl.org/

> <PUBCHEM_EXT_SUBSTANCE_URL>
https://www.surechembl.org/chemical/SCHEMBL16124536

> <PUBCHEM_CID_ASSOCIATIONS>
117612328  1

> <PUBCHEM_COORDINATE_TYPE>
1
3

$$$$
