310937916
  -OEChem-07211613022D

 15 16  0     1  0  0  0  0  0999 V2000
    0.0000   -0.6500    0.0000 Br  0  0  0  0  0  0  0  0  0  0  0  0
    2.1450   -3.5100    0.0000 O   0  0  0  0  0  0  0  0  0  0  0  0
    0.7150   -3.5100    0.0000 O   0  0  0  0  0  0  0  0  0  0  0  0
    2.9250   -0.7800    0.0000 N   0  0  3  0  0  0  0  0  0  0  0  0
    2.1450   -1.8633    0.0000 C   0  0  0  0  0  0  0  0  0  0  0  0
    2.1450   -1.0400    0.0000 C   0  0  0  0  0  0  0  0  0  0  0  0
    1.4300   -2.2750    0.0000 C   0  0  0  0  0  0  0  0  0  0  0  0
    1.4300   -0.6067    0.0000 C   0  0  0  0  0  0  0  0  0  0  0  0
    2.9250   -2.1233    0.0000 C   0  0  0  0  0  0  0  0  0  0  0  0
    0.7150   -1.8633    0.0000 C   0  0  0  0  0  0  0  0  0  0  0  0
    0.7150   -1.0400    0.0000 C   0  0  0  0  0  0  0  0  0  0  0  0
    1.4300   -3.0983    0.0000 C   0  0  0  0  0  0  0  0  0  0  0  0
    3.4233   -1.4516    0.0000 C   0  0  0  0  0  0  0  0  0  0  0  0
    3.1850    0.0000    0.0000 C   0  0  0  0  0  0  0  0  0  0  0  0
    2.1450   -4.3333    0.0000 C   0  0  0  0  0  0  0  0  0  0  0  0
  1 11  1  0  0  0  0
  2 12  1  0  0  0  0
  2 15  1  0  0  0  0
  3 12  2  0  0  0  0
  4  6  1  0  0  0  0
  4 13  1  0  0  0  0
  4 14  1  0  0  0  0
  5  6  2  0  0  0  0
  5  7  1  0  0  0  0
  5  9  1  0  0  0  0
  6  8  1  0  0  0  0
  7 10  2  0  0  0  0
  7 12  1  0  0  0  0
  8 11  2  0  0  0  0
  9 13  1  0  0  0  0
 10 11  1  0  0  0  0
M  END
> <PUBCHEM_COMPOUND_ID_TYPE>
0

> <PUBCHEM_TOTAL_CHARGE>
0

> <PUBCHEM_SUBSTANCE_ID>
310937916

> <PUBCHEM_SUBSTANCE_VERSION>
1

> <PUBCHEM_EXT_DATASOURCE_NAME>
4488

> <PUBCHEM_EXT_DATASOURCE_REGID>
SCHEMBL16115745

> <PUBCHEM_SUBSTANCE_COMMENT>
InChI=1S/C11H12BrNO2/c1-13-4-3-8-9(11(14)15-2)5-7(12)6-10(8)13/h5-6H,3-4H2,1-2H3
InChIKey=IZCYYSSKMPUHCV-UHFFFAOYSA-N

> <PUBCHEM_SUBSTANCE_SYNONYM>
SCHEMBL16115745

> <PUBCHEM_XREF_EXT_ID>
SCHEMBL16115745

> <PUBCHEM_EXT_DATASOURCE_URL>
https://www.surechembl.org/

> <PUBCHEM_EXT_SUBSTANCE_URL>
https://www.surechembl.org/chemical/SCHEMBL16115745

> <PUBCHEM_CID_ASSOCIATIONS>
117605530  1

> <PUBCHEM_COORDINATE_TYPE>
1
3

$$$$
