310948951
  -OEChem-07211613022D

 26 29  0     1  0  0  0  0  0999 V2000
   -2.9670   -1.7443    0.0000 Cl  0  0  0  0  0  0  0  0  0  0  0  0
    0.7988    1.7443    0.0000 S   0  0  0  0  0  0  0  0  0  0  0  0
   -1.5324   -0.9129    0.0000 O   0  0  0  0  0  0  0  0  0  0  0  0
   -0.0978   -0.9129    0.0000 O   0  0  0  0  0  0  0  0  0  0  0  0
    3.6843    0.7662    0.0000 O   0  0  0  0  0  0  0  0  0  0  0  0
    0.6684    0.4076    0.0000 N   0  0  0  0  0  0  0  0  0  0  0  0
    2.0378    0.9456    0.0000 N   0  0  0  0  0  0  0  0  0  0  0  0
    3.0485   -1.3368    0.0000 N   0  0  0  0  0  0  0  0  0  0  0  0
   -0.7988    0.3423    0.0000 C   0  0  0  0  0  0  0  0  0  0  0  0
   -0.1141    0.7499    0.0000 C   0  0  3  0  0  0  0  0  0  0  0  0
   -2.2497   -0.4890    0.0000 C   0  0  0  0  0  0  0  0  0  0  0  0
   -2.2497    0.3261    0.0000 C   0  0  0  0  0  0  0  0  0  0  0  0
   -0.8314   -0.4890    0.0000 C   0  0  0  0  0  0  0  0  0  0  0  0
   -1.5650    0.7336    0.0000 C   0  0  0  0  0  0  0  0  0  0  0  0
    1.2063    1.0434    0.0000 C   0  0  0  0  0  0  0  0  0  0  0  0
   -2.9670   -0.8966    0.0000 C   0  0  0  0  0  0  0  0  0  0  0  0
    0.0000    1.5813    0.0000 C   0  0  0  0  0  0  0  0  0  0  0  0
   -2.9833    0.7336    0.0000 C   0  0  0  0  0  0  0  0  0  0  0  0
    2.3638    0.1956    0.0000 C   0  0  0  0  0  0  0  0  0  0  0  0
   -3.6843   -0.4890    0.0000 C   0  0  0  0  0  0  0  0  0  0  0  0
    3.1953    0.0978    0.0000 C   0  0  0  0  0  0  0  0  0  0  0  0
   -3.6843    0.3261    0.0000 C   0  0  0  0  0  0  0  0  0  0  0  0
    1.8910   -0.4890    0.0000 C   0  0  0  0  0  0  0  0  0  0  0  0
    3.5376   -0.6358    0.0000 C   0  0  0  0  0  0  0  0  0  0  0  0
    2.2171   -1.2390    0.0000 C   0  0  0  0  0  0  0  0  0  0  0  0
    3.3420    1.5487    0.0000 C   0  0  0  0  0  0  0  0  0  0  0  0
  1 16  1  0  0  0  0
  2 15  1  0  0  0  0
  2 17  1  0  0  0  0
  3 11  1  0  0  0  0
  3 13  1  0  0  0  0
  4 13  2  0  0  0  0
  5 21  1  0  0  0  0
  5 26  1  0  0  0  0
  6 10  1  0  0  0  0
  6 15  2  0  0  0  0
  7 15  1  0  0  0  0
  7 19  1  0  0  0  0
  8 24  1  0  0  0  0
  8 25  2  0  0  0  0
  9 10  1  0  0  0  0
  9 13  1  0  0  0  0
  9 14  2  0  0  0  0
 10 17  1  0  0  0  0
 11 12  1  0  0  0  0
 11 16  2  0  0  0  0
 12 14  1  0  0  0  0
 12 18  2  0  0  0  0
 16 20  1  0  0  0  0
 18 22  1  0  0  0  0
 19 21  1  0  0  0  0
 19 23  2  0  0  0  0
 20 22  2  0  0  0  0
 21 24  2  0  0  0  0
 23 25  1  0  0  0  0
M  END
> <PUBCHEM_COMPOUND_ID_TYPE>
0

> <PUBCHEM_TOTAL_CHARGE>
0

> <PUBCHEM_SUBSTANCE_ID>
310948951

> <PUBCHEM_SUBSTANCE_VERSION>
1

> <PUBCHEM_EXT_DATASOURCE_NAME>
4488

> <PUBCHEM_EXT_DATASOURCE_REGID>
SCHEMBL16127139

> <PUBCHEM_SUBSTANCE_COMMENT>
InChI=1S/C18H14ClN3O3S/c1-24-15-8-20-6-5-13(15)21-18-22-14(9-26-18)11-7-10-3-2-4-12(19)16(10)25-17(11)23/h2-8,14H,9H2,1H3,(H,20,21,22)
InChIKey=VLCKPUMFVPHINC-UHFFFAOYSA-N

> <PUBCHEM_SUBSTANCE_SYNONYM>
SCHEMBL16127139

> <PUBCHEM_XREF_EXT_ID>
SCHEMBL16127139

> <PUBCHEM_EXT_DATASOURCE_URL>
https://www.surechembl.org/

> <PUBCHEM_EXT_SUBSTANCE_URL>
https://www.surechembl.org/chemical/SCHEMBL16127139

> <PUBCHEM_CID_ASSOCIATIONS>
117614461  1

> <PUBCHEM_COORDINATE_TYPE>
1
3

$$$$
