310932159
  -OEChem-07211613022D

 14 16  0     1  0  0  0  0  0999 V2000
    0.4021    0.0000    0.0000 O   0  0  0  0  0  0  0  0  0  0  0  0
    1.5413   -1.9601    0.0000 O   0  0  0  0  0  0  0  0  0  0  0  0
    2.2450   -0.7204    0.0000 O   0  0  0  0  0  0  0  0  0  0  0  0
    0.0000   -0.7204    0.0000 C   0  0  0  0  0  0  0  0  0  0  0  0
    0.8209   -0.7204    0.0000 C   0  0  3  0  0  0  0  0  0  0  0  0
    0.7204   -1.1225    0.0000 C   0  0  0  0  0  0  0  0  0  0  0  0
    2.1444   -1.1225    0.0000 C   0  0  0  0  0  0  0  0  0  0  0  0
    1.5413   -1.1225    0.0000 C   0  0  0  0  0  0  0  0  0  0  0  0
    1.4240   -0.7204    0.0000 C   0  0  0  0  0  0  0  0  0  0  0  0
    2.2450   -2.3622    0.0000 C   0  0  0  0  0  0  0  0  0  0  0  0
    2.9989   -2.0272    0.0000 C   0  0  0  0  0  0  0  0  0  0  0  0
    2.3287   -3.1832    0.0000 C   0  0  0  0  0  0  0  0  0  0  0  0
    3.5517   -2.6470    0.0000 C   0  0  0  0  0  0  0  0  0  0  0  0
    3.1328   -3.3507    0.0000 C   0  0  0  0  0  0  0  0  0  0  0  0
  1  4  1  0  0  0  0
  1  5  1  0  0  0  0
  2  8  1  0  0  0  0
  2 10  1  0  0  0  0
  3  8  2  0  0  0  0
  4  5  1  0  0  0  0
  4  6  1  0  0  0  0
  4  7  1  0  0  0  0
  5  8  1  0  0  0  0
  6  9  1  0  0  0  0
  7  9  1  0  0  0  0
 10 11  1  0  0  0  0
 10 12  1  0  0  0  0
 11 13  1  0  0  0  0
 12 14  1  0  0  0  0
 13 14  1  0  0  0  0
M  END
> <PUBCHEM_COMPOUND_ID_TYPE>
0

> <PUBCHEM_TOTAL_CHARGE>
0

> <PUBCHEM_SUBSTANCE_ID>
310932159

> <PUBCHEM_SUBSTANCE_VERSION>
1

> <PUBCHEM_EXT_DATASOURCE_NAME>
4488

> <PUBCHEM_EXT_DATASOURCE_REGID>
SCHEMBL16109512

> <PUBCHEM_SUBSTANCE_COMMENT>
InChI=1S/C11H16O3/c12-10(13-8-4-1-2-5-8)9-11(14-9)6-3-7-11/h8-9H,1-7H2
InChIKey=KWNRRCYRBHKOSB-UHFFFAOYSA-N

> <PUBCHEM_SUBSTANCE_SYNONYM>
SCHEMBL16109512

> <PUBCHEM_XREF_EXT_ID>
SCHEMBL16109512

> <PUBCHEM_EXT_DATASOURCE_URL>
https://www.surechembl.org/

> <PUBCHEM_EXT_SUBSTANCE_URL>
https://www.surechembl.org/chemical/SCHEMBL16109512

> <PUBCHEM_CID_ASSOCIATIONS>
117600762  1

> <PUBCHEM_COORDINATE_TYPE>
1
3

$$$$
