310945780
  -OEChem-07211613022D

 40 43  0     1  0  0  0  0  0999 V2000
    4.8494    0.9768    0.0000 O   0  0  0  0  0  0  0  0  0  0  0  0
    3.7132   -0.9768    0.0000 O   0  0  0  0  0  0  0  0  0  0  0  0
    1.3301    0.9630    0.0000 O   0  0  0  0  0  0  0  0  0  0  0  0
   -0.8452   -1.1015    0.0000 O   0  0  0  0  0  0  0  0  0  0  0  0
   -3.0066    0.9630    0.0000 O   0  0  0  0  0  0  0  0  0  0  0  0
    3.4915   -2.7641    0.0000 O   0  0  0  0  0  0  0  0  0  0  0  0
    2.0505   -0.2702    0.0000 N   0  0  0  0  0  0  0  0  0  0  0  0
   -0.1108    0.1455    0.0000 N   0  0  0  0  0  0  0  0  0  0  0  0
   -2.2723   -0.2702    0.0000 N   0  0  0  0  0  0  0  0  0  0  0  0
   -5.1680   -1.1015    0.0000 N   0  0  0  0  0  0  0  0  0  0  0  0
    4.4337    0.3118    0.0000 C   0  0  3  0  0  0  0  0  0  0  0  0
    3.7271   -0.1040    0.0000 C   0  0  0  0  0  0  0  0  0  0  0  0
    4.0458    0.9906    0.0000 C   0  0  0  0  0  0  0  0  0  0  0  0
    2.9927    0.2840    0.0000 C   0  0  3  0  0  0  0  0  0  0  0  0
    5.1680   -0.1316    0.0000 C   0  0  0  0  0  0  0  0  0  0  0  0
    2.9927    1.3647    0.0000 C   0  0  0  0  0  0  0  0  0  0  0  0
    1.3163    0.1455    0.0000 C   0  0  0  0  0  0  0  0  0  0  0  0
    0.6235   -0.2424    0.0000 C   0  0  3  0  0  0  0  0  0  0  0  0
    2.2584    1.7943    0.0000 C   0  0  0  0  0  0  0  0  0  0  0  0
    0.6096   -1.0738    0.0000 C   0  0  0  0  0  0  0  0  0  0  0  0
   -0.8313   -0.2286    0.0000 C   0  0  0  0  0  0  0  0  0  0  0  0
    1.3440   -1.4895    0.0000 C   0  0  0  0  0  0  0  0  0  0  0  0
    1.5102    1.4479    0.0000 C   0  0  0  0  0  0  0  0  0  0  0  0
    2.1753    2.5979    0.0000 C   0  0  0  0  0  0  0  0  0  0  0  0
   -1.5518    0.1732    0.0000 C   0  0  3  0  0  0  0  0  0  0  0  0
    0.9699    2.0437    0.0000 C   0  0  0  0  0  0  0  0  0  0  0  0
    1.3717    2.7641    0.0000 C   0  0  0  0  0  0  0  0  0  0  0  0
   -3.0066    0.1455    0.0000 C   0  0  0  0  0  0  0  0  0  0  0  0
    1.3440   -2.3207    0.0000 C   0  0  0  0  0  0  0  0  0  0  0  0
    2.0505   -1.1015    0.0000 C   0  0  0  0  0  0  0  0  0  0  0  0
   -3.7132   -0.2424    0.0000 C   0  0  0  0  0  0  0  0  0  0  0  0
    2.7849   -2.3069    0.0000 C   0  0  0  0  0  0  0  0  0  0  0  0
    2.0505   -2.7225    0.0000 C   0  0  0  0  0  0  0  0  0  0  0  0
    2.7849   -1.5033    0.0000 C   0  0  0  0  0  0  0  0  0  0  0  0
   -1.5379    1.0045    0.0000 C   0  0  0  0  0  0  0  0  0  0  0  0
   -3.7132   -1.0738    0.0000 C   0  0  0  0  0  0  0  0  0  0  0  0
   -4.4752    0.1594    0.0000 C   0  0  0  0  0  0  0  0  0  0  0  0
   -4.4198   -1.4756    0.0000 C   0  0  0  0  0  0  0  0  0  0  0  0
   -5.1542   -0.2424    0.0000 C   0  0  0  0  0  0  0  0  0  0  0  0
    4.2397   -2.3347    0.0000 C   0  0  0  0  0  0  0  0  0  0  0  0
  1 11  1  0  0  0  0
  1 13  1  0  0  0  0
  2 12  2  0  0  0  0
  3 17  2  0  0  0  0
  4 21  2  0  0  0  0
  5 28  2  0  0  0  0
  6 32  1  0  0  0  0
  6 40  1  0  0  0  0
  7 14  1  0  0  0  0
  7 17  1  0  0  0  0
  8 18  1  0  0  0  0
  8 21  1  0  0  0  0
  9 25  1  0  0  0  0
  9 28  1  0  0  0  0
 10 38  2  0  0  0  0
 10 39  1  0  0  0  0
 11 12  1  0  0  0  0
 11 13  1  0  0  0  0
 11 15  1  0  0  0  0
 12 14  1  0  0  0  0
 14 16  1  0  0  0  0
 16 19  1  0  0  0  0
 17 18  1  0  0  0  0
 18 20  1  0  0  0  0
 19 23  1  0  0  0  0
 19 24  1  0  0  0  0
 20 22  1  0  0  0  0
 21 25  1  0  0  0  0
 22 29  2  0  0  0  0
 22 30  1  0  0  0  0
 23 26  1  0  0  0  0
 24 27  1  0  0  0  0
 25 35  1  0  0  0  0
 26 27  1  0  0  0  0
 28 31  1  0  0  0  0
 29 33  1  0  0  0  0
 30 34  2  0  0  0  0
 31 36  2  0  0  0  0
 31 37  1  0  0  0  0
 32 33  2  0  0  0  0
 32 34  1  0  0  0  0
 36 38  1  0  0  0  0
 37 39  2  0  0  0  0
M  END
> <PUBCHEM_COMPOUND_ID_TYPE>
0

> <PUBCHEM_TOTAL_CHARGE>
0

> <PUBCHEM_SUBSTANCE_ID>
310945780

> <PUBCHEM_SUBSTANCE_VERSION>
1

> <PUBCHEM_EXT_DATASOURCE_NAME>
4488

> <PUBCHEM_EXT_DATASOURCE_REGID>
SCHEMBL16123884

> <PUBCHEM_SUBSTANCE_COMMENT>
InChI=1S/C30H38N4O6/c1-19(32-28(37)22-12-14-31-15-13-22)27(36)34-25(17-21-8-10-23(39-3)11-9-21)29(38)33-24(16-20-6-4-5-7-20)26(35)30(2)18-40-30/h8-15,19-20,24-25H,4-7,16-18H2,1-3H3,(H,32,37)(H,33,38)(H,34,36)
InChIKey=XZLWRMNDNIEBMR-UHFFFAOYSA-N

> <PUBCHEM_SUBSTANCE_SYNONYM>
SCHEMBL16123884

> <PUBCHEM_XREF_EXT_ID>
SCHEMBL16123884

> <PUBCHEM_EXT_DATASOURCE_URL>
https://www.surechembl.org/

> <PUBCHEM_EXT_SUBSTANCE_URL>
https://www.surechembl.org/chemical/SCHEMBL16123884

> <PUBCHEM_CID_ASSOCIATIONS>
117611767  1

> <PUBCHEM_COORDINATE_TYPE>
1
3

$$$$
