310935060
  -OEChem-07211613022D

 40 45  0     1  0  0  0  0  0999 V2000
    2.1463  -10.6088    0.0000 O   0  0  0  0  0  0  0  0  0  0  0  0
    0.6745  -10.6088    0.0000 O   0  0  0  0  0  0  0  0  0  0  0  0
    0.6745   -3.2501    0.0000 N   0  0  0  0  0  0  0  0  0  0  0  0
    0.1226   -2.6982    0.0000 N   0  0  0  0  0  0  0  0  0  0  0  0
    2.1463   -3.2501    0.0000 N   0  0  0  0  0  0  0  0  0  0  0  0
    1.4104   -7.7266    0.0000 N   0  0  0  0  0  0  0  0  0  0  0  0
    1.4104   -9.3823    0.0000 N   0  0  0  0  0  0  0  0  0  0  0  0
    0.7358   -6.5002    0.0000 N   0  0  0  0  0  0  0  0  0  0  0  0
    2.8821   -0.1839    0.0000 N   0  0  0  0  0  0  0  0  0  0  0  0
    1.2264   -2.0237    0.0000 C   0  0  0  0  0  0  0  0  0  0  0  0
    1.4104   -2.8208    0.0000 C   0  0  0  0  0  0  0  0  0  0  0  0
    1.7783   -1.4104    0.0000 C   0  0  0  0  0  0  0  0  0  0  0  0
    2.5756   -1.5944    0.0000 C   0  0  0  0  0  0  0  0  0  0  0  0
    1.4104   -4.4765    0.0000 C   0  0  0  0  0  0  0  0  0  0  0  0
    0.4293   -1.9010    0.0000 C   0  0  0  0  0  0  0  0  0  0  0  0
    0.7358   -4.0472    0.0000 C   0  0  0  0  0  0  0  0  0  0  0  0
    1.4104   -5.2737    0.0000 C   0  0  0  0  0  0  0  0  0  0  0  0
    1.4104   -6.9294    0.0000 C   0  0  0  0  0  0  0  0  0  0  0  0
    3.1275   -0.9812    0.0000 C   0  0  0  0  0  0  0  0  0  0  0  0
    2.1463   -4.0472    0.0000 C   0  0  0  0  0  0  0  0  0  0  0  0
    1.5331   -0.6132    0.0000 C   0  0  0  0  0  0  0  0  0  0  0  0
    0.7358   -8.1559    0.0000 C   0  0  3  0  0  0  0  0  0  0  0  0
    2.1463   -8.1559    0.0000 C   0  0  3  0  0  0  0  0  0  0  0  0
    0.6745   -5.7030    0.0000 C   0  0  0  0  0  0  0  0  0  0  0  0
    2.0850   -5.7030    0.0000 C   0  0  0  0  0  0  0  0  0  0  0  0
    2.1463   -6.5002    0.0000 C   0  0  0  0  0  0  0  0  0  0  0  0
    2.8208   -2.3302    0.0000 C   0  0  0  0  0  0  0  0  0  0  0  0
    2.1463   -9.0144    0.0000 C   0  0  0  0  0  0  0  0  0  0  0  0
    0.7358   -9.0144    0.0000 C   0  0  0  0  0  0  0  0  0  0  0  0
    2.0850    0.0000    0.0000 C   0  0  0  0  0  0  0  0  0  0  0  0
    3.9246   -1.1038    0.0000 C   0  0  0  0  0  0  0  0  0  0  0  0
    1.4104  -10.2408    0.0000 C   0  0  0  0  0  0  0  0  0  0  0  0
    3.6793   -2.5142    0.0000 C   0  0  0  0  0  0  0  0  0  0  0  0
    4.2312   -1.9010    0.0000 C   0  0  0  0  0  0  0  0  0  0  0  0
    0.0000   -7.7266    0.0000 C   0  0  0  0  0  0  0  0  0  0  0  0
    2.8821   -7.7266    0.0000 C   0  0  0  0  0  0  0  0  0  0  0  0
    2.1463  -11.4673    0.0000 C   0  0  0  0  0  0  0  0  0  0  0  0
    1.2877  -11.4673    0.0000 C   0  0  0  0  0  0  0  0  0  0  0  0
    2.1463  -12.2645    0.0000 C   0  0  0  0  0  0  0  0  0  0  0  0
    2.9434  -11.4673    0.0000 C   0  0  0  0  0  0  0  0  0  0  0  0
  1 32  1  0  0  0  0
  1 37  1  0  0  0  0
  2 32  2  0  0  0  0
  3  4  1  0  0  0  0
  3 11  1  0  0  0  0
  3 16  1  0  0  0  0
  4 15  2  0  0  0  0
  5 11  1  0  0  0  0
  5 20  2  0  0  0  0
  6 18  1  0  0  0  0
  6 22  1  0  0  0  0
  6 23  1  0  0  0  0
  7 28  1  0  0  0  0
  7 29  1  0  0  0  0
  7 32  1  0  0  0  0
  8 18  1  0  0  0  0
  8 24  2  0  0  0  0
  9 19  2  0  0  0  0
  9 30  1  0  0  0  0
 10 11  2  0  0  0  0
 10 12  1  0  0  0  0
 10 15  1  0  0  0  0
 12 13  2  0  0  0  0
 12 21  1  0  0  0  0
 13 19  1  0  0  0  0
 13 27  1  0  0  0  0
 14 16  2  0  0  0  0
 14 17  1  0  0  0  0
 14 20  1  0  0  0  0
 17 24  1  0  0  0  0
 17 25  2  0  0  0  0
 18 26  2  0  0  0  0
 19 31  1  0  0  0  0
 21 30  2  0  0  0  0
 22 29  1  0  0  0  0
 22 35  1  0  0  0  0
 23 28  1  0  0  0  0
 23 36  1  0  0  0  0
 25 26  1  0  0  0  0
 27 33  2  0  0  0  0
 31 34  2  0  0  0  0
 33 34  1  0  0  0  0
 37 38  1  0  0  0  0
 37 39  1  0  0  0  0
 37 40  1  0  0  0  0
M  END
> <PUBCHEM_COMPOUND_ID_TYPE>
0

> <PUBCHEM_TOTAL_CHARGE>
0

> <PUBCHEM_SUBSTANCE_ID>
310935060

> <PUBCHEM_SUBSTANCE_VERSION>
1

> <PUBCHEM_EXT_DATASOURCE_NAME>
4488

> <PUBCHEM_EXT_DATASOURCE_REGID>
SCHEMBL16112581

> <PUBCHEM_SUBSTANCE_COMMENT>
InChI=1S/C31H33N7O2/c1-20-17-36(30(39)40-31(3,4)5)18-21(2)38(20)28-11-10-22(14-33-28)23-15-34-29-26(16-35-37(29)19-23)24-12-13-32-27-9-7-6-8-25(24)27/h6-16,19-21H,17-18H2,1-5H3
InChIKey=XWYBHGQDNMQCRH-UHFFFAOYSA-N

> <PUBCHEM_SUBSTANCE_SYNONYM>
SCHEMBL16112581

> <PUBCHEM_XREF_EXT_ID>
SCHEMBL16112581

> <PUBCHEM_EXT_DATASOURCE_URL>
https://www.surechembl.org/

> <PUBCHEM_EXT_SUBSTANCE_URL>
https://www.surechembl.org/chemical/SCHEMBL16112581

> <PUBCHEM_CID_ASSOCIATIONS>
117603160  1

> <PUBCHEM_COORDINATE_TYPE>
1
3

$$$$
