310931788
  -OEChem-07211613022D

 73 72  0     1  0  0  0  0  0999 V2000
    5.1330   -8.6162    0.0000 O   0  0  0  0  0  0  0  0  0  0  0  0
    4.3998  -10.7244    0.0000 O   0  0  0  0  0  0  0  0  0  0  0  0
    5.8664  -10.7244    0.0000 O   0  0  0  0  0  0  0  0  0  0  0  0
    3.0248   -8.7078    0.0000 O   0  0  0  0  0  0  0  0  0  0  0  0
    7.2413   -8.7078    0.0000 O   0  0  0  0  0  0  0  0  0  0  0  0
    4.3081   -8.0663    0.0000 O   0  0  0  0  0  0  0  0  0  0  0  0
    5.9580   -7.9746    0.0000 O   0  0  0  0  0  0  0  0  0  0  0  0
    5.1330   -9.4412    0.0000 C   0  0  0  0  0  0  0  0  0  0  0  0
    5.1330  -10.3578    0.0000 C   0  0  0  0  0  0  0  0  0  0  0  0
    5.9580   -9.4412    0.0000 C   0  0  0  0  0  0  0  0  0  0  0  0
    4.3081   -9.4412    0.0000 C   0  0  0  0  0  0  0  0  0  0  0  0
    3.8498   -8.7078    0.0000 C   0  0  0  0  0  0  0  0  0  0  0  0
    6.4163   -8.7078    0.0000 C   0  0  0  0  0  0  0  0  0  0  0  0
    4.3998  -11.5494    0.0000 C   0  0  0  0  0  0  0  0  0  0  0  0
    3.6665  -12.0077    0.0000 C   0  0  3  0  0  0  0  0  0  0  0  0
    7.6079   -7.9746    0.0000 C   0  0  0  0  0  0  0  0  0  0  0  0
    2.5666   -8.0663    0.0000 C   0  0  0  0  0  0  0  0  0  0  0  0
    8.4329   -7.9746    0.0000 C   0  0  3  0  0  0  0  0  0  0  0  0
    3.0248   -7.3329    0.0000 C   0  0  3  0  0  0  0  0  0  0  0  0
    3.6665  -12.8326    0.0000 C   0  0  0  0  0  0  0  0  0  0  0  0
    2.9332  -11.5494    0.0000 C   0  0  0  0  0  0  0  0  0  0  0  0
    8.8912   -7.3329    0.0000 C   0  0  0  0  0  0  0  0  0  0  0  0
    2.5666   -6.5996    0.0000 C   0  0  0  0  0  0  0  0  0  0  0  0
    8.8912   -8.7078    0.0000 C   0  0  0  0  0  0  0  0  0  0  0  0
    3.8498   -7.3329    0.0000 C   0  0  0  0  0  0  0  0  0  0  0  0
    2.9332  -13.2909    0.0000 C   0  0  0  0  0  0  0  0  0  0  0  0
    2.9332  -10.7244    0.0000 C   0  0  0  0  0  0  0  0  0  0  0  0
    9.7161   -7.2413    0.0000 C   0  0  0  0  0  0  0  0  0  0  0  0
    3.0248   -5.8664    0.0000 C   0  0  0  0  0  0  0  0  0  0  0  0
    8.5245   -9.4412    0.0000 C   0  0  0  0  0  0  0  0  0  0  0  0
    4.4914   -8.1579    0.0000 C   0  0  0  0  0  0  0  0  0  0  0  0
    2.9332  -14.1159    0.0000 C   0  0  0  0  0  0  0  0  0  0  0  0
    2.1999  -10.3578    0.0000 C   0  0  0  0  0  0  0  0  0  0  0  0
   10.1745   -6.5080    0.0000 C   0  0  0  0  0  0  0  0  0  0  0  0
    2.5666   -5.1330    0.0000 C   0  0  0  0  0  0  0  0  0  0  0  0
    8.8912  -10.1745    0.0000 C   0  0  0  0  0  0  0  0  0  0  0  0
    5.1330   -7.9746    0.0000 C   0  0  0  0  0  0  0  0  0  0  0  0
    2.1999  -14.5742    0.0000 C   0  0  0  0  0  0  0  0  0  0  0  0
    2.1999   -9.4412    0.0000 C   0  0  0  0  0  0  0  0  0  0  0  0
   10.9994   -6.5080    0.0000 C   0  0  0  0  0  0  0  0  0  0  0  0
    3.0248   -4.3998    0.0000 C   0  0  0  0  0  0  0  0  0  0  0  0
    8.5245  -10.9077    0.0000 C   0  0  0  0  0  0  0  0  0  0  0  0
    5.5914   -8.7078    0.0000 C   0  0  0  0  0  0  0  0  0  0  0  0
    2.1999  -15.3991    0.0000 C   0  0  0  0  0  0  0  0  0  0  0  0
    1.4666   -9.0745    0.0000 C   0  0  0  0  0  0  0  0  0  0  0  0
   11.3661   -5.7747    0.0000 C   0  0  0  0  0  0  0  0  0  0  0  0
    2.5666   -3.6665    0.0000 C   0  0  0  0  0  0  0  0  0  0  0  0
    8.8912  -11.6410    0.0000 C   0  0  0  0  0  0  0  0  0  0  0  0
    6.5996   -8.8912    0.0000 C   0  0  0  0  0  0  0  0  0  0  0  0
    1.4666  -15.7658    0.0000 C   0  0  0  0  0  0  0  0  0  0  0  0
    1.4666   -8.2496    0.0000 C   0  0  0  0  0  0  0  0  0  0  0  0
   12.2827   -5.7747    0.0000 C   0  0  0  0  0  0  0  0  0  0  0  0
    3.0248   -2.9332    0.0000 C   0  0  0  0  0  0  0  0  0  0  0  0
    8.5245  -12.3743    0.0000 C   0  0  0  0  0  0  0  0  0  0  0  0
    6.7830   -9.4412    0.0000 C   0  0  0  0  0  0  0  0  0  0  0  0
    1.4666  -16.6824    0.0000 C   0  0  0  0  0  0  0  0  0  0  0  0
    0.7333   -7.7912    0.0000 C   0  0  0  0  0  0  0  0  0  0  0  0
   12.6493   -5.0414    0.0000 C   0  0  0  0  0  0  0  0  0  0  0  0
    2.5666   -2.1999    0.0000 C   0  0  0  0  0  0  0  0  0  0  0  0
    8.8912  -13.1076    0.0000 C   0  0  0  0  0  0  0  0  0  0  0  0
    7.6079   -9.4412    0.0000 C   0  0  0  0  0  0  0  0  0  0  0  0
    0.7333  -17.0491    0.0000 C   0  0  0  0  0  0  0  0  0  0  0  0
    0.7333   -6.9663    0.0000 C   0  0  0  0  0  0  0  0  0  0  0  0
   13.4743   -5.0414    0.0000 C   0  0  0  0  0  0  0  0  0  0  0  0
    3.0248   -1.4666    0.0000 C   0  0  0  0  0  0  0  0  0  0  0  0
    0.7333  -17.8740    0.0000 C   0  0  0  0  0  0  0  0  0  0  0  0
    8.5245  -13.8409    0.0000 C   0  0  0  0  0  0  0  0  0  0  0  0
    8.0663  -10.1745    0.0000 C   0  0  0  0  0  0  0  0  0  0  0  0
   13.9326   -4.3081    0.0000 C   0  0  0  0  0  0  0  0  0  0  0  0
    2.5666   -0.7333    0.0000 C   0  0  0  0  0  0  0  0  0  0  0  0
    0.0000  -18.3323    0.0000 C   0  0  0  0  0  0  0  0  0  0  0  0
   14.7576   -4.3081    0.0000 C   0  0  0  0  0  0  0  0  0  0  0  0
    3.0248    0.0000    0.0000 C   0  0  0  0  0  0  0  0  0  0  0  0
  1  8  1  0  0  0  0
  2  9  1  0  0  0  0
  2 14  1  0  0  0  0
  3  9  2  0  0  0  0
  4 12  1  0  0  0  0
  4 17  1  0  0  0  0
  5 13  1  0  0  0  0
  5 16  1  0  0  0  0
  6 12  2  0  0  0  0
  7 13  2  0  0  0  0
  8  9  1  0  0  0  0
  8 10  1  0  0  0  0
  8 11  1  0  0  0  0
 10 13  1  0  0  0  0
 11 12  1  0  0  0  0
 14 15  1  0  0  0  0
 15 20  1  0  0  0  0
 15 21  1  0  0  0  0
 16 18  1  0  0  0  0
 17 19  1  0  0  0  0
 18 22  1  0  0  0  0
 18 24  1  0  0  0  0
 19 23  1  0  0  0  0
 19 25  1  0  0  0  0
 20 26  1  0  0  0  0
 21 27  1  0  0  0  0
 22 28  1  0  0  0  0
 23 29  1  0  0  0  0
 24 30  1  0  0  0  0
 25 31  1  0  0  0  0
 26 32  1  0  0  0  0
 27 33  1  0  0  0  0
 28 34  1  0  0  0  0
 29 35  1  0  0  0  0
 30 36  1  0  0  0  0
 31 37  1  0  0  0  0
 32 38  1  0  0  0  0
 33 39  1  0  0  0  0
 34 40  1  0  0  0  0
 35 41  1  0  0  0  0
 36 42  1  0  0  0  0
 37 43  1  0  0  0  0
 38 44  1  0  0  0  0
 39 45  1  0  0  0  0
 40 46  1  0  0  0  0
 41 47  1  0  0  0  0
 42 48  1  0  0  0  0
 43 49  1  0  0  0  0
 44 50  1  0  0  0  0
 45 51  1  0  0  0  0
 46 52  1  0  0  0  0
 47 53  1  0  0  0  0
 48 54  1  0  0  0  0
 49 55  1  0  0  0  0
 50 56  1  0  0  0  0
 51 57  1  0  0  0  0
 52 58  1  0  0  0  0
 53 59  1  0  0  0  0
 54 60  1  0  0  0  0
 55 61  1  0  0  0  0
 56 62  1  0  0  0  0
 57 63  1  0  0  0  0
 58 64  1  0  0  0  0
 59 65  1  0  0  0  0
 60 67  1  0  0  0  0
 61 68  1  0  0  0  0
 62 66  1  0  0  0  0
 64 69  1  0  0  0  0
 65 70  1  0  0  0  0
 66 71  1  0  0  0  0
 69 72  1  0  0  0  0
 70 73  1  0  0  0  0
M  END
> <PUBCHEM_COMPOUND_ID_TYPE>
0

> <PUBCHEM_TOTAL_CHARGE>
0

> <PUBCHEM_SUBSTANCE_ID>
310931788

> <PUBCHEM_SUBSTANCE_VERSION>
1

> <PUBCHEM_EXT_DATASOURCE_NAME>
4488

> <PUBCHEM_EXT_DATASOURCE_REGID>
SCHEMBL16109120

> <PUBCHEM_SUBSTANCE_COMMENT>
InChI=1S/C66H128O7/c1-7-13-19-25-31-34-40-46-51-60(49-43-37-28-22-16-10-4)57-71-63(67)55-66(70,65(69)73-59-62(53-45-39-30-24-18-12-6)54-48-42-36-33-27-21-15-9-3)56-64(68)72-58-61(50-44-38-29-23-17-11-5)52-47-41-35-32-26-20-14-8-2/h60-62,70H,7-59H2,1-6H3
InChIKey=BIEMOBPNIWQLMF-UHFFFAOYSA-N

> <PUBCHEM_SUBSTANCE_SYNONYM>
SCHEMBL16109120

> <PUBCHEM_XREF_EXT_ID>
SCHEMBL16109120

> <PUBCHEM_EXT_DATASOURCE_URL>
https://www.surechembl.org/

> <PUBCHEM_EXT_SUBSTANCE_URL>
https://www.surechembl.org/chemical/SCHEMBL16109120

> <PUBCHEM_CID_ASSOCIATIONS>
20643440  1

> <PUBCHEM_COORDINATE_TYPE>
1
3

$$$$
