310932206
  -OEChem-07211613022D

 25 28  0     1  0  0  0  0  0999 V2000
    3.5455   -1.6160    0.0000 O   0  0  0  0  0  0  0  0  0  0  0  0
    4.6791   -3.5938    0.0000 O   0  0  0  0  0  0  0  0  0  0  0  0
    5.3786   -2.3396    0.0000 O   0  0  0  0  0  0  0  0  0  0  0  0
    0.7959    0.0000    0.0000 O   0  0  0  0  0  0  0  0  0  0  0  0
    3.1355   -2.3396    0.0000 C   0  0  3  0  0  0  0  0  0  0  0  0
    3.9555   -2.3396    0.0000 C   0  0  3  0  0  0  0  0  0  0  0  0
    2.5566   -1.7607    0.0000 C   0  0  0  0  0  0  0  0  0  0  0  0
    2.4119   -2.7496    0.0000 C   0  0  0  0  0  0  0  0  0  0  0  0
    4.6791   -2.7496    0.0000 C   0  0  0  0  0  0  0  0  0  0  0  0
    1.7366   -1.9778    0.0000 C   0  0  0  0  0  0  0  0  0  0  0  0
    2.7496   -0.9648    0.0000 C   0  0  0  0  0  0  0  0  0  0  0  0
    2.4119   -3.5938    0.0000 C   0  0  0  0  0  0  0  0  0  0  0  0
    1.6883   -2.3637    0.0000 C   0  0  0  0  0  0  0  0  0  0  0  0
    1.1577   -1.3989    0.0000 C   0  0  0  0  0  0  0  0  0  0  0  0
    2.1707   -0.3859    0.0000 C   0  0  0  0  0  0  0  0  0  0  0  0
    1.6883   -4.0037    0.0000 C   0  0  0  0  0  0  0  0  0  0  0  0
    0.9889   -2.7496    0.0000 C   0  0  0  0  0  0  0  0  0  0  0  0
    1.3748   -0.6030    0.0000 C   0  0  0  0  0  0  0  0  0  0  0  0
    5.3786   -4.0037    0.0000 C   0  0  0  0  0  0  0  0  0  0  0  0
    0.9648   -3.5938    0.0000 C   0  0  0  0  0  0  0  0  0  0  0  0
    6.1745   -3.7867    0.0000 C   0  0  0  0  0  0  0  0  0  0  0  0
    5.5956   -4.8238    0.0000 C   0  0  0  0  0  0  0  0  0  0  0  0
    6.3915   -4.6068    0.0000 C   0  0  0  0  0  0  0  0  0  0  0  0
    0.2653   -4.0037    0.0000 C   0  0  0  0  0  0  0  0  0  0  0  0
    0.0000   -0.2171    0.0000 C   0  0  0  0  0  0  0  0  0  0  0  0
  1  5  1  0  0  0  0
  1  6  1  0  0  0  0
  2  9  1  0  0  0  0
  2 19  1  0  0  0  0
  3  9  2  0  0  0  0
  4 18  1  0  0  0  0
  4 25  1  0  0  0  0
  5  6  1  0  0  0  0
  5  7  1  0  0  0  0
  5  8  1  0  0  0  0
  6  9  1  0  0  0  0
  7 10  2  0  0  0  0
  7 11  1  0  0  0  0
  8 12  2  0  0  0  0
  8 13  1  0  0  0  0
 10 14  1  0  0  0  0
 11 15  2  0  0  0  0
 12 16  1  0  0  0  0
 13 17  2  0  0  0  0
 14 18  2  0  0  0  0
 15 18  1  0  0  0  0
 16 20  2  0  0  0  0
 17 20  1  0  0  0  0
 19 21  1  0  0  0  0
 19 22  1  0  0  0  0
 20 24  1  0  0  0  0
 21 23  1  0  0  0  0
 22 23  1  0  0  0  0
M  END
> <PUBCHEM_COMPOUND_ID_TYPE>
0

> <PUBCHEM_TOTAL_CHARGE>
0

> <PUBCHEM_SUBSTANCE_ID>
310932206

> <PUBCHEM_SUBSTANCE_VERSION>
1

> <PUBCHEM_EXT_DATASOURCE_NAME>
4488

> <PUBCHEM_EXT_DATASOURCE_REGID>
SCHEMBL16109563

> <PUBCHEM_SUBSTANCE_COMMENT>
InChI=1S/C21H22O4/c1-14-6-8-15(9-7-14)21(16-10-12-17(23-2)13-11-16)19(25-21)20(22)24-18-4-3-5-18/h6-13,18-19H,3-5H2,1-2H3
InChIKey=TYVOERLVUJXJGD-UHFFFAOYSA-N

> <PUBCHEM_SUBSTANCE_SYNONYM>
SCHEMBL16109563

> <PUBCHEM_XREF_EXT_ID>
SCHEMBL16109563

> <PUBCHEM_EXT_DATASOURCE_URL>
https://www.surechembl.org/

> <PUBCHEM_EXT_SUBSTANCE_URL>
https://www.surechembl.org/chemical/SCHEMBL16109563

> <PUBCHEM_CID_ASSOCIATIONS>
117600796  1

> <PUBCHEM_COORDINATE_TYPE>
1
3

$$$$
