310946770
  -OEChem-07211613022D

 19 20  0     1  0  0  0  0  0999 V2000
   -0.7685    2.5958    0.0000 O   0  0  0  0  0  0  0  0  0  0  0  0
   -1.9924    0.7885    0.0000 N   0  0  0  0  0  0  0  0  0  0  0  0
   -2.0649   -1.9283    0.0000 N   0  0  0  0  0  0  0  0  0  0  0  0
   -2.7770    0.5335    0.0000 N   0  0  0  0  0  0  0  0  0  0  0  0
   -1.5799   -2.5958    0.0000 N   0  0  0  0  0  0  0  0  0  0  0  0
    0.6336   -1.5158    0.0000 N   0  0  3  0  0  0  0  0  0  0  0  0
    2.7770   -1.1033    0.0000 N   0  0  0  0  0  0  0  0  0  0  0  0
   -1.5799   -1.2609    0.0000 C   0  0  0  0  0  0  0  0  0  0  0  0
   -1.9924   -0.5464    0.0000 C   0  0  0  0  0  0  0  0  0  0  0  0
   -0.7953   -1.5158    0.0000 C   0  0  0  0  0  0  0  0  0  0  0  0
   -1.5075    0.1210    0.0000 C   0  0  0  0  0  0  0  0  0  0  0  0
   -2.7770   -0.2915    0.0000 C   0  0  0  0  0  0  0  0  0  0  0  0
   -0.7953   -2.3408    0.0000 C   0  0  0  0  0  0  0  0  0  0  0  0
   -0.0808   -1.1033    0.0000 C   0  0  0  0  0  0  0  0  0  0  0  0
   -1.7789    1.5853    0.0000 C   0  0  0  0  0  0  0  0  0  0  0  0
    1.3481   -1.1033    0.0000 C   0  0  0  0  0  0  0  0  0  0  0  0
   -0.9820    1.7989    0.0000 C   0  0  0  0  0  0  0  0  0  0  0  0
    0.6336   -2.3408    0.0000 C   0  0  0  0  0  0  0  0  0  0  0  0
    2.0626   -1.5158    0.0000 C   0  0  0  0  0  0  0  0  0  0  0  0
  1 17  1  0  0  0  0
  2  4  1  0  0  0  0
  2 11  1  0  0  0  0
  2 15  1  0  0  0  0
  3  5  1  0  0  0  0
  3  8  2  0  0  0  0
  4 12  2  0  0  0  0
  5 13  1  0  0  0  0
  6 14  1  0  0  0  0
  6 16  1  0  0  0  0
  6 18  1  0  0  0  0
  7 19  1  0  0  0  0
  8  9  1  0  0  0  0
  8 10  1  0  0  0  0
  9 11  2  0  0  0  0
  9 12  1  0  0  0  0
 10 13  2  0  0  0  0
 10 14  1  0  0  0  0
 15 17  1  0  0  0  0
 16 19  1  0  0  0  0
M  END
> <PUBCHEM_COMPOUND_ID_TYPE>
0

> <PUBCHEM_TOTAL_CHARGE>
0

> <PUBCHEM_SUBSTANCE_ID>
310946770

> <PUBCHEM_SUBSTANCE_VERSION>
1

> <PUBCHEM_EXT_DATASOURCE_NAME>
4488

> <PUBCHEM_EXT_DATASOURCE_REGID>
SCHEMBL16124894

> <PUBCHEM_SUBSTANCE_COMMENT>
InChI=1S/C12H20N6O/c1-17(3-2-13)8-10-6-14-16-12(10)11-7-15-18(9-11)4-5-19/h6-7,9,19H,2-5,8,13H2,1H3,(H,14,16)
InChIKey=KDAOTUZVGNANMW-UHFFFAOYSA-N

> <PUBCHEM_SUBSTANCE_SYNONYM>
SCHEMBL16124894

> <PUBCHEM_XREF_EXT_ID>
SCHEMBL16124894

> <PUBCHEM_EXT_DATASOURCE_URL>
https://www.surechembl.org/

> <PUBCHEM_EXT_SUBSTANCE_URL>
https://www.surechembl.org/chemical/SCHEMBL16124894

> <PUBCHEM_CID_ASSOCIATIONS>
86296136  1

> <PUBCHEM_COORDINATE_TYPE>
1
3

$$$$
