310946872
  -OEChem-07211613022D

 31 35  0     1  0  0  0  0  0999 V2000
    0.0000    1.8563    0.0000 O   0  0  0  0  0  0  0  0  0  0  0  0
   -0.7145    0.6187    0.0000 N   0  0  0  0  0  0  0  0  0  0  0  0
    0.7145   -0.2062    0.0000 N   0  0  3  0  0  0  0  0  0  0  0  0
   -1.4289    1.8563    0.0000 N   0  0  0  0  0  0  0  0  0  0  0  0
   -5.0013    2.2687    0.0000 N   0  0  0  0  0  0  0  0  0  0  0  0
    5.7158   -2.2687    0.0000 N   0  0  0  0  0  0  0  0  0  0  0  0
   -1.4289    1.0313    0.0000 C   0  0  0  0  0  0  0  0  0  0  0  0
    0.0000    1.0313    0.0000 C   0  0  0  0  0  0  0  0  0  0  0  0
    1.4289   -0.6187    0.0000 C   0  0  3  0  0  0  0  0  0  0  0  0
   -2.8579    1.0313    0.0000 C   0  0  0  0  0  0  0  0  0  0  0  0
   -2.8579    1.8563    0.0000 C   0  0  0  0  0  0  0  0  0  0  0  0
   -2.1434    0.6187    0.0000 C   0  0  0  0  0  0  0  0  0  0  0  0
    0.7145    0.6187    0.0000 C   0  0  0  0  0  0  0  0  0  0  0  0
    2.8579   -0.6187    0.0000 C   0  0  0  0  0  0  0  0  0  0  0  0
   -0.7145   -0.2062    0.0000 C   0  0  0  0  0  0  0  0  0  0  0  0
    2.8579   -1.4437    0.0000 C   0  0  0  0  0  0  0  0  0  0  0  0
    0.0000   -0.6187    0.0000 C   0  0  0  0  0  0  0  0  0  0  0  0
    2.1434   -0.2062    0.0000 C   0  0  0  0  0  0  0  0  0  0  0  0
   -2.1434    2.2687    0.0000 C   0  0  0  0  0  0  0  0  0  0  0  0
    1.4289   -1.4437    0.0000 C   0  0  0  0  0  0  0  0  0  0  0  0
   -3.5724    2.2687    0.0000 C   0  0  0  0  0  0  0  0  0  0  0  0
   -3.5724    0.6187    0.0000 C   0  0  0  0  0  0  0  0  0  0  0  0
    2.1434   -1.8563    0.0000 C   0  0  0  0  0  0  0  0  0  0  0  0
   -4.2868    1.8563    0.0000 C   0  0  0  0  0  0  0  0  0  0  0  0
    3.5724   -1.8563    0.0000 C   0  0  0  0  0  0  0  0  0  0  0  0
    3.5724   -0.2062    0.0000 C   0  0  0  0  0  0  0  0  0  0  0  0
   -4.2868    1.0313    0.0000 C   0  0  0  0  0  0  0  0  0  0  0  0
    4.2868   -1.4437    0.0000 C   0  0  0  0  0  0  0  0  0  0  0  0
    4.2868   -0.6187    0.0000 C   0  0  0  0  0  0  0  0  0  0  0  0
    5.0013   -1.8563    0.0000 C   0  0  0  0  0  0  0  0  0  0  0  0
   -5.7158    1.8563    0.0000 C   0  0  0  0  0  0  0  0  0  0  0  0
  1  8  2  0  0  0  0
  2  7  1  0  0  0  0
  2  8  1  0  0  0  0
  2 15  1  0  0  0  0
  3  9  1  0  0  0  0
  3 13  1  0  0  0  0
  3 17  1  0  0  0  0
  4  7  2  0  0  0  0
  4 19  1  0  0  0  0
  5 24  1  0  0  0  0
  5 31  1  0  0  0  0
  6 30  3  0  0  0  0
  7 12  1  0  0  0  0
  8 13  1  0  0  0  0
  9 18  1  0  0  0  0
  9 20  1  0  0  0  0
 10 11  1  0  0  0  0
 10 12  2  0  0  0  0
 10 22  1  0  0  0  0
 11 19  2  0  0  0  0
 11 21  1  0  0  0  0
 14 16  2  0  0  0  0
 14 18  1  0  0  0  0
 14 26  1  0  0  0  0
 15 17  1  0  0  0  0
 16 23  1  0  0  0  0
 16 25  1  0  0  0  0
 20 23  1  0  0  0  0
 21 24  2  0  0  0  0
 22 27  2  0  0  0  0
 24 27  1  0  0  0  0
 25 28  2  0  0  0  0
 26 29  2  0  0  0  0
 28 29  1  0  0  0  0
 28 30  1  0  0  0  0
M  END
> <PUBCHEM_COMPOUND_ID_TYPE>
0

> <PUBCHEM_TOTAL_CHARGE>
0

> <PUBCHEM_SUBSTANCE_ID>
310946872

> <PUBCHEM_SUBSTANCE_VERSION>
1

> <PUBCHEM_EXT_DATASOURCE_NAME>
4488

> <PUBCHEM_EXT_DATASOURCE_REGID>
SCHEMBL16124996

> <PUBCHEM_SUBSTANCE_COMMENT>
InChI=1S/C25H25N5O/c1-27-22-6-4-20-13-24(28-15-21(20)11-22)30-9-8-29(16-25(30)31)23-7-5-18-10-17(14-26)2-3-19(18)12-23/h2-4,6,10-11,13,15,23,27H,5,7-9,12,16H2,1H3
InChIKey=CBWVLTIJZKNJFO-UHFFFAOYSA-N

> <PUBCHEM_SUBSTANCE_SYNONYM>
SCHEMBL16124996

> <PUBCHEM_XREF_EXT_ID>
SCHEMBL16124996

> <PUBCHEM_EXT_DATASOURCE_URL>
https://www.surechembl.org/

> <PUBCHEM_EXT_SUBSTANCE_URL>
https://www.surechembl.org/chemical/SCHEMBL16124996

> <PUBCHEM_CID_ASSOCIATIONS>
117612730  1

> <PUBCHEM_COORDINATE_TYPE>
1
3

$$$$
