310947202
  -OEChem-07211613022D

 40 43  0     1  0  0  0  0  0999 V2000
   -3.1367   -7.2647    0.0000 O   0  0  0  0  0  0  0  0  0  0  0  0
   -1.0226   -9.6155    0.0000 O   0  0  0  0  0  0  0  0  0  0  0  0
   -0.5156   -9.0785    0.0000 O   0  0  0  0  0  0  0  0  0  0  0  0
    0.0506   -9.5181    0.0000 O   0  0  0  0  0  0  0  0  0  0  0  0
   -4.5656   -7.2647    0.0000 N   0  0  0  0  0  0  0  0  0  0  0  0
   -5.2801   -8.5022    0.0000 N   0  0  0  0  0  0  0  0  0  0  0  0
   -5.9946   -7.2647    0.0000 N   0  0  0  0  0  0  0  0  0  0  0  0
   -4.5656   -8.0897    0.0000 C   0  0  0  0  0  0  0  0  0  0  0  0
   -5.2801   -6.8522    0.0000 C   0  0  0  0  0  0  0  0  0  0  0  0
   -5.9946   -8.0897    0.0000 C   0  0  0  0  0  0  0  0  0  0  0  0
   -3.8512   -8.5022    0.0000 C   0  0  0  0  0  0  0  0  0  0  0  0
   -5.2801   -6.0272    0.0000 C   0  0  0  0  0  0  0  0  0  0  0  0
   -6.7091   -8.5022    0.0000 C   0  0  0  0  0  0  0  0  0  0  0  0
   -3.1367   -8.0897    0.0000 C   0  0  0  0  0  0  0  0  0  0  0  0
   -3.8512   -9.3272    0.0000 C   0  0  0  0  0  0  0  0  0  0  0  0
   -2.4222   -9.3272    0.0000 C   0  0  0  0  0  0  0  0  0  0  0  0
   -5.9946   -5.6147    0.0000 C   0  0  0  0  0  0  0  0  0  0  0  0
   -7.4235   -8.0897    0.0000 C   0  0  0  0  0  0  0  0  0  0  0  0
   -2.4222   -8.5022    0.0000 C   0  0  0  0  0  0  0  0  0  0  0  0
   -3.1367   -9.7397    0.0000 C   0  0  0  0  0  0  0  0  0  0  0  0
   -4.5656   -5.6147    0.0000 C   0  0  0  0  0  0  0  0  0  0  0  0
   -6.7091   -9.3272    0.0000 C   0  0  0  0  0  0  0  0  0  0  0  0
   -1.8056   -9.8754    0.0000 C   0  0  3  0  0  0  0  0  0  0  0  0
   -5.9946   -4.7897    0.0000 C   0  0  0  0  0  0  0  0  0  0  0  0
   -8.1380   -8.5022    0.0000 C   0  0  0  0  0  0  0  0  0  0  0  0
   -5.2801   -4.3772    0.0000 C   0  0  0  0  0  0  0  0  0  0  0  0
   -8.1380   -9.3272    0.0000 C   0  0  0  0  0  0  0  0  0  0  0  0
   -4.5656   -4.7897    0.0000 C   0  0  0  0  0  0  0  0  0  0  0  0
   -7.4235   -9.7397    0.0000 C   0  0  0  0  0  0  0  0  0  0  0  0
   -0.9806   -9.8754    0.0000 C   0  0  3  0  0  0  0  0  0  0  0  0
   -6.7091   -6.0272    0.0000 C   0  0  0  0  0  0  0  0  0  0  0  0
   -7.4235   -7.2647    0.0000 C   0  0  0  0  0  0  0  0  0  0  0  0
   -0.3619  -10.2326    0.0000 C   0  0  0  0  0  0  0  0  0  0  0  0
   -5.2801   -3.5522    0.0000 C   0  0  0  0  0  0  0  0  0  0  0  0
   -8.8525   -9.7397    0.0000 C   0  0  0  0  0  0  0  0  0  0  0  0
    0.6693   -9.8754    0.0000 C   0  0  0  0  0  0  0  0  0  0  0  0
    1.8425   -9.8754    0.0000 C   0  0  3  0  0  0  0  0  0  0  0  0
    2.3075   -9.0785    0.0000 C   0  0  0  0  0  0  0  0  0  0  0  0
    3.2090   -9.8754    0.0000 C   0  0  0  0  0  0  0  0  0  0  0  0
    1.8984   -8.3621    0.0000 C   0  0  0  0  0  0  0  0  0  0  0  0
  1 14  1  0  0  0  0
  2 23  1  0  0  0  0
  3 30  1  0  0  0  0
  4 33  1  0  0  0  0
  4 36  1  0  0  0  0
  5  8  1  0  0  0  0
  5  9  2  0  0  0  0
  6  8  2  0  0  0  0
  6 10  1  0  0  0  0
  7  9  1  0  0  0  0
  7 10  2  0  0  0  0
  8 11  1  0  0  0  0
  9 12  1  0  0  0  0
 10 13  1  0  0  0  0
 11 14  2  0  0  0  0
 11 15  1  0  0  0  0
 12 17  2  0  0  0  0
 12 21  1  0  0  0  0
 13 18  1  0  0  0  0
 13 22  2  0  0  0  0
 14 19  1  0  0  0  0
 15 20  2  0  0  0  0
 16 19  2  0  0  0  0
 16 20  1  0  0  0  0
 16 23  1  0  0  0  0
 17 24  1  0  0  0  0
 17 31  1  0  0  0  0
 18 25  2  0  0  0  0
 18 32  1  0  0  0  0
 21 28  2  0  0  0  0
 22 29  1  0  0  0  0
 23 30  1  0  0  0  0
 24 26  2  0  0  0  0
 25 27  1  0  0  0  0
 26 28  1  0  0  0  0
 26 34  1  0  0  0  0
 27 29  2  0  0  0  0
 27 35  1  0  0  0  0
 30 33  1  0  0  0  0
 36 37  1  0  0  0  0
 37 38  1  0  0  0  0
 37 39  1  0  0  0  0
 38 40  1  0  0  0  0
M  END
> <PUBCHEM_COMPOUND_ID_TYPE>
0

> <PUBCHEM_TOTAL_CHARGE>
0

> <PUBCHEM_SUBSTANCE_ID>
310947202

> <PUBCHEM_SUBSTANCE_VERSION>
1

> <PUBCHEM_EXT_DATASOURCE_NAME>
4488

> <PUBCHEM_EXT_DATASOURCE_REGID>
SCHEMBL16125356

> <PUBCHEM_SUBSTANCE_COMMENT>
InChI=1S/C33H39N3O4/c1-7-19(2)17-40-18-29(38)30(39)24-10-13-27(28(37)16-24)33-35-31(25-11-8-20(3)14-22(25)5)34-32(36-33)26-12-9-21(4)15-23(26)6/h8-16,19,29-30,37-39H,7,17-18H2,1-6H3
InChIKey=TUCRNUFCDGWTAV-UHFFFAOYSA-N

> <PUBCHEM_SUBSTANCE_SYNONYM>
SCHEMBL16125356

> <PUBCHEM_XREF_EXT_ID>
SCHEMBL16125356

> <PUBCHEM_EXT_DATASOURCE_URL>
https://www.surechembl.org/

> <PUBCHEM_EXT_SUBSTANCE_URL>
https://www.surechembl.org/chemical/SCHEMBL16125356

> <PUBCHEM_CID_ASSOCIATIONS>
117613025  1

> <PUBCHEM_COORDINATE_TYPE>
1
3

$$$$
