310942529
  -OEChem-07211613022D

 10 10  0     1  0  0  0  0  0999 V2000
    1.3397   -0.9153    0.0000 O   0  0  0  0  0  0  0  0  0  0  0  0
    1.7113    0.6899    0.0000 O   0  0  0  0  0  0  0  0  0  0  0  0
   -0.1857   -0.7827    0.0000 N   0  0  0  0  0  0  0  0  0  0  0  0
    1.7113    0.6899    0.0000 N   0  0  0  0  0  0  0  0  0  0  0  0
    0.2918   -0.0796    0.0000 C   0  0  3  0  0  0  0  0  0  0  0  0
    1.1143   -0.0796    0.0000 C   0  0  0  0  0  0  0  0  0  0  0  0
   -0.1990    0.5837    0.0000 C   0  0  0  0  0  0  0  0  0  0  0  0
   -0.9816    0.3316    0.0000 C   0  0  3  0  0  0  0  0  0  0  0  0
   -0.9816   -0.5040    0.0000 C   0  0  0  0  0  0  0  0  0  0  0  0
   -1.7113    0.7164    0.0000 C   0  0  0  0  0  0  0  0  0  0  0  0
  1  6  2  0  0  0  0
  2  4  1  0  0  0  0
  3  5  1  0  0  0  0
  3  9  1  0  0  0  0
  4  6  1  0  0  0  0
  5  6  1  0  0  0  0
  5  7  1  0  0  0  0
  7  8  1  0  0  0  0
  8  9  1  0  0  0  0
  8 10  1  0  0  0  0
M  END
> <PUBCHEM_COMPOUND_ID_TYPE>
0

> <PUBCHEM_TOTAL_CHARGE>
0

> <PUBCHEM_SUBSTANCE_ID>
310942529

> <PUBCHEM_SUBSTANCE_VERSION>
1

> <PUBCHEM_EXT_DATASOURCE_NAME>
4488

> <PUBCHEM_EXT_DATASOURCE_REGID>
SCHEMBL16120566

> <PUBCHEM_SUBSTANCE_COMMENT>
InChI=1S/C6H12N2O2/c1-4-2-5(7-3-4)6(9)8-10/h4-5,7,10H,2-3H2,1H3,(H,8,9)
InChIKey=QFVLFRYSGDZUDF-UHFFFAOYSA-N

> <PUBCHEM_SUBSTANCE_SYNONYM>
SCHEMBL16120566

> <PUBCHEM_XREF_EXT_ID>
SCHEMBL16120566

> <PUBCHEM_EXT_DATASOURCE_URL>
https://www.surechembl.org/

> <PUBCHEM_EXT_SUBSTANCE_URL>
https://www.surechembl.org/chemical/SCHEMBL16120566

> <PUBCHEM_CID_ASSOCIATIONS>
117609088  1

> <PUBCHEM_COORDINATE_TYPE>
1
3

$$$$
