310945485
  -OEChem-07211613022D

 22 24  0     1  0  0  0  0  0999 V2000
   -2.4107    1.6605    0.0000 O   0  0  0  0  0  0  0  0  0  0  0  0
   -1.7407   -2.7967    0.0000 O   0  0  0  0  0  0  0  0  0  0  0  0
    0.4005    0.9177    0.0000 N   0  0  0  0  0  0  0  0  0  0  0  0
    2.4107    1.8499    0.0000 N   0  0  0  0  0  0  0  0  0  0  0  0
   -0.3277   -1.1361    0.0000 N   0  0  3  0  0  0  0  0  0  0  0  0
    1.0560    1.4275    0.0000 C   0  0  0  0  0  0  0  0  0  0  0  0
    0.8084    2.1849    0.0000 C   0  0  0  0  0  0  0  0  0  0  0  0
   -0.2695    1.4129    0.0000 C   0  0  0  0  0  0  0  0  0  0  0  0
   -0.0218    2.1994    0.0000 C   0  0  0  0  0  0  0  0  0  0  0  0
    1.8718    1.2235    0.0000 C   0  0  0  0  0  0  0  0  0  0  0  0
   -1.0706    1.2381    0.0000 C   0  0  0  0  0  0  0  0  0  0  0  0
   -0.5608    2.7821    0.0000 C   0  0  0  0  0  0  0  0  0  0  0  0
    1.3619    2.7967    0.0000 C   0  0  0  0  0  0  0  0  0  0  0  0
    0.3860    0.0874    0.0000 C   0  0  0  0  0  0  0  0  0  0  0  0
   -1.6241    1.8499    0.0000 C   0  0  0  0  0  0  0  0  0  0  0  0
   -1.3619    2.6219    0.0000 C   0  0  0  0  0  0  0  0  0  0  0  0
    2.1776    2.6219    0.0000 C   0  0  0  0  0  0  0  0  0  0  0  0
    2.1630    0.3496    0.0000 C   0  0  0  0  0  0  0  0  0  0  0  0
   -0.3132   -0.3059    0.0000 C   0  0  0  0  0  0  0  0  0  0  0  0
   -1.0123   -1.5440    0.0000 C   0  0  0  0  0  0  0  0  0  0  0  0
    0.4005   -1.5731    0.0000 C   0  0  0  0  0  0  0  0  0  0  0  0
   -1.0415   -2.3742    0.0000 C   0  0  0  0  0  0  0  0  0  0  0  0
  1 15  1  0  0  0  0
  2 22  1  0  0  0  0
  3  6  1  0  0  0  0
  3  8  1  0  0  0  0
  3 14  1  0  0  0  0
  4 10  2  0  0  0  0
  4 17  1  0  0  0  0
  5 19  1  0  0  0  0
  5 20  1  0  0  0  0
  5 21  1  0  0  0  0
  6  7  2  0  0  0  0
  6 10  1  0  0  0  0
  7  9  1  0  0  0  0
  7 13  1  0  0  0  0
  8  9  2  0  0  0  0
  8 11  1  0  0  0  0
  9 12  1  0  0  0  0
 10 18  1  0  0  0  0
 11 15  2  0  0  0  0
 12 16  2  0  0  0  0
 13 17  2  0  0  0  0
 14 19  1  0  0  0  0
 15 16  1  0  0  0  0
 20 22  1  0  0  0  0
M  END
> <PUBCHEM_COMPOUND_ID_TYPE>
0

> <PUBCHEM_TOTAL_CHARGE>
0

> <PUBCHEM_SUBSTANCE_ID>
310945485

> <PUBCHEM_SUBSTANCE_VERSION>
1

> <PUBCHEM_EXT_DATASOURCE_NAME>
4488

> <PUBCHEM_EXT_DATASOURCE_REGID>
SCHEMBL16123583

> <PUBCHEM_SUBSTANCE_COMMENT>
InChI=1S/C17H21N3O2/c1-12-17-15(5-6-18-12)14-4-3-13(22)11-16(14)20(17)8-7-19(2)9-10-21/h3-6,11,21-22H,7-10H2,1-2H3
InChIKey=LZESVHHEPLFMFV-UHFFFAOYSA-N

> <PUBCHEM_SUBSTANCE_SYNONYM>
SCHEMBL16123583

> <PUBCHEM_XREF_EXT_ID>
SCHEMBL16123583

> <PUBCHEM_EXT_DATASOURCE_URL>
https://www.surechembl.org/

> <PUBCHEM_EXT_SUBSTANCE_URL>
https://www.surechembl.org/chemical/SCHEMBL16123583

> <PUBCHEM_CID_ASSOCIATIONS>
117611528  1

> <PUBCHEM_COORDINATE_TYPE>
1
3

$$$$
