310946258
  -OEChem-07211613022D

 23 24  0     1  0  0  0  0  0999 V2000
    3.0840   -1.6006    0.0000 S   0  0  0  0  0  0  0  0  0  0  0  0
    2.2590   -1.6006    0.0000 O   0  0  0  0  0  0  0  0  0  0  0  0
   -0.3367   -1.6006    0.0000 O   0  0  0  0  0  0  0  0  0  0  0  0
   -0.4678    1.8703    0.0000 O   0  0  0  0  0  0  0  0  0  0  0  0
    3.0840   -0.7756    0.0000 O   0  0  0  0  0  0  0  0  0  0  0  0
    3.0840   -2.4256    0.0000 O   0  0  0  0  0  0  0  0  0  0  0  0
    3.9090   -1.6006    0.0000 O   0  0  0  0  0  0  0  0  0  0  0  0
   -1.8967    1.0453    0.0000 O   0  0  0  0  0  0  0  0  0  0  0  0
    0.2467   -0.1922    0.0000 N   0  0  0  0  0  0  0  0  0  0  0  0
    1.6756   -1.0172    0.0000 N   0  0  0  0  0  0  0  0  0  0  0  0
   -1.1822    0.6328    0.0000 N   0  0  0  0  0  0  0  0  0  0  0  0
   -3.9090    0.4619    0.0000 N   0  0  0  0  0  0  0  0  0  0  0  0
    0.2467   -1.0172    0.0000 C   0  0  0  0  0  0  0  0  0  0  0  0
    1.6756   -0.1922    0.0000 C   0  0  3  0  0  0  0  0  0  0  0  0
    0.2467    0.6328    0.0000 C   0  0  3  0  0  0  0  0  0  0  0  0
    0.9612   -0.6047    0.0000 C   0  0  0  0  0  0  0  0  0  0  0  0
    1.6756    0.6328    0.0000 C   0  0  0  0  0  0  0  0  0  0  0  0
    0.9612    1.0453    0.0000 C   0  0  0  0  0  0  0  0  0  0  0  0
   -0.4678    1.0453    0.0000 C   0  0  0  0  0  0  0  0  0  0  0  0
   -2.6112    0.6328    0.0000 C   0  0  0  0  0  0  0  0  0  0  0  0
   -3.3256    1.0453    0.0000 C   0  0  3  0  0  0  0  0  0  0  0  0
   -3.5392    1.8422    0.0000 C   0  0  0  0  0  0  0  0  0  0  0  0
   -2.9558    2.4256    0.0000 C   0  0  0  0  0  0  0  0  0  0  0  0
  1  2  1  0  0  0  0
  1  5  2  0  0  0  0
  1  6  2  0  0  0  0
  1  7  1  0  0  0  0
  2 10  1  0  0  0  0
  3 13  2  0  0  0  0
  4 19  2  0  0  0  0
  8 11  1  0  0  0  0
  8 20  1  0  0  0  0
  9 13  1  0  0  0  0
  9 15  1  0  0  0  0
  9 16  1  0  0  0  0
 10 13  1  0  0  0  0
 10 14  1  0  0  0  0
 11 19  1  0  0  0  0
 12 21  1  0  0  0  0
 14 16  1  6  0  0  0
 14 17  1  0  0  0  0
 15 18  1  0  0  0  0
 15 19  1  6  0  0  0
 17 18  1  0  0  0  0
 20 21  1  0  0  0  0
 21 22  1  0  0  0  0
 22 23  1  0  0  0  0
M  END
> <PUBCHEM_COMPOUND_ID_TYPE>
0

> <PUBCHEM_TOTAL_CHARGE>
0

> <PUBCHEM_SUBSTANCE_ID>
310946258

> <PUBCHEM_SUBSTANCE_VERSION>
1

> <PUBCHEM_EXT_DATASOURCE_NAME>
4488

> <PUBCHEM_EXT_DATASOURCE_REGID>
SCHEMBL16124376

> <PUBCHEM_SUBSTANCE_COMMENT>
InChI=1S/C11H20N4O7S/c1-2-7(12)6-21-13-10(16)9-4-3-8-5-14(9)11(17)15(8)22-23(18,19)20/h7-9H,2-6,12H2,1H3,(H,13,16)(H,18,19,20)/t7?,8-,9+/m1/s1
InChIKey=AJWSAJDSAQWZKJ-ASODMVGOSA-N

> <PUBCHEM_SUBSTANCE_SYNONYM>
SCHEMBL16124376

> <PUBCHEM_XREF_EXT_ID>
SCHEMBL16124376

> <PUBCHEM_EXT_DATASOURCE_URL>
https://www.surechembl.org/

> <PUBCHEM_EXT_SUBSTANCE_URL>
https://www.surechembl.org/chemical/SCHEMBL16124376

> <PUBCHEM_CID_ASSOCIATIONS>
117612206  1

> <PUBCHEM_COORDINATE_TYPE>
1
3

> <PUBCHEM_BONDANNOTATIONS>
14  16  6
15  19  6

$$$$
