310931660
  -OEChem-07211613022D

 26 29  0     1  0  0  0  0  0999 V2000
    3.2921    0.0000    0.0000 O   0  0  0  0  0  0  0  0  0  0  0  0
    4.4114   -1.9533    0.0000 O   0  0  0  0  0  0  0  0  0  0  0  0
    5.1357   -0.7023    0.0000 O   0  0  0  0  0  0  0  0  0  0  0  0
    0.0000   -2.3703    0.0000 O   0  0  0  0  0  0  0  0  0  0  0  0
    3.7091   -0.7023    0.0000 C   0  0  3  0  0  0  0  0  0  0  0  0
    2.8751   -0.7023    0.0000 C   0  0  3  0  0  0  0  0  0  0  0  0
    3.4896   -1.5144    0.0000 C   0  0  0  0  0  0  0  0  0  0  0  0
    4.4114   -1.1193    0.0000 C   0  0  0  0  0  0  0  0  0  0  0  0
    2.1508   -1.1193    0.0000 C   0  0  0  0  0  0  0  0  0  0  0  0
    4.0822   -2.1069    0.0000 C   0  0  0  0  0  0  0  0  0  0  0  0
    2.6995   -1.7338    0.0000 C   0  0  0  0  0  0  0  0  0  0  0  0
    2.1508   -1.9533    0.0000 C   0  0  0  0  0  0  0  0  0  0  0  0
    1.4485   -0.7243    0.0000 C   0  0  0  0  0  0  0  0  0  0  0  0
    5.1357   -2.3703    0.0000 C   0  0  0  0  0  0  0  0  0  0  0  0
    3.8627   -2.8971    0.0000 C   0  0  0  0  0  0  0  0  0  0  0  0
    2.4800   -2.5239    0.0000 C   0  0  0  0  0  0  0  0  0  0  0  0
    1.4485   -2.3703    0.0000 C   0  0  0  0  0  0  0  0  0  0  0  0
    0.7243   -1.1193    0.0000 C   0  0  0  0  0  0  0  0  0  0  0  0
    0.7243   -1.9533    0.0000 C   0  0  0  0  0  0  0  0  0  0  0  0
    3.0507   -3.1165    0.0000 C   0  0  0  0  0  0  0  0  0  0  0  0
    5.8600   -1.9753    0.0000 C   0  0  0  0  0  0  0  0  0  0  0  0
    5.1576   -3.2043    0.0000 C   0  0  0  0  0  0  0  0  0  0  0  0
    6.5622   -2.3703    0.0000 C   0  0  0  0  0  0  0  0  0  0  0  0
    5.8600   -3.5993    0.0000 C   0  0  0  0  0  0  0  0  0  0  0  0
    6.5842   -3.2043    0.0000 C   0  0  0  0  0  0  0  0  0  0  0  0
    0.0000   -3.1824    0.0000 C   0  0  0  0  0  0  0  0  0  0  0  0
  1  5  1  0  0  0  0
  1  6  1  0  0  0  0
  2  8  1  0  0  0  0
  2 14  1  0  0  0  0
  3  8  2  0  0  0  0
  4 19  1  0  0  0  0
  4 26  1  0  0  0  0
  5  6  1  0  0  0  0
  5  7  1  0  0  0  0
  5  8  1  0  0  0  0
  6  9  1  0  0  0  0
  7 10  2  0  0  0  0
  7 11  1  0  0  0  0
  9 12  2  0  0  0  0
  9 13  1  0  0  0  0
 10 15  1  0  0  0  0
 11 16  2  0  0  0  0
 12 17  1  0  0  0  0
 13 18  2  0  0  0  0
 14 21  1  0  0  0  0
 14 22  1  0  0  0  0
 15 20  2  0  0  0  0
 16 20  1  0  0  0  0
 17 19  2  0  0  0  0
 18 19  1  0  0  0  0
 21 23  1  0  0  0  0
 22 24  1  0  0  0  0
 23 25  1  0  0  0  0
 24 25  1  0  0  0  0
M  END
> <PUBCHEM_COMPOUND_ID_TYPE>
0

> <PUBCHEM_TOTAL_CHARGE>
0

> <PUBCHEM_SUBSTANCE_ID>
310931660

> <PUBCHEM_SUBSTANCE_VERSION>
1

> <PUBCHEM_EXT_DATASOURCE_NAME>
4488

> <PUBCHEM_EXT_DATASOURCE_REGID>
SCHEMBL16108986

> <PUBCHEM_SUBSTANCE_COMMENT>
InChI=1S/C22H24O4/c1-24-18-14-12-16(13-15-18)20-22(26-20,17-8-4-2-5-9-17)21(23)25-19-10-6-3-7-11-19/h2,4-5,8-9,12-15,19-20H,3,6-7,10-11H2,1H3
InChIKey=NQSOFWIBAMOKFF-UHFFFAOYSA-N

> <PUBCHEM_SUBSTANCE_SYNONYM>
SCHEMBL16108986

> <PUBCHEM_XREF_EXT_ID>
SCHEMBL16108986

> <PUBCHEM_EXT_DATASOURCE_URL>
https://www.surechembl.org/

> <PUBCHEM_EXT_SUBSTANCE_URL>
https://www.surechembl.org/chemical/SCHEMBL16108986

> <PUBCHEM_CID_ASSOCIATIONS>
117600370  1

> <PUBCHEM_COORDINATE_TYPE>
1
3

$$$$
