310936401
  -OEChem-07211613022D

 44 47  0     1  0  0  0  0  0999 V2000
   -0.2403   -0.3264    0.0000 O   0  0  0  0  0  0  0  0  0  0  0  0
   -0.2403    2.5315    0.0000 O   0  0  0  0  0  0  0  0  0  0  0  0
   -0.6528   -2.4698    0.0000 O   0  0  0  0  0  0  0  0  0  0  0  0
    0.5847   -1.7554    0.0000 O   0  0  0  0  0  0  0  0  0  0  0  0
   -4.7355    1.1886    0.0000 O   0  0  0  0  0  0  0  0  0  0  0  0
   -6.8789   -0.8739    0.0000 O   0  0  0  0  0  0  0  0  0  0  0  0
   -7.5934   -1.2864    0.0000 O   0  0  0  0  0  0  0  0  0  0  0  0
   -3.1278   -1.0409    0.0000 N   0  0  0  0  0  0  0  0  0  0  0  0
   -1.4778    0.3880    0.0000 N   0  0  0  0  0  0  0  0  0  0  0  0
   -3.9348   -0.8694    0.0000 N   0  0  0  0  0  0  0  0  0  0  0  0
   -5.4500   -0.0489    0.0000 N   0  0  0  0  0  0  0  0  0  0  0  0
   -1.8903   -0.3264    0.0000 C   0  0  0  0  0  0  0  0  0  0  0  0
   -2.7153   -0.3264    0.0000 C   0  0  0  0  0  0  0  0  0  0  0  0
   -1.4778   -1.0409    0.0000 C   0  0  0  0  0  0  0  0  0  0  0  0
   -1.8903   -1.7554    0.0000 C   0  0  0  0  0  0  0  0  0  0  0  0
   -0.6528   -1.0409    0.0000 C   0  0  3  0  0  0  0  0  0  0  0  0
   -3.2674    0.2867    0.0000 C   0  0  0  0  0  0  0  0  0  0  0  0
   -2.7153   -1.7554    0.0000 C   0  0  0  0  0  0  0  0  0  0  0  0
   -4.0210   -0.0489    0.0000 C   0  0  0  0  0  0  0  0  0  0  0  0
   -0.6528    0.3880    0.0000 C   0  0  0  0  0  0  0  0  0  0  0  0
   -1.8903    1.1026    0.0000 C   0  0  0  0  0  0  0  0  0  0  0  0
   -0.2403   -1.7554    0.0000 C   0  0  0  0  0  0  0  0  0  0  0  0
   -4.7355    0.3636    0.0000 C   0  0  0  0  0  0  0  0  0  0  0  0
   -0.6528    1.8170    0.0000 C   0  0  0  0  0  0  0  0  0  0  0  0
   -0.2403    1.1026    0.0000 C   0  0  0  0  0  0  0  0  0  0  0  0
   -1.4778    1.8170    0.0000 C   0  0  0  0  0  0  0  0  0  0  0  0
   -1.4778   -2.4698    0.0000 C   0  0  0  0  0  0  0  0  0  0  0  0
    0.5847   -0.3264    0.0000 C   0  0  0  0  0  0  0  0  0  0  0  0
    0.1722    1.8170    0.0000 C   0  0  0  0  0  0  0  0  0  0  0  0
    0.9972   -1.0409    0.0000 C   0  0  0  0  0  0  0  0  0  0  0  0
    1.4097   -0.3264    0.0000 C   0  0  0  0  0  0  0  0  0  0  0  0
    0.9972    0.3880    0.0000 C   0  0  0  0  0  0  0  0  0  0  0  0
   -6.1645    0.3636    0.0000 C   0  0  0  0  0  0  0  0  0  0  0  0
    0.5847    2.5315    0.0000 C   0  0  0  0  0  0  0  0  0  0  0  0
   -6.8789   -0.0489    0.0000 C   0  0  3  0  0  0  0  0  0  0  0  0
   -7.5934    0.3636    0.0000 C   0  0  0  0  0  0  0  0  0  0  0  0
   -8.3079   -0.0489    0.0000 C   0  0  0  0  0  0  0  0  0  0  0  0
    0.9972    3.2460    0.0000 C   0  0  0  0  0  0  0  0  0  0  0  0
   -8.3079   -0.8739    0.0000 C   0  0  0  0  0  0  0  0  0  0  0  0
   -9.0223    0.3636    0.0000 C   0  0  0  0  0  0  0  0  0  0  0  0
   -9.0223   -1.2864    0.0000 C   0  0  0  0  0  0  0  0  0  0  0  0
   -9.7368   -0.0489    0.0000 C   0  0  0  0  0  0  0  0  0  0  0  0
    1.8222    3.2460    0.0000 C   0  0  0  0  0  0  0  0  0  0  0  0
   -9.7368   -0.8739    0.0000 C   0  0  0  0  0  0  0  0  0  0  0  0
  1 16  1  0  0  0  0
  1 28  1  0  0  0  0
  2 24  1  0  0  0  0
  2 34  1  0  0  0  0
  3 22  2  0  0  0  0
  4 22  1  0  0  0  0
  5 23  2  0  0  0  0
  6 35  1  0  0  0  0
  7 39  1  0  0  0  0
  8 10  1  0  0  0  0
  8 13  1  0  0  0  0
  8 18  1  0  0  0  0
  9 12  1  0  0  0  0
  9 20  1  0  0  0  0
  9 21  1  0  0  0  0
 10 19  2  0  0  0  0
 11 23  1  0  0  0  0
 11 33  1  0  0  0  0
 12 13  1  0  0  0  0
 12 14  2  0  0  0  0
 13 17  2  0  0  0  0
 14 15  1  0  0  0  0
 14 16  1  0  0  0  0
 15 18  2  0  0  0  0
 15 27  1  0  0  0  0
 16 22  1  0  0  0  0
 17 19  1  0  0  0  0
 19 23  1  0  0  0  0
 20 25  1  0  0  0  0
 21 26  1  0  0  0  0
 24 25  1  0  0  0  0
 24 26  1  0  0  0  0
 24 29  1  0  0  0  0
 28 30  1  0  0  0  0
 28 31  1  0  0  0  0
 28 32  1  0  0  0  0
 33 35  1  0  0  0  0
 34 38  1  0  0  0  0
 35 36  1  0  0  0  0
 36 37  1  0  0  0  0
 37 39  1  0  0  0  0
 37 40  2  0  0  0  0
 38 43  2  0  0  0  0
 39 41  2  0  0  0  0
 40 42  1  0  0  0  0
 41 44  1  0  0  0  0
 42 44  2  0  0  0  0
M  END
> <PUBCHEM_COMPOUND_ID_TYPE>
0

> <PUBCHEM_TOTAL_CHARGE>
0

> <PUBCHEM_SUBSTANCE_ID>
310936401

> <PUBCHEM_SUBSTANCE_VERSION>
1

> <PUBCHEM_EXT_DATASOURCE_NAME>
4488

> <PUBCHEM_EXT_DATASOURCE_REGID>
SCHEMBL16114039

> <PUBCHEM_SUBSTANCE_COMMENT>
InChI=1S/C33H44N4O7/c1-7-16-43-33(6)12-14-36(15-13-33)28-25-18-24(30(40)34-19-23(38)17-22-10-8-9-11-26(22)39)35-37(25)20-21(2)27(28)29(31(41)42)44-32(3,4)5/h7-11,18,20,23,29,38-39H,1,12-17,19H2,2-6H3,(H,34,40)(H,41,42)
InChIKey=LLQPQPATOLGQAT-UHFFFAOYSA-N

> <PUBCHEM_SUBSTANCE_SYNONYM>
SCHEMBL16114039

> <PUBCHEM_XREF_EXT_ID>
SCHEMBL16114039

> <PUBCHEM_EXT_DATASOURCE_URL>
https://www.surechembl.org/

> <PUBCHEM_EXT_SUBSTANCE_URL>
https://www.surechembl.org/chemical/SCHEMBL16114039

> <PUBCHEM_CID_ASSOCIATIONS>
117604339  1

> <PUBCHEM_COORDINATE_TYPE>
1
3

$$$$
