310945494
  -OEChem-07211613022D

 27 30  0     1  0  0  0  0  0999 V2000
    2.6881    0.7013    0.0000 F   0  0  0  0  0  0  0  0  0  0  0  0
    2.2060   -0.3214    0.0000 F   0  0  0  0  0  0  0  0  0  0  0  0
    1.1687    0.1753    0.0000 F   0  0  0  0  0  0  0  0  0  0  0  0
   -2.6881    1.7385    0.0000 O   0  0  0  0  0  0  0  0  0  0  0  0
   -0.5990   -2.8780    0.0000 O   0  0  0  0  0  0  0  0  0  0  0  0
    0.1314    0.9934    0.0000 N   0  0  0  0  0  0  0  0  0  0  0  0
    2.1622    1.9284    0.0000 N   0  0  0  0  0  0  0  0  0  0  0  0
   -0.5990   -1.2272    0.0000 N   0  0  0  0  0  0  0  0  0  0  0  0
    0.7889    1.5047    0.0000 C   0  0  0  0  0  0  0  0  0  0  0  0
    0.5406    2.2644    0.0000 C   0  0  0  0  0  0  0  0  0  0  0  0
   -0.5551    1.4902    0.0000 C   0  0  0  0  0  0  0  0  0  0  0  0
   -0.2921    2.2790    0.0000 C   0  0  0  0  0  0  0  0  0  0  0  0
    1.6070    1.3148    0.0000 C   0  0  0  0  0  0  0  0  0  0  0  0
    0.1023    0.0146    0.0000 C   0  0  3  0  0  0  0  0  0  0  0  0
    1.9138    0.4383    0.0000 C   0  0  0  0  0  0  0  0  0  0  0  0
    1.0957    2.8780    0.0000 C   0  0  0  0  0  0  0  0  0  0  0  0
   -1.3440    1.3148    0.0000 C   0  0  0  0  0  0  0  0  0  0  0  0
   -0.8327    2.8634    0.0000 C   0  0  0  0  0  0  0  0  0  0  0  0
    1.9138    2.7027    0.0000 C   0  0  0  0  0  0  0  0  0  0  0  0
   -1.9138    1.9284    0.0000 C   0  0  0  0  0  0  0  0  0  0  0  0
   -1.6362    2.7027    0.0000 C   0  0  0  0  0  0  0  0  0  0  0  0
   -0.5697   -0.3945    0.0000 C   0  0  0  0  0  0  0  0  0  0  0  0
    0.8473   -0.4237    0.0000 C   0  0  0  0  0  0  0  0  0  0  0  0
   -1.3002   -1.6362    0.0000 C   0  0  0  0  0  0  0  0  0  0  0  0
    0.1314   -1.6509    0.0000 C   0  0  0  0  0  0  0  0  0  0  0  0
   -1.3002   -2.4543    0.0000 C   0  0  0  0  0  0  0  0  0  0  0  0
    0.1169   -2.4543    0.0000 C   0  0  0  0  0  0  0  0  0  0  0  0
  1 15  1  0  0  0  0
  2 15  1  0  0  0  0
  3 15  1  0  0  0  0
  4 20  1  0  0  0  0
  5 26  1  0  0  0  0
  5 27  1  0  0  0  0
  6  9  1  0  0  0  0
  6 11  1  0  0  0  0
  6 14  1  0  0  0  0
  7 13  2  0  0  0  0
  7 19  1  0  0  0  0
  8 22  1  0  0  0  0
  8 24  1  0  0  0  0
  8 25  1  0  0  0  0
  9 10  2  0  0  0  0
  9 13  1  0  0  0  0
 10 12  1  0  0  0  0
 10 16  1  0  0  0  0
 11 12  2  0  0  0  0
 11 17  1  0  0  0  0
 12 18  1  0  0  0  0
 13 15  1  0  0  0  0
 14 22  1  0  0  0  0
 14 23  1  0  0  0  0
 16 19  2  0  0  0  0
 17 20  2  0  0  0  0
 18 21  2  0  0  0  0
 20 21  1  0  0  0  0
 24 26  1  0  0  0  0
 25 27  1  0  0  0  0
M  END
> <PUBCHEM_COMPOUND_ID_TYPE>
0

> <PUBCHEM_TOTAL_CHARGE>
0

> <PUBCHEM_SUBSTANCE_ID>
310945494

> <PUBCHEM_SUBSTANCE_VERSION>
1

> <PUBCHEM_EXT_DATASOURCE_NAME>
4488

> <PUBCHEM_EXT_DATASOURCE_REGID>
SCHEMBL16123592

> <PUBCHEM_SUBSTANCE_COMMENT>
InChI=1S/C19H20F3N3O2/c1-12(11-24-6-8-27-9-7-24)25-16-10-13(26)2-3-14(16)15-4-5-23-18(17(15)25)19(20,21)22/h2-5,10,12,26H,6-9,11H2,1H3
InChIKey=QGMRHHPWZLUKGF-UHFFFAOYSA-N

> <PUBCHEM_SUBSTANCE_SYNONYM>
SCHEMBL16123592

> <PUBCHEM_XREF_EXT_ID>
SCHEMBL16123592

> <PUBCHEM_EXT_DATASOURCE_URL>
https://www.surechembl.org/

> <PUBCHEM_EXT_SUBSTANCE_URL>
https://www.surechembl.org/chemical/SCHEMBL16123592

> <PUBCHEM_CID_ASSOCIATIONS>
117611537  1

> <PUBCHEM_COORDINATE_TYPE>
1
3

$$$$
