310940751
  -OEChem-07211613022D

 40 44  0     1  0  0  0  0  0999 V2000
    6.0793    1.7296    0.0000 F   0  0  0  0  0  0  0  0  0  0  0  0
    5.7408    0.9641    0.0000 F   0  0  0  0  0  0  0  0  0  0  0  0
   -2.5024    0.4490    0.0000 O   0  0  0  0  0  0  0  0  0  0  0  0
    2.1638   -2.5392    0.0000 O   0  0  0  0  0  0  0  0  0  0  0  0
    3.4003   -1.8179    0.0000 O   0  0  0  0  0  0  0  0  0  0  0  0
    0.4268    0.3018    0.0000 N   0  0  0  0  0  0  0  0  0  0  0  0
    0.4268   -1.0378    0.0000 N   0  0  0  0  0  0  0  0  0  0  0  0
    3.9155    1.7738    0.0000 N   0  0  3  0  0  0  0  0  0  0  0  0
   -4.6957    0.1251    0.0000 N   0  0  0  0  0  0  0  0  0  0  0  0
   -5.2404    0.7433    0.0000 N   0  0  0  0  0  0  0  0  0  0  0  0
   -0.3533    0.0515    0.0000 C   0  0  0  0  0  0  0  0  0  0  0  0
    0.9126   -0.3606    0.0000 C   0  0  0  0  0  0  0  0  0  0  0  0
   -0.3680   -0.7728    0.0000 C   0  0  0  0  0  0  0  0  0  0  0  0
    2.1491   -1.0819    0.0000 C   0  0  0  0  0  0  0  0  0  0  0  0
    1.7517   -0.3901    0.0000 C   0  0  0  0  0  0  0  0  0  0  0  0
   -1.0746    0.4342    0.0000 C   0  0  0  0  0  0  0  0  0  0  0  0
    0.6918    1.0819    0.0000 C   0  0  0  0  0  0  0  0  0  0  0  0
   -1.0598   -1.1997    0.0000 C   0  0  0  0  0  0  0  0  0  0  0  0
   -1.7811    0.0515    0.0000 C   0  0  0  0  0  0  0  0  0  0  0  0
    1.5014    1.2585    0.0000 C   0  0  0  0  0  0  0  0  0  0  0  0
   -1.7811   -0.7875    0.0000 C   0  0  0  0  0  0  0  0  0  0  0  0
    2.5760   -1.7738    0.0000 C   0  0  0  0  0  0  0  0  0  0  0  0
    3.1207    1.6118    0.0000 C   0  0  0  0  0  0  0  0  0  0  0  0
    1.4425   -1.5088    0.0000 C   0  0  0  0  0  0  0  0  0  0  0  0
    2.8557   -0.6845    0.0000 C   0  0  0  0  0  0  0  0  0  0  0  0
    2.0461    0.6551    0.0000 C   0  0  0  0  0  0  0  0  0  0  0  0
    1.7664    2.0387    0.0000 C   0  0  0  0  0  0  0  0  0  0  0  0
    5.2551    1.6413    0.0000 C   0  0  0  0  0  0  0  0  0  0  0  0
    2.8557    0.8170    0.0000 C   0  0  0  0  0  0  0  0  0  0  0  0
    2.5760    2.2006    0.0000 C   0  0  0  0  0  0  0  0  0  0  0  0
    4.5485    1.2291    0.0000 C   0  0  0  0  0  0  0  0  0  0  0  0
    4.2688    2.5392    0.0000 C   0  0  0  0  0  0  0  0  0  0  0  0
    5.0784    2.4509    0.0000 C   0  0  0  0  0  0  0  0  0  0  0  0
   -3.2089    0.0515    0.0000 C   0  0  0  0  0  0  0  0  0  0  0  0
   -3.9449    0.4637    0.0000 C   0  0  0  0  0  0  0  0  0  0  0  0
    3.6064   -1.0819    0.0000 C   0  0  0  0  0  0  0  0  0  0  0  0
    1.4573   -2.3625    0.0000 C   0  0  0  0  0  0  0  0  0  0  0  0
   -4.0333    1.2880    0.0000 C   0  0  0  0  0  0  0  0  0  0  0  0
   -4.8281    1.4499    0.0000 C   0  0  0  0  0  0  0  0  0  0  0  0
   -6.0793    0.6551    0.0000 C   0  0  0  0  0  0  0  0  0  0  0  0
  1 28  1  0  0  0  0
  2 28  1  0  0  0  0
  3 19  1  0  0  0  0
  3 34  1  0  0  0  0
  4 22  2  0  0  0  0
  5 22  1  0  0  0  0
  6 11  1  0  0  0  0
  6 12  1  0  0  0  0
  6 17  1  0  0  0  0
  7 12  2  0  0  0  0
  7 13  1  0  0  0  0
  8 23  1  0  0  0  0
  8 31  1  0  0  0  0
  8 32  1  0  0  0  0
  9 10  1  0  0  0  0
  9 35  2  0  0  0  0
 10 39  1  0  0  0  0
 10 40  1  0  0  0  0
 11 13  1  0  0  0  0
 11 16  2  0  0  0  0
 12 15  1  0  0  0  0
 13 18  2  0  0  0  0
 14 15  1  0  0  0  0
 14 22  1  0  0  0  0
 14 24  1  0  0  0  0
 14 25  1  0  0  0  0
 16 19  1  0  0  0  0
 17 20  1  0  0  0  0
 18 21  1  0  0  0  0
 19 21  2  0  0  0  0
 20 26  2  0  0  0  0
 20 27  1  0  0  0  0
 23 29  2  0  0  0  0
 23 30  1  0  0  0  0
 24 37  1  0  0  0  0
 25 36  1  0  0  0  0
 26 29  1  0  0  0  0
 27 30  2  0  0  0  0
 28 31  1  0  0  0  0
 28 33  1  0  0  0  0
 32 33  1  0  0  0  0
 34 35  1  0  0  0  0
 35 38  1  0  0  0  0
 38 39  2  0  0  0  0
M  END
> <PUBCHEM_COMPOUND_ID_TYPE>
0

> <PUBCHEM_TOTAL_CHARGE>
0

> <PUBCHEM_SUBSTANCE_ID>
310940751

> <PUBCHEM_SUBSTANCE_VERSION>
1

> <PUBCHEM_EXT_DATASOURCE_NAME>
4488

> <PUBCHEM_EXT_DATASOURCE_REGID>
SCHEMBL16118710

> <PUBCHEM_SUBSTANCE_COMMENT>
InChI=1S/C30H35F2N5O3/c1-4-29(5-2,28(38)39)17-27-33-25-11-10-24(40-19-22-12-14-35(3)34-22)16-26(25)37(27)18-21-6-8-23(9-7-21)36-15-13-30(31,32)20-36/h6-12,14,16H,4-5,13,15,17-20H2,1-3H3,(H,38,39)
InChIKey=YKFPFWBOXCCEPV-UHFFFAOYSA-N

> <PUBCHEM_SUBSTANCE_SYNONYM>
SCHEMBL16118710

> <PUBCHEM_XREF_EXT_ID>
SCHEMBL16118710

> <PUBCHEM_EXT_DATASOURCE_URL>
https://www.surechembl.org/

> <PUBCHEM_EXT_SUBSTANCE_URL>
https://www.surechembl.org/chemical/SCHEMBL16118710

> <PUBCHEM_CID_ASSOCIATIONS>
117607706  1

> <PUBCHEM_COORDINATE_TYPE>
1
3

$$$$
