310931122
  -OEChem-07211613022D

 32 36  0     1  0  0  0  0  0999 V2000
    3.3560   -2.7267    0.0000 O   0  0  0  0  0  0  0  0  0  0  0  0
    1.7828   -4.9290    0.0000 O   0  0  0  0  0  0  0  0  0  0  0  0
    4.7892   -2.4820    0.0000 N   0  0  0  0  0  0  0  0  0  0  0  0
    5.2087   -3.7754    0.0000 N   0  0  0  0  0  0  0  0  0  0  0  0
    6.2574   -2.7267    0.0000 N   0  0  0  0  0  0  0  0  0  0  0  0
    4.4047   -3.7754    0.0000 C   0  0  3  0  0  0  0  0  0  0  0  0
    4.1599   -2.9714    0.0000 C   0  0  0  0  0  0  0  0  0  0  0  0
    3.9152   -4.4396    0.0000 C   0  0  0  0  0  0  0  0  0  0  0  0
    4.7542   -4.4745    0.0000 C   0  0  0  0  0  0  0  0  0  0  0  0
    5.4884   -2.9714    0.0000 C   0  0  0  0  0  0  0  0  0  0  0  0
    4.7892   -1.6780    0.0000 C   0  0  0  0  0  0  0  0  0  0  0  0
    3.1112   -4.3347    0.0000 C   0  0  0  0  0  0  0  0  0  0  0  0
    4.2649   -5.1737    0.0000 C   0  0  0  0  0  0  0  0  0  0  0  0
    5.5932   -4.5445    0.0000 C   0  0  0  0  0  0  0  0  0  0  0  0
    4.4745   -5.3485    0.0000 C   0  0  0  0  0  0  0  0  0  0  0  0
    2.6218   -4.9989    0.0000 C   0  0  0  0  0  0  0  0  0  0  0  0
    4.0900   -1.2235    0.0000 C   0  0  0  0  0  0  0  0  0  0  0  0
    5.5233   -1.2235    0.0000 C   0  0  0  0  0  0  0  0  0  0  0  0
    3.7754   -5.8379    0.0000 C   0  0  0  0  0  0  0  0  0  0  0  0
    2.9364   -5.7680    0.0000 C   0  0  0  0  0  0  0  0  0  0  0  0
    5.9428   -5.2786    0.0000 C   0  0  0  0  0  0  0  0  0  0  0  0
    4.6843   -5.9078    0.0000 C   0  0  0  0  0  0  0  0  0  0  0  0
    5.5233   -5.9777    0.0000 C   0  0  0  0  0  0  0  0  0  0  0  0
    4.0900   -0.4195    0.0000 C   0  0  0  0  0  0  0  0  0  0  0  0
    5.5233   -0.4195    0.0000 C   0  0  0  0  0  0  0  0  0  0  0  0
    1.2934   -5.5932    0.0000 C   0  0  0  0  0  0  0  0  0  0  0  0
    4.7892    0.0000    0.0000 C   0  0  0  0  0  0  0  0  0  0  0  0
    0.4894   -5.4884    0.0000 C   0  0  0  0  0  0  0  0  0  0  0  0
    1.6430   -6.3273    0.0000 C   0  0  0  0  0  0  0  0  0  0  0  0
    0.0000   -6.1525    0.0000 C   0  0  0  0  0  0  0  0  0  0  0  0
    1.1536   -6.9915    0.0000 C   0  0  0  0  0  0  0  0  0  0  0  0
    0.3146   -6.8866    0.0000 C   0  0  0  0  0  0  0  0  0  0  0  0
  1  7  2  0  0  0  0
  2 16  1  0  0  0  0
  2 26  1  0  0  0  0
  3  7  1  0  0  0  0
  3 10  1  0  0  0  0
  3 11  1  0  0  0  0
  4  6  1  0  0  0  0
  4 10  1  0  0  0  0
  5 10  2  3  0  0  0
  6  7  1  0  0  0  0
  6  8  1  0  0  0  0
  6  9  1  0  0  0  0
  8 12  1  0  0  0  0
  8 13  2  0  0  0  0
  9 14  2  0  0  0  0
  9 15  1  0  0  0  0
 11 17  1  0  0  0  0
 11 18  1  0  0  0  0
 12 16  2  0  0  0  0
 13 19  1  0  0  0  0
 14 21  1  0  0  0  0
 15 22  2  0  0  0  0
 16 20  1  0  0  0  0
 17 24  1  0  0  0  0
 18 25  1  0  0  0  0
 19 20  2  0  0  0  0
 21 23  2  0  0  0  0
 22 23  1  0  0  0  0
 24 27  1  0  0  0  0
 25 27  1  0  0  0  0
 26 28  2  0  0  0  0
 26 29  1  0  0  0  0
 28 30  1  0  0  0  0
 29 31  2  0  0  0  0
 30 32  2  0  0  0  0
 31 32  1  0  0  0  0
M  END
> <PUBCHEM_COMPOUND_ID_TYPE>
0

> <PUBCHEM_TOTAL_CHARGE>
0

> <PUBCHEM_SUBSTANCE_ID>
310931122

> <PUBCHEM_SUBSTANCE_VERSION>
1

> <PUBCHEM_EXT_DATASOURCE_NAME>
4488

> <PUBCHEM_EXT_DATASOURCE_REGID>
SCHEMBL16108426

> <PUBCHEM_SUBSTANCE_COMMENT>
InChI=1S/C27H27N3O2/c28-26-29-27(20-11-4-1-5-12-20,25(31)30(26)22-14-6-2-7-15-22)21-13-10-18-24(19-21)32-23-16-8-3-9-17-23/h1,3-5,8-13,16-19,22H,2,6-7,14-15H2,(H2,28,29)
InChIKey=KUVKZOBVHBSTQT-UHFFFAOYSA-N

> <PUBCHEM_SUBSTANCE_SYNONYM>
SCHEMBL16108426

> <PUBCHEM_XREF_EXT_ID>
SCHEMBL16108426

> <PUBCHEM_EXT_DATASOURCE_URL>
https://www.surechembl.org/

> <PUBCHEM_EXT_SUBSTANCE_URL>
https://www.surechembl.org/chemical/SCHEMBL16108426

> <PUBCHEM_CID_ASSOCIATIONS>
76335706  1

> <PUBCHEM_COORDINATE_TYPE>
1
3

$$$$
