310938354
  -OEChem-07211613022D

 24 25  0     1  0  0  0  0  0999 V2000
    4.2969   -3.7294    0.0000 O   0  0  0  0  0  0  0  0  0  0  0  0
    1.4323   -0.4054    0.0000 O   0  0  0  0  0  0  0  0  0  0  0  0
    0.0000   -2.8916    0.0000 O   0  0  0  0  0  0  0  0  0  0  0  0
    3.5943   -4.9725    0.0000 O   0  0  0  0  0  0  0  0  0  0  0  0
    2.8646   -2.8916    0.0000 N   0  0  0  0  0  0  0  0  0  0  0  0
    2.8646   -3.7294    0.0000 C   0  0  3  0  0  0  0  0  0  0  0  0
    2.1620   -2.4862    0.0000 C   0  0  0  0  0  0  0  0  0  0  0  0
    2.1349   -4.1617    0.0000 C   0  0  0  0  0  0  0  0  0  0  0  0
    3.5943   -4.1617    0.0000 C   0  0  0  0  0  0  0  0  0  0  0  0
    1.4323   -1.2431    0.0000 C   0  0  0  0  0  0  0  0  0  0  0  0
    0.7026   -2.4862    0.0000 C   0  0  0  0  0  0  0  0  0  0  0  0
    1.4053   -2.9186    0.0000 C   0  0  0  0  0  0  0  0  0  0  0  0
    2.1349   -1.6755    0.0000 C   0  0  0  0  0  0  0  0  0  0  0  0
    0.7026   -1.6755    0.0000 C   0  0  0  0  0  0  0  0  0  0  0  0
    1.4053   -3.7294    0.0000 C   0  0  0  0  0  0  0  0  0  0  0  0
    2.1349   -4.9725    0.0000 C   0  0  0  0  0  0  0  0  0  0  0  0
    0.7026   -4.9995    0.0000 C   0  0  0  0  0  0  0  0  0  0  0  0
    0.7026   -4.1617    0.0000 C   0  0  0  0  0  0  0  0  0  0  0  0
    1.4053   -5.4049    0.0000 C   0  0  0  0  0  0  0  0  0  0  0  0
    5.0265   -4.1617    0.0000 C   0  0  0  0  0  0  0  0  0  0  0  0
    0.0000   -5.4049    0.0000 C   0  0  0  0  0  0  0  0  0  0  0  0
    0.7026    0.0000    0.0000 C   0  0  0  0  0  0  0  0  0  0  0  0
    0.0000   -3.7294    0.0000 C   0  0  0  0  0  0  0  0  0  0  0  0
    5.7291   -3.7294    0.0000 C   0  0  0  0  0  0  0  0  0  0  0  0
  1  9  1  0  0  0  0
  1 20  1  0  0  0  0
  2 10  1  0  0  0  0
  2 22  1  0  0  0  0
  3 11  1  0  0  0  0
  3 23  1  0  0  0  0
  4  9  2  0  0  0  0
  5  6  1  0  0  0  0
  5  7  1  0  0  0  0
  6  8  1  0  0  0  0
  6  9  1  0  0  0  0
  7 12  2  0  0  0  0
  7 13  1  0  0  0  0
  8 15  2  0  0  0  0
  8 16  1  0  0  0  0
 10 13  2  0  0  0  0
 10 14  1  0  0  0  0
 11 12  1  0  0  0  0
 11 14  2  0  0  0  0
 15 18  1  0  0  0  0
 16 19  2  0  0  0  0
 17 18  2  0  0  0  0
 17 19  1  0  0  0  0
 17 21  1  0  0  0  0
 20 24  1  0  0  0  0
M  END
> <PUBCHEM_COMPOUND_ID_TYPE>
0

> <PUBCHEM_TOTAL_CHARGE>
0

> <PUBCHEM_SUBSTANCE_ID>
310938354

> <PUBCHEM_SUBSTANCE_VERSION>
1

> <PUBCHEM_EXT_DATASOURCE_NAME>
4488

> <PUBCHEM_EXT_DATASOURCE_REGID>
SCHEMBL16116239

> <PUBCHEM_SUBSTANCE_COMMENT>
InChI=1S/C19H23NO4/c1-5-24-19(21)18(14-8-6-13(2)7-9-14)20-15-10-16(22-3)12-17(11-15)23-4/h6-12,18,20H,5H2,1-4H3
InChIKey=XTDOUTUKMRBUPN-UHFFFAOYSA-N

> <PUBCHEM_SUBSTANCE_SYNONYM>
SCHEMBL16116239

> <PUBCHEM_XREF_EXT_ID>
SCHEMBL16116239

> <PUBCHEM_EXT_DATASOURCE_URL>
https://www.surechembl.org/

> <PUBCHEM_EXT_SUBSTANCE_URL>
https://www.surechembl.org/chemical/SCHEMBL16116239

> <PUBCHEM_CID_ASSOCIATIONS>
117605839  1

> <PUBCHEM_COORDINATE_TYPE>
1
3

$$$$
