310938677
  -OEChem-07211613022D

 26 27  0     1  0  0  0  0  0999 V2000
   -3.9474    5.7179    0.0000 Cl  0  0  0  0  0  0  0  0  0  0  0  0
    0.3394    5.7179    0.0000 S   0  0  3  0  0  0  0  0  0  0  0  0
   -1.0896    3.2429    0.0000 O   0  0  0  0  0  0  0  0  0  0  0  0
    1.0537    2.0055    0.0000 O   0  0  0  0  0  0  0  0  0  0  0  0
   -0.3751    2.0055    0.0000 O   0  0  0  0  0  0  0  0  0  0  0  0
   -0.3751    6.1305    0.0000 O   0  0  0  0  0  0  0  0  0  0  0  0
   -6.2230    4.4041    0.0000 O   0  0  0  0  0  0  0  0  0  0  0  0
   -0.3751    4.4804    0.0000 N   0  0  0  0  0  0  0  0  0  0  0  0
    1.0537    4.4804    0.0000 N   0  0  0  0  0  0  0  0  0  0  0  0
    0.3394    3.2429    0.0000 C   0  0  0  0  0  0  0  0  0  0  0  0
   -0.3751    3.6554    0.0000 C   0  0  0  0  0  0  0  0  0  0  0  0
    0.3394    4.8929    0.0000 C   0  0  0  0  0  0  0  0  0  0  0  0
    0.3394    2.4181    0.0000 C   0  0  0  0  0  0  0  0  0  0  0  0
    1.0537    3.6554    0.0000 C   0  0  0  0  0  0  0  0  0  0  0  0
   -3.2329    3.6554    0.0000 C   0  0  0  0  0  0  0  0  0  0  0  0
   -1.8041    3.6554    0.0000 C   0  0  0  0  0  0  0  0  0  0  0  0
   -3.9474    4.8929    0.0000 C   0  0  0  0  0  0  0  0  0  0  0  0
   -4.6618    4.4804    0.0000 C   0  0  0  0  0  0  0  0  0  0  0  0
   -2.5185    3.2429    0.0000 C   0  0  0  0  0  0  0  0  0  0  0  0
   -3.2329    4.4804    0.0000 C   0  0  0  0  0  0  0  0  0  0  0  0
   -3.9474    3.2429    0.0000 C   0  0  0  0  0  0  0  0  0  0  0  0
   -4.6618    3.6554    0.0000 C   0  0  0  0  0  0  0  0  0  0  0  0
    1.0537    6.1305    0.0000 C   0  0  0  0  0  0  0  0  0  0  0  0
   -5.3764    4.8929    0.0000 C   0  0  0  0  0  0  0  0  0  0  0  0
    1.7682    2.4181    0.0000 C   0  0  0  0  0  0  0  0  0  0  0  0
    2.4827    2.0055    0.0000 C   0  0  0  0  0  0  0  0  0  0  0  0
  1 17  1  0  0  0  0
  2  6  2  0  0  0  0
  2 12  1  0  0  0  0
  2 23  1  0  0  0  0
  3 11  1  0  0  0  0
  3 16  1  0  0  0  0
  4 13  1  0  0  0  0
  4 25  1  0  0  0  0
  5 13  2  0  0  0  0
  7 24  1  0  0  0  0
  8 11  2  0  0  0  0
  8 12  1  0  0  0  0
  9 12  2  0  0  0  0
  9 14  1  0  0  0  0
 10 11  1  0  0  0  0
 10 13  1  0  0  0  0
 10 14  2  0  0  0  0
 15 19  1  0  0  0  0
 15 20  2  0  0  0  0
 15 21  1  0  0  0  0
 16 19  1  0  0  0  0
 17 18  2  0  0  0  0
 17 20  1  0  0  0  0
 18 22  1  0  0  0  0
 18 24  1  0  0  0  0
 21 22  2  0  0  0  0
 25 26  1  0  0  0  0
M  END
> <PUBCHEM_COMPOUND_ID_TYPE>
0

> <PUBCHEM_TOTAL_CHARGE>
0

> <PUBCHEM_SUBSTANCE_ID>
310938677

> <PUBCHEM_SUBSTANCE_VERSION>
1

> <PUBCHEM_EXT_DATASOURCE_NAME>
4488

> <PUBCHEM_EXT_DATASOURCE_REGID>
SCHEMBL16116591

> <PUBCHEM_SUBSTANCE_COMMENT>
InChI=1S/C17H19ClN2O5S/c1-3-24-16(22)13-9-19-17(26(2)23)20-15(13)25-7-6-11-4-5-12(10-21)14(18)8-11/h4-5,8-9,21H,3,6-7,10H2,1-2H3
InChIKey=SBLSQURLZOKKTO-UHFFFAOYSA-N

> <PUBCHEM_SUBSTANCE_SYNONYM>
SCHEMBL16116591

> <PUBCHEM_XREF_EXT_ID>
SCHEMBL16116591

> <PUBCHEM_EXT_DATASOURCE_URL>
https://www.surechembl.org/

> <PUBCHEM_EXT_SUBSTANCE_URL>
https://www.surechembl.org/chemical/SCHEMBL16116591

> <PUBCHEM_CID_ASSOCIATIONS>
117606109  1

> <PUBCHEM_COORDINATE_TYPE>
1
3

$$$$
