310930091
  -OEChem-07211613022D

 41 44  0     1  0  0  0  0  0999 V2000
    2.8050   -8.2500    0.0000 S   0  0  0  0  0  0  0  0  0  0  0  0
    2.8050   -7.4250    0.0000 O   0  0  0  0  0  0  0  0  0  0  0  0
    2.8050   -9.0750    0.0000 O   0  0  0  0  0  0  0  0  0  0  0  0
    3.6300   -8.2500    0.0000 O   0  0  0  0  0  0  0  0  0  0  0  0
    1.9800   -8.2500    0.0000 O   0  0  0  0  0  0  0  0  0  0  0  0
    4.2900   -5.7750    0.0000 N   0  0  3  0  0  0  0  0  0  0  0  0
    1.4025  -10.7250    0.0000 N   0  0  3  0  0  0  0  0  0  0  0  0
    4.2075   -2.4750    0.0000 N   0  0  0  0  0  0  0  0  0  0  0  0
    1.4025  -14.0250    0.0000 N   0  0  0  0  0  0  0  0  0  0  0  0
    3.5475   -2.0625    0.0000 N   0  0  0  0  0  0  0  0  0  0  0  0
    2.1450  -14.4375    0.0000 N   0  0  0  0  0  0  0  0  0  0  0  0
    4.2075   -0.8250    0.0000 N   0  0  0  0  0  0  0  0  0  0  0  0
    1.4850  -15.6750    0.0000 N   0  0  0  0  0  0  0  0  0  0  0  0
    2.8875   -0.8250    0.0000 N   0  0  0  0  0  0  0  0  0  0  0  0
    2.8050  -15.6750    0.0000 N   0  0  0  0  0  0  0  0  0  0  0  0
    3.8775    0.0000    0.0000 N   0  0  0  0  0  0  0  0  0  0  0  0
    1.7325  -16.5000    0.0000 N   0  0  0  0  0  0  0  0  0  0  0  0
    4.2900   -4.9500    0.0000 C   0  0  0  0  0  0  0  0  0  0  0  0
    1.4025  -11.5500    0.0000 C   0  0  0  0  0  0  0  0  0  0  0  0
    4.2075   -3.3000    0.0000 C   0  0  0  0  0  0  0  0  0  0  0  0
    1.4025  -13.2000    0.0000 C   0  0  0  0  0  0  0  0  0  0  0  0
    3.5475   -4.5375    0.0000 C   0  0  0  0  0  0  0  0  0  0  0  0
    2.1450  -11.9625    0.0000 C   0  0  0  0  0  0  0  0  0  0  0  0
    4.9500   -4.5375    0.0000 C   0  0  0  0  0  0  0  0  0  0  0  0
    0.7425  -11.9625    0.0000 C   0  0  0  0  0  0  0  0  0  0  0  0
    3.5475   -3.7125    0.0000 C   0  0  0  0  0  0  0  0  0  0  0  0
    2.1450  -12.7875    0.0000 C   0  0  0  0  0  0  0  0  0  0  0  0
    4.9500   -3.7125    0.0000 C   0  0  0  0  0  0  0  0  0  0  0  0
    0.7425  -12.7875    0.0000 C   0  0  0  0  0  0  0  0  0  0  0  0
    3.5475   -6.1875    0.0000 C   0  0  0  0  0  0  0  0  0  0  0  0
    2.1450  -10.3125    0.0000 C   0  0  0  0  0  0  0  0  0  0  0  0
    3.5475   -7.0125    0.0000 C   0  0  0  0  0  0  0  0  0  0  0  0
    2.1450   -9.4875    0.0000 C   0  0  0  0  0  0  0  0  0  0  0  0
    4.9500   -6.1875    0.0000 C   0  0  0  0  0  0  0  0  0  0  0  0
    0.7425  -10.3125    0.0000 C   0  0  0  0  0  0  0  0  0  0  0  0
    3.5475   -1.2375    0.0000 C   0  0  0  0  0  0  0  0  0  0  0  0
    2.1450  -15.2625    0.0000 C   0  0  0  0  0  0  0  0  0  0  0  0
    3.1350    0.0000    0.0000 C   0  0  0  0  0  0  0  0  0  0  0  0
    2.5575  -16.5000    0.0000 C   0  0  0  0  0  0  0  0  0  0  0  0
    5.6925   -5.7750    0.0000 C   0  0  0  0  0  0  0  0  0  0  0  0
    0.0000  -10.7250    0.0000 C   0  0  0  0  0  0  0  0  0  0  0  0
  1  2  1  0  0  0  0
  1  3  1  0  0  0  0
  1  4  2  0  0  0  0
  1  5  2  0  0  0  0
  2 32  1  0  0  0  0
  3 33  1  0  0  0  0
  6 18  1  0  0  0  0
  6 30  1  0  0  0  0
  6 34  1  0  0  0  0
  7 19  1  0  0  0  0
  7 31  1  0  0  0  0
  7 35  1  0  0  0  0
  8 10  2  0  0  0  0
  8 20  1  0  0  0  0
  9 11  2  0  0  0  0
  9 21  1  0  0  0  0
 10 36  1  0  0  0  0
 11 37  1  0  0  0  0
 12 16  1  0  0  0  0
 12 36  2  0  0  0  0
 13 17  1  0  0  0  0
 13 37  2  0  0  0  0
 14 36  1  0  0  0  0
 14 38  1  0  0  0  0
 15 37  1  0  0  0  0
 15 39  1  0  0  0  0
 16 38  2  0  0  0  0
 17 39  2  0  0  0  0
 18 22  2  0  0  0  0
 18 24  1  0  0  0  0
 19 23  2  0  0  0  0
 19 25  1  0  0  0  0
 20 26  2  0  0  0  0
 20 28  1  0  0  0  0
 21 27  2  0  0  0  0
 21 29  1  0  0  0  0
 22 26  1  0  0  0  0
 23 27  1  0  0  0  0
 24 28  2  0  0  0  0
 25 29  2  0  0  0  0
 30 32  1  0  0  0  0
 31 33  1  0  0  0  0
 34 40  1  0  0  0  0
 35 41  1  0  0  0  0
M  END
> <PUBCHEM_COMPOUND_ID_TYPE>
0

> <PUBCHEM_TOTAL_CHARGE>
0

> <PUBCHEM_SUBSTANCE_ID>
310930091

> <PUBCHEM_SUBSTANCE_VERSION>
1

> <PUBCHEM_EXT_DATASOURCE_NAME>
4488

> <PUBCHEM_EXT_DATASOURCE_REGID>
SCHEMBL16107335

> <PUBCHEM_SUBSTANCE_COMMENT>
InChI=1S/C24H30N12O4S/c1-3-35(21-9-5-19(6-10-21)29-33-23-25-17-27-31-23)13-15-39-41(37,38)40-16-14-36(4-2)22-11-7-20(8-12-22)30-34-24-26-18-28-32-24/h5-12,17-18H,3-4,13-16H2,1-2H3,(H,25,27,31)(H,26,28,32)/b33-29+,34-30+
InChIKey=ANVPXXDEVCRDDT-BNRZXNFUSA-N

> <PUBCHEM_SUBSTANCE_SYNONYM>
SCHEMBL16107335

> <PUBCHEM_XREF_EXT_ID>
SCHEMBL16107335

> <PUBCHEM_EXT_DATASOURCE_URL>
https://www.surechembl.org/

> <PUBCHEM_EXT_SUBSTANCE_URL>
https://www.surechembl.org/chemical/SCHEMBL16107335

> <PUBCHEM_CID_ASSOCIATIONS>
117599323  1

> <PUBCHEM_COORDINATE_TYPE>
1
3

$$$$
