310939563
  -OEChem-07211613022D

 38 40  0     1  0  0  0  0  0999 V2000
    2.1434   -4.1250    0.0000 F   0  0  0  0  0  0  0  0  0  0  0  0
    2.9684   -3.3000    0.0000 F   0  0  0  0  0  0  0  0  0  0  0  0
    1.3184   -3.3000    0.0000 F   0  0  0  0  0  0  0  0  0  0  0  0
   -1.4289    1.2375    0.0000 O   0  0  0  0  0  0  0  0  0  0  0  0
    2.8579    3.7125    0.0000 O   0  0  0  0  0  0  0  0  0  0  0  0
    5.0013    0.0000    0.0000 O   0  0  0  0  0  0  0  0  0  0  0  0
   -2.8579    0.4125    0.0000 O   0  0  0  0  0  0  0  0  0  0  0  0
    1.4289    0.4125    0.0000 N   0  0  0  0  0  0  0  0  0  0  0  0
    2.1434    1.6500    0.0000 N   0  0  0  0  0  0  0  0  0  0  0  0
    3.5724    1.6500    0.0000 N   0  0  0  0  0  0  0  0  0  0  0  0
    2.8579   -2.0625    0.0000 N   0  0  0  0  0  0  0  0  0  0  0  0
   -4.2868    1.2375    0.0000 N   0  0  0  0  0  0  0  0  0  0  0  0
    2.1434    0.0000    0.0000 C   0  0  0  0  0  0  0  0  0  0  0  0
    1.4289    1.2375    0.0000 C   0  0  0  0  0  0  0  0  0  0  0  0
    2.8579    1.2375    0.0000 C   0  0  0  0  0  0  0  0  0  0  0  0
    2.1434   -0.8250    0.0000 C   0  0  0  0  0  0  0  0  0  0  0  0
    2.8579    0.4125    0.0000 C   0  0  0  0  0  0  0  0  0  0  0  0
    0.7145    1.6500    0.0000 C   0  0  0  0  0  0  0  0  0  0  0  0
    2.1434   -2.4750    0.0000 C   0  0  0  0  0  0  0  0  0  0  0  0
    2.8579   -1.2375    0.0000 C   0  0  0  0  0  0  0  0  0  0  0  0
    1.4289   -1.2375    0.0000 C   0  0  0  0  0  0  0  0  0  0  0  0
    2.1434   -3.3000    0.0000 C   0  0  0  0  0  0  0  0  0  0  0  0
    0.0000    1.2375    0.0000 C   0  0  0  0  0  0  0  0  0  0  0  0
    1.4289   -2.0625    0.0000 C   0  0  0  0  0  0  0  0  0  0  0  0
    0.7145    2.4750    0.0000 C   0  0  0  0  0  0  0  0  0  0  0  0
   -0.7145    1.6500    0.0000 C   0  0  0  0  0  0  0  0  0  0  0  0
    4.2868    1.2375    0.0000 C   0  0  0  0  0  0  0  0  0  0  0  0
    3.5724    2.4750    0.0000 C   0  0  0  0  0  0  0  0  0  0  0  0
    0.0000    2.8875    0.0000 C   0  0  0  0  0  0  0  0  0  0  0  0
   -0.7145    2.4750    0.0000 C   0  0  0  0  0  0  0  0  0  0  0  0
    2.8579    2.8875    0.0000 C   0  0  0  0  0  0  0  0  0  0  0  0
    4.2868    0.4125    0.0000 C   0  0  0  0  0  0  0  0  0  0  0  0
   -2.1434    1.6500    0.0000 C   0  0  0  0  0  0  0  0  0  0  0  0
   -2.8579    1.2375    0.0000 C   0  0  3  0  0  0  0  0  0  0  0  0
   -3.5724    1.6500    0.0000 C   0  0  0  0  0  0  0  0  0  0  0  0
    2.1434    4.1250    0.0000 C   0  0  0  0  0  0  0  0  0  0  0  0
    5.0013   -0.8250    0.0000 C   0  0  0  0  0  0  0  0  0  0  0  0
   -5.0013    1.6500    0.0000 C   0  0  0  0  0  0  0  0  0  0  0  0
  1 22  1  0  0  0  0
  2 22  1  0  0  0  0
  3 22  1  0  0  0  0
  4 26  1  0  0  0  0
  4 33  1  0  0  0  0
  5 31  1  0  0  0  0
  5 36  1  0  0  0  0
  6 32  1  0  0  0  0
  6 37  1  0  0  0  0
  7 34  1  0  0  0  0
  8 13  1  0  0  0  0
  8 14  2  0  0  0  0
  9 14  1  0  0  0  0
  9 15  2  0  0  0  0
 10 15  1  0  0  0  0
 10 27  1  0  0  0  0
 10 28  1  0  0  0  0
 11 19  1  0  0  0  0
 11 20  2  0  0  0  0
 12 35  1  0  0  0  0
 12 38  1  0  0  0  0
 13 16  1  0  0  0  0
 13 17  2  0  0  0  0
 14 18  1  0  0  0  0
 15 17  1  0  0  0  0
 16 20  1  0  0  0  0
 16 21  2  0  0  0  0
 18 23  2  0  0  0  0
 18 25  1  0  0  0  0
 19 22  1  0  0  0  0
 19 24  2  0  0  0  0
 21 24  1  0  0  0  0
 23 26  1  0  0  0  0
 25 29  2  0  0  0  0
 26 30  2  0  0  0  0
 27 32  1  0  0  0  0
 28 31  1  0  0  0  0
 29 30  1  0  0  0  0
 33 34  1  0  0  0  0
 34 35  1  0  0  0  0
M  END
> <PUBCHEM_COMPOUND_ID_TYPE>
0

> <PUBCHEM_TOTAL_CHARGE>
0

> <PUBCHEM_SUBSTANCE_ID>
310939563

> <PUBCHEM_SUBSTANCE_VERSION>
1

> <PUBCHEM_EXT_DATASOURCE_NAME>
4488

> <PUBCHEM_EXT_DATASOURCE_REGID>
SCHEMBL16117492

> <PUBCHEM_SUBSTANCE_COMMENT>
InChI=1S/C26H32F3N5O4/c1-30-16-20(35)17-38-21-6-4-5-18(13-21)25-32-22(19-7-8-23(31-15-19)26(27,28)29)14-24(33-25)34(9-11-36-2)10-12-37-3/h4-8,13-15,20,30,35H,9-12,16-17H2,1-3H3
InChIKey=FALCGMZTPGBUEF-UHFFFAOYSA-N

> <PUBCHEM_SUBSTANCE_SYNONYM>
SCHEMBL16117492

> <PUBCHEM_XREF_EXT_ID>
SCHEMBL16117492

> <PUBCHEM_EXT_DATASOURCE_URL>
https://www.surechembl.org/

> <PUBCHEM_EXT_SUBSTANCE_URL>
https://www.surechembl.org/chemical/SCHEMBL16117492

> <PUBCHEM_CID_ASSOCIATIONS>
85472932  1

> <PUBCHEM_COORDINATE_TYPE>
1
3

$$$$
