310941051
  -OEChem-07211613022D

 17 18  0     1  0  0  0  0  0999 V2000
    2.5572   -0.3663    0.0000 O   0  0  0  0  0  0  0  0  0  0  0  0
    1.4237   -2.3290    0.0000 O   0  0  0  0  0  0  0  0  0  0  0  0
    0.0000   -1.4859    0.0000 N   0  0  0  0  0  0  0  0  0  0  0  0
   -2.8751    2.3290    0.0000 N   0  0  0  0  0  0  0  0  0  0  0  0
    2.1286   -1.0297    0.0000 C   0  0  3  0  0  0  0  0  0  0  0  0
    1.4376   -1.4445    0.0000 C   0  0  0  0  0  0  0  0  0  0  0  0
    1.7555   -0.3386    0.0000 C   0  0  0  0  0  0  0  0  0  0  0  0
    0.7049   -1.0436    0.0000 C   0  0  3  0  0  0  0  0  0  0  0  0
    2.8751   -1.4721    0.0000 C   0  0  0  0  0  0  0  0  0  0  0  0
    0.7049    0.2695    0.0000 C   0  0  0  0  0  0  0  0  0  0  0  0
    0.0000    0.6980    0.0000 C   0  0  0  0  0  0  0  0  0  0  0  0
   -0.7187    0.2834    0.0000 C   0  0  0  0  0  0  0  0  0  0  0  0
    0.0000    1.5136    0.0000 C   0  0  0  0  0  0  0  0  0  0  0  0
   -1.4237    1.5413    0.0000 C   0  0  0  0  0  0  0  0  0  0  0  0
   -1.4237    0.6980    0.0000 C   0  0  0  0  0  0  0  0  0  0  0  0
   -0.7325    1.9283    0.0000 C   0  0  0  0  0  0  0  0  0  0  0  0
   -2.1424    1.9283    0.0000 C   0  0  0  0  0  0  0  0  0  0  0  0
  1  5  1  0  0  0  0
  1  7  1  0  0  0  0
  2  6  2  0  0  0  0
  3  8  1  0  0  0  0
  4 17  3  0  0  0  0
  5  6  1  0  0  0  0
  5  7  1  0  0  0  0
  5  9  1  0  0  0  0
  6  8  1  0  0  0  0
  8 10  1  0  0  0  0
 10 11  1  0  0  0  0
 11 12  2  0  0  0  0
 11 13  1  0  0  0  0
 12 15  1  0  0  0  0
 13 16  2  0  0  0  0
 14 15  2  0  0  0  0
 14 16  1  0  0  0  0
 14 17  1  0  0  0  0
M  END
> <PUBCHEM_COMPOUND_ID_TYPE>
0

> <PUBCHEM_TOTAL_CHARGE>
0

> <PUBCHEM_SUBSTANCE_ID>
310941051

> <PUBCHEM_SUBSTANCE_VERSION>
1

> <PUBCHEM_EXT_DATASOURCE_NAME>
4488

> <PUBCHEM_EXT_DATASOURCE_REGID>
SCHEMBL16119010

> <PUBCHEM_SUBSTANCE_COMMENT>
InChI=1S/C13H14N2O2/c1-13(8-17-13)12(16)11(15)6-9-2-4-10(7-14)5-3-9/h2-5,11H,6,8,15H2,1H3
InChIKey=UZQOSJQFJJFRFF-UHFFFAOYSA-N

> <PUBCHEM_SUBSTANCE_SYNONYM>
SCHEMBL16119010

> <PUBCHEM_XREF_EXT_ID>
SCHEMBL16119010

> <PUBCHEM_EXT_DATASOURCE_URL>
https://www.surechembl.org/

> <PUBCHEM_EXT_SUBSTANCE_URL>
https://www.surechembl.org/chemical/SCHEMBL16119010

> <PUBCHEM_CID_ASSOCIATIONS>
117607943  1

> <PUBCHEM_COORDINATE_TYPE>
1
3

$$$$
