310940796
  -OEChem-07211613022D

 41 44  0     1  0  0  0  0  0999 V2000
    5.2118   -1.0064    0.0000 O   0  0  0  0  0  0  0  0  0  0  0  0
    4.0761    0.9634    0.0000 O   0  0  0  0  0  0  0  0  0  0  0  0
    1.7037   -0.9921    0.0000 O   0  0  0  0  0  0  0  0  0  0  0  0
   -0.4672    1.0784    0.0000 O   0  0  0  0  0  0  0  0  0  0  0  0
    3.8604    2.7461    0.0000 O   0  0  0  0  0  0  0  0  0  0  0  0
   -2.6383   -0.9921    0.0000 O   0  0  0  0  0  0  0  0  0  0  0  0
   -5.5139   -0.9921    0.0000 O   0  0  0  0  0  0  0  0  0  0  0  0
    2.4227    0.2444    0.0000 N   0  0  0  0  0  0  0  0  0  0  0  0
    0.2516   -0.1725    0.0000 N   0  0  0  0  0  0  0  0  0  0  0  0
   -1.9051    0.2444    0.0000 N   0  0  0  0  0  0  0  0  0  0  0  0
   -4.0761   -0.1725    0.0000 N   0  0  0  0  0  0  0  0  0  0  0  0
    4.8094   -0.2732    0.0000 C   0  0  3  0  0  0  0  0  0  0  0  0
    4.0761    0.1294    0.0000 C   0  0  0  0  0  0  0  0  0  0  0  0
    4.4068   -0.9778    0.0000 C   0  0  0  0  0  0  0  0  0  0  0  0
    3.3715   -0.2588    0.0000 C   0  0  3  0  0  0  0  0  0  0  0  0
    5.5139    0.1582    0.0000 C   0  0  0  0  0  0  0  0  0  0  0  0
    3.3572   -1.3371    0.0000 C   0  0  0  0  0  0  0  0  0  0  0  0
    1.7037   -0.1150    0.0000 C   0  0  0  0  0  0  0  0  0  0  0  0
    0.9706    0.2732    0.0000 C   0  0  3  0  0  0  0  0  0  0  0  0
    2.6383   -1.7541    0.0000 C   0  0  0  0  0  0  0  0  0  0  0  0
    0.9992    1.1215    0.0000 C   0  0  0  0  0  0  0  0  0  0  0  0
    1.7037    1.5240    0.0000 C   0  0  0  0  0  0  0  0  0  0  0  0
   -0.4672    0.2588    0.0000 C   0  0  0  0  0  0  0  0  0  0  0  0
    1.8763   -1.4378    0.0000 C   0  0  0  0  0  0  0  0  0  0  0  0
    2.5377   -2.5880    0.0000 C   0  0  0  0  0  0  0  0  0  0  0  0
   -1.1718   -0.1294    0.0000 C   0  0  3  0  0  0  0  0  0  0  0  0
    1.3300   -2.0416    0.0000 C   0  0  0  0  0  0  0  0  0  0  0  0
    1.7325   -2.7461    0.0000 C   0  0  0  0  0  0  0  0  0  0  0  0
    2.4227    1.1215    0.0000 C   0  0  0  0  0  0  0  0  0  0  0  0
    1.7181    2.3580    0.0000 C   0  0  0  0  0  0  0  0  0  0  0  0
    3.1415    2.3580    0.0000 C   0  0  0  0  0  0  0  0  0  0  0  0
    3.1415    1.5240    0.0000 C   0  0  0  0  0  0  0  0  0  0  0  0
    2.4227    2.7461    0.0000 C   0  0  0  0  0  0  0  0  0  0  0  0
   -2.6239   -0.1150    0.0000 C   0  0  0  0  0  0  0  0  0  0  0  0
   -3.3572    0.2732    0.0000 C   0  0  0  0  0  0  0  0  0  0  0  0
   -1.1862   -0.9778    0.0000 C   0  0  0  0  0  0  0  0  0  0  0  0
   -4.0761   -0.9634    0.0000 C   0  0  0  0  0  0  0  0  0  0  0  0
   -4.8094    0.2732    0.0000 C   0  0  0  0  0  0  0  0  0  0  0  0
   -4.7806   -1.3803    0.0000 C   0  0  0  0  0  0  0  0  0  0  0  0
   -5.4995   -0.1294    0.0000 C   0  0  0  0  0  0  0  0  0  0  0  0
    4.6080    2.3292    0.0000 C   0  0  0  0  0  0  0  0  0  0  0  0
  1 12  1  0  0  0  0
  1 14  1  0  0  0  0
  2 13  2  0  0  0  0
  3 18  2  0  0  0  0
  4 23  2  0  0  0  0
  5 31  1  0  0  0  0
  5 41  1  0  0  0  0
  6 34  2  0  0  0  0
  7 39  1  0  0  0  0
  7 40  1  0  0  0  0
  8 15  1  0  0  0  0
  8 18  1  0  0  0  0
  9 19  1  0  0  0  0
  9 23  1  0  0  0  0
 10 26  1  0  0  0  0
 10 34  1  0  0  0  0
 11 35  1  0  0  0  0
 11 37  1  0  0  0  0
 11 38  1  0  0  0  0
 12 13  1  0  0  0  0
 12 14  1  0  0  0  0
 12 16  1  0  0  0  0
 13 15  1  0  0  0  0
 15 17  1  0  0  0  0
 17 20  1  0  0  0  0
 18 19  1  0  0  0  0
 19 21  1  0  0  0  0
 20 24  2  0  0  0  0
 20 25  1  0  0  0  0
 21 22  1  0  0  0  0
 22 29  2  0  0  0  0
 22 30  1  0  0  0  0
 23 26  1  0  0  0  0
 24 27  1  0  0  0  0
 25 28  1  0  0  0  0
 26 36  1  0  0  0  0
 27 28  1  0  0  0  0
 29 32  1  0  0  0  0
 30 33  2  0  0  0  0
 31 32  2  0  0  0  0
 31 33  1  0  0  0  0
 34 35  1  0  0  0  0
 37 39  1  0  0  0  0
 38 40  1  0  0  0  0
M  END
> <PUBCHEM_COMPOUND_ID_TYPE>
0

> <PUBCHEM_TOTAL_CHARGE>
0

> <PUBCHEM_SUBSTANCE_ID>
310940796

> <PUBCHEM_SUBSTANCE_VERSION>
1

> <PUBCHEM_EXT_DATASOURCE_NAME>
4488

> <PUBCHEM_EXT_DATASOURCE_REGID>
SCHEMBL16118755

> <PUBCHEM_SUBSTANCE_COMMENT>
InChI=1S/C30H42N4O7/c1-20(31-26(35)18-34-12-14-40-15-13-34)28(37)33-25(17-22-8-10-23(39-3)11-9-22)29(38)32-24(16-21-6-4-5-7-21)27(36)30(2)19-41-30/h6,8-11,20,24-25H,4-5,7,12-19H2,1-3H3,(H,31,35)(H,32,38)(H,33,37)
InChIKey=CLZRGXQPCQFFTL-UHFFFAOYSA-N

> <PUBCHEM_SUBSTANCE_SYNONYM>
SCHEMBL16118755

> <PUBCHEM_XREF_EXT_ID>
SCHEMBL16118755

> <PUBCHEM_EXT_DATASOURCE_URL>
https://www.surechembl.org/

> <PUBCHEM_EXT_SUBSTANCE_URL>
https://www.surechembl.org/chemical/SCHEMBL16118755

> <PUBCHEM_CID_ASSOCIATIONS>
117607739  1

> <PUBCHEM_COORDINATE_TYPE>
1
3

$$$$
