310949366
  -OEChem-07211613022D

 27 28  0     1  0  0  0  0  0999 V2000
    3.0098   -1.0116    0.0000 Cl  0  0  0  0  0  0  0  0  0  0  0  0
   -0.1303    1.1233    0.0000 F   0  0  0  0  0  0  0  0  0  0  0  0
    0.0807    1.9176    0.0000 F   0  0  0  0  0  0  0  0  0  0  0  0
    0.8875    2.1410    0.0000 F   0  0  0  0  0  0  0  0  0  0  0  0
    2.2528    1.7562    0.0000 O   0  0  0  0  0  0  0  0  0  0  0  0
    1.9052   -2.1038    0.0000 N   0  0  0  0  0  0  0  0  0  0  0  0
    1.5452   -2.7740    0.0000 N   0  0  0  0  0  0  0  0  0  0  0  0
   -0.8005   -1.6818    0.0000 N   0  0  3  0  0  0  0  0  0  0  0  0
   -2.9602   -1.2722    0.0000 N   0  0  0  0  0  0  0  0  0  0  0  0
    1.6322   -0.6268    0.0000 C   0  0  0  0  0  0  0  0  0  0  0  0
    1.2473    0.7509    0.0000 C   0  0  0  0  0  0  0  0  0  0  0  0
    1.3963   -1.4211    0.0000 C   0  0  0  0  0  0  0  0  0  0  0  0
    2.0417    0.9619    0.0000 C   0  0  0  0  0  0  0  0  0  0  0  0
    2.4141   -0.4033    0.0000 C   0  0  0  0  0  0  0  0  0  0  0  0
    1.0612   -0.0559    0.0000 C   0  0  0  0  0  0  0  0  0  0  0  0
    0.6516    1.3467    0.0000 C   0  0  0  0  0  0  0  0  0  0  0  0
    0.6392   -1.6818    0.0000 C   0  0  0  0  0  0  0  0  0  0  0  0
    2.6375    0.3786    0.0000 C   0  0  0  0  0  0  0  0  0  0  0  0
    0.6268   -2.5134    0.0000 C   0  0  0  0  0  0  0  0  0  0  0  0
   -0.0931   -1.2722    0.0000 C   0  0  0  0  0  0  0  0  0  0  0  0
    3.0719    1.9796    0.0000 C   0  0  0  0  0  0  0  0  0  0  0  0
   -1.5205   -1.2722    0.0000 C   0  0  0  0  0  0  0  0  0  0  0  0
    3.2829    2.7740    0.0000 C   0  0  0  0  0  0  0  0  0  0  0  0
    3.6553    1.3963    0.0000 C   0  0  0  0  0  0  0  0  0  0  0  0
   -0.8005   -2.5134    0.0000 C   0  0  0  0  0  0  0  0  0  0  0  0
   -2.2279   -1.6818    0.0000 C   0  0  0  0  0  0  0  0  0  0  0  0
   -3.6553   -1.6942    0.0000 C   0  0  0  0  0  0  0  0  0  0  0  0
  1 14  1  0  0  0  0
  2 16  1  0  0  0  0
  3 16  1  0  0  0  0
  4 16  1  0  0  0  0
  5 13  1  0  0  0  0
  5 21  1  0  0  0  0
  6  7  1  0  0  0  0
  6 12  2  0  0  0  0
  7 19  1  0  0  0  0
  8 20  1  0  0  0  0
  8 22  1  0  0  0  0
  8 25  1  0  0  0  0
  9 26  1  0  0  0  0
  9 27  1  0  0  0  0
 10 12  1  0  0  0  0
 10 14  1  0  0  0  0
 10 15  2  0  0  0  0
 11 13  2  0  0  0  0
 11 15  1  0  0  0  0
 11 16  1  0  0  0  0
 12 17  1  0  0  0  0
 13 18  1  0  0  0  0
 14 18  2  0  0  0  0
 17 19  2  0  0  0  0
 17 20  1  0  0  0  0
 21 23  1  0  0  0  0
 21 24  1  0  0  0  0
 22 26  1  0  0  0  0
M  END
> <PUBCHEM_COMPOUND_ID_TYPE>
0

> <PUBCHEM_TOTAL_CHARGE>
0

> <PUBCHEM_SUBSTANCE_ID>
310949366

> <PUBCHEM_SUBSTANCE_VERSION>
1

> <PUBCHEM_EXT_DATASOURCE_NAME>
4488

> <PUBCHEM_EXT_DATASOURCE_REGID>
SCHEMBL16127558

> <PUBCHEM_SUBSTANCE_COMMENT>
InChI=1S/C18H24ClF3N4O/c1-11(2)27-16-8-15(19)13(7-14(16)18(20,21)22)17-12(9-24-25-17)10-26(4)6-5-23-3/h7-9,11,23H,5-6,10H2,1-4H3,(H,24,25)
InChIKey=FWMVEZOIBPPMOJ-UHFFFAOYSA-N

> <PUBCHEM_SUBSTANCE_SYNONYM>
SCHEMBL16127558

> <PUBCHEM_XREF_EXT_ID>
SCHEMBL16127558

> <PUBCHEM_EXT_DATASOURCE_URL>
https://www.surechembl.org/

> <PUBCHEM_EXT_SUBSTANCE_URL>
https://www.surechembl.org/chemical/SCHEMBL16127558

> <PUBCHEM_CID_ASSOCIATIONS>
117614829  1

> <PUBCHEM_COORDINATE_TYPE>
1
3

$$$$
