310945395
  -OEChem-07211613022D

 33 37  0     1  0  0  0  0  0999 V2000
    4.8168    1.0345    0.0000 O   0  0  0  0  0  0  0  0  0  0  0  0
    0.0474   -1.2240    0.0000 O   0  0  0  0  0  0  0  0  0  0  0  0
   -4.2957    0.5132    0.0000 O   0  0  0  0  0  0  0  0  0  0  0  0
   -3.8377    1.9189    0.0000 O   0  0  0  0  0  0  0  0  0  0  0  0
    3.0165   -0.2132    0.0000 N   0  0  0  0  0  0  0  0  0  0  0  0
    4.6747   -0.3869    0.0000 N   0  0  0  0  0  0  0  0  0  0  0  0
   -0.6633    0.0395    0.0000 N   0  0  0  0  0  0  0  0  0  0  0  0
   -2.1794    0.8607    0.0000 N   0  0  0  0  0  0  0  0  0  0  0  0
    3.3323   -0.9871    0.0000 C   0  0  0  0  0  0  0  0  0  0  0  0
    2.2110    0.0553    0.0000 C   0  0  0  0  0  0  0  0  0  0  0  0
    3.4903    0.4501    0.0000 C   0  0  0  0  0  0  0  0  0  0  0  0
    2.2110    0.8607    0.0000 C   0  0  0  0  0  0  0  0  0  0  0  0
    3.0165    1.1134    0.0000 C   0  0  0  0  0  0  0  0  0  0  0  0
    4.3115    0.3396    0.0000 C   0  0  0  0  0  0  0  0  0  0  0  0
    4.1693   -1.0818    0.0000 C   0  0  0  0  0  0  0  0  0  0  0  0
    2.5427   -1.1292    0.0000 C   0  0  0  0  0  0  0  0  0  0  0  0
    3.4587   -1.8083    0.0000 C   0  0  0  0  0  0  0  0  0  0  0  0
    1.5003   -0.3712    0.0000 C   0  0  0  0  0  0  0  0  0  0  0  0
    2.6532   -1.9189    0.0000 C   0  0  0  0  0  0  0  0  0  0  0  0
    0.7738    0.0395    0.0000 C   0  0  0  0  0  0  0  0  0  0  0  0
    1.5003    1.2713    0.0000 C   0  0  0  0  0  0  0  0  0  0  0  0
    0.7896    0.8607    0.0000 C   0  0  0  0  0  0  0  0  0  0  0  0
    0.0474   -0.3554    0.0000 C   0  0  0  0  0  0  0  0  0  0  0  0
   -1.3897   -0.3712    0.0000 C   0  0  3  0  0  0  0  0  0  0  0  0
   -2.1163    0.0237    0.0000 C   0  0  3  0  0  0  0  0  0  0  0  0
   -1.5635   -1.1924    0.0000 C   0  0  0  0  0  0  0  0  0  0  0  0
   -2.7006   -0.5448    0.0000 C   0  0  0  0  0  0  0  0  0  0  0  0
   -2.3847   -1.2713    0.0000 C   0  0  0  0  0  0  0  0  0  0  0  0
   -3.6482    1.1292    0.0000 C   0  0  0  0  0  0  0  0  0  0  0  0
   -4.0746   -0.3396    0.0000 C   0  0  0  0  0  0  0  0  0  0  0  0
   -4.8168   -0.5764    0.0000 C   0  0  0  0  0  0  0  0  0  0  0  0
   -3.3165   -0.1343    0.0000 C   0  0  0  0  0  0  0  0  0  0  0  0
   -3.8535   -1.1608    0.0000 C   0  0  0  0  0  0  0  0  0  0  0  0
  1 14  2  0  0  0  0
  2 23  2  0  0  0  0
  3 29  1  0  0  0  0
  3 30  1  0  0  0  0
  4 29  2  0  0  0  0
  5  9  1  0  0  0  0
  5 10  1  0  0  0  0
  5 11  1  0  0  0  0
  6 14  1  0  0  0  0
  6 15  1  0  0  0  0
  7 23  1  0  0  0  0
  7 24  1  0  0  0  0
  8 25  1  0  0  0  0
  8 29  1  0  0  0  0
  9 15  1  0  0  0  0
  9 16  1  0  0  0  0
  9 17  1  0  0  0  0
 10 12  1  0  0  0  0
 10 18  2  0  0  0  0
 11 13  2  0  0  0  0
 11 14  1  0  0  0  0
 12 13  1  0  0  0  0
 12 21  2  0  0  0  0
 16 19  1  0  0  0  0
 17 19  1  0  0  0  0
 18 20  1  0  0  0  0
 20 22  2  0  0  0  0
 20 23  1  0  0  0  0
 21 22  1  0  0  0  0
 24 25  1  0  0  0  0
 24 26  1  0  0  0  0
 25 27  1  0  0  0  0
 26 28  1  0  0  0  0
 27 28  1  0  0  0  0
 30 31  1  0  0  0  0
 30 32  1  0  0  0  0
 30 33  1  0  0  0  0
M  END
> <PUBCHEM_COMPOUND_ID_TYPE>
0

> <PUBCHEM_TOTAL_CHARGE>
0

> <PUBCHEM_SUBSTANCE_ID>
310945395

> <PUBCHEM_SUBSTANCE_VERSION>
1

> <PUBCHEM_EXT_DATASOURCE_NAME>
4488

> <PUBCHEM_EXT_DATASOURCE_REGID>
SCHEMBL16123493

> <PUBCHEM_SUBSTANCE_COMMENT>
InChI=1S/C25H32N4O4/c1-24(2,3)33-23(32)28-18-7-4-6-17(18)27-21(30)16-9-8-15-12-20-22(31)26-14-25(10-5-11-25)29(20)19(15)13-16/h8-9,12-13,17-18H,4-7,10-11,14H2,1-3H3,(H,26,31)(H,27,30)(H,28,32)
InChIKey=MTTUOOYZPGGSCC-UHFFFAOYSA-N

> <PUBCHEM_SUBSTANCE_SYNONYM>
SCHEMBL16123493

> <PUBCHEM_XREF_EXT_ID>
SCHEMBL16123493

> <PUBCHEM_EXT_DATASOURCE_URL>
https://www.surechembl.org/

> <PUBCHEM_EXT_SUBSTANCE_URL>
https://www.surechembl.org/chemical/SCHEMBL16123493

> <PUBCHEM_CID_ASSOCIATIONS>
117611443  1

> <PUBCHEM_COORDINATE_TYPE>
1
3

$$$$
