310929533
  -OEChem-07211613022D

 69 76  0     1  0  0  0  0  0999 V2000
   -0.2152   -4.7543    0.0000 S   0  0  0  0  0  0  0  0  0  0  0  0
   -0.1242   -3.1068    0.0000 O   0  0  0  0  0  0  0  0  0  0  0  0
    0.0873   -2.8315    0.0000 O   0  0  0  0  0  0  0  0  0  0  0  0
   -0.0231    0.8224    0.0000 O   0  0  0  0  0  0  0  0  0  0  0  0
    4.0485   -1.3457    0.0000 O   0  0  0  0  0  0  0  0  0  0  0  0
   -0.6664   -5.4449    0.0000 O   0  0  0  0  0  0  0  0  0  0  0  0
    0.2361   -4.0636    0.0000 O   0  0  0  0  0  0  0  0  0  0  0  0
    1.4541   -2.4563    0.0000 O   0  0  0  0  0  0  0  0  0  0  0  0
    3.5670   -0.3627    0.0000 O   0  0  0  0  0  0  0  0  0  0  0  0
    2.8345    0.8642    0.0000 O   0  0  0  0  0  0  0  0  0  0  0  0
    4.3116   -2.4145    0.0000 O   0  0  0  0  0  0  0  0  0  0  0  0
   -1.2265   -2.2695    0.0000 N   0  0  0  0  0  0  0  0  0  0  0  0
    0.7215   -1.2294    0.0000 N   0  0  0  0  0  0  0  0  0  0  0  0
   -0.9058   -4.3030    0.0000 N   0  0  0  0  0  0  0  0  0  0  0  0
    2.6197   -1.3666    0.0000 N   0  0  0  0  0  0  0  0  0  0  0  0
    0.6732    2.0702    0.0000 N   0  0  0  0  0  0  0  0  0  0  0  0
    2.8708   -1.6105    0.0000 N   0  0  0  0  0  0  0  0  0  0  0  0
   -1.5509   -3.0280    0.0000 C   0  0  3  0  0  0  0  0  0  0  0  0
   -2.3543   -2.8402    0.0000 C   0  0  3  0  0  0  0  0  0  0  0  0
   -2.1153   -3.6298    0.0000 C   0  0  0  0  0  0  0  0  0  0  0  0
   -0.8603   -3.4793    0.0000 C   0  0  0  0  0  0  0  0  0  0  0  0
   -0.0828   -1.4127    0.0000 C   0  0  3  0  0  0  0  0  0  0  0  0
   -0.4073   -2.1713    0.0000 C   0  0  0  0  0  0  0  0  0  0  0  0
   -2.9561   -2.2758    0.0000 C   0  0  0  0  0  0  0  0  0  0  0  0
   -0.0110   -0.0025    0.0000 C   0  0  3  0  0  0  0  0  0  0  0  0
   -0.5058   -0.7044    0.0000 C   0  0  0  0  0  0  0  0  0  0  0  0
    1.4420   -1.6314    0.0000 C   0  0  0  0  0  0  0  0  0  0  0  0
    0.4755   -5.2056    0.0000 C   0  0  0  0  0  0  0  0  0  0  0  0
    0.7095   -0.4045    0.0000 C   0  0  0  0  0  0  0  0  0  0  0  0
    2.3942   -0.9574    0.0000 C   0  0  3  0  0  0  0  0  0  0  0  0
    5.0079   -1.1667    0.0000 C   0  0  3  0  0  0  0  0  0  0  0  0
    4.9958   -0.3417    0.0000 C   0  0  3  0  0  0  0  0  0  0  0  0
    5.7163   -0.7437    0.0000 C   0  0  0  0  0  0  0  0  0  0  0  0
    2.1624   -2.0334    0.0000 C   0  0  0  0  0  0  0  0  0  0  0  0
    0.1510   -5.9641    0.0000 C   0  0  0  0  0  0  0  0  0  0  0  0
    0.9701   -5.8658    0.0000 C   0  0  0  0  0  0  0  0  0  0  0  0
   -3.7457   -2.5148    0.0000 C   0  0  0  0  0  0  0  0  0  0  0  0
    3.3280   -0.9437    0.0000 C   0  0  0  0  0  0  0  0  0  0  0  0
    0.6853    1.2453    0.0000 C   0  0  0  0  0  0  0  0  0  0  0  0
    4.2754    0.0602    0.0000 C   0  0  0  0  0  0  0  0  0  0  0  0
    1.0398   -4.6038    0.0000 C   0  0  0  0  0  0  0  0  0  0  0  0
    1.4057    0.8433    0.0000 C   0  0  0  0  0  0  0  0  0  0  0  0
    2.1141    1.2662    0.0000 C   0  0  0  0  0  0  0  0  0  0  0  0
    2.1745   -2.8583    0.0000 C   0  0  0  0  0  0  0  0  0  0  0  0
    2.9873   -2.0213    0.0000 C   0  0  0  0  0  0  0  0  0  0  0  0
    1.3375   -2.0455    0.0000 C   0  0  0  0  0  0  0  0  0  0  0  0
    4.2633    0.8852    0.0000 C   0  0  0  0  0  0  0  0  0  0  0  0
    1.3816    2.4931    0.0000 C   0  0  0  0  0  0  0  0  0  0  0  0
    2.1020    2.0911    0.0000 C   0  0  0  0  0  0  0  0  0  0  0  0
    1.8630    1.5101    0.0000 C   0  0  0  0  0  0  0  0  0  0  0  0
    3.5429    1.2872    0.0000 C   0  0  0  0  0  0  0  0  0  0  0  0
    2.5834    1.1081    0.0000 C   0  0  0  0  0  0  0  0  0  0  0  0
    1.3695    3.3181    0.0000 C   0  0  0  0  0  0  0  0  0  0  0  0
    2.8104    2.5141    0.0000 C   0  0  0  0  0  0  0  0  0  0  0  0
    2.0779    3.7410    0.0000 C   0  0  0  0  0  0  0  0  0  0  0  0
    2.7983    3.3390    0.0000 C   0  0  0  0  0  0  0  0  0  0  0  0
    2.8466    0.0393    0.0000 C   0  0  0  0  0  0  0  0  0  0  0  0
    2.1382   -0.3836    0.0000 C   0  0  0  0  0  0  0  0  0  0  0  0
    2.1503   -1.2085    0.0000 C   0  0  0  0  0  0  0  0  0  0  0  0
    2.8828   -2.4354    0.0000 C   0  0  0  0  0  0  0  0  0  0  0  0
    3.5791   -1.1876    0.0000 C   0  0  0  0  0  0  0  0  0  0  0  0
    3.6033   -2.8374    0.0000 C   0  0  0  0  0  0  0  0  0  0  0  0
    4.2996   -1.5896    0.0000 C   0  0  0  0  0  0  0  0  0  0  0  0
   -1.9649   -2.1128    0.0000 H   0  0  0  0  0  0  0  0  0  0  0  0
   -0.9060   -1.4680    0.0000 H   0  0  0  0  0  0  0  0  0  0  0  0
   -0.7992    0.2410    0.0000 H   0  0  0  0  0  0  0  0  0  0  0  0
    5.2996   -1.9384    0.0000 H   0  0  0  0  0  0  0  0  0  0  0  0
    1.9397   -1.6459    0.0000 H   0  0  0  0  0  0  0  0  0  0  0  0
    5.3978    0.3787    0.0000 H   0  0  0  0  0  0  0  0  0  0  0  0
  1  6  2  0  0  0  0
  1  7  2  0  0  0  0
  1 14  1  0  0  0  0
  1 28  1  0  0  0  0
  2 21  2  0  0  0  0
  3 23  2  0  0  0  0
  4 25  1  0  0  0  0
  4 39  1  0  0  0  0
  5 31  1  0  0  0  0
  5 38  1  0  0  0  0
  8 27  2  0  0  0  0
  9 38  2  0  0  0  0
 10 43  1  0  0  0  0
 10 57  1  0  0  0  0
 11 62  1  0  0  0  0
 11 63  1  0  0  0  0
 18 12  1  6  0  0  0
 12 23  1  0  0  0  0
 13 22  1  0  0  0  0
 13 27  1  0  0  0  0
 13 29  1  0  0  0  0
 14 21  1  0  0  0  0
 15 30  1  0  0  0  0
 15 38  1  0  0  0  0
 16 39  2  0  0  0  0
 16 48  1  0  0  0  0
 17 59  1  0  0  0  0
 17 60  1  0  0  0  0
 17 61  1  0  0  0  0
 18 19  1  0  0  0  0
 18 20  1  0  0  0  0
 18 21  1  1  0  0  0
 19 20  1  0  0  0  0
 19 24  1  0  0  0  0
 19 64  1  6  0  0  0
 22 23  1  0  0  0  0
 22 26  1  0  0  0  0
 22 65  1  1  0  0  0
 24 37  2  0  0  0  0
 25 26  1  0  0  0  0
 25 29  1  0  0  0  0
 25 66  1  6  0  0  0
 27 30  1  0  0  0  0
 28 35  1  0  0  0  0
 28 36  1  0  0  0  0
 28 41  1  0  0  0  0
 30 34  1  0  0  0  0
 30 68  1  6  0  0  0
 31 32  1  0  0  0  0
 31 33  1  0  0  0  0
 31 67  1  6  0  0  0
 32 33  1  0  0  0  0
 32 40  1  0  0  0  0
 32 69  1  1  0  0  0
 34 44  1  0  0  0  0
 34 45  1  0  0  0  0
 34 46  1  0  0  0  0
 35 36  1  0  0  0  0
 39 42  1  0  0  0  0
 40 47  1  0  0  0  0
 42 43  2  0  0  0  0
 42 50  1  0  0  0  0
 43 49  1  0  0  0  0
 47 51  1  0  0  0  0
 48 49  2  0  0  0  0
 48 53  1  0  0  0  0
 49 54  1  0  0  0  0
 50 52  1  0  0  0  0
 51 52  1  0  0  0  0
 53 55  2  0  0  0  0
 54 56  2  0  0  0  0
 55 56  1  0  0  0  0
 57 58  1  0  0  0  0
 58 59  1  0  0  0  0
 60 62  1  0  0  0  0
 61 63  1  0  0  0  0
M  END
> <PUBCHEM_COMPOUND_ID_TYPE>
0

> <PUBCHEM_TOTAL_CHARGE>
0

> <PUBCHEM_SUBSTANCE_ID>
310929533

> <PUBCHEM_SUBSTANCE_VERSION>
1

> <PUBCHEM_EXT_DATASOURCE_NAME>
4488

> <PUBCHEM_EXT_DATASOURCE_REGID>
SCHEMBL16106714

> <PUBCHEM_SUBSTANCE_COMMENT>
InChI=1S/C46H64N6O10S/c1-6-30-27-46(30,42(55)50-63(57,58)45(5)17-18-45)49-39(53)35-26-31-28-52(35)41(54)38(44(2,3)4)48-43(56)62-36-25-29(36)13-8-7-9-15-33-37(60-22-12-19-51-20-23-59-24-21-51)32-14-10-11-16-34(32)47-40(33)61-31/h6,10-11,14,16,29-31,35-36,38H,1,7-9,12-13,15,17-28H2,2-5H3,(H,48,56)(H,49,53)(H,50,55)/t29-,30-,31-,35+,36-,38-,46-/m1/s1
InChIKey=IEXYMKGEPIBQTI-SKCLJAAASA-N

> <PUBCHEM_SUBSTANCE_SYNONYM>
SCHEMBL16106714

> <PUBCHEM_XREF_EXT_ID>
SCHEMBL16106714

> <PUBCHEM_EXT_DATASOURCE_URL>
https://www.surechembl.org/

> <PUBCHEM_EXT_SUBSTANCE_URL>
https://www.surechembl.org/chemical/SCHEMBL16106714

> <PUBCHEM_CID_ASSOCIATIONS>
117598854  1

> <PUBCHEM_COORDINATE_TYPE>
1
3

> <PUBCHEM_BONDANNOTATIONS>
18  12  6
18  21  5
19  64  6
22  65  5
25  66  6
30  68  6
31  67  6
32  69  5

$$$$
