310942248
  -OEChem-07211613022D

 22 23  0     1  0  0  0  0  0999 V2000
    0.0000    1.0433    0.0000 F   0  0  0  0  0  0  0  0  0  0  0  0
   -1.4494   -1.4556    0.0000 F   0  0  0  0  0  0  0  0  0  0  0  0
   -1.4619    0.2062    0.0000 O   0  0  0  0  0  0  0  0  0  0  0  0
    2.2991   -0.2062    0.0000 N   0  0  0  0  0  0  0  0  0  0  0  0
    2.1617    1.4556    0.0000 N   0  0  0  0  0  0  0  0  0  0  0  0
   -0.7122   -0.2062    0.0000 C   0  0  0  0  0  0  0  0  0  0  0  0
    0.0000    0.2062    0.0000 C   0  0  0  0  0  0  0  0  0  0  0  0
    0.7122   -0.2062    0.0000 C   0  0  0  0  0  0  0  0  0  0  0  0
   -0.7247   -1.0308    0.0000 C   0  0  0  0  0  0  0  0  0  0  0  0
    1.4244    0.2187    0.0000 C   0  0  3  0  0  0  0  0  0  0  0  0
    0.7122   -1.0433    0.0000 C   0  0  0  0  0  0  0  0  0  0  0  0
    0.0000   -1.4556    0.0000 C   0  0  0  0  0  0  0  0  0  0  0  0
   -2.1617   -0.2062    0.0000 C   0  0  0  0  0  0  0  0  0  0  0  0
    1.4494    1.0433    0.0000 C   0  0  0  0  0  0  0  0  0  0  0  0
   -2.1742   -1.0433    0.0000 C   0  0  0  0  0  0  0  0  0  0  0  0
   -2.8989    0.1937    0.0000 C   0  0  0  0  0  0  0  0  0  0  0  0
   -2.8864   -1.4556    0.0000 C   0  0  0  0  0  0  0  0  0  0  0  0
   -3.5985   -0.2062    0.0000 C   0  0  0  0  0  0  0  0  0  0  0  0
   -3.5985   -1.0433    0.0000 C   0  0  0  0  0  0  0  0  0  0  0  0
    2.8864    1.0433    0.0000 C   0  0  0  0  0  0  0  0  0  0  0  0
    3.5985    1.4556    0.0000 C   0  0  0  0  0  0  0  0  0  0  0  0
    2.8989    0.2062    0.0000 C   0  0  0  0  0  0  0  0  0  0  0  0
  1  7  1  0  0  0  0
  2  9  1  0  0  0  0
  3  6  1  0  0  0  0
  3 13  1  0  0  0  0
  4 10  1  0  0  0  0
  5 14  1  0  0  0  0
  5 20  1  0  0  0  0
  6  7  1  0  0  0  0
  6  9  2  0  0  0  0
  7  8  2  0  0  0  0
  8 10  1  0  0  0  0
  8 11  1  0  0  0  0
  9 12  1  0  0  0  0
 10 14  1  0  0  0  0
 11 12  2  0  0  0  0
 13 15  2  0  0  0  0
 13 16  1  0  0  0  0
 15 17  1  0  0  0  0
 16 18  2  0  0  0  0
 17 19  2  0  0  0  0
 18 19  1  0  0  0  0
 20 21  1  0  0  0  0
 20 22  1  0  0  0  0
M  END
> <PUBCHEM_COMPOUND_ID_TYPE>
0

> <PUBCHEM_TOTAL_CHARGE>
0

> <PUBCHEM_SUBSTANCE_ID>
310942248

> <PUBCHEM_SUBSTANCE_VERSION>
1

> <PUBCHEM_EXT_DATASOURCE_NAME>
4488

> <PUBCHEM_EXT_DATASOURCE_REGID>
SCHEMBL16120283

> <PUBCHEM_SUBSTANCE_COMMENT>
InChI=1S/C17H20F2N2O/c1-11(2)21-10-15(20)13-8-9-14(18)17(16(13)19)22-12-6-4-3-5-7-12/h3-9,11,15,21H,10,20H2,1-2H3
InChIKey=HKSFBTBLOYSDHF-UHFFFAOYSA-N

> <PUBCHEM_SUBSTANCE_SYNONYM>
SCHEMBL16120283

> <PUBCHEM_XREF_EXT_ID>
SCHEMBL16120283

> <PUBCHEM_EXT_DATASOURCE_URL>
https://www.surechembl.org/

> <PUBCHEM_EXT_SUBSTANCE_URL>
https://www.surechembl.org/chemical/SCHEMBL16120283

> <PUBCHEM_CID_ASSOCIATIONS>
117608899  1

> <PUBCHEM_COORDINATE_TYPE>
1
3

$$$$
