310939120
  -OEChem-07211613022D

 26 28  0     1  0  0  0  0  0999 V2000
   -0.2775   -1.5712    0.0000 F   0  0  0  0  0  0  0  0  0  0  0  0
   -1.7065    0.9038    0.0000 F   0  0  0  0  0  0  0  0  0  0  0  0
   -1.7065   -0.7462    0.0000 O   0  0  0  0  0  0  0  0  0  0  0  0
    1.8659   -0.3337    0.0000 N   0  0  0  0  0  0  0  0  0  0  0  0
    2.5803    1.7288    0.0000 N   0  0  0  0  0  0  0  0  0  0  0  0
    3.3650    1.9837    0.0000 N   0  0  0  0  0  0  0  0  0  0  0  0
    0.4369   -0.3337    0.0000 C   0  0  0  0  0  0  0  0  0  0  0  0
   -0.2775   -0.7462    0.0000 C   0  0  0  0  0  0  0  0  0  0  0  0
   -0.9920   -0.3337    0.0000 C   0  0  0  0  0  0  0  0  0  0  0  0
    1.1514   -0.7462    0.0000 C   0  0  3  0  0  0  0  0  0  0  0  0
   -0.9920    0.4913    0.0000 C   0  0  0  0  0  0  0  0  0  0  0  0
    0.4369    0.4913    0.0000 C   0  0  0  0  0  0  0  0  0  0  0  0
   -0.2775    0.9038    0.0000 C   0  0  0  0  0  0  0  0  0  0  0  0
    1.8659    0.4913    0.0000 C   0  0  3  0  0  0  0  0  0  0  0  0
   -2.4209   -0.3337    0.0000 C   0  0  0  0  0  0  0  0  0  0  0  0
    2.5803    0.9038    0.0000 C   0  0  0  0  0  0  0  0  0  0  0  0
    1.1514   -1.5712    0.0000 C   0  0  0  0  0  0  0  0  0  0  0  0
    3.3650    0.6488    0.0000 C   0  0  0  0  0  0  0  0  0  0  0  0
   -2.4209    0.4913    0.0000 C   0  0  0  0  0  0  0  0  0  0  0  0
   -3.1354   -0.7462    0.0000 C   0  0  0  0  0  0  0  0  0  0  0  0
    1.1514    0.9038    0.0000 C   0  0  0  0  0  0  0  0  0  0  0  0
    3.8499    1.3163    0.0000 C   0  0  0  0  0  0  0  0  0  0  0  0
   -3.1354    0.9038    0.0000 C   0  0  0  0  0  0  0  0  0  0  0  0
   -3.8499   -0.3337    0.0000 C   0  0  0  0  0  0  0  0  0  0  0  0
    1.8659   -1.9837    0.0000 C   0  0  0  0  0  0  0  0  0  0  0  0
   -3.8499    0.4913    0.0000 C   0  0  0  0  0  0  0  0  0  0  0  0
  1  8  1  0  0  0  0
  2 11  1  0  0  0  0
  3  9  1  0  0  0  0
  3 15  1  0  0  0  0
  4 10  1  0  0  0  0
  4 14  1  0  0  0  0
  5  6  1  0  0  0  0
  5 16  1  0  0  0  0
  6 22  2  0  0  0  0
  7  8  2  0  0  0  0
  7 10  1  0  0  0  0
  7 12  1  0  0  0  0
  8  9  1  0  0  0  0
  9 11  2  0  0  0  0
 10 17  1  0  0  0  0
 11 13  1  0  0  0  0
 12 13  2  0  0  0  0
 14 16  1  0  0  0  0
 14 21  1  0  0  0  0
 15 19  2  0  0  0  0
 15 20  1  0  0  0  0
 16 18  2  0  0  0  0
 17 25  1  0  0  0  0
 18 22  1  0  0  0  0
 19 23  1  0  0  0  0
 20 24  2  0  0  0  0
 23 26  2  0  0  0  0
 24 26  1  0  0  0  0
M  END
> <PUBCHEM_COMPOUND_ID_TYPE>
0

> <PUBCHEM_TOTAL_CHARGE>
0

> <PUBCHEM_SUBSTANCE_ID>
310939120

> <PUBCHEM_SUBSTANCE_VERSION>
1

> <PUBCHEM_EXT_DATASOURCE_NAME>
4488

> <PUBCHEM_EXT_DATASOURCE_REGID>
SCHEMBL16117041

> <PUBCHEM_SUBSTANCE_COMMENT>
InChI=1S/C20H21F2N3O/c1-3-17(24-13(2)18-11-12-23-25-18)15-9-10-16(21)20(19(15)22)26-14-7-5-4-6-8-14/h4-13,17,24H,3H2,1-2H3,(H,23,25)
InChIKey=LOOIFHOPUNRCIQ-UHFFFAOYSA-N

> <PUBCHEM_SUBSTANCE_SYNONYM>
SCHEMBL16117041

> <PUBCHEM_XREF_EXT_ID>
SCHEMBL16117041

> <PUBCHEM_EXT_DATASOURCE_URL>
https://www.surechembl.org/

> <PUBCHEM_EXT_SUBSTANCE_URL>
https://www.surechembl.org/chemical/SCHEMBL16117041

> <PUBCHEM_CID_ASSOCIATIONS>
117606476  1

> <PUBCHEM_COORDINATE_TYPE>
1
3

$$$$
