310931524
  -OEChem-07211613022D

 27 30  0     1  0  0  0  0  0999 V2000
    0.8934   -2.7159    0.0000 O   0  0  0  0  0  0  0  0  0  0  0  0
    2.3228    0.0000    0.0000 O   0  0  0  0  0  0  0  0  0  0  0  0
    0.0000   -6.3965    0.0000 O   0  0  0  0  0  0  0  0  0  0  0  0
    2.3228   -2.5014    0.0000 N   0  0  0  0  0  0  0  0  0  0  0  0
    2.7516   -3.7522    0.0000 N   0  0  0  0  0  0  0  0  0  0  0  0
    3.7879   -2.7159    0.0000 N   0  0  0  0  0  0  0  0  0  0  0  0
    3.4663   -5.2530    0.0000 N   0  0  0  0  0  0  0  0  0  0  0  0
    1.9297   -3.7522    0.0000 C   0  0  3  0  0  0  0  0  0  0  0  0
    1.6795   -2.9660    0.0000 C   0  0  0  0  0  0  0  0  0  0  0  0
    1.4294   -4.3954    0.0000 C   0  0  0  0  0  0  0  0  0  0  0  0
    2.2870   -4.4669    0.0000 C   0  0  0  0  0  0  0  0  0  0  0  0
    3.0017   -2.9660    0.0000 C   0  0  0  0  0  0  0  0  0  0  0  0
    2.3228   -1.6795    0.0000 C   0  0  0  0  0  0  0  0  0  0  0  0
    1.7867   -5.1458    0.0000 C   0  0  0  0  0  0  0  0  0  0  0  0
    0.6432   -4.3239    0.0000 C   0  0  0  0  0  0  0  0  0  0  0  0
    3.1089   -4.5383    0.0000 C   0  0  0  0  0  0  0  0  0  0  0  0
    2.0369   -5.3245    0.0000 C   0  0  0  0  0  0  0  0  0  0  0  0
    3.0375   -1.2150    0.0000 C   0  0  0  0  0  0  0  0  0  0  0  0
    1.6438   -1.2150    0.0000 C   0  0  0  0  0  0  0  0  0  0  0  0
    1.2865   -5.8248    0.0000 C   0  0  0  0  0  0  0  0  0  0  0  0
    0.1429   -5.0029    0.0000 C   0  0  0  0  0  0  0  0  0  0  0  0
    0.4645   -5.7176    0.0000 C   0  0  0  0  0  0  0  0  0  0  0  0
    2.2156   -5.8963    0.0000 C   0  0  0  0  0  0  0  0  0  0  0  0
    3.0375   -5.9677    0.0000 C   0  0  0  0  0  0  0  0  0  0  0  0
    3.0375   -0.4288    0.0000 C   0  0  0  0  0  0  0  0  0  0  0  0
    1.6438   -0.4288    0.0000 C   0  0  0  0  0  0  0  0  0  0  0  0
    0.3216   -7.1470    0.0000 C   0  0  0  0  0  0  0  0  0  0  0  0
  1  9  2  0  0  0  0
  2 25  1  0  0  0  0
  2 26  1  0  0  0  0
  3 22  1  0  0  0  0
  3 27  1  0  0  0  0
  4  9  1  0  0  0  0
  4 12  1  0  0  0  0
  4 13  1  0  0  0  0
  5  8  1  0  0  0  0
  5 12  1  0  0  0  0
  6 12  2  3  0  0  0
  7 16  1  0  0  0  0
  7 24  2  0  0  0  0
  8  9  1  0  0  0  0
  8 10  1  0  0  0  0
  8 11  1  0  0  0  0
 10 14  2  0  0  0  0
 10 15  1  0  0  0  0
 11 16  2  0  0  0  0
 11 17  1  0  0  0  0
 13 18  1  0  0  0  0
 13 19  1  0  0  0  0
 14 20  1  0  0  0  0
 15 21  2  0  0  0  0
 17 23  2  0  0  0  0
 18 25  1  0  0  0  0
 19 26  1  0  0  0  0
 20 22  2  0  0  0  0
 21 22  1  0  0  0  0
 23 24  1  0  0  0  0
M  END
> <PUBCHEM_COMPOUND_ID_TYPE>
0

> <PUBCHEM_TOTAL_CHARGE>
0

> <PUBCHEM_SUBSTANCE_ID>
310931524

> <PUBCHEM_SUBSTANCE_VERSION>
1

> <PUBCHEM_EXT_DATASOURCE_NAME>
4488

> <PUBCHEM_EXT_DATASOURCE_REGID>
SCHEMBL16108850

> <PUBCHEM_SUBSTANCE_COMMENT>
InChI=1S/C20H22N4O3/c1-26-17-6-4-14(5-7-17)20(15-3-2-10-22-13-15)18(25)24(19(21)23-20)16-8-11-27-12-9-16/h2-7,10,13,16H,8-9,11-12H2,1H3,(H2,21,23)
InChIKey=IQNKDJVROPGCFB-UHFFFAOYSA-N

> <PUBCHEM_SUBSTANCE_SYNONYM>
SCHEMBL16108850

> <PUBCHEM_XREF_EXT_ID>
SCHEMBL16108850

> <PUBCHEM_EXT_DATASOURCE_URL>
https://www.surechembl.org/

> <PUBCHEM_EXT_SUBSTANCE_URL>
https://www.surechembl.org/chemical/SCHEMBL16108850

> <PUBCHEM_CID_ASSOCIATIONS>
117600280  1

> <PUBCHEM_COORDINATE_TYPE>
1
3

$$$$
