310947747
  -OEChem-07211613022D

 22 23  0     1  0  0  0  0  0999 V2000
   -1.7500   -2.2681    0.0000 N   0  0  0  0  0  0  0  0  0  0  0  0
   -1.2230    0.5817    0.0000 N   0  0  0  0  0  0  0  0  0  0  0  0
   -2.2849    1.5378    0.0000 N   0  0  3  0  0  0  0  0  0  0  0  0
   -1.2651   -2.9355    0.0000 N   0  0  0  0  0  0  0  0  0  0  0  0
    0.9484   -1.8556    0.0000 N   0  0  3  0  0  0  0  0  0  0  0  0
    3.0919   -1.4431    0.0000 N   0  0  0  0  0  0  0  0  0  0  0  0
   -1.2651   -1.6007    0.0000 C   0  0  0  0  0  0  0  0  0  0  0  0
   -1.5201   -0.8160    0.0000 C   0  0  0  0  0  0  0  0  0  0  0  0
   -0.4805   -1.8556    0.0000 C   0  0  0  0  0  0  0  0  0  0  0  0
   -2.0299    0.7532    0.0000 C   0  0  0  0  0  0  0  0  0  0  0  0
   -0.9680   -0.2029    0.0000 C   0  0  0  0  0  0  0  0  0  0  0  0
   -2.3270   -0.6445    0.0000 C   0  0  0  0  0  0  0  0  0  0  0  0
   -0.4805   -2.6806    0.0000 C   0  0  0  0  0  0  0  0  0  0  0  0
   -2.5820    0.1401    0.0000 C   0  0  0  0  0  0  0  0  0  0  0  0
    0.2340   -1.4431    0.0000 C   0  0  0  0  0  0  0  0  0  0  0  0
   -1.7328    2.1509    0.0000 C   0  0  0  0  0  0  0  0  0  0  0  0
   -3.0919    1.7094    0.0000 C   0  0  0  0  0  0  0  0  0  0  0  0
    1.6629   -1.4431    0.0000 C   0  0  0  0  0  0  0  0  0  0  0  0
    0.9484   -2.6806    0.0000 C   0  0  0  0  0  0  0  0  0  0  0  0
   -0.8845    1.9917    0.0000 C   0  0  0  0  0  0  0  0  0  0  0  0
   -1.9878    2.9355    0.0000 C   0  0  0  0  0  0  0  0  0  0  0  0
    2.3774   -1.8556    0.0000 C   0  0  0  0  0  0  0  0  0  0  0  0
  1  4  1  0  0  0  0
  1  7  2  0  0  0  0
  2 10  1  0  0  0  0
  2 11  2  0  0  0  0
  3 10  1  0  0  0  0
  3 16  1  0  0  0  0
  3 17  1  0  0  0  0
  4 13  1  0  0  0  0
  5 15  1  0  0  0  0
  5 18  1  0  0  0  0
  5 19  1  0  0  0  0
  6 22  1  0  0  0  0
  7  8  1  0  0  0  0
  7  9  1  0  0  0  0
  8 11  1  0  0  0  0
  8 12  2  0  0  0  0
  9 13  2  0  0  0  0
  9 15  1  0  0  0  0
 10 14  2  0  0  0  0
 12 14  1  0  0  0  0
 16 20  1  0  0  0  0
 16 21  1  0  0  0  0
 18 22  1  0  0  0  0
M  END
> <PUBCHEM_COMPOUND_ID_TYPE>
0

> <PUBCHEM_TOTAL_CHARGE>
0

> <PUBCHEM_SUBSTANCE_ID>
310947747

> <PUBCHEM_SUBSTANCE_VERSION>
1

> <PUBCHEM_EXT_DATASOURCE_NAME>
4488

> <PUBCHEM_EXT_DATASOURCE_REGID>
SCHEMBL16125919

> <PUBCHEM_SUBSTANCE_COMMENT>
InChI=1S/C16H26N6/c1-12(2)22(4)15-6-5-13(9-18-15)16-14(10-19-20-16)11-21(3)8-7-17/h5-6,9-10,12H,7-8,11,17H2,1-4H3,(H,19,20)
InChIKey=IAWOQVOTLRYODZ-UHFFFAOYSA-N

> <PUBCHEM_SUBSTANCE_SYNONYM>
SCHEMBL16125919

> <PUBCHEM_XREF_EXT_ID>
SCHEMBL16125919

> <PUBCHEM_EXT_DATASOURCE_URL>
https://www.surechembl.org/

> <PUBCHEM_EXT_SUBSTANCE_URL>
https://www.surechembl.org/chemical/SCHEMBL16125919

> <PUBCHEM_CID_ASSOCIATIONS>
86302014  1

> <PUBCHEM_COORDINATE_TYPE>
1
3

$$$$
