310933974
  -OEChem-07211613022D

  7  7  0     1  0  0  0  0  0999 V2000
    1.3880   -1.4282    0.0000 N   0  0  3  0  0  0  0  0  0  0  0  0
    0.0000    0.0000    0.0000 N   0  0  0  0  0  0  0  0  0  0  0  0
    0.5834   -1.4282    0.0000 C   0  0  3  0  0  0  0  0  0  0  0  0
    0.5834   -0.5834    0.0000 C   0  0  3  0  0  0  0  0  0  0  0  0
    1.4081   -0.5834    0.0000 C   0  0  0  0  0  0  0  0  0  0  0  0
    0.0000   -2.0116    0.0000 C   0  0  0  0  0  0  0  0  0  0  0  0
    1.9613   -2.0116    0.0000 C   0  0  0  0  0  0  0  0  0  0  0  0
  1  3  1  0  0  0  0
  1  5  1  0  0  0  0
  1  7  1  0  0  0  0
  2  4  1  0  0  0  0
  3  4  1  0  0  0  0
  3  6  1  0  0  0  0
  4  5  1  0  0  0  0
M  END
> <PUBCHEM_COMPOUND_ID_TYPE>
0

> <PUBCHEM_TOTAL_CHARGE>
0

> <PUBCHEM_SUBSTANCE_ID>
310933974

> <PUBCHEM_SUBSTANCE_VERSION>
1

> <PUBCHEM_EXT_DATASOURCE_NAME>
4488

> <PUBCHEM_EXT_DATASOURCE_REGID>
SCHEMBL16111414

> <PUBCHEM_SUBSTANCE_COMMENT>
InChI=1S/C5H12N2/c1-4-5(6)3-7(4)2/h4-5H,3,6H2,1-2H3
InChIKey=SMGYGIGNLQRMCS-UHFFFAOYSA-N

> <PUBCHEM_SUBSTANCE_SYNONYM>
SCHEMBL16111414

> <PUBCHEM_XREF_EXT_ID>
SCHEMBL16111414

> <PUBCHEM_EXT_DATASOURCE_URL>
https://www.surechembl.org/

> <PUBCHEM_EXT_SUBSTANCE_URL>
https://www.surechembl.org/chemical/SCHEMBL16111414

> <PUBCHEM_CID_ASSOCIATIONS>
60150204  1

> <PUBCHEM_COORDINATE_TYPE>
1
3

$$$$
