310933236
  -OEChem-07211613022D

 46 51  0     1  0  0  0  0  0999 V2000
    0.0000   -1.2362    0.0000 Cl  0  0  0  0  0  0  0  0  0  0  0  0
    1.4235   -0.4120    0.0000 F   0  0  0  0  0  0  0  0  0  0  0  0
    5.8065   -1.2737    0.0000 O   0  0  0  0  0  0  0  0  0  0  0  0
    6.5182   -1.6857    0.0000 O   0  0  0  0  0  0  0  0  0  0  0  0
    2.1352   -6.6305    0.0000 O   0  0  0  0  0  0  0  0  0  0  0  0
   10.1519   -0.4495    0.0000 O   0  0  0  0  0  0  0  0  0  0  0  0
   10.9011   -1.6857    0.0000 O   0  0  0  0  0  0  0  0  0  0  0  0
    5.0947   -2.5099    0.0000 N   0  0  0  0  0  0  0  0  0  0  0  0
    4.3455   -5.4318    0.0000 N   0  0  0  0  0  0  0  0  0  0  0  0
    7.2674   -2.9594    0.0000 N   0  0  0  0  0  0  0  0  0  0  0  0
    3.6337    0.0000    0.0000 N   0  0  0  0  0  0  0  0  0  0  0  0
    5.8065   -2.9594    0.0000 C   0  0  3  0  0  0  0  0  0  0  0  0
    5.8065   -3.7835    0.0000 C   0  0  0  0  0  0  0  0  0  0  0  0
    5.0947   -4.1956    0.0000 C   0  0  0  0  0  0  0  0  0  0  0  0
    5.0572   -5.0197    0.0000 C   0  0  0  0  0  0  0  0  0  0  0  0
    5.0947   -1.6857    0.0000 C   0  0  0  0  0  0  0  0  0  0  0  0
    6.5182   -2.5474    0.0000 C   0  0  0  0  0  0  0  0  0  0  0  0
    4.3455   -3.7835    0.0000 C   0  0  0  0  0  0  0  0  0  0  0  0
    4.3455   -2.9220    0.0000 C   0  0  0  0  0  0  0  0  0  0  0  0
    6.5182   -4.1956    0.0000 C   0  0  0  0  0  0  0  0  0  0  0  0
    4.3455   -1.2737    0.0000 C   0  0  0  0  0  0  0  0  0  0  0  0
    5.7690   -5.4318    0.0000 C   0  0  0  0  0  0  0  0  0  0  0  0
    6.5182   -5.0197    0.0000 C   0  0  0  0  0  0  0  0  0  0  0  0
    2.8845   -1.2362    0.0000 C   0  0  0  0  0  0  0  0  0  0  0  0
    3.6337   -1.6483    0.0000 C   0  0  0  0  0  0  0  0  0  0  0  0
    2.1727   -1.6483    0.0000 C   0  0  0  0  0  0  0  0  0  0  0  0
    4.3455   -0.4120    0.0000 C   0  0  0  0  0  0  0  0  0  0  0  0
    4.3455   -6.2934    0.0000 C   0  0  0  0  0  0  0  0  0  0  0  0
    3.6337   -5.0197    0.0000 C   0  0  0  0  0  0  0  0  0  0  0  0
    7.9792   -2.5474    0.0000 C   0  0  0  0  0  0  0  0  0  0  0  0
    2.9220   -0.4120    0.0000 C   0  0  0  0  0  0  0  0  0  0  0  0
    1.4235   -1.2362    0.0000 C   0  0  0  0  0  0  0  0  0  0  0  0
    3.5962   -6.6680    0.0000 C   0  0  0  0  0  0  0  0  0  0  0  0
    2.8845   -5.4318    0.0000 C   0  0  0  0  0  0  0  0  0  0  0  0
    2.8845   -6.2560    0.0000 C   0  0  0  0  0  0  0  0  0  0  0  0
    2.1727   -2.5099    0.0000 C   0  0  0  0  0  0  0  0  0  0  0  0
    0.7117   -1.6483    0.0000 C   0  0  0  0  0  0  0  0  0  0  0  0
    7.9792   -1.6857    0.0000 C   0  0  0  0  0  0  0  0  0  0  0  0
    8.6909   -2.9594    0.0000 C   0  0  0  0  0  0  0  0  0  0  0  0
    1.4610   -2.9220    0.0000 C   0  0  0  0  0  0  0  0  0  0  0  0
    0.7117   -2.5099    0.0000 C   0  0  0  0  0  0  0  0  0  0  0  0
    9.4401   -1.6857    0.0000 C   0  0  0  0  0  0  0  0  0  0  0  0
    8.6909   -1.2737    0.0000 C   0  0  0  0  0  0  0  0  0  0  0  0
    9.4401   -2.5474    0.0000 C   0  0  0  0  0  0  0  0  0  0  0  0
   10.1519   -1.2737    0.0000 C   0  0  0  0  0  0  0  0  0  0  0  0
    2.1352   -7.4922    0.0000 C   0  0  0  0  0  0  0  0  0  0  0  0
  1 37  1  0  0  0  0
  2 32  1  0  0  0  0
  3 16  2  0  0  0  0
  4 17  2  0  0  0  0
  5 35  1  0  0  0  0
  5 46  1  0  0  0  0
  6 45  2  0  0  0  0
  7 45  1  0  0  0  0
  8 12  1  0  0  0  0
  8 16  1  0  0  0  0
  8 19  1  0  0  0  0
  9 15  1  0  0  0  0
  9 28  1  0  0  0  0
  9 29  1  0  0  0  0
 10 17  1  0  0  0  0
 10 30  1  0  0  0  0
 11 27  1  0  0  0  0
 11 31  2  0  0  0  0
 12 13  1  0  0  0  0
 12 17  1  0  0  0  0
 13 14  2  0  0  0  0
 13 20  1  0  0  0  0
 14 15  1  0  0  0  0
 14 18  1  0  0  0  0
 15 22  2  0  0  0  0
 16 21  1  0  0  0  0
 18 19  1  0  0  0  0
 20 23  2  0  0  0  0
 21 25  1  0  0  0  0
 21 27  2  0  0  0  0
 22 23  1  0  0  0  0
 24 25  2  0  0  0  0
 24 26  1  0  0  0  0
 24 31  1  0  0  0  0
 26 32  1  0  0  0  0
 26 36  2  0  0  0  0
 28 33  1  0  0  0  0
 29 34  1  0  0  0  0
 30 38  2  0  0  0  0
 30 39  1  0  0  0  0
 32 37  2  0  0  0  0
 33 35  1  0  0  0  0
 34 35  1  0  0  0  0
 36 40  1  0  0  0  0
 37 41  1  0  0  0  0
 38 43  1  0  0  0  0
 39 44  2  0  0  0  0
 40 41  2  0  0  0  0
 42 43  2  0  0  0  0
 42 44  1  0  0  0  0
 42 45  1  0  0  0  0
M  END
> <PUBCHEM_COMPOUND_ID_TYPE>
0

> <PUBCHEM_TOTAL_CHARGE>
0

> <PUBCHEM_SUBSTANCE_ID>
310933236

> <PUBCHEM_SUBSTANCE_VERSION>
1

> <PUBCHEM_EXT_DATASOURCE_NAME>
4488

> <PUBCHEM_EXT_DATASOURCE_REGID>
SCHEMBL16110645

> <PUBCHEM_SUBSTANCE_COMMENT>
InChI=1S/C35H32ClFN4O5/c1-46-25-12-15-40(16-13-25)30-7-3-5-28-27(30)14-17-41(32(28)33(42)39-24-10-8-21(9-11-24)35(44)45)34(43)23-18-22(19-38-20-23)26-4-2-6-29(36)31(26)37/h2-11,18-20,25,32H,12-17H2,1H3,(H,39,42)(H,44,45)
InChIKey=YTLXZIUVYLFAJM-UHFFFAOYSA-N

> <PUBCHEM_SUBSTANCE_SYNONYM>
SCHEMBL16110645

> <PUBCHEM_XREF_EXT_ID>
SCHEMBL16110645

> <PUBCHEM_EXT_DATASOURCE_URL>
https://www.surechembl.org/

> <PUBCHEM_EXT_SUBSTANCE_URL>
https://www.surechembl.org/chemical/SCHEMBL16110645

> <PUBCHEM_CID_ASSOCIATIONS>
117601670  1

> <PUBCHEM_COORDINATE_TYPE>
1
3

$$$$
