310941390
  -OEChem-07211613022D

 40 43  0     1  0  0  0  0  0999 V2000
    5.0361   -1.0827    0.0000 O   0  0  0  0  0  0  0  0  0  0  0  0
    3.9045    0.8871    0.0000 O   0  0  0  0  0  0  0  0  0  0  0  0
    1.7392   -1.1944    0.0000 O   0  0  0  0  0  0  0  0  0  0  0  0
   -0.4121    0.8871    0.0000 O   0  0  0  0  0  0  0  0  0  0  0  0
    3.9045    2.5495    0.0000 O   0  0  0  0  0  0  0  0  0  0  0  0
   -2.5635   -1.1944    0.0000 O   0  0  0  0  0  0  0  0  0  0  0  0
   -5.4413   -1.1944    0.0000 O   0  0  0  0  0  0  0  0  0  0  0  0
    2.4657    0.0628    0.0000 N   0  0  0  0  0  0  0  0  0  0  0  0
    0.3143   -0.3562    0.0000 N   0  0  0  0  0  0  0  0  0  0  0  0
   -1.8510    0.0628    0.0000 N   0  0  0  0  0  0  0  0  0  0  0  0
   -4.0023   -0.3562    0.0000 N   0  0  0  0  0  0  0  0  0  0  0  0
    4.6310   -0.3283    0.0000 C   0  0  3  0  0  0  0  0  0  0  0  0
    3.8906    0.0768    0.0000 C   0  0  0  0  0  0  0  0  0  0  0  0
    3.2060   -0.3283    0.0000 C   0  0  3  0  0  0  0  0  0  0  0  0
    5.4413   -0.3422    0.0000 C   0  0  0  0  0  0  0  0  0  0  0  0
    1.7532   -0.3003    0.0000 C   0  0  0  0  0  0  0  0  0  0  0  0
    1.0128    0.0908    0.0000 C   0  0  3  0  0  0  0  0  0  0  0  0
    3.1921   -1.1665    0.0000 C   0  0  0  0  0  0  0  0  0  0  0  0
    3.9045   -1.5716    0.0000 C   0  0  0  0  0  0  0  0  0  0  0  0
    1.0407    0.9150    0.0000 C   0  0  0  0  0  0  0  0  0  0  0  0
    1.7532    1.3341    0.0000 C   0  0  0  0  0  0  0  0  0  0  0  0
   -0.4121    0.0628    0.0000 C   0  0  0  0  0  0  0  0  0  0  0  0
   -1.1106   -0.3283    0.0000 C   0  0  3  0  0  0  0  0  0  0  0  0
    4.0023   -2.3958    0.0000 C   0  0  0  0  0  0  0  0  0  0  0  0
    4.6589   -1.2503    0.0000 C   0  0  0  0  0  0  0  0  0  0  0  0
    2.4657    0.9290    0.0000 C   0  0  0  0  0  0  0  0  0  0  0  0
    1.7672    2.1723    0.0000 C   0  0  0  0  0  0  0  0  0  0  0  0
    3.1921    2.1723    0.0000 C   0  0  0  0  0  0  0  0  0  0  0  0
   -2.5635   -0.3003    0.0000 C   0  0  0  0  0  0  0  0  0  0  0  0
    3.1921    1.3341    0.0000 C   0  0  0  0  0  0  0  0  0  0  0  0
    2.4657    2.5635    0.0000 C   0  0  0  0  0  0  0  0  0  0  0  0
    5.2177   -1.8650    0.0000 C   0  0  0  0  0  0  0  0  0  0  0  0
    4.7986   -2.5635    0.0000 C   0  0  0  0  0  0  0  0  0  0  0  0
   -3.3178    0.0768    0.0000 C   0  0  0  0  0  0  0  0  0  0  0  0
   -1.1246   -1.1804    0.0000 C   0  0  0  0  0  0  0  0  0  0  0  0
   -4.0023   -1.1665    0.0000 C   0  0  0  0  0  0  0  0  0  0  0  0
   -4.7288    0.0768    0.0000 C   0  0  0  0  0  0  0  0  0  0  0  0
   -4.7148   -1.5716    0.0000 C   0  0  0  0  0  0  0  0  0  0  0  0
   -5.4273   -0.3283    0.0000 C   0  0  0  0  0  0  0  0  0  0  0  0
    4.6310    2.1444    0.0000 C   0  0  0  0  0  0  0  0  0  0  0  0
  1 12  1  0  0  0  0
  1 15  1  0  0  0  0
  2 13  2  0  0  0  0
  3 16  2  0  0  0  0
  4 22  2  0  0  0  0
  5 28  1  0  0  0  0
  5 40  1  0  0  0  0
  6 29  2  0  0  0  0
  7 38  1  0  0  0  0
  7 39  1  0  0  0  0
  8 14  1  0  0  0  0
  8 16  1  0  0  0  0
  9 17  1  0  0  0  0
  9 22  1  0  0  0  0
 10 23  1  0  0  0  0
 10 29  1  0  0  0  0
 11 34  1  0  0  0  0
 11 36  1  0  0  0  0
 11 37  1  0  0  0  0
 12 13  1  0  0  0  0
 12 15  1  0  0  0  0
 13 14  1  0  0  0  0
 14 18  1  0  0  0  0
 16 17  1  0  0  0  0
 17 20  1  0  0  0  0
 18 19  1  0  0  0  0
 19 24  1  0  0  0  0
 19 25  1  0  0  0  0
 20 21  1  0  0  0  0
 21 26  2  0  0  0  0
 21 27  1  0  0  0  0
 22 23  1  0  0  0  0
 23 35  1  0  0  0  0
 24 33  1  0  0  0  0
 25 32  1  0  0  0  0
 26 30  1  0  0  0  0
 27 31  2  0  0  0  0
 28 30  2  0  0  0  0
 28 31  1  0  0  0  0
 29 34  1  0  0  0  0
 32 33  1  0  0  0  0
 36 38  1  0  0  0  0
 37 39  1  0  0  0  0
M  END
> <PUBCHEM_COMPOUND_ID_TYPE>
0

> <PUBCHEM_TOTAL_CHARGE>
0

> <PUBCHEM_SUBSTANCE_ID>
310941390

> <PUBCHEM_SUBSTANCE_VERSION>
1

> <PUBCHEM_EXT_DATASOURCE_NAME>
4488

> <PUBCHEM_EXT_DATASOURCE_REGID>
SCHEMBL16119350

> <PUBCHEM_SUBSTANCE_COMMENT>
InChI=1S/C29H42N4O7/c1-19(30-26(34)17-33-11-13-39-14-12-33)28(36)32-24(16-21-7-9-22(38-2)10-8-21)29(37)31-23(27(35)25-18-40-25)15-20-5-3-4-6-20/h7-10,19-20,23-25H,3-6,11-18H2,1-2H3,(H,30,34)(H,31,37)(H,32,36)
InChIKey=FNTLOAYYFHKANE-UHFFFAOYSA-N

> <PUBCHEM_SUBSTANCE_SYNONYM>
SCHEMBL16119350

> <PUBCHEM_XREF_EXT_ID>
SCHEMBL16119350

> <PUBCHEM_EXT_DATASOURCE_URL>
https://www.surechembl.org/

> <PUBCHEM_EXT_SUBSTANCE_URL>
https://www.surechembl.org/chemical/SCHEMBL16119350

> <PUBCHEM_CID_ASSOCIATIONS>
86297121  1

> <PUBCHEM_COORDINATE_TYPE>
1
3

$$$$
