310941389
  -OEChem-07211613022D

 43 46  0     1  0  0  0  0  0999 V2000
    3.8329    2.3956    0.0000 S   0  0  0  0  0  0  0  0  0  0  0  0
    5.1831   -1.3647    0.0000 O   0  0  0  0  0  0  0  0  0  0  0  0
    4.0507    0.5952    0.0000 O   0  0  0  0  0  0  0  0  0  0  0  0
    1.6841   -1.3502    0.0000 O   0  0  0  0  0  0  0  0  0  0  0  0
    3.4119    3.1070    0.0000 O   0  0  0  0  0  0  0  0  0  0  0  0
    4.2394    1.6696    0.0000 O   0  0  0  0  0  0  0  0  0  0  0  0
   -0.4646    0.7259    0.0000 O   0  0  0  0  0  0  0  0  0  0  0  0
   -2.6134   -1.3502    0.0000 O   0  0  0  0  0  0  0  0  0  0  0  0
   -5.4735   -1.3502    0.0000 O   0  0  0  0  0  0  0  0  0  0  0  0
    2.3956   -0.1161    0.0000 N   0  0  0  0  0  0  0  0  0  0  0  0
    0.2468   -0.5227    0.0000 N   0  0  0  0  0  0  0  0  0  0  0  0
   -1.9019   -0.1161    0.0000 N   0  0  0  0  0  0  0  0  0  0  0  0
   -4.0507   -0.5227    0.0000 N   0  0  0  0  0  0  0  0  0  0  0  0
    4.7621   -0.6388    0.0000 C   0  0  3  0  0  0  0  0  0  0  0  0
    4.0362   -0.2178    0.0000 C   0  0  0  0  0  0  0  0  0  0  0  0
    4.3701   -1.3502    0.0000 C   0  0  0  0  0  0  0  0  0  0  0  0
    3.3538   -0.6243    0.0000 C   0  0  3  0  0  0  0  0  0  0  0  0
    5.4735   -0.2033    0.0000 C   0  0  0  0  0  0  0  0  0  0  0  0
    3.3393   -1.6986    0.0000 C   0  0  0  0  0  0  0  0  0  0  0  0
    1.6841   -0.4791    0.0000 C   0  0  0  0  0  0  0  0  0  0  0  0
    0.9727   -0.0871    0.0000 C   0  0  3  0  0  0  0  0  0  0  0  0
    2.6134   -2.1197    0.0000 C   0  0  0  0  0  0  0  0  0  0  0  0
    0.9872    0.7549    0.0000 C   0  0  0  0  0  0  0  0  0  0  0  0
    1.6841    1.1615    0.0000 C   0  0  0  0  0  0  0  0  0  0  0  0
    3.1215    1.9890    0.0000 C   0  0  0  0  0  0  0  0  0  0  0  0
   -0.4791   -0.1016    0.0000 C   0  0  0  0  0  0  0  0  0  0  0  0
    1.8583   -1.8003    0.0000 C   0  0  0  0  0  0  0  0  0  0  0  0
    2.5117   -2.9473    0.0000 C   0  0  0  0  0  0  0  0  0  0  0  0
    1.6986    1.9890    0.0000 C   0  0  0  0  0  0  0  0  0  0  0  0
    2.4101    0.7549    0.0000 C   0  0  0  0  0  0  0  0  0  0  0  0
    2.3810    2.3956    0.0000 C   0  0  0  0  0  0  0  0  0  0  0  0
    3.1215    1.1615    0.0000 C   0  0  0  0  0  0  0  0  0  0  0  0
   -1.1760   -0.4936    0.0000 C   0  0  3  0  0  0  0  0  0  0  0  0
    1.3212   -2.3956    0.0000 C   0  0  0  0  0  0  0  0  0  0  0  0
    1.7277   -3.1070    0.0000 C   0  0  0  0  0  0  0  0  0  0  0  0
    4.5734    2.8311    0.0000 C   0  0  0  0  0  0  0  0  0  0  0  0
   -2.6134   -0.4791    0.0000 C   0  0  0  0  0  0  0  0  0  0  0  0
   -1.1760   -1.3502    0.0000 C   0  0  0  0  0  0  0  0  0  0  0  0
   -3.3393   -0.0871    0.0000 C   0  0  0  0  0  0  0  0  0  0  0  0
   -4.0507   -1.3357    0.0000 C   0  0  0  0  0  0  0  0  0  0  0  0
   -4.7766   -0.0871    0.0000 C   0  0  0  0  0  0  0  0  0  0  0  0
   -4.7476   -1.7422    0.0000 C   0  0  0  0  0  0  0  0  0  0  0  0
   -5.4590   -0.4936    0.0000 C   0  0  0  0  0  0  0  0  0  0  0  0
  1  5  2  0  0  0  0
  1  6  2  0  0  0  0
  1 25  1  0  0  0  0
  1 36  1  0  0  0  0
  2 14  1  0  0  0  0
  2 16  1  0  0  0  0
  3 15  2  0  0  0  0
  4 20  2  0  0  0  0
  7 26  2  0  0  0  0
  8 37  2  0  0  0  0
  9 42  1  0  0  0  0
  9 43  1  0  0  0  0
 10 17  1  0  0  0  0
 10 20  1  0  0  0  0
 11 21  1  0  0  0  0
 11 26  1  0  0  0  0
 12 33  1  0  0  0  0
 12 37  1  0  0  0  0
 13 39  1  0  0  0  0
 13 40  1  0  0  0  0
 13 41  1  0  0  0  0
 14 15  1  0  0  0  0
 14 16  1  0  0  0  0
 14 18  1  0  0  0  0
 15 17  1  0  0  0  0
 17 19  1  0  0  0  0
 19 22  1  0  0  0  0
 20 21  1  0  0  0  0
 21 23  1  0  0  0  0
 22 27  1  0  0  0  0
 22 28  1  0  0  0  0
 23 24  1  0  0  0  0
 24 29  2  0  0  0  0
 24 30  1  0  0  0  0
 25 31  2  0  0  0  0
 25 32  1  0  0  0  0
 26 33  1  0  0  0  0
 27 34  1  0  0  0  0
 28 35  1  0  0  0  0
 29 31  1  0  0  0  0
 30 32  2  0  0  0  0
 33 38  1  0  0  0  0
 34 35  1  0  0  0  0
 37 39  1  0  0  0  0
 40 42  1  0  0  0  0
 41 43  1  0  0  0  0
M  END
> <PUBCHEM_COMPOUND_ID_TYPE>
0

> <PUBCHEM_TOTAL_CHARGE>
0

> <PUBCHEM_SUBSTANCE_ID>
310941389

> <PUBCHEM_SUBSTANCE_VERSION>
1

> <PUBCHEM_EXT_DATASOURCE_NAME>
4488

> <PUBCHEM_EXT_DATASOURCE_REGID>
SCHEMBL16119349

> <PUBCHEM_SUBSTANCE_COMMENT>
InChI=1S/C30H44N4O8S/c1-20(31-26(35)18-34-12-14-41-15-13-34)28(37)33-25(17-22-8-10-23(11-9-22)43(3,39)40)29(38)32-24(16-21-6-4-5-7-21)27(36)30(2)19-42-30/h8-11,20-21,24-25H,4-7,12-19H2,1-3H3,(H,31,35)(H,32,38)(H,33,37)
InChIKey=DPCIVALMFPIARG-UHFFFAOYSA-N

> <PUBCHEM_SUBSTANCE_SYNONYM>
SCHEMBL16119349

> <PUBCHEM_XREF_EXT_ID>
SCHEMBL16119349

> <PUBCHEM_EXT_DATASOURCE_URL>
https://www.surechembl.org/

> <PUBCHEM_EXT_SUBSTANCE_URL>
https://www.surechembl.org/chemical/SCHEMBL16119349

> <PUBCHEM_CID_ASSOCIATIONS>
117608226  1

> <PUBCHEM_COORDINATE_TYPE>
1
3

$$$$
