310939619
  -OEChem-07211613022D

 37 39  0     1  0  0  0  0  0999 V2000
   -0.7145    3.5062    0.0000 Cl  0  0  0  0  0  0  0  0  0  0  0  0
   -2.1434    1.0313    0.0000 O   0  0  0  0  0  0  0  0  0  0  0  0
    0.0000   -2.6812    0.0000 O   0  0  0  0  0  0  0  0  0  0  0  0
    4.2868    2.2688    0.0000 O   0  0  0  0  0  0  0  0  0  0  0  0
    5.0013    1.0313    0.0000 O   0  0  0  0  0  0  0  0  0  0  0  0
   -3.5724    0.2062    0.0000 O   0  0  0  0  0  0  0  0  0  0  0  0
    0.7145    0.2062    0.0000 N   0  0  0  0  0  0  0  0  0  0  0  0
    1.4289    1.4437    0.0000 N   0  0  0  0  0  0  0  0  0  0  0  0
    2.8579    1.4437    0.0000 N   0  0  0  0  0  0  0  0  0  0  0  0
    1.4289   -2.6812    0.0000 N   0  0  0  0  0  0  0  0  0  0  0  0
   -5.0013    1.0313    0.0000 N   0  0  0  0  0  0  0  0  0  0  0  0
    0.7145    1.0313    0.0000 C   0  0  0  0  0  0  0  0  0  0  0  0
    1.4289   -0.2062    0.0000 C   0  0  0  0  0  0  0  0  0  0  0  0
    2.1434    1.0313    0.0000 C   0  0  0  0  0  0  0  0  0  0  0  0
    0.0000    1.4437    0.0000 C   0  0  0  0  0  0  0  0  0  0  0  0
    1.4289   -1.0313    0.0000 C   0  0  0  0  0  0  0  0  0  0  0  0
    2.1434    0.2062    0.0000 C   0  0  0  0  0  0  0  0  0  0  0  0
   -0.7145    1.0313    0.0000 C   0  0  0  0  0  0  0  0  0  0  0  0
    0.0000    2.2687    0.0000 C   0  0  0  0  0  0  0  0  0  0  0  0
   -1.4289    1.4437    0.0000 C   0  0  0  0  0  0  0  0  0  0  0  0
   -0.7145    2.6812    0.0000 C   0  0  0  0  0  0  0  0  0  0  0  0
    0.7145   -1.4437    0.0000 C   0  0  0  0  0  0  0  0  0  0  0  0
    2.1434   -1.4437    0.0000 C   0  0  0  0  0  0  0  0  0  0  0  0
   -1.4289    2.2687    0.0000 C   0  0  0  0  0  0  0  0  0  0  0  0
    0.7145   -2.2687    0.0000 C   0  0  0  0  0  0  0  0  0  0  0  0
    3.5724    1.0313    0.0000 C   0  0  0  0  0  0  0  0  0  0  0  0
    2.8579    2.2688    0.0000 C   0  0  0  0  0  0  0  0  0  0  0  0
    2.1434   -2.2687    0.0000 C   0  0  0  0  0  0  0  0  0  0  0  0
    3.5724    2.6813    0.0000 C   0  0  0  0  0  0  0  0  0  0  0  0
    4.2868    1.4437    0.0000 C   0  0  0  0  0  0  0  0  0  0  0  0
   -2.8579    1.4437    0.0000 C   0  0  0  0  0  0  0  0  0  0  0  0
   -3.5724    1.0313    0.0000 C   0  0  3  0  0  0  0  0  0  0  0  0
    0.0000   -3.5062    0.0000 C   0  0  0  0  0  0  0  0  0  0  0  0
   -4.2868    1.4437    0.0000 C   0  0  0  0  0  0  0  0  0  0  0  0
    5.0013    2.6813    0.0000 C   0  0  0  0  0  0  0  0  0  0  0  0
    5.7158    1.4437    0.0000 C   0  0  0  0  0  0  0  0  0  0  0  0
   -5.7158    1.4437    0.0000 C   0  0  0  0  0  0  0  0  0  0  0  0
  1 21  1  0  0  0  0
  2 20  1  0  0  0  0
  2 31  1  0  0  0  0
  3 25  1  0  0  0  0
  3 33  1  0  0  0  0
  4 29  1  0  0  0  0
  4 35  1  0  0  0  0
  5 30  1  0  0  0  0
  5 36  1  0  0  0  0
  6 32  1  0  0  0  0
  7 12  2  0  0  0  0
  7 13  1  0  0  0  0
  8 12  1  0  0  0  0
  8 14  2  0  0  0  0
  9 14  1  0  0  0  0
  9 26  1  0  0  0  0
  9 27  1  0  0  0  0
 10 25  2  0  0  0  0
 10 28  1  0  0  0  0
 11 34  1  0  0  0  0
 11 37  1  0  0  0  0
 12 15  1  0  0  0  0
 13 16  1  0  0  0  0
 13 17  2  0  0  0  0
 14 17  1  0  0  0  0
 15 18  2  0  0  0  0
 15 19  1  0  0  0  0
 16 22  2  0  0  0  0
 16 23  1  0  0  0  0
 18 20  1  0  0  0  0
 19 21  2  0  0  0  0
 20 24  2  0  0  0  0
 21 24  1  0  0  0  0
 22 25  1  0  0  0  0
 23 28  2  0  0  0  0
 26 30  1  0  0  0  0
 27 29  1  0  0  0  0
 31 32  1  0  0  0  0
 32 34  1  0  0  0  0
M  END
> <PUBCHEM_COMPOUND_ID_TYPE>
0

> <PUBCHEM_TOTAL_CHARGE>
0

> <PUBCHEM_SUBSTANCE_ID>
310939619

> <PUBCHEM_SUBSTANCE_VERSION>
1

> <PUBCHEM_EXT_DATASOURCE_NAME>
4488

> <PUBCHEM_EXT_DATASOURCE_REGID>
SCHEMBL16117549

> <PUBCHEM_SUBSTANCE_COMMENT>
InChI=1S/C26H34ClN5O5/c1-28-16-21(33)17-37-22-12-19(11-20(27)14-22)26-30-23(18-5-6-29-25(13-18)36-4)15-24(31-26)32(7-9-34-2)8-10-35-3/h5-6,11-15,21,28,33H,7-10,16-17H2,1-4H3
InChIKey=KIEACMQNUZCASF-UHFFFAOYSA-N

> <PUBCHEM_SUBSTANCE_SYNONYM>
SCHEMBL16117549

> <PUBCHEM_XREF_EXT_ID>
SCHEMBL16117549

> <PUBCHEM_EXT_DATASOURCE_URL>
https://www.surechembl.org/

> <PUBCHEM_EXT_SUBSTANCE_URL>
https://www.surechembl.org/chemical/SCHEMBL16117549

> <PUBCHEM_CID_ASSOCIATIONS>
85472809  1

> <PUBCHEM_COORDINATE_TYPE>
1
3

$$$$
