310946986
  -OEChem-07211613022D

 16 15  0     1  0  0  0  0  0999 V2000
   -1.4219    0.5762    0.0000 P   0  0  0  0  0  0  0  0  0  0  0  0
   -2.2398    0.1115    0.0000 O   0  0  0  0  0  0  0  0  0  0  0  0
   -1.6636   -0.3160    0.0000 O   0  0  0  0  0  0  0  0  0  0  0  0
    2.2398    0.1115    0.0000 O   0  0  0  0  0  0  0  0  0  0  0  0
    3.6338    0.1487    0.0000 O   0  0  0  0  0  0  0  0  0  0  0  0
   -0.6599    0.1301    0.0000 C   0  0  0  0  0  0  0  0  0  0  0  0
    0.6413    0.2045    0.0000 C   0  0  3  0  0  0  0  0  0  0  0  0
    0.0465    0.5762    0.0000 C   0  0  0  0  0  0  0  0  0  0  0  0
    1.5148    0.5762    0.0000 C   0  0  0  0  0  0  0  0  0  0  0  0
    2.9833    0.5204    0.0000 C   0  0  0  0  0  0  0  0  0  0  0  0
   -2.4443   -0.5204    0.0000 C   0  0  0  0  0  0  0  0  0  0  0  0
   -2.8903    0.5204    0.0000 C   0  0  0  0  0  0  0  0  0  0  0  0
    1.1803    0.0000    0.0000 C   0  0  0  0  0  0  0  0  0  0  0  0
    2.9461    1.3197    0.0000 C   0  0  0  0  0  0  0  0  0  0  0  0
   -2.6487   -1.3197    0.0000 C   0  0  0  0  0  0  0  0  0  0  0  0
   -3.6338    0.1115    0.0000 C   0  0  0  0  0  0  0  0  0  0  0  0
  1  2  1  0  0  0  0
  1  3  1  0  0  0  0
  1  6  1  0  0  0  0
  2 12  1  0  0  0  0
  3 11  1  0  0  0  0
  4  9  1  0  0  0  0
  4 10  1  0  0  0  0
  5 10  2  0  0  0  0
  6  8  2  0  0  0  0
  7  8  1  0  0  0  0
  7  9  1  0  0  0  0
  7 13  1  0  0  0  0
 10 14  1  0  0  0  0
 11 15  1  0  0  0  0
 12 16  1  0  0  0  0
M  END
> <PUBCHEM_COMPOUND_ID_TYPE>
0

> <PUBCHEM_TOTAL_CHARGE>
0

> <PUBCHEM_SUBSTANCE_ID>
310946986

> <PUBCHEM_SUBSTANCE_VERSION>
1

> <PUBCHEM_EXT_DATASOURCE_NAME>
4488

> <PUBCHEM_EXT_DATASOURCE_REGID>
SCHEMBL16125127

> <PUBCHEM_SUBSTANCE_COMMENT>
InChI=1S/C11H21O4P/c1-5-14-16(15-6-2)8-7-10(3)9-13-11(4)12/h7-8,10H,5-6,9H2,1-4H3/b8-7+
InChIKey=ZEQFKNAPEIPXRV-BQYQJAHWSA-N

> <PUBCHEM_SUBSTANCE_SYNONYM>
SCHEMBL16125127

> <PUBCHEM_XREF_EXT_ID>
SCHEMBL16125127

> <PUBCHEM_EXT_DATASOURCE_URL>
https://www.surechembl.org/

> <PUBCHEM_EXT_SUBSTANCE_URL>
https://www.surechembl.org/chemical/SCHEMBL16125127

> <PUBCHEM_CID_ASSOCIATIONS>
117612839  1

> <PUBCHEM_COORDINATE_TYPE>
1
3

> <PUBCHEM_BONDANNOTATIONS>
7  13  3

$$$$
