310938790
  -OEChem-07211613022D

 17 17  0     1  0  0  0  0  0999 V2000
    3.9285   -2.4032    0.0000 O   0  0  0  0  0  0  0  0  0  0  0  0
    2.5483   -2.7730    0.0000 O   0  0  0  0  0  0  0  0  0  0  0  0
    1.9077   -0.3824    0.0000 N   0  0  0  0  0  0  0  0  0  0  0  0
    1.1108   -0.1688    0.0000 N   0  0  0  0  0  0  0  0  0  0  0  0
    4.0848   -0.2260    0.0000 N   0  0  0  0  0  0  0  0  0  0  0  0
    2.9181   -1.3928    0.0000 C   0  0  3  0  0  0  0  0  0  0  0  0
    2.1212   -1.1792    0.0000 C   0  0  0  0  0  0  0  0  0  0  0  0
    3.1316   -2.1897    0.0000 C   0  0  0  0  0  0  0  0  0  0  0  0
    4.5119   -1.8198    0.0000 C   0  0  0  0  0  0  0  0  0  0  0  0
    1.5379   -1.7626    0.0000 C   0  0  0  0  0  0  0  0  0  0  0  0
    3.5015   -0.8094    0.0000 C   0  0  0  0  0  0  0  0  0  0  0  0
    0.5275   -0.7522    0.0000 C   0  0  0  0  0  0  0  0  0  0  0  0
    0.7410   -1.5491    0.0000 C   0  0  0  0  0  0  0  0  0  0  0  0
    4.2984   -1.0229    0.0000 C   0  0  0  0  0  0  0  0  0  0  0  0
    3.7150   -1.6063    0.0000 C   0  0  0  0  0  0  0  0  0  0  0  0
    5.3088   -2.0333    0.0000 C   0  0  0  0  0  0  0  0  0  0  0  0
   -0.2694   -0.5387    0.0000 C   0  0  0  0  0  0  0  0  0  0  0  0
  1  8  1  0  0  0  0
  1  9  1  0  0  0  0
  2  8  2  0  0  0  0
  3  4  2  0  0  0  0
  3  7  1  0  0  0  0
  4 12  1  0  0  0  0
  5 11  3  0  0  0  0
  6  7  1  0  0  0  0
  6  8  1  0  0  0  0
  6 11  1  0  0  0  0
  7 10  2  0  0  0  0
  9 14  1  0  0  0  0
  9 15  1  0  0  0  0
  9 16  1  0  0  0  0
 10 13  1  0  0  0  0
 12 13  2  0  0  0  0
 12 17  1  0  0  0  0
M  END
> <PUBCHEM_COMPOUND_ID_TYPE>
0

> <PUBCHEM_TOTAL_CHARGE>
0

> <PUBCHEM_SUBSTANCE_ID>
310938790

> <PUBCHEM_SUBSTANCE_VERSION>
1

> <PUBCHEM_EXT_DATASOURCE_NAME>
4488

> <PUBCHEM_EXT_DATASOURCE_REGID>
SCHEMBL16116707

> <PUBCHEM_SUBSTANCE_COMMENT>
InChI=1S/C12H15N3O2/c1-8-5-6-10(15-14-8)9(7-13)11(16)17-12(2,3)4/h5-6,9H,1-4H3
InChIKey=IKNOBVVKDWDJAZ-UHFFFAOYSA-N

> <PUBCHEM_SUBSTANCE_SYNONYM>
SCHEMBL16116707

> <PUBCHEM_XREF_EXT_ID>
SCHEMBL16116707

> <PUBCHEM_EXT_DATASOURCE_URL>
https://www.surechembl.org/

> <PUBCHEM_EXT_SUBSTANCE_URL>
https://www.surechembl.org/chemical/SCHEMBL16116707

> <PUBCHEM_CID_ASSOCIATIONS>
117606198  1

> <PUBCHEM_COORDINATE_TYPE>
1
3

$$$$
