310949273
  -OEChem-07211613022D

 71 82  0     1  0  0  0  0  0999 V2000
    1.9941   -0.3947    0.0000 S   0  0  0  0  0  0  0  0  0  0  0  0
    2.0144    2.9861    0.0000 N   0  0  0  0  0  0  0  0  0  0  0  0
   -0.9009   -2.0549    0.0000 N   0  0  0  0  0  0  0  0  0  0  0  0
    4.1402    2.4800    0.0000 N   0  0  0  0  0  0  0  0  0  0  0  0
   -0.1316    2.5205    0.0000 N   0  0  0  0  0  0  0  0  0  0  0  0
    0.5365   -3.6947    0.0000 N   0  0  0  0  0  0  0  0  0  0  0  0
   -1.5690    0.0101    0.0000 N   0  0  0  0  0  0  0  0  0  0  0  0
    2.6622    3.5327    0.0000 C   0  0  0  0  0  0  0  0  0  0  0  0
    1.3058    3.5125    0.0000 C   0  0  0  0  0  0  0  0  0  0  0  0
   -1.6500   -1.6905    0.0000 C   0  0  0  0  0  0  0  0  0  0  0  0
   -0.9819   -2.8444    0.0000 C   0  0  0  0  0  0  0  0  0  0  0  0
    1.5690    4.3021    0.0000 C   0  0  0  0  0  0  0  0  0  0  0  0
    2.3990    4.3021    0.0000 C   0  0  0  0  0  0  0  0  0  0  0  0
   -2.2169   -2.2978    0.0000 C   0  0  0  0  0  0  0  0  0  0  0  0
   -1.7917   -3.0064    0.0000 C   0  0  0  0  0  0  0  0  0  0  0  0
    2.0144    2.1561    0.0000 C   0  0  0  0  0  0  0  0  0  0  0  0
   -0.1519   -1.5893    0.0000 C   0  0  3  0  0  0  0  0  0  0  0  0
    2.7230    1.7512    0.0000 C   0  0  0  0  0  0  0  0  0  0  0  0
    1.3058    1.7309    0.0000 C   0  0  0  0  0  0  0  0  0  0  0  0
    0.5567   -2.0144    0.0000 C   0  0  0  0  0  0  0  0  0  0  0  0
   -0.1519   -0.7795    0.0000 C   0  0  3  0  0  0  0  0  0  0  0  0
    1.0629    4.8892    0.0000 C   0  0  0  0  0  0  0  0  0  0  0  0
    2.9254    4.8892    0.0000 C   0  0  0  0  0  0  0  0  0  0  0  0
   -2.9862   -2.1156    0.0000 C   0  0  0  0  0  0  0  0  0  0  0  0
   -2.0144   -3.8162    0.0000 C   0  0  0  0  0  0  0  0  0  0  0  0
    0.4960    3.3506    0.0000 C   0  0  0  0  0  0  0  0  0  0  0  0
    3.4923    3.3506    0.0000 C   0  0  0  0  0  0  0  0  0  0  0  0
   -1.9132   -0.9009    0.0000 C   0  0  0  0  0  0  0  0  0  0  0  0
   -0.4353   -3.5125    0.0000 C   0  0  0  0  0  0  0  0  0  0  0  0
    0.2328    4.7475    0.0000 C   0  0  0  0  0  0  0  0  0  0  0  0
    3.7554    4.7273    0.0000 C   0  0  0  0  0  0  0  0  0  0  0  0
   -3.2696   -1.3261    0.0000 C   0  0  0  0  0  0  0  0  0  0  0  0
   -1.4880   -4.4236    0.0000 C   0  0  0  0  0  0  0  0  0  0  0  0
    1.9941    0.4758    0.0000 C   0  0  0  0  0  0  0  0  0  0  0  0
    1.2653   -0.7795    0.0000 C   0  0  0  0  0  0  0  0  0  0  0  0
    2.6824    0.9009    0.0000 C   0  0  0  0  0  0  0  0  0  0  0  0
    1.3058    0.8807    0.0000 C   0  0  0  0  0  0  0  0  0  0  0  0
    1.2856   -1.5893    0.0000 C   0  0  0  0  0  0  0  0  0  0  0  0
    0.5567   -0.3745    0.0000 C   0  0  0  0  0  0  0  0  0  0  0  0
   -0.0506    3.9579    0.0000 C   0  0  0  0  0  0  0  0  0  0  0  0
    4.0186    3.9377    0.0000 C   0  0  0  0  0  0  0  0  0  0  0  0
   -2.7230   -0.7187    0.0000 C   0  0  0  0  0  0  0  0  0  0  0  0
   -0.6984   -4.2414    0.0000 C   0  0  0  0  0  0  0  0  0  0  0  0
   -0.3745    5.3953    0.0000 C   0  0  0  0  0  0  0  0  0  0  0  0
    4.3223    5.3953    0.0000 C   0  0  0  0  0  0  0  0  0  0  0  0
   -4.0996   -1.1236    0.0000 C   0  0  0  0  0  0  0  0  0  0  0  0
   -1.7512   -5.2333    0.0000 C   0  0  0  0  0  0  0  0  0  0  0  0
    3.4113    2.1359    0.0000 C   0  0  0  0  0  0  0  0  0  0  0  0
    0.5567    2.1561    0.0000 C   0  0  0  0  0  0  0  0  0  0  0  0
    0.5365   -2.8849    0.0000 C   0  0  0  0  0  0  0  0  0  0  0  0
   -0.8807   -0.3543    0.0000 C   0  0  0  0  0  0  0  0  0  0  0  0
   -0.0911    6.1444    0.0000 C   0  0  0  0  0  0  0  0  0  0  0  0
    5.1524    5.2131    0.0000 C   0  0  0  0  0  0  0  0  0  0  0  0
   -1.1438    5.2131    0.0000 C   0  0  0  0  0  0  0  0  0  0  0  0
    4.0996    6.1647    0.0000 C   0  0  0  0  0  0  0  0  0  0  0  0
   -4.3426   -0.3543    0.0000 C   0  0  0  0  0  0  0  0  0  0  0  0
   -2.5408   -5.4156    0.0000 C   0  0  0  0  0  0  0  0  0  0  0  0
   -4.6260   -1.7512    0.0000 C   0  0  0  0  0  0  0  0  0  0  0  0
   -1.2046   -5.8812    0.0000 C   0  0  0  0  0  0  0  0  0  0  0  0
   -0.6377    6.7720    0.0000 C   0  0  0  0  0  0  0  0  0  0  0  0
    5.6990    5.8204    0.0000 C   0  0  0  0  0  0  0  0  0  0  0  0
   -1.6905    5.8002    0.0000 C   0  0  0  0  0  0  0  0  0  0  0  0
    4.6260    6.7315    0.0000 C   0  0  0  0  0  0  0  0  0  0  0  0
   -5.1119   -0.1924    0.0000 C   0  0  0  0  0  0  0  0  0  0  0  0
   -2.8040   -6.1849    0.0000 C   0  0  0  0  0  0  0  0  0  0  0  0
   -5.3953   -1.5893    0.0000 C   0  0  0  0  0  0  0  0  0  0  0  0
   -1.4475   -6.6302    0.0000 C   0  0  0  0  0  0  0  0  0  0  0  0
   -1.4475    6.5898    0.0000 C   0  0  0  0  0  0  0  0  0  0  0  0
    5.4358    6.5898    0.0000 C   0  0  0  0  0  0  0  0  0  0  0  0
   -5.6990   -0.7795    0.0000 C   0  0  0  0  0  0  0  0  0  0  0  0
   -2.2573   -6.7720    0.0000 C   0  0  0  0  0  0  0  0  0  0  0  0
  1 34  1  0  0  0  0
  1 35  1  0  0  0  0
  2  8  1  0  0  0  0
  2  9  1  0  0  0  0
  2 16  1  0  0  0  0
  3 10  1  0  0  0  0
  3 11  1  0  0  0  0
  3 17  1  0  0  0  0
  4 48  3  0  0  0  0
  5 49  3  0  0  0  0
  6 50  3  0  0  0  0
  7 51  3  0  0  0  0
  8 13  2  0  0  0  0
  8 27  1  0  0  0  0
  9 12  2  0  0  0  0
  9 26  1  0  0  0  0
 10 14  2  0  0  0  0
 10 28  1  0  0  0  0
 11 15  2  0  0  0  0
 11 29  1  0  0  0  0
 12 13  1  0  0  0  0
 12 22  1  0  0  0  0
 13 23  1  0  0  0  0
 14 15  1  0  0  0  0
 14 24  1  0  0  0  0
 15 25  1  0  0  0  0
 16 18  2  0  0  0  0
 16 19  1  0  0  0  0
 17 20  1  0  0  0  0
 17 21  1  0  0  0  0
 18 36  1  0  0  0  0
 18 48  1  0  0  0  0
 19 37  2  0  0  0  0
 19 49  1  0  0  0  0
 20 38  2  0  0  0  0
 20 50  1  0  0  0  0
 21 39  1  0  0  0  0
 21 51  1  0  0  0  0
 22 30  2  0  0  0  0
 23 31  2  0  0  0  0
 24 32  2  0  0  0  0
 25 33  2  0  0  0  0
 26 40  2  0  0  0  0
 27 41  2  0  0  0  0
 28 42  2  0  0  0  0
 29 43  2  0  0  0  0
 30 40  1  0  0  0  0
 30 44  1  0  0  0  0
 31 41  1  0  0  0  0
 31 45  1  0  0  0  0
 32 42  1  0  0  0  0
 32 46  1  0  0  0  0
 33 43  1  0  0  0  0
 33 47  1  0  0  0  0
 34 36  2  0  0  0  0
 34 37  1  0  0  0  0
 35 38  1  0  0  0  0
 35 39  2  0  0  0  0
 44 52  2  0  0  0  0
 44 54  1  0  0  0  0
 45 53  2  0  0  0  0
 45 55  1  0  0  0  0
 46 56  2  0  0  0  0
 46 58  1  0  0  0  0
 47 57  2  0  0  0  0
 47 59  1  0  0  0  0
 52 60  1  0  0  0  0
 53 61  1  0  0  0  0
 54 62  2  0  0  0  0
 55 63  2  0  0  0  0
 56 64  1  0  0  0  0
 57 65  1  0  0  0  0
 58 66  2  0  0  0  0
 59 67  2  0  0  0  0
 60 68  2  0  0  0  0
 61 69  2  0  0  0  0
 62 68  1  0  0  0  0
 63 69  1  0  0  0  0
 64 70  2  0  0  0  0
 65 71  2  0  0  0  0
 66 70  1  0  0  0  0
 67 71  1  0  0  0  0
M  END
> <PUBCHEM_COMPOUND_ID_TYPE>
0

> <PUBCHEM_TOTAL_CHARGE>
0

> <PUBCHEM_SUBSTANCE_ID>
310949273

> <PUBCHEM_SUBSTANCE_VERSION>
1

> <PUBCHEM_EXT_DATASOURCE_NAME>
4488

> <PUBCHEM_EXT_DATASOURCE_REGID>
SCHEMBL16127463

> <PUBCHEM_SUBSTANCE_COMMENT>
InChI=1S/C64H38N6S/c65-37-49-29-53(30-50(38-66)63(49)69-59-25-21-45(41-13-5-1-6-14-41)33-55(59)56-34-46(22-26-60(56)69)42-15-7-2-8-16-42)71-54-31-51(39-67)64(52(32-54)40-68)70-61-27-23-47(43-17-9-3-10-18-43)35-57(61)58-36-48(24-28-62(58)70)44-19-11-4-12-20-44/h1-36,49,63H
InChIKey=RQFVXELYPWDLBS-UHFFFAOYSA-N

> <PUBCHEM_SUBSTANCE_SYNONYM>
SCHEMBL16127463

> <PUBCHEM_XREF_EXT_ID>
SCHEMBL16127463

> <PUBCHEM_EXT_DATASOURCE_URL>
https://www.surechembl.org/

> <PUBCHEM_EXT_SUBSTANCE_URL>
https://www.surechembl.org/chemical/SCHEMBL16127463

> <PUBCHEM_CID_ASSOCIATIONS>
117614759  1

> <PUBCHEM_COORDINATE_TYPE>
1
3

$$$$
