310931213
  -OEChem-07211613022D

 17 18  0     1  0  0  0  0  0999 V2000
    0.0000   -3.5326    0.0000 Br  0  0  0  0  0  0  0  0  0  0  0  0
    3.2772   -2.1068    0.0000 N   0  0  0  0  0  0  0  0  0  0  0  0
    1.2343   -1.4258    0.0000 N   0  0  0  0  0  0  0  0  0  0  0  0
    3.2985   -3.5326    0.0000 N   0  0  0  0  0  0  0  0  0  0  0  0
    2.0642   -2.8303    0.0000 C   0  0  0  0  0  0  0  0  0  0  0  0
    2.4685   -2.1281    0.0000 C   0  0  3  0  0  0  0  0  0  0  0  0
    2.0429   -1.4045    0.0000 C   0  0  0  0  0  0  0  0  0  0  0  0
    2.4685   -3.5326    0.0000 C   0  0  0  0  0  0  0  0  0  0  0  0
    1.2343   -2.8303    0.0000 C   0  0  0  0  0  0  0  0  0  0  0  0
    0.8299   -3.5326    0.0000 C   0  0  0  0  0  0  0  0  0  0  0  0
    2.0642   -4.2561    0.0000 C   0  0  0  0  0  0  0  0  0  0  0  0
    2.4685   -0.7023    0.0000 C   0  0  0  0  0  0  0  0  0  0  0  0
    1.2343   -4.2561    0.0000 C   0  0  0  0  0  0  0  0  0  0  0  0
    0.7874   -0.7235    0.0000 C   0  0  0  0  0  0  0  0  0  0  0  0
    2.0004    0.0000    0.0000 C   0  0  0  0  0  0  0  0  0  0  0  0
    1.1917   -0.0213    0.0000 C   0  0  0  0  0  0  0  0  0  0  0  0
    3.6816   -1.4045    0.0000 C   0  0  0  0  0  0  0  0  0  0  0  0
  1 10  1  0  0  0  0
  2  6  1  0  0  0  0
  2 17  1  0  0  0  0
  3  7  1  0  0  0  0
  3 14  2  0  0  0  0
  4  8  1  0  0  0  0
  5  6  1  0  0  0  0
  5  8  1  0  0  0  0
  5  9  2  0  0  0  0
  6  7  1  0  0  0  0
  7 12  2  0  0  0  0
  8 11  2  0  0  0  0
  9 10  1  0  0  0  0
 10 13  2  0  0  0  0
 11 13  1  0  0  0  0
 12 15  1  0  0  0  0
 14 16  1  0  0  0  0
 15 16  2  0  0  0  0
M  END
> <PUBCHEM_COMPOUND_ID_TYPE>
0

> <PUBCHEM_TOTAL_CHARGE>
0

> <PUBCHEM_SUBSTANCE_ID>
310931213

> <PUBCHEM_SUBSTANCE_VERSION>
1

> <PUBCHEM_EXT_DATASOURCE_NAME>
4488

> <PUBCHEM_EXT_DATASOURCE_REGID>
SCHEMBL16108522

> <PUBCHEM_SUBSTANCE_COMMENT>
InChI=1S/C13H14BrN3/c1-16-13(12-4-2-3-7-17-12)10-8-9(14)5-6-11(10)15/h2-8,13,16H,15H2,1H3
InChIKey=FRFIBFMIQDJOBI-UHFFFAOYSA-N

> <PUBCHEM_SUBSTANCE_SYNONYM>
SCHEMBL16108522

> <PUBCHEM_XREF_EXT_ID>
SCHEMBL16108522

> <PUBCHEM_EXT_DATASOURCE_URL>
https://www.surechembl.org/

> <PUBCHEM_EXT_SUBSTANCE_URL>
https://www.surechembl.org/chemical/SCHEMBL16108522

> <PUBCHEM_CID_ASSOCIATIONS>
117600061  1

> <PUBCHEM_COORDINATE_TYPE>
1
3

$$$$
