310938277
  -OEChem-07211613022D

 39 43  0     1  0  0  0  0  0999 V2000
    5.0335   -5.3032    0.0000 O   0  0  0  0  0  0  0  0  0  0  0  0
    7.9099   -5.3032    0.0000 O   0  0  0  0  0  0  0  0  0  0  0  0
    7.2357   -2.6066    0.0000 N   0  0  3  0  0  0  0  0  0  0  0  0
    6.4268   -5.3032    0.0000 N   0  0  0  0  0  0  0  0  0  0  0  0
    2.9212   -2.4718    0.0000 N   0  0  0  0  0  0  0  0  0  0  0  0
    2.1572   -1.2134    0.0000 N   0  0  0  0  0  0  0  0  0  0  0  0
    8.5840   -6.5616    0.0000 N   0  0  0  0  0  0  0  0  0  0  0  0
    0.7191   -0.4045    0.0000 N   0  0  0  0  0  0  0  0  0  0  0  0
    6.4717   -3.6403    0.0000 C   0  0  0  0  0  0  0  0  0  0  0  0
    6.4717   -2.8314    0.0000 C   0  0  0  0  0  0  0  0  0  0  0  0
    5.7526   -4.0897    0.0000 C   0  0  0  0  0  0  0  0  0  0  0  0
    5.0335   -2.8314    0.0000 C   0  0  0  0  0  0  0  0  0  0  0  0
    5.7526   -2.4269    0.0000 C   0  0  0  0  0  0  0  0  0  0  0  0
    5.0335   -3.6403    0.0000 C   0  0  0  0  0  0  0  0  0  0  0  0
    7.2357   -3.9100    0.0000 C   0  0  0  0  0  0  0  0  0  0  0  0
    5.7526   -4.8987    0.0000 C   0  0  0  0  0  0  0  0  0  0  0  0
    4.3145   -2.4269    0.0000 C   0  0  0  0  0  0  0  0  0  0  0  0
    7.6851   -3.2359    0.0000 C   0  0  0  0  0  0  0  0  0  0  0  0
    7.5054   -1.7977    0.0000 C   0  0  0  0  0  0  0  0  0  0  0  0
    3.5954   -2.8314    0.0000 C   0  0  0  0  0  0  0  0  0  0  0  0
    4.3145   -1.6179    0.0000 C   0  0  0  0  0  0  0  0  0  0  0  0
    2.8763   -1.6179    0.0000 C   0  0  0  0  0  0  0  0  0  0  0  0
    7.1458   -6.5166    0.0000 C   0  0  0  0  0  0  0  0  0  0  0  0
    6.4268   -6.1121    0.0000 C   0  0  0  0  0  0  0  0  0  0  0  0
    3.5954   -1.2134    0.0000 C   0  0  0  0  0  0  0  0  0  0  0  0
    7.1908   -7.3706    0.0000 C   0  0  0  0  0  0  0  0  0  0  0  0
    7.8649   -6.1571    0.0000 C   0  0  0  0  0  0  0  0  0  0  0  0
    7.8649   -7.7750    0.0000 C   0  0  0  0  0  0  0  0  0  0  0  0
    8.5840   -7.3706    0.0000 C   0  0  0  0  0  0  0  0  0  0  0  0
    2.1572   -0.4045    0.0000 C   0  0  0  0  0  0  0  0  0  0  0  0
    1.4381   -1.6629    0.0000 C   0  0  0  0  0  0  0  0  0  0  0  0
    6.9211   -1.2134    0.0000 C   0  0  0  0  0  0  0  0  0  0  0  0
    6.4717   -7.7750    0.0000 C   0  0  0  0  0  0  0  0  0  0  0  0
    0.7191   -1.2584    0.0000 C   0  0  0  0  0  0  0  0  0  0  0  0
    1.4381    0.0000    0.0000 C   0  0  0  0  0  0  0  0  0  0  0  0
    9.3030   -7.7750    0.0000 C   0  0  0  0  0  0  0  0  0  0  0  0
    6.4717   -8.5840    0.0000 C   0  0  0  0  0  0  0  0  0  0  0  0
    0.0000   -0.0450    0.0000 C   0  0  0  0  0  0  0  0  0  0  0  0
    7.1908   -8.9884    0.0000 C   0  0  0  0  0  0  0  0  0  0  0  0
  1 16  2  0  0  0  0
  2 27  2  0  0  0  0
  3 10  1  0  0  0  0
  3 18  1  0  0  0  0
  3 19  1  0  0  0  0
  4 16  1  0  0  0  0
  4 24  1  0  0  0  0
  5 20  1  0  0  0  0
  5 22  2  0  0  0  0
  6 22  1  0  0  0  0
  6 30  1  0  0  0  0
  6 31  1  0  0  0  0
  7 27  1  0  0  0  0
  7 29  1  0  0  0  0
  8 34  1  0  0  0  0
  8 35  1  0  0  0  0
  8 38  1  0  0  0  0
  9 10  2  0  0  0  0
  9 11  1  0  0  0  0
  9 15  1  0  0  0  0
 10 13  1  0  0  0  0
 11 14  2  0  0  0  0
 11 16  1  0  0  0  0
 12 13  2  0  0  0  0
 12 14  1  0  0  0  0
 12 17  1  0  0  0  0
 15 18  1  0  0  0  0
 17 20  2  0  0  0  0
 17 21  1  0  0  0  0
 19 32  1  0  0  0  0
 21 25  2  0  0  0  0
 22 25  1  0  0  0  0
 23 24  1  0  0  0  0
 23 26  2  0  0  0  0
 23 27  1  0  0  0  0
 26 28  1  0  0  0  0
 26 33  1  0  0  0  0
 28 29  2  0  0  0  0
 29 36  1  0  0  0  0
 30 35  1  0  0  0  0
 31 34  1  0  0  0  0
 33 37  1  0  0  0  0
 37 39  1  0  0  0  0
M  END
> <PUBCHEM_COMPOUND_ID_TYPE>
0

> <PUBCHEM_TOTAL_CHARGE>
0

> <PUBCHEM_SUBSTANCE_ID>
310938277

> <PUBCHEM_SUBSTANCE_VERSION>
1

> <PUBCHEM_EXT_DATASOURCE_NAME>
4488

> <PUBCHEM_EXT_DATASOURCE_REGID>
SCHEMBL16116147

> <PUBCHEM_SUBSTANCE_COMMENT>
InChI=1S/C31H40N6O2/c1-5-7-22-16-21(3)34-31(39)27(22)20-33-30(38)26-17-24(18-28-25(26)10-11-36(28)6-2)23-8-9-29(32-19-23)37-14-12-35(4)13-15-37/h8-9,16-19H,5-7,10-15,20H2,1-4H3,(H,33,38)(H,34,39)
InChIKey=KYHUIAWMXLJECW-UHFFFAOYSA-N

> <PUBCHEM_SUBSTANCE_SYNONYM>
SCHEMBL16116147

> <PUBCHEM_XREF_EXT_ID>
SCHEMBL16116147

> <PUBCHEM_EXT_DATASOURCE_URL>
https://www.surechembl.org/

> <PUBCHEM_EXT_SUBSTANCE_URL>
https://www.surechembl.org/chemical/SCHEMBL16116147

> <PUBCHEM_CID_ASSOCIATIONS>
86273634  1

> <PUBCHEM_COORDINATE_TYPE>
1
3

$$$$
