310946248
  -OEChem-07211613022D

 23 25  0     1  0  0  0  0  0999 V2000
    3.4053   -9.0851    0.0000 S   0  0  0  0  0  0  0  0  0  0  0  0
    2.5803   -9.0851    0.0000 O   0  0  0  0  0  0  0  0  0  0  0  0
   -0.2776   -9.0851    0.0000 O   0  0  0  0  0  0  0  0  0  0  0  0
   -1.7065   -6.6101    0.0000 O   0  0  0  0  0  0  0  0  0  0  0  0
   -0.2776   -5.7851    0.0000 O   0  0  0  0  0  0  0  0  0  0  0  0
    3.8178   -9.7996    0.0000 O   0  0  0  0  0  0  0  0  0  0  0  0
    3.8178   -8.3707    0.0000 O   0  0  0  0  0  0  0  0  0  0  0  0
    4.2303   -9.0851    0.0000 O   0  0  0  0  0  0  0  0  0  0  0  0
    0.4369   -7.8476    0.0000 N   0  0  0  0  0  0  0  0  0  0  0  0
    1.8659   -8.6726    0.0000 N   0  0  0  0  0  0  0  0  0  0  0  0
   -0.9920   -7.0226    0.0000 N   0  0  0  0  0  0  0  0  0  0  0  0
   -3.7188   -7.1935    0.0000 N   0  0  0  0  0  0  0  0  0  0  0  0
    0.4369   -8.6726    0.0000 C   0  0  0  0  0  0  0  0  0  0  0  0
    1.8659   -7.8476    0.0000 C   0  0  3  0  0  0  0  0  0  0  0  0
    0.4369   -7.0226    0.0000 C   0  0  3  0  0  0  0  0  0  0  0  0
    1.1514   -8.2601    0.0000 C   0  0  0  0  0  0  0  0  0  0  0  0
    1.8659   -7.0226    0.0000 C   0  0  0  0  0  0  0  0  0  0  0  0
    1.1514   -6.6101    0.0000 C   0  0  0  0  0  0  0  0  0  0  0  0
   -0.2776   -6.6101    0.0000 C   0  0  0  0  0  0  0  0  0  0  0  0
   -3.1354   -6.6101    0.0000 C   0  0  0  0  0  0  0  0  0  0  0  0
   -2.8197   -5.8479    0.0000 C   0  0  0  0  0  0  0  0  0  0  0  0
   -3.6377   -5.9556    0.0000 C   0  0  0  0  0  0  0  0  0  0  0  0
   -2.4210   -7.0226    0.0000 C   0  0  0  0  0  0  0  0  0  0  0  0
  1  2  1  0  0  0  0
  1  6  2  0  0  0  0
  1  7  2  0  0  0  0
  1  8  1  0  0  0  0
  2 10  1  0  0  0  0
  3 13  2  0  0  0  0
  4 11  1  0  0  0  0
  4 23  1  0  0  0  0
  5 19  2  0  0  0  0
  9 13  1  0  0  0  0
  9 15  1  0  0  0  0
  9 16  1  0  0  0  0
 10 13  1  0  0  0  0
 10 14  1  0  0  0  0
 11 19  1  0  0  0  0
 12 20  1  0  0  0  0
 14 16  1  6  0  0  0
 14 17  1  0  0  0  0
 15 18  1  0  0  0  0
 15 19  1  6  0  0  0
 17 18  1  0  0  0  0
 20 21  1  0  0  0  0
 20 22  1  0  0  0  0
 20 23  1  0  0  0  0
 21 22  1  0  0  0  0
M  END
> <PUBCHEM_COMPOUND_ID_TYPE>
0

> <PUBCHEM_TOTAL_CHARGE>
0

> <PUBCHEM_SUBSTANCE_ID>
310946248

> <PUBCHEM_SUBSTANCE_VERSION>
1

> <PUBCHEM_EXT_DATASOURCE_NAME>
4488

> <PUBCHEM_EXT_DATASOURCE_REGID>
SCHEMBL16124366

> <PUBCHEM_SUBSTANCE_COMMENT>
InChI=1S/C11H18N4O7S/c12-11(3-4-11)6-21-13-9(16)8-2-1-7-5-14(8)10(17)15(7)22-23(18,19)20/h7-8H,1-6,12H2,(H,13,16)(H,18,19,20)/t7-,8+/m1/s1
InChIKey=POFHGTOAJGYWFR-SFYZADRCSA-N

> <PUBCHEM_SUBSTANCE_SYNONYM>
SCHEMBL16124366

> <PUBCHEM_XREF_EXT_ID>
SCHEMBL16124366

> <PUBCHEM_EXT_DATASOURCE_URL>
https://www.surechembl.org/

> <PUBCHEM_EXT_SUBSTANCE_URL>
https://www.surechembl.org/chemical/SCHEMBL16124366

> <PUBCHEM_CID_ASSOCIATIONS>
117612196  1

> <PUBCHEM_COORDINATE_TYPE>
1
3

> <PUBCHEM_BONDANNOTATIONS>
14  16  6
15  19  6

$$$$
