310931650
  -OEChem-07211613022D

 15 16  0     1  0  0  0  0  0999 V2000
    0.4128    0.0000    0.0000 O   0  0  0  0  0  0  0  0  0  0  0  0
    1.5398   -1.9526    0.0000 O   0  0  0  0  0  0  0  0  0  0  0  0
    2.2542   -0.7143    0.0000 O   0  0  0  0  0  0  0  0  0  0  0  0
    0.8255   -0.7143    0.0000 C   0  0  3  0  0  0  0  0  0  0  0  0
    0.0000   -0.7143    0.0000 C   0  0  0  0  0  0  0  0  0  0  0  0
    1.5398   -1.1271    0.0000 C   0  0  0  0  0  0  0  0  0  0  0  0
    3.5718   -0.3016    0.0000 C   0  0  0  0  0  0  0  0  0  0  0  0
    0.7143   -0.3175    0.0000 C   0  0  0  0  0  0  0  0  0  0  0  0
    0.6191   -1.5081    0.0000 C   0  0  0  0  0  0  0  0  0  0  0  0
    1.4287   -0.7143    0.0000 C   0  0  0  0  0  0  0  0  0  0  0  0
    2.8574   -0.7143    0.0000 C   0  0  0  0  0  0  0  0  0  0  0  0
    2.1430   -0.3016    0.0000 C   0  0  0  0  0  0  0  0  0  0  0  0
    2.2542   -2.3495    0.0000 C   0  0  0  0  0  0  0  0  0  0  0  0
    2.9686   -1.9367    0.0000 C   0  0  0  0  0  0  0  0  0  0  0  0
    2.2542   -3.1749    0.0000 C   0  0  0  0  0  0  0  0  0  0  0  0
  1  4  1  0  0  0  0
  1  5  1  0  0  0  0
  2  6  1  0  0  0  0
  2 13  1  0  0  0  0
  3  6  2  0  0  0  0
  4  5  1  0  0  0  0
  4  6  1  0  0  0  0
  4  9  1  0  0  0  0
  5  7  1  0  0  0  0
  5  8  1  0  0  0  0
  7 11  1  0  0  0  0
  8 10  1  0  0  0  0
 10 12  1  0  0  0  0
 11 12  1  0  0  0  0
 13 14  1  0  0  0  0
 13 15  1  0  0  0  0
M  END
> <PUBCHEM_COMPOUND_ID_TYPE>
0

> <PUBCHEM_TOTAL_CHARGE>
0

> <PUBCHEM_SUBSTANCE_ID>
310931650

> <PUBCHEM_SUBSTANCE_VERSION>
1

> <PUBCHEM_EXT_DATASOURCE_NAME>
4488

> <PUBCHEM_EXT_DATASOURCE_REGID>
SCHEMBL16108976

> <PUBCHEM_SUBSTANCE_COMMENT>
InChI=1S/C12H20O3/c1-9(2)14-10(13)11(3)12(15-11)7-5-4-6-8-12/h9H,4-8H2,1-3H3
InChIKey=IUGNCXMGDQAUIC-UHFFFAOYSA-N

> <PUBCHEM_SUBSTANCE_SYNONYM>
SCHEMBL16108976

> <PUBCHEM_XREF_EXT_ID>
SCHEMBL16108976

> <PUBCHEM_EXT_DATASOURCE_URL>
https://www.surechembl.org/

> <PUBCHEM_EXT_SUBSTANCE_URL>
https://www.surechembl.org/chemical/SCHEMBL16108976

> <PUBCHEM_CID_ASSOCIATIONS>
117600360  1

> <PUBCHEM_COORDINATE_TYPE>
1
3

$$$$
