310948811
  -OEChem-07211613022D

 32 34  0     1  0  0  0  0  0999 V2000
   -1.6696   -0.2130    0.0000 F   0  0  0  0  0  0  0  0  0  0  0  0
   -2.0819    1.8070    0.0000 O   0  0  0  0  0  0  0  0  0  0  0  0
    3.3736    2.6040    0.0000 O   0  0  0  0  0  0  0  0  0  0  0  0
    0.4741    2.6865    0.0000 O   0  0  0  0  0  0  0  0  0  0  0  0
   -3.1949    0.1855    0.0000 O   0  0  0  0  0  0  0  0  0  0  0  0
   -3.9094    1.4360    0.0000 O   0  0  0  0  0  0  0  0  0  0  0  0
    1.1887   -0.2130    0.0000 N   0  0  3  0  0  0  0  0  0  0  0  0
    1.1887    1.4498    0.0000 N   0  0  0  0  0  0  0  0  0  0  0  0
    1.9032    2.7002    0.0000 N   0  0  0  0  0  0  0  0  0  0  0  0
    3.9094    1.9994    0.0000 N   0  0  0  0  0  0  0  0  0  0  0  0
    0.4604    0.2130    0.0000 C   0  0  0  0  0  0  0  0  0  0  0  0
    0.4741    1.0375    0.0000 C   0  0  0  0  0  0  0  0  0  0  0  0
   -0.9413    1.0375    0.0000 C   0  0  0  0  0  0  0  0  0  0  0  0
   -0.9551    0.1993    0.0000 C   0  0  0  0  0  0  0  0  0  0  0  0
   -0.2268   -0.2130    0.0000 C   0  0  0  0  0  0  0  0  0  0  0  0
   -0.2542    1.4360    0.0000 C   0  0  0  0  0  0  0  0  0  0  0  0
    1.1887   -1.0512    0.0000 C   0  0  0  0  0  0  0  0  0  0  0  0
    1.8895    0.1993    0.0000 C   0  0  0  0  0  0  0  0  0  0  0  0
    1.2024    2.2742    0.0000 C   0  0  0  0  0  0  0  0  0  0  0  0
    0.4741   -1.4635    0.0000 C   0  0  0  0  0  0  0  0  0  0  0  0
    1.8895   -1.4635    0.0000 C   0  0  0  0  0  0  0  0  0  0  0  0
    2.6178    2.2879    0.0000 C   0  0  0  0  0  0  0  0  0  0  0  0
    2.6178   -0.2130    0.0000 C   0  0  0  0  0  0  0  0  0  0  0  0
   -3.2361    1.0512    0.0000 C   0  0  0  0  0  0  0  0  0  0  0  0
    2.7002    1.4635    0.0000 C   0  0  0  0  0  0  0  0  0  0  0  0
    0.4741   -2.2879    0.0000 C   0  0  0  0  0  0  0  0  0  0  0  0
    1.8895   -2.3017    0.0000 C   0  0  0  0  0  0  0  0  0  0  0  0
    3.4972    1.2711    0.0000 C   0  0  0  0  0  0  0  0  0  0  0  0
    1.1887   -2.7002    0.0000 C   0  0  0  0  0  0  0  0  0  0  0  0
    3.3461    0.1855    0.0000 C   0  0  0  0  0  0  0  0  0  0  0  0
    2.6315   -1.0650    0.0000 C   0  0  0  0  0  0  0  0  0  0  0  0
    3.8545    0.5153    0.0000 C   0  0  0  0  0  0  0  0  0  0  0  0
  1 14  1  0  0  0  0
  2 13  1  0  0  0  0
  2 24  1  0  0  0  0
  3 10  1  0  0  0  0
  3 22  1  0  0  0  0
  4 19  2  0  0  0  0
  5 24  2  0  0  0  0
  6 24  1  0  0  0  0
  7 11  1  0  0  0  0
  7 17  1  0  0  0  0
  7 18  1  0  0  0  0
  8 12  1  0  0  0  0
  8 19  1  0  0  0  0
  9 19  1  0  0  0  0
  9 22  1  0  0  0  0
 10 28  2  0  0  0  0
 11 12  1  0  0  0  0
 11 15  2  0  0  0  0
 12 16  2  0  0  0  0
 13 14  2  0  0  0  0
 13 16  1  0  0  0  0
 14 15  1  0  0  0  0
 17 20  1  0  0  0  0
 17 21  1  0  0  0  0
 18 23  1  0  0  0  0
 20 26  1  0  0  0  0
 21 27  1  0  0  0  0
 22 25  2  0  0  0  0
 23 30  1  0  0  0  0
 23 31  1  0  0  0  0
 25 28  1  0  0  0  0
 26 29  1  0  0  0  0
 27 29  1  0  0  0  0
 28 32  1  0  0  0  0
M  END
> <PUBCHEM_COMPOUND_ID_TYPE>
0

> <PUBCHEM_TOTAL_CHARGE>
0

> <PUBCHEM_SUBSTANCE_ID>
310948811

> <PUBCHEM_SUBSTANCE_VERSION>
1

> <PUBCHEM_EXT_DATASOURCE_NAME>
4488

> <PUBCHEM_EXT_DATASOURCE_REGID>
SCHEMBL16126995

> <PUBCHEM_SUBSTANCE_COMMENT>
InChI=1S/C22H29FN4O5/c1-13(2)12-27(15-7-5-4-6-8-15)18-10-16(23)19(31-22(29)30)11-17(18)24-21(28)25-20-9-14(3)26-32-20/h9-11,13,15H,4-8,12H2,1-3H3,(H,29,30)(H2,24,25,28)
InChIKey=UHBHEGAUVYFJSW-UHFFFAOYSA-N

> <PUBCHEM_SUBSTANCE_SYNONYM>
SCHEMBL16126995

> <PUBCHEM_XREF_EXT_ID>
SCHEMBL16126995

> <PUBCHEM_EXT_DATASOURCE_URL>
https://www.surechembl.org/

> <PUBCHEM_EXT_SUBSTANCE_URL>
https://www.surechembl.org/chemical/SCHEMBL16126995

> <PUBCHEM_CID_ASSOCIATIONS>
117614350  1

> <PUBCHEM_COORDINATE_TYPE>
1
3

$$$$
