310938212
  -OEChem-07211613022D

 16 15  0     1  0  0  0  0  0999 V2000
    3.6606   -2.3925    0.0000 O   0  0  0  0  0  0  0  0  0  0  0  0
    2.2490   -2.4164    0.0000 O   0  0  0  0  0  0  0  0  0  0  0  0
    3.6127    0.0000    0.0000 O   0  0  0  0  0  0  0  0  0  0  0  0
    4.2826   -1.1724    0.0000 O   0  0  0  0  0  0  0  0  0  0  0  0
    0.0000   -1.0527    0.0000 O   0  0  0  0  0  0  0  0  0  0  0  0
    2.9189   -0.3589    0.0000 N   0  0  0  0  0  0  0  0  0  0  0  0
    2.9428   -1.1724    0.0000 C   0  0  3  0  0  0  0  0  0  0  0  0
    2.9428   -1.9858    0.0000 C   0  0  0  0  0  0  0  0  0  0  0  0
    3.6127   -0.7895    0.0000 C   0  0  0  0  0  0  0  0  0  0  0  0
    2.2250   -0.8134    0.0000 C   0  0  0  0  0  0  0  0  0  0  0  0
    1.5073   -1.2680    0.0000 C   0  0  0  0  0  0  0  0  0  0  0  0
    3.6845   -3.2060    0.0000 C   0  0  0  0  0  0  0  0  0  0  0  0
    0.7417   -0.7178    0.0000 C   0  0  0  0  0  0  0  0  0  0  0  0
    4.4023   -3.6127    0.0000 C   0  0  0  0  0  0  0  0  0  0  0  0
    4.4023   -4.4501    0.0000 C   0  0  0  0  0  0  0  0  0  0  0  0
    5.1679   -4.7851    0.0000 C   0  0  0  0  0  0  0  0  0  0  0  0
  1  8  1  0  0  0  0
  1 12  1  0  0  0  0
  2  8  2  0  0  0  0
  3  9  2  0  0  0  0
  4  9  1  0  0  0  0
  5 13  2  0  0  0  0
  6  7  1  0  0  0  0
  7  8  1  0  0  0  0
  7  9  1  0  0  0  0
  7 10  1  0  0  0  0
 10 11  1  0  0  0  0
 11 13  1  0  0  0  0
 12 14  1  0  0  0  0
 14 15  1  0  0  0  0
 15 16  1  0  0  0  0
M  END
> <PUBCHEM_COMPOUND_ID_TYPE>
0

> <PUBCHEM_TOTAL_CHARGE>
0

> <PUBCHEM_SUBSTANCE_ID>
310938212

> <PUBCHEM_SUBSTANCE_VERSION>
1

> <PUBCHEM_EXT_DATASOURCE_NAME>
4488

> <PUBCHEM_EXT_DATASOURCE_REGID>
SCHEMBL16116069

> <PUBCHEM_SUBSTANCE_COMMENT>
InChI=1S/C10H17NO5/c1-2-3-7-16-9(15)10(11,8(13)14)5-4-6-12/h6H,2-5,7,11H2,1H3,(H,13,14)
InChIKey=ZDKKBRGUNQPDMQ-UHFFFAOYSA-N

> <PUBCHEM_SUBSTANCE_SYNONYM>
SCHEMBL16116069

> <PUBCHEM_XREF_EXT_ID>
SCHEMBL16116069

> <PUBCHEM_EXT_DATASOURCE_URL>
https://www.surechembl.org/

> <PUBCHEM_EXT_SUBSTANCE_URL>
https://www.surechembl.org/chemical/SCHEMBL16116069

> <PUBCHEM_CID_ASSOCIATIONS>
117605739  1

> <PUBCHEM_COORDINATE_TYPE>
1
3

$$$$
