310948342
  -OEChem-07211613022D

 16 18  0     1  0  0  0  0  0999 V2000
   -2.8433    0.8161    0.0000 Br  0  0  0  0  0  0  0  0  0  0  0  0
    0.4037   -0.7130    0.0000 S   0  0  0  0  0  0  0  0  0  0  0  0
    1.0222   -1.2627    0.0000 O   0  0  0  0  0  0  0  0  0  0  0  0
    0.2319   -1.5204    0.0000 O   0  0  0  0  0  0  0  0  0  0  0  0
    0.8848   -0.0258    0.0000 N   0  0  3  0  0  0  0  0  0  0  0  0
   -0.4037   -0.4209    0.0000 C   0  0  0  0  0  0  0  0  0  0  0  0
   -0.3866    0.4037    0.0000 C   0  0  0  0  0  0  0  0  0  0  0  0
    0.3866    0.6614    0.0000 C   0  0  0  0  0  0  0  0  0  0  0  0
   -1.1081   -0.8504    0.0000 C   0  0  0  0  0  0  0  0  0  0  0  0
    1.7266   -0.0258    0.0000 C   0  0  0  0  0  0  0  0  0  0  0  0
   -1.1253    0.8161    0.0000 C   0  0  0  0  0  0  0  0  0  0  0  0
    2.1389    0.7302    0.0000 C   0  0  0  0  0  0  0  0  0  0  0  0
   -1.8297    0.4037    0.0000 C   0  0  0  0  0  0  0  0  0  0  0  0
   -1.8297   -0.4381    0.0000 C   0  0  0  0  0  0  0  0  0  0  0  0
    2.1561    1.5204    0.0000 C   0  0  0  0  0  0  0  0  0  0  0  0
    2.8433    1.1253    0.0000 C   0  0  0  0  0  0  0  0  0  0  0  0
  1 13  1  0  0  0  0
  2  3  2  0  0  0  0
  2  4  2  0  0  0  0
  2  5  1  0  0  0  0
  2  6  1  0  0  0  0
  5  8  1  0  0  0  0
  5 10  1  0  0  0  0
  6  7  1  0  0  0  0
  6  9  2  0  0  0  0
  7  8  1  0  0  0  0
  7 11  2  0  0  0  0
  9 14  1  0  0  0  0
 10 12  1  0  0  0  0
 11 13  1  0  0  0  0
 12 15  1  0  0  0  0
 12 16  1  0  0  0  0
 13 14  2  0  0  0  0
 15 16  1  0  0  0  0
M  END
> <PUBCHEM_COMPOUND_ID_TYPE>
0

> <PUBCHEM_TOTAL_CHARGE>
0

> <PUBCHEM_SUBSTANCE_ID>
310948342

> <PUBCHEM_SUBSTANCE_VERSION>
1

> <PUBCHEM_EXT_DATASOURCE_NAME>
4488

> <PUBCHEM_EXT_DATASOURCE_REGID>
SCHEMBL16126520

> <PUBCHEM_SUBSTANCE_COMMENT>
InChI=1S/C11H12BrNO2S/c12-10-3-4-11-9(5-10)7-13(16(11,14)15)6-8-1-2-8/h3-5,8H,1-2,6-7H2
InChIKey=CUKQUNMIXXRYCT-UHFFFAOYSA-N

> <PUBCHEM_SUBSTANCE_SYNONYM>
SCHEMBL16126520

> <PUBCHEM_XREF_EXT_ID>
SCHEMBL16126520

> <PUBCHEM_EXT_DATASOURCE_URL>
https://www.surechembl.org/

> <PUBCHEM_EXT_SUBSTANCE_URL>
https://www.surechembl.org/chemical/SCHEMBL16126520

> <PUBCHEM_CID_ASSOCIATIONS>
117613906  1

> <PUBCHEM_COORDINATE_TYPE>
1
3

$$$$
