310937589
  -OEChem-07211613022D

 18 19  0     1  0  0  0  0  0999 V2000
    0.0750    0.0000    0.0000 Br  0  0  0  0  0  0  0  0  0  0  0  0
    2.9501   -0.7250    0.0000 Cl  0  0  0  0  0  0  0  0  0  0  0  0
    1.6751   -2.8502    0.0000 N   0  0  3  0  0  0  0  0  0  0  0  0
    0.4750   -2.1501    0.0000 N   0  0  0  0  0  0  0  0  0  0  0  0
    1.2751   -2.1501    0.0000 C   0  0  0  0  0  0  0  0  0  0  0  0
    1.7001   -1.4251    0.0000 C   0  0  0  0  0  0  0  0  0  0  0  0
    1.2500   -3.5752    0.0000 C   0  0  0  0  0  0  0  0  0  0  0  0
    1.2751   -0.7250    0.0000 C   0  0  0  0  0  0  0  0  0  0  0  0
    0.4750   -0.7250    0.0000 C   0  0  0  0  0  0  0  0  0  0  0  0
    0.0250   -1.4251    0.0000 C   0  0  0  0  0  0  0  0  0  0  0  0
    2.5001   -2.8751    0.0000 C   0  0  0  0  0  0  0  0  0  0  0  0
    2.5252   -1.4251    0.0000 C   0  0  0  0  0  0  0  0  0  0  0  0
    1.6251   -4.3003    0.0000 C   0  0  0  0  0  0  0  0  0  0  0  0
    0.4250   -3.5752    0.0000 C   0  0  0  0  0  0  0  0  0  0  0  0
    1.2001   -5.0003    0.0000 C   0  0  0  0  0  0  0  0  0  0  0  0
    0.0000   -4.2752    0.0000 C   0  0  0  0  0  0  0  0  0  0  0  0
    0.3750   -5.0003    0.0000 C   0  0  0  0  0  0  0  0  0  0  0  0
    2.9252   -2.1501    0.0000 C   0  0  0  0  0  0  0  0  0  0  0  0
  1  9  1  0  0  0  0
  2 12  1  0  0  0  0
  3  5  1  0  0  0  0
  3  7  1  0  0  0  0
  3 11  1  0  0  0  0
  4  5  1  0  0  0  0
  4 10  2  0  0  0  0
  5  6  2  0  0  0  0
  6  8  1  0  0  0  0
  6 12  1  0  0  0  0
  7 13  1  0  0  0  0
  7 14  1  0  0  0  0
  8  9  2  0  0  0  0
  9 10  1  0  0  0  0
 11 18  1  0  0  0  0
 13 15  1  0  0  0  0
 14 16  1  0  0  0  0
 15 17  1  0  0  0  0
 16 17  1  0  0  0  0
M  END
> <PUBCHEM_COMPOUND_ID_TYPE>
0

> <PUBCHEM_TOTAL_CHARGE>
0

> <PUBCHEM_SUBSTANCE_ID>
310937589

> <PUBCHEM_SUBSTANCE_VERSION>
1

> <PUBCHEM_EXT_DATASOURCE_NAME>
4488

> <PUBCHEM_EXT_DATASOURCE_REGID>
SCHEMBL16115369

> <PUBCHEM_SUBSTANCE_COMMENT>
InChI=1S/C14H20BrClN2/c1-2-18(13-6-4-3-5-7-13)14-11(9-16)8-12(15)10-17-14/h8,10,13H,2-7,9H2,1H3
InChIKey=FNUNKICIJKOTGI-UHFFFAOYSA-N

> <PUBCHEM_SUBSTANCE_SYNONYM>
SCHEMBL16115369

> <PUBCHEM_XREF_EXT_ID>
SCHEMBL16115369

> <PUBCHEM_EXT_DATASOURCE_URL>
https://www.surechembl.org/

> <PUBCHEM_EXT_SUBSTANCE_URL>
https://www.surechembl.org/chemical/SCHEMBL16115369

> <PUBCHEM_CID_ASSOCIATIONS>
55199575  1

> <PUBCHEM_COORDINATE_TYPE>
1
3

$$$$
