310938444
  -OEChem-07211613022D

 34 38  0     1  0  0  0  0  0999 V2000
   -0.3195    1.8936    0.0000 F   0  0  0  0  0  0  0  0  0  0  0  0
    5.6264    1.6966    0.0000 O   0  0  0  0  0  0  0  0  0  0  0  0
    9.5217    0.6144    0.0000 O   0  0  0  0  0  0  0  0  0  0  0  0
    0.7846    0.6674    0.0000 N   0  0  0  0  0  0  0  0  0  0  0  0
    1.8465    1.6236    0.0000 N   0  0  0  0  0  0  0  0  0  0  0  0
    0.7846   -0.6674    0.0000 N   0  0  0  0  0  0  0  0  0  0  0  0
    1.5495    3.0213    0.0000 N   0  0  0  0  0  0  0  0  0  0  0  0
    2.9084    2.5797    0.0000 N   0  0  0  0  0  0  0  0  0  0  0  0
    7.3345    0.4161    0.0000 N   0  0  3  0  0  0  0  0  0  0  0  0
    0.0000    0.4125    0.0000 C   0  0  0  0  0  0  0  0  0  0  0  0
    1.0396    1.4521    0.0000 C   0  0  0  0  0  0  0  0  0  0  0  0
    0.0000   -0.4125    0.0000 C   0  0  0  0  0  0  0  0  0  0  0  0
    0.4875    2.0652    0.0000 C   0  0  0  0  0  0  0  0  0  0  0  0
    1.2696    0.0000    0.0000 C   0  0  0  0  0  0  0  0  0  0  0  0
    2.1015    2.4082    0.0000 C   0  0  0  0  0  0  0  0  0  0  0  0
   -0.7144    0.8250    0.0000 C   0  0  0  0  0  0  0  0  0  0  0  0
   -0.7144   -0.8250    0.0000 C   0  0  0  0  0  0  0  0  0  0  0  0
    0.7424    2.8498    0.0000 C   0  0  0  0  0  0  0  0  0  0  0  0
    3.4605    1.9666    0.0000 C   0  0  0  0  0  0  0  0  0  0  0  0
    4.8195    1.5251    0.0000 C   0  0  0  0  0  0  0  0  0  0  0  0
   -1.4290    0.4125    0.0000 C   0  0  0  0  0  0  0  0  0  0  0  0
    4.2674    2.1382    0.0000 C   0  0  0  0  0  0  0  0  0  0  0  0
   -1.4290   -0.4125    0.0000 C   0  0  0  0  0  0  0  0  0  0  0  0
    3.2055    1.1820    0.0000 C   0  0  0  0  0  0  0  0  0  0  0  0
    3.7576    0.5690    0.0000 C   0  0  0  0  0  0  0  0  0  0  0  0
    4.5645    0.7404    0.0000 C   0  0  0  0  0  0  0  0  0  0  0  0
    6.1785    1.0835    0.0000 C   0  0  3  0  0  0  0  0  0  0  0  0
    6.9989    1.1697    0.0000 C   0  0  0  0  0  0  0  0  0  0  0  0
    6.0069    0.2766    0.0000 C   0  0  0  0  0  0  0  0  0  0  0  0
    6.7215   -0.1359    0.0000 C   0  0  0  0  0  0  0  0  0  0  0  0
    3.5027   -0.2157    0.0000 C   0  0  0  0  0  0  0  0  0  0  0  0
    8.1415    0.2446    0.0000 C   0  0  0  0  0  0  0  0  0  0  0  0
    2.6957   -0.3872    0.0000 C   0  0  0  0  0  0  0  0  0  0  0  0
    8.7248    0.8279    0.0000 C   0  0  0  0  0  0  0  0  0  0  0  0
  1 13  1  0  0  0  0
  2 20  1  0  0  0  0
  2 27  1  0  0  0  0
  3 34  1  0  0  0  0
  4 10  1  0  0  0  0
  4 11  1  0  0  0  0
  4 14  1  0  0  0  0
  5 11  2  0  0  0  0
  5 15  1  0  0  0  0
  6 12  1  0  0  0  0
  6 14  2  0  0  0  0
  7 15  2  0  0  0  0
  7 18  1  0  0  0  0
  8 15  1  0  0  0  0
  8 19  1  0  0  0  0
  9 28  1  0  0  0  0
  9 30  1  0  0  0  0
  9 32  1  0  0  0  0
 10 12  1  0  0  0  0
 10 16  2  0  0  0  0
 11 13  1  0  0  0  0
 12 17  2  0  0  0  0
 13 18  2  0  0  0  0
 16 21  1  0  0  0  0
 17 23  1  0  0  0  0
 19 22  2  0  0  0  0
 19 24  1  0  0  0  0
 20 22  1  0  0  0  0
 20 26  2  0  0  0  0
 21 23  2  0  0  0  0
 24 25  2  0  0  0  0
 25 26  1  0  0  0  0
 25 31  1  0  0  0  0
 27 28  1  0  0  0  0
 27 29  1  0  0  0  0
 29 30  1  0  0  0  0
 31 33  1  0  0  0  0
 32 34  1  0  0  0  0
M  END
> <PUBCHEM_COMPOUND_ID_TYPE>
0

> <PUBCHEM_TOTAL_CHARGE>
0

> <PUBCHEM_SUBSTANCE_ID>
310938444

> <PUBCHEM_SUBSTANCE_VERSION>
1

> <PUBCHEM_EXT_DATASOURCE_NAME>
4488

> <PUBCHEM_EXT_DATASOURCE_REGID>
SCHEMBL16116341

> <PUBCHEM_SUBSTANCE_COMMENT>
InChI=1S/C25H27FN6O2/c1-2-17-11-18(13-20(12-17)34-19-7-8-31(15-19)9-10-33)29-25-27-14-21(26)24(30-25)32-16-28-22-5-3-4-6-23(22)32/h3-6,11-14,16,19,33H,2,7-10,15H2,1H3,(H,27,29,30)
InChIKey=POMBRFWVWVKCAJ-UHFFFAOYSA-N

> <PUBCHEM_SUBSTANCE_SYNONYM>
SCHEMBL16116341

> <PUBCHEM_XREF_EXT_ID>
SCHEMBL16116341

> <PUBCHEM_EXT_DATASOURCE_URL>
https://www.surechembl.org/

> <PUBCHEM_EXT_SUBSTANCE_URL>
https://www.surechembl.org/chemical/SCHEMBL16116341

> <PUBCHEM_CID_ASSOCIATIONS>
86301755  1

> <PUBCHEM_COORDINATE_TYPE>
1
3

$$$$
