310941146
  -OEChem-07211613022D

 43 46  0     1  0  0  0  0  0999 V2000
    5.0390    0.6531    0.0000 O   0  0  0  0  0  0  0  0  0  0  0  0
    3.9116   -1.2856    0.0000 O   0  0  0  0  0  0  0  0  0  0  0  0
    1.7668    0.7631    0.0000 O   0  0  0  0  0  0  0  0  0  0  0  0
   -0.3644   -1.2856    0.0000 O   0  0  0  0  0  0  0  0  0  0  0  0
    0.3506    2.8941    0.0000 O   0  0  0  0  0  0  0  0  0  0  0  0
    3.9116   -2.9217    0.0000 O   0  0  0  0  0  0  0  0  0  0  0  0
   -2.5092    0.7631    0.0000 O   0  0  0  0  0  0  0  0  0  0  0  0
   -5.3552    0.7631    0.0000 O   0  0  0  0  0  0  0  0  0  0  0  0
    2.4955   -0.4606    0.0000 N   0  0  0  0  0  0  0  0  0  0  0  0
    0.3506   -0.0481    0.0000 N   0  0  0  0  0  0  0  0  0  0  0  0
   -1.7943   -0.4606    0.0000 N   0  0  0  0  0  0  0  0  0  0  0  0
   -3.9254   -0.0481    0.0000 N   0  0  0  0  0  0  0  0  0  0  0  0
    4.6266   -0.0069    0.0000 C   0  0  3  0  0  0  0  0  0  0  0  0
    3.9254   -0.4194    0.0000 C   0  0  0  0  0  0  0  0  0  0  0  0
    4.2416    0.6668    0.0000 C   0  0  0  0  0  0  0  0  0  0  0  0
    3.1967   -0.0206    0.0000 C   0  0  3  0  0  0  0  0  0  0  0  0
    5.3552   -0.4468    0.0000 C   0  0  0  0  0  0  0  0  0  0  0  0
    3.1967    1.2856    0.0000 C   0  0  0  0  0  0  0  0  0  0  0  0
    1.7668   -0.0344    0.0000 C   0  0  0  0  0  0  0  0  0  0  0  0
    1.0793   -0.4331    0.0000 C   0  0  3  0  0  0  0  0  0  0  0  0
    2.4955    1.7117    0.0000 C   0  0  0  0  0  0  0  0  0  0  0  0
    1.0656   -1.2581    0.0000 C   0  0  0  0  0  0  0  0  0  0  0  0
    1.7805    1.2993    0.0000 C   0  0  0  0  0  0  0  0  0  0  0  0
    2.4955    2.5092    0.0000 C   0  0  0  0  0  0  0  0  0  0  0  0
    1.7943   -1.6705    0.0000 C   0  0  0  0  0  0  0  0  0  0  0  0
   -0.3506   -0.4194    0.0000 C   0  0  0  0  0  0  0  0  0  0  0  0
   -1.0931   -0.0206    0.0000 C   0  0  3  0  0  0  0  0  0  0  0  0
    1.0793    1.6980    0.0000 C   0  0  0  0  0  0  0  0  0  0  0  0
    1.7668    2.9217    0.0000 C   0  0  0  0  0  0  0  0  0  0  0  0
    1.0793    2.5230    0.0000 C   0  0  0  0  0  0  0  0  0  0  0  0
    2.4817   -1.2718    0.0000 C   0  0  0  0  0  0  0  0  0  0  0  0
    1.7943   -2.4955    0.0000 C   0  0  0  0  0  0  0  0  0  0  0  0
    3.2104   -2.4817    0.0000 C   0  0  0  0  0  0  0  0  0  0  0  0
    3.2104   -1.6842    0.0000 C   0  0  0  0  0  0  0  0  0  0  0  0
    2.4955   -2.8941    0.0000 C   0  0  0  0  0  0  0  0  0  0  0  0
   -2.5092   -0.0481    0.0000 C   0  0  0  0  0  0  0  0  0  0  0  0
   -1.0656    0.8043    0.0000 C   0  0  0  0  0  0  0  0  0  0  0  0
   -3.2104   -0.4331    0.0000 C   0  0  0  0  0  0  0  0  0  0  0  0
   -3.9254    0.7769    0.0000 C   0  0  0  0  0  0  0  0  0  0  0  0
   -4.6266   -0.4331    0.0000 C   0  0  0  0  0  0  0  0  0  0  0  0
   -4.6540    1.2030    0.0000 C   0  0  0  0  0  0  0  0  0  0  0  0
   -5.3415   -0.0206    0.0000 C   0  0  0  0  0  0  0  0  0  0  0  0
    4.6540   -2.4817    0.0000 C   0  0  0  0  0  0  0  0  0  0  0  0
  1 13  1  0  0  0  0
  1 15  1  0  0  0  0
  2 14  2  0  0  0  0
  3 19  2  0  0  0  0
  4 26  2  0  0  0  0
  5 30  1  0  0  0  0
  6 33  1  0  0  0  0
  6 43  1  0  0  0  0
  7 36  2  0  0  0  0
  8 41  1  0  0  0  0
  8 42  1  0  0  0  0
  9 16  1  0  0  0  0
  9 19  1  0  0  0  0
 10 20  1  0  0  0  0
 10 26  1  0  0  0  0
 11 27  1  0  0  0  0
 11 36  1  0  0  0  0
 12 38  1  0  0  0  0
 12 39  1  0  0  0  0
 12 40  1  0  0  0  0
 13 14  1  0  0  0  0
 13 15  1  0  0  0  0
 13 17  1  0  0  0  0
 14 16  1  0  0  0  0
 16 18  1  0  0  0  0
 18 21  1  0  0  0  0
 19 20  1  0  0  0  0
 20 22  1  0  0  0  0
 21 23  2  0  0  0  0
 21 24  1  0  0  0  0
 22 25  1  0  0  0  0
 23 28  1  0  0  0  0
 24 29  2  0  0  0  0
 25 31  2  0  0  0  0
 25 32  1  0  0  0  0
 26 27  1  0  0  0  0
 27 37  1  0  0  0  0
 28 30  2  0  0  0  0
 29 30  1  0  0  0  0
 31 34  1  0  0  0  0
 32 35  2  0  0  0  0
 33 34  2  0  0  0  0
 33 35  1  0  0  0  0
 36 38  1  0  0  0  0
 39 41  1  0  0  0  0
 40 42  1  0  0  0  0
M  END
> <PUBCHEM_COMPOUND_ID_TYPE>
0

> <PUBCHEM_TOTAL_CHARGE>
0

> <PUBCHEM_SUBSTANCE_ID>
310941146

> <PUBCHEM_SUBSTANCE_VERSION>
1

> <PUBCHEM_EXT_DATASOURCE_NAME>
4488

> <PUBCHEM_EXT_DATASOURCE_REGID>
SCHEMBL16119106

> <PUBCHEM_SUBSTANCE_COMMENT>
InChI=1S/C31H40N4O8/c1-20(32-27(37)18-35-12-14-42-15-13-35)29(39)34-26(17-22-6-10-24(41-3)11-7-22)30(40)33-25(28(38)31(2)19-43-31)16-21-4-8-23(36)9-5-21/h4-11,20,25-26,36H,12-19H2,1-3H3,(H,32,37)(H,33,40)(H,34,39)
InChIKey=NBCINFUHIFACSY-UHFFFAOYSA-N

> <PUBCHEM_SUBSTANCE_SYNONYM>
SCHEMBL16119106

> <PUBCHEM_XREF_EXT_ID>
SCHEMBL16119106

> <PUBCHEM_EXT_DATASOURCE_URL>
https://www.surechembl.org/

> <PUBCHEM_EXT_SUBSTANCE_URL>
https://www.surechembl.org/chemical/SCHEMBL16119106

> <PUBCHEM_CID_ASSOCIATIONS>
117608028  1

> <PUBCHEM_COORDINATE_TYPE>
1
3

$$$$
