310931562
  -OEChem-07211613022D

 56 63  0     1  0  0  0  0  0999 V2000
    2.8953   -8.3463    0.0000 F   0  0  0  0  0  0  0  0  0  0  0  0
    3.9559   -8.3463    0.0000 F   0  0  0  0  0  0  0  0  0  0  0  0
    3.0383   -5.3359    0.0000 F   0  0  0  0  0  0  0  0  0  0  0  0
    3.8130   -5.3359    0.0000 F   0  0  0  0  0  0  0  0  0  0  0  0
    2.2236   -8.9544    0.0000 F   0  0  0  0  0  0  0  0  0  0  0  0
    0.8646   -8.5129    0.0000 F   0  0  0  0  0  0  0  0  0  0  0  0
   -2.8731   -3.0103    0.0000 F   0  0  0  0  0  0  0  0  0  0  0  0
   -3.4673   -5.8058    0.0000 F   0  0  0  0  0  0  0  0  0  0  0  0
    0.3126   -5.8788    0.0000 O   0  0  0  0  0  0  0  0  0  0  0  0
    2.9332   -1.3319    0.0000 O   0  0  0  0  0  0  0  0  0  0  0  0
   -3.7471   -0.2919    0.0000 O   0  0  0  0  0  0  0  0  0  0  0  0
    1.9265   -6.2218    0.0000 N   0  0  0  0  0  0  0  0  0  0  0  0
    1.4416   -6.8893    0.0000 N   0  0  0  0  0  0  0  0  0  0  0  0
    0.6097   -4.4811    0.0000 N   0  0  0  0  0  0  0  0  0  0  0  0
   -1.2592   -3.3534    0.0000 N   0  0  0  0  0  0  0  0  0  0  0  0
    3.6007   -2.6418    0.0000 N   0  0  0  0  0  0  0  0  0  0  0  0
   -2.9464    0.9411    0.0000 N   0  0  0  0  0  0  0  0  0  0  0  0
    2.7112   -7.3018    0.0000 C   0  0  0  0  0  0  0  0  0  0  0  0
    2.7112   -6.4768    0.0000 C   0  0  0  0  0  0  0  0  0  0  0  0
    3.4256   -7.7143    0.0000 C   0  0  0  0  0  0  0  0  0  0  0  0
    3.4256   -6.0643    0.0000 C   0  0  0  0  0  0  0  0  0  0  0  0
    1.9265   -7.5567    0.0000 C   0  0  0  0  0  0  0  0  0  0  0  0
    4.1401   -7.3018    0.0000 C   0  0  0  0  0  0  0  0  0  0  0  0
    4.1401   -6.4768    0.0000 C   0  0  0  0  0  0  0  0  0  0  0  0
    1.6716   -8.3413    0.0000 C   0  0  0  0  0  0  0  0  0  0  0  0
    1.6716   -5.4372    0.0000 C   0  0  0  0  0  0  0  0  0  0  0  0
    0.8646   -5.2657    0.0000 C   0  0  0  0  0  0  0  0  0  0  0  0
   -0.4522   -3.5249    0.0000 C   0  0  0  0  0  0  0  0  0  0  0  0
    0.0998   -2.9118    0.0000 C   0  0  0  0  0  0  0  0  0  0  0  0
   -0.1973   -4.3096    0.0000 C   0  0  3  0  0  0  0  0  0  0  0  0
    0.9068   -3.0834    0.0000 C   0  0  0  0  0  0  0  0  0  0  0  0
   -0.9621   -1.9557    0.0000 C   0  0  0  0  0  0  0  0  0  0  0  0
   -0.1551   -2.1272    0.0000 C   0  0  0  0  0  0  0  0  0  0  0  0
    2.2658   -2.6418    0.0000 C   0  0  0  0  0  0  0  0  0  0  0  0
   -1.2170   -1.1711    0.0000 C   0  0  0  0  0  0  0  0  0  0  0  0
    1.4588   -2.4703    0.0000 C   0  0  0  0  0  0  0  0  0  0  0  0
    2.5207   -3.4264    0.0000 C   0  0  0  0  0  0  0  0  0  0  0  0
   -0.7493   -4.9226    0.0000 C   0  0  0  0  0  0  0  0  0  0  0  0
   -1.5141   -2.5688    0.0000 C   0  0  0  0  0  0  0  0  0  0  0  0
   -2.2789   -0.2149    0.0000 C   0  0  0  0  0  0  0  0  0  0  0  0
    1.1617   -3.8680    0.0000 C   0  0  0  0  0  0  0  0  0  0  0  0
   -2.0240   -0.9995    0.0000 C   0  0  0  0  0  0  0  0  0  0  0  0
    2.9332   -2.1569    0.0000 C   0  0  0  0  0  0  0  0  0  0  0  0
   -1.7269    0.3982    0.0000 C   0  0  0  0  0  0  0  0  0  0  0  0
    1.9687   -4.0395    0.0000 C   0  0  0  0  0  0  0  0  0  0  0  0
   -1.5563   -4.7511    0.0000 C   0  0  0  0  0  0  0  0  0  0  0  0
   -0.6650   -0.5580    0.0000 C   0  0  0  0  0  0  0  0  0  0  0  0
   -3.0326    0.1206    0.0000 C   0  0  0  0  0  0  0  0  0  0  0  0
    3.3457   -3.4264    0.0000 C   0  0  0  0  0  0  0  0  0  0  0  0
   -0.9199    0.2267    0.0000 C   0  0  0  0  0  0  0  0  0  0  0  0
   -2.1394    1.1127    0.0000 C   0  0  0  0  0  0  0  0  0  0  0  0
   -2.1083   -5.3642    0.0000 C   0  0  0  0  0  0  0  0  0  0  0  0
   -1.8112   -3.9665    0.0000 C   0  0  0  0  0  0  0  0  0  0  0  0
   -2.6182   -3.7950    0.0000 C   0  0  0  0  0  0  0  0  0  0  0  0
   -2.9153   -5.1927    0.0000 C   0  0  0  0  0  0  0  0  0  0  0  0
   -3.1702   -4.4081    0.0000 C   0  0  0  0  0  0  0  0  0  0  0  0
  1 20  1  0  0  0  0
  2 20  1  0  0  0  0
  3 21  1  0  0  0  0
  4 21  1  0  0  0  0
  5 25  1  0  0  0  0
  6 25  1  0  0  0  0
  7 54  1  0  0  0  0
  8 55  1  0  0  0  0
  9 27  2  0  0  0  0
 10 43  2  0  0  0  0
 11 48  2  0  0  0  0
 12 13  1  0  0  0  0
 12 19  1  0  0  0  0
 12 26  1  0  0  0  0
 13 22  2  0  0  0  0
 14 27  1  0  0  0  0
 14 30  1  0  0  0  0
 15 28  2  0  0  0  0
 15 39  1  0  0  0  0
 16 43  1  0  0  0  0
 16 49  1  0  0  0  0
 17 48  1  0  0  0  0
 17 51  1  0  0  0  0
 18 19  2  0  0  0  0
 18 20  1  0  0  0  0
 18 22  1  0  0  0  0
 19 21  1  0  0  0  0
 20 23  1  0  0  0  0
 21 24  1  0  0  0  0
 22 25  1  0  0  0  0
 23 24  1  0  0  0  0
 26 27  1  0  0  0  0
 28 29  1  0  0  0  0
 28 30  1  0  0  0  0
 29 31  1  0  0  0  0
 29 33  2  0  0  0  0
 30 38  1  0  0  0  0
 31 36  2  0  0  0  0
 31 41  1  0  0  0  0
 32 33  1  0  0  0  0
 32 35  1  0  0  0  0
 32 39  2  0  0  0  0
 34 36  1  0  0  0  0
 34 37  2  0  0  0  0
 34 43  1  0  0  0  0
 35 42  2  0  0  0  0
 35 47  1  0  0  0  0
 37 45  1  0  0  0  0
 37 49  1  0  0  0  0
 38 46  1  0  0  0  0
 40 42  1  0  0  0  0
 40 44  2  0  0  0  0
 40 48  1  0  0  0  0
 41 45  2  0  0  0  0
 44 50  1  0  0  0  0
 44 51  1  0  0  0  0
 46 52  2  0  0  0  0
 46 53  1  0  0  0  0
 47 50  2  0  0  0  0
 52 55  1  0  0  0  0
 53 54  2  0  0  0  0
 54 56  1  0  0  0  0
 55 56  2  0  0  0  0
M  END
> <PUBCHEM_COMPOUND_ID_TYPE>
0

> <PUBCHEM_TOTAL_CHARGE>
0

> <PUBCHEM_SUBSTANCE_ID>
310931562

> <PUBCHEM_SUBSTANCE_VERSION>
1

> <PUBCHEM_EXT_DATASOURCE_NAME>
4488

> <PUBCHEM_EXT_DATASOURCE_REGID>
SCHEMBL16108888

> <PUBCHEM_SUBSTANCE_COMMENT>
InChI=1S/C39H28F8N6O3/c40-24-7-18(8-25(41)13-24)9-29(51-30(54)17-53-34-31(33(52-53)35(42)43)38(44,45)5-6-39(34,46)47)32-26(20-2-4-22-15-50-37(56)28(22)11-20)12-23(16-48-32)19-1-3-21-14-49-36(55)27(21)10-19/h1-4,7-8,10-13,16,29,35H,5-6,9,14-15,17H2,(H,49,55)(H,50,56)(H,51,54)
InChIKey=XGFDIJNTDKBPKK-UHFFFAOYSA-N

> <PUBCHEM_SUBSTANCE_SYNONYM>
SCHEMBL16108888

> <PUBCHEM_XREF_EXT_ID>
SCHEMBL16108888

> <PUBCHEM_EXT_DATASOURCE_URL>
https://www.surechembl.org/

> <PUBCHEM_EXT_SUBSTANCE_URL>
https://www.surechembl.org/chemical/SCHEMBL16108888

> <PUBCHEM_CID_ASSOCIATIONS>
117600308  1

> <PUBCHEM_COORDINATE_TYPE>
1
3

$$$$
