310946447
  -OEChem-07211613022D

 19 18  0     1  0  0  0  0  0999 V2000
   -2.8719    8.8020    0.0000 O   0  0  0  0  0  0  0  0  0  0  0  0
    0.5090    9.9290    0.0000 O   0  0  0  0  0  0  0  0  0  0  0  0
   -1.6344    8.0876    0.0000 O   0  0  0  0  0  0  0  0  0  0  0  0
   -0.2055    8.6915    0.0000 O   0  0  0  0  0  0  0  0  0  0  0  0
   -1.6344   11.1665    0.0000 O   0  0  0  0  0  0  0  0  0  0  0  0
   -1.6344    9.5165    0.0000 N   0  0  0  0  0  0  0  0  0  0  0  0
   -0.9200    9.9290    0.0000 C   0  0  3  0  0  0  0  0  0  0  0  0
   -2.0469    8.8020    0.0000 C   0  0  0  0  0  0  0  0  0  0  0  0
   -0.2055    9.5165    0.0000 C   0  0  0  0  0  0  0  0  0  0  0  0
   -3.2844    8.0876    0.0000 C   0  0  0  0  0  0  0  0  0  0  0  0
   -0.9200   10.7540    0.0000 C   0  0  0  0  0  0  0  0  0  0  0  0
   -4.0813    8.3011    0.0000 C   0  0  0  0  0  0  0  0  0  0  0  0
   -3.0709    7.2907    0.0000 C   0  0  0  0  0  0  0  0  0  0  0  0
   -3.8678    7.5042    0.0000 C   0  0  0  0  0  0  0  0  0  0  0  0
    1.2234    9.5165    0.0000 C   0  0  0  0  0  0  0  0  0  0  0  0
    1.9379    9.9290    0.0000 C   0  0  0  0  0  0  0  0  0  0  0  0
    2.6524    9.5165    0.0000 C   0  0  0  0  0  0  0  0  0  0  0  0
    3.3669    9.9290    0.0000 C   0  0  0  0  0  0  0  0  0  0  0  0
    4.0813    9.5165    0.0000 C   0  0  0  0  0  0  0  0  0  0  0  0
  1  8  1  0  0  0  0
  1 10  1  0  0  0  0
  2  9  1  0  0  0  0
  2 15  1  0  0  0  0
  3  8  2  0  0  0  0
  4  9  2  0  0  0  0
  5 11  1  0  0  0  0
  6  7  1  0  0  0  0
  6  8  1  0  0  0  0
  7  9  1  0  0  0  0
  7 11  1  0  0  0  0
 10 12  1  0  0  0  0
 10 13  1  0  0  0  0
 10 14  1  0  0  0  0
 15 16  1  0  0  0  0
 16 17  1  0  0  0  0
 17 18  1  0  0  0  0
 18 19  1  0  0  0  0
M  END
> <PUBCHEM_COMPOUND_ID_TYPE>
0

> <PUBCHEM_TOTAL_CHARGE>
0

> <PUBCHEM_SUBSTANCE_ID>
310946447

> <PUBCHEM_SUBSTANCE_VERSION>
1

> <PUBCHEM_EXT_DATASOURCE_NAME>
4488

> <PUBCHEM_EXT_DATASOURCE_REGID>
SCHEMBL16124568

> <PUBCHEM_SUBSTANCE_COMMENT>
InChI=1S/C13H25NO5/c1-5-6-7-8-18-11(16)10(9-15)14-12(17)19-13(2,3)4/h10,15H,5-9H2,1-4H3,(H,14,17)
InChIKey=CJKZLZGZJSZHIZ-UHFFFAOYSA-N

> <PUBCHEM_SUBSTANCE_SYNONYM>
SCHEMBL16124568

> <PUBCHEM_XREF_EXT_ID>
SCHEMBL16124568

> <PUBCHEM_EXT_DATASOURCE_URL>
https://www.surechembl.org/

> <PUBCHEM_EXT_SUBSTANCE_URL>
https://www.surechembl.org/chemical/SCHEMBL16124568

> <PUBCHEM_CID_ASSOCIATIONS>
117612358  1

> <PUBCHEM_COORDINATE_TYPE>
1
3

$$$$
