310933580
  -OEChem-07211613022D

 33 37  0     1  0  0  0  0  0999 V2000
    3.5110    0.0000    0.0000 F   0  0  0  0  0  0  0  0  0  0  0  0
    2.2875   -0.7447    0.0000 O   0  0  0  0  0  0  0  0  0  0  0  0
    0.0000   -4.2292    0.0000 O   0  0  0  0  0  0  0  0  0  0  0  0
    5.5326   -3.1121    0.0000 O   0  0  0  0  0  0  0  0  0  0  0  0
    4.2026   -2.4471    0.0000 N   0  0  0  0  0  0  0  0  0  0  0  0
    4.2026   -3.7770    0.0000 N   0  0  0  0  0  0  0  0  0  0  0  0
    1.4895   -2.1811    0.0000 N   0  0  0  0  0  0  0  0  0  0  0  0
    5.1602   -1.4363    0.0000 N   0  0  0  0  0  0  0  0  0  0  0  0
    0.3990   -4.9740    0.0000 N   0  0  0  0  0  0  0  0  0  0  0  0
    2.6865   -1.4629    0.0000 C   0  0  3  0  0  0  0  0  0  0  0  0
    2.7131   -2.2875    0.0000 C   0  0  0  0  0  0  0  0  0  0  0  0
    3.4313   -2.6865    0.0000 C   0  0  0  0  0  0  0  0  0  0  0  0
    3.5110   -1.4629    0.0000 C   0  0  0  0  0  0  0  0  0  0  0  0
    1.8619   -1.4629    0.0000 C   0  0  0  0  0  0  0  0  0  0  0  0
    3.4313   -3.5377    0.0000 C   0  0  0  0  0  0  0  0  0  0  0  0
    2.0215   -3.5377    0.0000 C   0  0  0  0  0  0  0  0  0  0  0  0
    2.0215   -2.6865    0.0000 C   0  0  0  0  0  0  0  0  0  0  0  0
    2.7131   -3.9366    0.0000 C   0  0  0  0  0  0  0  0  0  0  0  0
    3.9100   -0.7182    0.0000 C   0  0  0  0  0  0  0  0  0  0  0  0
    1.3033   -3.9632    0.0000 C   0  0  0  0  0  0  0  0  0  0  0  0
    4.7080   -3.1121    0.0000 C   0  0  0  0  0  0  0  0  0  0  0  0
    3.9366   -2.1545    0.0000 C   0  0  0  0  0  0  0  0  0  0  0  0
    1.4629   -0.7447    0.0000 C   0  0  0  0  0  0  0  0  0  0  0  0
    4.7612   -0.7447    0.0000 C   0  0  0  0  0  0  0  0  0  0  0  0
    0.5320   -3.6441    0.0000 C   0  0  0  0  0  0  0  0  0  0  0  0
    1.2235   -4.7612    0.0000 C   0  0  0  0  0  0  0  0  0  0  0  0
    4.7612   -2.1811    0.0000 C   0  0  0  0  0  0  0  0  0  0  0  0
    0.6383   -2.2343    0.0000 C   0  0  0  0  0  0  0  0  0  0  0  0
    0.6383   -0.7979    0.0000 C   0  0  0  0  0  0  0  0  0  0  0  0
    0.2394   -1.4895    0.0000 C   0  0  0  0  0  0  0  0  0  0  0  0
    5.1602   -0.0266    0.0000 C   0  0  0  0  0  0  0  0  0  0  0  0
    0.3724   -2.8195    0.0000 C   0  0  0  0  0  0  0  0  0  0  0  0
    1.8353   -5.3198    0.0000 C   0  0  0  0  0  0  0  0  0  0  0  0
  1 19  1  0  0  0  0
  2 10  1  0  0  0  0
  3  9  1  0  0  0  0
  3 25  1  0  0  0  0
  4 21  2  0  0  0  0
  5 12  1  0  0  0  0
  5 21  1  0  0  0  0
  6 15  1  0  0  0  0
  6 21  1  0  0  0  0
  7 14  1  0  0  0  0
  7 28  2  0  0  0  0
  8 24  1  0  0  0  0
  8 27  2  0  0  0  0
  9 26  2  0  0  0  0
 10 11  1  0  0  0  0
 10 13  1  0  0  0  0
 10 14  1  0  0  0  0
 11 12  1  0  0  0  0
 11 17  2  0  0  0  0
 12 15  2  0  0  0  0
 13 19  1  0  0  0  0
 13 22  2  0  0  0  0
 14 23  2  0  0  0  0
 15 18  1  0  0  0  0
 16 17  1  0  0  0  0
 16 18  2  0  0  0  0
 16 20  1  0  0  0  0
 19 24  2  0  0  0  0
 20 25  2  0  0  0  0
 20 26  1  0  0  0  0
 22 27  1  0  0  0  0
 23 29  1  0  0  0  0
 24 31  1  0  0  0  0
 25 32  1  0  0  0  0
 26 33  1  0  0  0  0
 28 30  1  0  0  0  0
 29 30  2  0  0  0  0
M  END
> <PUBCHEM_COMPOUND_ID_TYPE>
0

> <PUBCHEM_TOTAL_CHARGE>
0

> <PUBCHEM_SUBSTANCE_ID>
310933580

> <PUBCHEM_SUBSTANCE_VERSION>
1

> <PUBCHEM_EXT_DATASOURCE_NAME>
4488

> <PUBCHEM_EXT_DATASOURCE_REGID>
SCHEMBL16111007

> <PUBCHEM_SUBSTANCE_COMMENT>
InChI=1S/C24H20FN5O3/c1-12-20(14(3)33-30-12)15-10-17(22-18(11-15)28-23(31)29-22)24(32,19-6-4-5-8-27-19)16-7-9-26-13(2)21(16)25/h4-11,32H,1-3H3,(H2,28,29,31)
InChIKey=ZSNAUAAICZBKTG-UHFFFAOYSA-N

> <PUBCHEM_SUBSTANCE_SYNONYM>
SCHEMBL16111007

> <PUBCHEM_XREF_EXT_ID>
SCHEMBL16111007

> <PUBCHEM_EXT_DATASOURCE_URL>
https://www.surechembl.org/

> <PUBCHEM_EXT_SUBSTANCE_URL>
https://www.surechembl.org/chemical/SCHEMBL16111007

> <PUBCHEM_CID_ASSOCIATIONS>
117601964  1

> <PUBCHEM_COORDINATE_TYPE>
1
3

$$$$
