310949361
  -OEChem-07211613022D

 30 32  0     1  0  0  0  0  0999 V2000
   -1.0091    1.4389    0.0000 F   0  0  0  0  0  0  0  0  0  0  0  0
   -0.7848    2.2487    0.0000 F   0  0  0  0  0  0  0  0  0  0  0  0
    0.0125    2.4605    0.0000 F   0  0  0  0  0  0  0  0  0  0  0  0
    2.5663    0.9156    0.0000 O   0  0  0  0  0  0  0  0  0  0  0  0
    1.0340   -1.7877    0.0000 N   0  0  0  0  0  0  0  0  0  0  0  0
    0.6727   -2.4605    0.0000 N   0  0  0  0  0  0  0  0  0  0  0  0
   -1.6818   -1.3766    0.0000 N   0  0  3  0  0  0  0  0  0  0  0  0
   -3.8371   -0.9655    0.0000 N   0  0  0  0  0  0  0  0  0  0  0  0
    0.7599   -0.3177    0.0000 C   0  0  0  0  0  0  0  0  0  0  0  0
    0.5357   -1.1274    0.0000 C   0  0  0  0  0  0  0  0  0  0  0  0
    1.5572   -0.0935    0.0000 C   0  0  0  0  0  0  0  0  0  0  0  0
    0.3987    1.0776    0.0000 C   0  0  0  0  0  0  0  0  0  0  0  0
    1.7814    0.7039    0.0000 C   0  0  0  0  0  0  0  0  0  0  0  0
    0.1869    0.2679    0.0000 C   0  0  0  0  0  0  0  0  0  0  0  0
   -0.2492   -1.3766    0.0000 C   0  0  0  0  0  0  0  0  0  0  0  0
    1.1835    1.2770    0.0000 C   0  0  0  0  0  0  0  0  0  0  0  0
   -0.2118    1.6756    0.0000 C   0  0  0  0  0  0  0  0  0  0  0  0
   -0.2492   -2.1988    0.0000 C   0  0  0  0  0  0  0  0  0  0  0  0
   -0.9717   -0.9655    0.0000 C   0  0  0  0  0  0  0  0  0  0  0  0
    2.1552   -0.6914    0.0000 C   0  0  0  0  0  0  0  0  0  0  0  0
    3.1768    0.3302    0.0000 C   0  0  0  0  0  0  0  0  0  0  0  0
    3.9616    0.5295    0.0000 C   0  0  0  0  0  0  0  0  0  0  0  0
    2.9650   -0.4796    0.0000 C   0  0  0  0  0  0  0  0  0  0  0  0
   -2.4168   -0.9655    0.0000 C   0  0  0  0  0  0  0  0  0  0  0  0
    4.5471   -0.0436    0.0000 C   0  0  0  0  0  0  0  0  0  0  0  0
    3.5380   -1.0527    0.0000 C   0  0  0  0  0  0  0  0  0  0  0  0
   -1.6693   -2.2113    0.0000 C   0  0  0  0  0  0  0  0  0  0  0  0
    4.3354   -0.8409    0.0000 C   0  0  0  0  0  0  0  0  0  0  0  0
   -3.1145   -1.3766    0.0000 C   0  0  0  0  0  0  0  0  0  0  0  0
   -4.5471   -1.3891    0.0000 C   0  0  0  0  0  0  0  0  0  0  0  0
  1 17  1  0  0  0  0
  2 17  1  0  0  0  0
  3 17  1  0  0  0  0
  4 13  1  0  0  0  0
  4 21  1  0  0  0  0
  5  6  1  0  0  0  0
  5 10  2  0  0  0  0
  6 18  1  0  0  0  0
  7 19  1  0  0  0  0
  7 24  1  0  0  0  0
  7 27  1  0  0  0  0
  8 29  1  0  0  0  0
  8 30  1  0  0  0  0
  9 10  1  0  0  0  0
  9 11  2  0  0  0  0
  9 14  1  0  0  0  0
 10 15  1  0  0  0  0
 11 13  1  0  0  0  0
 11 20  1  0  0  0  0
 12 14  2  0  0  0  0
 12 16  1  0  0  0  0
 12 17  1  0  0  0  0
 13 16  2  0  0  0  0
 15 18  2  0  0  0  0
 15 19  1  0  0  0  0
 21 22  2  0  0  0  0
 21 23  1  0  0  0  0
 22 25  1  0  0  0  0
 23 26  2  0  0  0  0
 24 29  1  0  0  0  0
 25 28  2  0  0  0  0
 26 28  1  0  0  0  0
M  END
> <PUBCHEM_COMPOUND_ID_TYPE>
0

> <PUBCHEM_TOTAL_CHARGE>
0

> <PUBCHEM_SUBSTANCE_ID>
310949361

> <PUBCHEM_SUBSTANCE_VERSION>
1

> <PUBCHEM_EXT_DATASOURCE_NAME>
4488

> <PUBCHEM_EXT_DATASOURCE_REGID>
SCHEMBL16127553

> <PUBCHEM_SUBSTANCE_COMMENT>
InChI=1S/C22H25F3N4O/c1-15-19(21-16(13-27-28-21)14-29(3)10-9-26-2)11-17(22(23,24)25)12-20(15)30-18-7-5-4-6-8-18/h4-8,11-13,26H,9-10,14H2,1-3H3,(H,27,28)
InChIKey=KERWCXUTPDMAKZ-UHFFFAOYSA-N

> <PUBCHEM_SUBSTANCE_SYNONYM>
SCHEMBL16127553

> <PUBCHEM_XREF_EXT_ID>
SCHEMBL16127553

> <PUBCHEM_EXT_DATASOURCE_URL>
https://www.surechembl.org/

> <PUBCHEM_EXT_SUBSTANCE_URL>
https://www.surechembl.org/chemical/SCHEMBL16127553

> <PUBCHEM_CID_ASSOCIATIONS>
85473275  1

> <PUBCHEM_COORDINATE_TYPE>
1
3

$$$$
