310932842
  -OEChem-07211613022D

 13 13  0     0  0  0  0  0  0999 V2000
    0.0000   -1.3186    0.0000 Cl  0  0  0  0  0  0  0  0  0  0  0  0
    4.5957   -0.1551    0.0000 O   0  0  0  0  0  0  0  0  0  0  0  0
    5.2744   -1.3186    0.0000 N   0  0  0  0  0  0  0  0  0  0  0  0
    1.6677   -2.6372    0.0000 N   0  0  0  0  0  0  0  0  0  0  0  0
    4.5181   -0.9889    0.0000 C   0  0  0  0  0  0  0  0  0  0  0  0
    3.8007   -1.3962    0.0000 C   0  0  0  0  0  0  0  0  0  0  0  0
    3.0832   -0.9889    0.0000 C   0  0  0  0  0  0  0  0  0  0  0  0
    3.8007   -2.2300    0.0000 C   0  0  0  0  0  0  0  0  0  0  0  0
    2.3657   -2.2300    0.0000 C   0  0  0  0  0  0  0  0  0  0  0  0
    5.4101    0.0000    0.0000 C   0  0  0  0  0  0  0  0  0  0  0  0
    5.8174   -0.6981    0.0000 C   0  0  0  0  0  0  0  0  0  0  0  0
    2.3657   -1.3962    0.0000 C   0  0  0  0  0  0  0  0  0  0  0  0
    3.0832   -2.6372    0.0000 C   0  0  0  0  0  0  0  0  0  0  0  0
  2  5  1  0  0  0  0
  2 10  1  0  0  0  0
  3  5  2  0  0  0  0
  3 11  1  0  0  0  0
  4  9  1  0  0  0  0
  5  6  1  0  0  0  0
  6  7  2  0  0  0  0
  6  8  1  0  0  0  0
  7 12  1  0  0  0  0
  8 13  2  0  0  0  0
  9 12  2  0  0  0  0
  9 13  1  0  0  0  0
 10 11  2  0  0  0  0
M  END
> <PUBCHEM_COMPOUND_ID_TYPE>
0

> <PUBCHEM_TOTAL_CHARGE>
0

> <PUBCHEM_SUBSTANCE_ID>
310932842

> <PUBCHEM_SUBSTANCE_VERSION>
1

> <PUBCHEM_EXT_DATASOURCE_NAME>
4488

> <PUBCHEM_EXT_DATASOURCE_REGID>
SCHEMBL16110231

> <PUBCHEM_SUBSTANCE_COMMENT>
InChI=1S/C9H8N2O.ClH/c10-8-3-1-7(2-4-8)9-11-5-6-12-9;/h1-6H,10H2;1H
InChIKey=ZFMGWSWHVWXLPN-UHFFFAOYSA-N

> <PUBCHEM_SUBSTANCE_SYNONYM>
SCHEMBL16110231

> <PUBCHEM_XREF_EXT_ID>
SCHEMBL16110231

> <PUBCHEM_EXT_DATASOURCE_URL>
https://www.surechembl.org/

> <PUBCHEM_EXT_SUBSTANCE_URL>
https://www.surechembl.org/chemical/SCHEMBL16110231

> <PUBCHEM_CID_ASSOCIATIONS>
56737690  1
313  2
12371739  2

> <PUBCHEM_COORDINATE_TYPE>
1
3

$$$$
