310932011
  -OEChem-07211613022D

 17 15  0     0  0  0  0  0  0999 V2000
    5.4552    0.1786    0.0000 N   0  3  0  0  0  0  0  0  0  0  0  0
    0.2475    0.4287    0.0000 N   0  0  0  0  0  0  0  0  0  0  0  0
    1.0725   -1.0003    0.0000 N   0  0  0  0  0  0  0  0  0  0  0  0
   -1.4025    0.4287    0.0000 N   0  0  0  0  0  0  0  0  0  0  0  0
    6.1697    0.5911    0.0000 C   0  0  0  0  0  0  0  0  0  0  0  0
    4.7407   -0.2339    0.0000 C   0  0  0  0  0  0  0  0  0  0  0  0
    5.8677   -0.5359    0.0000 C   0  0  0  0  0  0  0  0  0  0  0  0
    5.0427    0.8931    0.0000 C   0  0  0  0  0  0  0  0  0  0  0  0
    6.8841    0.1786    0.0000 C   0  0  0  0  0  0  0  0  0  0  0  0
    4.0263    0.1786    0.0000 C   0  0  0  0  0  0  0  0  0  0  0  0
    5.4552   -1.2503    0.0000 C   0  0  0  0  0  0  0  0  0  0  0  0
    4.2177    0.8931    0.0000 C   0  0  0  0  0  0  0  0  0  0  0  0
    7.5986    0.5911    0.0000 C   0  0  0  0  0  0  0  0  0  0  0  0
    3.3118   -0.2339    0.0000 C   0  0  0  0  0  0  0  0  0  0  0  0
    4.6302   -1.2503    0.0000 C   0  0  0  0  0  0  0  0  0  0  0  0
    0.6600   -0.2858    0.0000 C   0  0  0  0  0  0  0  0  0  0  0  0
   -0.5775    0.4287    0.0000 C   0  0  0  0  0  0  0  0  0  0  0  0
  1  5  1  0  0  0  0
  1  6  1  0  0  0  0
  1  7  1  0  0  0  0
  1  8  1  0  0  0  0
  2 16  1  0  0  0  0
  2 17  1  0  0  0  0
  3 16  3  0  0  0  0
  4 17  3  0  0  0  0
  5  9  1  0  0  0  0
  6 10  1  0  0  0  0
  7 11  1  0  0  0  0
  8 12  2  0  0  0  0
  9 13  2  0  0  0  0
 10 14  2  0  0  0  0
 11 15  2  0  0  0  0
M  CHG  1   1   1
M  END
> <PUBCHEM_COMPOUND_ID_TYPE>
0

> <PUBCHEM_TOTAL_CHARGE>
1

> <PUBCHEM_SUBSTANCE_ID>
310932011

> <PUBCHEM_SUBSTANCE_VERSION>
1

> <PUBCHEM_EXT_DATASOURCE_NAME>
4488

> <PUBCHEM_EXT_DATASOURCE_REGID>
SCHEMBL16109353

> <PUBCHEM_SUBSTANCE_COMMENT>
InChI=1S/C11H18N.C2HN3/c1-5-9-12(8-4,10-6-2)11-7-3;3-1-5-2-4/h5-8H,1-4,9-11H2;5H/q+1;
InChIKey=HDKKVOMJVRJFMX-UHFFFAOYSA-N

> <PUBCHEM_SUBSTANCE_SYNONYM>
SCHEMBL16109353

> <PUBCHEM_XREF_EXT_ID>
SCHEMBL16109353

> <PUBCHEM_EXT_DATASOURCE_URL>
https://www.surechembl.org/

> <PUBCHEM_EXT_SUBSTANCE_URL>
https://www.surechembl.org/chemical/SCHEMBL16109353

> <PUBCHEM_CID_ASSOCIATIONS>
117600651  1
10443  2
89288692  2

> <PUBCHEM_COORDINATE_TYPE>
1
3

$$$$
