310936558
  -OEChem-07211613022D

 69 77  0     0  0  0  0  0  0999 V2000
    3.8377   -3.6064    0.0000 S   0  0  0  0  0  0  0  0  0  0  0  0
    4.5522   -4.0189    0.0000 O   0  0  0  0  0  0  0  0  0  0  0  0
    3.4252   -4.3209    0.0000 O   0  0  0  0  0  0  0  0  0  0  0  0
   13.1039   -4.5375    0.0000 O   0  0  0  0  0  0  0  0  0  0  0  0
    1.6943   -2.3689    0.0000 N   0  0  0  0  0  0  0  0  0  0  0  0
   -1.1636   -2.3689    0.0000 N   0  0  0  0  0  0  0  0  0  0  0  0
   -1.8780   -1.1314    0.0000 N   0  0  0  0  0  0  0  0  0  0  0  0
    3.1233   -3.1939    0.0000 N   0  0  0  0  0  0  0  0  0  0  0  0
    8.1026   -2.4750    0.0000 N   0  0  0  0  0  0  0  0  0  0  0  0
   -1.1636    0.1061    0.0000 N   0  0  0  0  0  0  0  0  0  0  0  0
    7.3881   -1.2375    0.0000 N   0  0  0  0  0  0  0  0  0  0  0  0
    8.1026   -0.0000    0.0000 N   0  0  0  0  0  0  0  0  0  0  0  0
   12.3894   -3.3000    0.0000 N   0  0  0  0  0  0  0  0  0  0  0  0
   -2.5925    2.5811    0.0000 N   0  0  0  0  0  0  0  0  0  0  0  0
    8.1026    2.4750    0.0000 N   0  0  0  0  0  0  0  0  0  0  0  0
   -1.8780    5.4686    0.0000 N   0  0  0  0  0  0  0  0  0  0  0  0
    7.3881    5.3625    0.0000 N   0  0  0  0  0  0  0  0  0  0  0  0
   -0.4491   -1.1314    0.0000 C   0  0  0  0  0  0  0  0  0  0  0  0
   -0.4491   -1.9564    0.0000 C   0  0  0  0  0  0  0  0  0  0  0  0
    0.9798   -1.9564    0.0000 C   0  0  0  0  0  0  0  0  0  0  0  0
    8.8170   -1.2375    0.0000 C   0  0  0  0  0  0  0  0  0  0  0  0
   -1.1636   -0.7189    0.0000 C   0  0  0  0  0  0  0  0  0  0  0  0
    8.8170   -2.0625    0.0000 C   0  0  0  0  0  0  0  0  0  0  0  0
    0.2654   -2.3689    0.0000 C   0  0  0  0  0  0  0  0  0  0  0  0
    0.2654   -0.7189    0.0000 C   0  0  0  0  0  0  0  0  0  0  0  0
   10.2460   -2.0625    0.0000 C   0  0  0  0  0  0  0  0  0  0  0  0
    8.1026   -0.8250    0.0000 C   0  0  0  0  0  0  0  0  0  0  0  0
    0.9798   -1.1314    0.0000 C   0  0  0  0  0  0  0  0  0  0  0  0
    9.5315   -2.4750    0.0000 C   0  0  0  0  0  0  0  0  0  0  0  0
   10.9605   -2.4750    0.0000 C   0  0  0  0  0  0  0  0  0  0  0  0
    9.5315   -0.8250    0.0000 C   0  0  0  0  0  0  0  0  0  0  0  0
   10.2460   -1.2375    0.0000 C   0  0  0  0  0  0  0  0  0  0  0  0
    1.6943   -3.1939    0.0000 C   0  0  0  0  0  0  0  0  0  0  0  0
    2.4088   -1.9564    0.0000 C   0  0  0  0  0  0  0  0  0  0  0  0
   -1.8780   -1.9564    0.0000 C   0  0  0  0  0  0  0  0  0  0  0  0
    2.4088   -3.6064    0.0000 C   0  0  0  0  0  0  0  0  0  0  0  0
    3.1233   -2.3689    0.0000 C   0  0  0  0  0  0  0  0  0  0  0  0
    7.3881   -2.0625    0.0000 C   0  0  0  0  0  0  0  0  0  0  0  0
   10.9605   -3.3000    0.0000 C   0  0  0  0  0  0  0  0  0  0  0  0
   11.6749   -2.0625    0.0000 C   0  0  0  0  0  0  0  0  0  0  0  0
   -1.8780    0.5186    0.0000 C   0  0  0  0  0  0  0  0  0  0  0  0
   -1.8780    1.3436    0.0000 C   0  0  0  0  0  0  0  0  0  0  0  0
    7.3881    0.4125    0.0000 C   0  0  0  0  0  0  0  0  0  0  0  0
   11.6749   -3.7125    0.0000 C   0  0  0  0  0  0  0  0  0  0  0  0
   12.3894   -2.4750    0.0000 C   0  0  0  0  0  0  0  0  0  0  0  0
    7.3881    1.2375    0.0000 C   0  0  0  0  0  0  0  0  0  0  0  0
   -1.8780    2.9936    0.0000 C   0  0  0  0  0  0  0  0  0  0  0  0
    7.3881    2.8875    0.0000 C   0  0  0  0  0  0  0  0  0  0  0  0
    4.2502   -2.8920    0.0000 C   0  0  0  0  0  0  0  0  0  0  0  0
   -2.5925    1.7561    0.0000 C   0  0  0  0  0  0  0  0  0  0  0  0
   -1.1636    1.7561    0.0000 C   0  0  0  0  0  0  0  0  0  0  0  0
   -1.8780    3.8186    0.0000 C   0  0  0  0  0  0  0  0  0  0  0  0
   13.1039   -3.7125    0.0000 C   0  0  0  0  0  0  0  0  0  0  0  0
    7.3881    3.7125    0.0000 C   0  0  0  0  0  0  0  0  0  0  0  0
    8.1026    1.6500    0.0000 C   0  0  0  0  0  0  0  0  0  0  0  0
    6.6736    1.6500    0.0000 C   0  0  0  0  0  0  0  0  0  0  0  0
   -1.1636    2.5811    0.0000 C   0  0  0  0  0  0  0  0  0  0  0  0
    6.6736    2.4750    0.0000 C   0  0  0  0  0  0  0  0  0  0  0  0
   -1.1636    4.2311    0.0000 C   0  0  0  0  0  0  0  0  0  0  0  0
    8.1026    4.1250    0.0000 C   0  0  0  0  0  0  0  0  0  0  0  0
   -2.5925    4.2311    0.0000 C   0  0  0  0  0  0  0  0  0  0  0  0
    6.6736    4.1250    0.0000 C   0  0  0  0  0  0  0  0  0  0  0  0
   -1.1636    5.0561    0.0000 C   0  0  0  0  0  0  0  0  0  0  0  0
    8.1026    4.9500    0.0000 C   0  0  0  0  0  0  0  0  0  0  0  0
   -2.5925    5.0561    0.0000 C   0  0  0  0  0  0  0  0  0  0  0  0
   13.8183   -3.3000    0.0000 C   0  0  0  0  0  0  0  0  0  0  0  0
    6.6736    4.9500    0.0000 C   0  0  0  0  0  0  0  0  0  0  0  0
   -0.4491    5.4686    0.0000 C   0  0  0  0  0  0  0  0  0  0  0  0
    8.8170    5.3625    0.0000 C   0  0  0  0  0  0  0  0  0  0  0  0
  1  2  2  0  0  0  0
  1  3  2  0  0  0  0
  1  8  1  0  0  0  0
  1 49  1  0  0  0  0
  4 53  2  0  0  0  0
  5 20  1  0  0  0  0
  5 33  1  0  0  0  0
  5 34  1  0  0  0  0
  6 19  1  0  0  0  0
  6 35  2  0  0  0  0
  7 22  2  0  0  0  0
  7 35  1  0  0  0  0
  8 36  1  0  0  0  0
  8 37  1  0  0  0  0
  9 23  1  0  0  0  0
  9 38  2  0  0  0  0
 10 22  1  0  0  0  0
 10 41  1  0  0  0  0
 11 27  2  0  0  0  0
 11 38  1  0  0  0  0
 12 27  1  0  0  0  0
 12 43  1  0  0  0  0
 13 44  1  0  0  0  0
 13 45  1  0  0  0  0
 13 53  1  0  0  0  0
 14 47  2  0  0  0  0
 14 50  1  0  0  0  0
 15 48  1  0  0  0  0
 15 55  2  0  0  0  0
 16 63  2  0  0  0  0
 16 65  1  0  0  0  0
 17 64  2  0  0  0  0
 17 67  1  0  0  0  0
 18 19  1  0  0  0  0
 18 22  1  0  0  0  0
 18 25  2  0  0  0  0
 19 24  2  0  0  0  0
 20 24  1  0  0  0  0
 20 28  2  0  0  0  0
 21 23  1  0  0  0  0
 21 27  1  0  0  0  0
 21 31  2  0  0  0  0
 23 29  2  0  0  0  0
 25 28  1  0  0  0  0
 26 29  1  0  0  0  0
 26 30  1  0  0  0  0
 26 32  2  0  0  0  0
 30 39  1  0  0  0  0
 30 40  1  0  0  0  0
 31 32  1  0  0  0  0
 33 36  1  0  0  0  0
 34 37  1  0  0  0  0
 39 44  1  0  0  0  0
 40 45  1  0  0  0  0
 41 42  1  0  0  0  0
 42 50  2  0  0  0  0
 42 51  1  0  0  0  0
 43 46  1  0  0  0  0
 46 55  1  0  0  0  0
 46 56  2  0  0  0  0
 47 52  1  0  0  0  0
 47 57  1  0  0  0  0
 48 54  1  0  0  0  0
 48 58  2  0  0  0  0
 51 57  2  0  0  0  0
 52 59  2  0  0  0  0
 52 61  1  0  0  0  0
 53 66  1  0  0  0  0
 54 60  2  0  0  0  0
 54 62  1  0  0  0  0
 56 58  1  0  0  0  0
 59 63  1  0  0  0  0
 60 64  1  0  0  0  0
 61 65  2  0  0  0  0
 62 67  2  0  0  0  0
 63 68  1  0  0  0  0
 64 69  1  0  0  0  0
M  END
> <PUBCHEM_COMPOUND_ID_TYPE>
0

> <PUBCHEM_TOTAL_CHARGE>
0

> <PUBCHEM_SUBSTANCE_ID>
310936558

> <PUBCHEM_SUBSTANCE_VERSION>
1

> <PUBCHEM_EXT_DATASOURCE_NAME>
4488

> <PUBCHEM_EXT_DATASOURCE_REGID>
SCHEMBL16114212

> <PUBCHEM_SUBSTANCE_COMMENT>
InChI=1S/C27H28N6O.C25H27N7O2S/c1-18-13-23(7-10-28-18)25-6-3-20(15-29-25)16-30-27-24-5-4-22(14-26(24)31-17-32-27)21-8-11-33(12-9-21)19(2)34;1-18-13-20(7-8-26-18)23-6-3-19(15-27-23)16-28-25-22-5-4-21(14-24(22)29-17-30-25)31-9-11-32(12-10-31)35(2,33)34/h3-7,10,13-15,17,21H,8-9,11-12,16H2,1-2H3,(H,30,31,32);3-8,13-15,17H,9-12,16H2,1-2H3,(H,28,29,30)
InChIKey=WQWPEQXRVZSQBB-UHFFFAOYSA-N

> <PUBCHEM_SUBSTANCE_SYNONYM>
SCHEMBL16114212

> <PUBCHEM_XREF_EXT_ID>
SCHEMBL16114212

> <PUBCHEM_EXT_DATASOURCE_URL>
https://www.surechembl.org/

> <PUBCHEM_EXT_SUBSTANCE_URL>
https://www.surechembl.org/chemical/SCHEMBL16114212

> <PUBCHEM_CID_ASSOCIATIONS>
117604478  1
57414358  2
68282181  2

> <PUBCHEM_COORDINATE_TYPE>
1
3

$$$$
