310935520
  -OEChem-07211613022D

 40 44  0     1  0  0  0  0  0999 V2000
   10.4255   -0.6422    0.0000 S   0  0  0  0  0  0  0  0  0  0  0  0
   10.4255   -2.8330    0.0000 O   0  0  0  0  0  0  0  0  0  0  0  0
    9.7834   -4.0040    0.0000 O   0  0  0  0  0  0  0  0  0  0  0  0
    9.2168   -1.9642    0.0000 O   0  0  0  0  0  0  0  0  0  0  0  0
    7.8569   -4.0040    0.0000 O   0  0  0  0  0  0  0  0  0  0  0  0
    7.1770   -2.8330    0.0000 O   0  0  0  0  0  0  0  0  0  0  0  0
    9.8967   -1.2843    0.0000 O   0  0  0  0  0  0  0  0  0  0  0  0
    9.7834   -0.1133    0.0000 O   0  0  0  0  0  0  0  0  0  0  0  0
   10.9544    0.0000    0.0000 O   0  0  0  0  0  0  0  0  0  0  0  0
    1.6243   -0.6799    0.0000 O   0  0  0  0  0  0  0  0  0  0  0  0
    2.3420   -1.8887    0.0000 N   0  0  0  0  0  0  0  0  0  0  0  0
   11.0299   -1.1710    0.0000 N   0  0  0  0  0  0  0  0  0  0  0  0
    3.0219   -0.6799    0.0000 N   0  0  0  0  0  0  0  0  0  0  0  0
    9.6323   -2.6819    0.0000 C   0  0  3  0  0  0  0  0  0  0  0  0
    9.2168   -3.3996    0.0000 C   0  0  3  0  0  0  0  0  0  0  0  0
    8.3857   -3.3996    0.0000 C   0  0  3  0  0  0  0  0  0  0  0  0
   10.5388   -3.6640    0.0000 C   0  0  0  0  0  0  0  0  0  0  0  0
    8.0080   -2.6819    0.0000 C   0  0  3  0  0  0  0  0  0  0  0  0
    7.1014   -3.6640    0.0000 C   0  0  0  0  0  0  0  0  0  0  0  0
   10.1611   -2.0398    0.0000 C   0  0  0  0  0  0  0  0  0  0  0  0
    8.3857   -1.9642    0.0000 C   0  0  0  0  0  0  0  0  0  0  0  0
   10.9166   -4.3817    0.0000 C   0  0  0  0  0  0  0  0  0  0  0  0
   11.3321   -3.6640    0.0000 C   0  0  0  0  0  0  0  0  0  0  0  0
    6.2704   -3.6640    0.0000 C   0  0  0  0  0  0  0  0  0  0  0  0
    6.6859   -4.3817    0.0000 C   0  0  0  0  0  0  0  0  0  0  0  0
    3.0597   -2.2664    0.0000 C   0  0  0  0  0  0  0  0  0  0  0  0
    1.5865   -2.2664    0.0000 C   0  0  0  0  0  0  0  0  0  0  0  0
    3.2485   -3.0597    0.0000 C   0  0  0  0  0  0  0  0  0  0  0  0
    1.3976   -3.0597    0.0000 C   0  0  0  0  0  0  0  0  0  0  0  0
    2.3420   -1.0954    0.0000 C   0  0  0  0  0  0  0  0  0  0  0  0
    2.7197   -3.7018    0.0000 C   0  0  0  0  0  0  0  0  0  0  0  0
    1.9265   -3.7018    0.0000 C   0  0  0  0  0  0  0  0  0  0  0  0
    3.6640   -1.6998    0.0000 C   0  0  0  0  0  0  0  0  0  0  0  0
    0.9821   -1.6998    0.0000 C   0  0  0  0  0  0  0  0  0  0  0  0
    4.0418   -3.2863    0.0000 C   0  0  0  0  0  0  0  0  0  0  0  0
    0.6044   -3.2863    0.0000 C   0  0  0  0  0  0  0  0  0  0  0  0
    4.4573   -1.9642    0.0000 C   0  0  0  0  0  0  0  0  0  0  0  0
    0.1889   -1.9642    0.0000 C   0  0  0  0  0  0  0  0  0  0  0  0
    4.6462   -2.7575    0.0000 C   0  0  0  0  0  0  0  0  0  0  0  0
    0.0000   -2.7575    0.0000 C   0  0  0  0  0  0  0  0  0  0  0  0
  1  7  1  0  0  0  0
  1  8  2  0  0  0  0
  1  9  2  0  0  0  0
  1 12  1  0  0  0  0
  2 14  1  0  0  0  0
  2 17  1  0  0  0  0
 15  3  1  1  0  0  0
  3 17  1  0  0  0  0
  4 14  1  0  0  0  0
  4 21  1  0  0  0  0
 16  5  1  6  0  0  0
  5 19  1  0  0  0  0
 18  6  1  6  0  0  0
  6 19  1  0  0  0  0
  7 20  1  0  0  0  0
 10 30  2  0  0  0  0
 11 26  1  0  0  0  0
 11 27  1  0  0  0  0
 11 30  1  0  0  0  0
 13 30  1  0  0  0  0
 14 15  1  0  0  0  0
 14 20  1  6  0  0  0
 15 16  1  0  0  0  0
 16 18  1  0  0  0  0
 17 22  1  0  0  0  0
 17 23  1  0  0  0  0
 18 21  1  0  0  0  0
 19 24  1  0  0  0  0
 19 25  1  0  0  0  0
 26 28  1  0  0  0  0
 26 33  2  0  0  0  0
 27 29  2  0  0  0  0
 27 34  1  0  0  0  0
 28 31  1  0  0  0  0
 28 35  2  0  0  0  0
 29 32  1  0  0  0  0
 29 36  1  0  0  0  0
 31 32  2  0  0  0  0
 33 37  1  0  0  0  0
 34 38  2  0  0  0  0
 35 39  1  0  0  0  0
 36 40  2  0  0  0  0
 37 39  2  0  0  0  0
 38 40  1  0  0  0  0
M  END
> <PUBCHEM_COMPOUND_ID_TYPE>
0

> <PUBCHEM_TOTAL_CHARGE>
0

> <PUBCHEM_SUBSTANCE_ID>
310935520

> <PUBCHEM_SUBSTANCE_VERSION>
1

> <PUBCHEM_EXT_DATASOURCE_NAME>
4488

> <PUBCHEM_EXT_DATASOURCE_REGID>
SCHEMBL16113088

> <PUBCHEM_SUBSTANCE_COMMENT>
InChI=1S/C15H12N2O.C12H21NO8S/c16-15(18)17-13-7-3-1-5-11(13)9-10-12-6-2-4-8-14(12)17;1-10(2)18-7-5-16-12(6-17-22(13,14)15)9(8(7)19-10)20-11(3,4)21-12/h1-10H,(H2,16,18);7-9H,5-6H2,1-4H3,(H2,13,14,15)/t;7-,8-,9+,12+/m.1/s1
InChIKey=MGWUPTFLZMQKCG-VVBICHBISA-N

> <PUBCHEM_SUBSTANCE_SYNONYM>
SCHEMBL16113088

> <PUBCHEM_XREF_EXT_ID>
SCHEMBL16113088

> <PUBCHEM_EXT_DATASOURCE_URL>
https://www.surechembl.org/

> <PUBCHEM_EXT_SUBSTANCE_URL>
https://www.surechembl.org/chemical/SCHEMBL16113088

> <PUBCHEM_CID_ASSOCIATIONS>
117603549  1
2554  2
5284627  2

> <PUBCHEM_COORDINATE_TYPE>
1
3

> <PUBCHEM_BONDANNOTATIONS>
14  20  6
15  3  5
16  5  6
18  6  6

$$$$
