310929973
  -OEChem-07211613022D

 27 25  0     0  0  0  0  0  0999 V2000
   14.4003    0.8250    0.0000 O   0  0  0  0  0  0  0  0  0  0  0  0
   11.4318    0.4125    0.0000 O   0  0  0  0  0  0  0  0  0  0  0  0
   12.1463   -0.8250    0.0000 O   0  0  0  0  0  0  0  0  0  0  0  0
   15.1147   -0.4125    0.0000 N   0  0  0  0  0  0  0  0  0  0  0  0
   12.9713    0.0000    0.0000 N   0  0  0  0  0  0  0  0  0  0  0  0
   14.4003    0.0000    0.0000 C   0  0  0  0  0  0  0  0  0  0  0  0
   13.6858   -0.4125    0.0000 C   0  0  0  0  0  0  0  0  0  0  0  0
   11.4318   -0.4125    0.0000 C   0  0  0  0  0  0  0  0  0  0  0  0
   10.7173   -0.8250    0.0000 C   0  0  0  0  0  0  0  0  0  0  0  0
   10.0028   -0.4125    0.0000 C   0  0  0  0  0  0  0  0  0  0  0  0
    9.2883   -0.8250    0.0000 C   0  0  0  0  0  0  0  0  0  0  0  0
    8.5738   -0.4125    0.0000 C   0  0  0  0  0  0  0  0  0  0  0  0
    7.8594   -0.8250    0.0000 C   0  0  0  0  0  0  0  0  0  0  0  0
    7.1449   -0.4125    0.0000 C   0  0  0  0  0  0  0  0  0  0  0  0
   15.1147   -1.2375    0.0000 C   0  0  0  0  0  0  0  0  0  0  0  0
   15.8292    0.0000    0.0000 C   0  0  0  0  0  0  0  0  0  0  0  0
    6.4304   -0.8250    0.0000 C   0  0  0  0  0  0  0  0  0  0  0  0
    5.7159   -0.4125    0.0000 C   0  0  0  0  0  0  0  0  0  0  0  0
    5.0014   -0.8250    0.0000 C   0  0  0  0  0  0  0  0  0  0  0  0
    4.2869   -0.4125    0.0000 C   0  0  0  0  0  0  0  0  0  0  0  0
    3.5724   -0.8250    0.0000 C   0  0  0  0  0  0  0  0  0  0  0  0
    2.8579   -0.4125    0.0000 C   0  0  0  0  0  0  0  0  0  0  0  0
    2.1435   -0.8250    0.0000 C   0  0  0  0  0  0  0  0  0  0  0  0
    1.4290   -0.4125    0.0000 C   0  0  0  0  0  0  0  0  0  0  0  0
    0.7145   -0.8250    0.0000 C   0  0  0  0  0  0  0  0  0  0  0  0
    0.0000   -0.4125    0.0000 C   0  0  0  0  0  0  0  0  0  0  0  0
   -0.7145   -0.8250    0.0000 C   0  0  0  0  0  0  0  0  0  0  0  0
  1  6  2  0  0  0  0
  2  8  2  0  0  0  0
  3  8  1  0  0  0  0
  4  6  1  0  0  0  0
  4 15  1  0  0  0  0
  4 16  1  0  0  0  0
  5  7  1  0  0  0  0
  6  7  1  0  0  0  0
  8  9  1  0  0  0  0
  9 10  1  0  0  0  0
 10 11  1  0  0  0  0
 11 12  1  0  0  0  0
 12 13  1  0  0  0  0
 13 14  1  0  0  0  0
 14 17  1  0  0  0  0
 17 18  1  0  0  0  0
 18 19  1  0  0  0  0
 19 20  1  0  0  0  0
 20 21  1  0  0  0  0
 21 22  1  0  0  0  0
 22 23  1  0  0  0  0
 23 24  1  0  0  0  0
 24 25  1  0  0  0  0
 25 26  1  0  0  0  0
 26 27  1  0  0  0  0
M  END
> <PUBCHEM_COMPOUND_ID_TYPE>
0

> <PUBCHEM_TOTAL_CHARGE>
0

> <PUBCHEM_SUBSTANCE_ID>
310929973

> <PUBCHEM_SUBSTANCE_VERSION>
1

> <PUBCHEM_EXT_DATASOURCE_NAME>
4488

> <PUBCHEM_EXT_DATASOURCE_REGID>
SCHEMBL16107206

> <PUBCHEM_SUBSTANCE_COMMENT>
InChI=1S/C18H36O2.C4H10N2O/c1-2-3-4-5-6-7-8-9-10-11-12-13-14-15-16-17-18(19)20;1-6(2)4(7)3-5/h2-17H2,1H3,(H,19,20);3,5H2,1-2H3
InChIKey=MNORVOVNKLUUSB-UHFFFAOYSA-N

> <PUBCHEM_SUBSTANCE_SYNONYM>
SCHEMBL16107206

> <PUBCHEM_XREF_EXT_ID>
SCHEMBL16107206

> <PUBCHEM_EXT_DATASOURCE_URL>
https://www.surechembl.org/

> <PUBCHEM_EXT_SUBSTANCE_URL>
https://www.surechembl.org/chemical/SCHEMBL16107206

> <PUBCHEM_CID_ASSOCIATIONS>
117599230  1
5281  2
4961823  2

> <PUBCHEM_COORDINATE_TYPE>
1
3

$$$$
