310937276
  -OEChem-07211613022D

 20 20  0     0  0  0  0  0  0999 V2000
    5.2085    0.0000    0.0000 O   0  0  0  0  0  0  0  0  0  0  0  0
    3.7979    0.0000    0.0000 O   0  0  0  0  0  0  0  0  0  0  0  0
    0.0000   -0.1953    0.0000 O   0  0  0  0  0  0  0  0  0  0  0  0
    2.1485   -1.4323    0.0000 O   0  0  0  0  0  0  0  0  0  0  0  0
    0.0000   -2.6694    0.0000 O   0  0  0  0  0  0  0  0  0  0  0  0
    6.0115   -1.3889    0.0000 N   0  0  0  0  0  0  0  0  0  0  0  0
    6.0115   -2.7128    0.0000 N   0  0  0  0  0  0  0  0  0  0  0  0
    0.7162   -2.2570    0.0000 N   0  0  0  0  0  0  0  0  0  0  0  0
    5.2302   -1.6277    0.0000 C   0  0  0  0  0  0  0  0  0  0  0  0
    4.5141   -1.2370    0.0000 C   0  0  0  0  0  0  0  0  0  0  0  0
    5.2302   -2.4740    0.0000 C   0  0  0  0  0  0  0  0  0  0  0  0
    4.4924   -0.4123    0.0000 C   0  0  0  0  0  0  0  0  0  0  0  0
    3.8196   -1.6277    0.0000 C   0  0  0  0  0  0  0  0  0  0  0  0
    4.5141   -2.8647    0.0000 C   0  0  0  0  0  0  0  0  0  0  0  0
    6.5106   -2.0400    0.0000 C   0  0  0  0  0  0  0  0  0  0  0  0
    3.8196   -2.4740    0.0000 C   0  0  0  0  0  0  0  0  0  0  0  0
    0.7162   -1.4323    0.0000 C   0  0  0  0  0  0  0  0  0  0  0  0
    0.0000   -1.0200    0.0000 C   0  0  0  0  0  0  0  0  0  0  0  0
    1.4323   -1.0200    0.0000 C   0  0  0  0  0  0  0  0  0  0  0  0
    0.0000   -1.8447    0.0000 C   0  0  0  0  0  0  0  0  0  0  0  0
  1 12  2  0  0  0  0
  2 12  1  0  0  0  0
  3 18  1  0  0  0  0
  4 19  1  0  0  0  0
  5 20  1  0  0  0  0
  6  9  1  0  0  0  0
  6 15  2  0  0  0  0
  7 11  1  0  0  0  0
  7 15  1  0  0  0  0
  8 17  1  0  0  0  0
  9 10  1  0  0  0  0
  9 11  2  0  0  0  0
 10 12  1  0  0  0  0
 10 13  2  0  0  0  0
 11 14  1  0  0  0  0
 13 16  1  0  0  0  0
 14 16  2  0  0  0  0
 17 18  1  0  0  0  0
 17 19  1  0  0  0  0
 17 20  1  0  0  0  0
M  END
> <PUBCHEM_COMPOUND_ID_TYPE>
0

> <PUBCHEM_TOTAL_CHARGE>
0

> <PUBCHEM_SUBSTANCE_ID>
310937276

> <PUBCHEM_SUBSTANCE_VERSION>
1

> <PUBCHEM_EXT_DATASOURCE_NAME>
4488

> <PUBCHEM_EXT_DATASOURCE_REGID>
SCHEMBL16115019

> <PUBCHEM_SUBSTANCE_COMMENT>
InChI=1S/C8H6N2O2.C4H11NO3/c11-8(12)5-2-1-3-6-7(5)10-4-9-6;5-4(1-6,2-7)3-8/h1-4H,(H,9,10)(H,11,12);6-8H,1-3,5H2
InChIKey=BAYKEGDCDZFODG-UHFFFAOYSA-N

> <PUBCHEM_SUBSTANCE_SYNONYM>
SCHEMBL16115019

> <PUBCHEM_XREF_EXT_ID>
SCHEMBL16115019

> <PUBCHEM_EXT_DATASOURCE_URL>
https://www.surechembl.org/

> <PUBCHEM_EXT_SUBSTANCE_URL>
https://www.surechembl.org/chemical/SCHEMBL16115019

> <PUBCHEM_CID_ASSOCIATIONS>
117605065  1
6503  2
2771758  2

> <PUBCHEM_COORDINATE_TYPE>
1
3

$$$$
