310938181
  -OEChem-07211613022D

 38 42  0     0  0  0  0  0  0999 V2000
    7.0032   -4.8054    0.0000 F   0  0  0  0  0  0  0  0  0  0  0  0
    5.8484    0.0000    0.0000 F   0  0  0  0  0  0  0  0  0  0  0  0
    9.7598   -1.6390    0.0000 F   0  0  0  0  0  0  0  0  0  0  0  0
    9.0521   -2.9056    0.0000 F   0  0  0  0  0  0  0  0  0  0  0  0
    9.0521   -2.0488    0.0000 F   0  0  0  0  0  0  0  0  0  0  0  0
   10.4676   -3.7251    0.0000 O   0  0  0  0  0  0  0  0  0  0  0  0
   11.1753   -2.4586    0.0000 O   0  0  0  0  0  0  0  0  0  0  0  0
    6.0720   -2.4586    0.0000 N   0  0  0  0  0  0  0  0  0  0  0  0
    5.0289   -3.8369    0.0000 N   0  0  0  0  0  0  0  0  0  0  0  0
    7.4130   -2.4958    0.0000 N   0  0  0  0  0  0  0  0  0  0  0  0
    2.1978   -1.4901    0.0000 N   0  0  0  0  0  0  0  0  0  0  0  0
    3.6879   -4.3956    0.0000 N   0  0  0  0  0  0  0  0  0  0  0  0
    4.8427   -5.2524    0.0000 N   0  0  0  0  0  0  0  0  0  0  0  0
    0.0000   -2.5703    0.0000 N   0  0  0  0  0  0  0  0  0  0  0  0
    6.2955   -3.2781    0.0000 C   0  0  0  0  0  0  0  0  0  0  0  0
    5.8112   -3.9486    0.0000 C   0  0  0  0  0  0  0  0  0  0  0  0
    6.7052   -2.0116    0.0000 C   0  0  0  0  0  0  0  0  0  0  0  0
    2.1978   -2.7938    0.0000 C   0  0  0  0  0  0  0  0  0  0  0  0
    1.4528   -2.5703    0.0000 C   0  0  0  0  0  0  0  0  0  0  0  0
    2.7193   -2.1233    0.0000 C   0  0  0  0  0  0  0  0  0  0  0  0
    1.4528   -1.7136    0.0000 C   0  0  0  0  0  0  0  0  0  0  0  0
    7.1150   -3.2781    0.0000 C   0  0  0  0  0  0  0  0  0  0  0  0
    6.1837   -4.6936    0.0000 C   0  0  0  0  0  0  0  0  0  0  0  0
    4.5074   -4.5074    0.0000 C   0  0  0  0  0  0  0  0  0  0  0  0
    3.3526   -3.6506    0.0000 C   0  0  0  0  0  0  0  0  0  0  0  0
    2.5703   -3.5389    0.0000 C   0  0  0  0  0  0  0  0  0  0  0  0
    5.3269   -2.1233    0.0000 C   0  0  0  0  0  0  0  0  0  0  0  0
    6.6307   -1.1920    0.0000 C   0  0  0  0  0  0  0  0  0  0  0  0
    3.5016   -2.2351    0.0000 C   0  0  0  0  0  0  0  0  0  0  0  0
    5.9229   -0.8568    0.0000 C   0  0  0  0  0  0  0  0  0  0  0  0
    5.6622   -5.3642    0.0000 C   0  0  0  0  0  0  0  0  0  0  0  0
    3.8369   -2.9801    0.0000 C   0  0  0  0  0  0  0  0  0  0  0  0
    0.7078   -2.9801    0.0000 C   0  0  0  0  0  0  0  0  0  0  0  0
    5.2524   -1.3038    0.0000 C   0  0  0  0  0  0  0  0  0  0  0  0
    0.7078   -1.3038    0.0000 C   0  0  0  0  0  0  0  0  0  0  0  0
    0.0000   -1.7136    0.0000 C   0  0  0  0  0  0  0  0  0  0  0  0
    9.7598   -2.4586    0.0000 C   0  0  0  0  0  0  0  0  0  0  0  0
   10.4676   -2.9056    0.0000 C   0  0  0  0  0  0  0  0  0  0  0  0
  1 23  1  0  0  0  0
  2 30  1  0  0  0  0
  3 37  1  0  0  0  0
  4 37  1  0  0  0  0
  5 37  1  0  0  0  0
  6 38  2  0  0  0  0
  7 38  1  0  0  0  0
  8 15  1  0  0  0  0
  8 17  1  0  0  0  0
  8 27  1  0  0  0  0
  9 16  2  0  0  0  0
  9 24  1  0  0  0  0
 10 17  2  0  0  0  0
 10 22  1  0  0  0  0
 11 20  1  0  0  0  0
 11 21  1  0  0  0  0
 12 24  1  0  0  0  0
 12 25  1  0  0  0  0
 13 24  2  0  0  0  0
 13 31  1  0  0  0  0
 14 33  1  0  0  0  0
 14 36  1  0  0  0  0
 15 16  1  0  0  0  0
 15 22  2  0  0  0  0
 16 23  1  0  0  0  0
 17 28  1  0  0  0  0
 18 19  1  0  0  0  0
 18 20  2  0  0  0  0
 18 26  1  0  0  0  0
 19 21  2  0  0  0  0
 19 33  1  0  0  0  0
 20 29  1  0  0  0  0
 21 35  1  0  0  0  0
 23 31  2  0  0  0  0
 25 26  2  0  0  0  0
 25 32  1  0  0  0  0
 27 34  2  0  0  0  0
 28 30  2  0  0  0  0
 29 32  2  0  0  0  0
 30 34  1  0  0  0  0
 35 36  1  0  0  0  0
 37 38  1  0  0  0  0
M  END
> <PUBCHEM_COMPOUND_ID_TYPE>
0

> <PUBCHEM_TOTAL_CHARGE>
0

> <PUBCHEM_SUBSTANCE_ID>
310938181

> <PUBCHEM_SUBSTANCE_VERSION>
1

> <PUBCHEM_EXT_DATASOURCE_NAME>
4488

> <PUBCHEM_EXT_DATASOURCE_REGID>
SCHEMBL16116035

> <PUBCHEM_SUBSTANCE_COMMENT>
InChI=1S/C22H17F2N7.C2HF3O2/c23-12-4-6-31-19(11-26-20(31)7-12)21-16(24)10-27-22(30-21)28-13-1-2-17-14(8-13)15-9-25-5-3-18(15)29-17;3-2(4,5)1(6)7/h1-2,4,6-8,10-11,25,29H,3,5,9H2,(H,27,28,30);(H,6,7)
InChIKey=BYGPUJJRKQWGLV-UHFFFAOYSA-N

> <PUBCHEM_SUBSTANCE_SYNONYM>
SCHEMBL16116035

> <PUBCHEM_XREF_EXT_ID>
SCHEMBL16116035

> <PUBCHEM_EXT_DATASOURCE_URL>
https://www.surechembl.org/

> <PUBCHEM_EXT_SUBSTANCE_URL>
https://www.surechembl.org/chemical/SCHEMBL16116035

> <PUBCHEM_CID_ASSOCIATIONS>
86301266  1
6422  2
86301267  2

> <PUBCHEM_COORDINATE_TYPE>
1
3

$$$$
