310932311
  -OEChem-07211613022D

 24 23  0     0  0  0  0  0  0999 V2000
   13.1177   -0.8308    0.0000 K   0  4  0  0  0  0  0  0  0  0  0  0
    4.9410   -0.4373    0.0000 S   0  0  0  0  0  0  0  0  0  0  0  0
    8.4828    0.0000    0.0000 O   0  0  0  0  0  0  0  0  0  0  0  0
    1.3992    0.0000    0.0000 O   0  0  0  0  0  0  0  0  0  0  0  0
    5.6406   -1.6616    0.0000 N   0  0  0  0  0  0  0  0  0  0  0  0
    4.2414   -1.6616    0.0000 N   0  0  0  0  0  0  0  0  0  0  0  0
    6.3402   -1.2243    0.0000 C   0  0  0  0  0  0  0  0  0  0  0  0
    3.5418   -1.2243    0.0000 C   0  0  0  0  0  0  0  0  0  0  0  0
    4.9410   -1.2243    0.0000 C   0  0  0  0  0  0  0  0  0  0  0  0
    7.7832   -0.4373    0.0000 C   0  0  0  0  0  0  0  0  0  0  0  0
    2.0988   -0.4373    0.0000 C   0  0  0  0  0  0  0  0  0  0  0  0
    7.0399   -1.6616    0.0000 C   0  0  0  0  0  0  0  0  0  0  0  0
    2.8422   -1.6616    0.0000 C   0  0  0  0  0  0  0  0  0  0  0  0
    6.3402   -0.4373    0.0000 C   0  0  0  0  0  0  0  0  0  0  0  0
    3.5418   -0.4373    0.0000 C   0  0  0  0  0  0  0  0  0  0  0  0
    7.7832   -1.2243    0.0000 C   0  0  0  0  0  0  0  0  0  0  0  0
    2.0988   -1.2243    0.0000 C   0  0  0  0  0  0  0  0  0  0  0  0
    7.0399    0.0000    0.0000 C   0  0  0  0  0  0  0  0  0  0  0  0
    2.8422    0.0000    0.0000 C   0  0  0  0  0  0  0  0  0  0  0  0
    9.1824   -0.4373    0.0000 C   0  0  0  0  0  0  0  0  0  0  0  0
    0.6996   -0.4373    0.0000 C   0  0  0  0  0  0  0  0  0  0  0  0
    9.8820    0.0000    0.0000 C   0  0  0  0  0  0  0  0  0  0  0  0
    0.0000    0.0000    0.0000 C   0  0  0  0  0  0  0  0  0  0  0  0
   11.4999   -0.8308    0.0000 Li  0  4  0  0  0  0  0  0  0  0  0  0
  2  9  2  0  0  0  0
  3 10  1  0  0  0  0
  3 20  1  0  0  0  0
  4 11  1  0  0  0  0
  4 21  1  0  0  0  0
  5  7  1  0  0  0  0
  5  9  1  0  0  0  0
  6  8  1  0  0  0  0
  6  9  1  0  0  0  0
  7 12  2  0  0  0  0
  7 14  1  0  0  0  0
  8 13  2  0  0  0  0
  8 15  1  0  0  0  0
 10 16  2  0  0  0  0
 10 18  1  0  0  0  0
 11 17  2  0  0  0  0
 11 19  1  0  0  0  0
 12 16  1  0  0  0  0
 13 17  1  0  0  0  0
 14 18  2  0  0  0  0
 15 19  2  0  0  0  0
 20 22  1  0  0  0  0
 21 23  1  0  0  0  0
M  RAD  2   1   2  24   2
M  END
> <PUBCHEM_COMPOUND_ID_TYPE>
0

> <PUBCHEM_TOTAL_CHARGE>
0

> <PUBCHEM_SUBSTANCE_ID>
310932311

> <PUBCHEM_SUBSTANCE_VERSION>
1

> <PUBCHEM_EXT_DATASOURCE_NAME>
4488

> <PUBCHEM_EXT_DATASOURCE_REGID>
SCHEMBL16109675

> <PUBCHEM_SUBSTANCE_COMMENT>
InChI=1S/C17H20N2O2S.K.Li/c1-3-20-15-9-5-13(6-10-15)18-17(22)19-14-7-11-16(12-8-14)21-4-2;;/h5-12H,3-4H2,1-2H3,(H2,18,19,22);;
InChIKey=GHUPGWDVMVUZIM-UHFFFAOYSA-N

> <PUBCHEM_SUBSTANCE_SYNONYM>
SCHEMBL16109675

> <PUBCHEM_XREF_EXT_ID>
SCHEMBL16109675

> <PUBCHEM_EXT_DATASOURCE_URL>
https://www.surechembl.org/

> <PUBCHEM_EXT_SUBSTANCE_URL>
https://www.surechembl.org/chemical/SCHEMBL16109675

> <PUBCHEM_CID_ASSOCIATIONS>
117600869  1
667483  2
3028194  2
5462222  2

> <PUBCHEM_COORDINATE_TYPE>
1
3

$$$$
