310936036
  -OEChem-07211613022D

 44 48  0     0  0  0  0  0  0999 V2000
    2.0086   -2.0804    0.0000 S   0  0  0  0  0  0  0  0  0  0  0  0
    7.3531   -2.0804    0.0000 S   0  0  0  0  0  0  0  0  0  0  0  0
    0.6456   -3.1206    0.0000 N   0  0  0  0  0  0  0  0  0  0  0  0
    5.9901   -3.1206    0.0000 N   0  0  0  0  0  0  0  0  0  0  0  0
    2.0086   -0.7532    0.0000 N   0  0  0  0  0  0  0  0  0  0  0  0
    7.3531   -0.7532    0.0000 N   0  0  0  0  0  0  0  0  0  0  0  0
    3.2999   -1.4348    0.0000 N   0  0  0  0  0  0  0  0  0  0  0  0
    8.6444   -1.4348    0.0000 N   0  0  0  0  0  0  0  0  0  0  0  0
    1.2195   -1.8293    0.0000 C   0  0  0  0  0  0  0  0  0  0  0  0
    6.5640   -1.8293    0.0000 C   0  0  0  0  0  0  0  0  0  0  0  0
    0.7891   -4.7347    0.0000 C   0  0  0  0  0  0  0  0  0  0  0  0
    6.1336   -4.7347    0.0000 C   0  0  0  0  0  0  0  0  0  0  0  0
    0.8609   -5.5597    0.0000 C   0  0  0  0  0  0  0  0  0  0  0  0
    6.2053   -5.5597    0.0000 C   0  0  0  0  0  0  0  0  0  0  0  0
    0.5739   -2.2956    0.0000 C   0  0  0  0  0  0  0  0  0  0  0  0
    5.9183   -2.2956    0.0000 C   0  0  0  0  0  0  0  0  0  0  0  0
    2.4749   -1.4348    0.0000 C   0  0  0  0  0  0  0  0  0  0  0  0
    7.8194   -1.4348    0.0000 C   0  0  0  0  0  0  0  0  0  0  0  0
    1.3989   -3.4434    0.0000 C   0  0  0  0  0  0  0  0  0  0  0  0
    0.0000   -3.5869    0.0000 C   0  0  0  0  0  0  0  0  0  0  0  0
    6.7433   -3.4434    0.0000 C   0  0  0  0  0  0  0  0  0  0  0  0
    5.3445   -3.5869    0.0000 C   0  0  0  0  0  0  0  0  0  0  0  0
    1.4706   -4.2684    0.0000 C   0  0  0  0  0  0  0  0  0  0  0  0
    0.0718   -4.4119    0.0000 C   0  0  0  0  0  0  0  0  0  0  0  0
    6.8151   -4.2684    0.0000 C   0  0  0  0  0  0  0  0  0  0  0  0
    5.4162   -4.4119    0.0000 C   0  0  0  0  0  0  0  0  0  0  0  0
    1.2195   -1.0402    0.0000 C   0  0  0  0  0  0  0  0  0  0  0  0
    6.5640   -1.0402    0.0000 C   0  0  0  0  0  0  0  0  0  0  0  0
    1.6141   -5.8825    0.0000 C   0  0  0  0  0  0  0  0  0  0  0  0
    6.9586   -5.8825    0.0000 C   0  0  0  0  0  0  0  0  0  0  0  0
    0.2152   -6.0260    0.0000 C   0  0  0  0  0  0  0  0  0  0  0  0
    5.5597   -6.0260    0.0000 C   0  0  0  0  0  0  0  0  0  0  0  0
    1.6858   -6.7075    0.0000 C   0  0  0  0  0  0  0  0  0  0  0  0
    7.0303   -6.7075    0.0000 C   0  0  0  0  0  0  0  0  0  0  0  0
    0.2869   -6.8509    0.0000 C   0  0  0  0  0  0  0  0  0  0  0  0
    5.6314   -6.8509    0.0000 C   0  0  0  0  0  0  0  0  0  0  0  0
    1.0044   -7.1738    0.0000 C   0  0  0  0  0  0  0  0  0  0  0  0
    6.3488   -7.1738    0.0000 C   0  0  0  0  0  0  0  0  0  0  0  0
    3.6945   -0.7174    0.0000 C   0  0  0  0  0  0  0  0  0  0  0  0
    9.0389   -0.7174    0.0000 C   0  0  0  0  0  0  0  0  0  0  0  0
    3.2641    0.0000    0.0000 C   0  0  0  0  0  0  0  0  0  0  0  0
    8.6444    0.0000    0.0000 C   0  0  0  0  0  0  0  0  0  0  0  0
    2.4749    0.0000    0.0000 C   0  0  0  0  0  0  0  0  0  0  0  0
    7.8194    0.0000    0.0000 C   0  0  0  0  0  0  0  0  0  0  0  0
  1  9  1  0  0  0  0
  1 17  1  0  0  0  0
  2 10  1  0  0  0  0
  2 18  1  0  0  0  0
  3 15  1  0  0  0  0
  3 19  1  0  0  0  0
  3 20  1  0  0  0  0
  4 16  1  0  0  0  0
  4 21  1  0  0  0  0
  4 22  1  0  0  0  0
  5 17  2  0  0  0  0
  5 27  1  0  0  0  0
  6 18  2  0  0  0  0
  6 28  1  0  0  0  0
  7 17  1  0  0  0  0
  7 39  1  0  0  0  0
  8 18  1  0  0  0  0
  8 40  1  0  0  0  0
  9 15  1  0  0  0  0
  9 27  2  0  0  0  0
 10 16  1  0  0  0  0
 10 28  2  0  0  0  0
 11 13  1  0  0  0  0
 11 23  1  0  0  0  0
 11 24  1  0  0  0  0
 12 14  1  0  0  0  0
 12 25  1  0  0  0  0
 12 26  1  0  0  0  0
 13 29  2  0  0  0  0
 13 31  1  0  0  0  0
 14 30  2  0  0  0  0
 14 32  1  0  0  0  0
 19 23  1  0  0  0  0
 20 24  1  0  0  0  0
 21 25  1  0  0  0  0
 22 26  1  0  0  0  0
 29 33  1  0  0  0  0
 30 34  1  0  0  0  0
 31 35  2  0  0  0  0
 32 36  2  0  0  0  0
 33 37  2  0  0  0  0
 34 38  2  0  0  0  0
 35 37  1  0  0  0  0
 36 38  1  0  0  0  0
 39 41  1  0  0  0  0
 40 42  1  0  0  0  0
 41 43  1  0  0  0  0
 42 44  1  0  0  0  0
M  END
> <PUBCHEM_COMPOUND_ID_TYPE>
0

> <PUBCHEM_TOTAL_CHARGE>
0

> <PUBCHEM_SUBSTANCE_ID>
310936036

> <PUBCHEM_SUBSTANCE_VERSION>
1

> <PUBCHEM_EXT_DATASOURCE_NAME>
4488

> <PUBCHEM_EXT_DATASOURCE_REGID>
SCHEMBL16113639

> <PUBCHEM_SUBSTANCE_COMMENT>
InChI=1S/2C18H25N3S/c2*1-2-10-19-18-20-13-17(22-18)14-21-11-8-16(9-12-21)15-6-4-3-5-7-15/h2*3-7,13,16H,2,8-12,14H2,1H3,(H,19,20)
InChIKey=GBMUQEOULHKWHY-UHFFFAOYSA-N

> <PUBCHEM_SUBSTANCE_SYNONYM>
SCHEMBL16113639

> <PUBCHEM_XREF_EXT_ID>
SCHEMBL16113639

> <PUBCHEM_EXT_DATASOURCE_URL>
https://www.surechembl.org/

> <PUBCHEM_EXT_SUBSTANCE_URL>
https://www.surechembl.org/chemical/SCHEMBL16113639

> <PUBCHEM_CID_ASSOCIATIONS>
117604003  1
86274334  2

> <PUBCHEM_COORDINATE_TYPE>
1
3

$$$$
