310929926
  -OEChem-07211613022D

 13 11  0     0  0  0  0  0  0999 V2000
    5.9755    0.0000    0.0000 O   0  0  0  0  0  0  0  0  0  0  0  0
    2.1628   -0.4013    0.0000 O   0  0  0  0  0  0  0  0  0  0  0  0
    5.9755   -0.8250    0.0000 C   0  0  0  0  0  0  0  0  0  0  0  0
    5.2620   -1.2263    0.0000 C   0  0  0  0  0  0  0  0  0  0  0  0
    2.1628   -1.2263    0.0000 C   0  0  0  0  0  0  0  0  0  0  0  0
    1.4493   -1.6499    0.0000 C   0  0  0  0  0  0  0  0  0  0  0  0
    0.7358   -1.2263    0.0000 C   0  0  0  0  0  0  0  0  0  0  0  0
    6.6890   -1.2263    0.0000 C   0  0  0  0  0  0  0  0  0  0  0  0
    4.5485   -0.8250    0.0000 C   0  0  0  0  0  0  0  0  0  0  0  0
    5.2620   -2.0513    0.0000 C   0  0  0  0  0  0  0  0  0  0  0  0
    2.8762   -1.6499    0.0000 C   0  0  0  0  0  0  0  0  0  0  0  0
    0.7358   -0.4013    0.0000 C   0  0  0  0  0  0  0  0  0  0  0  0
    0.0000   -1.6499    0.0000 C   0  0  0  0  0  0  0  0  0  0  0  0
  1  3  2  0  0  0  0
  2  5  2  0  0  0  0
  3  4  1  0  0  0  0
  3  8  1  0  0  0  0
  4  9  1  0  0  0  0
  4 10  1  0  0  0  0
  5  6  1  0  0  0  0
  5 11  1  0  0  0  0
  6  7  1  0  0  0  0
  7 12  1  0  0  0  0
  7 13  1  0  0  0  0
M  END
> <PUBCHEM_COMPOUND_ID_TYPE>
0

> <PUBCHEM_TOTAL_CHARGE>
0

> <PUBCHEM_SUBSTANCE_ID>
310929926

> <PUBCHEM_SUBSTANCE_VERSION>
1

> <PUBCHEM_EXT_DATASOURCE_NAME>
4488

> <PUBCHEM_EXT_DATASOURCE_REGID>
SCHEMBL16107143

> <PUBCHEM_SUBSTANCE_COMMENT>
InChI=1S/C6H12O.C5H10O/c1-5(2)4-6(3)7;1-4(2)5(3)6/h5H,4H2,1-3H3;4H,1-3H3
InChIKey=XEFLNIYBWZWUAP-UHFFFAOYSA-N

> <PUBCHEM_SUBSTANCE_SYNONYM>
SCHEMBL16107143

> <PUBCHEM_XREF_EXT_ID>
SCHEMBL16107143

> <PUBCHEM_EXT_DATASOURCE_URL>
https://www.surechembl.org/

> <PUBCHEM_EXT_SUBSTANCE_URL>
https://www.surechembl.org/chemical/SCHEMBL16107143

> <PUBCHEM_CID_ASSOCIATIONS>
117599189  1
7909  2
11251  2

> <PUBCHEM_COORDINATE_TYPE>
1
3

$$$$
