310930005
  -OEChem-07211613022D

 24 24  0     1  0  0  0  0  0999 V2000
    2.8286    3.9289    0.0000 S   0  0  0  0  0  0  0  0  0  0  0  0
    2.8286    3.1039    0.0000 O   0  0  0  0  0  0  0  0  0  0  0  0
    2.8286    4.7539    0.0000 O   0  5  0  0  0  0  0  0  0  0  0  0
    2.0036    3.9289    0.0000 O   0  0  0  0  0  0  0  0  0  0  0  0
    3.6536    3.9289    0.0000 O   0  0  0  0  0  0  0  0  0  0  0  0
    4.3045   -3.5686    0.0000 N   0  0  0  0  0  0  0  0  0  0  0  0
    4.2575    1.4539    0.0000 N   0  0  3  0  0  0  0  0  0  0  0  0
    4.9720   -2.2586    0.0000 N   0  0  0  0  0  0  0  0  0  0  0  0
    4.2575   -1.8461    0.0000 N   0  0  0  0  0  0  0  0  0  0  0  0
    5.6394   -3.5686    0.0000 N   0  0  0  0  0  0  0  0  0  0  0  0
    5.3845   -4.3532    0.0000 N   0  0  0  0  0  0  0  0  0  0  0  0
    4.9720   -3.0836    0.0000 C   0  0  0  0  0  0  0  0  0  0  0  0
    4.2575    0.6289    0.0000 C   0  0  0  0  0  0  0  0  0  0  0  0
    4.2575   -1.0211    0.0000 C   0  0  0  0  0  0  0  0  0  0  0  0
    4.9720    0.2164    0.0000 C   0  0  0  0  0  0  0  0  0  0  0  0
    3.5430    0.2164    0.0000 C   0  0  0  0  0  0  0  0  0  0  0  0
    4.9720   -0.6086    0.0000 C   0  0  0  0  0  0  0  0  0  0  0  0
    3.5430   -0.6086    0.0000 C   0  0  0  0  0  0  0  0  0  0  0  0
    4.5595   -4.3532    0.0000 C   0  0  0  0  0  0  0  0  0  0  0  0
    3.5430    1.8664    0.0000 C   0  0  0  0  0  0  0  0  0  0  0  0
    3.5430    2.6914    0.0000 C   0  0  0  0  0  0  0  0  0  0  0  0
    3.5199   -3.3136    0.0000 C   0  0  0  0  0  0  0  0  0  0  0  0
    4.9720    1.8664    0.0000 C   0  0  0  0  0  0  0  0  0  0  0  0
    0.0000    0.0000    0.0000 H   0  3  0  0  0  0  0  0  0  0  0  0
  1  2  1  0  0  0  0
  1  3  1  0  0  0  0
  1  4  2  0  0  0  0
  1  5  2  0  0  0  0
  2 21  1  0  0  0  0
  6 12  1  0  0  0  0
  6 19  1  0  0  0  0
  6 22  1  0  0  0  0
  7 13  1  0  0  0  0
  7 20  1  0  0  0  0
  7 23  1  0  0  0  0
  8  9  2  0  0  0  0
  8 12  1  0  0  0  0
  9 14  1  0  0  0  0
 10 11  1  0  0  0  0
 10 12  2  0  0  0  0
 11 19  2  0  0  0  0
 13 15  2  0  0  0  0
 13 16  1  0  0  0  0
 14 17  2  0  0  0  0
 14 18  1  0  0  0  0
 15 17  1  0  0  0  0
 16 18  2  0  0  0  0
 20 21  1  0  0  0  0
M  CHG  2   3  -1  24   1
M  END
> <PUBCHEM_COMPOUND_ID_TYPE>
0

> <PUBCHEM_TOTAL_CHARGE>
0

> <PUBCHEM_SUBSTANCE_ID>
310930005

> <PUBCHEM_SUBSTANCE_VERSION>
1

> <PUBCHEM_EXT_DATASOURCE_NAME>
4488

> <PUBCHEM_EXT_DATASOURCE_REGID>
SCHEMBL16107244

> <PUBCHEM_SUBSTANCE_COMMENT>
InChI=1S/C12H16N6O4S/c1-17(7-8-22-23(19,20)21)11-5-3-10(4-6-11)14-16-12-15-13-9-18(12)2/h3-6,9H,7-8H2,1-2H3,(H,19,20,21)/b16-14+
InChIKey=YVWMLHOMAFXSDD-JQIJEIRASA-N

> <PUBCHEM_SUBSTANCE_SYNONYM>
SCHEMBL16107244

> <PUBCHEM_XREF_EXT_ID>
SCHEMBL16107244

> <PUBCHEM_EXT_DATASOURCE_URL>
https://www.surechembl.org/

> <PUBCHEM_EXT_SUBSTANCE_URL>
https://www.surechembl.org/chemical/SCHEMBL16107244

> <PUBCHEM_CID_ASSOCIATIONS>
117599256  1
783  2
89559121  2

> <PUBCHEM_COORDINATE_TYPE>
1
3

> <PUBCHEM_BONDANNOTATIONS>
9  14  3

$$$$
