310930292
  -OEChem-07211613022D

 18 16  0     0  0  0  0  0  0999 V2000
    4.8358    0.6430    0.0000 S   0  0  0  0  0  0  0  0  0  0  0  0
    3.7088    0.3411    0.0000 F   0  0  0  0  0  0  0  0  0  0  0  0
    5.1378   -0.4839    0.0000 F   0  0  0  0  0  0  0  0  0  0  0  0
    4.4233   -1.5004    0.0000 F   0  0  0  0  0  0  0  0  0  0  0  0
    3.1858   -0.7859    0.0000 F   0  0  0  0  0  0  0  0  0  0  0  0
    4.1213    1.0555    0.0000 O   0  0  0  0  0  0  0  0  0  0  0  0
    5.5503    0.2305    0.0000 O   0  0  0  0  0  0  0  0  0  0  0  0
    5.2483    1.3575    0.0000 O   0  0  0  0  0  0  0  0  0  0  0  0
    0.3572    0.7219    0.0000 N   0  3  0  0  0  0  0  0  0  0  0  0
    4.4233   -0.0714    0.0000 C   0  0  0  0  0  0  0  0  0  0  0  0
    4.0108   -0.7859    0.0000 C   0  0  0  0  0  0  0  0  0  0  0  0
    0.3572   -0.1031    0.0000 C   0  0  0  0  0  0  0  0  0  0  0  0
    0.3572    1.5469    0.0000 C   0  0  0  0  0  0  0  0  0  0  0  0
    1.1822    0.7219    0.0000 C   0  0  0  0  0  0  0  0  0  0  0  0
   -0.4678    0.7219    0.0000 C   0  0  0  0  0  0  0  0  0  0  0  0
   -0.3572   -0.5156    0.0000 C   0  0  0  0  0  0  0  0  0  0  0  0
   -0.3572   -1.3406    0.0000 C   0  0  0  0  0  0  0  0  0  0  0  0
   -1.0717   -1.7531    0.0000 C   0  0  0  0  0  0  0  0  0  0  0  0
  1  6  2  0  0  0  0
  1  7  2  0  0  0  0
  1  8  1  0  0  0  0
  1 10  1  0  0  0  0
  2 10  1  0  0  0  0
  3 10  1  0  0  0  0
  4 11  1  0  0  0  0
  5 11  1  0  0  0  0
  9 12  1  0  0  0  0
  9 13  1  0  0  0  0
  9 14  1  0  0  0  0
  9 15  1  0  0  0  0
 10 11  1  0  0  0  0
 12 16  1  0  0  0  0
 16 17  1  0  0  0  0
 17 18  1  0  0  0  0
M  CHG  1   9   1
M  END
> <PUBCHEM_COMPOUND_ID_TYPE>
0

> <PUBCHEM_TOTAL_CHARGE>
1

> <PUBCHEM_SUBSTANCE_ID>
310930292

> <PUBCHEM_SUBSTANCE_VERSION>
1

> <PUBCHEM_EXT_DATASOURCE_NAME>
4488

> <PUBCHEM_EXT_DATASOURCE_REGID>
SCHEMBL16107570

> <PUBCHEM_SUBSTANCE_COMMENT>
InChI=1S/C7H18N.C2H2F4O3S/c1-5-6-7-8(2,3)4;3-1(4)2(5,6)10(7,8)9/h5-7H2,1-4H3;1H,(H,7,8,9)/q+1;
InChIKey=VZQMUYQUMBXHRL-UHFFFAOYSA-N

> <PUBCHEM_SUBSTANCE_SYNONYM>
SCHEMBL16107570

> <PUBCHEM_XREF_EXT_ID>
SCHEMBL16107570

> <PUBCHEM_EXT_DATASOURCE_URL>
https://www.surechembl.org/

> <PUBCHEM_EXT_SUBSTANCE_URL>
https://www.surechembl.org/chemical/SCHEMBL16107570

> <PUBCHEM_CID_ASSOCIATIONS>
117599474  1
24399  2
10176391  2

> <PUBCHEM_COORDINATE_TYPE>
1
3

$$$$
