310935927
  -OEChem-07211613022D

 34 37  0     1  0  0  0  0  0999 V2000
    2.8941   -2.0729    0.0000 Cl  0  0  0  0  0  0  0  0  0  0  0  0
    9.9339   -2.2684    0.0000 F   0  0  0  0  0  0  0  0  0  0  0  0
    6.5314   -1.1342    0.0000 N   0  0  0  0  0  0  0  0  0  0  0  0
    5.8665    0.0000    0.0000 N   0  0  0  0  0  0  0  0  0  0  0  0
    3.2853   -4.1847    0.0000 N   0  0  3  0  0  0  0  0  0  0  0  0
    2.0729   -6.3749    0.0000 N   0  0  0  0  0  0  0  0  0  0  0  0
    2.8941   -7.7829    0.0000 N   0  0  0  0  0  0  0  0  0  0  0  0
    0.0000   -3.9110    0.0000 N   0  0  0  0  0  0  0  0  0  0  0  0
    5.7100   -1.3298    0.0000 C   0  0  0  0  0  0  0  0  0  0  0  0
    5.2799   -0.5867    0.0000 C   0  0  0  0  0  0  0  0  0  0  0  0
    4.4977   -2.0729    0.0000 C   0  0  0  0  0  0  0  0  0  0  0  0
    4.1066   -2.7768    0.0000 C   0  0  0  0  0  0  0  0  0  0  0  0
    5.3190   -2.0337    0.0000 C   0  0  0  0  0  0  0  0  0  0  0  0
    3.2853   -2.7768    0.0000 C   0  0  0  0  0  0  0  0  0  0  0  0
    4.4585   -0.6258    0.0000 C   0  0  0  0  0  0  0  0  0  0  0  0
    4.0675   -1.3298    0.0000 C   0  0  0  0  0  0  0  0  0  0  0  0
    6.6096   -0.3129    0.0000 C   0  0  0  0  0  0  0  0  0  0  0  0
    7.1571   -1.6817    0.0000 C   0  0  0  0  0  0  0  0  0  0  0  0
    4.5368   -3.4808    0.0000 C   0  0  0  0  0  0  0  0  0  0  0  0
    2.8550   -3.4808    0.0000 C   0  0  0  0  0  0  0  0  0  0  0  0
    4.1066   -4.1847    0.0000 C   0  0  0  0  0  0  0  0  0  0  0  0
    7.9393   -1.4470    0.0000 C   0  0  0  0  0  0  0  0  0  0  0  0
    2.8941   -4.9278    0.0000 C   0  0  3  0  0  0  0  0  0  0  0  0
    8.5260   -1.9946    0.0000 C   0  0  0  0  0  0  0  0  0  0  0  0
    3.2853   -5.6318    0.0000 C   0  0  0  0  0  0  0  0  0  0  0  0
    8.0958   -0.6258    0.0000 C   0  0  0  0  0  0  0  0  0  0  0  0
    2.8941   -6.3359    0.0000 C   0  0  0  0  0  0  0  0  0  0  0  0
    9.3473   -1.7208    0.0000 C   0  0  0  0  0  0  0  0  0  0  0  0
    2.0729   -4.9278    0.0000 C   0  0  0  0  0  0  0  0  0  0  0  0
    8.8780   -0.3520    0.0000 C   0  0  0  0  0  0  0  0  0  0  0  0
    9.5037   -0.8995    0.0000 C   0  0  0  0  0  0  0  0  0  0  0  0
    3.2853   -7.0789    0.0000 C   0  0  0  0  0  0  0  0  0  0  0  0
    1.6817   -7.0789    0.0000 C   0  0  0  0  0  0  0  0  0  0  0  0
    2.0729   -7.8220    0.0000 C   0  0  0  0  0  0  0  0  0  0  0  0
  1 14  1  0  0  0  0
  2 28  1  0  0  0  0
  3  9  1  0  0  0  0
  3 17  1  0  0  0  0
  3 18  1  0  0  0  0
  4 10  1  0  0  0  0
  4 17  2  0  0  0  0
  5 20  1  0  0  0  0
  5 21  1  0  0  0  0
  5 23  1  0  0  0  0
  6 27  2  0  0  0  0
  6 33  1  0  0  0  0
  7 32  2  0  0  0  0
  7 34  1  0  0  0  0
  9 10  2  0  0  0  0
  9 13  1  0  0  0  0
 10 15  1  0  0  0  0
 11 12  1  0  0  0  0
 11 13  2  0  0  0  0
 11 16  1  0  0  0  0
 12 14  1  0  0  0  0
 12 19  2  0  0  0  0
 14 20  2  0  0  0  0
 15 16  2  0  0  0  0
 18 22  1  0  0  0  0
 19 21  1  0  0  0  0
 22 24  2  0  0  0  0
 22 26  1  0  0  0  0
 23 25  1  0  0  0  0
 23 29  1  0  0  0  0
 24 28  1  0  0  0  0
 25 27  1  0  0  0  0
 26 30  2  0  0  0  0
 27 32  1  0  0  0  0
 28 31  2  0  0  0  0
 30 31  1  0  0  0  0
 33 34  2  0  0  0  0
M  END
> <PUBCHEM_COMPOUND_ID_TYPE>
0

> <PUBCHEM_TOTAL_CHARGE>
0

> <PUBCHEM_SUBSTANCE_ID>
310935927

> <PUBCHEM_SUBSTANCE_VERSION>
1

> <PUBCHEM_EXT_DATASOURCE_NAME>
4488

> <PUBCHEM_EXT_DATASOURCE_REGID>
SCHEMBL16113523

> <PUBCHEM_SUBSTANCE_COMMENT>
InChI=1S/C26H23ClFN5.H3N/c1-18(11-22-14-29-8-9-30-22)32-10-7-23(24(27)16-32)20-5-6-25-26(13-20)33(17-31-25)15-19-3-2-4-21(28)12-19;/h2-9,12-14,16-18H,10-11,15H2,1H3;1H3
InChIKey=HBVJQVZNINFPOE-UHFFFAOYSA-N

> <PUBCHEM_SUBSTANCE_SYNONYM>
SCHEMBL16113523

> <PUBCHEM_XREF_EXT_ID>
SCHEMBL16113523

> <PUBCHEM_EXT_DATASOURCE_URL>
https://www.surechembl.org/

> <PUBCHEM_EXT_SUBSTANCE_URL>
https://www.surechembl.org/chemical/SCHEMBL16113523

> <PUBCHEM_CID_ASSOCIATIONS>
117603910  1
222  2
117603911  2

> <PUBCHEM_COORDINATE_TYPE>
1
3

$$$$
