310933672
  -OEChem-07211613022D

  8  6  0     0  0  0  0  0  0999 V2000
    4.4195   -0.8250    0.0000 Br  0  0  0  0  0  0  0  0  0  0  0  0
    1.5321   -0.8250    0.0000 Mg  0  0  0  0  0  0  0  0  0  0  0  0
    0.0000   -0.3978    0.0000 F   0  0  0  0  0  0  0  0  0  0  0  0
    0.7072   -1.6499    0.0000 F   0  0  0  0  0  0  0  0  0  0  0  0
    0.7072    0.0000    0.0000 F   0  0  0  0  0  0  0  0  0  0  0  0
    0.7072   -0.8250    0.0000 C   0  0  0  0  0  0  0  0  0  0  0  0
    1.9446   -1.5468    0.0000 C   0  0  0  0  0  0  0  0  0  0  0  0
    2.7696   -1.5468    0.0000 C   0  0  0  0  0  0  0  0  0  0  0  0
  2  6  1  0  0  0  0
  2  7  1  0  0  0  0
  3  6  1  0  0  0  0
  4  6  1  0  0  0  0
  5  6  1  0  0  0  0
  7  8  1  0  0  0  0
M  END
> <PUBCHEM_COMPOUND_ID_TYPE>
0

> <PUBCHEM_TOTAL_CHARGE>
0

> <PUBCHEM_SUBSTANCE_ID>
310933672

> <PUBCHEM_SUBSTANCE_VERSION>
1

> <PUBCHEM_EXT_DATASOURCE_NAME>
4488

> <PUBCHEM_EXT_DATASOURCE_REGID>
SCHEMBL16111105

> <PUBCHEM_SUBSTANCE_COMMENT>
InChI=1S/C2H5.CF3.BrH.Mg/c1-2;2-1(3)4;;/h1H2,2H3;;1H;
InChIKey=NYYVCEXOBFGOLX-UHFFFAOYSA-N

> <PUBCHEM_SUBSTANCE_SYNONYM>
SCHEMBL16111105

> <PUBCHEM_XREF_EXT_ID>
SCHEMBL16111105

> <PUBCHEM_EXT_DATASOURCE_URL>
https://www.surechembl.org/

> <PUBCHEM_EXT_SUBSTANCE_URL>
https://www.surechembl.org/chemical/SCHEMBL16111105

> <PUBCHEM_CID_ASSOCIATIONS>
117602041  1
260  2
6324  2
6373  2
5462224  2

> <PUBCHEM_COORDINATE_TYPE>
1
3

$$$$
