310936177
  -OEChem-07211613022D

 15 15  0     0  0  0  0  0  0999 V2000
    0.0000   -1.4374    0.0000 Cl  0  0  0  0  0  0  0  0  0  0  0  0
    5.3663   -1.4182    0.0000 N   0  0  0  0  0  0  0  0  0  0  0  0
    4.1398   -0.7283    0.0000 N   0  0  0  0  0  0  0  0  0  0  0  0
    4.9639   -2.1657    0.0000 N   0  0  0  0  0  0  0  0  0  0  0  0
    1.6483   -2.1657    0.0000 N   0  0  0  0  0  0  0  0  0  0  0  0
    4.1398   -2.1657    0.0000 C   0  0  0  0  0  0  0  0  0  0  0  0
    4.5422   -1.4566    0.0000 C   0  0  0  0  0  0  0  0  0  0  0  0
    3.6989   -2.8748    0.0000 C   0  0  0  0  0  0  0  0  0  0  0  0
    3.6989   -1.4566    0.0000 C   0  0  0  0  0  0  0  0  0  0  0  0
    2.8940   -2.8748    0.0000 C   0  0  0  0  0  0  0  0  0  0  0  0
    2.8940   -1.4566    0.0000 C   0  0  0  0  0  0  0  0  0  0  0  0
    2.4724   -2.1657    0.0000 C   0  0  0  0  0  0  0  0  0  0  0  0
    5.7496   -0.7283    0.0000 C   0  0  0  0  0  0  0  0  0  0  0  0
    4.5231   -0.0192    0.0000 C   0  0  0  0  0  0  0  0  0  0  0  0
    5.3663    0.0000    0.0000 C   0  0  0  0  0  0  0  0  0  0  0  0
  2  7  2  0  0  0  0
  2 13  1  0  0  0  0
  3  7  1  0  0  0  0
  3 14  2  0  0  0  0
  4  6  1  0  0  0  0
  5 12  1  0  0  0  0
  6  7  1  0  0  0  0
  6  8  1  0  0  0  0
  6  9  1  0  0  0  0
  8 10  1  0  0  0  0
  9 11  1  0  0  0  0
 10 12  1  0  0  0  0
 11 12  1  0  0  0  0
 13 15  2  0  0  0  0
 14 15  1  0  0  0  0
M  END
> <PUBCHEM_COMPOUND_ID_TYPE>
0

> <PUBCHEM_TOTAL_CHARGE>
0

> <PUBCHEM_SUBSTANCE_ID>
310936177

> <PUBCHEM_SUBSTANCE_VERSION>
1

> <PUBCHEM_EXT_DATASOURCE_NAME>
4488

> <PUBCHEM_EXT_DATASOURCE_REGID>
SCHEMBL16113787

> <PUBCHEM_SUBSTANCE_COMMENT>
InChI=1S/C10H16N4.ClH/c11-8-2-4-10(12,5-3-8)9-13-6-1-7-14-9;/h1,6-8H,2-5,11-12H2;1H
InChIKey=UPQLJCKYUKOAGH-UHFFFAOYSA-N

> <PUBCHEM_SUBSTANCE_SYNONYM>
SCHEMBL16113787

> <PUBCHEM_XREF_EXT_ID>
SCHEMBL16113787

> <PUBCHEM_EXT_DATASOURCE_URL>
https://www.surechembl.org/

> <PUBCHEM_EXT_SUBSTANCE_URL>
https://www.surechembl.org/chemical/SCHEMBL16113787

> <PUBCHEM_CID_ASSOCIATIONS>
117604133  1
313  2
117604134  2

> <PUBCHEM_COORDINATE_TYPE>
1
3

$$$$
