310938143
  -OEChem-07211613022D

 24 21  0     0  0  0  0  0  0999 V2000
    0.7145    1.2375    0.0000 O   0  0  0  0  0  0  0  0  0  0  0  0
    1.4290    0.0000    0.0000 O   0  0  0  0  0  0  0  0  0  0  0  0
   -3.5724    1.2375    0.0000 O   0  0  0  0  0  0  0  0  0  0  0  0
   -4.2869    0.0000    0.0000 O   0  0  0  0  0  0  0  0  0  0  0  0
    4.3975    1.8563    0.0000 O   0  0  0  0  0  0  0  0  0  0  0  0
    5.1119    0.6188    0.0000 O   0  0  0  0  0  0  0  0  0  0  0  0
    4.3975   -0.2063    0.0000 O   0  0  0  0  0  0  0  0  0  0  0  0
    5.1119   -1.4438    0.0000 O   0  0  0  0  0  0  0  0  0  0  0  0
    0.0000    0.0000    0.0000 C   0  0  0  0  0  0  0  0  0  0  0  0
    0.7145    0.4125    0.0000 C   0  0  0  0  0  0  0  0  0  0  0  0
   -0.7145    0.4125    0.0000 C   0  0  0  0  0  0  0  0  0  0  0  0
   -1.4290    0.0000    0.0000 C   0  0  0  0  0  0  0  0  0  0  0  0
   -2.1435    0.4125    0.0000 C   0  0  0  0  0  0  0  0  0  0  0  0
    0.0000   -0.8250    0.0000 C   0  0  0  0  0  0  0  0  0  0  0  0
   -2.8579    0.0000    0.0000 C   0  0  0  0  0  0  0  0  0  0  0  0
   -3.5724    0.4125    0.0000 C   0  0  0  0  0  0  0  0  0  0  0  0
    4.3975    1.0313    0.0000 C   0  0  0  0  0  0  0  0  0  0  0  0
    4.3975   -1.0313    0.0000 C   0  0  0  0  0  0  0  0  0  0  0  0
    3.6829    0.6188    0.0000 C   0  0  0  0  0  0  0  0  0  0  0  0
    3.6829   -1.4438    0.0000 C   0  0  0  0  0  0  0  0  0  0  0  0
    2.9685    1.0313    0.0000 C   0  0  0  0  0  0  0  0  0  0  0  0
    2.9685   -1.0313    0.0000 C   0  0  0  0  0  0  0  0  0  0  0  0
    2.2540    0.6188    0.0000 C   0  0  0  0  0  0  0  0  0  0  0  0
    2.2540   -1.4438    0.0000 C   0  0  0  0  0  0  0  0  0  0  0  0
  1 10  2  0  0  0  0
  2 10  1  0  0  0  0
  3 16  1  0  0  0  0
  4 16  1  0  0  0  0
  5 17  1  0  0  0  0
  6 17  1  0  0  0  0
  7 18  1  0  0  0  0
  8 18  1  0  0  0  0
  9 10  1  0  0  0  0
  9 11  2  3  0  0  0
  9 14  1  0  0  0  0
 11 12  1  0  0  0  0
 12 13  1  0  0  0  0
 13 15  1  0  0  0  0
 15 16  1  0  0  0  0
 17 19  1  0  0  0  0
 18 20  1  0  0  0  0
 19 21  1  0  0  0  0
 20 22  1  0  0  0  0
 21 23  1  0  0  0  0
 22 24  1  0  0  0  0
M  END
> <PUBCHEM_COMPOUND_ID_TYPE>
0

> <PUBCHEM_TOTAL_CHARGE>
0

> <PUBCHEM_SUBSTANCE_ID>
310938143

> <PUBCHEM_SUBSTANCE_VERSION>
1

> <PUBCHEM_EXT_DATASOURCE_NAME>
4488

> <PUBCHEM_EXT_DATASOURCE_REGID>
SCHEMBL16115994

> <PUBCHEM_SUBSTANCE_COMMENT>
InChI=1S/C8H14O4.2C4H10O2/c1-6(8(11)12)4-2-3-5-7(9)10;2*1-2-3-4(5)6/h4,7,9-10H,2-3,5H2,1H3,(H,11,12);2*4-6H,2-3H2,1H3/b6-4+;;
InChIKey=XQFISAYDVUYDPV-SLNOCBGISA-N

> <PUBCHEM_SUBSTANCE_SYNONYM>
SCHEMBL16115994

> <PUBCHEM_XREF_EXT_ID>
SCHEMBL16115994

> <PUBCHEM_EXT_DATASOURCE_URL>
https://www.surechembl.org/

> <PUBCHEM_EXT_SUBSTANCE_URL>
https://www.surechembl.org/chemical/SCHEMBL16115994

> <PUBCHEM_CID_ASSOCIATIONS>
117605695  1
165788  2
57024765  2

> <PUBCHEM_COORDINATE_TYPE>
1
3

> <PUBCHEM_BONDANNOTATIONS>
9  11  1

$$$$
