310937843
  -OEChem-07211613022D

 60 58  0     0  0  0  0  0  0999 V2000
    2.2540   -0.6040    0.0000 O   0  0  0  0  0  0  0  0  0  0  0  0
    0.0000    0.0000    0.0000 O   0  0  0  0  0  0  0  0  0  0  0  0
    2.5559   -0.3020    0.0000 O   0  0  0  0  0  0  0  0  0  0  0  0
   -0.3020   -0.3020    0.0000 O   0  0  0  0  0  0  0  0  0  0  0  0
    3.2101   -1.4094    0.0000 O   0  0  0  0  0  0  0  0  0  0  0  0
    1.5395   -2.6665    0.0000 O   0  0  0  0  0  0  0  0  0  0  0  0
   -0.9562    0.8054    0.0000 O   0  0  0  0  0  0  0  0  0  0  0  0
    0.7144    2.0625    0.0000 O   0  0  0  0  0  0  0  0  0  0  0  0
    3.6829    0.2210    0.0000 O   0  0  0  0  0  0  0  0  0  0  0  0
   -1.4290   -0.8250    0.0000 O   0  0  0  0  0  0  0  0  0  0  0  0
    4.5507   -1.9452    0.0000 O   0  0  0  0  0  0  0  0  0  0  0  0
    0.8250   -3.9040    0.0000 O   0  0  0  0  0  0  0  0  0  0  0  0
   -2.2968    1.3413    0.0000 O   0  0  0  0  0  0  0  0  0  0  0  0
    1.4290    3.3000    0.0000 O   0  0  0  0  0  0  0  0  0  0  0  0
    4.5507   -3.3742    0.0000 O   0  0  0  0  0  0  0  0  0  0  0  0
   -0.6040   -3.9040    0.0000 O   0  0  0  0  0  0  0  0  0  0  0  0
   -2.2968    2.7702    0.0000 O   0  0  0  0  0  0  0  0  0  0  0  0
    2.8579    3.3000    0.0000 O   0  0  0  0  0  0  0  0  0  0  0  0
    5.1118    0.2210    0.0000 O   0  0  0  0  0  0  0  0  0  0  0  0
   -2.8579   -0.8250    0.0000 O   0  0  0  0  0  0  0  0  0  0  0  0
    5.8263   -1.0165    0.0000 O   0  0  0  0  0  0  0  0  0  0  0  0
   -3.5724    0.4125    0.0000 O   0  0  0  0  0  0  0  0  0  0  0  0
    9.5092   -0.3020    0.0000 O   0  0  0  0  0  0  0  0  0  0  0  0
    6.8427   -1.0165    0.0000 O   0  0  0  0  0  0  0  0  0  0  0  0
    6.6513   -0.3020    0.0000 O   0  0  0  0  0  0  0  0  0  0  0  0
    9.3177    0.4125    0.0000 O   0  0  0  0  0  0  0  0  0  0  0  0
    1.1270   -0.3020    0.0000 C   0  0  0  0  0  0  0  0  0  0  0  0
    1.5395   -1.0165    0.0000 C   0  0  0  0  0  0  0  0  0  0  0  0
    0.7144    0.4125    0.0000 C   0  0  0  0  0  0  0  0  0  0  0  0
    1.8415    0.1106    0.0000 C   0  0  0  0  0  0  0  0  0  0  0  0
    0.4125   -0.7144    0.0000 C   0  0  0  0  0  0  0  0  0  0  0  0
    2.0757   -1.9452    0.0000 C   0  0  0  0  0  0  0  0  0  0  0  0
    0.8250   -1.4290    0.0000 C   0  0  0  0  0  0  0  0  0  0  0  0
    0.1782    1.3413    0.0000 C   0  0  0  0  0  0  0  0  0  0  0  0
    1.4290    0.8250    0.0000 C   0  0  0  0  0  0  0  0  0  0  0  0
    2.9007   -1.9452    0.0000 C   0  0  0  0  0  0  0  0  0  0  0  0
    0.8250   -2.2540    0.0000 C   0  0  0  0  0  0  0  0  0  0  0  0
   -0.6468    1.3413    0.0000 C   0  0  0  0  0  0  0  0  0  0  0  0
    1.4290    1.6500    0.0000 C   0  0  0  0  0  0  0  0  0  0  0  0
    2.9684   -1.0165    0.0000 C   0  0  0  0  0  0  0  0  0  0  0  0
   -0.7144    0.4125    0.0000 C   0  0  0  0  0  0  0  0  0  0  0  0
    3.3132   -2.6597    0.0000 C   0  0  0  0  0  0  0  0  0  0  0  0
    0.1106   -2.6665    0.0000 C   0  0  0  0  0  0  0  0  0  0  0  0
   -1.0593    2.0558    0.0000 C   0  0  0  0  0  0  0  0  0  0  0  0
    2.1434    2.0625    0.0000 C   0  0  0  0  0  0  0  0  0  0  0  0
    3.6829   -0.6040    0.0000 C   0  0  0  0  0  0  0  0  0  0  0  0
   -1.4290    0.0000    0.0000 C   0  0  0  0  0  0  0  0  0  0  0  0
    4.1382   -2.6597    0.0000 C   0  0  0  0  0  0  0  0  0  0  0  0
    0.1106   -3.4915    0.0000 C   0  0  0  0  0  0  0  0  0  0  0  0
   -1.8843    2.0558    0.0000 C   0  0  0  0  0  0  0  0  0  0  0  0
    2.1434    2.8875    0.0000 C   0  0  0  0  0  0  0  0  0  0  0  0
    4.3974   -1.0165    0.0000 C   0  0  0  0  0  0  0  0  0  0  0  0
   -2.1434    0.4125    0.0000 C   0  0  0  0  0  0  0  0  0  0  0  0
    5.1118   -0.6040    0.0000 C   0  0  0  0  0  0  0  0  0  0  0  0
   -2.8579    0.0000    0.0000 C   0  0  0  0  0  0  0  0  0  0  0  0
    8.0802   -0.3020    0.0000 C   0  0  0  0  0  0  0  0  0  0  0  0
    8.7947   -0.7144    0.0000 C   0  0  0  0  0  0  0  0  0  0  0  0
    7.6677   -1.0165    0.0000 C   0  0  0  0  0  0  0  0  0  0  0  0
    7.3658    0.1106    0.0000 C   0  0  0  0  0  0  0  0  0  0  0  0
    8.4927    0.4125    0.0000 C   0  0  0  0  0  0  0  0  0  0  0  0
  1 28  1  0  0  0  0
  1 40  1  0  0  0  0
  2 29  1  0  0  0  0
  2 41  1  0  0  0  0
  3 30  1  0  0  0  0
  4 31  1  0  0  0  0
  5 36  2  0  0  0  0
  6 37  2  0  0  0  0
  7 38  2  0  0  0  0
  8 39  2  0  0  0  0
  9 46  2  0  0  0  0
 10 47  2  0  0  0  0
 11 48  2  0  0  0  0
 12 49  2  0  0  0  0
 13 50  2  0  0  0  0
 14 51  2  0  0  0  0
 15 48  1  0  0  0  0
 16 49  1  0  0  0  0
 17 50  1  0  0  0  0
 18 51  1  0  0  0  0
 19 54  2  0  0  0  0
 20 55  2  0  0  0  0
 21 54  1  0  0  0  0
 22 55  1  0  0  0  0
 23 57  1  0  0  0  0
 24 58  1  0  0  0  0
 25 59  1  0  0  0  0
 26 60  1  0  0  0  0
 27 28  1  0  0  0  0
 27 29  1  0  0  0  0
 27 30  1  0  0  0  0
 27 31  1  0  0  0  0
 28 32  1  0  0  0  0
 28 33  1  0  0  0  0
 29 34  1  0  0  0  0
 29 35  1  0  0  0  0
 32 36  1  0  0  0  0
 33 37  1  0  0  0  0
 34 38  1  0  0  0  0
 35 39  1  0  0  0  0
 36 42  1  0  0  0  0
 37 43  1  0  0  0  0
 38 44  1  0  0  0  0
 39 45  1  0  0  0  0
 40 46  1  0  0  0  0
 41 47  1  0  0  0  0
 42 48  1  0  0  0  0
 43 49  1  0  0  0  0
 44 50  1  0  0  0  0
 45 51  1  0  0  0  0
 46 52  1  0  0  0  0
 47 53  1  0  0  0  0
 52 54  1  0  0  0  0
 53 55  1  0  0  0  0
 56 57  1  0  0  0  0
 56 58  1  0  0  0  0
 56 59  1  0  0  0  0
 56 60  1  0  0  0  0
M  END
> <PUBCHEM_COMPOUND_ID_TYPE>
0

> <PUBCHEM_TOTAL_CHARGE>
0

> <PUBCHEM_SUBSTANCE_ID>
310937843

> <PUBCHEM_SUBSTANCE_VERSION>
1

> <PUBCHEM_EXT_DATASOURCE_NAME>
4488

> <PUBCHEM_EXT_DATASOURCE_REGID>
SCHEMBL16115667

> <PUBCHEM_SUBSTANCE_COMMENT>
InChI=1S/C29H36O22.C5H12O4/c30-13-27(14-31,28(7-15(32)1-21(38)39,8-16(33)2-22(40)41)50-11-19(36)5-25(46)47)29(9-17(34)3-23(42)43,10-18(35)4-24(44)45)51-12-20(37)6-26(48)49;6-1-5(2-7,3-8)4-9/h30-31H,1-14H2,(H,38,39)(H,40,41)(H,42,43)(H,44,45)(H,46,47)(H,48,49);6-9H,1-4H2
InChIKey=BUFNTBANPNNIRQ-UHFFFAOYSA-N

> <PUBCHEM_SUBSTANCE_SYNONYM>
SCHEMBL16115667

> <PUBCHEM_XREF_EXT_ID>
SCHEMBL16115667

> <PUBCHEM_EXT_DATASOURCE_URL>
https://www.surechembl.org/

> <PUBCHEM_EXT_SUBSTANCE_URL>
https://www.surechembl.org/chemical/SCHEMBL16115667

> <PUBCHEM_CID_ASSOCIATIONS>
117605478  1
8285  2
117605479  2

> <PUBCHEM_COORDINATE_TYPE>
1
3

$$$$
