310928735
  -OEChem-07211613022D

 23 22  0     0  0  0  0  0  0999 V2000
    2.8515   -0.6187    0.0000 F   0  0  0  0  0  0  0  0  0  0  0  0
    3.5660   -1.0312    0.0000 F   0  0  0  0  0  0  0  0  0  0  0  0
    2.8515    0.2062    0.0000 F   0  0  0  0  0  0  0  0  0  0  0  0
   -3.1624    1.2575    0.0000 O   0  0  0  0  0  0  0  0  0  0  0  0
   -4.6144   -1.2575    0.0000 O   0  0  0  0  0  0  0  0  0  0  0  0
    4.2805    1.0313    0.0000 O   0  0  0  0  0  0  0  0  0  0  0  0
    4.9949   -0.2062    0.0000 O   0  0  0  0  0  0  0  0  0  0  0  0
    0.5976    0.7100    0.0000 O   0  0  0  0  0  0  0  0  0  0  0  0
   -3.6892   -0.1150    0.0000 N   0  0  0  0  0  0  0  0  0  0  0  0
    1.3121   -0.5275    0.0000 N   0  0  0  0  0  0  0  0  0  0  0  0
    2.0265   -0.1150    0.0000 N   0  0  0  0  0  0  0  0  0  0  0  0
   -4.4429   -0.4505    0.0000 C   0  0  0  0  0  0  0  0  0  0  0  0
   -3.7755    0.7055    0.0000 C   0  0  0  0  0  0  0  0  0  0  0  0
   -4.9949    0.1625    0.0000 C   0  0  0  0  0  0  0  0  0  0  0  0
   -4.5824    0.8770    0.0000 C   0  0  0  0  0  0  0  0  0  0  0  0
    3.5660   -0.2062    0.0000 C   0  0  0  0  0  0  0  0  0  0  0  0
   -2.9748   -0.5275    0.0000 C   0  0  0  0  0  0  0  0  0  0  0  0
    4.2805    0.2062    0.0000 C   0  0  0  0  0  0  0  0  0  0  0  0
   -2.2603   -0.1150    0.0000 C   0  0  0  0  0  0  0  0  0  0  0  0
   -1.5458   -0.5275    0.0000 C   0  0  0  0  0  0  0  0  0  0  0  0
   -0.8314   -0.1150    0.0000 C   0  0  0  0  0  0  0  0  0  0  0  0
   -0.1169   -0.5275    0.0000 C   0  0  0  0  0  0  0  0  0  0  0  0
    0.5976   -0.1150    0.0000 C   0  0  0  0  0  0  0  0  0  0  0  0
  1 16  1  0  0  0  0
  2 16  1  0  0  0  0
  3 16  1  0  0  0  0
  4 13  2  0  0  0  0
  5 12  2  0  0  0  0
  6 18  2  0  0  0  0
  7 18  1  0  0  0  0
  8 23  2  0  0  0  0
  9 12  1  0  0  0  0
  9 13  1  0  0  0  0
  9 17  1  0  0  0  0
 10 11  1  0  0  0  0
 10 23  1  0  0  0  0
 12 14  1  0  0  0  0
 13 15  1  0  0  0  0
 14 15  2  0  0  0  0
 16 18  1  0  0  0  0
 17 19  1  0  0  0  0
 19 20  1  0  0  0  0
 20 21  1  0  0  0  0
 21 22  1  0  0  0  0
 22 23  1  0  0  0  0
M  END
> <PUBCHEM_COMPOUND_ID_TYPE>
0

> <PUBCHEM_TOTAL_CHARGE>
0

> <PUBCHEM_SUBSTANCE_ID>
310928735

> <PUBCHEM_SUBSTANCE_VERSION>
1

> <PUBCHEM_EXT_DATASOURCE_NAME>
11752

> <PUBCHEM_EXT_DATASOURCE_REGID>
BD216290

> <PUBCHEM_SUBSTANCE_SYNONYM>
151038-94-7
6-(2,5-Dioxo-2,5-dihydro-1H-pyrrol-1-yl)hexanehydrazide 2,2,2-trifluoroacetate

> <PUBCHEM_GENERIC_REGISTRY_NAME>
151038-94-7

> <PUBCHEM_XREF_EXT_ID>
BD216290

> <PUBCHEM_EXT_DATASOURCE_URL>
http://www.bidepharmatech.com/en/index.html

> <PUBCHEM_EXT_SUBSTANCE_URL>
http://www.bidepharmatech.com/en/goodsview_goodscode_BD216290.html

> <PUBCHEM_CID_ASSOCIATIONS>
23509306  1
6422  2
4170354  2

> <PUBCHEM_COORDINATE_TYPE>
1
3

$$$$
