310937732
  -OEChem-07211613022D

 21 20  0     0  0  0  0  0  0999 V2000
    6.5202   -0.3992    0.0000 F   0  0  0  0  0  0  0  0  0  0  0  0
    5.8016   -1.6500    0.0000 F   0  0  0  0  0  0  0  0  0  0  0  0
    5.8016   -0.8250    0.0000 F   0  0  0  0  0  0  0  0  0  0  0  0
    7.2653   -2.4750    0.0000 O   0  0  0  0  0  0  0  0  0  0  0  0
    7.9839   -1.2242    0.0000 O   0  0  0  0  0  0  0  0  0  0  0  0
    1.2242   -0.7186    0.0000 N   0  0  0  0  0  0  0  0  0  0  0  0
    1.2242   -2.1557    0.0000 N   0  0  0  0  0  0  0  0  0  0  0  0
    2.9008   -0.7186    0.0000 N   0  0  0  0  0  0  0  0  0  0  0  0
    2.9008   -2.1557    0.0000 N   0  0  0  0  0  0  0  0  0  0  0  0
    6.5202   -1.2242    0.0000 C   0  0  0  0  0  0  0  0  0  0  0  0
    7.2653   -1.6500    0.0000 C   0  0  0  0  0  0  0  0  0  0  0  0
    1.6500    0.0000    0.0000 C   0  0  0  0  0  0  0  0  0  0  0  0
    2.4750    0.0000    0.0000 C   0  0  0  0  0  0  0  0  0  0  0  0
    1.6500   -2.8742    0.0000 C   0  0  0  0  0  0  0  0  0  0  0  0
    2.4750   -2.8742    0.0000 C   0  0  0  0  0  0  0  0  0  0  0  0
    0.3992   -0.7186    0.0000 C   0  0  0  0  0  0  0  0  0  0  0  0
    0.3992   -2.1557    0.0000 C   0  0  0  0  0  0  0  0  0  0  0  0
    3.7258   -2.1557    0.0000 C   0  0  0  0  0  0  0  0  0  0  0  0
    3.7258   -0.7186    0.0000 C   0  0  0  0  0  0  0  0  0  0  0  0
    0.0000   -1.4371    0.0000 C   0  0  0  0  0  0  0  0  0  0  0  0
    4.1516   -1.4371    0.0000 C   0  0  0  0  0  0  0  0  0  0  0  0
  1 10  1  0  0  0  0
  2 10  1  0  0  0  0
  3 10  1  0  0  0  0
  4 11  2  0  0  0  0
  5 11  1  0  0  0  0
  6 12  1  0  0  0  0
  6 16  1  0  0  0  0
  7 14  1  0  0  0  0
  7 17  1  0  0  0  0
  8 13  1  0  0  0  0
  8 19  1  0  0  0  0
  9 15  1  0  0  0  0
  9 18  1  0  0  0  0
 10 11  1  0  0  0  0
 12 13  1  0  0  0  0
 14 15  1  0  0  0  0
 16 20  1  0  0  0  0
 17 20  1  0  0  0  0
 18 21  1  0  0  0  0
 19 21  1  0  0  0  0
M  END
> <PUBCHEM_COMPOUND_ID_TYPE>
0

> <PUBCHEM_TOTAL_CHARGE>
0

> <PUBCHEM_SUBSTANCE_ID>
310937732

> <PUBCHEM_SUBSTANCE_VERSION>
1

> <PUBCHEM_EXT_DATASOURCE_NAME>
4488

> <PUBCHEM_EXT_DATASOURCE_REGID>
SCHEMBL16115531

> <PUBCHEM_SUBSTANCE_COMMENT>
InChI=1S/C10H24N4.C2HF3O2/c1-3-11-7-9-13-5-2-6-14-10-8-12-4-1;3-2(4,5)1(6)7/h11-14H,1-10H2;(H,6,7)
InChIKey=PVYFDTBRGLTKFW-UHFFFAOYSA-N

> <PUBCHEM_SUBSTANCE_SYNONYM>
SCHEMBL16115531

> <PUBCHEM_XREF_EXT_ID>
SCHEMBL16115531

> <PUBCHEM_EXT_DATASOURCE_URL>
https://www.surechembl.org/

> <PUBCHEM_EXT_SUBSTANCE_URL>
https://www.surechembl.org/chemical/SCHEMBL16115531

> <PUBCHEM_CID_ASSOCIATIONS>
117605400  1
6422  2
64964  2

> <PUBCHEM_COORDINATE_TYPE>
1
3

$$$$
