310928694
  -OEChem-07211613022D

 15 15  0     0  0  0  0  0  0999 V2000
    3.2055   -0.0000    0.0000 Br  0  0  0  0  0  0  0  0  0  0  0  0
    0.7305    0.7145    0.0000 O   0  0  0  0  0  0  0  0  0  0  0  0
    0.7305   -0.7145    0.0000 O   0  0  0  0  0  0  0  0  0  0  0  0
   -1.7766   -0.4125    0.0000 N   0  0  0  0  0  0  0  0  0  0  0  0
   -0.9919    0.6674    0.0000 N   0  0  0  0  0  0  0  0  0  0  0  0
   -3.2055    0.4125    0.0000 N   0  0  0  0  0  0  0  0  0  0  0  0
   -1.7766    0.4125    0.0000 C   0  0  0  0  0  0  0  0  0  0  0  0
   -0.5070   -0.0000    0.0000 C   0  0  0  0  0  0  0  0  0  0  0  0
   -0.9919   -0.6674    0.0000 C   0  0  0  0  0  0  0  0  0  0  0  0
    0.3180   -0.0000    0.0000 C   0  0  0  0  0  0  0  0  0  0  0  0
   -2.4910    0.8250    0.0000 C   0  0  0  0  0  0  0  0  0  0  0  0
   -2.4910   -0.8250    0.0000 C   0  0  0  0  0  0  0  0  0  0  0  0
   -3.2055   -0.4125    0.0000 C   0  0  0  0  0  0  0  0  0  0  0  0
    1.5555    0.7145    0.0000 C   0  0  0  0  0  0  0  0  0  0  0  0
    2.3805   -0.0000    0.0000 H   0  0  0  0  0  0  0  0  0  0  0  0
  1 15  1  0  0  0  0
  2 10  1  0  0  0  0
  2 14  1  0  0  0  0
  3 10  2  0  0  0  0
  4  7  1  0  0  0  0
  4  9  1  0  0  0  0
  4 12  1  0  0  0  0
  5  7  2  0  0  0  0
  5  8  1  0  0  0  0
  6 11  1  0  0  0  0
  6 13  1  0  0  0  0
  7 11  1  0  0  0  0
  8  9  2  0  0  0  0
  8 10  1  0  0  0  0
 12 13  1  0  0  0  0
M  END
> <PUBCHEM_COMPOUND_ID_TYPE>
0

> <PUBCHEM_TOTAL_CHARGE>
0

> <PUBCHEM_SUBSTANCE_ID>
310928694

> <PUBCHEM_SUBSTANCE_VERSION>
2

> <PUBCHEM_EXT_DATASOURCE_NAME>
11752

> <PUBCHEM_EXT_DATASOURCE_REGID>
BD318272

> <PUBCHEM_SUBSTANCE_SYNONYM>
Methyl 5,6,7,8-tetrahydroimidazo[1,2-a]pyrazine-2-carboxylate hydrobromide
N/A

> <PUBCHEM_XREF_EXT_ID>
BD318272

> <PUBCHEM_EXT_DATASOURCE_URL>
http://www.bidepharmatech.com/en/index.html

> <PUBCHEM_EXT_SUBSTANCE_URL>
http://www.bidepharmatech.com/en/goodsview_goodscode_BD318272.html

> <PUBCHEM_CID_ASSOCIATIONS>
117587678  1
260  2
13247047  2

> <PUBCHEM_COORDINATE_TYPE>
1
3

$$$$
