310937420
  -OEChem-07211613022D

 38 42  0     0  0  0  0  0  0999 V2000
    6.9962   -4.0563    0.0000 F   0  0  0  0  0  0  0  0  0  0  0  0
    7.2939    0.0000    0.0000 F   0  0  0  0  0  0  0  0  0  0  0  0
    9.7500   -1.2653    0.0000 F   0  0  0  0  0  0  0  0  0  0  0  0
    9.0430   -2.5305    0.0000 F   0  0  0  0  0  0  0  0  0  0  0  0
    9.0430   -1.6746    0.0000 F   0  0  0  0  0  0  0  0  0  0  0  0
   10.4571   -3.3492    0.0000 O   0  0  0  0  0  0  0  0  0  0  0  0
   11.1641   -2.0840    0.0000 O   0  0  0  0  0  0  0  0  0  0  0  0
    6.3263   -2.5678    0.0000 N   0  0  0  0  0  0  0  0  0  0  0  0
    7.4056   -1.7863    0.0000 N   0  0  0  0  0  0  0  0  0  0  0  0
    5.0238   -3.1260    0.0000 N   0  0  0  0  0  0  0  0  0  0  0  0
    2.1956   -0.7443    0.0000 N   0  0  0  0  0  0  0  0  0  0  0  0
    3.6842   -3.6842    0.0000 N   0  0  0  0  0  0  0  0  0  0  0  0
    4.8750   -4.5401    0.0000 N   0  0  0  0  0  0  0  0  0  0  0  0
    0.0000   -1.8235    0.0000 N   0  0  0  0  0  0  0  0  0  0  0  0
    6.0286   -1.7863    0.0000 C   0  0  0  0  0  0  0  0  0  0  0  0
    5.8426   -3.2376    0.0000 C   0  0  0  0  0  0  0  0  0  0  0  0
    6.7357   -1.3025    0.0000 C   0  0  0  0  0  0  0  0  0  0  0  0
    2.1956   -2.0840    0.0000 C   0  0  0  0  0  0  0  0  0  0  0  0
    1.4514   -1.8235    0.0000 C   0  0  0  0  0  0  0  0  0  0  0  0
    2.7166   -1.4141    0.0000 C   0  0  0  0  0  0  0  0  0  0  0  0
    7.1451   -2.5678    0.0000 C   0  0  0  0  0  0  0  0  0  0  0  0
    1.4514   -1.0048    0.0000 C   0  0  0  0  0  0  0  0  0  0  0  0
    6.1775   -3.9819    0.0000 C   0  0  0  0  0  0  0  0  0  0  0  0
    6.6241   -0.4838    0.0000 C   0  0  0  0  0  0  0  0  0  0  0  0
    4.5029   -3.7586    0.0000 C   0  0  0  0  0  0  0  0  0  0  0  0
    3.3864   -2.9027    0.0000 C   0  0  0  0  0  0  0  0  0  0  0  0
    5.3216   -1.4514    0.0000 C   0  0  0  0  0  0  0  0  0  0  0  0
    2.5678   -2.8282    0.0000 C   0  0  0  0  0  0  0  0  0  0  0  0
    3.4981   -1.5258    0.0000 C   0  0  0  0  0  0  0  0  0  0  0  0
    5.6565   -4.6145    0.0000 C   0  0  0  0  0  0  0  0  0  0  0  0
    5.9170   -0.1489    0.0000 C   0  0  0  0  0  0  0  0  0  0  0  0
    3.8330   -2.2700    0.0000 C   0  0  0  0  0  0  0  0  0  0  0  0
    0.7071   -2.2700    0.0000 C   0  0  0  0  0  0  0  0  0  0  0  0
    5.2099   -0.6326    0.0000 C   0  0  0  0  0  0  0  0  0  0  0  0
    0.7071   -0.5582    0.0000 C   0  0  0  0  0  0  0  0  0  0  0  0
    0.0000   -1.0048    0.0000 C   0  0  0  0  0  0  0  0  0  0  0  0
    9.7500   -2.0840    0.0000 C   0  0  0  0  0  0  0  0  0  0  0  0
   10.4571   -2.5305    0.0000 C   0  0  0  0  0  0  0  0  0  0  0  0
  1 23  1  0  0  0  0
  2 24  1  0  0  0  0
  3 37  1  0  0  0  0
  4 37  1  0  0  0  0
  5 37  1  0  0  0  0
  6 38  2  0  0  0  0
  7 38  1  0  0  0  0
  8 15  1  0  0  0  0
  8 16  1  0  0  0  0
  8 21  1  0  0  0  0
  9 17  1  0  0  0  0
  9 21  2  0  0  0  0
 10 16  2  0  0  0  0
 10 25  1  0  0  0  0
 11 20  1  0  0  0  0
 11 22  1  0  0  0  0
 12 25  1  0  0  0  0
 12 26  1  0  0  0  0
 13 25  2  0  0  0  0
 13 30  1  0  0  0  0
 14 33  1  0  0  0  0
 14 36  1  0  0  0  0
 15 17  2  0  0  0  0
 15 27  1  0  0  0  0
 16 23  1  0  0  0  0
 17 24  1  0  0  0  0
 18 19  1  0  0  0  0
 18 20  2  0  0  0  0
 18 28  1  0  0  0  0
 19 22  2  0  0  0  0
 19 33  1  0  0  0  0
 20 29  1  0  0  0  0
 22 35  1  0  0  0  0
 23 30  2  0  0  0  0
 24 31  2  0  0  0  0
 26 28  2  0  0  0  0
 26 32  1  0  0  0  0
 27 34  2  0  0  0  0
 29 32  2  0  0  0  0
 31 34  1  0  0  0  0
 35 36  1  0  0  0  0
 37 38  1  0  0  0  0
M  END
> <PUBCHEM_COMPOUND_ID_TYPE>
0

> <PUBCHEM_TOTAL_CHARGE>
0

> <PUBCHEM_SUBSTANCE_ID>
310937420

> <PUBCHEM_SUBSTANCE_VERSION>
1

> <PUBCHEM_EXT_DATASOURCE_NAME>
4488

> <PUBCHEM_EXT_DATASOURCE_REGID>
SCHEMBL16115179

> <PUBCHEM_SUBSTANCE_COMMENT>
InChI=1S/C22H17F2N7.C2HF3O2/c23-15-2-1-3-19-20(15)27-11-31(19)21-16(24)10-26-22(30-21)28-12-4-5-17-13(8-12)14-9-25-7-6-18(14)29-17;3-2(4,5)1(6)7/h1-5,8,10-11,25,29H,6-7,9H2,(H,26,28,30);(H,6,7)
InChIKey=BUFPGQFHDCQGSG-UHFFFAOYSA-N

> <PUBCHEM_SUBSTANCE_SYNONYM>
SCHEMBL16115179

> <PUBCHEM_XREF_EXT_ID>
SCHEMBL16115179

> <PUBCHEM_EXT_DATASOURCE_URL>
https://www.surechembl.org/

> <PUBCHEM_EXT_SUBSTANCE_URL>
https://www.surechembl.org/chemical/SCHEMBL16115179

> <PUBCHEM_CID_ASSOCIATIONS>
86300961  1
6422  2
86300962  2

> <PUBCHEM_COORDINATE_TYPE>
1
3

$$$$
