310928692
  -OEChem-07211613022D

 15 14  0     0  0  0  0  0  0999 V2000
   -2.9684    0.4125    0.0000 Br  0  0  0  0  0  0  0  0  0  0  0  0
    2.9684   -0.0000    0.0000 Cl  0  0  0  0  0  0  0  0  0  0  0  0
    1.3184    0.4125    0.0000 F   0  0  0  0  0  0  0  0  0  0  0  0
    0.6039   -0.8250    0.0000 F   0  0  0  0  0  0  0  0  0  0  0  0
    1.3184   -0.4125    0.0000 F   0  0  0  0  0  0  0  0  0  0  0  0
   -0.1105    1.2375    0.0000 O   0  0  0  0  0  0  0  0  0  0  0  0
   -1.5395   -1.2375    0.0000 N   0  0  0  0  0  0  0  0  0  0  0  0
   -0.1105    0.4125    0.0000 C   0  0  0  0  0  0  0  0  0  0  0  0
    0.6039   -0.0000    0.0000 C   0  0  0  0  0  0  0  0  0  0  0  0
   -0.8250   -0.0000    0.0000 C   0  0  0  0  0  0  0  0  0  0  0  0
   -1.5395    0.4125    0.0000 C   0  0  0  0  0  0  0  0  0  0  0  0
   -0.8250   -0.8250    0.0000 C   0  0  0  0  0  0  0  0  0  0  0  0
   -2.2539    0.0000    0.0000 C   0  0  0  0  0  0  0  0  0  0  0  0
   -2.2539   -0.8250    0.0000 C   0  0  0  0  0  0  0  0  0  0  0  0
    2.1434   -0.0000    0.0000 H   0  0  0  0  0  0  0  0  0  0  0  0
  1 13  1  0  0  0  0
  2 15  1  0  0  0  0
  3  9  1  0  0  0  0
  4  9  1  0  0  0  0
  5  9  1  0  0  0  0
  6  8  2  0  0  0  0
  7 12  2  0  0  0  0
  7 14  1  0  0  0  0
  8  9  1  0  0  0  0
  8 10  1  0  0  0  0
 10 11  2  0  0  0  0
 10 12  1  0  0  0  0
 11 13  1  0  0  0  0
 13 14  2  0  0  0  0
M  END
> <PUBCHEM_COMPOUND_ID_TYPE>
0

> <PUBCHEM_TOTAL_CHARGE>
0

> <PUBCHEM_SUBSTANCE_ID>
310928692

> <PUBCHEM_SUBSTANCE_VERSION>
2

> <PUBCHEM_EXT_DATASOURCE_NAME>
11752

> <PUBCHEM_EXT_DATASOURCE_REGID>
BD318158

> <PUBCHEM_SUBSTANCE_SYNONYM>
1-(5-Bromopyridin-3-yl)-2,2,2-trifluoroethanone hydrochloride
N/A

> <PUBCHEM_XREF_EXT_ID>
BD318158

> <PUBCHEM_EXT_DATASOURCE_URL>
http://www.bidepharmatech.com/en/index.html

> <PUBCHEM_EXT_SUBSTANCE_URL>
http://www.bidepharmatech.com/en/goodsview_goodscode_BD318158.html

> <PUBCHEM_CID_ASSOCIATIONS>
117587673  1
313  2
70700344  2

> <PUBCHEM_COORDINATE_TYPE>
1
3

$$$$
