310934805
  -OEChem-07211613022D

 30 30  0     0  0  0  0  0  0999 V2000
    0.7126   -1.2471    0.0000 S   0  0  0  0  0  0  0  0  0  0  0  0
    5.9978   -0.4454    0.0000 S   0  0  0  0  0  0  0  0  0  0  0  0
    1.4252   -1.6924    0.0000 O   0  0  0  0  0  0  0  0  0  0  0  0
    2.8801   -2.5238    0.0000 O   0  0  0  0  0  0  0  0  0  0  0  0
    2.1378   -3.8005    0.0000 O   0  0  0  0  0  0  0  0  0  0  0  0
    2.8801   -0.0297    0.0000 N   0  0  0  0  0  0  0  0  0  0  0  0
    1.4549    0.0000    0.0000 N   0  0  0  0  0  0  0  0  0  0  0  0
    7.2448   -2.6129    0.0000 N   0  0  0  0  0  0  0  0  0  0  0  0
    7.2448   -1.1877    0.0000 N   0  0  0  0  0  0  0  0  0  0  0  0
    0.0000    0.0000    0.0000 N   0  0  0  0  0  0  0  0  0  0  0  0
    5.9978   -1.9003    0.0000 N   0  0  0  0  0  0  0  0  0  0  0  0
    2.1378   -1.2768    0.0000 C   0  0  0  0  0  0  0  0  0  0  0  0
    2.1675   -0.4454    0.0000 C   0  0  0  0  0  0  0  0  0  0  0  0
    2.9098   -1.6924    0.0000 C   0  0  0  0  0  0  0  0  0  0  0  0
    7.6605   -1.9003    0.0000 C   0  0  0  0  0  0  0  0  0  0  0  0
    2.1378   -2.9395    0.0000 C   0  0  0  0  0  0  0  0  0  0  0  0
    1.4252   -2.5238    0.0000 C   0  0  0  0  0  0  0  0  0  0  0  0
    8.4919   -1.9003    0.0000 C   0  0  0  0  0  0  0  0  0  0  0  0
    3.5927   -1.2768    0.0000 C   0  0  0  0  0  0  0  0  0  0  0  0
    3.6224   -0.4157    0.0000 C   0  0  0  0  0  0  0  0  0  0  0  0
    3.5927   -2.9395    0.0000 C   0  0  0  0  0  0  0  0  0  0  0  0
    0.7423   -0.4157    0.0000 C   0  0  0  0  0  0  0  0  0  0  0  0
    8.9076   -2.6129    0.0000 C   0  0  0  0  0  0  0  0  0  0  0  0
    7.6605   -3.3552    0.0000 C   0  0  0  0  0  0  0  0  0  0  0  0
    8.4919   -3.3255    0.0000 C   0  0  0  0  0  0  0  0  0  0  0  0
    6.4135   -1.1877    0.0000 C   0  0  0  0  0  0  0  0  0  0  0  0
    8.9076   -1.1877    0.0000 C   0  0  0  0  0  0  0  0  0  0  0  0
    3.1771   -3.6818    0.0000 C   0  0  0  0  0  0  0  0  0  0  0  0
    4.3053   -3.3552    0.0000 C   0  0  0  0  0  0  0  0  0  0  0  0
    4.0084   -2.2269    0.0000 C   0  0  0  0  0  0  0  0  0  0  0  0
  1 22  2  0  0  0  0
  2 26  2  0  0  0  0
  3 12  1  0  0  0  0
  3 17  1  0  0  0  0
  4 16  1  0  0  0  0
  4 21  1  0  0  0  0
  5 16  2  0  0  0  0
  6 13  1  0  0  0  0
  6 20  2  0  0  0  0
  7 13  1  0  0  0  0
  7 22  1  0  0  0  0
  8 15  2  0  0  0  0
  8 24  1  0  0  0  0
  9 15  1  0  0  0  0
  9 26  1  0  0  0  0
 10 22  1  0  0  0  0
 11 26  1  0  0  0  0
 12 13  2  0  0  0  0
 12 14  1  0  0  0  0
 14 19  2  0  0  0  0
 15 18  1  0  0  0  0
 16 17  1  0  0  0  0
 18 23  2  0  0  0  0
 18 27  1  0  0  0  0
 19 20  1  0  0  0  0
 21 28  1  0  0  0  0
 21 29  1  0  0  0  0
 21 30  1  0  0  0  0
 23 25  1  0  0  0  0
 24 25  2  0  0  0  0
M  END
> <PUBCHEM_COMPOUND_ID_TYPE>
0

> <PUBCHEM_TOTAL_CHARGE>
0

> <PUBCHEM_SUBSTANCE_ID>
310934805

> <PUBCHEM_SUBSTANCE_VERSION>
1

> <PUBCHEM_EXT_DATASOURCE_NAME>
4488

> <PUBCHEM_EXT_DATASOURCE_REGID>
SCHEMBL16112309

> <PUBCHEM_SUBSTANCE_COMMENT>
InChI=1S/C12H17N3O3S.C7H9N3S/c1-12(2,3)18-9(16)7-17-8-5-4-6-14-10(8)15-11(13)19;1-5-3-2-4-9-6(5)10-7(8)11/h4-6H,7H2,1-3H3,(H3,13,14,15,19);2-4H,1H3,(H3,8,9,10,11)
InChIKey=YJBOWMHVAZQUMW-UHFFFAOYSA-N

> <PUBCHEM_SUBSTANCE_SYNONYM>
SCHEMBL16112309

> <PUBCHEM_XREF_EXT_ID>
SCHEMBL16112309

> <PUBCHEM_EXT_DATASOURCE_URL>
https://www.surechembl.org/

> <PUBCHEM_EXT_SUBSTANCE_URL>
https://www.surechembl.org/chemical/SCHEMBL16112309

> <PUBCHEM_CID_ASSOCIATIONS>
117602951  1
1480047  2
117602952  2

> <PUBCHEM_COORDINATE_TYPE>
1
3

$$$$
