310937598
  -OEChem-07211613022D

 22 22  0     0  0  0  0  0  0999 V2000
    2.1291    0.0000    0.0000 O   0  0  0  0  0  0  0  0  0  0  0  0
    7.2656   -1.0380    0.0000 O   0  0  0  0  0  0  0  0  0  0  0  0
    7.9842   -2.2622    0.0000 O   0  0  0  0  0  0  0  0  0  0  0  0
    4.5510   -1.2775    0.0000 N   0  0  0  0  0  0  0  0  0  0  0  0
    4.9502   -2.5549    0.0000 N   0  0  0  0  0  0  0  0  0  0  0  0
    1.4106   -1.2243    0.0000 C   0  0  0  0  0  0  0  0  0  0  0  0
    2.8477   -2.0493    0.0000 C   0  0  0  0  0  0  0  0  0  0  0  0
    2.1291   -0.8251    0.0000 C   0  0  0  0  0  0  0  0  0  0  0  0
    2.8477   -1.2243    0.0000 C   0  0  0  0  0  0  0  0  0  0  0  0
    2.1291   -2.4751    0.0000 C   0  0  0  0  0  0  0  0  0  0  0  0
    0.7186   -0.8251    0.0000 C   0  0  0  0  0  0  0  0  0  0  0  0
    1.4106   -2.0493    0.0000 C   0  0  0  0  0  0  0  0  0  0  0  0
    3.5663   -2.4751    0.0000 C   0  0  0  0  0  0  0  0  0  0  0  0
    4.2849   -2.0759    0.0000 C   0  0  0  0  0  0  0  0  0  0  0  0
    3.5663   -0.8251    0.0000 C   0  0  0  0  0  0  0  0  0  0  0  0
    2.1291   -3.3001    0.0000 C   0  0  0  0  0  0  0  0  0  0  0  0
    0.2928   -1.5436    0.0000 C   0  0  0  0  0  0  0  0  0  0  0  0
    1.1178   -0.1065    0.0000 C   0  0  0  0  0  0  0  0  0  0  0  0
    0.0000   -0.4258    0.0000 C   0  0  0  0  0  0  0  0  0  0  0  0
    5.3761   -1.2775    0.0000 C   0  0  0  0  0  0  0  0  0  0  0  0
    5.6156   -2.0759    0.0000 C   0  0  0  0  0  0  0  0  0  0  0  0
    7.2656   -1.8364    0.0000 C   0  0  0  0  0  0  0  0  0  0  0  0
  1  8  1  0  0  0  0
  2 22  2  0  0  0  0
  3 22  1  0  0  0  0
  4 14  2  0  0  0  0
  4 20  1  0  0  0  0
  5 14  1  0  0  0  0
  5 21  1  0  0  0  0
  6  8  2  0  0  0  0
  6 11  1  0  0  0  0
  6 12  1  0  0  0  0
  7  9  2  0  0  0  0
  7 10  1  0  0  0  0
  7 13  1  0  0  0  0
  8  9  1  0  0  0  0
  9 15  1  0  0  0  0
 10 12  2  0  0  0  0
 10 16  1  0  0  0  0
 11 17  1  0  0  0  0
 11 18  1  0  0  0  0
 11 19  1  0  0  0  0
 13 14  1  0  0  0  0
 20 21  1  0  0  0  0
M  END
> <PUBCHEM_COMPOUND_ID_TYPE>
0

> <PUBCHEM_TOTAL_CHARGE>
0

> <PUBCHEM_SUBSTANCE_ID>
310937598

> <PUBCHEM_SUBSTANCE_VERSION>
1

> <PUBCHEM_EXT_DATASOURCE_NAME>
4488

> <PUBCHEM_EXT_DATASOURCE_REGID>
SCHEMBL16115379

> <PUBCHEM_SUBSTANCE_COMMENT>
InChI=1S/C16H24N2O.CH2O2/c1-10-8-13(16(3,4)5)15(19)11(2)12(10)9-14-17-6-7-18-14;2-1-3/h8,19H,6-7,9H2,1-5H3,(H,17,18);1H,(H,2,3)
InChIKey=LBEYOMXIZCTCJP-UHFFFAOYSA-N

> <PUBCHEM_SUBSTANCE_SYNONYM>
SCHEMBL16115379

> <PUBCHEM_XREF_EXT_ID>
SCHEMBL16115379

> <PUBCHEM_EXT_DATASOURCE_URL>
https://www.surechembl.org/

> <PUBCHEM_EXT_SUBSTANCE_URL>
https://www.surechembl.org/chemical/SCHEMBL16115379

> <PUBCHEM_CID_ASSOCIATIONS>
85471468  1
284  2
4636  2

> <PUBCHEM_COORDINATE_TYPE>
1
3

$$$$
