310933738
  -OEChem-07211613022D

 12 11  0     0  0  0  0  0  0999 V2000
   -0.7697   -1.1270    0.0000 Cl  0  0  0  0  0  0  0  0  0  0  0  0
    0.8803   -1.1270    0.0000 Cl  0  0  0  0  0  0  0  0  0  0  0  0
    0.8250    0.8250    0.0000 N   0  0  0  0  0  0  0  0  0  0  0  0
    0.8250    0.0000    0.0000 N   0  0  0  0  0  0  0  0  0  0  0  0
    0.1106    0.4125    0.0000 C   0  0  0  0  0  0  0  0  0  0  0  0
   -0.3020   -0.3020    0.0000 C   0  0  0  0  0  0  0  0  0  0  0  0
   -0.3020    1.1270    0.0000 C   0  0  0  0  0  0  0  0  0  0  0  0
   -1.1270   -0.3020    0.0000 C   0  0  0  0  0  0  0  0  0  0  0  0
   -1.1270    1.1270    0.0000 C   0  0  0  0  0  0  0  0  0  0  0  0
   -1.5395    0.4125    0.0000 C   0  0  0  0  0  0  0  0  0  0  0  0
   -1.5948   -1.1270    0.0000 H   0  0  0  0  0  0  0  0  0  0  0  0
    0.0553   -1.1270    0.0000 H   0  0  0  0  0  0  0  0  0  0  0  0
  1 11  1  0  0  0  0
  2 12  1  0  0  0  0
  3  4  1  0  0  0  0
  3  5  1  0  0  0  0
  4  5  1  0  0  0  0
  5  6  1  0  0  0  0
  5  7  1  0  0  0  0
  6  8  1  0  0  0  0
  7  9  1  0  0  0  0
  8 10  1  0  0  0  0
  9 10  1  0  0  0  0
M  END
> <PUBCHEM_COMPOUND_ID_TYPE>
0

> <PUBCHEM_TOTAL_CHARGE>
0

> <PUBCHEM_SUBSTANCE_ID>
310933738

> <PUBCHEM_SUBSTANCE_VERSION>
1

> <PUBCHEM_EXT_DATASOURCE_NAME>
4488

> <PUBCHEM_EXT_DATASOURCE_REGID>
SCHEMBL16111173

> <PUBCHEM_SUBSTANCE_COMMENT>
InChI=1S/C6H12N2.2ClH/c1-2-4-6(5-3-1)7-8-6;;/h7-8H,1-5H2;2*1H
InChIKey=ZKIRIHFLRRCXBF-UHFFFAOYSA-N

> <PUBCHEM_SUBSTANCE_SYNONYM>
SCHEMBL16111173

> <PUBCHEM_XREF_EXT_ID>
SCHEMBL16111173

> <PUBCHEM_EXT_DATASOURCE_URL>
https://www.surechembl.org/

> <PUBCHEM_EXT_SUBSTANCE_URL>
https://www.surechembl.org/chemical/SCHEMBL16111173

> <PUBCHEM_CID_ASSOCIATIONS>
117602099  1
313  2
279104  2

> <PUBCHEM_COORDINATE_TYPE>
1
3

$$$$
