310932726
  -OEChem-07211613022D

 13 12  0     1  0  0  0  0  0999 V2000
    2.9538    0.0000    0.0000 Cl  0  0  0  0  0  0  0  0  0  0  0  0
    0.0000   -3.5006    0.0000 Cl  0  0  0  0  0  0  0  0  0  0  0  0
    0.0000   -0.5810    0.0000 N   0  0  0  0  0  0  0  0  0  0  0  0
    0.7145    1.4815    0.0000 N   0  0  0  0  0  0  0  0  0  0  0  0
    0.0000    0.2440    0.0000 C   0  0  3  0  0  0  0  0  0  0  0  0
    0.6674   -1.0659    0.0000 C   0  0  0  0  0  0  0  0  0  0  0  0
   -0.6674   -1.0659    0.0000 C   0  0  0  0  0  0  0  0  0  0  0  0
    0.7145    0.6565    0.0000 C   0  0  0  0  0  0  0  0  0  0  0  0
   -0.7145    0.6565    0.0000 C   0  0  0  0  0  0  0  0  0  0  0  0
    0.4125   -1.8506    0.0000 C   0  0  0  0  0  0  0  0  0  0  0  0
   -0.4125   -1.8506    0.0000 C   0  0  0  0  0  0  0  0  0  0  0  0
   -0.7145    1.4815    0.0000 C   0  0  0  0  0  0  0  0  0  0  0  0
   -0.0000    1.8940    0.0000 C   0  0  0  0  0  0  0  0  0  0  0  0
  3  5  1  0  0  0  0
  3  6  1  0  0  0  0
  3  7  1  0  0  0  0
  4  8  1  0  0  0  0
  4 13  1  0  0  0  0
  5  8  1  0  0  0  0
  5  9  1  0  0  0  0
  6 10  1  0  0  0  0
  7 11  1  0  0  0  0
  9 12  1  0  0  0  0
 10 11  1  0  0  0  0
 12 13  1  0  0  0  0
M  END
> <PUBCHEM_COMPOUND_ID_TYPE>
0

> <PUBCHEM_TOTAL_CHARGE>
0

> <PUBCHEM_SUBSTANCE_ID>
310932726

> <PUBCHEM_SUBSTANCE_VERSION>
1

> <PUBCHEM_EXT_DATASOURCE_NAME>
4488

> <PUBCHEM_EXT_DATASOURCE_REGID>
SCHEMBL16110110

> <PUBCHEM_SUBSTANCE_COMMENT>
InChI=1S/C9H18N2.2ClH/c1-2-7-11(6-1)9-4-3-5-10-8-9;;/h9-10H,1-8H2;2*1H
InChIKey=SOQCKIXFFBCWJC-UHFFFAOYSA-N

> <PUBCHEM_SUBSTANCE_SYNONYM>
SCHEMBL16110110

> <PUBCHEM_XREF_EXT_ID>
SCHEMBL16110110

> <PUBCHEM_EXT_DATASOURCE_URL>
https://www.surechembl.org/

> <PUBCHEM_EXT_SUBSTANCE_URL>
https://www.surechembl.org/chemical/SCHEMBL16110110

> <PUBCHEM_CID_ASSOCIATIONS>
46736524  1
313  2
573611  2

> <PUBCHEM_COORDINATE_TYPE>
1
3

$$$$
