310930031
  -OEChem-07211613022D

 31 29  0     0  0  0  0  0  0999 V2000
   -7.5615   -0.2406    0.0000 O   0  0  0  0  0  0  0  0  0  0  0  0
   -6.8470    0.9969    0.0000 O   0  0  0  0  0  0  0  0  0  0  0  0
   13.2540   -0.3536    0.0000 N   0  0  0  0  0  0  0  0  0  0  0  0
   13.9685    0.0589    0.0000 N   0  0  0  0  0  0  0  0  0  0  0  0
   -6.8470    0.1719    0.0000 C   0  0  0  0  0  0  0  0  0  0  0  0
   -6.1325   -0.2406    0.0000 C   0  0  0  0  0  0  0  0  0  0  0  0
   -5.4181    0.1719    0.0000 C   0  0  0  0  0  0  0  0  0  0  0  0
   -4.7036   -0.2406    0.0000 C   0  0  0  0  0  0  0  0  0  0  0  0
   -3.9891    0.1719    0.0000 C   0  0  0  0  0  0  0  0  0  0  0  0
   -3.2747   -0.2406    0.0000 C   0  0  0  0  0  0  0  0  0  0  0  0
   -2.5602    0.1719    0.0000 C   0  0  0  0  0  0  0  0  0  0  0  0
   -1.8457   -0.2406    0.0000 C   0  0  0  0  0  0  0  0  0  0  0  0
   -1.1312    0.1719    0.0000 C   0  0  0  0  0  0  0  0  0  0  0  0
   -0.4168   -0.2406    0.0000 C   0  0  0  0  0  0  0  0  0  0  0  0
    0.2977    0.1719    0.0000 C   0  0  0  0  0  0  0  0  0  0  0  0
    1.0122   -0.2406    0.0000 C   0  0  0  0  0  0  0  0  0  0  0  0
    1.7266    0.1719    0.0000 C   0  0  0  0  0  0  0  0  0  0  0  0
    2.4411   -0.2406    0.0000 C   0  0  0  0  0  0  0  0  0  0  0  0
    3.1556    0.1719    0.0000 C   0  0  0  0  0  0  0  0  0  0  0  0
    3.8701   -0.2406    0.0000 C   0  0  0  0  0  0  0  0  0  0  0  0
    4.5845    0.1719    0.0000 C   0  0  0  0  0  0  0  0  0  0  0  0
    5.2990   -0.2406    0.0000 C   0  0  0  0  0  0  0  0  0  0  0  0
   11.1106    0.0589    0.0000 C   0  0  0  0  0  0  0  0  0  0  0  0
   11.8251   -0.3536    0.0000 C   0  0  0  0  0  0  0  0  0  0  0  0
    6.0135    0.1719    0.0000 C   0  0  0  0  0  0  0  0  0  0  0  0
   12.5396    0.0589    0.0000 C   0  0  0  0  0  0  0  0  0  0  0  0
    6.7279   -0.2406    0.0000 C   0  0  0  0  0  0  0  0  0  0  0  0
   10.3962   -0.3536    0.0000 C   0  0  0  0  0  0  0  0  0  0  0  0
   11.1106    0.8839    0.0000 C   0  0  0  0  0  0  0  0  0  0  0  0
    7.4424    0.1719    0.0000 C   0  0  0  0  0  0  0  0  0  0  0  0
    8.1569   -0.2406    0.0000 C   0  0  0  0  0  0  0  0  0  0  0  0
  1  5  2  0  0  0  0
  2  5  1  0  0  0  0
  3  4  1  0  0  0  0
  3 26  1  0  0  0  0
  5  6  1  0  0  0  0
  6  7  1  0  0  0  0
  7  8  1  0  0  0  0
  8  9  1  0  0  0  0
  9 10  1  0  0  0  0
 10 11  1  0  0  0  0
 11 12  1  0  0  0  0
 12 13  1  0  0  0  0
 13 14  1  0  0  0  0
 14 15  1  0  0  0  0
 15 16  1  0  0  0  0
 16 17  1  0  0  0  0
 17 18  1  0  0  0  0
 18 19  1  0  0  0  0
 19 20  1  0  0  0  0
 20 21  1  0  0  0  0
 21 22  1  0  0  0  0
 22 25  1  0  0  0  0
 23 24  1  0  0  0  0
 23 28  1  0  0  0  0
 23 29  1  0  0  0  0
 24 26  1  0  0  0  0
 25 27  1  0  0  0  0
 27 30  1  0  0  0  0
 30 31  1  0  0  0  0
M  END
> <PUBCHEM_COMPOUND_ID_TYPE>
0

> <PUBCHEM_TOTAL_CHARGE>
0

> <PUBCHEM_SUBSTANCE_ID>
310930031

> <PUBCHEM_SUBSTANCE_VERSION>
1

> <PUBCHEM_EXT_DATASOURCE_NAME>
4488

> <PUBCHEM_EXT_DATASOURCE_REGID>
SCHEMBL16107270

> <PUBCHEM_SUBSTANCE_COMMENT>
InChI=1S/C22H44O2.C5H14N2/c1-2-3-4-5-6-7-8-9-10-11-12-13-14-15-16-17-18-19-20-21-22(23)24;1-5(2)3-4-7-6/h2-21H2,1H3,(H,23,24);5,7H,3-4,6H2,1-2H3
InChIKey=WRKHJRWBZNJDEH-UHFFFAOYSA-N

> <PUBCHEM_SUBSTANCE_SYNONYM>
SCHEMBL16107270

> <PUBCHEM_XREF_EXT_ID>
SCHEMBL16107270

> <PUBCHEM_EXT_DATASOURCE_URL>
https://www.surechembl.org/

> <PUBCHEM_EXT_SUBSTANCE_URL>
https://www.surechembl.org/chemical/SCHEMBL16107270

> <PUBCHEM_CID_ASSOCIATIONS>
117599277  1
8215  2
18696583  2

> <PUBCHEM_COORDINATE_TYPE>
1
3

$$$$
