310937177
  -OEChem-07211613022D

 83 89  0     1  0  0  0  0  0999 V2000
    8.1809   -2.7499    0.0000 Cl  0  0  0  0  0  0  0  0  0  0  0  0
   10.3808   -1.4437    0.0000 S   0  0  0  0  0  0  0  0  0  0  0  0
   17.8055   -1.4437    0.0000 S   0  0  0  0  0  0  0  0  0  0  0  0
    2.9561   -1.4437    0.0000 S   0  0  0  0  0  0  0  0  0  0  0  0
   15.6056   -2.7499    0.0000 F   0  0  0  0  0  0  0  0  0  0  0  0
    8.1809   -5.2248    0.0000 O   0  0  0  0  0  0  0  0  0  0  0  0
   11.0683   -5.2248    0.0000 O   0  0  0  0  0  0  0  0  0  0  0  0
   15.6056   -5.2248    0.0000 O   0  0  0  0  0  0  0  0  0  0  0  0
   18.4930   -5.2248    0.0000 O   0  0  0  0  0  0  0  0  0  0  0  0
    0.7562   -5.2248    0.0000 O   0  0  0  0  0  0  0  0  0  0  0  0
    3.6436   -5.2248    0.0000 O   0  0  0  0  0  0  0  0  0  0  0  0
   12.5120   -1.9249    0.0000 O   0  0  0  0  0  0  0  0  0  0  0  0
   13.1994   -3.1624    0.0000 O   0  0  0  0  0  0  0  0  0  0  0  0
   19.9367   -1.9249    0.0000 O   0  0  0  0  0  0  0  0  0  0  0  0
   20.6241   -3.1624    0.0000 O   0  0  0  0  0  0  0  0  0  0  0  0
    5.0873   -1.9249    0.0000 O   0  0  0  0  0  0  0  0  0  0  0  0
    5.7748   -3.1624    0.0000 O   0  0  0  0  0  0  0  0  0  0  0  0
   11.7558   -1.4437    0.0000 N   0  0  0  0  0  0  0  0  0  0  0  0
   19.1805   -1.4437    0.0000 N   0  0  0  0  0  0  0  0  0  0  0  0
    4.2623   -1.4437    0.0000 N   0  0  0  0  0  0  0  0  0  0  0  0
    9.6246   -5.2248    0.0000 C   0  0  0  0  0  0  0  0  0  0  0  0
   17.0493   -5.2248    0.0000 C   0  0  0  0  0  0  0  0  0  0  0  0
    9.6246   -4.3998    0.0000 C   0  0  0  0  0  0  0  0  0  0  0  0
   17.0493   -4.3998    0.0000 C   0  0  0  0  0  0  0  0  0  0  0  0
   10.3121   -3.1624    0.0000 C   0  0  0  0  0  0  0  0  0  0  0  0
   17.7368   -3.1624    0.0000 C   0  0  0  0  0  0  0  0  0  0  0  0
   11.0683   -2.7499    0.0000 C   0  0  3  0  0  0  0  0  0  0  0  0
   18.4930   -2.7499    0.0000 C   0  0  3  0  0  0  0  0  0  0  0  0
   10.3121   -3.9874    0.0000 C   0  0  0  0  0  0  0  0  0  0  0  0
   17.7368   -3.9874    0.0000 C   0  0  0  0  0  0  0  0  0  0  0  0
    8.8684   -5.6372    0.0000 C   0  0  0  0  0  0  0  0  0  0  0  0
   10.3121   -5.6372    0.0000 C   0  0  0  0  0  0  0  0  0  0  0  0
   16.2930   -5.6372    0.0000 C   0  0  0  0  0  0  0  0  0  0  0  0
   17.7368   -5.6372    0.0000 C   0  0  0  0  0  0  0  0  0  0  0  0
    2.1999   -5.2248    0.0000 C   0  0  0  0  0  0  0  0  0  0  0  0
   11.0683   -1.9249    0.0000 C   0  0  0  0  0  0  0  0  0  0  0  0
    8.8684   -3.9874    0.0000 C   0  0  0  0  0  0  0  0  0  0  0  0
   18.4930   -1.9249    0.0000 C   0  0  0  0  0  0  0  0  0  0  0  0
   16.2930   -3.9874    0.0000 C   0  0  0  0  0  0  0  0  0  0  0  0
    2.1999   -4.3998    0.0000 C   0  0  0  0  0  0  0  0  0  0  0  0
    8.8684   -3.1624    0.0000 C   0  0  0  0  0  0  0  0  0  0  0  0
    9.6246   -2.7499    0.0000 C   0  0  0  0  0  0  0  0  0  0  0  0
   16.2930   -3.1624    0.0000 C   0  0  0  0  0  0  0  0  0  0  0  0
   17.0493   -2.7499    0.0000 C   0  0  0  0  0  0  0  0  0  0  0  0
    2.8874   -3.1624    0.0000 C   0  0  0  0  0  0  0  0  0  0  0  0
    3.6436   -2.7499    0.0000 C   0  0  3  0  0  0  0  0  0  0  0  0
    1.4437   -5.6372    0.0000 C   0  0  0  0  0  0  0  0  0  0  0  0
    2.8874   -5.6372    0.0000 C   0  0  0  0  0  0  0  0  0  0  0  0
    2.8874   -3.9874    0.0000 C   0  0  0  0  0  0  0  0  0  0  0  0
    3.6436   -1.9249    0.0000 C   0  0  0  0  0  0  0  0  0  0  0  0
    8.8684   -6.4622    0.0000 C   0  0  0  0  0  0  0  0  0  0  0  0
   10.3121   -6.4622    0.0000 C   0  0  0  0  0  0  0  0  0  0  0  0
   16.2930   -6.4622    0.0000 C   0  0  0  0  0  0  0  0  0  0  0  0
   17.7368   -6.4622    0.0000 C   0  0  0  0  0  0  0  0  0  0  0  0
   11.7558   -3.1624    0.0000 C   0  0  0  0  0  0  0  0  0  0  0  0
   19.1805   -3.1624    0.0000 C   0  0  0  0  0  0  0  0  0  0  0  0
    1.4437   -3.9874    0.0000 C   0  0  0  0  0  0  0  0  0  0  0  0
    9.6246   -6.8747    0.0000 C   0  0  0  0  0  0  0  0  0  0  0  0
   17.0493   -6.8747    0.0000 C   0  0  0  0  0  0  0  0  0  0  0  0
    2.1999   -2.7499    0.0000 C   0  0  0  0  0  0  0  0  0  0  0  0
   10.6558   -0.6187    0.0000 C   0  0  0  0  0  0  0  0  0  0  0  0
   18.0805   -0.6187    0.0000 C   0  0  0  0  0  0  0  0  0  0  0  0
    1.4437   -6.4622    0.0000 C   0  0  0  0  0  0  0  0  0  0  0  0
    2.8874   -6.4622    0.0000 C   0  0  0  0  0  0  0  0  0  0  0  0
    1.4437   -3.1624    0.0000 C   0  0  0  0  0  0  0  0  0  0  0  0
   11.4807   -0.6187    0.0000 C   0  0  0  0  0  0  0  0  0  0  0  0
    4.3311   -3.1624    0.0000 C   0  0  0  0  0  0  0  0  0  0  0  0
   18.9055   -0.6187    0.0000 C   0  0  0  0  0  0  0  0  0  0  0  0
   12.5120   -2.7499    0.0000 C   0  0  0  0  0  0  0  0  0  0  0  0
   19.9367   -2.7499    0.0000 C   0  0  0  0  0  0  0  0  0  0  0  0
    2.1999   -6.8747    0.0000 C   0  0  0  0  0  0  0  0  0  0  0  0
    3.2311   -0.6187    0.0000 C   0  0  0  0  0  0  0  0  0  0  0  0
    4.0561   -0.6187    0.0000 C   0  0  0  0  0  0  0  0  0  0  0  0
    5.0873   -2.7499    0.0000 C   0  0  0  0  0  0  0  0  0  0  0  0
    7.4247   -5.6372    0.0000 C   0  0  0  0  0  0  0  0  0  0  0  0
   11.0683   -4.3998    0.0000 C   0  0  0  0  0  0  0  0  0  0  0  0
   14.8494   -5.6372    0.0000 C   0  0  0  0  0  0  0  0  0  0  0  0
   18.4930   -4.3998    0.0000 C   0  0  0  0  0  0  0  0  0  0  0  0
   10.1746    0.0000    0.0000 C   0  0  0  0  0  0  0  0  0  0  0  0
   17.5993    0.0000    0.0000 C   0  0  0  0  0  0  0  0  0  0  0  0
    0.0000   -5.6372    0.0000 C   0  0  0  0  0  0  0  0  0  0  0  0
    3.5748   -4.3998    0.0000 C   0  0  0  0  0  0  0  0  0  0  0  0
    2.7499    0.0000    0.0000 C   0  0  0  0  0  0  0  0  0  0  0  0
  1 41  1  0  0  0  0
  2 36  1  0  0  0  0
  2 61  1  0  0  0  0
  3 38  1  0  0  0  0
  3 62  1  0  0  0  0
  4 50  1  0  0  0  0
  4 72  1  0  0  0  0
  5 43  1  0  0  0  0
  6 31  1  0  0  0  0
  6 75  1  0  0  0  0
  7 32  1  0  0  0  0
  7 76  1  0  0  0  0
  8 33  1  0  0  0  0
  8 77  1  0  0  0  0
  9 34  1  0  0  0  0
  9 78  1  0  0  0  0
 10 47  1  0  0  0  0
 10 81  1  0  0  0  0
 11 48  1  0  0  0  0
 11 82  1  0  0  0  0
 12 69  2  0  0  0  0
 13 69  1  0  0  0  0
 14 70  2  0  0  0  0
 15 70  1  0  0  0  0
 16 74  2  0  0  0  0
 17 74  1  0  0  0  0
 18 36  2  0  0  0  0
 18 66  1  0  0  0  0
 19 38  2  0  0  0  0
 19 68  1  0  0  0  0
 20 50  2  0  0  0  0
 20 73  1  0  0  0  0
 21 23  1  0  0  0  0
 21 31  2  0  0  0  0
 21 32  1  0  0  0  0
 22 24  1  0  0  0  0
 22 33  2  0  0  0  0
 22 34  1  0  0  0  0
 23 29  2  0  0  0  0
 23 37  1  0  0  0  0
 24 30  2  0  0  0  0
 24 39  1  0  0  0  0
 25 27  1  0  0  0  0
 25 29  1  0  0  0  0
 25 42  2  0  0  0  0
 26 28  1  0  0  0  0
 26 30  1  0  0  0  0
 26 44  2  0  0  0  0
 27 36  1  0  0  0  0
 27 55  1  0  0  0  0
 28 38  1  0  0  0  0
 28 56  1  0  0  0  0
 31 51  1  0  0  0  0
 32 52  2  0  0  0  0
 33 53  1  0  0  0  0
 34 54  2  0  0  0  0
 35 40  1  0  0  0  0
 35 47  2  0  0  0  0
 35 48  1  0  0  0  0
 37 41  2  0  0  0  0
 39 43  2  0  0  0  0
 40 49  2  0  0  0  0
 40 57  1  0  0  0  0
 41 42  1  0  0  0  0
 43 44  1  0  0  0  0
 45 46  1  0  0  0  0
 45 49  1  0  0  0  0
 45 60  2  0  0  0  0
 46 50  1  0  0  0  0
 46 67  1  0  0  0  0
 47 63  1  0  0  0  0
 48 64  2  0  0  0  0
 51 58  2  0  0  0  0
 52 58  1  0  0  0  0
 53 59  2  0  0  0  0
 54 59  1  0  0  0  0
 55 69  1  0  0  0  0
 56 70  1  0  0  0  0
 57 65  2  0  0  0  0
 60 65  1  0  0  0  0
 61 66  2  0  0  0  0
 61 79  1  0  0  0  0
 62 68  2  0  0  0  0
 62 80  1  0  0  0  0
 63 71  2  0  0  0  0
 64 71  1  0  0  0  0
 67 74  1  0  0  0  0
 72 73  2  0  0  0  0
 72 83  1  0  0  0  0
M  END
> <PUBCHEM_COMPOUND_ID_TYPE>
0

> <PUBCHEM_TOTAL_CHARGE>
0

> <PUBCHEM_SUBSTANCE_ID>
310937177

> <PUBCHEM_SUBSTANCE_VERSION>
1

> <PUBCHEM_EXT_DATASOURCE_NAME>
4488

> <PUBCHEM_EXT_DATASOURCE_REGID>
SCHEMBL16114902

> <PUBCHEM_SUBSTANCE_COMMENT>
InChI=1S/C21H20ClNO4S.C21H20FNO4S.C21H21NO4S/c2*1-12-11-23-21(28-12)16(10-19(24)25)13-7-14(9-15(22)8-13)20-17(26-2)5-4-6-18(20)27-3;1-13-12-22-21(27-13)16(11-19(23)24)14-6-4-7-15(10-14)20-17(25-2)8-5-9-18(20)26-3/h2*4-9,11,16H,10H2,1-3H3,(H,24,25);4-10,12,16H,11H2,1-3H3,(H,23,24)
InChIKey=ILPVCBJACOYZGI-UHFFFAOYSA-N

> <PUBCHEM_SUBSTANCE_SYNONYM>
SCHEMBL16114902

> <PUBCHEM_XREF_EXT_ID>
SCHEMBL16114902

> <PUBCHEM_EXT_DATASOURCE_URL>
https://www.surechembl.org/

> <PUBCHEM_EXT_SUBSTANCE_URL>
https://www.surechembl.org/chemical/SCHEMBL16114902

> <PUBCHEM_CID_ASSOCIATIONS>
117604996  1
86281675  2
86281676  2
86281809  2

> <PUBCHEM_COORDINATE_TYPE>
1
3

$$$$
