310932637
  -OEChem-07211613022D

 12 11  0     1  0  0  0  0  0999 V2000
    0.0000   -1.6581    0.0000 Cl  0  0  0  0  0  0  0  0  0  0  0  0
    1.6399   -1.6581    0.0000 Cl  0  0  0  0  0  0  0  0  0  0  0  0
    4.0633   -1.9132    0.0000 N   0  0  3  0  0  0  0  0  0  0  0  0
    5.4481   -3.3162    0.0000 N   0  0  0  0  0  0  0  0  0  0  0  0
    4.6464   -2.4780    0.0000 C   0  0  0  0  0  0  0  0  0  0  0  0
    4.2820   -1.1115    0.0000 C   0  0  0  0  0  0  0  0  0  0  0  0
    4.6464   -3.3162    0.0000 C   0  0  0  0  0  0  0  0  0  0  0  0
    5.4663   -2.4780    0.0000 C   0  0  0  0  0  0  0  0  0  0  0  0
    3.8811   -0.4191    0.0000 C   0  0  0  0  0  0  0  0  0  0  0  0
    5.0108   -0.7106    0.0000 C   0  0  0  0  0  0  0  0  0  0  0  0
    4.5917    0.0000    0.0000 C   0  0  0  0  0  0  0  0  0  0  0  0
    3.2798   -2.1136    0.0000 C   0  0  0  0  0  0  0  0  0  0  0  0
  3  5  1  0  0  0  0
  3  6  1  0  0  0  0
  3 12  1  0  0  0  0
  4  7  1  0  0  0  0
  4  8  1  0  0  0  0
  5  7  1  0  0  0  0
  5  8  1  0  0  0  0
  6  9  1  0  0  0  0
  6 10  1  0  0  0  0
  9 11  1  0  0  0  0
 10 11  1  0  0  0  0
M  END
> <PUBCHEM_COMPOUND_ID_TYPE>
0

> <PUBCHEM_TOTAL_CHARGE>
0

> <PUBCHEM_SUBSTANCE_ID>
310932637

> <PUBCHEM_SUBSTANCE_VERSION>
1

> <PUBCHEM_EXT_DATASOURCE_NAME>
4488

> <PUBCHEM_EXT_DATASOURCE_REGID>
SCHEMBL16110015

> <PUBCHEM_SUBSTANCE_COMMENT>
InChI=1S/C8H16N2.2ClH/c1-10(7-3-2-4-7)8-5-9-6-8;;/h7-9H,2-6H2,1H3;2*1H
InChIKey=BUKYBVQTANCBIS-UHFFFAOYSA-N

> <PUBCHEM_SUBSTANCE_SYNONYM>
SCHEMBL16110015

> <PUBCHEM_XREF_EXT_ID>
SCHEMBL16110015

> <PUBCHEM_EXT_DATASOURCE_URL>
https://www.surechembl.org/

> <PUBCHEM_EXT_SUBSTANCE_URL>
https://www.surechembl.org/chemical/SCHEMBL16110015

> <PUBCHEM_CID_ASSOCIATIONS>
117601155  1
313  2
66186802  2

> <PUBCHEM_COORDINATE_TYPE>
1
3

$$$$
