310934308
  -OEChem-07211613022D

 20 18  0     1  0  0  0  0  0999 V2000
    2.0798   -2.1665    0.0000 O   0  0  0  0  0  0  0  0  0  0  0  0
    5.8496   -2.1665    0.0000 O   0  0  0  0  0  0  0  0  0  0  0  0
    0.0000   -1.4299    0.0000 O   0  0  0  0  0  0  0  0  0  0  0  0
    0.0000   -2.8815    0.0000 O   0  0  0  0  0  0  0  0  0  0  0  0
    3.7481   -1.4299    0.0000 O   0  0  0  0  0  0  0  0  0  0  0  0
    3.7481   -2.8815    0.0000 O   0  0  0  0  0  0  0  0  0  0  0  0
    0.8449    0.0000    0.0000 O   0  0  0  0  0  0  0  0  0  0  0  0
    0.8449   -4.3331    0.0000 O   0  0  0  0  0  0  0  0  0  0  0  0
    4.5930    0.0000    0.0000 O   0  0  0  0  0  0  0  0  0  0  0  0
    4.5930   -4.3331    0.0000 O   0  0  0  0  0  0  0  0  0  0  0  0
    1.2566   -2.1665    0.0000 C   0  0  0  0  0  0  0  0  0  0  0  0
    5.0047   -2.1665    0.0000 C   0  0  0  0  0  0  0  0  0  0  0  0
    0.8449   -2.8815    0.0000 C   0  0  3  0  0  0  0  0  0  0  0  0
    0.8449   -1.4299    0.0000 C   0  0  3  0  0  0  0  0  0  0  0  0
    4.5930   -2.8815    0.0000 C   0  0  3  0  0  0  0  0  0  0  0  0
    4.5930   -1.4299    0.0000 C   0  0  3  0  0  0  0  0  0  0  0  0
    1.2566   -3.5964    0.0000 C   0  0  0  0  0  0  0  0  0  0  0  0
    1.2566   -0.7150    0.0000 C   0  0  0  0  0  0  0  0  0  0  0  0
    5.0047   -3.5964    0.0000 C   0  0  0  0  0  0  0  0  0  0  0  0
    5.0047   -0.7150    0.0000 C   0  0  0  0  0  0  0  0  0  0  0  0
 11  1  1  1  0  0  0
 12  2  1  1  0  0  0
 14  3  1  6  0  0  0
 13  4  1  6  0  0  0
 16  5  1  6  0  0  0
 15  6  1  6  0  0  0
  7 18  1  0  0  0  0
  8 17  1  0  0  0  0
  9 20  1  0  0  0  0
 10 19  1  0  0  0  0
 11 13  1  0  0  0  0
 11 14  1  0  0  0  0
 12 15  1  0  0  0  0
 12 16  1  0  0  0  0
 13 17  1  0  0  0  0
 14 18  1  0  0  0  0
 15 19  1  0  0  0  0
 16 20  1  0  0  0  0
M  END
> <PUBCHEM_COMPOUND_ID_TYPE>
0

> <PUBCHEM_TOTAL_CHARGE>
0

> <PUBCHEM_SUBSTANCE_ID>
310934308

> <PUBCHEM_SUBSTANCE_VERSION>
1

> <PUBCHEM_EXT_DATASOURCE_NAME>
4488

> <PUBCHEM_EXT_DATASOURCE_REGID>
SCHEMBL16111766

> <PUBCHEM_SUBSTANCE_COMMENT>
InChI=1S/2C5H12O5/c2*6-1-3(8)5(10)4(9)2-7/h2*3-10H,1-2H2/t2*3-,4+,5-
InChIKey=FQGHKOSYVJVDKX-WVMRCPARSA-N

> <PUBCHEM_SUBSTANCE_SYNONYM>
SCHEMBL16111766

> <PUBCHEM_XREF_EXT_ID>
SCHEMBL16111766

> <PUBCHEM_EXT_DATASOURCE_URL>
https://www.surechembl.org/

> <PUBCHEM_EXT_SUBSTANCE_URL>
https://www.surechembl.org/chemical/SCHEMBL16111766

> <PUBCHEM_CID_ASSOCIATIONS>
87811795  1
6912  2

> <PUBCHEM_COORDINATE_TYPE>
1
3

> <PUBCHEM_BONDANNOTATIONS>
11  1  5
12  2  5
14  3  6
13  4  6
16  5  6
15  6  6

$$$$
