310937438
  -OEChem-07211613022D

 33 35  0     0  0  0  0  0  0999 V2000
    0.1364   -0.7163    0.0000 F   0  0  0  0  0  0  0  0  0  0  0  0
    8.7999   -1.6372    0.0000 F   0  0  0  0  0  0  0  0  0  0  0  0
    8.0495   -2.8651    0.0000 F   0  0  0  0  0  0  0  0  0  0  0  0
    8.0495   -2.0465    0.0000 F   0  0  0  0  0  0  0  0  0  0  0  0
    3.4791   -3.5814    0.0000 O   0  0  0  0  0  0  0  0  0  0  0  0
    9.5162   -3.6837    0.0000 O   0  0  0  0  0  0  0  0  0  0  0  0
   10.2325   -2.4558    0.0000 O   0  0  0  0  0  0  0  0  0  0  0  0
    0.9891   -2.1488    0.0000 N   0  0  0  0  0  0  0  0  0  0  0  0
    2.2170   -1.4325    0.0000 N   0  0  0  0  0  0  0  0  0  0  0  0
    3.4791   -0.7163    0.0000 N   0  0  0  0  0  0  0  0  0  0  0  0
    2.2170    0.0000    0.0000 N   0  0  0  0  0  0  0  0  0  0  0  0
    0.0000   -3.0697    0.0000 N   0  0  0  0  0  0  0  0  0  0  0  0
    4.4682   -5.3550    0.0000 N   0  0  0  0  0  0  0  0  0  0  0  0
    1.3984   -1.4325    0.0000 C   0  0  0  0  0  0  0  0  0  0  0  0
    2.6605   -0.7163    0.0000 C   0  0  0  0  0  0  0  0  0  0  0  0
    0.9550   -0.7163    0.0000 C   0  0  0  0  0  0  0  0  0  0  0  0
    3.8883   -1.4325    0.0000 C   0  0  0  0  0  0  0  0  0  0  0  0
    3.8883   -2.8651    0.0000 C   0  0  0  0  0  0  0  0  0  0  0  0
    1.3984    0.0000    0.0000 C   0  0  0  0  0  0  0  0  0  0  0  0
    3.4791   -2.1488    0.0000 C   0  0  0  0  0  0  0  0  0  0  0  0
    5.1503   -2.1488    0.0000 C   0  0  0  0  0  0  0  0  0  0  0  0
    4.7410   -1.4325    0.0000 C   0  0  0  0  0  0  0  0  0  0  0  0
    0.1705   -2.2511    0.0000 C   0  0  0  0  0  0  0  0  0  0  0  0
    1.3302   -2.8992    0.0000 C   0  0  0  0  0  0  0  0  0  0  0  0
    4.7410   -2.8651    0.0000 C   0  0  0  0  0  0  0  0  0  0  0  0
    3.8883   -4.2976    0.0000 C   0  0  0  0  0  0  0  0  0  0  0  0
    0.7163   -3.4791    0.0000 C   0  0  0  0  0  0  0  0  0  0  0  0
    5.9689   -2.1488    0.0000 C   0  0  0  0  0  0  0  0  0  0  0  0
    3.6837   -5.1162    0.0000 C   0  0  0  0  0  0  0  0  0  0  0  0
    4.7069   -4.5364    0.0000 C   0  0  0  0  0  0  0  0  0  0  0  0
    8.7999   -2.4558    0.0000 C   0  0  0  0  0  0  0  0  0  0  0  0
    9.5162   -2.8651    0.0000 C   0  0  0  0  0  0  0  0  0  0  0  0
    6.4124   -1.4325    0.0000 C   0  0  0  0  0  0  0  0  0  0  0  0
  1 16  1  0  0  0  0
  2 31  1  0  0  0  0
  3 31  1  0  0  0  0
  4 31  1  0  0  0  0
  5 18  1  0  0  0  0
  5 26  1  0  0  0  0
  6 32  2  0  0  0  0
  7 32  1  0  0  0  0
  8 14  1  0  0  0  0
  8 23  1  0  0  0  0
  8 24  1  0  0  0  0
  9 14  2  0  0  0  0
  9 15  1  0  0  0  0
 10 15  1  0  0  0  0
 10 17  1  0  0  0  0
 11 15  2  0  0  0  0
 11 19  1  0  0  0  0
 12 23  2  0  0  0  0
 12 27  1  0  0  0  0
 13 29  1  0  0  0  0
 13 30  1  0  0  0  0
 14 16  1  0  0  0  0
 16 19  2  0  0  0  0
 17 20  1  0  0  0  0
 17 22  2  0  0  0  0
 18 20  2  0  0  0  0
 18 25  1  0  0  0  0
 21 22  1  0  0  0  0
 21 25  2  0  0  0  0
 21 28  1  0  0  0  0
 24 27  2  0  0  0  0
 26 29  1  0  0  0  0
 26 30  1  0  0  0  0
 28 33  1  0  0  0  0
 31 32  1  0  0  0  0
M  END
> <PUBCHEM_COMPOUND_ID_TYPE>
0

> <PUBCHEM_TOTAL_CHARGE>
0

> <PUBCHEM_SUBSTANCE_ID>
310937438

> <PUBCHEM_SUBSTANCE_VERSION>
1

> <PUBCHEM_EXT_DATASOURCE_NAME>
4488

> <PUBCHEM_EXT_DATASOURCE_REGID>
SCHEMBL16115203

> <PUBCHEM_SUBSTANCE_COMMENT>
InChI=1S/C18H19FN6O.C2HF3O2/c1-2-12-5-13(7-14(6-12)26-15-8-21-9-15)23-18-22-10-16(19)17(24-18)25-4-3-20-11-25;3-2(4,5)1(6)7/h3-7,10-11,15,21H,2,8-9H2,1H3,(H,22,23,24);(H,6,7)
InChIKey=ZEOJDGWXSCPDHW-UHFFFAOYSA-N

> <PUBCHEM_SUBSTANCE_SYNONYM>
SCHEMBL16115203

> <PUBCHEM_XREF_EXT_ID>
SCHEMBL16115203

> <PUBCHEM_EXT_DATASOURCE_URL>
https://www.surechembl.org/

> <PUBCHEM_EXT_SUBSTANCE_URL>
https://www.surechembl.org/chemical/SCHEMBL16115203

> <PUBCHEM_CID_ASSOCIATIONS>
86301426  1
6422  2
86301427  2

> <PUBCHEM_COORDINATE_TYPE>
1
3

$$$$
