310934023
  -OEChem-07211613022D

 18 17  0     0  0  0  0  0  0999 V2000
    1.2188    0.1213    0.0000 O   0  0  0  0  0  0  0  0  0  0  0  0
   -0.9246    2.1838    0.0000 O   0  0  0  0  0  0  0  0  0  0  0  0
    0.5043    1.3588    0.0000 O   0  5  0  0  0  0  0  0  0  0  0  0
   -1.6391    0.9463    0.0000 O   0  0  0  0  0  0  0  0  0  0  0  0
    0.5043   -1.1162    0.0000 C   0  0  0  0  0  0  0  0  0  0  0  0
    0.5043   -0.2912    0.0000 C   0  0  0  0  0  0  0  0  0  0  0  0
    1.2188   -1.5287    0.0000 C   0  0  0  0  0  0  0  0  0  0  0  0
   -0.2101    0.9463    0.0000 C   0  0  0  0  0  0  0  0  0  0  0  0
   -0.2101    0.1213    0.0000 C   0  0  0  0  0  0  0  0  0  0  0  0
   -0.9246    1.3588    0.0000 C   0  0  0  0  0  0  0  0  0  0  0  0
   -0.2101   -1.5287    0.0000 C   0  0  0  0  0  0  0  0  0  0  0  0
    1.2188   -2.3537    0.0000 C   0  0  0  0  0  0  0  0  0  0  0  0
   -0.2101   -2.3537    0.0000 C   0  0  0  0  0  0  0  0  0  0  0  0
    0.5043   -2.7662    0.0000 C   0  0  0  0  0  0  0  0  0  0  0  0
    1.9333   -1.1162    0.0000 C   0  0  0  0  0  0  0  0  0  0  0  0
   -1.6391    2.5963    0.0000 C   0  0  0  0  0  0  0  0  0  0  0  0
   -1.6391    3.4213    0.0000 C   0  0  0  0  0  0  0  0  0  0  0  0
    4.1726    0.0000    0.0000 Li  0  3  0  0  0  0  0  0  0  0  0  0
  1  6  2  0  0  0  0
  2 10  1  0  0  0  0
  2 16  1  0  0  0  0
  3  8  1  0  0  0  0
  4 10  2  0  0  0  0
  5  6  1  0  0  0  0
  5  7  2  0  0  0  0
  5 11  1  0  0  0  0
  6  9  1  0  0  0  0
  7 12  1  0  0  0  0
  7 15  1  0  0  0  0
  8  9  2  0  0  0  0
  8 10  1  0  0  0  0
 11 13  2  0  0  0  0
 12 14  2  0  0  0  0
 13 14  1  0  0  0  0
 16 17  1  0  0  0  0
M  CHG  2   3  -1  18   1
M  END
> <PUBCHEM_COMPOUND_ID_TYPE>
0

> <PUBCHEM_TOTAL_CHARGE>
0

> <PUBCHEM_SUBSTANCE_ID>
310934023

> <PUBCHEM_SUBSTANCE_VERSION>
1

> <PUBCHEM_EXT_DATASOURCE_NAME>
4488

> <PUBCHEM_EXT_DATASOURCE_REGID>
SCHEMBL16111467

> <PUBCHEM_SUBSTANCE_COMMENT>
InChI=1S/C13H14O4.Li/c1-3-17-13(16)12(15)8-11(14)10-7-5-4-6-9(10)2;/h4-8,15H,3H2,1-2H3;/q;+1/p-1
InChIKey=DAKIDOJUBWPUTQ-UHFFFAOYSA-M

> <PUBCHEM_SUBSTANCE_SYNONYM>
SCHEMBL16111467

> <PUBCHEM_XREF_EXT_ID>
SCHEMBL16111467

> <PUBCHEM_EXT_DATASOURCE_URL>
https://www.surechembl.org/

> <PUBCHEM_EXT_SUBSTANCE_URL>
https://www.surechembl.org/chemical/SCHEMBL16111467

> <PUBCHEM_CID_ASSOCIATIONS>
117602321  1
3028194  2
28397279  2

> <PUBCHEM_COORDINATE_TYPE>
1
3

> <PUBCHEM_BONDANNOTATIONS>
9  6  3

$$$$
