310931245
  -OEChem-07211613022D

 15 15  0     0  0  0  0  0  0999 V2000
    2.3559   -0.9557    0.0000 Cl  0  0  0  0  0  0  0  0  0  0  0  0
    0.0000   -0.3334    0.0000 O   0  0  0  0  0  0  0  0  0  0  0  0
    0.7112   -1.5780    0.0000 O   0  0  0  0  0  0  0  0  0  0  0  0
    6.6675   -1.1779    0.0000 N   0  0  0  0  0  0  0  0  0  0  0  0
    5.8674   -1.1779    0.0000 C   0  0  0  0  0  0  0  0  0  0  0  0
    4.3339   -0.7334    0.0000 C   0  0  0  0  0  0  0  0  0  0  0  0
    4.7562   -0.4445    0.0000 C   0  0  0  0  0  0  0  0  0  0  0  0
    4.7562   -1.9113    0.0000 C   0  0  0  0  0  0  0  0  0  0  0  0
    5.0895   -0.7334    0.0000 C   0  0  0  0  0  0  0  0  0  0  0  0
    5.4896   -0.4445    0.0000 C   0  0  0  0  0  0  0  0  0  0  0  0
    5.4896   -1.9113    0.0000 C   0  0  0  0  0  0  0  0  0  0  0  0
    3.9783    0.0000    0.0000 C   0  0  0  0  0  0  0  0  0  0  0  0
    3.9783   -1.4669    0.0000 C   0  0  0  0  0  0  0  0  0  0  0  0
    4.3784   -1.1779    0.0000 C   0  0  0  0  0  0  0  0  0  0  0  0
    0.0000   -1.1557    0.0000 C   0  0  0  0  0  0  0  0  0  0  0  0
  2 15  2  0  0  0  0
  3 15  1  0  0  0  0
  4  5  1  0  0  0  0
  5  9  1  0  0  0  0
  5 10  1  0  0  0  0
  5 11  1  0  0  0  0
  6  9  1  0  0  0  0
  6 12  1  0  0  0  0
  6 13  1  0  0  0  0
  7 10  1  0  0  0  0
  7 12  1  0  0  0  0
  7 14  1  0  0  0  0
  8 11  1  0  0  0  0
  8 13  1  0  0  0  0
  8 14  1  0  0  0  0
M  END
> <PUBCHEM_COMPOUND_ID_TYPE>
0

> <PUBCHEM_TOTAL_CHARGE>
0

> <PUBCHEM_SUBSTANCE_ID>
310931245

> <PUBCHEM_SUBSTANCE_VERSION>
1

> <PUBCHEM_EXT_DATASOURCE_NAME>
4488

> <PUBCHEM_EXT_DATASOURCE_REGID>
SCHEMBL16108556

> <PUBCHEM_SUBSTANCE_COMMENT>
InChI=1S/C10H17N.CH2O2.ClH/c11-10-4-7-1-8(5-10)3-9(2-7)6-10;2-1-3;/h7-9H,1-6,11H2;1H,(H,2,3);1H
InChIKey=DVRIMXAIYPINHT-UHFFFAOYSA-N

> <PUBCHEM_SUBSTANCE_SYNONYM>
SCHEMBL16108556

> <PUBCHEM_XREF_EXT_ID>
SCHEMBL16108556

> <PUBCHEM_EXT_DATASOURCE_URL>
https://www.surechembl.org/

> <PUBCHEM_EXT_SUBSTANCE_URL>
https://www.surechembl.org/chemical/SCHEMBL16108556

> <PUBCHEM_CID_ASSOCIATIONS>
117600082  1
284  2
313  2
2130  2

> <PUBCHEM_COORDINATE_TYPE>
1
3

$$$$
