310934371
  -OEChem-07211613022D

 37 35  0     0  0  0  0  0  0999 V2000
   29.1332   -0.2556    0.0000 O   0  0  0  0  0  0  0  0  0  0  0  0
   12.8607   -0.8250    0.0000 O   0  0  0  0  0  0  0  0  0  0  0  0
   12.1463    0.4125    0.0000 O   0  0  0  0  0  0  0  0  0  0  0  0
   27.9755    0.5694    0.0000 O   0  0  0  0  0  0  0  0  0  0  0  0
   27.2610    1.8069    0.0000 O   0  0  0  0  0  0  0  0  0  0  0  0
   27.7448   -0.4121    0.0000 N   0  0  0  0  0  0  0  0  0  0  0  0
   28.4881   -0.7700    0.0000 C   0  0  0  0  0  0  0  0  0  0  0  0
   28.6717   -1.5744    0.0000 C   0  0  0  0  0  0  0  0  0  0  0  0
   27.0015   -0.7700    0.0000 C   0  0  0  0  0  0  0  0  0  0  0  0
   28.1573   -2.2194    0.0000 C   0  0  0  0  0  0  0  0  0  0  0  0
   26.8179   -1.5744    0.0000 C   0  0  0  0  0  0  0  0  0  0  0  0
   27.3323   -2.2194    0.0000 C   0  0  0  0  0  0  0  0  0  0  0  0
   12.1463   -0.4125    0.0000 C   0  0  0  0  0  0  0  0  0  0  0  0
   13.5753   -0.4125    0.0000 C   0  0  0  0  0  0  0  0  0  0  0  0
   14.2897   -0.8250    0.0000 C   0  0  0  0  0  0  0  0  0  0  0  0
   11.4318   -0.8250    0.0000 C   0  0  0  0  0  0  0  0  0  0  0  0
   15.0042   -0.4125    0.0000 C   0  0  0  0  0  0  0  0  0  0  0  0
   15.7187   -0.8250    0.0000 C   0  0  0  0  0  0  0  0  0  0  0  0
   16.4332   -0.4125    0.0000 C   0  0  0  0  0  0  0  0  0  0  0  0
   17.1477   -0.8250    0.0000 C   0  0  0  0  0  0  0  0  0  0  0  0
   17.8622   -0.4125    0.0000 C   0  0  0  0  0  0  0  0  0  0  0  0
   18.5766   -0.8250    0.0000 C   0  0  0  0  0  0  0  0  0  0  0  0
   19.2912   -0.4125    0.0000 C   0  0  0  0  0  0  0  0  0  0  0  0
   20.0056   -0.8250    0.0000 C   0  0  0  0  0  0  0  0  0  0  0  0
   20.7201   -0.4125    0.0000 C   0  0  0  0  0  0  0  0  0  0  0  0
   21.4346   -0.8250    0.0000 C   0  0  0  0  0  0  0  0  0  0  0  0
   10.7173   -0.4125    0.0000 C   0  0  0  0  0  0  0  0  0  0  0  0
   22.1491   -0.4125    0.0000 C   0  0  0  0  0  0  0  0  0  0  0  0
   22.8636   -0.8250    0.0000 C   0  0  0  0  0  0  0  0  0  0  0  0
   27.2610    0.9819    0.0000 C   0  0  0  0  0  0  0  0  0  0  0  0
   23.5781   -0.4125    0.0000 C   0  0  0  0  0  0  0  0  0  0  0  0
   24.2925   -0.8250    0.0000 C   0  0  0  0  0  0  0  0  0  0  0  0
   28.6900    0.9819    0.0000 C   0  0  0  0  0  0  0  0  0  0  0  0
   26.5466    0.5694    0.0000 C   0  0  0  0  0  0  0  0  0  0  0  0
   25.0070   -0.4125    0.0000 C   0  0  0  0  0  0  0  0  0  0  0  0
   29.4045    0.5694    0.0000 C   0  0  0  0  0  0  0  0  0  0  0  0
   25.7215   -0.8250    0.0000 C   0  0  0  0  0  0  0  0  0  0  0  0
  1  7  2  0  0  0  0
  2 13  1  0  0  0  0
  2 14  1  0  0  0  0
  3 13  2  0  0  0  0
  4 30  1  0  0  0  0
  4 33  1  0  0  0  0
  5 30  2  0  0  0  0
  6  7  1  0  0  0  0
  6  9  1  0  0  0  0
  7  8  1  0  0  0  0
  8 10  1  0  0  0  0
  9 11  1  0  0  0  0
 10 12  1  0  0  0  0
 11 12  1  0  0  0  0
 13 16  1  0  0  0  0
 14 15  1  0  0  0  0
 15 17  1  0  0  0  0
 16 27  2  0  0  0  0
 17 18  1  0  0  0  0
 18 19  1  0  0  0  0
 19 20  1  0  0  0  0
 20 21  1  0  0  0  0
 21 22  1  0  0  0  0
 22 23  1  0  0  0  0
 23 24  1  0  0  0  0
 24 25  1  0  0  0  0
 25 26  1  0  0  0  0
 26 28  1  0  0  0  0
 28 29  1  0  0  0  0
 29 31  1  0  0  0  0
 30 34  1  0  0  0  0
 31 32  1  0  0  0  0
 32 35  1  0  0  0  0
 33 36  2  0  0  0  0
 35 37  1  0  0  0  0
M  END
> <PUBCHEM_COMPOUND_ID_TYPE>
0

> <PUBCHEM_TOTAL_CHARGE>
0

> <PUBCHEM_SUBSTANCE_ID>
310934371

> <PUBCHEM_SUBSTANCE_VERSION>
1

> <PUBCHEM_EXT_DATASOURCE_NAME>
4488

> <PUBCHEM_EXT_DATASOURCE_REGID>
SCHEMBL16111840

> <PUBCHEM_SUBSTANCE_COMMENT>
InChI=1S/C21H40O2.C6H11NO.C4H6O2/c1-3-5-6-7-8-9-10-11-12-13-14-15-16-17-18-19-20-23-21(22)4-2;8-6-4-2-1-3-5-7-6;1-3-6-4(2)5/h4H,2-3,5-20H2,1H3;1-5H2,(H,7,8);3H,1H2,2H3
InChIKey=NJANHKNNRRJSJN-UHFFFAOYSA-N

> <PUBCHEM_SUBSTANCE_SYNONYM>
SCHEMBL16111840

> <PUBCHEM_XREF_EXT_ID>
SCHEMBL16111840

> <PUBCHEM_EXT_DATASOURCE_URL>
https://www.surechembl.org/

> <PUBCHEM_EXT_SUBSTANCE_URL>
https://www.surechembl.org/chemical/SCHEMBL16111840

> <PUBCHEM_CID_ASSOCIATIONS>
117602599  1
7768  2
7904  2
62552  2

> <PUBCHEM_COORDINATE_TYPE>
1
3

$$$$
