310933150
  -OEChem-07211613022D

 26 24  0     1  0  0  0  0  0999 V2000
    0.2311   -1.9098    0.0000 O   0  0  0  0  0  0  0  0  0  0  0  0
    1.4290   -0.8250    0.0000 O   0  0  0  0  0  0  0  0  0  0  0  0
    0.7145    0.4125    0.0000 O   0  0  0  0  0  0  0  0  0  0  0  0
   -0.7145    0.4125    0.0000 O   0  0  0  0  0  0  0  0  0  0  0  0
    3.0844   -3.1931    0.0000 O   0  0  0  0  0  0  0  0  0  0  0  0
    2.3699   -1.9556    0.0000 O   0  0  0  0  0  0  0  0  0  0  0  0
   -1.1416   -1.6500    0.0000 N   0  0  0  0  0  0  0  0  0  0  0  0
   -0.5985   -3.0338    0.0000 C   0  0  3  0  0  0  0  0  0  0  0  0
   -0.5368   -2.2111    0.0000 C   0  0  0  0  0  0  0  0  0  0  0  0
   -1.2802   -3.4986    0.0000 C   0  0  0  0  0  0  0  0  0  0  0  0
    0.1160   -3.4463    0.0000 C   0  0  0  0  0  0  0  0  0  0  0  0
   -2.0685   -3.2554    0.0000 C   0  0  0  0  0  0  0  0  0  0  0  0
   -1.9574   -1.7730    0.0000 C   0  0  0  0  0  0  0  0  0  0  0  0
   -2.3699   -2.4874    0.0000 C   0  0  0  0  0  0  0  0  0  0  0  0
    0.7145   -0.4125    0.0000 C   0  0  0  0  0  0  0  0  0  0  0  0
    0.0000   -0.8250    0.0000 C   0  0  0  0  0  0  0  0  0  0  0  0
   -0.7145   -0.4125    0.0000 C   0  0  0  0  0  0  0  0  0  0  0  0
    0.8304   -3.0338    0.0000 C   0  0  0  0  0  0  0  0  0  0  0  0
    2.1434   -0.4125    0.0000 C   0  0  0  0  0  0  0  0  0  0  0  0
   -1.4290   -0.8250    0.0000 C   0  0  0  0  0  0  0  0  0  0  0  0
    2.8579   -0.8250    0.0000 C   0  0  0  0  0  0  0  0  0  0  0  0
    2.3699   -2.7806    0.0000 C   0  0  0  0  0  0  0  0  0  0  0  0
    3.5724   -0.4125    0.0000 C   0  0  0  0  0  0  0  0  0  0  0  0
    3.7988   -2.7806    0.0000 C   0  0  0  0  0  0  0  0  0  0  0  0
    1.6554   -3.1931    0.0000 C   0  0  0  0  0  0  0  0  0  0  0  0
    4.5134   -3.1931    0.0000 C   0  0  0  0  0  0  0  0  0  0  0  0
  1  9  2  0  0  0  0
  2 15  1  0  0  0  0
  2 19  1  0  0  0  0
  3 15  2  0  0  0  0
  4 17  2  0  0  0  0
  5 22  1  0  0  0  0
  5 24  1  0  0  0  0
  6 22  2  0  0  0  0
  7  9  1  0  0  0  0
  7 13  1  0  0  0  0
  8  9  1  0  0  0  0
  8 10  1  0  0  0  0
  8 11  1  0  0  0  0
 10 12  1  0  0  0  0
 11 18  2  0  0  0  0
 12 14  1  0  0  0  0
 13 14  1  0  0  0  0
 15 16  1  0  0  0  0
 16 17  1  0  0  0  0
 17 20  1  0  0  0  0
 19 21  1  0  0  0  0
 21 23  2  0  0  0  0
 22 25  1  0  0  0  0
 24 26  2  0  0  0  0
M  END
> <PUBCHEM_COMPOUND_ID_TYPE>
0

> <PUBCHEM_TOTAL_CHARGE>
0

> <PUBCHEM_SUBSTANCE_ID>
310933150

> <PUBCHEM_SUBSTANCE_VERSION>
1

> <PUBCHEM_EXT_DATASOURCE_NAME>
4488

> <PUBCHEM_EXT_DATASOURCE_REGID>
SCHEMBL16110558

> <PUBCHEM_SUBSTANCE_COMMENT>
InChI=1S/C8H13NO.C7H10O3.C4H6O2/c1-2-7-5-3-4-6-9-8(7)10;1-3-4-10-7(9)5-6(2)8;1-3-6-4(2)5/h2,7H,1,3-6H2,(H,9,10);3H,1,4-5H2,2H3;3H,1H2,2H3
InChIKey=PIKZCZYLRIDMDC-UHFFFAOYSA-N

> <PUBCHEM_SUBSTANCE_SYNONYM>
SCHEMBL16110558

> <PUBCHEM_XREF_EXT_ID>
SCHEMBL16110558

> <PUBCHEM_EXT_DATASOURCE_URL>
https://www.surechembl.org/

> <PUBCHEM_EXT_SUBSTANCE_URL>
https://www.surechembl.org/chemical/SCHEMBL16110558

> <PUBCHEM_CID_ASSOCIATIONS>
117601602  1
7904  2
70701  2
17881685  2

> <PUBCHEM_COORDINATE_TYPE>
1
3

$$$$
