310936541
  -OEChem-07211613022D

 15 13  0     0  0  0  0  0  0999 V2000
    6.1743   -2.6614    0.0000 Cl  0  5  0  0  0  0  0  0  0  0  0  0
    2.3686   -2.4751    0.0000 O   0  0  0  0  0  0  0  0  0  0  0  0
    2.3686    0.0000    0.0000 N   0  0  0  0  0  0  0  0  0  0  0  0
    2.3686   -1.6500    0.0000 C   0  0  0  0  0  0  0  0  0  0  0  0
    3.0871   -1.2242    0.0000 C   0  0  0  0  0  0  0  0  0  0  0  0
    1.6500   -1.2242    0.0000 C   0  0  0  0  0  0  0  0  0  0  0  0
    3.0871   -0.3992    0.0000 C   0  0  0  0  0  0  0  0  0  0  0  0
    1.6500   -0.3992    0.0000 C   0  0  0  0  0  0  0  0  0  0  0  0
    1.6500   -2.0492    0.0000 C   0  0  0  0  0  0  0  0  0  0  0  0
    3.0605   -2.8742    0.0000 C   0  0  0  0  0  0  0  0  0  0  0  0
    3.0605   -3.6993    0.0000 C   0  0  0  0  0  0  0  0  0  0  0  0
    3.7791   -4.0984    0.0000 C   0  0  0  0  0  0  0  0  0  0  0  0
    3.8057   -4.9235    0.0000 C   0  0  0  0  0  0  0  0  0  0  0  0
    4.5243   -5.3227    0.0000 C   0  0  0  0  0  0  0  0  0  0  0  0
    0.0000   -2.6614    0.0000 H   0  3  0  0  0  0  0  0  0  0  0  0
  2  4  1  0  0  0  0
  2 10  1  0  0  0  0
  3  7  1  0  0  0  0
  3  8  1  0  0  0  0
  4  5  1  0  0  0  0
  4  6  1  0  0  0  0
  4  9  1  0  0  0  0
  5  7  1  0  0  0  0
  6  8  1  0  0  0  0
 10 11  1  0  0  0  0
 11 12  1  0  0  0  0
 12 13  1  0  0  0  0
 13 14  1  0  0  0  0
M  CHG  2   1  -1  15   1
M  END
> <PUBCHEM_COMPOUND_ID_TYPE>
0

> <PUBCHEM_TOTAL_CHARGE>
0

> <PUBCHEM_SUBSTANCE_ID>
310936541

> <PUBCHEM_SUBSTANCE_VERSION>
1

> <PUBCHEM_EXT_DATASOURCE_NAME>
4488

> <PUBCHEM_EXT_DATASOURCE_REGID>
SCHEMBL16114193

> <PUBCHEM_SUBSTANCE_COMMENT>
InChI=1S/C11H23NO.ClH/c1-3-4-5-10-13-11(2)6-8-12-9-7-11;/h12H,3-10H2,1-2H3;1H
InChIKey=QKOOEIPIACWHJZ-UHFFFAOYSA-N

> <PUBCHEM_SUBSTANCE_SYNONYM>
SCHEMBL16114193

> <PUBCHEM_XREF_EXT_ID>
SCHEMBL16114193

> <PUBCHEM_EXT_DATASOURCE_URL>
https://www.surechembl.org/

> <PUBCHEM_EXT_SUBSTANCE_URL>
https://www.surechembl.org/chemical/SCHEMBL16114193

> <PUBCHEM_CID_ASSOCIATIONS>
117604462  1
313  2
783  2
117604463  2

> <PUBCHEM_COORDINATE_TYPE>
1
3

$$$$
