310931014
  -OEChem-07211613022D

 16 16  0     0  0  0  0  0  0999 V2000
    0.1411    0.9413    0.0000 S   0  0  0  0  0  0  0  0  0  0  0  0
    3.6801    0.1375    0.0000 O   0  0  0  0  0  0  0  0  0  0  0  0
   -0.9388    0.1566    0.0000 N   0  0  0  0  0  0  0  0  0  0  0  0
    0.5205   -1.9319    0.0000 N   0  0  0  0  0  0  0  0  0  0  0  0
    5.1090    0.1375    0.0000 N   0  0  0  0  0  0  0  0  0  0  0  0
   -0.1138    0.1566    0.0000 C   0  0  0  0  0  0  0  0  0  0  0  0
    0.3711   -0.5108    0.0000 C   0  0  0  0  0  0  0  0  0  0  0  0
   -0.5263    1.4262    0.0000 C   0  0  0  0  0  0  0  0  0  0  0  0
   -1.1937    0.9413    0.0000 C   0  0  0  0  0  0  0  0  0  0  0  0
    0.0356   -1.2645    0.0000 C   0  0  0  0  0  0  0  0  0  0  0  0
    1.1916   -0.4246    0.0000 C   0  0  0  0  0  0  0  0  0  0  0  0
   -0.5263    2.2512    0.0000 C   0  0  0  0  0  0  0  0  0  0  0  0
   -1.9784    1.1962    0.0000 C   0  0  0  0  0  0  0  0  0  0  0  0
    1.6765   -1.0920    0.0000 C   0  0  0  0  0  0  0  0  0  0  0  0
    1.3410   -1.8457    0.0000 C   0  0  0  0  0  0  0  0  0  0  0  0
    4.3946   -0.2750    0.0000 C   0  0  0  0  0  0  0  0  0  0  0  0
  1  6  1  0  0  0  0
  1  8  1  0  0  0  0
  2 16  2  0  0  0  0
  3  6  2  0  0  0  0
  3  9  1  0  0  0  0
  4 10  2  0  0  0  0
  4 15  1  0  0  0  0
  5 16  1  0  0  0  0
  6  7  1  0  0  0  0
  7 10  1  0  0  0  0
  7 11  2  0  0  0  0
  8  9  2  0  0  0  0
  8 12  1  0  0  0  0
  9 13  1  0  0  0  0
 11 14  1  0  0  0  0
 14 15  2  0  0  0  0
M  END
> <PUBCHEM_COMPOUND_ID_TYPE>
0

> <PUBCHEM_TOTAL_CHARGE>
0

> <PUBCHEM_SUBSTANCE_ID>
310931014

> <PUBCHEM_SUBSTANCE_VERSION>
1

> <PUBCHEM_EXT_DATASOURCE_NAME>
4488

> <PUBCHEM_EXT_DATASOURCE_REGID>
SCHEMBL16108314

> <PUBCHEM_SUBSTANCE_COMMENT>
InChI=1S/C10H10N2S.CH3NO/c1-7-8(2)13-10(12-7)9-4-3-5-11-6-9;2-1-3/h3-6H,1-2H3;1H,(H2,2,3)
InChIKey=AZRSVFZVLTXOIV-UHFFFAOYSA-N

> <PUBCHEM_SUBSTANCE_SYNONYM>
SCHEMBL16108314

> <PUBCHEM_XREF_EXT_ID>
SCHEMBL16108314

> <PUBCHEM_EXT_DATASOURCE_URL>
https://www.surechembl.org/

> <PUBCHEM_EXT_SUBSTANCE_URL>
https://www.surechembl.org/chemical/SCHEMBL16108314

> <PUBCHEM_CID_ASSOCIATIONS>
117599940  1
713  2
20362717  2

> <PUBCHEM_COORDINATE_TYPE>
1
3

$$$$
