310931080
  -OEChem-07211613022D

 29 27  0     0  0  0  0  0  0999 V2000
    4.3263   -1.6500    0.0000 S   0  0  0  0  0  0  0  0  0  0  0  0
    5.1513    0.0000    0.0000 F   0  0  0  0  0  0  0  0  0  0  0  0
    3.5013    0.0000    0.0000 F   0  0  0  0  0  0  0  0  0  0  0  0
    5.1513   -0.8250    0.0000 F   0  0  0  0  0  0  0  0  0  0  0  0
    3.5013   -0.8250    0.0000 F   0  0  0  0  0  0  0  0  0  0  0  0
    5.1513    0.8250    0.0000 F   0  0  0  0  0  0  0  0  0  0  0  0
    3.5013    0.8250    0.0000 F   0  0  0  0  0  0  0  0  0  0  0  0
    4.3263    2.4750    0.0000 F   0  0  0  0  0  0  0  0  0  0  0  0
    5.1513    1.6500    0.0000 F   0  0  0  0  0  0  0  0  0  0  0  0
    3.5013    1.6500    0.0000 F   0  0  0  0  0  0  0  0  0  0  0  0
    5.1513   -1.6500    0.0000 O   0  0  0  0  0  0  0  0  0  0  0  0
    3.5013   -1.6500    0.0000 O   0  0  0  0  0  0  0  0  0  0  0  0
    4.3263   -2.4750    0.0000 O   0  0  0  0  0  0  0  0  0  0  0  0
    0.0688   -0.2382    0.0000 N   0  3  0  0  0  0  0  0  0  0  0  0
    4.3263    0.0000    0.0000 C   0  0  0  0  0  0  0  0  0  0  0  0
    4.3263   -0.8250    0.0000 C   0  0  0  0  0  0  0  0  0  0  0  0
    4.3263    0.8250    0.0000 C   0  0  0  0  0  0  0  0  0  0  0  0
    4.3263    1.6500    0.0000 C   0  0  0  0  0  0  0  0  0  0  0  0
    0.7832   -0.6507    0.0000 C   0  0  0  0  0  0  0  0  0  0  0  0
   -0.6457    0.1743    0.0000 C   0  0  0  0  0  0  0  0  0  0  0  0
    0.4812    0.4763    0.0000 C   0  0  0  0  0  0  0  0  0  0  0  0
   -0.3437   -0.9526    0.0000 C   0  0  0  0  0  0  0  0  0  0  0  0
    0.7832   -1.4757    0.0000 C   0  0  0  0  0  0  0  0  0  0  0  0
   -0.6457    0.9993    0.0000 C   0  0  0  0  0  0  0  0  0  0  0  0
    0.0687    1.1908    0.0000 C   0  0  0  0  0  0  0  0  0  0  0  0
   -1.1687   -0.9526    0.0000 C   0  0  0  0  0  0  0  0  0  0  0  0
    1.4977   -1.8882    0.0000 C   0  0  0  0  0  0  0  0  0  0  0  0
   -1.3602    1.4118    0.0000 C   0  0  0  0  0  0  0  0  0  0  0  0
    0.4812    1.9053    0.0000 C   0  0  0  0  0  0  0  0  0  0  0  0
  1 11  2  0  0  0  0
  1 12  2  0  0  0  0
  1 13  1  0  0  0  0
  1 16  1  0  0  0  0
  2 15  1  0  0  0  0
  3 15  1  0  0  0  0
  4 16  1  0  0  0  0
  5 16  1  0  0  0  0
  6 17  1  0  0  0  0
  7 17  1  0  0  0  0
  8 18  1  0  0  0  0
  9 18  1  0  0  0  0
 10 18  1  0  0  0  0
 14 19  1  0  0  0  0
 14 20  1  0  0  0  0
 14 21  1  0  0  0  0
 14 22  1  0  0  0  0
 15 16  1  0  0  0  0
 15 17  1  0  0  0  0
 17 18  1  0  0  0  0
 19 23  1  0  0  0  0
 20 24  1  0  0  0  0
 21 25  1  0  0  0  0
 22 26  2  0  0  0  0
 23 27  2  0  0  0  0
 24 28  2  0  0  0  0
 25 29  2  0  0  0  0
M  CHG  1  14   1
M  END
> <PUBCHEM_COMPOUND_ID_TYPE>
0

> <PUBCHEM_TOTAL_CHARGE>
1

> <PUBCHEM_SUBSTANCE_ID>
310931080

> <PUBCHEM_SUBSTANCE_VERSION>
1

> <PUBCHEM_EXT_DATASOURCE_NAME>
4488

> <PUBCHEM_EXT_DATASOURCE_REGID>
SCHEMBL16108383

> <PUBCHEM_SUBSTANCE_COMMENT>
InChI=1S/C11H18N.C4HF9O3S/c1-5-9-12(8-4,10-6-2)11-7-3;5-1(6,3(9,10)11)2(7,8)4(12,13)17(14,15)16/h5-8H,1-4,9-11H2;(H,14,15,16)/q+1;
InChIKey=RYSGNOQZYFMDHP-UHFFFAOYSA-N

> <PUBCHEM_SUBSTANCE_SYNONYM>
SCHEMBL16108383

> <PUBCHEM_XREF_EXT_ID>
SCHEMBL16108383

> <PUBCHEM_EXT_DATASOURCE_URL>
https://www.surechembl.org/

> <PUBCHEM_EXT_SUBSTANCE_URL>
https://www.surechembl.org/chemical/SCHEMBL16108383

> <PUBCHEM_CID_ASSOCIATIONS>
117599982  1
67815  2
89288692  2

> <PUBCHEM_COORDINATE_TYPE>
1
3

$$$$
