310929974
  -OEChem-07211613022D

 26 24  0     0  0  0  0  0  0999 V2000
   -6.1445   -0.2475    0.0000 O   0  0  0  0  0  0  0  0  0  0  0  0
   -5.4300    0.9900    0.0000 O   0  0  0  0  0  0  0  0  0  0  0  0
    9.7803   -0.8335    0.0000 N   0  0  0  0  0  0  0  0  0  0  0  0
   10.1928   -1.5480    0.0000 N   0  0  0  0  0  0  0  0  0  0  0  0
   -5.4300    0.1650    0.0000 C   0  0  0  0  0  0  0  0  0  0  0  0
   -4.7155   -0.2475    0.0000 C   0  0  0  0  0  0  0  0  0  0  0  0
   -4.0010    0.1650    0.0000 C   0  0  0  0  0  0  0  0  0  0  0  0
   -3.2866   -0.2475    0.0000 C   0  0  0  0  0  0  0  0  0  0  0  0
   -2.5721    0.1650    0.0000 C   0  0  0  0  0  0  0  0  0  0  0  0
   -1.8576   -0.2475    0.0000 C   0  0  0  0  0  0  0  0  0  0  0  0
   -1.1432    0.1650    0.0000 C   0  0  0  0  0  0  0  0  0  0  0  0
   -0.4287   -0.2475    0.0000 C   0  0  0  0  0  0  0  0  0  0  0  0
    0.2858    0.1650    0.0000 C   0  0  0  0  0  0  0  0  0  0  0  0
    1.0003   -0.2475    0.0000 C   0  0  0  0  0  0  0  0  0  0  0  0
    1.7147    0.1650    0.0000 C   0  0  0  0  0  0  0  0  0  0  0  0
    2.4292   -0.2475    0.0000 C   0  0  0  0  0  0  0  0  0  0  0  0
    3.1437    0.1650    0.0000 C   0  0  0  0  0  0  0  0  0  0  0  0
    3.8581   -0.2475    0.0000 C   0  0  0  0  0  0  0  0  0  0  0  0
    4.5726    0.1650    0.0000 C   0  0  0  0  0  0  0  0  0  0  0  0
    9.7803    0.5954    0.0000 C   0  0  0  0  0  0  0  0  0  0  0  0
   10.1928   -0.1191    0.0000 C   0  0  0  0  0  0  0  0  0  0  0  0
    5.2871   -0.2475    0.0000 C   0  0  0  0  0  0  0  0  0  0  0  0
    6.0016    0.1650    0.0000 C   0  0  0  0  0  0  0  0  0  0  0  0
   10.1928    1.3099    0.0000 C   0  0  0  0  0  0  0  0  0  0  0  0
    8.9553    0.5954    0.0000 C   0  0  0  0  0  0  0  0  0  0  0  0
    6.7160   -0.2475    0.0000 C   0  0  0  0  0  0  0  0  0  0  0  0
  1  5  2  0  0  0  0
  2  5  1  0  0  0  0
  3  4  1  0  0  0  0
  3 21  1  0  0  0  0
  5  6  1  0  0  0  0
  6  7  1  0  0  0  0
  7  8  1  0  0  0  0
  8  9  1  0  0  0  0
  9 10  1  0  0  0  0
 10 11  1  0  0  0  0
 11 12  1  0  0  0  0
 12 13  1  0  0  0  0
 13 14  1  0  0  0  0
 14 15  1  0  0  0  0
 15 16  1  0  0  0  0
 16 17  1  0  0  0  0
 17 18  1  0  0  0  0
 18 19  1  0  0  0  0
 19 22  1  0  0  0  0
 20 21  1  0  0  0  0
 20 24  1  0  0  0  0
 20 25  1  0  0  0  0
 22 23  1  0  0  0  0
 23 26  1  0  0  0  0
M  END
> <PUBCHEM_COMPOUND_ID_TYPE>
0

> <PUBCHEM_TOTAL_CHARGE>
0

> <PUBCHEM_SUBSTANCE_ID>
310929974

> <PUBCHEM_SUBSTANCE_VERSION>
1

> <PUBCHEM_EXT_DATASOURCE_NAME>
4488

> <PUBCHEM_EXT_DATASOURCE_REGID>
SCHEMBL16107207

> <PUBCHEM_SUBSTANCE_COMMENT>
InChI=1S/C18H36O2.C4H12N2/c1-2-3-4-5-6-7-8-9-10-11-12-13-14-15-16-17-18(19)20;1-4(2)3-6-5/h2-17H2,1H3,(H,19,20);4,6H,3,5H2,1-2H3
InChIKey=QKSMCWPXVIKSFE-UHFFFAOYSA-N

> <PUBCHEM_SUBSTANCE_SYNONYM>
SCHEMBL16107207

> <PUBCHEM_XREF_EXT_ID>
SCHEMBL16107207

> <PUBCHEM_EXT_DATASOURCE_URL>
https://www.surechembl.org/

> <PUBCHEM_EXT_SUBSTANCE_URL>
https://www.surechembl.org/chemical/SCHEMBL16107207

> <PUBCHEM_CID_ASSOCIATIONS>
117599231  1
5281  2
542420  2

> <PUBCHEM_COORDINATE_TYPE>
1
3

$$$$
