310937595
  -OEChem-07211613022D

 89 95  0     1  0  0  0  0  0999 V2000
   10.9620    4.0485    0.0000 F   0  0  0  0  0  0  0  0  0  0  0  0
    9.8350    4.3504    0.0000 F   0  0  0  0  0  0  0  0  0  0  0  0
   10.6600    2.9215    0.0000 F   0  0  0  0  0  0  0  0  0  0  0  0
    6.6751    4.0485    0.0000 F   0  0  0  0  0  0  0  0  0  0  0  0
    6.9771    2.9215    0.0000 F   0  0  0  0  0  0  0  0  0  0  0  0
    7.8021    4.3504    0.0000 F   0  0  0  0  0  0  0  0  0  0  0  0
    2.8300    4.1199    0.0000 F   0  0  0  0  0  0  0  0  0  0  0  0
    1.7030    4.4218    0.0000 F   0  0  0  0  0  0  0  0  0  0  0  0
    2.5280    2.9929    0.0000 F   0  0  0  0  0  0  0  0  0  0  0  0
   -1.4569    4.1199    0.0000 F   0  0  0  0  0  0  0  0  0  0  0  0
   -1.1549    2.9929    0.0000 F   0  0  0  0  0  0  0  0  0  0  0  0
   -0.3299    4.4218    0.0000 F   0  0  0  0  0  0  0  0  0  0  0  0
   11.0537   -2.5421    0.0000 F   0  0  0  0  0  0  0  0  0  0  0  0
   10.3194   -1.6354    0.0000 F   0  0  0  0  0  0  0  0  0  0  0  0
   10.1470   -3.2763    0.0000 F   0  0  0  0  0  0  0  0  0  0  0  0
    2.9217   -2.4707    0.0000 F   0  0  0  0  0  0  0  0  0  0  0  0
    2.1874   -1.5640    0.0000 F   0  0  0  0  0  0  0  0  0  0  0  0
    2.0150   -3.2049    0.0000 F   0  0  0  0  0  0  0  0  0  0  0  0
    9.4860    0.6760    0.0000 O   0  0  0  0  0  0  0  0  0  0  0  0
    1.3540    0.7474    0.0000 O   0  0  0  0  0  0  0  0  0  0  0  0
    9.7160   -0.7760    0.0000 O   0  0  0  0  0  0  0  0  0  0  0  0
    1.5840   -0.7046    0.0000 O   0  0  0  0  0  0  0  0  0  0  0  0
    5.4965   -4.1132    0.0000 O   0  0  0  0  0  0  0  0  0  0  0  0
    5.3103   -1.9384    0.0000 O   0  0  0  0  0  0  0  0  0  0  0  0
    5.4597   -0.5173    0.0000 O   0  0  0  0  0  0  0  0  0  0  0  0
   -2.6355   -4.0418    0.0000 O   0  0  0  0  0  0  0  0  0  0  0  0
   -4.9476   -2.3620    0.0000 O   0  0  0  0  0  0  0  0  0  0  0  0
    8.4061   -0.1086    0.0000 N   0  0  0  0  0  0  0  0  0  0  0  0
    0.2740   -0.0372    0.0000 N   0  0  0  0  0  0  0  0  0  0  0  0
    6.9513   -2.1109    0.0000 N   0  0  0  0  0  0  0  0  0  0  0  0
    8.1073   -2.9508    0.0000 N   0  0  0  0  0  0  0  0  0  0  0  0
   -0.0247   -2.8794    0.0000 N   0  0  0  0  0  0  0  0  0  0  0  0
   -1.1807   -2.0395    0.0000 N   0  0  0  0  0  0  0  0  0  0  0  0
    8.8186    1.1610    0.0000 C   0  0  3  0  0  0  0  0  0  0  0  0
    0.6865    1.2324    0.0000 C   0  0  3  0  0  0  0  0  0  0  0  0
    8.1511    0.6760    0.0000 C   0  0  3  0  0  0  0  0  0  0  0  0
    0.0191    0.7474    0.0000 C   0  0  3  0  0  0  0  0  0  0  0  0
    8.8186    1.9860    0.0000 C   0  0  0  0  0  0  0  0  0  0  0  0
    0.6865    2.0574    0.0000 C   0  0  0  0  0  0  0  0  0  0  0  0
    9.2311   -0.1086    0.0000 C   0  0  0  0  0  0  0  0  0  0  0  0
    1.0990   -0.0372    0.0000 C   0  0  0  0  0  0  0  0  0  0  0  0
    7.9211   -0.7760    0.0000 C   0  0  0  0  0  0  0  0  0  0  0  0
    8.1041    2.3985    0.0000 C   0  0  0  0  0  0  0  0  0  0  0  0
    9.5330    2.3985    0.0000 C   0  0  0  0  0  0  0  0  0  0  0  0
   -0.2109   -0.7046    0.0000 C   0  0  0  0  0  0  0  0  0  0  0  0
   -0.0279    2.4699    0.0000 C   0  0  0  0  0  0  0  0  0  0  0  0
    1.4010    2.4699    0.0000 C   0  0  0  0  0  0  0  0  0  0  0  0
    7.3665    0.9310    0.0000 C   0  0  0  0  0  0  0  0  0  0  0  0
   -0.7655    1.0024    0.0000 C   0  0  0  0  0  0  0  0  0  0  0  0
    8.1041    3.2235    0.0000 C   0  0  0  0  0  0  0  0  0  0  0  0
    9.5330    3.2235    0.0000 C   0  0  0  0  0  0  0  0  0  0  0  0
   -0.0279    3.2949    0.0000 C   0  0  0  0  0  0  0  0  0  0  0  0
    1.4010    3.2949    0.0000 C   0  0  0  0  0  0  0  0  0  0  0  0
    8.2567   -1.5297    0.0000 C   0  0  0  0  0  0  0  0  0  0  0  0
    0.1247   -1.4583    0.0000 C   0  0  0  0  0  0  0  0  0  0  0  0
    8.8186    3.6360    0.0000 C   0  0  0  0  0  0  0  0  0  0  0  0
    0.6865    3.7074    0.0000 C   0  0  0  0  0  0  0  0  0  0  0  0
   10.2475    3.6360    0.0000 C   0  0  0  0  0  0  0  0  0  0  0  0
    7.3896    3.6360    0.0000 C   0  0  0  0  0  0  0  0  0  0  0  0
    2.1155    3.7074    0.0000 C   0  0  0  0  0  0  0  0  0  0  0  0
   -0.7424    3.7074    0.0000 C   0  0  0  0  0  0  0  0  0  0  0  0
    7.7718   -2.1971    0.0000 C   0  0  0  0  0  0  0  0  0  0  0  0
   -0.3602   -2.1257    0.0000 C   0  0  0  0  0  0  0  0  0  0  0  0
    9.0772   -1.6159    0.0000 C   0  0  0  0  0  0  0  0  0  0  0  0
    0.9452   -1.5445    0.0000 C   0  0  0  0  0  0  0  0  0  0  0  0
    9.4127   -2.3696    0.0000 C   0  0  0  0  0  0  0  0  0  0  0  0
    1.2807   -2.2982    0.0000 C   0  0  0  0  0  0  0  0  0  0  0  0
    8.9278   -3.0371    0.0000 C   0  0  0  0  0  0  0  0  0  0  0  0
   10.2332   -2.4559    0.0000 C   0  0  0  0  0  0  0  0  0  0  0  0
    6.4664   -2.7783    0.0000 C   0  0  0  0  0  0  0  0  0  0  0  0
    0.7958   -2.9656    0.0000 C   0  0  0  0  0  0  0  0  0  0  0  0
    2.1012   -2.3844    0.0000 C   0  0  0  0  0  0  0  0  0  0  0  0
    6.6157   -1.3572    0.0000 C   0  0  0  0  0  0  0  0  0  0  0  0
   -1.6656   -2.7069    0.0000 C   0  0  3  0  0  0  0  0  0  0  0  0
    5.6459   -2.6921    0.0000 C   0  0  0  0  0  0  0  0  0  0  0  0
    6.8019   -3.5320    0.0000 C   0  0  0  0  0  0  0  0  0  0  0  0
    5.7953   -1.2710    0.0000 C   0  0  0  0  0  0  0  0  0  0  0  0
   -2.4861   -2.6207    0.0000 C   0  0  0  0  0  0  0  0  0  0  0  0
   -1.3301   -3.4606    0.0000 C   0  0  0  0  0  0  0  0  0  0  0  0
    5.1610   -3.3595    0.0000 C   0  0  0  0  0  0  0  0  0  0  0  0
    6.3170   -4.1995    0.0000 C   0  0  0  0  0  0  0  0  0  0  0  0
   -2.9710   -3.2881    0.0000 C   0  0  3  0  0  0  0  0  0  0  0  0
   -1.8150   -4.1280    0.0000 C   0  0  0  0  0  0  0  0  0  0  0  0
   -3.7915   -3.2019    0.0000 C   0  0  0  0  0  0  0  0  0  0  0  0
   -4.1271   -2.4482    0.0000 C   0  0  0  0  0  0  0  0  0  0  0  0
    9.5536    1.5355    0.0000 H   0  0  0  0  0  0  0  0  0  0  0  0
    1.4216    1.6069    0.0000 H   0  0  0  0  0  0  0  0  0  0  0  0
    8.0221    1.4909    0.0000 H   0  0  0  0  0  0  0  0  0  0  0  0
   -0.1100    1.5623    0.0000 H   0  0  0  0  0  0  0  0  0  0  0  0
  1 58  1  0  0  0  0
  2 58  1  0  0  0  0
  3 58  1  0  0  0  0
  4 59  1  0  0  0  0
  5 59  1  0  0  0  0
  6 59  1  0  0  0  0
  7 60  1  0  0  0  0
  8 60  1  0  0  0  0
  9 60  1  0  0  0  0
 10 61  1  0  0  0  0
 11 61  1  0  0  0  0
 12 61  1  0  0  0  0
 13 69  1  0  0  0  0
 14 69  1  0  0  0  0
 15 69  1  0  0  0  0
 16 72  1  0  0  0  0
 17 72  1  0  0  0  0
 18 72  1  0  0  0  0
 19 34  1  0  0  0  0
 19 40  1  0  0  0  0
 20 35  1  0  0  0  0
 20 41  1  0  0  0  0
 21 40  2  0  0  0  0
 22 41  2  0  0  0  0
 23 80  1  0  0  0  0
 23 81  1  0  0  0  0
 24 77  2  0  0  0  0
 25 77  1  0  0  0  0
 26 82  1  0  0  0  0
 26 83  1  0  0  0  0
 27 85  1  0  0  0  0
 28 36  1  0  0  0  0
 28 40  1  0  0  0  0
 28 42  1  0  0  0  0
 29 37  1  0  0  0  0
 29 41  1  0  0  0  0
 29 45  1  0  0  0  0
 30 62  1  0  0  0  0
 30 70  1  0  0  0  0
 30 73  1  0  0  0  0
 31 62  2  0  0  0  0
 31 68  1  0  0  0  0
 32 63  2  0  0  0  0
 32 71  1  0  0  0  0
 33 63  1  0  0  0  0
 33 74  1  0  0  0  0
 34 36  1  0  0  0  0
 34 38  1  0  0  0  0
 34 86  1  6  0  0  0
 35 37  1  0  0  0  0
 35 39  1  0  0  0  0
 35 87  1  6  0  0  0
 36 48  1  1  0  0  0
 36 88  1  6  0  0  0
 37 49  1  1  0  0  0
 37 89  1  6  0  0  0
 38 43  2  0  0  0  0
 38 44  1  0  0  0  0
 39 46  2  0  0  0  0
 39 47  1  0  0  0  0
 42 54  1  0  0  0  0
 43 50  1  0  0  0  0
 44 51  2  0  0  0  0
 45 55  1  0  0  0  0
 46 52  1  0  0  0  0
 47 53  2  0  0  0  0
 50 56  2  0  0  0  0
 50 59  1  0  0  0  0
 51 56  1  0  0  0  0
 51 58  1  0  0  0  0
 52 57  2  0  0  0  0
 52 61  1  0  0  0  0
 53 57  1  0  0  0  0
 53 60  1  0  0  0  0
 54 62  1  0  0  0  0
 54 64  2  0  0  0  0
 55 63  1  0  0  0  0
 55 65  2  0  0  0  0
 64 66  1  0  0  0  0
 65 67  1  0  0  0  0
 66 68  2  0  0  0  0
 66 69  1  0  0  0  0
 67 71  2  0  0  0  0
 67 72  1  0  0  0  0
 70 75  1  0  0  0  0
 70 76  1  0  0  0  0
 73 77  1  0  0  0  0
 74 78  1  0  0  0  0
 74 79  1  0  0  0  0
 75 80  1  0  0  0  0
 76 81  1  0  0  0  0
 78 82  1  0  0  0  0
 79 83  1  0  0  0  0
 82 84  1  0  0  0  0
 84 85  1  0  0  0  0
M  END
> <PUBCHEM_COMPOUND_ID_TYPE>
0

> <PUBCHEM_TOTAL_CHARGE>
0

> <PUBCHEM_SUBSTANCE_ID>
310937595

> <PUBCHEM_SUBSTANCE_VERSION>
1

> <PUBCHEM_EXT_DATASOURCE_NAME>
4488

> <PUBCHEM_EXT_DATASOURCE_REGID>
SCHEMBL16115376

> <PUBCHEM_SUBSTANCE_COMMENT>
InChI=1S/C26H24F9N3O5.C26H26F9N3O4/c1-13-21(14-6-16(24(27,28)29)9-17(7-14)25(30,31)32)43-23(41)37(13)11-15-8-18(26(33,34)35)10-36-22(15)38(12-20(39)40)19-2-4-42-5-3-19;1-13-21(14-6-16(24(27,28)29)9-17(7-14)25(30,31)32)42-23(40)38(13)12-15-8-18(26(33,34)35)11-36-22(15)37-19-3-5-41-20(10-19)2-4-39/h6-10,13,19,21H,2-5,11-12H2,1H3,(H,39,40);6-9,11,13,19-21,39H,2-5,10,12H2,1H3,(H,36,37)/t13-,21-;13-,19?,20?,21-/m00/s1
InChIKey=KPNKTAIWVUSDDX-GSONCBJWSA-N

> <PUBCHEM_SUBSTANCE_SYNONYM>
SCHEMBL16115376

> <PUBCHEM_XREF_EXT_ID>
SCHEMBL16115376

> <PUBCHEM_EXT_DATASOURCE_URL>
https://www.surechembl.org/

> <PUBCHEM_EXT_SUBSTANCE_URL>
https://www.surechembl.org/chemical/SCHEMBL16115376

> <PUBCHEM_CID_ASSOCIATIONS>
117605300  1
117604679  2
117605301  2

> <PUBCHEM_COORDINATE_TYPE>
1
3

> <PUBCHEM_BONDANNOTATIONS>
34  86  6
35  87  6
36  48  5
36  88  6
37  49  5
37  89  6

$$$$
