310932117
  -OEChem-07211613022D

 15 14  0     0  0  0  0  0  0999 V2000
    7.3628   -0.3682    0.0000 O   0  0  0  0  0  0  0  0  0  0  0  0
    3.2397   -1.7916    0.0000 O   0  0  0  0  0  0  0  0  0  0  0  0
    1.2026   -1.4235    0.0000 O   0  0  0  0  0  0  0  0  0  0  0  0
    6.1357   -1.0799    0.0000 C   0  0  0  0  0  0  0  0  0  0  0  0
    4.4668   -1.0799    0.0000 C   0  0  0  0  0  0  0  0  0  0  0  0
    5.6940   -1.7916    0.0000 C   0  0  0  0  0  0  0  0  0  0  0  0
    4.8841   -1.7916    0.0000 C   0  0  0  0  0  0  0  0  0  0  0  0
    4.8841   -0.3682    0.0000 C   0  0  0  0  0  0  0  0  0  0  0  0
    5.6940   -0.3682    0.0000 C   0  0  0  0  0  0  0  0  0  0  0  0
    6.9457   -1.0799    0.0000 C   0  0  0  0  0  0  0  0  0  0  0  0
    3.6324   -1.0799    0.0000 C   0  0  0  0  0  0  0  0  0  0  0  0
    0.3927   -1.4480    0.0000 C   0  0  0  0  0  0  0  0  0  0  0  0
    1.6199   -0.7118    0.0000 C   0  0  0  0  0  0  0  0  0  0  0  0
    0.0000   -2.1598    0.0000 C   0  0  0  0  0  0  0  0  0  0  0  0
    1.1781    0.0000    0.0000 C   0  0  0  0  0  0  0  0  0  0  0  0
  1 10  1  0  0  0  0
  2 11  1  0  0  0  0
  3 12  1  0  0  0  0
  3 13  1  0  0  0  0
  4  6  1  0  0  0  0
  4  9  1  0  0  0  0
  4 10  1  0  0  0  0
  5  7  1  0  0  0  0
  5  8  1  0  0  0  0
  5 11  1  0  0  0  0
  6  7  1  0  0  0  0
  8  9  1  0  0  0  0
 12 14  1  0  0  0  0
 13 15  1  0  0  0  0
M  END
> <PUBCHEM_COMPOUND_ID_TYPE>
0

> <PUBCHEM_TOTAL_CHARGE>
0

> <PUBCHEM_SUBSTANCE_ID>
310932117

> <PUBCHEM_SUBSTANCE_VERSION>
1

> <PUBCHEM_EXT_DATASOURCE_NAME>
4488

> <PUBCHEM_EXT_DATASOURCE_REGID>
SCHEMBL16109469

> <PUBCHEM_SUBSTANCE_COMMENT>
InChI=1S/C8H16O2.C4H10O/c9-5-7-1-2-8(6-10)4-3-7;1-3-5-4-2/h7-10H,1-6H2;3-4H2,1-2H3
InChIKey=DNDZRVRFLXBORB-UHFFFAOYSA-N

> <PUBCHEM_SUBSTANCE_SYNONYM>
SCHEMBL16109469

> <PUBCHEM_XREF_EXT_ID>
SCHEMBL16109469

> <PUBCHEM_EXT_DATASOURCE_URL>
https://www.surechembl.org/

> <PUBCHEM_EXT_SUBSTANCE_URL>
https://www.surechembl.org/chemical/SCHEMBL16109469

> <PUBCHEM_CID_ASSOCIATIONS>
71186530  1
3283  2
7735  2

> <PUBCHEM_COORDINATE_TYPE>
1
3

$$$$
