310937791
  -OEChem-07211613022D

 15 15  0     0  0  0  0  0  0999 V2000
    0.0000   -1.1119    0.0000 Cl  0  0  0  0  0  0  0  0  0  0  0  0
    5.5593   -0.7034    0.0000 O   0  0  0  0  0  0  0  0  0  0  0  0
    5.5593   -2.1330    0.0000 O   0  0  0  0  0  0  0  0  0  0  0  0
    3.8348   -0.7488    0.0000 N   0  0  0  0  0  0  0  0  0  0  0  0
    4.3340   -1.4069    0.0000 C   0  0  0  0  0  0  0  0  0  0  0  0
    3.0406   -0.9984    0.0000 C   0  0  0  0  0  0  0  0  0  0  0  0
    3.0406   -1.8380    0.0000 C   0  0  0  0  0  0  0  0  0  0  0  0
    3.8348   -2.0649    0.0000 C   0  0  0  0  0  0  0  0  0  0  0  0
    5.1509   -1.4069    0.0000 C   0  0  0  0  0  0  0  0  0  0  0  0
    2.3372   -0.5899    0.0000 C   0  0  0  0  0  0  0  0  0  0  0  0
    2.3372   -2.2464    0.0000 C   0  0  0  0  0  0  0  0  0  0  0  0
    1.6338   -0.9984    0.0000 C   0  0  0  0  0  0  0  0  0  0  0  0
    1.6338   -1.8380    0.0000 C   0  0  0  0  0  0  0  0  0  0  0  0
    6.3762   -0.7034    0.0000 C   0  0  0  0  0  0  0  0  0  0  0  0
    6.8073    0.0000    0.0000 C   0  0  0  0  0  0  0  0  0  0  0  0
  2  9  1  0  0  0  0
  2 14  1  0  0  0  0
  3  9  2  0  0  0  0
  4  5  1  0  0  0  0
  4  6  1  0  0  0  0
  5  8  2  0  0  0  0
  5  9  1  0  0  0  0
  6  7  2  0  0  0  0
  6 10  1  0  0  0  0
  7  8  1  0  0  0  0
  7 11  1  0  0  0  0
 10 12  2  0  0  0  0
 11 13  2  0  0  0  0
 12 13  1  0  0  0  0
 14 15  1  0  0  0  0
M  END
> <PUBCHEM_COMPOUND_ID_TYPE>
0

> <PUBCHEM_TOTAL_CHARGE>
0

> <PUBCHEM_SUBSTANCE_ID>
310937791

> <PUBCHEM_SUBSTANCE_VERSION>
1

> <PUBCHEM_EXT_DATASOURCE_NAME>
4488

> <PUBCHEM_EXT_DATASOURCE_REGID>
SCHEMBL16115604

> <PUBCHEM_SUBSTANCE_COMMENT>
InChI=1S/C11H11NO2.ClH/c1-2-14-11(13)10-7-8-5-3-4-6-9(8)12-10;/h3-7,12H,2H2,1H3;1H
InChIKey=FXGMFWYZMKVJSR-UHFFFAOYSA-N

> <PUBCHEM_SUBSTANCE_SYNONYM>
SCHEMBL16115604

> <PUBCHEM_XREF_EXT_ID>
SCHEMBL16115604

> <PUBCHEM_EXT_DATASOURCE_URL>
https://www.surechembl.org/

> <PUBCHEM_EXT_SUBSTANCE_URL>
https://www.surechembl.org/chemical/SCHEMBL16115604

> <PUBCHEM_CID_ASSOCIATIONS>
117605442  1
313  2
73125  2

> <PUBCHEM_COORDINATE_TYPE>
1
3

$$$$
