310929560
  -OEChem-07211613022D

 69 77  0     1  0  0  0  0  0999 V2000
    1.3327   -9.3288    0.0000 S   0  0  0  0  0  0  0  0  0  0  0  0
    2.9192   -8.9480    0.0000 O   0  0  0  0  0  0  0  0  0  0  0  0
    1.9039   -8.7577    0.0000 O   0  0  0  0  0  0  0  0  0  0  0  0
    0.7615   -9.9000    0.0000 O   0  0  0  0  0  0  0  0  0  0  0  0
    3.4903   -8.6942    0.0000 O   0  0  0  0  0  0  0  0  0  0  0  0
    5.0135   -6.6000    0.0000 O   0  0  0  0  0  0  0  0  0  0  0  0
    5.5212  -10.7249    0.0000 O   0  0  0  0  0  0  0  0  0  0  0  0
    6.9807   -4.3788    0.0000 O   0  0  0  0  0  0  0  0  0  0  0  0
    8.8846   -9.5192    0.0000 O   0  0  0  0  0  0  0  0  0  0  0  0
    8.5673  -10.7249    0.0000 O   0  0  0  0  0  0  0  0  0  0  0  0
   12.4384   -6.9807    0.0000 O   0  5  0  0  0  0  0  0  0  0  0  0
   11.6769   -5.7115    0.0000 O   0  0  0  0  0  0  0  0  0  0  0  0
    3.9980   -9.9634    0.0000 N   0  0  0  0  0  0  0  0  0  0  0  0
    1.9039   -9.9000    0.0000 N   0  0  0  0  0  0  0  0  0  0  0  0
    5.2038   -9.5192    0.0000 N   0  0  0  0  0  0  0  0  0  0  0  0
    4.8230   -5.5846    0.0000 N   0  0  0  0  0  0  0  0  0  0  0  0
    7.4250  -10.2807    0.0000 N   0  0  0  0  0  0  0  0  0  0  0  0
    6.9807   -1.9039    0.0000 N   0  3  0  0  0  0  0  0  0  0  0  0
    3.2365  -10.2807    0.0000 C   0  0  3  0  0  0  0  0  0  0  0  0
    3.2365  -11.1057    0.0000 C   0  0  3  0  0  0  0  0  0  0  0  0
    2.5384  -10.7249    0.0000 C   0  0  0  0  0  0  0  0  0  0  0  0
    2.6654   -9.7096    0.0000 C   0  0  0  0  0  0  0  0  0  0  0  0
    0.7615   -8.7577    0.0000 C   0  0  0  0  0  0  0  0  0  0  0  0
    4.1250   -9.2019    0.0000 C   0  0  0  0  0  0  0  0  0  0  0  0
    3.6808  -11.8038    0.0000 C   0  0  0  0  0  0  0  0  0  0  0  0
    0.0000   -8.5673    0.0000 C   0  0  0  0  0  0  0  0  0  0  0  0
    0.5712   -7.9961    0.0000 C   0  0  0  0  0  0  0  0  0  0  0  0
    4.8865   -8.8846    0.0000 C   0  0  3  0  0  0  0  0  0  0  0  0
    0.3808   -9.4557    0.0000 C   0  0  0  0  0  0  0  0  0  0  0  0
    4.6327   -8.0596    0.0000 C   0  0  0  0  0  0  0  0  0  0  0  0
    4.6327   -7.2981    0.0000 C   0  0  3  0  0  0  0  0  0  0  0  0
    4.3154   -8.5673    0.0000 C   0  0  0  0  0  0  0  0  0  0  0  0
    5.9019   -9.9634    0.0000 C   0  0  0  0  0  0  0  0  0  0  0  0
    4.5057  -11.8038    0.0000 C   0  0  0  0  0  0  0  0  0  0  0  0
    6.6634  -10.2807    0.0000 C   0  0  3  0  0  0  0  0  0  0  0  0
    5.5846   -5.9654    0.0000 C   0  0  0  0  0  0  0  0  0  0  0  0
    6.2192   -5.6481    0.0000 C   0  0  0  0  0  0  0  0  0  0  0  0
    6.2827   -4.7596    0.0000 C   0  0  0  0  0  0  0  0  0  0  0  0
    5.5846   -4.4423    0.0000 C   0  0  0  0  0  0  0  0  0  0  0  0
    4.9500   -4.7596    0.0000 C   0  0  0  0  0  0  0  0  0  0  0  0
    6.5365  -11.1057    0.0000 C   0  0  0  0  0  0  0  0  0  0  0  0
    7.1076   -5.4577    0.0000 C   0  0  0  0  0  0  0  0  0  0  0  0
    5.6481   -3.5538    0.0000 C   0  0  0  0  0  0  0  0  0  0  0  0
    4.1885   -4.3154    0.0000 C   0  0  0  0  0  0  0  0  0  0  0  0
    8.1865   -9.9634    0.0000 C   0  0  0  0  0  0  0  0  0  0  0  0
    7.1076  -11.6134    0.0000 C   0  0  0  0  0  0  0  0  0  0  0  0
    5.7750  -11.3596    0.0000 C   0  0  0  0  0  0  0  0  0  0  0  0
    6.9807   -3.5538    0.0000 C   0  0  0  0  0  0  0  0  0  0  0  0
    9.2653   -8.8846    0.0000 C   0  0  3  0  0  0  0  0  0  0  0  0
    9.4557   -8.0596    0.0000 C   0  0  3  0  0  0  0  0  0  0  0  0
    4.8865   -3.1096    0.0000 C   0  0  0  0  0  0  0  0  0  0  0  0
    4.2519   -3.4903    0.0000 C   0  0  0  0  0  0  0  0  0  0  0  0
    7.8692   -5.5846    0.0000 C   0  0  0  0  0  0  0  0  0  0  0  0
   10.0904   -8.6307    0.0000 C   0  0  0  0  0  0  0  0  0  0  0  0
    6.9807  -12.4384    0.0000 C   0  0  0  0  0  0  0  0  0  0  0  0
    5.5846  -12.1211    0.0000 C   0  0  0  0  0  0  0  0  0  0  0  0
    7.7423   -3.1096    0.0000 C   0  0  0  0  0  0  0  0  0  0  0  0
    6.2827   -3.1096    0.0000 C   0  0  0  0  0  0  0  0  0  0  0  0
    9.3922   -7.2346    0.0000 C   0  0  0  0  0  0  0  0  0  0  0  0
    6.2192  -12.6923    0.0000 C   0  0  0  0  0  0  0  0  0  0  0  0
    8.5038   -5.9654    0.0000 C   0  0  0  0  0  0  0  0  0  0  0  0
    7.7423   -2.3481    0.0000 C   0  0  0  0  0  0  0  0  0  0  0  0
    6.2827   -2.3481    0.0000 C   0  0  0  0  0  0  0  0  0  0  0  0
    9.0750   -6.6000    0.0000 C   0  0  0  0  0  0  0  0  0  0  0  0
    6.9807   -1.1423    0.0000 C   0  0  0  0  0  0  0  0  0  0  0  0
    6.2827   -0.6981    0.0000 C   0  0  0  0  0  0  0  0  0  0  0  0
    5.5212   -0.6981    0.0000 C   0  0  0  0  0  0  0  0  0  0  0  0
    5.9019    0.0000    0.0000 C   0  0  0  0  0  0  0  0  0  0  0  0
   11.6769   -6.5365    0.0000 C   0  0  0  0  0  0  0  0  0  0  0  0
  1  3  2  0  0  0  0
  1  4  2  0  0  0  0
  1 14  1  0  0  0  0
  1 23  1  0  0  0  0
  2 22  2  0  0  0  0
  5 24  2  0  0  0  0
  6 31  1  0  0  0  0
  6 36  1  0  0  0  0
  7 33  2  0  0  0  0
  8 38  1  0  0  0  0
  8 48  1  0  0  0  0
  9 45  1  0  0  0  0
  9 49  1  0  0  0  0
 10 45  2  0  0  0  0
 11 69  1  0  0  0  0
 12 69  2  0  0  0  0
 19 13  1  1  0  0  0
 13 24  1  0  0  0  0
 14 22  1  0  0  0  0
 15 28  1  0  0  0  0
 15 32  1  0  0  0  0
 15 33  1  0  0  0  0
 16 36  1  0  0  0  0
 16 40  2  0  0  0  0
 17 35  1  0  0  0  0
 17 45  1  0  0  0  0
 18 62  1  0  0  0  0
 18 63  1  0  0  0  0
 18 65  1  0  0  0  0
 19 20  1  0  0  0  0
 19 21  1  0  0  0  0
 19 22  1  6  0  0  0
 20 21  1  0  0  0  0
 20 25  1  6  0  0  0
 23 26  1  0  0  0  0
 23 27  1  0  0  0  0
 23 29  1  0  0  0  0
 28 24  1  6  0  0  0
 25 34  2  0  0  0  0
 26 27  1  0  0  0  0
 28 30  1  0  0  0  0
 31 30  1  1  0  0  0
 31 32  1  0  0  0  0
 35 33  1  1  0  0  0
 35 41  1  0  0  0  0
 36 37  2  0  0  0  0
 37 38  1  0  0  0  0
 37 42  1  0  0  0  0
 38 39  2  0  0  0  0
 39 40  1  0  0  0  0
 39 43  1  0  0  0  0
 40 44  1  0  0  0  0
 41 46  1  0  0  0  0
 41 47  1  0  0  0  0
 42 53  1  0  0  0  0
 43 51  2  0  0  0  0
 44 52  2  0  0  0  0
 46 55  1  0  0  0  0
 47 56  1  0  0  0  0
 48 57  1  0  0  0  0
 48 58  1  0  0  0  0
 49 50  1  0  0  0  0
 49 54  1  1  0  0  0
 50 54  1  6  0  0  0
 50 59  1  0  0  0  0
 51 52  1  0  0  0  0
 53 61  1  0  0  0  0
 55 60  1  0  0  0  0
 56 60  1  0  0  0  0
 57 62  1  0  0  0  0
 58 63  1  0  0  0  0
 59 64  1  0  0  0  0
 61 64  1  0  0  0  0
 65 66  1  0  0  0  0
 66 67  1  0  0  0  0
 66 68  1  0  0  0  0
 67 68  1  0  0  0  0
M  CHG  2  11  -1  18   1
M  END
> <PUBCHEM_COMPOUND_ID_TYPE>
0

> <PUBCHEM_TOTAL_CHARGE>
0

> <PUBCHEM_SUBSTANCE_ID>
310929560

> <PUBCHEM_SUBSTANCE_VERSION>
1

> <PUBCHEM_EXT_DATASOURCE_NAME>
4488

> <PUBCHEM_EXT_DATASOURCE_REGID>
SCHEMBL16106742

> <PUBCHEM_SUBSTANCE_COMMENT>
InChI=1S/C50H68N6O9S.CH2O2/c1-3-34-28-50(34,47(59)54-66(61,62)49(2)22-23-49)53-44(57)40-27-36-30-56(40)46(58)42(32-12-6-4-7-13-32)52-48(60)65-41-26-33(41)14-8-5-9-16-38-43(37-15-10-11-17-39(37)51-45(38)64-36)63-35-20-24-55(25-21-35)29-31-18-19-31;2-1-3/h3,10-11,15,17,31-36,40-42H,1,4-9,12-14,16,18-30H2,2H3,(H,52,60)(H,53,57)(H,54,59);1H,(H,2,3)/t33-,34-,36-,40+,41-,42+,50-;/m1./s1
InChIKey=CUJWWNCCTVKUOA-MOVARYILSA-N

> <PUBCHEM_SUBSTANCE_SYNONYM>
SCHEMBL16106742

> <PUBCHEM_XREF_EXT_ID>
SCHEMBL16106742

> <PUBCHEM_EXT_DATASOURCE_URL>
https://www.surechembl.org/

> <PUBCHEM_EXT_SUBSTANCE_URL>
https://www.surechembl.org/chemical/SCHEMBL16106742

> <PUBCHEM_CID_ASSOCIATIONS>
117598874  1
284  2
76314376  2

> <PUBCHEM_COORDINATE_TYPE>
1
3

> <PUBCHEM_BONDANNOTATIONS>
19  13  5
19  22  6
20  25  6
28  24  6
31  30  5
35  33  5
49  54  5
50  54  6

$$$$
