310937778
  -OEChem-07211613022D

 35 37  0     1  0  0  0  0  0999 V2000
    7.3919   -2.9858    0.0000 O   0  0  0  0  0  0  0  0  0  0  0  0
    8.3195   -4.9859    0.0000 O   0  0  0  0  0  0  0  0  0  0  0  0
    6.4643   -4.9859    0.0000 O   0  0  0  0  0  0  0  0  0  0  0  0
    6.8411   -2.1741    0.0000 O   0  0  0  0  0  0  0  0  0  0  0  0
    1.4204   -0.1159    0.0000 O   0  0  0  0  0  0  0  0  0  0  0  0
    2.2321   -3.6525    0.0000 O   0  0  0  0  0  0  0  0  0  0  0  0
    5.2758   -3.7974    0.0000 O   0  0  0  0  0  0  0  0  0  0  0  0
    0.8406   -4.4641    0.0000 O   0  0  0  0  0  0  0  0  0  0  0  0
    3.6525   -4.4641    0.0000 O   0  0  0  0  0  0  0  0  0  0  0  0
    8.0876   -2.1451    0.0000 N   0  0  0  0  0  0  0  0  0  0  0  0
    2.9568   -2.4060    0.0000 N   0  0  0  0  0  0  0  0  0  0  0  0
    1.4204   -2.5509    0.0000 N   0  0  0  0  0  0  0  0  0  0  0  0
    2.9278   -1.0725    0.0000 N   0  0  0  0  0  0  0  0  0  0  0  0
    0.7247   -1.3335    0.0000 N   0  0  0  0  0  0  0  0  0  0  0  0
    7.4498   -1.0146    0.0000 N   0  0  0  0  0  0  0  0  0  0  0  0
    0.0000   -2.5509    0.0000 N   0  0  0  0  0  0  0  0  0  0  0  0
    8.0876    0.0000    0.0000 N   0  0  0  0  0  0  0  0  0  0  0  0
    8.0876   -3.4785    0.0000 C   0  0  3  0  0  0  0  0  0  0  0  0
    7.8267   -4.2902    0.0000 C   0  0  3  0  0  0  0  0  0  0  0  0
    6.9571   -4.2902    0.0000 C   0  0  3  0  0  0  0  0  0  0  0  0
    2.1451   -2.1451    0.0000 C   0  0  0  0  0  0  0  0  0  0  0  0
    6.6962   -3.4785    0.0000 C   0  0  3  0  0  0  0  0  0  0  0  0
    2.1451   -1.3335    0.0000 C   0  0  0  0  0  0  0  0  0  0  0  0
    7.4498   -1.7682    0.0000 C   0  0  0  0  0  0  0  0  0  0  0  0
    1.4204   -0.9276    0.0000 C   0  0  0  0  0  0  0  0  0  0  0  0
    8.6963   -1.7682    0.0000 C   0  0  0  0  0  0  0  0  0  0  0  0
    3.3915   -1.7393    0.0000 C   0  0  0  0  0  0  0  0  0  0  0  0
    0.7247   -2.1451    0.0000 C   0  0  0  0  0  0  0  0  0  0  0  0
    5.9135   -3.2176    0.0000 C   0  0  0  0  0  0  0  0  0  0  0  0
    8.0876   -0.6377    0.0000 C   0  0  0  0  0  0  0  0  0  0  0  0
    2.9568   -3.2466    0.0000 C   0  0  0  0  0  0  0  0  0  0  0  0
    8.6963   -1.0146    0.0000 C   0  0  0  0  0  0  0  0  0  0  0  0
    2.2321   -4.4641    0.0000 C   0  0  0  0  0  0  0  0  0  0  0  0
    2.9568   -4.8699    0.0000 C   0  0  0  0  0  0  0  0  0  0  0  0
    1.5364   -4.8699    0.0000 C   0  0  0  0  0  0  0  0  0  0  0  0
 18  1  1  6  0  0  0
  1 22  1  0  0  0  0
 19  2  1  1  0  0  0
 20  3  1  6  0  0  0
  4 24  2  0  0  0  0
  5 25  2  0  0  0  0
  6 31  1  0  0  0  0
  6 33  1  0  0  0  0
  7 29  1  0  0  0  0
  8 35  1  0  0  0  0
  9 34  1  0  0  0  0
 10 18  1  0  0  0  0
 10 24  1  0  0  0  0
 10 26  1  0  0  0  0
 11 21  1  0  0  0  0
 11 27  1  0  0  0  0
 11 31  1  0  0  0  0
 12 21  1  0  0  0  0
 12 28  2  0  0  0  0
 13 23  1  0  0  0  0
 13 27  2  0  0  0  0
 14 25  1  0  0  0  0
 14 28  1  0  0  0  0
 15 24  1  0  0  0  0
 15 30  2  0  0  0  0
 16 28  1  0  0  0  0
 17 30  1  0  0  0  0
 18 19  1  0  0  0  0
 19 20  1  0  0  0  0
 20 22  1  0  0  0  0
 21 23  2  0  0  0  0
 22 29  1  1  0  0  0
 23 25  1  0  0  0  0
 26 32  2  0  0  0  0
 30 32  1  0  0  0  0
 33 34  1  0  0  0  0
 33 35  1  0  0  0  0
M  END
> <PUBCHEM_COMPOUND_ID_TYPE>
0

> <PUBCHEM_TOTAL_CHARGE>
0

> <PUBCHEM_SUBSTANCE_ID>
310937778

> <PUBCHEM_SUBSTANCE_VERSION>
1

> <PUBCHEM_EXT_DATASOURCE_NAME>
4488

> <PUBCHEM_EXT_DATASOURCE_REGID>
SCHEMBL16115590

> <PUBCHEM_SUBSTANCE_COMMENT>
InChI=1S/C9H13N5O4.C9H13N3O5/c10-9-12-7-6(8(17)13-9)11-3-14(7)4-18-5(1-15)2-16;10-5-1-2-12(9(16)11-5)8-7(15)6(14)4(3-13)17-8/h3,5,15-16H,1-2,4H2,(H3,10,12,13,17);1-2,4,6-8,13-15H,3H2,(H2,10,11,16)/t;4-,6-,7+,8-/m.1/s1
InChIKey=QEEKOLCWZCXPAB-UQIOCGSYSA-N

> <PUBCHEM_SUBSTANCE_SYNONYM>
SCHEMBL16115590

> <PUBCHEM_XREF_EXT_ID>
SCHEMBL16115590

> <PUBCHEM_EXT_DATASOURCE_URL>
https://www.surechembl.org/

> <PUBCHEM_EXT_SUBSTANCE_URL>
https://www.surechembl.org/chemical/SCHEMBL16115590

> <PUBCHEM_CID_ASSOCIATIONS>
117605433  1
3454  2
6253  2

> <PUBCHEM_COORDINATE_TYPE>
1
3

> <PUBCHEM_BONDANNOTATIONS>
18  1  6
19  2  5
22  29  5
20  3  6

$$$$
