310931409
  -OEChem-07211613022D

 26 25  0     0  0  0  0  0  0999 V2000
    0.0000   -0.4125    0.0000 S   0  0  0  0  0  0  0  0  0  0  0  0
    0.0000    1.2375    0.0000 F   0  0  0  0  0  0  0  0  0  0  0  0
    0.8250    0.4125    0.0000 F   0  0  0  0  0  0  0  0  0  0  0  0
   -0.8250    0.4125    0.0000 F   0  0  0  0  0  0  0  0  0  0  0  0
    0.8250   -0.4125    0.0000 O   0  0  0  0  0  0  0  0  0  0  0  0
   -0.8250   -0.4125    0.0000 O   0  0  0  0  0  0  0  0  0  0  0  0
    0.0000   -1.2375    0.0000 O   0  0  0  0  0  0  0  0  0  0  0  0
    9.3767    0.9625    0.0000 O   0  0  0  0  0  0  0  0  0  0  0  0
    5.8043   -0.2750    0.0000 N   0  3  0  0  0  0  0  0  0  0  0  0
    8.6622   -0.2750    0.0000 N   0  0  0  0  0  0  0  0  0  0  0  0
    0.0000    0.4125    0.0000 C   0  0  0  0  0  0  0  0  0  0  0  0
    4.3754   -0.2750    0.0000 C   0  0  0  0  0  0  0  0  0  0  0  0
    5.0898   -0.6875    0.0000 C   0  0  0  0  0  0  0  0  0  0  0  0
    6.5188    0.1375    0.0000 C   0  0  0  0  0  0  0  0  0  0  0  0
    3.6609   -0.6875    0.0000 C   0  0  0  0  0  0  0  0  0  0  0  0
    4.3754    0.5500    0.0000 C   0  0  0  0  0  0  0  0  0  0  0  0
    5.3918    0.4395    0.0000 C   0  0  0  0  0  0  0  0  0  0  0  0
    6.2168   -0.9895    0.0000 C   0  0  0  0  0  0  0  0  0  0  0  0
    7.2333   -0.2750    0.0000 C   0  0  0  0  0  0  0  0  0  0  0  0
    2.9464   -0.2750    0.0000 C   0  0  0  0  0  0  0  0  0  0  0  0
    3.6609    0.9625    0.0000 C   0  0  0  0  0  0  0  0  0  0  0  0
    2.9464    0.5500    0.0000 C   0  0  0  0  0  0  0  0  0  0  0  0
    7.9477    0.1375    0.0000 C   0  0  0  0  0  0  0  0  0  0  0  0
    9.3767    0.1375    0.0000 C   0  0  0  0  0  0  0  0  0  0  0  0
   10.0911   -0.2750    0.0000 C   0  0  0  0  0  0  0  0  0  0  0  0
   10.8056    0.1375    0.0000 C   0  0  0  0  0  0  0  0  0  0  0  0
  1  5  2  0  0  0  0
  1  6  2  0  0  0  0
  1  7  1  0  0  0  0
  1 11  1  0  0  0  0
  2 11  1  0  0  0  0
  3 11  1  0  0  0  0
  4 11  1  0  0  0  0
  8 24  2  0  0  0  0
  9 13  1  0  0  0  0
  9 14  1  0  0  0  0
  9 17  1  0  0  0  0
  9 18  1  0  0  0  0
 10 23  1  0  0  0  0
 10 24  1  0  0  0  0
 12 13  1  0  0  0  0
 12 15  2  0  0  0  0
 12 16  1  0  0  0  0
 14 19  1  0  0  0  0
 15 20  1  0  0  0  0
 16 21  2  0  0  0  0
 19 23  1  0  0  0  0
 20 22  2  0  0  0  0
 21 22  1  0  0  0  0
 24 25  1  0  0  0  0
 25 26  2  0  0  0  0
M  CHG  1   9   1
M  END
> <PUBCHEM_COMPOUND_ID_TYPE>
0

> <PUBCHEM_TOTAL_CHARGE>
1

> <PUBCHEM_SUBSTANCE_ID>
310931409

> <PUBCHEM_SUBSTANCE_VERSION>
1

> <PUBCHEM_EXT_DATASOURCE_NAME>
4488

> <PUBCHEM_EXT_DATASOURCE_REGID>
SCHEMBL16108733

> <PUBCHEM_SUBSTANCE_COMMENT>
InChI=1S/C15H22N2O.CHF3O3S/c1-4-15(18)16-11-8-12-17(2,3)13-14-9-6-5-7-10-14;2-1(3,4)8(5,6)7/h4-7,9-10H,1,8,11-13H2,2-3H3;(H,5,6,7)/p+1
InChIKey=DPLWAWOAJOLWGS-UHFFFAOYSA-O

> <PUBCHEM_SUBSTANCE_SYNONYM>
SCHEMBL16108733

> <PUBCHEM_XREF_EXT_ID>
SCHEMBL16108733

> <PUBCHEM_EXT_DATASOURCE_URL>
https://www.surechembl.org/

> <PUBCHEM_EXT_SUBSTANCE_URL>
https://www.surechembl.org/chemical/SCHEMBL16108733

> <PUBCHEM_CID_ASSOCIATIONS>
117600192  1
62406  2
21532726  2

> <PUBCHEM_COORDINATE_TYPE>
1
3

$$$$
