310930417
  -OEChem-07211613022D

 42 46  0     0  0  0  0  0  0999 V2000
   -1.7624   -0.0825    0.0000 S   0  0  0  0  0  0  0  0  0  0  0  0
   -1.0479    2.8050    0.0000 F   0  0  0  0  0  0  0  0  0  0  0  0
   -2.1749   -0.7970    0.0000 O   0  0  0  0  0  0  0  0  0  0  0  0
   -1.3499    0.6320    0.0000 O   0  0  0  0  0  0  0  0  0  0  0  0
   -3.9058    1.1550    0.0000 O   0  0  0  0  0  0  0  0  0  0  0  0
    6.9072   -0.7145    0.0000 O   0  0  0  0  0  0  0  0  0  0  0  0
   -2.4768    0.3300    0.0000 N   0  0  0  0  0  0  0  0  0  0  0  0
    8.6296    0.6674    0.0000 N   0  0  0  0  0  0  0  0  0  0  0  0
    2.5245   -1.7325    0.0000 N   0  0  0  0  0  0  0  0  0  0  0  0
   10.8431   -0.4125    0.0000 N   0  0  0  0  0  0  0  0  0  0  0  0
    6.9072    0.7145    0.0000 N   0  0  0  0  0  0  0  0  0  0  0  0
   -1.0479   -0.4950    0.0000 C   0  0  0  0  0  0  0  0  0  0  0  0
   -2.4768    1.1550    0.0000 C   0  0  0  0  0  0  0  0  0  0  0  0
    9.4142   -0.4125    0.0000 C   0  0  0  0  0  0  0  0  0  0  0  0
    9.4142    0.4125    0.0000 C   0  0  0  0  0  0  0  0  0  0  0  0
   -3.1913    1.5675    0.0000 C   0  0  0  0  0  0  0  0  0  0  0  0
   -1.0479   -1.3200    0.0000 C   0  0  0  0  0  0  0  0  0  0  0  0
   -0.3334   -0.0825    0.0000 C   0  0  0  0  0  0  0  0  0  0  0  0
    0.3811   -1.3200    0.0000 C   0  0  0  0  0  0  0  0  0  0  0  0
    8.1447    0.0000    0.0000 C   0  0  0  0  0  0  0  0  0  0  0  0
   -1.7624    1.5675    0.0000 C   0  0  0  0  0  0  0  0  0  0  0  0
    8.6296   -0.6674    0.0000 C   0  0  0  0  0  0  0  0  0  0  0  0
   -0.3334   -1.7325    0.0000 C   0  0  0  0  0  0  0  0  0  0  0  0
    0.3811   -0.4950    0.0000 C   0  0  0  0  0  0  0  0  0  0  0  0
    1.8100   -1.3200    0.0000 C   0  0  0  0  0  0  0  0  0  0  0  0
    1.0955   -1.7325    0.0000 C   0  0  0  0  0  0  0  0  0  0  0  0
   -1.7624    2.3925    0.0000 C   0  0  0  0  0  0  0  0  0  0  0  0
    3.2389   -1.3200    0.0000 C   0  0  0  0  0  0  0  0  0  0  0  0
   -3.1913    2.3925    0.0000 C   0  0  0  0  0  0  0  0  0  0  0  0
    3.2389   -0.4950    0.0000 C   0  0  0  0  0  0  0  0  0  0  0  0
   10.1287   -0.8250    0.0000 C   0  0  0  0  0  0  0  0  0  0  0  0
   10.1287    0.8250    0.0000 C   0  0  0  0  0  0  0  0  0  0  0  0
    7.3197    0.0000    0.0000 C   0  0  0  0  0  0  0  0  0  0  0  0
   -2.4768    2.8050    0.0000 C   0  0  0  0  0  0  0  0  0  0  0  0
    1.8100   -0.4950    0.0000 C   0  0  0  0  0  0  0  0  0  0  0  0
    2.5245   -0.0825    0.0000 C   0  0  0  0  0  0  0  0  0  0  0  0
   10.8431    0.4125    0.0000 C   0  0  0  0  0  0  0  0  0  0  0  0
    3.9534   -1.7325    0.0000 C   0  0  0  0  0  0  0  0  0  0  0  0
    3.9534   -0.0825    0.0000 C   0  0  0  0  0  0  0  0  0  0  0  0
    4.6679   -1.3200    0.0000 C   0  0  0  0  0  0  0  0  0  0  0  0
    4.6679   -0.4950    0.0000 C   0  0  0  0  0  0  0  0  0  0  0  0
   -3.9058    0.3300    0.0000 C   0  0  0  0  0  0  0  0  0  0  0  0
  1  3  2  0  0  0  0
  1  4  2  0  0  0  0
  1  7  1  0  0  0  0
  1 12  1  0  0  0  0
  2 27  1  0  0  0  0
  5 16  1  0  0  0  0
  5 42  1  0  0  0  0
  6 33  2  0  0  0  0
  7 13  1  0  0  0  0
  8 15  1  0  0  0  0
  8 20  1  0  0  0  0
  9 25  2  0  0  0  0
  9 28  1  0  0  0  0
 10 31  2  0  0  0  0
 10 37  1  0  0  0  0
 11 33  1  0  0  0  0
 12 17  2  0  0  0  0
 12 18  1  0  0  0  0
 13 16  2  0  0  0  0
 13 21  1  0  0  0  0
 14 15  2  0  0  0  0
 14 22  1  0  0  0  0
 14 31  1  0  0  0  0
 15 32  1  0  0  0  0
 16 29  1  0  0  0  0
 17 23  1  0  0  0  0
 18 24  2  0  0  0  0
 19 23  2  0  0  0  0
 19 24  1  0  0  0  0
 19 26  1  0  0  0  0
 20 22  2  0  0  0  0
 20 33  1  0  0  0  0
 21 27  2  0  0  0  0
 25 26  1  0  0  0  0
 25 35  1  0  0  0  0
 27 34  1  0  0  0  0
 28 30  1  0  0  0  0
 28 38  2  0  0  0  0
 29 34  2  0  0  0  0
 30 36  1  0  0  0  0
 30 39  2  0  0  0  0
 32 37  2  0  0  0  0
 35 36  2  0  0  0  0
 38 40  1  0  0  0  0
 39 41  1  0  0  0  0
 40 41  2  0  0  0  0
M  END
> <PUBCHEM_COMPOUND_ID_TYPE>
0

> <PUBCHEM_TOTAL_CHARGE>
0

> <PUBCHEM_SUBSTANCE_ID>
310930417

> <PUBCHEM_SUBSTANCE_VERSION>
1

> <PUBCHEM_EXT_DATASOURCE_NAME>
4488

> <PUBCHEM_EXT_DATASOURCE_REGID>
SCHEMBL16107706

> <PUBCHEM_SUBSTANCE_COMMENT>
InChI=1S/C23H19FN2O3S.C8H7N3O/c1-29-23-13-9-18(24)15-22(23)26-30(27,28)20-11-6-16(7-12-20)14-19-10-8-17-4-2-3-5-21(17)25-19;9-8(12)7-3-5-4-10-2-1-6(5)11-7/h2-13,15,26H,14H2,1H3;1-4,11H,(H2,9,12)
InChIKey=PPOGMWGVWGELCC-UHFFFAOYSA-N

> <PUBCHEM_SUBSTANCE_SYNONYM>
SCHEMBL16107706

> <PUBCHEM_XREF_EXT_ID>
SCHEMBL16107706

> <PUBCHEM_EXT_DATASOURCE_URL>
https://www.surechembl.org/

> <PUBCHEM_EXT_SUBSTANCE_URL>
https://www.surechembl.org/chemical/SCHEMBL16107706

> <PUBCHEM_CID_ASSOCIATIONS>
117599559  1
66608835  2
117599560  2

> <PUBCHEM_COORDINATE_TYPE>
1
3

$$$$
