310937412
  -OEChem-07211613022D

 15 14  0     0  0  0  0  0  0999 V2000
    3.3589   -0.9281    0.0000 Cl  0  0  0  0  0  0  0  0  0  0  0  0
    0.0000    0.0000    0.0000 S   0  0  0  0  0  0  0  0  0  0  0  0
    4.7879    1.5469    0.0000 F   0  0  0  0  0  0  0  0  0  0  0  0
    0.7145    0.4125    0.0000 O   0  0  0  0  0  0  0  0  0  0  0  0
   -0.7145   -0.4125    0.0000 O   0  0  0  0  0  0  0  0  0  0  0  0
    4.0734    0.3094    0.0000 N   0  0  0  0  0  0  0  0  0  0  0  0
    4.7879   -0.9281    0.0000 N   0  0  0  0  0  0  0  0  0  0  0  0
    4.0734   -0.5156    0.0000 C   0  0  0  0  0  0  0  0  0  0  0  0
    4.7879    0.7219    0.0000 C   0  0  0  0  0  0  0  0  0  0  0  0
    5.5023    0.3094    0.0000 C   0  0  0  0  0  0  0  0  0  0  0  0
    0.4125   -0.7145    0.0000 C   0  0  0  0  0  0  0  0  0  0  0  0
   -0.4125    0.7145    0.0000 C   0  0  0  0  0  0  0  0  0  0  0  0
    5.5023   -0.5156    0.0000 C   0  0  0  0  0  0  0  0  0  0  0  0
    1.2375   -0.7145    0.0000 C   0  0  0  0  0  0  0  0  0  0  0  0
   -1.2375    0.7145    0.0000 C   0  0  0  0  0  0  0  0  0  0  0  0
  1  8  1  0  0  0  0
  2  4  2  0  0  0  0
  2  5  2  0  0  0  0
  2 11  1  0  0  0  0
  2 12  1  0  0  0  0
  3  9  1  0  0  0  0
  6  8  1  0  0  0  0
  6  9  2  0  0  0  0
  7  8  2  0  0  0  0
  7 13  1  0  0  0  0
  9 10  1  0  0  0  0
 10 13  2  0  0  0  0
 11 14  2  0  0  0  0
 12 15  2  0  0  0  0
M  END
> <PUBCHEM_COMPOUND_ID_TYPE>
0

> <PUBCHEM_TOTAL_CHARGE>
0

> <PUBCHEM_SUBSTANCE_ID>
310937412

> <PUBCHEM_SUBSTANCE_VERSION>
1

> <PUBCHEM_EXT_DATASOURCE_NAME>
4488

> <PUBCHEM_EXT_DATASOURCE_REGID>
SCHEMBL16115170

> <PUBCHEM_SUBSTANCE_COMMENT>
InChI=1S/C4H2ClFN2.C4H6O2S/c5-4-7-2-1-3(6)8-4;1-3-7(5,6)4-2/h1-2H;3-4H,1-2H2
InChIKey=VMOVXKLOUSVJMF-UHFFFAOYSA-N

> <PUBCHEM_SUBSTANCE_SYNONYM>
SCHEMBL16115170

> <PUBCHEM_XREF_EXT_ID>
SCHEMBL16115170

> <PUBCHEM_EXT_DATASOURCE_URL>
https://www.surechembl.org/

> <PUBCHEM_EXT_SUBSTANCE_URL>
https://www.surechembl.org/chemical/SCHEMBL16115170

> <PUBCHEM_CID_ASSOCIATIONS>
117605172  1
6496  2
12045191  2

> <PUBCHEM_COORDINATE_TYPE>
1
3

$$$$
