310937643
  -OEChem-07211613022D

 37 41  0     0  0  0  0  0  0999 V2000
    7.0209   -3.9586    0.0000 F   0  0  0  0  0  0  0  0  0  0  0  0
    9.7845   -1.1950    0.0000 F   0  0  0  0  0  0  0  0  0  0  0  0
    9.0749   -2.4648    0.0000 F   0  0  0  0  0  0  0  0  0  0  0  0
    9.0749   -1.6059    0.0000 F   0  0  0  0  0  0  0  0  0  0  0  0
   10.4940   -3.2864    0.0000 O   0  0  0  0  0  0  0  0  0  0  0  0
   11.2036   -2.0167    0.0000 O   0  0  0  0  0  0  0  0  0  0  0  0
    6.7595   -1.1577    0.0000 N   0  0  0  0  0  0  0  0  0  0  0  0
    5.0416   -2.9876    0.0000 N   0  0  0  0  0  0  0  0  0  0  0  0
    2.2034   -0.5975    0.0000 N   0  0  0  0  0  0  0  0  0  0  0  0
    7.4317   -1.6432    0.0000 N   0  0  0  0  0  0  0  0  0  0  0  0
    3.6972   -3.5478    0.0000 N   0  0  0  0  0  0  0  0  0  0  0  0
    5.3404   -1.3071    0.0000 N   0  0  0  0  0  0  0  0  0  0  0  0
    4.8922   -4.4067    0.0000 N   0  0  0  0  0  0  0  0  0  0  0  0
    0.0000   -1.6806    0.0000 N   0  0  0  0  0  0  0  0  0  0  0  0
    6.3487   -2.4274    0.0000 C   0  0  0  0  0  0  0  0  0  0  0  0
    6.0500   -1.6432    0.0000 C   0  0  0  0  0  0  0  0  0  0  0  0
    5.8632   -3.0997    0.0000 C   0  0  0  0  0  0  0  0  0  0  0  0
    2.2034   -1.9420    0.0000 C   0  0  0  0  0  0  0  0  0  0  0  0
    1.4565   -1.6806    0.0000 C   0  0  0  0  0  0  0  0  0  0  0  0
    2.7262   -1.2697    0.0000 C   0  0  0  0  0  0  0  0  0  0  0  0
    1.4565   -0.8589    0.0000 C   0  0  0  0  0  0  0  0  0  0  0  0
    6.1993   -3.8466    0.0000 C   0  0  0  0  0  0  0  0  0  0  0  0
    7.1703   -2.4274    0.0000 C   0  0  0  0  0  0  0  0  0  0  0  0
    3.3984   -2.7636    0.0000 C   0  0  0  0  0  0  0  0  0  0  0  0
    4.5188   -3.6225    0.0000 C   0  0  0  0  0  0  0  0  0  0  0  0
    2.5768   -2.6888    0.0000 C   0  0  0  0  0  0  0  0  0  0  0  0
    3.5105   -1.3818    0.0000 C   0  0  0  0  0  0  0  0  0  0  0  0
    3.8466   -2.1287    0.0000 C   0  0  0  0  0  0  0  0  0  0  0  0
    0.7095   -2.1287    0.0000 C   0  0  0  0  0  0  0  0  0  0  0  0
    6.6848   -0.2988    0.0000 C   0  0  0  0  0  0  0  0  0  0  0  0
    5.6765   -4.4814    0.0000 C   0  0  0  0  0  0  0  0  0  0  0  0
    0.7095   -0.4108    0.0000 C   0  0  0  0  0  0  0  0  0  0  0  0
    5.2657   -0.4855    0.0000 C   0  0  0  0  0  0  0  0  0  0  0  0
    5.9379    0.0000    0.0000 C   0  0  0  0  0  0  0  0  0  0  0  0
    0.0000   -0.8589    0.0000 C   0  0  0  0  0  0  0  0  0  0  0  0
    9.7845   -2.0167    0.0000 C   0  0  0  0  0  0  0  0  0  0  0  0
   10.4940   -2.4648    0.0000 C   0  0  0  0  0  0  0  0  0  0  0  0
  1 22  1  0  0  0  0
  2 36  1  0  0  0  0
  3 36  1  0  0  0  0
  4 36  1  0  0  0  0
  5 37  2  0  0  0  0
  6 37  1  0  0  0  0
  7 10  1  0  0  0  0
  7 16  1  0  0  0  0
  7 30  1  0  0  0  0
  8 17  2  0  0  0  0
  8 25  1  0  0  0  0
  9 20  1  0  0  0  0
  9 21  1  0  0  0  0
 10 23  2  0  0  0  0
 11 24  1  0  0  0  0
 11 25  1  0  0  0  0
 12 16  1  0  0  0  0
 12 33  2  0  0  0  0
 13 25  2  0  0  0  0
 13 31  1  0  0  0  0
 14 29  1  0  0  0  0
 14 35  1  0  0  0  0
 15 16  2  0  0  0  0
 15 17  1  0  0  0  0
 15 23  1  0  0  0  0
 17 22  1  0  0  0  0
 18 19  1  0  0  0  0
 18 20  2  0  0  0  0
 18 26  1  0  0  0  0
 19 21  2  0  0  0  0
 19 29  1  0  0  0  0
 20 27  1  0  0  0  0
 21 32  1  0  0  0  0
 22 31  2  0  0  0  0
 24 26  2  0  0  0  0
 24 28  1  0  0  0  0
 27 28  2  0  0  0  0
 30 34  2  0  0  0  0
 32 35  1  0  0  0  0
 33 34  1  0  0  0  0
 36 37  1  0  0  0  0
M  END
> <PUBCHEM_COMPOUND_ID_TYPE>
0

> <PUBCHEM_TOTAL_CHARGE>
0

> <PUBCHEM_SUBSTANCE_ID>
310937643

> <PUBCHEM_SUBSTANCE_VERSION>
1

> <PUBCHEM_EXT_DATASOURCE_NAME>
4488

> <PUBCHEM_EXT_DATASOURCE_REGID>
SCHEMBL16115432

> <PUBCHEM_SUBSTANCE_COMMENT>
InChI=1S/C21H17FN8.C2HF3O2/c22-16-11-25-21(29-19(16)15-10-26-30-7-1-5-24-20(15)30)27-12-2-3-17-13(8-12)14-9-23-6-4-18(14)28-17;3-2(4,5)1(6)7/h1-3,5,7-8,10-11,23,28H,4,6,9H2,(H,25,27,29);(H,6,7)
InChIKey=FPUQHGVZTBFXEC-UHFFFAOYSA-N

> <PUBCHEM_SUBSTANCE_SYNONYM>
SCHEMBL16115432

> <PUBCHEM_XREF_EXT_ID>
SCHEMBL16115432

> <PUBCHEM_EXT_DATASOURCE_URL>
https://www.surechembl.org/

> <PUBCHEM_EXT_SUBSTANCE_URL>
https://www.surechembl.org/chemical/SCHEMBL16115432

> <PUBCHEM_CID_ASSOCIATIONS>
86301268  1
6422  2
86301269  2

> <PUBCHEM_COORDINATE_TYPE>
1
3

$$$$
