310929474
  -OEChem-07211613022D

 69 76  0     1  0  0  0  0  0999 V2000
    1.5379   -8.6971    0.0000 S   0  0  0  0  0  0  0  0  0  0  0  0
   12.3563   -4.2955    0.0000 F   0  0  0  0  0  0  0  0  0  0  0  0
   11.6669   -5.5153    0.0000 F   0  0  0  0  0  0  0  0  0  0  0  0
   11.6669   -4.6668    0.0000 F   0  0  0  0  0  0  0  0  0  0  0  0
    2.9697   -7.9547    0.0000 O   0  0  0  0  0  0  0  0  0  0  0  0
    1.9622   -8.0078    0.0000 O   0  0  0  0  0  0  0  0  0  0  0  0
    1.0606   -9.3866    0.0000 O   0  0  0  0  0  0  0  0  0  0  0  0
    3.5001   -7.5835    0.0000 O   0  0  0  0  0  0  0  0  0  0  0  0
    4.5607   -5.1971    0.0000 O   0  0  0  0  0  0  0  0  0  0  0  0
    5.9926   -9.1214    0.0000 O   0  0  0  0  0  0  0  0  0  0  0  0
    5.9926   -2.5455    0.0000 O   0  0  0  0  0  0  0  0  0  0  0  0
    9.0153   -7.2123    0.0000 O   0  0  0  0  0  0  0  0  0  0  0  0
    9.0153   -8.4320    0.0000 O   0  0  0  0  0  0  0  0  0  0  0  0
   13.7882   -5.0910    0.0000 O   0  5  0  0  0  0  0  0  0  0  0  0
   13.0987   -6.3107    0.0000 O   0  0  0  0  0  0  0  0  0  0  0  0
    4.2955   -8.7502    0.0000 N   0  0  0  0  0  0  0  0  0  0  0  0
    2.2273   -9.1214    0.0000 N   0  0  0  0  0  0  0  0  0  0  0  0
    5.4092   -8.0078    0.0000 N   0  0  0  0  0  0  0  0  0  0  0  0
    4.1365   -4.1895    0.0000 N   0  0  0  0  0  0  0  0  0  0  0  0
    7.7426   -8.3259    0.0000 N   0  0  0  0  0  0  0  0  0  0  0  0
    5.7274   -1.1667    0.0000 N   0  3  0  0  0  0  0  0  0  0  0  0
    3.6592   -9.2274    0.0000 C   0  0  3  0  0  0  0  0  0  0  0  0
    3.8183  -10.0229    0.0000 C   0  0  3  0  0  0  0  0  0  0  0  0
    3.0228   -9.8108    0.0000 C   0  0  0  0  0  0  0  0  0  0  0  0
    2.9167   -8.7502    0.0000 C   0  0  0  0  0  0  0  0  0  0  0  0
    0.8485   -8.2729    0.0000 C   0  0  0  0  0  0  0  0  0  0  0  0
    4.2425   -7.9547    0.0000 C   0  0  0  0  0  0  0  0  0  0  0  0
    4.3486  -10.6063    0.0000 C   0  0  0  0  0  0  0  0  0  0  0  0
    0.0000   -8.2199    0.0000 C   0  0  0  0  0  0  0  0  0  0  0  0
    0.4773   -7.5305    0.0000 C   0  0  0  0  0  0  0  0  0  0  0  0
    4.9319   -7.4775    0.0000 C   0  0  3  0  0  0  0  0  0  0  0  0
    0.5833   -9.0684    0.0000 C   0  0  0  0  0  0  0  0  0  0  0  0
    4.5076   -6.7350    0.0000 C   0  0  0  0  0  0  0  0  0  0  0  0
    4.3486   -5.9926    0.0000 C   0  0  3  0  0  0  0  0  0  0  0  0
    6.1517   -8.3259    0.0000 C   0  0  0  0  0  0  0  0  0  0  0  0
    4.2955   -7.3183    0.0000 C   0  0  0  0  0  0  0  0  0  0  0  0
    5.1441  -10.4472    0.0000 C   0  0  0  0  0  0  0  0  0  0  0  0
    7.0532   -8.4320    0.0000 C   0  0  3  0  0  0  0  0  0  0  0  0
    4.9849   -4.4546    0.0000 C   0  0  0  0  0  0  0  0  0  0  0  0
    5.5683   -3.9773    0.0000 C   0  0  0  0  0  0  0  0  0  0  0  0
    5.4092   -3.0758    0.0000 C   0  0  0  0  0  0  0  0  0  0  0  0
    4.6138   -2.9167    0.0000 C   0  0  0  0  0  0  0  0  0  0  0  0
    7.0532   -9.2805    0.0000 C   0  0  0  0  0  0  0  0  0  0  0  0
    4.0834   -3.3940    0.0000 C   0  0  0  0  0  0  0  0  0  0  0  0
    6.3638   -3.6062    0.0000 C   0  0  0  0  0  0  0  0  0  0  0  0
    4.5076   -2.0682    0.0000 C   0  0  0  0  0  0  0  0  0  0  0  0
    8.4320   -7.8486    0.0000 C   0  0  0  0  0  0  0  0  0  0  0  0
    3.2349   -3.1289    0.0000 C   0  0  0  0  0  0  0  0  0  0  0  0
    5.8334   -1.7501    0.0000 C   0  0  0  0  0  0  0  0  0  0  0  0
    9.2805   -6.5229    0.0000 C   0  0  3  0  0  0  0  0  0  0  0  0
    6.2047   -9.2805    0.0000 C   0  0  0  0  0  0  0  0  0  0  0  0
    7.0532  -10.0760    0.0000 C   0  0  0  0  0  0  0  0  0  0  0  0
    7.8486   -9.2805    0.0000 C   0  0  0  0  0  0  0  0  0  0  0  0
    9.2805   -5.6213    0.0000 C   0  0  3  0  0  0  0  0  0  0  0  0
    3.6592   -1.8031    0.0000 C   0  0  0  0  0  0  0  0  0  0  0  0
    3.0758   -2.2804    0.0000 C   0  0  0  0  0  0  0  0  0  0  0  0
    6.4699   -1.2198    0.0000 C   0  0  0  0  0  0  0  0  0  0  0  0
    5.0910   -1.5379    0.0000 C   0  0  0  0  0  0  0  0  0  0  0  0
    7.1592   -3.5531    0.0000 C   0  0  0  0  0  0  0  0  0  0  0  0
   10.0229   -6.0986    0.0000 C   0  0  0  0  0  0  0  0  0  0  0  0
    6.4699   -0.4773    0.0000 C   0  0  3  0  0  0  0  0  0  0  0  0
    4.7728   -0.8485    0.0000 C   0  0  3  0  0  0  0  0  0  0  0  0
    9.0153   -4.8789    0.0000 C   0  0  0  0  0  0  0  0  0  0  0  0
    5.0910   -0.1591    0.0000 C   0  0  0  0  0  0  0  0  0  0  0  0
    5.8334    0.0000    0.0000 C   0  0  0  0  0  0  0  0  0  0  0  0
    7.8486   -3.7652    0.0000 C   0  0  0  0  0  0  0  0  0  0  0  0
    8.5381   -4.2955    0.0000 C   0  0  0  0  0  0  0  0  0  0  0  0
   12.3563   -5.0910    0.0000 C   0  0  0  0  0  0  0  0  0  0  0  0
   13.0987   -5.5153    0.0000 C   0  0  0  0  0  0  0  0  0  0  0  0
  1  6  2  0  0  0  0
  1  7  2  0  0  0  0
  1 17  1  0  0  0  0
  1 26  1  0  0  0  0
  2 68  1  0  0  0  0
  3 68  1  0  0  0  0
  4 68  1  0  0  0  0
  5 25  2  0  0  0  0
  8 27  2  0  0  0  0
  9 34  1  0  0  0  0
  9 39  1  0  0  0  0
 10 35  2  0  0  0  0
 11 41  1  0  0  0  0
 11 49  1  0  0  0  0
 12 47  1  0  0  0  0
 12 50  1  0  0  0  0
 13 47  2  0  0  0  0
 14 69  1  0  0  0  0
 15 69  2  0  0  0  0
 22 16  1  1  0  0  0
 16 27  1  0  0  0  0
 17 25  1  0  0  0  0
 18 31  1  0  0  0  0
 18 35  1  0  0  0  0
 18 36  1  0  0  0  0
 19 39  1  0  0  0  0
 19 44  2  0  0  0  0
 20 38  1  0  0  0  0
 20 47  1  0  0  0  0
 21 61  1  0  0  0  0
 21 62  1  0  0  0  0
 22 23  1  0  0  0  0
 22 24  1  0  0  0  0
 22 25  1  6  0  0  0
 23 24  1  0  0  0  0
 23 28  1  6  0  0  0
 26 29  1  0  0  0  0
 26 30  1  0  0  0  0
 26 32  1  0  0  0  0
 31 27  1  6  0  0  0
 28 37  2  0  0  0  0
 29 30  1  0  0  0  0
 31 33  1  0  0  0  0
 34 33  1  1  0  0  0
 34 36  1  0  0  0  0
 35 38  1  0  0  0  0
 38 43  1  1  0  0  0
 39 40  2  0  0  0  0
 40 41  1  0  0  0  0
 40 45  1  0  0  0  0
 41 42  2  0  0  0  0
 42 44  1  0  0  0  0
 42 46  1  0  0  0  0
 43 51  1  0  0  0  0
 43 52  1  0  0  0  0
 43 53  1  0  0  0  0
 44 48  1  0  0  0  0
 45 59  1  0  0  0  0
 46 55  2  0  0  0  0
 48 56  2  0  0  0  0
 49 57  1  0  0  0  0
 49 58  1  0  0  0  0
 50 54  1  0  0  0  0
 50 60  1  1  0  0  0
 54 60  1  6  0  0  0
 54 63  1  0  0  0  0
 55 56  1  0  0  0  0
 57 61  1  0  0  0  0
 58 62  1  0  0  0  0
 59 66  1  0  0  0  0
 61 65  1  0  0  0  0
 62 64  1  0  0  0  0
 63 67  1  0  0  0  0
 64 65  1  0  0  0  0
 66 67  1  0  0  0  0
 68 69  1  0  0  0  0
M  CHG  2  14  -1  21   1
M  END
> <PUBCHEM_COMPOUND_ID_TYPE>
0

> <PUBCHEM_TOTAL_CHARGE>
0

> <PUBCHEM_SUBSTANCE_ID>
310929474

> <PUBCHEM_SUBSTANCE_VERSION>
1

> <PUBCHEM_EXT_DATASOURCE_NAME>
4488

> <PUBCHEM_EXT_DATASOURCE_REGID>
SCHEMBL16106648

> <PUBCHEM_SUBSTANCE_COMMENT>
InChI=1S/C46H62N6O9S.C2HF3O2/c1-6-27-24-46(27,42(55)51-62(57,58)45(5)18-19-45)50-39(53)35-23-31-25-52(35)41(54)38(44(2,3)4)49-43(56)61-36-20-26(36)12-8-7-9-14-33-37(59-30-21-28-16-17-29(22-30)47-28)32-13-10-11-15-34(32)48-40(33)60-31;3-2(4,5)1(6)7/h6,10-11,13,15,26-31,35-36,38,47H,1,7-9,12,14,16-25H2,2-5H3,(H,49,56)(H,50,53)(H,51,55);(H,6,7)/t26-,27-,28?,29?,30?,31-,35+,36-,38-,46-;/m1./s1
InChIKey=OZXFLXNTPTWCRN-MPVOAYQUSA-N

> <PUBCHEM_SUBSTANCE_SYNONYM>
SCHEMBL16106648

> <PUBCHEM_XREF_EXT_ID>
SCHEMBL16106648

> <PUBCHEM_EXT_DATASOURCE_URL>
https://www.surechembl.org/

> <PUBCHEM_EXT_SUBSTANCE_URL>
https://www.surechembl.org/chemical/SCHEMBL16106648

> <PUBCHEM_CID_ASSOCIATIONS>
117598811  1
6422  2
117598812  2

> <PUBCHEM_COORDINATE_TYPE>
1
3

> <PUBCHEM_BONDANNOTATIONS>
22  16  5
22  25  6
23  28  6
31  27  6
34  33  5
38  43  5
50  60  5
54  60  6

$$$$
