310930034
  -OEChem-07211613022D

  8  7  0     0  0  0  0  0  0999 V2000
    0.4879   -1.3305    0.0000 O   0  0  0  0  0  0  0  0  0  0  0  0
    1.9515   -1.5671    0.0000 O   0  0  0  0  0  0  0  0  0  0  0  0
    4.4352   -0.7835    0.0000 N   0  0  0  0  0  0  0  0  0  0  0  0
    1.2714   -1.0792    0.0000 C   0  0  0  0  0  0  0  0  0  0  0  0
    1.2714   -0.2513    0.0000 C   0  0  0  0  0  0  0  0  0  0  0  0
    0.0000   -0.6653    0.0000 C   0  0  0  0  0  0  0  0  0  0  0  0
    0.4879    0.0000    0.0000 C   0  0  0  0  0  0  0  0  0  0  0  0
    3.6073   -0.7835    0.0000 C   0  0  0  0  0  0  0  0  0  0  0  0
  1  4  1  0  0  0  0
  1  6  1  0  0  0  0
  2  4  2  0  0  0  0
  3  8  1  0  0  0  0
  4  5  1  0  0  0  0
  5  7  1  0  0  0  0
  6  7  1  0  0  0  0
M  END
> <PUBCHEM_COMPOUND_ID_TYPE>
0

> <PUBCHEM_TOTAL_CHARGE>
0

> <PUBCHEM_SUBSTANCE_ID>
310930034

> <PUBCHEM_SUBSTANCE_VERSION>
1

> <PUBCHEM_EXT_DATASOURCE_NAME>
4488

> <PUBCHEM_EXT_DATASOURCE_REGID>
SCHEMBL16107274

> <PUBCHEM_SUBSTANCE_COMMENT>
InChI=1S/C4H6O2.CH5N/c5-4-2-1-3-6-4;1-2/h1-3H2;2H2,1H3
InChIKey=XNXGAAWLFSCKOI-UHFFFAOYSA-N

> <PUBCHEM_SUBSTANCE_SYNONYM>
SCHEMBL16107274

> <PUBCHEM_XREF_EXT_ID>
SCHEMBL16107274

> <PUBCHEM_EXT_DATASOURCE_URL>
https://www.surechembl.org/

> <PUBCHEM_EXT_SUBSTANCE_URL>
https://www.surechembl.org/chemical/SCHEMBL16107274

> <PUBCHEM_CID_ASSOCIATIONS>
117599280  1
6329  2
7302  2

> <PUBCHEM_COORDINATE_TYPE>
1
3

$$$$
