310938463
  -OEChem-07211613022D

 43 48  0     0  0  0  0  0  0999 V2000
    8.2560    2.0398    0.0000 F   0  0  0  0  0  0  0  0  0  0  0  0
   -0.0000   -1.1786    0.0000 F   0  0  0  0  0  0  0  0  0  0  0  0
    0.8250   -0.3536    0.0000 F   0  0  0  0  0  0  0  0  0  0  0  0
   -0.8250   -0.3536    0.0000 F   0  0  0  0  0  0  0  0  0  0  0  0
   -0.7145    0.8839    0.0000 O   0  0  0  0  0  0  0  0  0  0  0  0
    0.7145    0.8839    0.0000 O   0  0  0  0  0  0  0  0  0  0  0  0
    4.3054   -3.1825    0.0000 N   0  0  0  0  0  0  0  0  0  0  0  0
    7.9365    3.5209    0.0000 N   0  0  0  0  0  0  0  0  0  0  0  0
    3.4122   -4.1745    0.0000 N   0  0  0  0  0  0  0  0  0  0  0  0
    6.0900    2.3098    0.0000 N   0  0  0  0  0  0  0  0  0  0  0  0
    7.1519    4.6008    0.0000 N   0  0  0  0  0  0  0  0  0  0  0  0
    8.6510    3.1084    0.0000 N   0  0  0  0  0  0  0  0  0  0  0  0
    6.3871    0.9121    0.0000 N   0  0  0  0  0  0  0  0  0  0  0  0
    5.0281    1.3537    0.0000 N   0  0  0  0  0  0  0  0  0  0  0  0
    5.2278   -5.4662    0.0000 N   0  0  0  0  0  0  0  0  0  0  0  0
    4.7179   -3.8970    0.0000 C   0  0  0  0  0  0  0  0  0  0  0  0
    3.4985   -3.3541    0.0000 C   0  0  0  0  0  0  0  0  0  0  0  0
    7.1519    3.2660    0.0000 C   0  0  0  0  0  0  0  0  0  0  0  0
    4.1659   -4.5101    0.0000 C   0  0  0  0  0  0  0  0  0  0  0  0
    6.8970    2.4813    0.0000 C   0  0  0  0  0  0  0  0  0  0  0  0
    7.9365    4.3459    0.0000 C   0  0  0  0  0  0  0  0  0  0  0  0
    4.0083   -1.7848    0.0000 C   0  0  0  0  0  0  0  0  0  0  0  0
    4.5604   -2.3979    0.0000 C   0  0  0  0  0  0  0  0  0  0  0  0
    6.6670    3.9334    0.0000 C   0  0  0  0  0  0  0  0  0  0  0  0
    7.4490    1.8682    0.0000 C   0  0  0  0  0  0  0  0  0  0  0  0
    2.9464   -2.7410    0.0000 C   0  0  0  0  0  0  0  0  0  0  0  0
    4.2633   -1.0002    0.0000 C   0  0  0  0  0  0  0  0  0  0  0  0
    5.5249   -4.0685    0.0000 C   0  0  0  0  0  0  0  0  0  0  0  0
    3.2014   -1.9563    0.0000 C   0  0  0  0  0  0  0  0  0  0  0  0
    5.8351    1.5252    0.0000 C   0  0  0  0  0  0  0  0  0  0  0  0
    4.4208   -5.2947    0.0000 C   0  0  0  0  0  0  0  0  0  0  0  0
    8.6510    4.7584    0.0000 C   0  0  0  0  0  0  0  0  0  0  0  0
    7.1941    1.0836    0.0000 C   0  0  0  0  0  0  0  0  0  0  0  0
    4.7732    0.5690    0.0000 C   0  0  0  0  0  0  0  0  0  0  0  0
    5.7798   -4.8532    0.0000 C   0  0  0  0  0  0  0  0  0  0  0  0
    3.7112   -0.3871    0.0000 C   0  0  0  0  0  0  0  0  0  0  0  0
    5.0703   -0.8287    0.0000 C   0  0  0  0  0  0  0  0  0  0  0  0
    9.3655    3.5209    0.0000 C   0  0  0  0  0  0  0  0  0  0  0  0
    9.3655    4.3459    0.0000 C   0  0  0  0  0  0  0  0  0  0  0  0
    3.9662    0.3975    0.0000 C   0  0  0  0  0  0  0  0  0  0  0  0
    5.3252   -0.0440    0.0000 C   0  0  0  0  0  0  0  0  0  0  0  0
   -0.0000   -0.3536    0.0000 C   0  0  0  0  0  0  0  0  0  0  0  0
    0.0000    0.4714    0.0000 C   0  0  0  0  0  0  0  0  0  0  0  0
  1 25  1  0  0  0  0
  2 42  1  0  0  0  0
  3 42  1  0  0  0  0
  4 42  1  0  0  0  0
  5 43  2  0  0  0  0
  6 43  1  0  0  0  0
  7 16  1  0  0  0  0
  7 17  1  0  0  0  0
  7 23  1  0  0  0  0
  8 12  1  0  0  0  0
  8 18  1  0  0  0  0
  8 21  1  0  0  0  0
  9 17  2  0  0  0  0
  9 19  1  0  0  0  0
 10 20  2  0  0  0  0
 10 30  1  0  0  0  0
 11 21  2  0  0  0  0
 11 24  1  0  0  0  0
 12 38  2  0  0  0  0
 13 30  2  0  0  0  0
 13 33  1  0  0  0  0
 14 30  1  0  0  0  0
 14 34  1  0  0  0  0
 15 31  1  0  0  0  0
 15 35  1  0  0  0  0
 16 19  2  0  0  0  0
 16 28  1  0  0  0  0
 17 26  1  0  0  0  0
 18 20  1  0  0  0  0
 18 24  2  0  0  0  0
 19 31  1  0  0  0  0
 20 25  1  0  0  0  0
 21 32  1  0  0  0  0
 22 23  2  0  0  0  0
 22 27  1  0  0  0  0
 22 29  1  0  0  0  0
 25 33  2  0  0  0  0
 26 29  2  0  0  0  0
 27 36  2  0  0  0  0
 27 37  1  0  0  0  0
 28 35  1  0  0  0  0
 32 39  2  0  0  0  0
 34 40  2  0  0  0  0
 34 41  1  0  0  0  0
 36 40  1  0  0  0  0
 37 41  2  0  0  0  0
 38 39  1  0  0  0  0
 42 43  1  0  0  0  0
M  END
> <PUBCHEM_COMPOUND_ID_TYPE>
0

> <PUBCHEM_TOTAL_CHARGE>
0

> <PUBCHEM_SUBSTANCE_ID>
310938463

> <PUBCHEM_SUBSTANCE_VERSION>
1

> <PUBCHEM_EXT_DATASOURCE_NAME>
4488

> <PUBCHEM_EXT_DATASOURCE_REGID>
SCHEMBL16116364

> <PUBCHEM_SUBSTANCE_COMMENT>
InChI=1S/C26H20FN9.C2HF3O2/c27-19-12-30-26(34-25(19)22-14-29-23-2-1-10-31-36(22)23)32-18-6-3-16(4-7-18)17-5-8-24-33-20-13-28-11-9-21(20)35(24)15-17;3-2(4,5)1(6)7/h1-8,10,12,14-15,28H,9,11,13H2,(H,30,32,34);(H,6,7)
InChIKey=TYYBUSFZNMZAFU-UHFFFAOYSA-N

> <PUBCHEM_SUBSTANCE_SYNONYM>
SCHEMBL16116364

> <PUBCHEM_XREF_EXT_ID>
SCHEMBL16116364

> <PUBCHEM_EXT_DATASOURCE_URL>
https://www.surechembl.org/

> <PUBCHEM_EXT_SUBSTANCE_URL>
https://www.surechembl.org/chemical/SCHEMBL16116364

> <PUBCHEM_CID_ASSOCIATIONS>
86300957  1
6422  2
86300958  2

> <PUBCHEM_COORDINATE_TYPE>
1
3

$$$$
