310930490
  -OEChem-07211613022D

 17 16  0     1  0  0  0  0  0999 V2000
    4.3119   -0.7858    0.0000 S   0  0  0  0  0  0  0  0  0  0  0  0
    3.5837   -2.0314    0.0000 F   0  0  0  0  0  0  0  0  0  0  0  0
    4.3119   -2.4530    0.0000 F   0  0  0  0  0  0  0  0  0  0  0  0
    5.0210   -2.8555    0.0000 F   0  0  0  0  0  0  0  0  0  0  0  0
    5.7492   -1.6098    0.0000 F   0  0  0  0  0  0  0  0  0  0  0  0
    4.3119    0.0000    0.0000 O   0  5  0  0  0  0  0  0  0  0  0  0
    5.2126   -0.7858    0.0000 O   0  0  0  0  0  0  0  0  0  0  0  0
    3.5070   -0.7858    0.0000 O   0  0  0  0  0  0  0  0  0  0  0  0
    0.7858   -1.6098    0.0000 N   0  3  3  0  0  0  0  0  0  0  0  0
    0.7858   -0.2683    0.0000 N   0  0  0  0  0  0  0  0  0  0  0  0
    4.3119   -1.6098    0.0000 C   0  0  0  0  0  0  0  0  0  0  0  0
    5.0210   -2.0314    0.0000 C   0  0  0  0  0  0  0  0  0  0  0  0
    1.2648   -0.9390    0.0000 C   0  0  0  0  0  0  0  0  0  0  0  0
    0.0000   -1.3607    0.0000 C   0  0  0  0  0  0  0  0  0  0  0  0
    0.0000   -0.5366    0.0000 C   0  0  0  0  0  0  0  0  0  0  0  0
    1.0349   -2.4147    0.0000 C   0  0  0  0  0  0  0  0  0  0  0  0
    1.8589   -2.5872    0.0000 C   0  0  0  0  0  0  0  0  0  0  0  0
  1  6  1  0  0  0  0
  1  7  2  0  0  0  0
  1  8  2  0  0  0  0
  1 11  1  0  0  0  0
  2 11  1  0  0  0  0
  3 11  1  0  0  0  0
  4 12  1  0  0  0  0
  5 12  1  0  0  0  0
  9 13  1  0  0  0  0
  9 14  1  0  0  0  0
  9 16  1  0  0  0  0
 10 13  2  0  0  0  0
 10 15  1  0  0  0  0
 11 12  1  0  0  0  0
 14 15  2  0  0  0  0
 16 17  1  0  0  0  0
M  CHG  2   6  -1   9   1
M  END
> <PUBCHEM_COMPOUND_ID_TYPE>
0

> <PUBCHEM_TOTAL_CHARGE>
0

> <PUBCHEM_SUBSTANCE_ID>
310930490

> <PUBCHEM_SUBSTANCE_VERSION>
1

> <PUBCHEM_EXT_DATASOURCE_NAME>
4488

> <PUBCHEM_EXT_DATASOURCE_REGID>
SCHEMBL16107780

> <PUBCHEM_SUBSTANCE_COMMENT>
InChI=1S/C5H8N2.C2H2F4O3S/c1-2-7-4-3-6-5-7;3-1(4)2(5,6)10(7,8)9/h3-5H,2H2,1H3;1H,(H,7,8,9)
InChIKey=SRWDBFZMOOIDFX-UHFFFAOYSA-N

> <PUBCHEM_SUBSTANCE_SYNONYM>
SCHEMBL16107780

> <PUBCHEM_XREF_EXT_ID>
SCHEMBL16107780

> <PUBCHEM_EXT_DATASOURCE_URL>
https://www.surechembl.org/

> <PUBCHEM_EXT_SUBSTANCE_URL>
https://www.surechembl.org/chemical/SCHEMBL16107780

> <PUBCHEM_CID_ASSOCIATIONS>
117599603  1
81540  2
10176391  2

> <PUBCHEM_COORDINATE_TYPE>
1
3

$$$$
