310937136
  -OEChem-07211613022D

 22 22  0     0  0  0  0  0  0999 V2000
    0.7212   -1.6293    0.0000 S   0  0  0  0  0  0  0  0  0  0  0  0
    0.0000   -2.8579    0.0000 S   0  0  0  0  0  0  0  0  0  0  0  0
    5.9028   -2.0566    0.0000 S   0  0  0  0  0  0  0  0  0  0  0  0
    5.2083   -3.2852    0.0000 S   0  0  0  0  0  0  0  0  0  0  0  0
    1.4423   -2.8579    0.0000 N   0  0  0  0  0  0  0  0  0  0  0  0
    6.6239   -3.2852    0.0000 N   0  0  0  0  0  0  0  0  0  0  0  0
    1.4423   -3.6859    0.0000 C   0  0  0  0  0  0  0  0  0  0  0  0
    2.1367   -2.4572    0.0000 C   0  0  0  0  0  0  0  0  0  0  0  0
    2.1367   -4.1133    0.0000 C   0  0  0  0  0  0  0  0  0  0  0  0
    2.1635   -1.6293    0.0000 C   0  0  0  0  0  0  0  0  0  0  0  0
    0.7212   -2.4572    0.0000 C   0  0  0  0  0  0  0  0  0  0  0  0
    2.1367   -4.9145    0.0000 C   0  0  0  0  0  0  0  0  0  0  0  0
    2.8579   -1.2286    0.0000 C   0  0  0  0  0  0  0  0  0  0  0  0
    2.8579   -3.6859    0.0000 C   0  0  0  0  0  0  0  0  0  0  0  0
    1.4423   -1.2286    0.0000 C   0  0  0  0  0  0  0  0  0  0  0  0
    2.8579   -5.3419    0.0000 C   0  0  0  0  0  0  0  0  0  0  0  0
    2.8579   -0.4007    0.0000 C   0  0  0  0  0  0  0  0  0  0  0  0
    3.5523   -4.0865    0.0000 C   0  0  0  0  0  0  0  0  0  0  0  0
    1.4423   -0.4007    0.0000 C   0  0  0  0  0  0  0  0  0  0  0  0
    3.5523   -4.9145    0.0000 C   0  0  0  0  0  0  0  0  0  0  0  0
    2.1635    0.0000    0.0000 C   0  0  0  0  0  0  0  0  0  0  0  0
    5.9028   -2.8579    0.0000 C   0  0  0  0  0  0  0  0  0  0  0  0
  1 11  2  0  0  0  0
  2 11  1  0  0  0  0
  3 22  2  0  0  0  0
  4 22  1  0  0  0  0
  5  7  1  0  0  0  0
  5  8  1  0  0  0  0
  5 11  1  0  0  0  0
  6 22  1  0  0  0  0
  7  9  1  0  0  0  0
  8 10  1  0  0  0  0
  9 12  2  0  0  0  0
  9 14  1  0  0  0  0
 10 13  2  0  0  0  0
 10 15  1  0  0  0  0
 12 16  1  0  0  0  0
 13 17  1  0  0  0  0
 14 18  2  0  0  0  0
 15 19  2  0  0  0  0
 16 20  2  0  0  0  0
 17 21  2  0  0  0  0
 18 20  1  0  0  0  0
 19 21  1  0  0  0  0
M  END
> <PUBCHEM_COMPOUND_ID_TYPE>
0

> <PUBCHEM_TOTAL_CHARGE>
0

> <PUBCHEM_SUBSTANCE_ID>
310937136

> <PUBCHEM_SUBSTANCE_VERSION>
1

> <PUBCHEM_EXT_DATASOURCE_NAME>
4488

> <PUBCHEM_EXT_DATASOURCE_REGID>
SCHEMBL16114856

> <PUBCHEM_SUBSTANCE_COMMENT>
InChI=1S/C15H15NS2.CH3NS2/c17-15(18)16(11-13-7-3-1-4-8-13)12-14-9-5-2-6-10-14;2-1(3)4/h1-10H,11-12H2,(H,17,18);(H3,2,3,4)
InChIKey=MDFRLVVROLSAOE-UHFFFAOYSA-N

> <PUBCHEM_SUBSTANCE_SYNONYM>
SCHEMBL16114856

> <PUBCHEM_XREF_EXT_ID>
SCHEMBL16114856

> <PUBCHEM_EXT_DATASOURCE_URL>
https://www.surechembl.org/

> <PUBCHEM_EXT_SUBSTANCE_URL>
https://www.surechembl.org/chemical/SCHEMBL16114856

> <PUBCHEM_CID_ASSOCIATIONS>
117604963  1
72684  2
3001860  2

> <PUBCHEM_COORDINATE_TYPE>
1
3

$$$$
