310934224
  -OEChem-07211613022D

  9  9  0     0  0  0  0  0  0999 V2000
   -0.0543    1.2471    0.0000 O   0  0  0  0  0  0  0  0  0  0  0  0
    0.1057    0.4317    0.0000 C   0  0  0  0  0  0  0  0  0  0  0  0
   -0.1244   -0.2887    0.0000 C   0  0  0  0  0  0  0  0  0  0  0  0
   -0.5346   -0.0185    0.0000 C   0  0  0  0  0  0  0  0  0  0  0  0
   -0.8999   -0.6790    0.0000 C   0  0  0  0  0  0  0  0  0  0  0  0
    0.6061   -0.6590    0.0000 C   0  0  0  0  0  0  0  0  0  0  0  0
    0.9012   -0.0336    0.0000 C   0  0  0  0  0  0  0  0  0  0  0  0
    3.9655    0.0000    0.0000 C   0  0  0  0  0  0  0  0  0  0  0  0
    3.1405    0.0000    0.0000 C   0  0  0  0  0  0  0  0  0  0  0  0
  1  2  1  0  0  0  0
  1  3  1  0  0  0  0
  2  4  2  0  0  0  0
  2  7  1  0  0  0  0
  3  5  2  0  0  0  0
  3  6  1  0  0  0  0
  4  5  1  0  0  0  0
  6  7  2  0  0  0  0
  8  9  2  0  0  0  0
M  END
> <PUBCHEM_COMPOUND_ID_TYPE>
0

> <PUBCHEM_TOTAL_CHARGE>
0

> <PUBCHEM_SUBSTANCE_ID>
310934224

> <PUBCHEM_SUBSTANCE_VERSION>
1

> <PUBCHEM_EXT_DATASOURCE_NAME>
4488

> <PUBCHEM_EXT_DATASOURCE_REGID>
SCHEMBL16111680

> <PUBCHEM_SUBSTANCE_COMMENT>
InChI=1S/C6H4O.C2H4/c1-2-6-4-3-5(1)7-6;1-2/h1-4H;1-2H2
InChIKey=ZADQZVGBTNOSPD-UHFFFAOYSA-N

> <PUBCHEM_SUBSTANCE_SYNONYM>
SCHEMBL16111680

> <PUBCHEM_XREF_EXT_ID>
SCHEMBL16111680

> <PUBCHEM_EXT_DATASOURCE_URL>
https://www.surechembl.org/

> <PUBCHEM_EXT_SUBSTANCE_URL>
https://www.surechembl.org/chemical/SCHEMBL16111680

> <PUBCHEM_CID_ASSOCIATIONS>
117602487  1
6325  2
17962603  2

> <PUBCHEM_COORDINATE_TYPE>
1
3

$$$$
