310937741
  -OEChem-07211613022D

  9  7  0     1  0  0  0  0  0999 V2000
    0.0000    0.0000    0.0000 Cl  0  0  0  0  0  0  0  0  0  0  0  0
    3.4768   -1.2503    0.0000 O   0  0  0  0  0  0  0  0  0  0  0  0
    2.2393    0.8931    0.0000 N   0  0  0  0  0  0  0  0  0  0  0  0
    3.4768    0.1786    0.0000 C   0  0  0  0  0  0  0  0  0  0  0  0
    3.8893   -0.5359    0.0000 C   0  0  3  0  0  0  0  0  0  0  0  0
    3.0643    0.8931    0.0000 C   0  0  0  0  0  0  0  0  0  0  0  0
    4.1913    0.5911    0.0000 C   0  0  0  0  0  0  0  0  0  0  0  0
    2.7623   -0.2339    0.0000 C   0  0  0  0  0  0  0  0  0  0  0  0
    4.7143   -0.5359    0.0000 C   0  0  0  0  0  0  0  0  0  0  0  0
  2  5  1  0  0  0  0
  3  6  1  0  0  0  0
  4  5  1  0  0  0  0
  4  6  1  0  0  0  0
  4  7  1  0  0  0  0
  4  8  1  0  0  0  0
  5  9  1  0  0  0  0
M  END
> <PUBCHEM_COMPOUND_ID_TYPE>
0

> <PUBCHEM_TOTAL_CHARGE>
0

> <PUBCHEM_SUBSTANCE_ID>
310937741

> <PUBCHEM_SUBSTANCE_VERSION>
1

> <PUBCHEM_EXT_DATASOURCE_NAME>
4488

> <PUBCHEM_EXT_DATASOURCE_REGID>
SCHEMBL16115542

> <PUBCHEM_SUBSTANCE_COMMENT>
InChI=1S/C6H15NO.ClH/c1-5(8)6(2,3)4-7;/h5,8H,4,7H2,1-3H3;1H
InChIKey=ZRTLZZSKGNKHPX-UHFFFAOYSA-N

> <PUBCHEM_SUBSTANCE_SYNONYM>
SCHEMBL16115542

> <PUBCHEM_XREF_EXT_ID>
SCHEMBL16115542

> <PUBCHEM_EXT_DATASOURCE_URL>
https://www.surechembl.org/

> <PUBCHEM_EXT_SUBSTANCE_URL>
https://www.surechembl.org/chemical/SCHEMBL16115542

> <PUBCHEM_CID_ASSOCIATIONS>
117605408  1
313  2
65394659  2

> <PUBCHEM_COORDINATE_TYPE>
1
3

$$$$
