310937775
  -OEChem-07211613022D

 79 87  0     1  0  0  0  0  0999 V2000
   15.0036   -4.9807    0.0000 O   0  0  0  0  0  0  0  0  0  0  0  0
    4.3043   -7.1329    0.0000 O   0  0  0  0  0  0  0  0  0  0  0  0
   13.6508   -2.4596    0.0000 O   0  0  0  0  0  0  0  0  0  0  0  0
    7.1944   -7.1944    0.0000 O   0  0  0  0  0  0  0  0  0  0  0  0
   12.1751  -12.2980    0.0000 O   0  0  0  0  0  0  0  0  0  0  0  0
   13.5893  -12.2980    0.0000 O   0  0  0  0  0  0  0  0  0  0  0  0
   11.5602   -4.3658    0.0000 N   0  0  3  0  0  0  0  0  0  0  0  0
    6.5179   -4.4273    0.0000 N   0  0  3  0  0  0  0  0  0  0  0  0
   14.3273   -3.7509    0.0000 N   0  0  0  0  0  0  0  0  0  0  0  0
    5.7186   -7.1329    0.0000 N   0  0  0  0  0  0  0  0  0  0  0  0
   12.1751   -8.2397    0.0000 N   0  0  0  0  0  0  0  0  0  0  0  0
    2.1521   -4.3043    0.0000 N   0  0  0  0  0  0  0  0  0  0  0  0
   12.9130   -9.4080    0.0000 N   0  0  0  0  0  0  0  0  0  0  0  0
    1.4143   -3.0745    0.0000 N   0  0  0  0  0  0  0  0  0  0  0  0
   14.3888   -1.2298    0.0000 N   0  0  0  0  0  0  0  0  0  0  0  0
    7.8707   -8.4242    0.0000 N   0  0  0  0  0  0  0  0  0  0  0  0
   12.9130  -11.0682    0.0000 N   0  0  0  0  0  0  0  0  0  0  0  0
    0.0000   -2.2752    0.0000 N   0  0  0  0  0  0  0  0  0  0  0  0
   12.1751   -4.9192    0.0000 C   0  0  0  0  0  0  0  0  0  0  0  0
   12.9130   -4.5503    0.0000 C   0  0  0  0  0  0  0  0  0  0  0  0
    5.7186   -4.6733    0.0000 C   0  0  0  0  0  0  0  0  0  0  0  0
    5.7186   -5.5341    0.0000 C   0  0  0  0  0  0  0  0  0  0  0  0
   13.5893   -4.9192    0.0000 C   0  0  0  0  0  0  0  0  0  0  0  0
    4.9807   -5.9031    0.0000 C   0  0  0  0  0  0  0  0  0  0  0  0
   12.8515   -6.1490    0.0000 C   0  0  0  0  0  0  0  0  0  0  0  0
    4.3043   -4.6733    0.0000 C   0  0  0  0  0  0  0  0  0  0  0  0
   12.1751   -5.7801    0.0000 C   0  0  0  0  0  0  0  0  0  0  0  0
    4.9807   -4.3043    0.0000 C   0  0  0  0  0  0  0  0  0  0  0  0
   13.5893   -5.7801    0.0000 C   0  0  0  0  0  0  0  0  0  0  0  0
    4.3043   -5.5341    0.0000 C   0  0  0  0  0  0  0  0  0  0  0  0
   12.7285   -3.7509    0.0000 C   0  0  0  0  0  0  0  0  0  0  0  0
    6.5179   -5.7801    0.0000 C   0  0  0  0  0  0  0  0  0  0  0  0
   11.9291   -3.6279    0.0000 C   0  0  0  0  0  0  0  0  0  0  0  0
    7.0099   -5.1037    0.0000 C   0  0  0  0  0  0  0  0  0  0  0  0
   14.3273   -4.5503    0.0000 C   0  0  0  0  0  0  0  0  0  0  0  0
    4.9807   -6.7640    0.0000 C   0  0  0  0  0  0  0  0  0  0  0  0
   12.8515   -7.0099    0.0000 C   0  0  0  0  0  0  0  0  0  0  0  0
    3.5664   -4.3043    0.0000 C   0  0  0  0  0  0  0  0  0  0  0  0
   10.7608   -4.5503    0.0000 C   0  0  0  0  0  0  0  0  0  0  0  0
    6.7640   -3.6894    0.0000 C   0  0  0  0  0  0  0  0  0  0  0  0
   12.1751   -7.3788    0.0000 C   0  0  0  0  0  0  0  0  0  0  0  0
   13.5893   -7.3788    0.0000 C   0  0  0  0  0  0  0  0  0  0  0  0
    2.8900   -4.6733    0.0000 C   0  0  0  0  0  0  0  0  0  0  0  0
    3.5664   -3.4434    0.0000 C   0  0  0  0  0  0  0  0  0  0  0  0
   12.9130   -8.6087    0.0000 C   0  0  0  0  0  0  0  0  0  0  0  0
    2.1521   -3.5049    0.0000 C   0  0  0  0  0  0  0  0  0  0  0  0
   13.5893   -8.2397    0.0000 C   0  0  0  0  0  0  0  0  0  0  0  0
    2.8286   -3.0745    0.0000 C   0  0  0  0  0  0  0  0  0  0  0  0
   15.0651   -3.3205    0.0000 C   0  0  0  0  0  0  0  0  0  0  0  0
   10.5148   -5.3497    0.0000 C   0  0  0  0  0  0  0  0  0  0  0  0
   10.2074   -3.9354    0.0000 C   0  0  0  0  0  0  0  0  0  0  0  0
    5.7186   -7.9937    0.0000 C   0  0  0  0  0  0  0  0  0  0  0  0
    6.2105   -3.0130    0.0000 C   0  0  0  0  0  0  0  0  0  0  0  0
    7.5633   -3.5049    0.0000 C   0  0  0  0  0  0  0  0  0  0  0  0
   15.0651   -2.5211    0.0000 C   0  0  0  0  0  0  0  0  0  0  0  0
    6.4565   -8.4242    0.0000 C   0  0  0  0  0  0  0  0  0  0  0  0
   15.7415   -2.0906    0.0000 C   0  0  0  0  0  0  0  0  0  0  0  0
    6.4565   -9.2235    0.0000 C   0  0  0  0  0  0  0  0  0  0  0  0
   14.3888   -2.0292    0.0000 C   0  0  0  0  0  0  0  0  0  0  0  0
    7.1329   -7.9937    0.0000 C   0  0  0  0  0  0  0  0  0  0  0  0
   12.1751   -9.8385    0.0000 C   0  0  0  0  0  0  0  0  0  0  0  0
   13.5893   -9.8385    0.0000 C   0  0  0  0  0  0  0  0  0  0  0  0
   15.8030   -1.2913    0.0000 C   0  0  0  0  0  0  0  0  0  0  0  0
    7.1329   -9.6539    0.0000 C   0  0  0  0  0  0  0  0  0  0  0  0
   15.0651   -0.7994    0.0000 C   0  0  0  0  0  0  0  0  0  0  0  0
    1.4143   -2.2752    0.0000 C   0  0  0  0  0  0  0  0  0  0  0  0
    0.7379   -3.5049    0.0000 C   0  0  0  0  0  0  0  0  0  0  0  0
    7.8707   -9.2235    0.0000 C   0  0  0  0  0  0  0  0  0  0  0  0
   13.5893  -10.6993    0.0000 C   0  0  0  0  0  0  0  0  0  0  0  0
   12.1751  -10.6993    0.0000 C   0  0  0  0  0  0  0  0  0  0  0  0
   16.4794   -2.5211    0.0000 C   0  0  0  0  0  0  0  0  0  0  0  0
    5.7186   -9.6539    0.0000 C   0  0  0  0  0  0  0  0  0  0  0  0
    0.0000   -3.0745    0.0000 C   0  0  0  0  0  0  0  0  0  0  0  0
    0.6764   -1.8447    0.0000 C   0  0  0  0  0  0  0  0  0  0  0  0
   12.9130  -11.9291    0.0000 C   0  0  0  0  0  0  0  0  0  0  0  0
   15.1266    0.0000    0.0000 C   0  0  0  0  0  0  0  0  0  0  0  0
    8.6087   -9.6539    0.0000 C   0  0  0  0  0  0  0  0  0  0  0  0
   17.2173   -2.0906    0.0000 C   0  0  0  0  0  0  0  0  0  0  0  0
    5.7801  -10.4533    0.0000 C   0  0  0  0  0  0  0  0  0  0  0  0
  1 35  2  0  0  0  0
  2 36  2  0  0  0  0
  3 59  2  0  0  0  0
  4 60  2  0  0  0  0
  5 75  2  0  0  0  0
  6 75  1  0  0  0  0
  7 19  1  0  0  0  0
  7 33  1  0  0  0  0
  7 39  1  0  0  0  0
  8 21  1  0  0  0  0
  8 34  1  0  0  0  0
  8 40  1  0  0  0  0
  9 35  1  0  0  0  0
  9 49  1  0  0  0  0
 10 36  1  0  0  0  0
 10 52  1  0  0  0  0
 11 41  2  0  0  0  0
 11 45  1  0  0  0  0
 12 43  1  0  0  0  0
 12 46  2  0  0  0  0
 13 45  1  0  0  0  0
 13 61  1  0  0  0  0
 13 62  1  0  0  0  0
 14 46  1  0  0  0  0
 14 66  1  0  0  0  0
 14 67  1  0  0  0  0
 15 59  1  0  0  0  0
 15 65  1  0  0  0  0
 16 60  1  0  0  0  0
 16 68  1  0  0  0  0
 17 69  1  0  0  0  0
 17 70  1  0  0  0  0
 17 75  1  0  0  0  0
 18 73  1  0  0  0  0
 18 74  1  0  0  0  0
 19 20  2  0  0  0  0
 19 27  1  0  0  0  0
 20 23  1  0  0  0  0
 20 31  1  0  0  0  0
 21 22  2  0  0  0  0
 21 28  1  0  0  0  0
 22 24  1  0  0  0  0
 22 32  1  0  0  0  0
 23 29  2  0  0  0  0
 23 35  1  0  0  0  0
 24 30  2  0  0  0  0
 24 36  1  0  0  0  0
 25 27  2  0  0  0  0
 25 29  1  0  0  0  0
 25 37  1  0  0  0  0
 26 28  2  0  0  0  0
 26 30  1  0  0  0  0
 26 38  1  0  0  0  0
 31 33  1  0  0  0  0
 32 34  1  0  0  0  0
 37 41  1  0  0  0  0
 37 42  2  0  0  0  0
 38 43  2  0  0  0  0
 38 44  1  0  0  0  0
 39 50  1  0  0  0  0
 39 51  1  0  0  0  0
 40 53  1  0  0  0  0
 40 54  1  0  0  0  0
 42 47  1  0  0  0  0
 44 48  2  0  0  0  0
 45 47  2  0  0  0  0
 46 48  1  0  0  0  0
 49 55  1  0  0  0  0
 52 56  1  0  0  0  0
 55 57  2  0  0  0  0
 55 59  1  0  0  0  0
 56 58  2  0  0  0  0
 56 60  1  0  0  0  0
 57 63  1  0  0  0  0
 57 71  1  0  0  0  0
 58 64  1  0  0  0  0
 58 72  1  0  0  0  0
 61 70  1  0  0  0  0
 62 69  1  0  0  0  0
 63 65  2  0  0  0  0
 64 68  2  0  0  0  0
 65 76  1  0  0  0  0
 66 74  1  0  0  0  0
 67 73  1  0  0  0  0
 68 77  1  0  0  0  0
 71 78  1  0  0  0  0
 72 79  1  0  0  0  0
M  END
> <PUBCHEM_COMPOUND_ID_TYPE>
0

> <PUBCHEM_TOTAL_CHARGE>
0

> <PUBCHEM_SUBSTANCE_ID>
310937775

> <PUBCHEM_SUBSTANCE_VERSION>
1

> <PUBCHEM_EXT_DATASOURCE_NAME>
4488

> <PUBCHEM_EXT_DATASOURCE_REGID>
SCHEMBL16115586

> <PUBCHEM_SUBSTANCE_COMMENT>
InChI=1S/C31H38N6O4.C30H38N6O2/c1-5-21-14-20(4)34-30(39)26(21)18-33-29(38)25-15-23(16-27-24(25)8-9-37(27)19(2)3)22-6-7-28(32-17-22)35-10-12-36(13-11-35)31(40)41;1-5-21-14-20(4)34-30(38)26(21)18-33-29(37)25-15-23(16-27-24(25)8-11-36(27)19(2)3)22-6-7-28(32-17-22)35-12-9-31-10-13-35/h6-7,14-17,19H,5,8-13,18H2,1-4H3,(H,33,38)(H,34,39)(H,40,41);6-7,14-17,19,31H,5,8-13,18H2,1-4H3,(H,33,37)(H,34,38)
InChIKey=OZMXTKMWUFOEKH-UHFFFAOYSA-N

> <PUBCHEM_SUBSTANCE_SYNONYM>
SCHEMBL16115586

> <PUBCHEM_XREF_EXT_ID>
SCHEMBL16115586

> <PUBCHEM_EXT_DATASOURCE_URL>
https://www.surechembl.org/

> <PUBCHEM_EXT_SUBSTANCE_URL>
https://www.surechembl.org/chemical/SCHEMBL16115586

> <PUBCHEM_CID_ASSOCIATIONS>
117605431  1
86273149  2
117605150  2

> <PUBCHEM_COORDINATE_TYPE>
1
3

$$$$
