310937560
  -OEChem-07211613022D

 32 32  0     0  0  0  0  0  0999 V2000
    2.1420    0.0000    0.0000 O   0  0  0  0  0  0  0  0  0  0  0  0
    9.2820   -0.9019    0.0000 O   0  0  0  0  0  0  0  0  0  0  0  0
    9.9584   -2.9311    0.0000 O   0  0  0  0  0  0  0  0  0  0  0  0
    8.5680   -2.9311    0.0000 O   0  0  0  0  0  0  0  0  0  0  0  0
    8.4553   -0.3006    0.0000 O   0  0  0  0  0  0  0  0  0  0  0  0
   10.0712   -0.3006    0.0000 O   0  0  0  0  0  0  0  0  0  0  0  0
    7.2151   -1.0146    0.0000 O   0  0  0  0  0  0  0  0  0  0  0  0
   11.2737   -1.0146    0.0000 O   0  0  0  0  0  0  0  0  0  0  0  0
    4.5094   -1.2401    0.0000 N   0  0  0  0  0  0  0  0  0  0  0  0
    4.9229   -2.5178    0.0000 N   0  0  0  0  0  0  0  0  0  0  0  0
    1.4280   -1.2025    0.0000 C   0  0  0  0  0  0  0  0  0  0  0  0
    2.1420   -0.7891    0.0000 C   0  0  0  0  0  0  0  0  0  0  0  0
    2.8560   -2.0293    0.0000 C   0  0  0  0  0  0  0  0  0  0  0  0
    2.8560   -1.2025    0.0000 C   0  0  0  0  0  0  0  0  0  0  0  0
    2.1420   -2.4426    0.0000 C   0  0  0  0  0  0  0  0  0  0  0  0
    0.7140   -0.7891    0.0000 C   0  0  0  0  0  0  0  0  0  0  0  0
    1.4280   -2.0293    0.0000 C   0  0  0  0  0  0  0  0  0  0  0  0
    9.2444   -1.7286    0.0000 C   0  0  0  0  0  0  0  0  0  0  0  0
    3.5324   -2.4426    0.0000 C   0  0  0  0  0  0  0  0  0  0  0  0
    4.2840   -2.0293    0.0000 C   0  0  0  0  0  0  0  0  0  0  0  0
    9.2444   -2.5178    0.0000 C   0  0  0  0  0  0  0  0  0  0  0  0
    3.5324   -0.7891    0.0000 C   0  0  0  0  0  0  0  0  0  0  0  0
   10.0712   -1.7286    0.0000 C   0  0  0  0  0  0  0  0  0  0  0  0
    8.4553   -1.7286    0.0000 C   0  0  0  0  0  0  0  0  0  0  0  0
    2.1420   -3.2318    0.0000 C   0  0  0  0  0  0  0  0  0  0  0  0
    0.3006   -1.5031    0.0000 C   0  0  0  0  0  0  0  0  0  0  0  0
    1.1274   -0.0752    0.0000 C   0  0  0  0  0  0  0  0  0  0  0  0
    0.0000   -0.3758    0.0000 C   0  0  0  0  0  0  0  0  0  0  0  0
    8.0419   -1.0146    0.0000 C   0  0  0  0  0  0  0  0  0  0  0  0
   10.4845   -1.0146    0.0000 C   0  0  0  0  0  0  0  0  0  0  0  0
    5.3362   -1.2401    0.0000 C   0  0  0  0  0  0  0  0  0  0  0  0
    5.5993   -2.0293    0.0000 C   0  0  0  0  0  0  0  0  0  0  0  0
  1 12  1  0  0  0  0
  2 18  1  0  0  0  0
  3 21  2  0  0  0  0
  4 21  1  0  0  0  0
  5 29  2  0  0  0  0
  6 30  2  0  0  0  0
  7 29  1  0  0  0  0
  8 30  1  0  0  0  0
  9 20  2  0  0  0  0
  9 31  1  0  0  0  0
 10 20  1  0  0  0  0
 10 32  1  0  0  0  0
 11 12  2  0  0  0  0
 11 16  1  0  0  0  0
 11 17  1  0  0  0  0
 12 14  1  0  0  0  0
 13 14  2  0  0  0  0
 13 15  1  0  0  0  0
 13 19  1  0  0  0  0
 14 22  1  0  0  0  0
 15 17  2  0  0  0  0
 15 25  1  0  0  0  0
 16 26  1  0  0  0  0
 16 27  1  0  0  0  0
 16 28  1  0  0  0  0
 18 21  1  0  0  0  0
 18 23  1  0  0  0  0
 18 24  1  0  0  0  0
 19 20  1  0  0  0  0
 23 30  1  0  0  0  0
 24 29  1  0  0  0  0
 31 32  1  0  0  0  0
M  END
> <PUBCHEM_COMPOUND_ID_TYPE>
0

> <PUBCHEM_TOTAL_CHARGE>
0

> <PUBCHEM_SUBSTANCE_ID>
310937560

> <PUBCHEM_SUBSTANCE_VERSION>
1

> <PUBCHEM_EXT_DATASOURCE_NAME>
4488

> <PUBCHEM_EXT_DATASOURCE_REGID>
SCHEMBL16115337

> <PUBCHEM_SUBSTANCE_COMMENT>
InChI=1S/C16H24N2O.C6H8O7/c1-10-8-13(16(3,4)5)15(19)11(2)12(10)9-14-17-6-7-18-14;7-3(8)1-6(13,5(11)12)2-4(9)10/h8,19H,6-7,9H2,1-5H3,(H,17,18);13H,1-2H2,(H,7,8)(H,9,10)(H,11,12)
InChIKey=BEMLQFVCRMMSGP-UHFFFAOYSA-N

> <PUBCHEM_SUBSTANCE_SYNONYM>
SCHEMBL16115337

> <PUBCHEM_XREF_EXT_ID>
SCHEMBL16115337

> <PUBCHEM_EXT_DATASOURCE_URL>
https://www.surechembl.org/

> <PUBCHEM_EXT_SUBSTANCE_URL>
https://www.surechembl.org/chemical/SCHEMBL16115337

> <PUBCHEM_CID_ASSOCIATIONS>
85471470  1
311  2
4636  2

> <PUBCHEM_COORDINATE_TYPE>
1
3

$$$$
