310929808
  -OEChem-07211613022D

 31 32  0     1  0  0  0  0  0999 V2000
    0.0000   -3.7577    0.0000 Cl  0  0  0  0  0  0  0  0  0  0  0  0
    1.6534   -3.7577    0.0000 Cl  0  0  0  0  0  0  0  0  0  0  0  0
    9.0936   -3.7577    0.0000 O   0  0  0  0  0  0  0  0  0  0  0  0
    9.0936   -7.1020    0.0000 O   0  0  0  0  0  0  0  0  0  0  0  0
    5.4862   -0.8267    0.0000 O   0  0  0  0  0  0  0  0  0  0  0  0
    6.9517   -4.9977    0.0000 N   0  0  0  0  0  0  0  0  0  0  0  0
    3.3443   -2.0667    0.0000 N   0  0  0  0  0  0  0  0  0  0  0  0
    8.3796   -4.9977    0.0000 C   0  0  0  0  0  0  0  0  0  0  0  0
    8.3796   -5.8620    0.0000 C   0  0  0  0  0  0  0  0  0  0  0  0
    7.6657   -4.5844    0.0000 C   0  0  3  0  0  0  0  0  0  0  0  0
    9.0936   -4.5844    0.0000 C   0  0  0  0  0  0  0  0  0  0  0  0
    9.0936   -6.2753    0.0000 C   0  0  0  0  0  0  0  0  0  0  0  0
    7.6657   -6.2753    0.0000 C   0  0  0  0  0  0  0  0  0  0  0  0
    7.6657   -3.7577    0.0000 C   0  0  0  0  0  0  0  0  0  0  0  0
    9.8075   -4.9977    0.0000 C   0  0  0  0  0  0  0  0  0  0  0  0
    9.8075   -5.8620    0.0000 C   0  0  0  0  0  0  0  0  0  0  0  0
    6.9517   -3.3443    0.0000 C   0  0  0  0  0  0  0  0  0  0  0  0
    6.9517   -5.8620    0.0000 C   0  0  0  0  0  0  0  0  0  0  0  0
    5.5238   -2.5177    0.0000 C   0  0  0  0  0  0  0  0  0  0  0  0
    4.8098   -2.1043    0.0000 C   0  0  0  0  0  0  0  0  0  0  0  0
    6.9517   -2.5177    0.0000 C   0  0  0  0  0  0  0  0  0  0  0  0
    6.2377   -3.7577    0.0000 C   0  0  0  0  0  0  0  0  0  0  0  0
    4.7722   -1.2400    0.0000 C   0  0  0  0  0  0  0  0  0  0  0  0
    6.2377   -2.1043    0.0000 C   0  0  0  0  0  0  0  0  0  0  0  0
    5.5238   -3.3443    0.0000 C   0  0  0  0  0  0  0  0  0  0  0  0
    4.0583   -2.4801    0.0000 C   0  0  0  0  0  0  0  0  0  0  0  0
    4.0583   -0.8267    0.0000 C   0  0  0  0  0  0  0  0  0  0  0  0
    8.3796   -3.3443    0.0000 C   0  0  0  0  0  0  0  0  0  0  0  0
    3.3443   -1.2400    0.0000 C   0  0  0  0  0  0  0  0  0  0  0  0
    9.8075   -7.5154    0.0000 C   0  0  0  0  0  0  0  0  0  0  0  0
    5.4862    0.0000    0.0000 C   0  0  0  0  0  0  0  0  0  0  0  0
  3 11  1  0  0  0  0
  3 28  1  0  0  0  0
  4 12  1  0  0  0  0
  4 30  1  0  0  0  0
  5 23  1  0  0  0  0
  5 31  1  0  0  0  0
  6 10  1  0  0  0  0
  6 18  1  0  0  0  0
  7 26  1  0  0  0  0
  7 29  2  0  0  0  0
  8  9  2  0  0  0  0
  8 10  1  0  0  0  0
  8 11  1  0  0  0  0
  9 12  1  0  0  0  0
  9 13  1  0  0  0  0
 10 14  1  0  0  0  0
 11 15  2  0  0  0  0
 12 16  2  0  0  0  0
 13 18  1  0  0  0  0
 14 17  1  0  0  0  0
 15 16  1  0  0  0  0
 17 21  2  0  0  0  0
 17 22  1  0  0  0  0
 19 20  1  0  0  0  0
 19 24  2  0  0  0  0
 19 25  1  0  0  0  0
 20 23  1  0  0  0  0
 20 26  2  0  0  0  0
 21 24  1  0  0  0  0
 22 25  2  0  0  0  0
 23 27  2  0  0  0  0
 27 29  1  0  0  0  0
M  END
> <PUBCHEM_COMPOUND_ID_TYPE>
0

> <PUBCHEM_TOTAL_CHARGE>
0

> <PUBCHEM_SUBSTANCE_ID>
310929808

> <PUBCHEM_SUBSTANCE_VERSION>
1

> <PUBCHEM_EXT_DATASOURCE_NAME>
4488

> <PUBCHEM_EXT_DATASOURCE_REGID>
SCHEMBL16107011

> <PUBCHEM_SUBSTANCE_COMMENT>
InChI=1S/C24H26N2O3.2ClH/c1-27-21-8-9-23(29-3)24-18(21)10-13-26-20(24)14-16-4-6-17(7-5-16)19-15-25-12-11-22(19)28-2;;/h4-9,11-12,15,20,26H,10,13-14H2,1-3H3;2*1H
InChIKey=NCBOQFWBJXTFKK-UHFFFAOYSA-N

> <PUBCHEM_SUBSTANCE_SYNONYM>
SCHEMBL16107011

> <PUBCHEM_XREF_EXT_ID>
SCHEMBL16107011

> <PUBCHEM_EXT_DATASOURCE_URL>
https://www.surechembl.org/

> <PUBCHEM_EXT_SUBSTANCE_URL>
https://www.surechembl.org/chemical/SCHEMBL16107011

> <PUBCHEM_CID_ASSOCIATIONS>
85470917  1
313  2
85470918  2

> <PUBCHEM_COORDINATE_TYPE>
1
3

$$$$
