310931911
  -OEChem-07211613022D

 18 16  0     0  0  0  0  0  0999 V2000
    4.0933   -2.1490    0.0000 F   0  0  0  0  0  0  0  0  0  0  0  0
    4.4822   -0.0205    0.0000 F   0  0  0  0  0  0  0  0  0  0  0  0
    5.3009    0.0000    0.0000 F   0  0  0  0  0  0  0  0  0  0  0  0
    3.2952   -2.1695    0.0000 F   0  0  0  0  0  0  0  0  0  0  0  0
    3.2542   -0.7368    0.0000 F   0  0  0  0  0  0  0  0  0  0  0  0
    2.8653   -1.4736    0.0000 F   0  0  0  0  0  0  0  0  0  0  0  0
    4.5232   -2.8653    0.0000 F   0  0  0  0  0  0  0  0  0  0  0  0
    5.7512   -2.1286    0.0000 F   0  0  0  0  0  0  0  0  0  0  0  0
    5.3418   -2.8653    0.0000 F   0  0  0  0  0  0  0  0  0  0  0  0
    5.7307   -0.7164    0.0000 O   0  0  0  0  0  0  0  0  0  0  0  0
    0.8187   -1.7806    0.0000 O   0  0  0  0  0  0  0  0  0  0  0  0
    4.5027   -1.4327    0.0000 C   0  0  0  0  0  0  0  0  0  0  0  0
    4.9120   -0.7164    0.0000 C   0  0  0  0  0  0  0  0  0  0  0  0
    3.6840   -1.4531    0.0000 C   0  0  0  0  0  0  0  0  0  0  0  0
    4.9120   -2.1490    0.0000 C   0  0  0  0  0  0  0  0  0  0  0  0
    6.1400    0.0000    0.0000 C   0  0  0  0  0  0  0  0  0  0  0  0
    0.0000   -1.8011    0.0000 C   0  0  0  0  0  0  0  0  0  0  0  0
    1.2075   -1.0643    0.0000 C   0  0  0  0  0  0  0  0  0  0  0  0
  1 12  1  0  0  0  0
  2 13  1  0  0  0  0
  3 13  1  0  0  0  0
  4 14  1  0  0  0  0
  5 14  1  0  0  0  0
  6 14  1  0  0  0  0
  7 15  1  0  0  0  0
  8 15  1  0  0  0  0
  9 15  1  0  0  0  0
 10 13  1  0  0  0  0
 10 16  1  0  0  0  0
 11 17  1  0  0  0  0
 11 18  1  0  0  0  0
 12 13  1  0  0  0  0
 12 14  1  0  0  0  0
 12 15  1  0  0  0  0
M  END
> <PUBCHEM_COMPOUND_ID_TYPE>
0

> <PUBCHEM_TOTAL_CHARGE>
0

> <PUBCHEM_SUBSTANCE_ID>
310931911

> <PUBCHEM_SUBSTANCE_VERSION>
1

> <PUBCHEM_EXT_DATASOURCE_NAME>
4488

> <PUBCHEM_EXT_DATASOURCE_REGID>
SCHEMBL16109246

> <PUBCHEM_SUBSTANCE_COMMENT>
InChI=1S/C5H3F9O.C2H6O/c1-15-5(13,14)2(6,3(7,8)9)4(10,11)12;1-3-2/h1H3;1-2H3
InChIKey=JGWAZRFXHWMEKR-UHFFFAOYSA-N

> <PUBCHEM_SUBSTANCE_SYNONYM>
SCHEMBL16109246

> <PUBCHEM_XREF_EXT_ID>
SCHEMBL16109246

> <PUBCHEM_EXT_DATASOURCE_URL>
https://www.surechembl.org/

> <PUBCHEM_EXT_SUBSTANCE_URL>
https://www.surechembl.org/chemical/SCHEMBL16109246

> <PUBCHEM_CID_ASSOCIATIONS>
117600564  1
8254  2
4156734  2

> <PUBCHEM_COORDINATE_TYPE>
1
3

$$$$
