310935991
  -OEChem-07211613022D

 17 17  0     0  0  0  0  0  0999 V2000
    3.5504   -1.3406    0.0000 O   0  0  0  0  0  0  0  0  0  0  0  0
    2.1214   -1.3406    0.0000 O   0  0  0  0  0  0  0  0  0  0  0  0
    2.1214    0.3094    0.0000 N   0  0  0  0  0  0  0  0  0  0  0  0
    4.9793    0.3094    0.0000 N   0  0  0  0  0  0  0  0  0  0  0  0
    4.2648   -0.9281    0.0000 N   0  0  0  0  0  0  0  0  0  0  0  0
    3.5504    0.3094    0.0000 C   0  0  0  0  0  0  0  0  0  0  0  0
    2.8359   -0.1031    0.0000 C   0  0  0  0  0  0  0  0  0  0  0  0
    4.2648   -0.1031    0.0000 C   0  0  0  0  0  0  0  0  0  0  0  0
    3.5504    1.1344    0.0000 C   0  0  0  0  0  0  0  0  0  0  0  0
    2.8359   -0.9281    0.0000 C   0  0  0  0  0  0  0  0  0  0  0  0
    2.8359    1.5469    0.0000 C   0  0  0  0  0  0  0  0  0  0  0  0
    2.1214    1.1344    0.0000 C   0  0  0  0  0  0  0  0  0  0  0  0
    5.6938   -0.1031    0.0000 C   0  0  0  0  0  0  0  0  0  0  0  0
    4.9793   -1.3406    0.0000 C   0  0  0  0  0  0  0  0  0  0  0  0
    5.6938   -0.9281    0.0000 C   0  0  0  0  0  0  0  0  0  0  0  0
    2.8359    2.3719    0.0000 C   0  0  0  0  0  0  0  0  0  0  0  0
    0.0000    0.0000    0.0000 Li  0  4  0  0  0  0  0  0  0  0  0  0
  1 10  2  0  0  0  0
  2 10  1  0  0  0  0
  3  7  1  0  0  0  0
  3 12  2  0  0  0  0
  4  8  2  0  0  0  0
  4 13  1  0  0  0  0
  5  8  1  0  0  0  0
  5 14  2  0  0  0  0
  6  7  2  0  0  0  0
  6  8  1  0  0  0  0
  6  9  1  0  0  0  0
  7 10  1  0  0  0  0
  9 11  2  0  0  0  0
 11 12  1  0  0  0  0
 11 16  1  0  0  0  0
 13 15  2  0  0  0  0
 14 15  1  0  0  0  0
M  RAD  1  17   2
M  END
> <PUBCHEM_COMPOUND_ID_TYPE>
0

> <PUBCHEM_TOTAL_CHARGE>
0

> <PUBCHEM_SUBSTANCE_ID>
310935991

> <PUBCHEM_SUBSTANCE_VERSION>
1

> <PUBCHEM_EXT_DATASOURCE_NAME>
4488

> <PUBCHEM_EXT_DATASOURCE_REGID>
SCHEMBL16113592

> <PUBCHEM_SUBSTANCE_COMMENT>
InChI=1S/C11H9N3O2.Li/c1-7-5-8(9(11(15)16)14-6-7)10-12-3-2-4-13-10;/h2-6H,1H3,(H,15,16);
InChIKey=UBRVAWSGFIWJMQ-UHFFFAOYSA-N

> <PUBCHEM_SUBSTANCE_SYNONYM>
SCHEMBL16113592

> <PUBCHEM_XREF_EXT_ID>
SCHEMBL16113592

> <PUBCHEM_EXT_DATASOURCE_URL>
https://www.surechembl.org/

> <PUBCHEM_EXT_SUBSTANCE_URL>
https://www.surechembl.org/chemical/SCHEMBL16113592

> <PUBCHEM_CID_ASSOCIATIONS>
117603965  1
3028194  2
90404883  2

> <PUBCHEM_COORDINATE_TYPE>
1
3

$$$$
