310937311
  -OEChem-07211613022D

 13 12  0     0  0  0  0  0  0999 V2000
    2.3399   -3.6848    0.0000 Cl  0  0  0  0  0  0  0  0  0  0  0  0
    4.8456   -1.8425    0.0000 Cl  0  0  0  0  0  0  0  0  0  0  0  0
    0.7185    0.0000    0.0000 F   0  0  0  0  0  0  0  0  0  0  0  0
    0.0000   -1.2344    0.0000 F   0  0  0  0  0  0  0  0  0  0  0  0
    1.4371   -0.4238    0.0000 F   0  0  0  0  0  0  0  0  0  0  0  0
    1.1239   -2.9663    0.0000 N   0  0  0  0  0  0  0  0  0  0  0  0
    1.1239   -1.5476    0.0000 C   0  0  0  0  0  0  0  0  0  0  0  0
    0.7185   -0.8291    0.0000 C   0  0  0  0  0  0  0  0  0  0  0  0
    1.9345   -1.5476    0.0000 C   0  0  0  0  0  0  0  0  0  0  0  0
    2.3583   -2.2478    0.0000 C   0  0  0  0  0  0  0  0  0  0  0  0
    0.6817   -2.2478    0.0000 C   0  0  0  0  0  0  0  0  0  0  0  0
    1.9345   -2.9663    0.0000 C   0  0  0  0  0  0  0  0  0  0  0  0
    3.1874   -2.2478    0.0000 C   0  0  0  0  0  0  0  0  0  0  0  0
  1 12  1  0  0  0  0
  3  8  1  0  0  0  0
  4  8  1  0  0  0  0
  5  8  1  0  0  0  0
  6 11  2  0  0  0  0
  6 12  1  0  0  0  0
  7  8  1  0  0  0  0
  7  9  2  0  0  0  0
  7 11  1  0  0  0  0
  9 10  1  0  0  0  0
 10 12  2  0  0  0  0
 10 13  1  0  0  0  0
M  END
> <PUBCHEM_COMPOUND_ID_TYPE>
0

> <PUBCHEM_TOTAL_CHARGE>
0

> <PUBCHEM_SUBSTANCE_ID>
310937311

> <PUBCHEM_SUBSTANCE_VERSION>
1

> <PUBCHEM_EXT_DATASOURCE_NAME>
4488

> <PUBCHEM_EXT_DATASOURCE_REGID>
SCHEMBL16115059

> <PUBCHEM_SUBSTANCE_COMMENT>
InChI=1S/C7H5ClF3N.ClH/c1-4-2-5(7(9,10)11)3-12-6(4)8;/h2-3H,1H3;1H
InChIKey=PZPNAOASYUOESX-UHFFFAOYSA-N

> <PUBCHEM_SUBSTANCE_SYNONYM>
SCHEMBL16115059

> <PUBCHEM_XREF_EXT_ID>
SCHEMBL16115059

> <PUBCHEM_EXT_DATASOURCE_URL>
https://www.surechembl.org/

> <PUBCHEM_EXT_SUBSTANCE_URL>
https://www.surechembl.org/chemical/SCHEMBL16115059

> <PUBCHEM_CID_ASSOCIATIONS>
117605094  1
313  2
22618233  2

> <PUBCHEM_COORDINATE_TYPE>
1
3

$$$$
