310937369
  -OEChem-07211613022D

 14 14  0     0  0  0  0  0  0999 V2000
    0.0000    1.4143    0.0000 Cl  0  0  0  0  0  0  0  0  0  0  0  0
    3.4325    1.4143    0.0000 Cl  0  0  0  0  0  0  0  0  0  0  0  0
   -0.7145    0.1768    0.0000 N   0  0  0  0  0  0  0  0  0  0  0  0
    2.7180    0.1768    0.0000 N   0  0  0  0  0  0  0  0  0  0  0  0
   -0.7145   -0.6482    0.0000 N   0  0  0  0  0  0  0  0  0  0  0  0
    2.7180   -0.6482    0.0000 N   0  0  0  0  0  0  0  0  0  0  0  0
   -0.0000   -1.0607    0.0000 N   0  0  0  0  0  0  0  0  0  0  0  0
    3.4325   -1.0607    0.0000 N   0  0  0  0  0  0  0  0  0  0  0  0
    0.0000    0.5893    0.0000 C   0  0  0  0  0  0  0  0  0  0  0  0
    3.4325    0.5893    0.0000 C   0  0  0  0  0  0  0  0  0  0  0  0
    0.7145    0.1768    0.0000 C   0  0  0  0  0  0  0  0  0  0  0  0
    4.1470    0.1768    0.0000 C   0  0  0  0  0  0  0  0  0  0  0  0
    0.7145   -0.6482    0.0000 C   0  0  0  0  0  0  0  0  0  0  0  0
    4.1470   -0.6482    0.0000 C   0  0  0  0  0  0  0  0  0  0  0  0
  1  9  1  0  0  0  0
  2 10  1  0  0  0  0
  3  5  1  0  0  0  0
  3  9  2  0  0  0  0
  4  6  1  0  0  0  0
  4 10  2  0  0  0  0
  5  7  2  0  0  0  0
  6  8  2  0  0  0  0
  7 13  1  0  0  0  0
  8 14  1  0  0  0  0
  9 11  1  0  0  0  0
 10 12  1  0  0  0  0
 11 13  2  0  0  0  0
 12 14  2  0  0  0  0
M  END
> <PUBCHEM_COMPOUND_ID_TYPE>
0

> <PUBCHEM_TOTAL_CHARGE>
0

> <PUBCHEM_SUBSTANCE_ID>
310937369

> <PUBCHEM_SUBSTANCE_VERSION>
1

> <PUBCHEM_EXT_DATASOURCE_NAME>
4488

> <PUBCHEM_EXT_DATASOURCE_REGID>
SCHEMBL16115125

> <PUBCHEM_SUBSTANCE_COMMENT>
InChI=1S/2C3H2ClN3/c2*4-3-1-2-5-7-6-3/h2*1-2H
InChIKey=ZKAMWLVVAXYNCN-UHFFFAOYSA-N

> <PUBCHEM_SUBSTANCE_SYNONYM>
SCHEMBL16115125

> <PUBCHEM_XREF_EXT_ID>
SCHEMBL16115125

> <PUBCHEM_EXT_DATASOURCE_URL>
https://www.surechembl.org/

> <PUBCHEM_EXT_SUBSTANCE_URL>
https://www.surechembl.org/chemical/SCHEMBL16115125

> <PUBCHEM_CID_ASSOCIATIONS>
117605140  1
18318800  2

> <PUBCHEM_COORDINATE_TYPE>
1
3

$$$$
