310930125
  -OEChem-07211613022D

 21 21  0     1  0  0  0  0  0999 V2000
    0.0000    0.0000    0.0000 Cl  0  5  0  0  0  0  0  0  0  0  0  0
    0.1740   -4.7521    0.0000 O   0  0  0  0  0  0  0  0  0  0  0  0
   -0.8809   -1.8711    0.0000 O   0  0  0  0  0  0  0  0  0  0  0  0
   -3.3559   -3.3000    0.0000 O   0  0  0  0  0  0  0  0  0  0  0  0
   -0.0559   -3.3000    0.0000 N   0  0  0  0  0  0  0  0  0  0  0  0
   -2.1184   -2.5855    0.0000 N   0  0  0  0  0  0  0  0  0  0  0  0
    1.9281   -1.6500    0.0000 N   0  0  0  0  0  0  0  0  0  0  0  0
    1.1196    0.0000    0.0000 N   0  3  0  0  0  0  0  0  0  0  0  0
    1.2136   -3.7125    0.0000 C   0  0  0  0  0  0  0  0  0  0  0  0
    0.4290   -3.9674    0.0000 C   0  0  0  0  0  0  0  0  0  0  0  0
    1.2136   -2.8875    0.0000 C   0  0  0  0  0  0  0  0  0  0  0  0
   -0.8809   -3.3000    0.0000 C   0  0  3  0  0  0  0  0  0  0  0  0
    0.4290   -2.6326    0.0000 C   0  0  0  0  0  0  0  0  0  0  0  0
    1.9281   -2.4750    0.0000 C   0  0  0  0  0  0  0  0  0  0  0  0
   -1.2934   -2.5855    0.0000 C   0  0  0  0  0  0  0  0  0  0  0  0
    1.9281   -4.1250    0.0000 C   0  0  0  0  0  0  0  0  0  0  0  0
   -1.2934   -4.0145    0.0000 C   0  0  0  0  0  0  0  0  0  0  0  0
    2.6425   -2.8875    0.0000 C   0  0  0  0  0  0  0  0  0  0  0  0
   -2.5309   -3.3000    0.0000 C   0  0  0  0  0  0  0  0  0  0  0  0
    2.6425   -3.7125    0.0000 C   0  0  0  0  0  0  0  0  0  0  0  0
   -2.1184   -4.0145    0.0000 C   0  0  0  0  0  0  0  0  0  0  0  0
  2 10  2  0  0  0  0
  3 15  2  0  0  0  0
  4 19  2  0  0  0  0
  5 10  1  0  0  0  0
  5 12  1  0  0  0  0
  5 13  1  0  0  0  0
  6 15  1  0  0  0  0
  6 19  1  0  0  0  0
  7 14  1  0  0  0  0
  9 10  1  0  0  0  0
  9 11  1  0  0  0  0
  9 16  2  0  0  0  0
 11 13  1  0  0  0  0
 11 14  2  0  0  0  0
 12 15  1  0  0  0  0
 12 17  1  0  0  0  0
 14 18  1  0  0  0  0
 16 20  1  0  0  0  0
 17 21  1  0  0  0  0
 18 20  2  0  0  0  0
 19 21  1  0  0  0  0
M  CHG  2   1  -1   8   1
M  END
> <PUBCHEM_COMPOUND_ID_TYPE>
0

> <PUBCHEM_TOTAL_CHARGE>
0

> <PUBCHEM_SUBSTANCE_ID>
310930125

> <PUBCHEM_SUBSTANCE_VERSION>
1

> <PUBCHEM_EXT_DATASOURCE_NAME>
4488

> <PUBCHEM_EXT_DATASOURCE_REGID>
SCHEMBL16107378

> <PUBCHEM_SUBSTANCE_COMMENT>
InChI=1S/C13H13N3O3.ClH.H3N/c14-9-3-1-2-7-8(9)6-16(13(7)19)10-4-5-11(17)15-12(10)18;;/h1-3,10H,4-6,14H2,(H,15,17,18);1H;1H3
InChIKey=LXTCNXYAIGZCLO-UHFFFAOYSA-N

> <PUBCHEM_SUBSTANCE_SYNONYM>
SCHEMBL16107378

> <PUBCHEM_XREF_EXT_ID>
SCHEMBL16107378

> <PUBCHEM_EXT_DATASOURCE_URL>
https://www.surechembl.org/

> <PUBCHEM_EXT_SUBSTANCE_URL>
https://www.surechembl.org/chemical/SCHEMBL16107378

> <PUBCHEM_CID_ASSOCIATIONS>
117599354  1
222  2
313  2
216326  2

> <PUBCHEM_COORDINATE_TYPE>
1
3

$$$$
