310935696
  -OEChem-07211613022D

 21 20  0     1  0  0  0  0  0999 V2000
   -1.1816   -0.4604    0.0000 O   0  0  0  0  0  0  0  0  0  0  0  0
   -0.9901   -1.1748    0.0000 O   0  0  0  0  0  0  0  0  0  0  0  0
    4.5122    1.4208    0.0000 O   0  0  0  0  0  0  0  0  0  0  0  0
    3.0833    1.4208    0.0000 O   0  0  0  0  0  0  0  0  0  0  0  0
    0.2474   -0.4604    0.0000 C   0  0  0  0  0  0  0  0  0  0  0  0
   -0.1651   -1.1748    0.0000 C   0  0  3  0  0  0  0  0  0  0  0  0
   -0.4671   -0.0479    0.0000 C   0  0  3  0  0  0  0  0  0  0  0  0
    0.6599    0.2541    0.0000 C   0  0  0  0  0  0  0  0  0  0  0  0
    0.9618   -0.8729    0.0000 C   0  0  0  0  0  0  0  0  0  0  0  0
    3.7977    0.1833    0.0000 C   0  0  0  0  0  0  0  0  0  0  0  0
    0.2474    0.9686    0.0000 C   0  0  0  0  0  0  0  0  0  0  0  0
    0.2474   -1.8893    0.0000 C   0  0  0  0  0  0  0  0  0  0  0  0
   -0.4671    0.7771    0.0000 C   0  0  0  0  0  0  0  0  0  0  0  0
    3.7977    1.0083    0.0000 C   0  0  0  0  0  0  0  0  0  0  0  0
    4.5122   -0.2292    0.0000 C   0  0  0  0  0  0  0  0  0  0  0  0
    3.0833   -0.2292    0.0000 C   0  0  0  0  0  0  0  0  0  0  0  0
    4.5122   -1.0542    0.0000 C   0  0  0  0  0  0  0  0  0  0  0  0
    3.0833   -1.0542    0.0000 C   0  0  0  0  0  0  0  0  0  0  0  0
    3.7977   -1.4667    0.0000 C   0  0  0  0  0  0  0  0  0  0  0  0
    0.6599    1.6831    0.0000 C   0  0  0  0  0  0  0  0  0  0  0  0
    0.2474    2.3975    0.0000 C   0  0  0  0  0  0  0  0  0  0  0  0
  1  7  1  0  0  0  0
  2  6  1  0  0  0  0
  3 14  2  0  0  0  0
  4 14  1  0  0  0  0
  5  6  1  0  0  0  0
  5  7  1  0  0  0  0
  5  8  1  0  0  0  0
  5  9  1  0  0  0  0
  6 12  1  0  0  0  0
  7 13  1  0  0  0  0
  8 11  1  0  0  0  0
 10 14  1  0  0  0  0
 10 15  2  0  0  0  0
 10 16  1  0  0  0  0
 11 20  1  0  0  0  0
 15 17  1  0  0  0  0
 16 18  2  0  0  0  0
 17 19  2  0  0  0  0
 18 19  1  0  0  0  0
 20 21  1  0  0  0  0
M  END
> <PUBCHEM_COMPOUND_ID_TYPE>
0

> <PUBCHEM_TOTAL_CHARGE>
0

> <PUBCHEM_SUBSTANCE_ID>
310935696

> <PUBCHEM_SUBSTANCE_VERSION>
1

> <PUBCHEM_EXT_DATASOURCE_NAME>
4488

> <PUBCHEM_EXT_DATASOURCE_REGID>
SCHEMBL16113280

> <PUBCHEM_SUBSTANCE_COMMENT>
InChI=1S/C10H22O2.C7H6O2/c1-5-6-7-10(4,8(2)11)9(3)12;8-7(9)6-4-2-1-3-5-6/h8-9,11-12H,5-7H2,1-4H3;1-5H,(H,8,9)
InChIKey=AYUREACHMXVBML-UHFFFAOYSA-N

> <PUBCHEM_SUBSTANCE_SYNONYM>
SCHEMBL16113280

> <PUBCHEM_XREF_EXT_ID>
SCHEMBL16113280

> <PUBCHEM_EXT_DATASOURCE_URL>
https://www.surechembl.org/

> <PUBCHEM_EXT_SUBSTANCE_URL>
https://www.surechembl.org/chemical/SCHEMBL16113280

> <PUBCHEM_CID_ASSOCIATIONS>
117603704  1
243  2
66896627  2

> <PUBCHEM_COORDINATE_TYPE>
1
3

$$$$
