310931227
  -OEChem-07211613022D

 14 13  0     0  0  0  0  0  0999 V2000
    3.3352   -2.1379    0.0000 S   0  5  0  0  0  0  0  0  0  0  0  0
    0.4490   -2.8435    0.0000 N   0  3  0  0  0  0  0  0  0  0  0  0
    4.9814   -2.1379    0.0000 N   0  0  0  0  0  0  0  0  0  0  0  0
    1.2614   -1.4324    0.0000 C   0  0  0  0  0  0  0  0  0  0  0  0
    0.0000   -2.1379    0.0000 C   0  0  0  0  0  0  0  0  0  0  0  0
    0.4490   -1.4324    0.0000 C   0  0  0  0  0  0  0  0  0  0  0  0
    1.2614   -2.8435    0.0000 C   0  0  0  0  0  0  0  0  0  0  0  0
    1.6890   -2.1379    0.0000 C   0  0  0  0  0  0  0  0  0  0  0  0
    1.6462   -0.7055    0.0000 C   0  0  0  0  0  0  0  0  0  0  0  0
    0.0427   -3.5704    0.0000 C   0  0  0  0  0  0  0  0  0  0  0  0
    1.2400    0.0000    0.0000 C   0  0  0  0  0  0  0  0  0  0  0  0
    0.4490   -4.2759    0.0000 C   0  0  0  0  0  0  0  0  0  0  0  0
    0.4062    0.0000    0.0000 C   0  0  0  0  0  0  0  0  0  0  0  0
    4.1476   -2.1379    0.0000 C   0  0  0  0  0  0  0  0  0  0  0  0
  1 14  1  0  0  0  0
  2  5  2  0  0  0  0
  2  7  1  0  0  0  0
  2 10  1  0  0  0  0
  3 14  3  0  0  0  0
  4  6  2  0  0  0  0
  4  8  1  0  0  0  0
  4  9  1  0  0  0  0
  5  6  1  0  0  0  0
  7  8  2  0  0  0  0
  9 11  1  0  0  0  0
 10 12  2  0  0  0  0
 11 13  2  0  0  0  0
M  CHG  2   1  -1   2   1
M  END
> <PUBCHEM_COMPOUND_ID_TYPE>
0

> <PUBCHEM_TOTAL_CHARGE>
0

> <PUBCHEM_SUBSTANCE_ID>
310931227

> <PUBCHEM_SUBSTANCE_VERSION>
1

> <PUBCHEM_EXT_DATASOURCE_NAME>
4488

> <PUBCHEM_EXT_DATASOURCE_REGID>
SCHEMBL16108536

> <PUBCHEM_SUBSTANCE_COMMENT>
InChI=1S/C10H12N.CHNS/c1-3-5-10-6-8-11(4-2)9-7-10;2-1-3/h3-4,6-9H,1-2,5H2;3H/q+1;/p-1
InChIKey=BKSDQNXLYGPMGU-UHFFFAOYSA-M

> <PUBCHEM_SUBSTANCE_SYNONYM>
SCHEMBL16108536

> <PUBCHEM_XREF_EXT_ID>
SCHEMBL16108536

> <PUBCHEM_EXT_DATASOURCE_URL>
https://www.surechembl.org/

> <PUBCHEM_EXT_SUBSTANCE_URL>
https://www.surechembl.org/chemical/SCHEMBL16108536

> <PUBCHEM_CID_ASSOCIATIONS>
117600069  1
781  2
70223843  2

> <PUBCHEM_COORDINATE_TYPE>
1
3

$$$$
