310929937
  -OEChem-07211613022D

 22 22  0     0  0  0  0  0  0999 V2000
   10.7610   -1.7218    0.0000 Cl  0  0  0  0  0  0  0  0  0  0  0  0
    3.5512   -2.4751    0.0000 O   0  0  0  0  0  0  0  0  0  0  0  0
    4.9501   -2.4751    0.0000 O   0  0  0  0  0  0  0  0  0  0  0  0
    0.0000   -1.2196    0.0000 O   0  5  0  0  0  0  0  0  0  0  0  0
    0.6816    0.0000    0.0000 O   0  0  0  0  0  0  0  0  0  0  0  0
    4.2686   -1.2196    0.0000 O   0  0  0  0  0  0  0  0  0  0  0  0
    0.6816   -0.8250    0.0000 N   0  3  0  0  0  0  0  0  0  0  0  0
    7.8197   -2.4751    0.0000 N   0  0  0  0  0  0  0  0  0  0  0  0
    2.8338   -2.0446    0.0000 C   0  0  0  0  0  0  0  0  0  0  0  0
    1.3990   -1.2196    0.0000 C   0  0  0  0  0  0  0  0  0  0  0  0
    2.1164   -2.4751    0.0000 C   0  0  0  0  0  0  0  0  0  0  0  0
    2.8338   -1.2196    0.0000 C   0  0  0  0  0  0  0  0  0  0  0  0
    1.3990   -2.0446    0.0000 C   0  0  0  0  0  0  0  0  0  0  0  0
    2.1164   -0.8250    0.0000 C   0  0  0  0  0  0  0  0  0  0  0  0
    4.2686   -2.0446    0.0000 C   0  0  0  0  0  0  0  0  0  0  0  0
    7.1023   -2.0446    0.0000 C   0  0  0  0  0  0  0  0  0  0  0  0
    5.6675   -2.0446    0.0000 C   0  0  0  0  0  0  0  0  0  0  0  0
    8.5730   -2.1164    0.0000 C   0  0  0  0  0  0  0  0  0  0  0  0
    7.8914   -3.2642    0.0000 C   0  0  0  0  0  0  0  0  0  0  0  0
    6.3849   -2.4751    0.0000 C   0  0  0  0  0  0  0  0  0  0  0  0
    9.1110   -2.7261    0.0000 C   0  0  0  0  0  0  0  0  0  0  0  0
    8.7164   -3.4435    0.0000 C   0  0  0  0  0  0  0  0  0  0  0  0
  2  9  1  0  0  0  0
  2 15  1  0  0  0  0
  3 15  1  0  0  0  0
  3 17  1  0  0  0  0
  4  7  1  0  0  0  0
  5  7  2  0  0  0  0
  6 15  2  0  0  0  0
  7 10  1  0  0  0  0
  8 16  1  0  0  0  0
  8 18  1  0  0  0  0
  8 19  1  0  0  0  0
  9 11  2  0  0  0  0
  9 12  1  0  0  0  0
 10 13  2  0  0  0  0
 10 14  1  0  0  0  0
 11 13  1  0  0  0  0
 12 14  2  0  0  0  0
 16 20  1  0  0  0  0
 17 20  1  0  0  0  0
 18 21  1  0  0  0  0
 19 22  1  0  0  0  0
 21 22  1  0  0  0  0
M  CHG  2   4  -1   7   1
M  END
> <PUBCHEM_COMPOUND_ID_TYPE>
0

> <PUBCHEM_TOTAL_CHARGE>
0

> <PUBCHEM_SUBSTANCE_ID>
310929937

> <PUBCHEM_SUBSTANCE_VERSION>
1

> <PUBCHEM_EXT_DATASOURCE_NAME>
4488

> <PUBCHEM_EXT_DATASOURCE_REGID>
SCHEMBL16107158

> <PUBCHEM_SUBSTANCE_COMMENT>
InChI=1S/C14H18N2O5.ClH/c17-14(20-11-3-10-15-8-1-2-9-15)21-13-6-4-12(5-7-13)16(18)19;/h4-7H,1-3,8-11H2;1H
InChIKey=KYTITGPDBHICHB-UHFFFAOYSA-N

> <PUBCHEM_SUBSTANCE_SYNONYM>
SCHEMBL16107158

> <PUBCHEM_XREF_EXT_ID>
SCHEMBL16107158

> <PUBCHEM_EXT_DATASOURCE_URL>
https://www.surechembl.org/

> <PUBCHEM_EXT_SUBSTANCE_URL>
https://www.surechembl.org/chemical/SCHEMBL16107158

> <PUBCHEM_CID_ASSOCIATIONS>
117599196  1
313  2
117599197  2

> <PUBCHEM_COORDINATE_TYPE>
1
3

$$$$
