310931973
  -OEChem-07211613022D

 15 14  0     0  0  0  0  0  0999 V2000
    4.1251   -1.8227    0.0000 S   0  5  0  0  0  0  0  0  0  0  0  0
    0.7866   -2.7053    0.0000 N   0  3  0  0  0  0  0  0  0  0  0  0
    0.7866   -1.3814    0.0000 N   0  0  0  0  0  0  0  0  0  0  0  0
    5.7559   -1.8227    0.0000 N   0  0  0  0  0  0  0  0  0  0  0  0
    1.2471   -2.0530    0.0000 C   0  0  0  0  0  0  0  0  0  0  0  0
    0.0000   -2.4559    0.0000 C   0  0  0  0  0  0  0  0  0  0  0  0
    0.0000   -1.6500    0.0000 C   0  0  0  0  0  0  0  0  0  0  0  0
    2.0721   -2.0530    0.0000 C   0  0  0  0  0  0  0  0  0  0  0  0
    1.0361   -3.4919    0.0000 C   0  0  0  0  0  0  0  0  0  0  0  0
    1.0361   -0.6139    0.0000 C   0  0  0  0  0  0  0  0  0  0  0  0
    2.4942   -1.3430    0.0000 C   0  0  0  0  0  0  0  0  0  0  0  0
    1.8419   -3.6454    0.0000 C   0  0  0  0  0  0  0  0  0  0  0  0
    0.4797    0.0000    0.0000 C   0  0  0  0  0  0  0  0  0  0  0  0
    2.0721   -0.6332    0.0000 C   0  0  0  0  0  0  0  0  0  0  0  0
    4.9309   -1.8227    0.0000 C   0  0  0  0  0  0  0  0  0  0  0  0
  1 15  1  0  0  0  0
  2  5  2  0  0  0  0
  2  6  1  0  0  0  0
  2  9  1  0  0  0  0
  3  5  1  0  0  0  0
  3  7  1  0  0  0  0
  3 10  1  0  0  0  0
  4 15  3  0  0  0  0
  5  8  1  0  0  0  0
  6  7  2  0  0  0  0
  8 11  1  0  0  0  0
  9 12  2  0  0  0  0
 10 13  2  0  0  0  0
 11 14  2  0  0  0  0
M  CHG  2   1  -1   2   1
M  END
> <PUBCHEM_COMPOUND_ID_TYPE>
0

> <PUBCHEM_TOTAL_CHARGE>
0

> <PUBCHEM_SUBSTANCE_ID>
310931973

> <PUBCHEM_SUBSTANCE_VERSION>
1

> <PUBCHEM_EXT_DATASOURCE_NAME>
4488

> <PUBCHEM_EXT_DATASOURCE_REGID>
SCHEMBL16109312

> <PUBCHEM_SUBSTANCE_COMMENT>
InChI=1S/C10H13N2.CHNS/c1-4-7-10-11(5-2)8-9-12(10)6-3;2-1-3/h4-6,8-9H,1-3,7H2;3H/q+1;/p-1
InChIKey=VDRORHPXDMUGQY-UHFFFAOYSA-M

> <PUBCHEM_SUBSTANCE_SYNONYM>
SCHEMBL16109312

> <PUBCHEM_XREF_EXT_ID>
SCHEMBL16109312

> <PUBCHEM_EXT_DATASOURCE_URL>
https://www.surechembl.org/

> <PUBCHEM_EXT_SUBSTANCE_URL>
https://www.surechembl.org/chemical/SCHEMBL16109312

> <PUBCHEM_CID_ASSOCIATIONS>
117600619  1
781  2
117600128  2

> <PUBCHEM_COORDINATE_TYPE>
1
3

$$$$
