310936084
  -OEChem-07211613022D

 21 22  0     1  0  0  0  0  0999 V2000
    0.0000    0.0000    0.0000 Cl  0  0  0  0  0  0  0  0  0  0  0  0
    3.3409    1.1246    0.0000 S   0  0  0  0  0  0  0  0  0  0  0  0
    5.5705    1.5417    0.0000 O   0  0  0  0  0  0  0  0  0  0  0  0
    4.1416   -0.9333    0.0000 N   0  0  0  0  0  0  0  0  0  0  0  0
    4.8561    0.3042    0.0000 C   0  0  3  0  0  0  0  0  0  0  0  0
    5.5705   -0.1083    0.0000 C   0  0  0  0  0  0  0  0  0  0  0  0
    4.1416   -0.1083    0.0000 C   0  0  3  0  0  0  0  0  0  0  0  0
    6.9995   -0.1083    0.0000 C   0  0  0  0  0  0  0  0  0  0  0  0
    3.4271    0.3042    0.0000 C   0  0  0  0  0  0  0  0  0  0  0  0
    6.9995   -0.9333    0.0000 C   0  0  0  0  0  0  0  0  0  0  0  0
    6.2850    0.3042    0.0000 C   0  0  0  0  0  0  0  0  0  0  0  0
    5.5705   -0.9333    0.0000 C   0  0  0  0  0  0  0  0  0  0  0  0
    6.2850   -1.3458    0.0000 C   0  0  0  0  0  0  0  0  0  0  0  0
    4.8561    1.1292    0.0000 C   0  0  0  0  0  0  0  0  0  0  0  0
    2.6735   -0.0314    0.0000 C   0  0  0  0  0  0  0  0  0  0  0  0
    7.7140    0.3042    0.0000 C   0  0  0  0  0  0  0  0  0  0  0  0
    7.7140   -1.3458    0.0000 C   0  0  0  0  0  0  0  0  0  0  0  0
    2.5339    1.2962    0.0000 C   0  0  0  0  0  0  0  0  0  0  0  0
    2.1214    0.5817    0.0000 C   0  0  0  0  0  0  0  0  0  0  0  0
    8.4284   -0.1083    0.0000 C   0  0  0  0  0  0  0  0  0  0  0  0
    8.4284   -0.9333    0.0000 C   0  0  0  0  0  0  0  0  0  0  0  0
  2  9  1  0  0  0  0
  2 18  1  0  0  0  0
  3 14  1  0  0  0  0
  4  7  1  0  0  0  0
  5  6  1  0  0  0  0
  5  7  1  0  0  0  0
  5 14  1  0  0  0  0
  6 11  2  0  0  0  0
  6 12  1  0  0  0  0
  7  9  1  0  0  0  0
  8 10  1  0  0  0  0
  8 11  1  0  0  0  0
  8 16  2  0  0  0  0
  9 15  2  0  0  0  0
 10 13  1  0  0  0  0
 10 17  2  0  0  0  0
 12 13  2  0  0  0  0
 15 19  1  0  0  0  0
 16 20  1  0  0  0  0
 17 21  1  0  0  0  0
 18 19  2  0  0  0  0
 20 21  2  0  0  0  0
M  END
> <PUBCHEM_COMPOUND_ID_TYPE>
0

> <PUBCHEM_TOTAL_CHARGE>
0

> <PUBCHEM_SUBSTANCE_ID>
310936084

> <PUBCHEM_SUBSTANCE_VERSION>
1

> <PUBCHEM_EXT_DATASOURCE_NAME>
4488

> <PUBCHEM_EXT_DATASOURCE_REGID>
SCHEMBL16113690

> <PUBCHEM_SUBSTANCE_COMMENT>
InChI=1S/C17H17NOS.ClH/c18-17(16-6-3-9-20-16)15(11-19)14-8-7-12-4-1-2-5-13(12)10-14;/h1-10,15,17,19H,11,18H2;1H
InChIKey=NUDBFGGUQKINFZ-UHFFFAOYSA-N

> <PUBCHEM_SUBSTANCE_SYNONYM>
SCHEMBL16113690

> <PUBCHEM_XREF_EXT_ID>
SCHEMBL16113690

> <PUBCHEM_EXT_DATASOURCE_URL>
https://www.surechembl.org/

> <PUBCHEM_EXT_SUBSTANCE_URL>
https://www.surechembl.org/chemical/SCHEMBL16113690

> <PUBCHEM_CID_ASSOCIATIONS>
117604050  1
313  2
117604051  2

> <PUBCHEM_COORDINATE_TYPE>
1
3

$$$$
