310928660
  -OEChem-07211613022D

 13 13  0     0  0  0  0  0  0999 V2000
    2.2848    0.0000    0.0000 Cl  0  0  0  0  0  0  0  0  0  0  0  0
    0.6348    0.0437    0.0000 O   0  0  0  0  0  0  0  0  0  0  0  0
   -0.4048    1.0833    0.0000 O   0  0  0  0  0  0  0  0  0  0  0  0
   -2.2848   -0.3688    0.0000 N   0  0  0  0  0  0  0  0  0  0  0  0
   -0.6348   -0.3688    0.0000 C   0  0  0  0  0  0  0  0  0  0  0  0
   -0.1498    0.2986    0.0000 C   0  0  0  0  0  0  0  0  0  0  0  0
   -0.1498   -1.0362    0.0000 C   0  0  0  0  0  0  0  0  0  0  0  0
   -1.0473   -1.0833    0.0000 C   0  0  0  0  0  0  0  0  0  0  0  0
   -1.0473    0.3457    0.0000 C   0  0  0  0  0  0  0  0  0  0  0  0
    0.6348   -0.7813    0.0000 C   0  0  0  0  0  0  0  0  0  0  0  0
   -1.8723   -1.0833    0.0000 C   0  0  0  0  0  0  0  0  0  0  0  0
   -1.8723    0.3457    0.0000 C   0  0  0  0  0  0  0  0  0  0  0  0
    1.4598    0.0000    0.0000 H   0  0  0  0  0  0  0  0  0  0  0  0
  1 13  1  0  0  0  0
  2  6  1  0  0  0  0
  2 10  1  0  0  0  0
  3  6  2  0  0  0  0
  4 11  1  0  0  0  0
  4 12  1  0  0  0  0
  5  6  1  0  0  0  0
  5  7  1  0  0  0  0
  5  8  1  0  0  0  0
  5  9  1  0  0  0  0
  7 10  1  0  0  0  0
  8 11  1  0  0  0  0
  9 12  1  0  0  0  0
M  END
> <PUBCHEM_COMPOUND_ID_TYPE>
0

> <PUBCHEM_TOTAL_CHARGE>
0

> <PUBCHEM_SUBSTANCE_ID>
310928660

> <PUBCHEM_SUBSTANCE_VERSION>
2

> <PUBCHEM_EXT_DATASOURCE_NAME>
11752

> <PUBCHEM_EXT_DATASOURCE_REGID>
BD164714

> <PUBCHEM_SUBSTANCE_SYNONYM>
2-Oxa-8-azaspiro[4.5]decan-1-one hydrochloride
4427-25-2

> <PUBCHEM_GENERIC_REGISTRY_NAME>
4427-25-2

> <PUBCHEM_XREF_EXT_ID>
BD164714

> <PUBCHEM_EXT_DATASOURCE_URL>
http://www.bidepharmatech.com/en/index.html

> <PUBCHEM_EXT_SUBSTANCE_URL>
http://www.bidepharmatech.com/en/goodsview_goodscode_BD164714.html

> <PUBCHEM_CID_ASSOCIATIONS>
55265571  1
313  2
55265572  2

> <PUBCHEM_COORDINATE_TYPE>
1
3

$$$$
