310938460
  -OEChem-07211613022D

 37 41  0     0  0  0  0  0  0999 V2000
    6.0232   -4.8102    0.0000 F   0  0  0  0  0  0  0  0  0  0  0  0
   11.1262   -1.7150    0.0000 F   0  0  0  0  0  0  0  0  0  0  0  0
   10.4151   -2.9698    0.0000 F   0  0  0  0  0  0  0  0  0  0  0  0
   10.4151   -2.1333    0.0000 F   0  0  0  0  0  0  0  0  0  0  0  0
   11.8373   -3.8064    0.0000 O   0  0  0  0  0  0  0  0  0  0  0  0
   12.5484   -2.5515    0.0000 O   0  0  0  0  0  0  0  0  0  0  0  0
    7.4035   -4.1410    0.0000 N   0  0  0  0  0  0  0  0  0  0  0  0
    5.8141   -2.6352    0.0000 N   0  0  0  0  0  0  0  0  0  0  0  0
    2.2169   -0.2091    0.0000 N   0  0  0  0  0  0  0  0  0  0  0  0
    8.2820   -3.1371    0.0000 N   0  0  0  0  0  0  0  0  0  0  0  0
    7.1526   -4.9357    0.0000 N   0  0  0  0  0  0  0  0  0  0  0  0
    4.6847   -1.7568    0.0000 N   0  0  0  0  0  0  0  0  0  0  0  0
    4.5593   -3.2208    0.0000 N   0  0  0  0  0  0  0  0  0  0  0  0
    0.0000   -1.2548    0.0000 N   0  0  0  0  0  0  0  0  0  0  0  0
    6.9853   -3.4299    0.0000 C   0  0  0  0  0  0  0  0  0  0  0  0
    6.1487   -3.3462    0.0000 C   0  0  0  0  0  0  0  0  0  0  0  0
    2.2169   -1.5058    0.0000 C   0  0  0  0  0  0  0  0  0  0  0  0
    2.7188   -0.8366    0.0000 C   0  0  0  0  0  0  0  0  0  0  0  0
    8.2401   -3.9737    0.0000 C   0  0  0  0  0  0  0  0  0  0  0  0
    1.4640   -1.2548    0.0000 C   0  0  0  0  0  0  0  0  0  0  0  0
    1.4640   -0.4183    0.0000 C   0  0  0  0  0  0  0  0  0  0  0  0
    5.6886   -4.0573    0.0000 C   0  0  0  0  0  0  0  0  0  0  0  0
    7.5290   -2.8025    0.0000 C   0  0  0  0  0  0  0  0  0  0  0  0
    5.0193   -2.5097    0.0000 C   0  0  0  0  0  0  0  0  0  0  0  0
    3.8481   -1.6731    0.0000 C   0  0  0  0  0  0  0  0  0  0  0  0
    3.5135   -0.9202    0.0000 C   0  0  0  0  0  0  0  0  0  0  0  0
    2.5933   -2.2587    0.0000 C   0  0  0  0  0  0  0  0  0  0  0  0
    8.7839   -4.5593    0.0000 C   0  0  0  0  0  0  0  0  0  0  0  0
    3.3881   -2.3423    0.0000 C   0  0  0  0  0  0  0  0  0  0  0  0
    4.8939   -3.9318    0.0000 C   0  0  0  0  0  0  0  0  0  0  0  0
    0.7111   -1.6731    0.0000 C   0  0  0  0  0  0  0  0  0  0  0  0
    0.7111    0.0000    0.0000 C   0  0  0  0  0  0  0  0  0  0  0  0
    7.6964   -5.5213    0.0000 C   0  0  0  0  0  0  0  0  0  0  0  0
    8.5329   -5.3540    0.0000 C   0  0  0  0  0  0  0  0  0  0  0  0
    0.0000   -0.4183    0.0000 C   0  0  0  0  0  0  0  0  0  0  0  0
   11.1262   -2.5515    0.0000 C   0  0  0  0  0  0  0  0  0  0  0  0
   11.8373   -2.9698    0.0000 C   0  0  0  0  0  0  0  0  0  0  0  0
  1 22  1  0  0  0  0
  2 36  1  0  0  0  0
  3 36  1  0  0  0  0
  4 36  1  0  0  0  0
  5 37  2  0  0  0  0
  6 37  1  0  0  0  0
  7 11  1  0  0  0  0
  7 15  1  0  0  0  0
  7 19  1  0  0  0  0
  8 16  2  0  0  0  0
  8 24  1  0  0  0  0
  9 18  1  0  0  0  0
  9 21  1  0  0  0  0
 10 19  2  0  0  0  0
 10 23  1  0  0  0  0
 11 33  2  0  0  0  0
 12 24  1  0  0  0  0
 12 25  1  0  0  0  0
 13 24  2  0  0  0  0
 13 30  1  0  0  0  0
 14 31  1  0  0  0  0
 14 35  1  0  0  0  0
 15 16  1  0  0  0  0
 15 23  2  0  0  0  0
 16 22  1  0  0  0  0
 17 18  2  0  0  0  0
 17 20  1  0  0  0  0
 17 27  1  0  0  0  0
 18 26  1  0  0  0  0
 19 28  1  0  0  0  0
 20 21  2  0  0  0  0
 20 31  1  0  0  0  0
 21 32  1  0  0  0  0
 22 30  2  0  0  0  0
 25 26  2  0  0  0  0
 25 29  1  0  0  0  0
 27 29  2  0  0  0  0
 28 34  2  0  0  0  0
 32 35  1  0  0  0  0
 33 34  1  0  0  0  0
 36 37  1  0  0  0  0
M  END
> <PUBCHEM_COMPOUND_ID_TYPE>
0

> <PUBCHEM_TOTAL_CHARGE>
0

> <PUBCHEM_SUBSTANCE_ID>
310938460

> <PUBCHEM_SUBSTANCE_VERSION>
1

> <PUBCHEM_EXT_DATASOURCE_NAME>
4488

> <PUBCHEM_EXT_DATASOURCE_REGID>
SCHEMBL16116361

> <PUBCHEM_SUBSTANCE_COMMENT>
InChI=1S/C21H17FN8.C2HF3O2/c22-15-10-25-21(29-20(15)18-11-24-19-2-1-6-26-30(18)19)27-12-3-4-13-14-9-23-7-5-16(14)28-17(13)8-12;3-2(4,5)1(6)7/h1-4,6,8,10-11,23,28H,5,7,9H2,(H,25,27,29);(H,6,7)
InChIKey=ZCXYSZAJTAPJJR-UHFFFAOYSA-N

> <PUBCHEM_SUBSTANCE_SYNONYM>
SCHEMBL16116361

> <PUBCHEM_XREF_EXT_ID>
SCHEMBL16116361

> <PUBCHEM_EXT_DATASOURCE_URL>
https://www.surechembl.org/

> <PUBCHEM_EXT_SUBSTANCE_URL>
https://www.surechembl.org/chemical/SCHEMBL16116361

> <PUBCHEM_CID_ASSOCIATIONS>
86301110  1
6422  2
86301111  2

> <PUBCHEM_COORDINATE_TYPE>
1
3

$$$$
