310938430
  -OEChem-07211613022D

 38 42  0     0  0  0  0  0  0999 V2000
    6.0657   -4.8269    0.0000 F   0  0  0  0  0  0  0  0  0  0  0  0
   11.3624   -1.4523    0.0000 F   0  0  0  0  0  0  0  0  0  0  0  0
   10.6363   -2.6911    0.0000 F   0  0  0  0  0  0  0  0  0  0  0  0
   10.6363   -1.8368    0.0000 F   0  0  0  0  0  0  0  0  0  0  0  0
   12.0885   -3.5027    0.0000 O   0  0  0  0  0  0  0  0  0  0  0  0
   12.8147   -2.2640    0.0000 O   0  0  0  0  0  0  0  0  0  0  0  0
    7.0054   -3.4600    0.0000 N   0  0  0  0  0  0  0  0  0  0  0  0
    8.2441   -4.0153    0.0000 N   0  0  0  0  0  0  0  0  0  0  0  0
    5.8521   -2.6484    0.0000 N   0  0  0  0  0  0  0  0  0  0  0  0
    2.2212   -0.2136    0.0000 N   0  0  0  0  0  0  0  0  0  0  0  0
    4.6987   -1.7941    0.0000 N   0  0  0  0  0  0  0  0  0  0  0  0
    4.5706   -3.2464    0.0000 N   0  0  0  0  0  0  0  0  0  0  0  0
    0.0000   -1.2815    0.0000 N   0  0  0  0  0  0  0  0  0  0  0  0
    7.5180   -2.8193    0.0000 C   0  0  0  0  0  0  0  0  0  0  0  0
    6.1938   -3.3746    0.0000 C   0  0  0  0  0  0  0  0  0  0  0  0
    8.3296   -3.1610    0.0000 C   0  0  0  0  0  0  0  0  0  0  0  0
    7.4326   -4.1861    0.0000 C   0  0  0  0  0  0  0  0  0  0  0  0
    2.2212   -1.4950    0.0000 C   0  0  0  0  0  0  0  0  0  0  0  0
    2.7338   -0.8543    0.0000 C   0  0  0  0  0  0  0  0  0  0  0  0
    1.4523   -1.2815    0.0000 C   0  0  0  0  0  0  0  0  0  0  0  0
    5.7239   -4.1007    0.0000 C   0  0  0  0  0  0  0  0  0  0  0  0
    1.4523   -0.4271    0.0000 C   0  0  0  0  0  0  0  0  0  0  0  0
    5.0404   -2.5630    0.0000 C   0  0  0  0  0  0  0  0  0  0  0  0
    7.4753   -2.0077    0.0000 C   0  0  0  0  0  0  0  0  0  0  0  0
    3.8444   -1.7086    0.0000 C   0  0  0  0  0  0  0  0  0  0  0  0
    3.5454   -0.9397    0.0000 C   0  0  0  0  0  0  0  0  0  0  0  0
    8.9703   -2.6484    0.0000 C   0  0  0  0  0  0  0  0  0  0  0  0
    2.6057   -2.2640    0.0000 C   0  0  0  0  0  0  0  0  0  0  0  0
    4.8696   -3.9726    0.0000 C   0  0  0  0  0  0  0  0  0  0  0  0
    3.3746   -2.3494    0.0000 C   0  0  0  0  0  0  0  0  0  0  0  0
    0.6834   -1.7086    0.0000 C   0  0  0  0  0  0  0  0  0  0  0  0
    8.1160   -1.5378    0.0000 C   0  0  0  0  0  0  0  0  0  0  0  0
    7.0908   -4.9550    0.0000 C   0  0  0  0  0  0  0  0  0  0  0  0
    0.6834    0.0000    0.0000 C   0  0  0  0  0  0  0  0  0  0  0  0
    8.8849   -1.8795    0.0000 C   0  0  0  0  0  0  0  0  0  0  0  0
    0.0000   -0.4271    0.0000 C   0  0  0  0  0  0  0  0  0  0  0  0
   11.3624   -2.2640    0.0000 C   0  0  0  0  0  0  0  0  0  0  0  0
   12.0885   -2.6911    0.0000 C   0  0  0  0  0  0  0  0  0  0  0  0
  1 21  1  0  0  0  0
  2 37  1  0  0  0  0
  3 37  1  0  0  0  0
  4 37  1  0  0  0  0
  5 38  2  0  0  0  0
  6 38  1  0  0  0  0
  7 14  1  0  0  0  0
  7 15  1  0  0  0  0
  7 17  1  0  0  0  0
  8 16  1  0  0  0  0
  8 17  2  0  0  0  0
  9 15  2  0  0  0  0
  9 23  1  0  0  0  0
 10 19  1  0  0  0  0
 10 22  1  0  0  0  0
 11 23  1  0  0  0  0
 11 25  1  0  0  0  0
 12 23  2  0  0  0  0
 12 29  1  0  0  0  0
 13 31  1  0  0  0  0
 13 36  1  0  0  0  0
 14 16  2  0  0  0  0
 14 24  1  0  0  0  0
 15 21  1  0  0  0  0
 16 27  1  0  0  0  0
 17 33  1  0  0  0  0
 18 19  2  0  0  0  0
 18 20  1  0  0  0  0
 18 28  1  0  0  0  0
 19 26  1  0  0  0  0
 20 22  2  0  0  0  0
 20 31  1  0  0  0  0
 21 29  2  0  0  0  0
 22 34  1  0  0  0  0
 24 32  2  0  0  0  0
 25 26  2  0  0  0  0
 25 30  1  0  0  0  0
 27 35  2  0  0  0  0
 28 30  2  0  0  0  0
 32 35  1  0  0  0  0
 34 36  1  0  0  0  0
 37 38  1  0  0  0  0
M  END
> <PUBCHEM_COMPOUND_ID_TYPE>
0

> <PUBCHEM_TOTAL_CHARGE>
0

> <PUBCHEM_SUBSTANCE_ID>
310938430

> <PUBCHEM_SUBSTANCE_VERSION>
1

> <PUBCHEM_EXT_DATASOURCE_NAME>
4488

> <PUBCHEM_EXT_DATASOURCE_REGID>
SCHEMBL16116324

> <PUBCHEM_SUBSTANCE_COMMENT>
InChI=1S/C23H20FN7.C2HF3O2/c1-13-27-19-4-2-3-5-21(19)31(13)22-17(24)12-26-23(30-22)28-14-6-7-15-16-11-25-9-8-18(16)29-20(15)10-14;3-2(4,5)1(6)7/h2-7,10,12,25,29H,8-9,11H2,1H3,(H,26,28,30);(H,6,7)
InChIKey=SQGBMXBVXGLJFA-UHFFFAOYSA-N

> <PUBCHEM_SUBSTANCE_SYNONYM>
SCHEMBL16116324

> <PUBCHEM_XREF_EXT_ID>
SCHEMBL16116324

> <PUBCHEM_EXT_DATASOURCE_URL>
https://www.surechembl.org/

> <PUBCHEM_EXT_SUBSTANCE_URL>
https://www.surechembl.org/chemical/SCHEMBL16116324

> <PUBCHEM_CID_ASSOCIATIONS>
86300672  1
6422  2
86300673  2

> <PUBCHEM_COORDINATE_TYPE>
1
3

$$$$
