310936873
  -OEChem-07211613022D

 44 46  0     1  0  0  0  0  0999 V2000
   10.2305   -4.1252    0.0000 Cl  0  0  0  0  0  0  0  0  0  0  0  0
    2.1451   -3.9189    0.0000 Cl  0  0  0  0  0  0  0  0  0  0  0  0
   11.6742   -4.9502    0.0000 Cl  0  0  0  0  0  0  0  0  0  0  0  0
    3.5889   -4.7440    0.0000 Cl  0  0  0  0  0  0  0  0  0  0  0  0
   10.9317   -0.4125    0.0000 O   0  0  0  0  0  0  0  0  0  0  0  0
    2.8464   -0.2063    0.0000 O   0  0  0  0  0  0  0  0  0  0  0  0
    7.3841   -1.6501    0.0000 O   0  5  0  0  0  0  0  0  0  0  0  0
    8.0854   -0.4125    0.0000 O   0  0  0  0  0  0  0  0  0  0  0  0
    8.0854   -1.2376    0.0000 N   0  3  0  0  0  0  0  0  0  0  0  0
   12.3756   -0.4125    0.0000 N   0  0  0  0  0  0  0  0  0  0  0  0
    4.9915   -1.4438    0.0000 N   0  0  0  0  0  0  0  0  0  0  0  0
    0.0000   -1.0313    0.0000 N   0  0  0  0  0  0  0  0  0  0  0  0
   11.6742   -1.6501    0.0000 C   0  0  3  0  0  0  0  0  0  0  0  0
   10.9317   -1.2376    0.0000 C   0  0  3  0  0  0  0  0  0  0  0  0
   11.6742   -2.4751    0.0000 C   0  0  0  0  0  0  0  0  0  0  0  0
    3.5889   -1.4438    0.0000 C   0  0  3  0  0  0  0  0  0  0  0  0
   10.2305   -1.6501    0.0000 C   0  0  0  0  0  0  0  0  0  0  0  0
    3.5889   -2.2688    0.0000 C   0  0  0  0  0  0  0  0  0  0  0  0
    2.8464   -1.0313    0.0000 C   0  0  3  0  0  0  0  0  0  0  0  0
    2.1451   -1.4438    0.0000 C   0  0  0  0  0  0  0  0  0  0  0  0
   10.9317   -2.8876    0.0000 C   0  0  0  0  0  0  0  0  0  0  0  0
   10.9317   -3.7127    0.0000 C   0  0  0  0  0  0  0  0  0  0  0  0
    9.4879   -1.2376    0.0000 C   0  0  0  0  0  0  0  0  0  0  0  0
    2.8876   -2.6813    0.0000 C   0  0  0  0  0  0  0  0  0  0  0  0
   12.3756   -2.8876    0.0000 C   0  0  0  0  0  0  0  0  0  0  0  0
    8.7866   -1.6501    0.0000 C   0  0  0  0  0  0  0  0  0  0  0  0
    2.8876   -3.5064    0.0000 C   0  0  0  0  0  0  0  0  0  0  0  0
   11.6742   -4.1252    0.0000 C   0  0  0  0  0  0  0  0  0  0  0  0
    4.2902   -2.6813    0.0000 C   0  0  0  0  0  0  0  0  0  0  0  0
   12.3756   -1.2376    0.0000 C   0  0  0  0  0  0  0  0  0  0  0  0
   10.2305   -2.4751    0.0000 C   0  0  0  0  0  0  0  0  0  0  0  0
    3.5889   -3.9189    0.0000 C   0  0  0  0  0  0  0  0  0  0  0  0
    4.2902   -1.0313    0.0000 C   0  0  0  0  0  0  0  0  0  0  0  0
   12.3756   -3.7127    0.0000 C   0  0  0  0  0  0  0  0  0  0  0  0
    1.4438   -1.0313    0.0000 C   0  0  0  0  0  0  0  0  0  0  0  0
    4.2902   -3.5064    0.0000 C   0  0  0  0  0  0  0  0  0  0  0  0
    2.1451   -2.2688    0.0000 C   0  0  0  0  0  0  0  0  0  0  0  0
    8.7866   -2.4751    0.0000 C   0  0  0  0  0  0  0  0  0  0  0  0
    9.4879   -2.8876    0.0000 C   0  0  0  0  0  0  0  0  0  0  0  0
    0.7013   -1.4438    0.0000 C   0  0  0  0  0  0  0  0  0  0  0  0
    1.4438   -2.6813    0.0000 C   0  0  0  0  0  0  0  0  0  0  0  0
    0.7013   -2.2688    0.0000 C   0  0  0  0  0  0  0  0  0  0  0  0
   11.6742    0.0000    0.0000 C   0  0  0  0  0  0  0  0  0  0  0  0
    5.7340   -1.0313    0.0000 C   0  0  0  0  0  0  0  0  0  0  0  0
  1 22  1  0  0  0  0
  2 27  1  0  0  0  0
  3 28  1  0  0  0  0
  4 32  1  0  0  0  0
  5 14  1  0  0  0  0
  6 19  1  0  0  0  0
  7  9  1  0  0  0  0
  8  9  2  0  0  0  0
  9 26  1  0  0  0  0
 10 30  1  0  0  0  0
 10 43  1  0  0  0  0
 11 33  1  0  0  0  0
 11 44  1  0  0  0  0
 12 40  1  0  0  0  0
 13 14  1  0  0  0  0
 13 15  1  0  0  0  0
 13 30  1  0  0  0  0
 14 17  1  0  0  0  0
 15 21  1  0  0  0  0
 15 25  2  0  0  0  0
 16 18  1  0  0  0  0
 16 19  1  0  0  0  0
 16 33  1  0  0  0  0
 17 23  1  0  0  0  0
 17 31  2  0  0  0  0
 18 24  1  0  0  0  0
 18 29  2  0  0  0  0
 19 20  1  0  0  0  0
 20 35  1  0  0  0  0
 20 37  2  0  0  0  0
 21 22  2  0  0  0  0
 22 28  1  0  0  0  0
 23 26  2  0  0  0  0
 24 27  2  0  0  0  0
 25 34  1  0  0  0  0
 26 38  1  0  0  0  0
 27 32  1  0  0  0  0
 28 34  2  0  0  0  0
 29 36  1  0  0  0  0
 31 39  1  0  0  0  0
 32 36  2  0  0  0  0
 35 40  2  0  0  0  0
 37 41  1  0  0  0  0
 38 39  2  0  0  0  0
 40 42  1  0  0  0  0
 41 42  2  0  0  0  0
M  CHG  2   7  -1   9   1
M  END
> <PUBCHEM_COMPOUND_ID_TYPE>
0

> <PUBCHEM_TOTAL_CHARGE>
0

> <PUBCHEM_SUBSTANCE_ID>
310936873

> <PUBCHEM_SUBSTANCE_VERSION>
1

> <PUBCHEM_EXT_DATASOURCE_NAME>
4488

> <PUBCHEM_EXT_DATASOURCE_REGID>
SCHEMBL16114567

> <PUBCHEM_SUBSTANCE_COMMENT>
InChI=1S/C16H16Cl2N2O3.C16H18Cl2N2O/c1-19-9-13(10-5-6-14(17)15(18)8-10)16(21)11-3-2-4-12(7-11)20(22)23;1-20-9-13(10-5-6-14(17)15(18)8-10)16(21)11-3-2-4-12(19)7-11/h2-8,13,16,19,21H,9H2,1H3;2-8,13,16,20-21H,9,19H2,1H3
InChIKey=UKKOXZWXJDURLB-UHFFFAOYSA-N

> <PUBCHEM_SUBSTANCE_SYNONYM>
SCHEMBL16114567

> <PUBCHEM_XREF_EXT_ID>
SCHEMBL16114567

> <PUBCHEM_EXT_DATASOURCE_URL>
https://www.surechembl.org/

> <PUBCHEM_EXT_SUBSTANCE_URL>
https://www.surechembl.org/chemical/SCHEMBL16114567

> <PUBCHEM_CID_ASSOCIATIONS>
117604764  1
86287753  2
117604765  2

> <PUBCHEM_COORDINATE_TYPE>
1
3

$$$$
