310929903
  -OEChem-07211613022D

  7  5  0     0  0  0  0  0  0999 V2000
    2.2393    0.2062    0.0000 N   0  0  0  0  0  0  0  0  0  0  0  0
    3.0643    0.2062    0.0000 C   0  0  0  0  0  0  0  0  0  0  0  0
    3.0643   -0.6188    0.0000 C   0  0  0  0  0  0  0  0  0  0  0  0
    3.0643    1.0313    0.0000 C   0  0  0  0  0  0  0  0  0  0  0  0
    3.8893    0.2062    0.0000 C   0  0  0  0  0  0  0  0  0  0  0  0
    2.3498   -1.0312    0.0000 C   0  0  0  0  0  0  0  0  0  0  0  0
    0.0000    0.0000    0.0000 C   0  0  0  0  0  0  0  0  0  0  0  0
  1  2  1  0  0  0  0
  2  3  1  0  0  0  0
  2  4  1  0  0  0  0
  2  5  1  0  0  0  0
  3  6  1  0  0  0  0
M  END
> <PUBCHEM_COMPOUND_ID_TYPE>
0

> <PUBCHEM_TOTAL_CHARGE>
0

> <PUBCHEM_SUBSTANCE_ID>
310929903

> <PUBCHEM_SUBSTANCE_VERSION>
1

> <PUBCHEM_EXT_DATASOURCE_NAME>
4488

> <PUBCHEM_EXT_DATASOURCE_REGID>
SCHEMBL16107120

> <PUBCHEM_SUBSTANCE_COMMENT>
InChI=1S/C5H13N.CH4/c1-4-5(2,3)6;/h4,6H2,1-3H3;1H4
InChIKey=JMJREXPSVTYKAB-UHFFFAOYSA-N

> <PUBCHEM_SUBSTANCE_SYNONYM>
SCHEMBL16107120

> <PUBCHEM_XREF_EXT_ID>
SCHEMBL16107120

> <PUBCHEM_EXT_DATASOURCE_URL>
https://www.surechembl.org/

> <PUBCHEM_EXT_SUBSTANCE_URL>
https://www.surechembl.org/chemical/SCHEMBL16107120

> <PUBCHEM_CID_ASSOCIATIONS>
117599164  1
297  2
68986  2

> <PUBCHEM_COORDINATE_TYPE>
1
3

$$$$
