310938192
  -OEChem-07211613022D

 37 41  0     0  0  0  0  0  0999 V2000
    6.0333   -4.8437    0.0000 F   0  0  0  0  0  0  0  0  0  0  0  0
   11.3019   -1.4021    0.0000 F   0  0  0  0  0  0  0  0  0  0  0  0
   10.5796   -2.6343    0.0000 F   0  0  0  0  0  0  0  0  0  0  0  0
   10.5796   -1.7845    0.0000 F   0  0  0  0  0  0  0  0  0  0  0  0
   12.0242   -3.4415    0.0000 O   0  0  0  0  0  0  0  0  0  0  0  0
   12.7465   -2.2094    0.0000 O   0  0  0  0  0  0  0  0  0  0  0  0
    6.9680   -3.4415    0.0000 N   0  0  0  0  0  0  0  0  0  0  0  0
    2.2094   -0.2125    0.0000 N   0  0  0  0  0  0  0  0  0  0  0  0
    5.8209   -2.6343    0.0000 N   0  0  0  0  0  0  0  0  0  0  0  0
    8.2002   -3.9939    0.0000 N   0  0  0  0  0  0  0  0  0  0  0  0
    4.6737   -1.7845    0.0000 N   0  0  0  0  0  0  0  0  0  0  0  0
    4.5037   -3.2291    0.0000 N   0  0  0  0  0  0  0  0  0  0  0  0
    0.0000   -1.2746    0.0000 N   0  0  0  0  0  0  0  0  0  0  0  0
    2.2094   -1.5296    0.0000 C   0  0  0  0  0  0  0  0  0  0  0  0
    6.1608   -3.3991    0.0000 C   0  0  0  0  0  0  0  0  0  0  0  0
    7.4779   -2.8467    0.0000 C   0  0  0  0  0  0  0  0  0  0  0  0
    2.7192   -0.8498    0.0000 C   0  0  0  0  0  0  0  0  0  0  0  0
    1.4446   -1.2746    0.0000 C   0  0  0  0  0  0  0  0  0  0  0  0
    1.4446   -0.4674    0.0000 C   0  0  0  0  0  0  0  0  0  0  0  0
    8.2852   -3.1866    0.0000 C   0  0  0  0  0  0  0  0  0  0  0  0
    5.6934   -4.0789    0.0000 C   0  0  0  0  0  0  0  0  0  0  0  0
    3.8239   -1.6995    0.0000 C   0  0  0  0  0  0  0  0  0  0  0  0
    5.0136   -2.5493    0.0000 C   0  0  0  0  0  0  0  0  0  0  0  0
    7.3930   -4.1638    0.0000 C   0  0  0  0  0  0  0  0  0  0  0  0
    3.5265   -0.9772    0.0000 C   0  0  0  0  0  0  0  0  0  0  0  0
    2.5917   -2.2944    0.0000 C   0  0  0  0  0  0  0  0  0  0  0  0
    7.4354   -1.9969    0.0000 C   0  0  0  0  0  0  0  0  0  0  0  0
    3.3566   -2.3793    0.0000 C   0  0  0  0  0  0  0  0  0  0  0  0
    0.6798   -1.6995    0.0000 C   0  0  0  0  0  0  0  0  0  0  0  0
    4.8437   -3.9939    0.0000 C   0  0  0  0  0  0  0  0  0  0  0  0
    0.6798    0.0000    0.0000 C   0  0  0  0  0  0  0  0  0  0  0  0
    8.9225   -2.6768    0.0000 C   0  0  0  0  0  0  0  0  0  0  0  0
    8.0727   -1.5296    0.0000 C   0  0  0  0  0  0  0  0  0  0  0  0
    8.8375   -1.8695    0.0000 C   0  0  0  0  0  0  0  0  0  0  0  0
    0.0000   -0.4674    0.0000 C   0  0  0  0  0  0  0  0  0  0  0  0
   11.3019   -2.2094    0.0000 C   0  0  0  0  0  0  0  0  0  0  0  0
   12.0242   -2.6343    0.0000 C   0  0  0  0  0  0  0  0  0  0  0  0
  1 21  1  0  0  0  0
  2 36  1  0  0  0  0
  3 36  1  0  0  0  0
  4 36  1  0  0  0  0
  5 37  2  0  0  0  0
  6 37  1  0  0  0  0
  7 15  1  0  0  0  0
  7 16  1  0  0  0  0
  7 24  1  0  0  0  0
  8 17  1  0  0  0  0
  8 19  1  0  0  0  0
  9 15  2  0  0  0  0
  9 23  1  0  0  0  0
 10 20  1  0  0  0  0
 10 24  2  0  0  0  0
 11 22  1  0  0  0  0
 11 23  1  0  0  0  0
 12 23  2  0  0  0  0
 12 30  1  0  0  0  0
 13 29  1  0  0  0  0
 13 35  1  0  0  0  0
 14 17  2  0  0  0  0
 14 18  1  0  0  0  0
 14 26  1  0  0  0  0
 15 21  1  0  0  0  0
 16 20  2  0  0  0  0
 16 27  1  0  0  0  0
 17 25  1  0  0  0  0
 18 19  2  0  0  0  0
 18 29  1  0  0  0  0
 19 31  1  0  0  0  0
 20 32  1  0  0  0  0
 21 30  2  0  0  0  0
 22 25  2  0  0  0  0
 22 28  1  0  0  0  0
 26 28  2  0  0  0  0
 27 33  2  0  0  0  0
 31 35  1  0  0  0  0
 32 34  2  0  0  0  0
 33 34  1  0  0  0  0
 36 37  1  0  0  0  0
M  END
> <PUBCHEM_COMPOUND_ID_TYPE>
0

> <PUBCHEM_TOTAL_CHARGE>
0

> <PUBCHEM_SUBSTANCE_ID>
310938192

> <PUBCHEM_SUBSTANCE_VERSION>
1

> <PUBCHEM_EXT_DATASOURCE_NAME>
4488

> <PUBCHEM_EXT_DATASOURCE_REGID>
SCHEMBL16116047

> <PUBCHEM_SUBSTANCE_COMMENT>
InChI=1S/C22H18FN7.C2HF3O2/c23-16-11-25-22(29-21(16)30-12-26-18-3-1-2-4-20(18)30)27-13-5-6-14-15-10-24-8-7-17(15)28-19(14)9-13;3-2(4,5)1(6)7/h1-6,9,11-12,24,28H,7-8,10H2,(H,25,27,29);(H,6,7)
InChIKey=DHSZWZCJXVWQGL-UHFFFAOYSA-N

> <PUBCHEM_SUBSTANCE_SYNONYM>
SCHEMBL16116047

> <PUBCHEM_XREF_EXT_ID>
SCHEMBL16116047

> <PUBCHEM_EXT_DATASOURCE_URL>
https://www.surechembl.org/

> <PUBCHEM_EXT_SUBSTANCE_URL>
https://www.surechembl.org/chemical/SCHEMBL16116047

> <PUBCHEM_CID_ASSOCIATIONS>
86300535  1
6422  2
86300536  2

> <PUBCHEM_COORDINATE_TYPE>
1
3

$$$$
