310929020
  -OEChem-07211613022D

 11  9  0     0  0  0  0  0  0999 V2000
    4.5130    0.0000    0.0000 F   0  0  0  0  0  0  0  0  0  0  0  0
    3.8004   -1.2272    0.0000 F   0  0  0  0  0  0  0  0  0  0  0  0
    3.8004   -0.4157    0.0000 F   0  0  0  0  0  0  0  0  0  0  0  0
    5.2453   -2.0585    0.0000 O   0  0  0  0  0  0  0  0  0  0  0  0
    0.0000   -1.2272    0.0000 O   0  0  0  0  0  0  0  0  0  0  0  0
    2.1575   -0.8314    0.0000 O   0  0  0  0  0  0  0  0  0  0  0  0
    5.9382   -0.8314    0.0000 N   0  0  0  0  0  0  0  0  0  0  0  0
    4.5130   -0.8314    0.0000 C   0  0  0  0  0  0  0  0  0  0  0  0
    5.2453   -1.2272    0.0000 C   0  0  0  0  0  0  0  0  0  0  0  0
    1.4449   -1.2272    0.0000 C   0  0  0  0  0  0  0  0  0  0  0  0
    0.7324   -0.8314    0.0000 C   0  0  0  0  0  0  0  0  0  0  0  0
  1  8  1  0  0  0  0
  2  8  1  0  0  0  0
  3  8  1  0  0  0  0
  4  9  2  0  0  0  0
  5 11  1  0  0  0  0
  6 10  1  0  0  0  0
  7  9  1  0  0  0  0
  8  9  1  0  0  0  0
 10 11  1  0  0  0  0
M  END
> <PUBCHEM_COMPOUND_ID_TYPE>
0

> <PUBCHEM_TOTAL_CHARGE>
0

> <PUBCHEM_SUBSTANCE_ID>
310929020

> <PUBCHEM_SUBSTANCE_VERSION>
1

> <PUBCHEM_EXT_DATASOURCE_NAME>
4488

> <PUBCHEM_EXT_DATASOURCE_REGID>
SCHEMBL16106178

> <PUBCHEM_SUBSTANCE_COMMENT>
InChI=1S/C2H2F3NO.C2H6O2/c3-2(4,5)1(6)7;3-1-2-4/h(H2,6,7);3-4H,1-2H2
InChIKey=WBKBEIUWQNRTLF-UHFFFAOYSA-N

> <PUBCHEM_SUBSTANCE_SYNONYM>
SCHEMBL16106178

> <PUBCHEM_XREF_EXT_ID>
SCHEMBL16106178

> <PUBCHEM_EXT_DATASOURCE_URL>
https://www.surechembl.org/

> <PUBCHEM_EXT_SUBSTANCE_URL>
https://www.surechembl.org/chemical/SCHEMBL16106178

> <PUBCHEM_CID_ASSOCIATIONS>
117598542  1
174  2
67717  2

> <PUBCHEM_COORDINATE_TYPE>
1
3

$$$$
