310933259
  -OEChem-07211613022D

 31 29  0     1  0  0  0  0  0999 V2000
    0.7145    0.4125    0.0000 O   0  0  0  0  0  0  0  0  0  0  0  0
    1.3029   -1.9098    0.0000 O   0  0  0  0  0  0  0  0  0  0  0  0
    2.8579    0.0000    0.0000 O   0  0  0  0  0  0  0  0  0  0  0  0
    0.0000   -0.8250    0.0000 O   0  0  0  0  0  0  0  0  0  0  0  0
    3.5724    1.2375    0.0000 O   0  0  0  0  0  0  0  0  0  0  0  0
    5.0013    1.2375    0.0000 O   0  0  0  0  0  0  0  0  0  0  0  0
    4.1561   -3.1931    0.0000 O   0  0  0  0  0  0  0  0  0  0  0  0
    3.4416   -1.9556    0.0000 O   0  0  0  0  0  0  0  0  0  0  0  0
   -0.0699   -1.6500    0.0000 N   0  0  0  0  0  0  0  0  0  0  0  0
    0.4732   -3.0338    0.0000 C   0  0  3  0  0  0  0  0  0  0  0  0
    0.5348   -2.2111    0.0000 C   0  0  0  0  0  0  0  0  0  0  0  0
   -0.2084   -3.4986    0.0000 C   0  0  0  0  0  0  0  0  0  0  0  0
    1.1877   -3.4464    0.0000 C   0  0  0  0  0  0  0  0  0  0  0  0
    0.0000    0.0000    0.0000 C   0  0  0  0  0  0  0  0  0  0  0  0
   -0.9968   -3.2554    0.0000 C   0  0  0  0  0  0  0  0  0  0  0  0
   -0.8857   -1.7730    0.0000 C   0  0  0  0  0  0  0  0  0  0  0  0
    3.5724    0.4125    0.0000 C   0  0  0  0  0  0  0  0  0  0  0  0
   -1.2982   -2.4875    0.0000 C   0  0  0  0  0  0  0  0  0  0  0  0
   -0.7145    0.4125    0.0000 C   0  0  0  0  0  0  0  0  0  0  0  0
    4.2869    0.0000    0.0000 C   0  0  0  0  0  0  0  0  0  0  0  0
    1.4290    0.0000    0.0000 C   0  0  0  0  0  0  0  0  0  0  0  0
    2.1434    0.4125    0.0000 C   0  0  0  0  0  0  0  0  0  0  0  0
    5.0013    0.4125    0.0000 C   0  0  0  0  0  0  0  0  0  0  0  0
    1.9022   -3.0338    0.0000 C   0  0  0  0  0  0  0  0  0  0  0  0
   -1.4290    0.0000    0.0000 C   0  0  0  0  0  0  0  0  0  0  0  0
   -0.7145    1.2375    0.0000 C   0  0  0  0  0  0  0  0  0  0  0  0
    5.7158    0.0000    0.0000 C   0  0  0  0  0  0  0  0  0  0  0  0
    3.4416   -2.7806    0.0000 C   0  0  0  0  0  0  0  0  0  0  0  0
    4.8706   -2.7806    0.0000 C   0  0  0  0  0  0  0  0  0  0  0  0
    2.7272   -3.1931    0.0000 C   0  0  0  0  0  0  0  0  0  0  0  0
    5.5851   -3.1931    0.0000 C   0  0  0  0  0  0  0  0  0  0  0  0
  1 14  1  0  0  0  0
  1 21  1  0  0  0  0
  2 11  2  0  0  0  0
  3 17  1  0  0  0  0
  3 22  1  0  0  0  0
  4 14  2  0  0  0  0
  5 17  2  0  0  0  0
  6 23  2  0  0  0  0
  7 28  1  0  0  0  0
  7 29  1  0  0  0  0
  8 28  2  0  0  0  0
  9 11  1  0  0  0  0
  9 16  1  0  0  0  0
 10 11  1  0  0  0  0
 10 12  1  0  0  0  0
 10 13  1  0  0  0  0
 12 15  1  0  0  0  0
 13 24  2  0  0  0  0
 14 19  1  0  0  0  0
 15 18  1  0  0  0  0
 16 18  1  0  0  0  0
 17 20  1  0  0  0  0
 19 25  2  0  0  0  0
 19 26  1  0  0  0  0
 20 23  1  0  0  0  0
 21 22  1  0  0  0  0
 23 27  1  0  0  0  0
 28 30  1  0  0  0  0
 29 31  2  0  0  0  0
M  END
> <PUBCHEM_COMPOUND_ID_TYPE>
0

> <PUBCHEM_TOTAL_CHARGE>
0

> <PUBCHEM_SUBSTANCE_ID>
310933259

> <PUBCHEM_SUBSTANCE_VERSION>
1

> <PUBCHEM_EXT_DATASOURCE_NAME>
4488

> <PUBCHEM_EXT_DATASOURCE_REGID>
SCHEMBL16110668

> <PUBCHEM_SUBSTANCE_COMMENT>
InChI=1S/C10H14O5.C8H13NO.C4H6O2/c1-7(2)10(13)15-5-4-14-9(12)6-8(3)11;1-2-7-5-3-4-6-9-8(7)10;1-3-6-4(2)5/h1,4-6H2,2-3H3;2,7H,1,3-6H2,(H,9,10);3H,1H2,2H3
InChIKey=KFKQGTSOPCGQRN-UHFFFAOYSA-N

> <PUBCHEM_SUBSTANCE_SYNONYM>
SCHEMBL16110668

> <PUBCHEM_XREF_EXT_ID>
SCHEMBL16110668

> <PUBCHEM_EXT_DATASOURCE_URL>
https://www.surechembl.org/

> <PUBCHEM_EXT_SUBSTANCE_URL>
https://www.surechembl.org/chemical/SCHEMBL16110668

> <PUBCHEM_CID_ASSOCIATIONS>
117601690  1
7904  2
88855  2
17881685  2

> <PUBCHEM_COORDINATE_TYPE>
1
3

$$$$
