310937817
  -OEChem-07211613022D

 41 45  0     1  0  0  0  0  0999 V2000
    2.6844   -1.2420    0.0000 S   0  0  0  0  0  0  0  0  0  0  0  0
    0.1602   -4.2069    0.0000 F   0  0  0  0  0  0  0  0  0  0  0  0
    9.7760   -2.9649    0.0000 F   0  0  0  0  0  0  0  0  0  0  0  0
    9.0548   -4.2069    0.0000 F   0  0  0  0  0  0  0  0  0  0  0  0
    9.0548   -3.3655    0.0000 F   0  0  0  0  0  0  0  0  0  0  0  0
    5.9698   -2.7646    0.0000 O   0  0  0  0  0  0  0  0  0  0  0  0
   10.4972   -5.0482    0.0000 O   0  0  0  0  0  0  0  0  0  0  0  0
   11.1783   -3.8062    0.0000 O   0  0  0  0  0  0  0  0  0  0  0  0
    1.3622   -6.4105    0.0000 N   0  0  0  0  0  0  0  0  0  0  0  0
    2.2437   -4.9281    0.0000 N   0  0  0  0  0  0  0  0  0  0  0  0
    0.0000   -6.5307    0.0000 N   0  0  0  0  0  0  0  0  0  0  0  0
    3.4857   -4.2069    0.0000 N   0  0  0  0  0  0  0  0  0  0  0  0
    2.2437   -3.4857    0.0000 N   0  0  0  0  0  0  0  0  0  0  0  0
    7.3721   -1.1218    0.0000 N   0  0  0  0  0  0  0  0  0  0  0  0
    1.0017   -5.6492    0.0000 C   0  0  0  0  0  0  0  0  0  0  0  0
    1.4023   -4.9281    0.0000 C   0  0  0  0  0  0  0  0  0  0  0  0
    0.7612   -6.9714    0.0000 C   0  0  0  0  0  0  0  0  0  0  0  0
    0.9616   -4.2069    0.0000 C   0  0  0  0  0  0  0  0  0  0  0  0
    0.2003   -5.7293    0.0000 C   0  0  0  0  0  0  0  0  0  0  0  0
    2.6844   -4.2069    0.0000 C   0  0  0  0  0  0  0  0  0  0  0  0
    2.1636   -6.6509    0.0000 C   0  0  0  0  0  0  0  0  0  0  0  0
    3.9264   -3.4857    0.0000 C   0  0  0  0  0  0  0  0  0  0  0  0
    0.9215   -7.7727    0.0000 C   0  0  0  0  0  0  0  0  0  0  0  0
    1.4023   -3.4857    0.0000 C   0  0  0  0  0  0  0  0  0  0  0  0
    3.8863   -2.0433    0.0000 C   0  0  0  0  0  0  0  0  0  0  0  0
    5.1284   -2.7646    0.0000 C   0  0  0  0  0  0  0  0  0  0  0  0
    3.4857   -2.7646    0.0000 C   0  0  0  0  0  0  0  0  0  0  0  0
    4.7277   -3.4857    0.0000 C   0  0  0  0  0  0  0  0  0  0  0  0
    3.4857   -1.3222    0.0000 C   0  0  0  0  0  0  0  0  0  0  0  0
    4.7277   -2.0433    0.0000 C   0  0  0  0  0  0  0  0  0  0  0  0
    2.3238   -7.4522    0.0000 C   0  0  0  0  0  0  0  0  0  0  0  0
    1.7228   -8.0131    0.0000 C   0  0  0  0  0  0  0  0  0  0  0  0
    3.8062   -0.5609    0.0000 C   0  0  0  0  0  0  0  0  0  0  0  0
    6.3704   -2.0433    0.0000 C   0  0  3  0  0  0  0  0  0  0  0  0
    2.4841   -0.4007    0.0000 C   0  0  0  0  0  0  0  0  0  0  0  0
    3.2052    0.0000    0.0000 C   0  0  0  0  0  0  0  0  0  0  0  0
    7.2118   -1.9231    0.0000 C   0  0  0  0  0  0  0  0  0  0  0  0
    6.0499   -1.2821    0.0000 C   0  0  0  0  0  0  0  0  0  0  0  0
    6.6509   -0.7212    0.0000 C   0  0  0  0  0  0  0  0  0  0  0  0
    9.7760   -3.8062    0.0000 C   0  0  0  0  0  0  0  0  0  0  0  0
   10.4972   -4.2069    0.0000 C   0  0  0  0  0  0  0  0  0  0  0  0
  1 29  1  0  0  0  0
  1 35  1  0  0  0  0
  2 18  1  0  0  0  0
  3 40  1  0  0  0  0
  4 40  1  0  0  0  0
  5 40  1  0  0  0  0
  6 26  1  0  0  0  0
  6 34  1  0  0  0  0
  7 41  2  0  0  0  0
  8 41  1  0  0  0  0
  9 15  1  0  0  0  0
  9 17  1  0  0  0  0
  9 21  1  0  0  0  0
 10 16  2  0  0  0  0
 10 20  1  0  0  0  0
 11 17  2  0  0  0  0
 11 19  1  0  0  0  0
 12 20  1  0  0  0  0
 12 22  1  0  0  0  0
 13 20  2  0  0  0  0
 13 24  1  0  0  0  0
 14 37  1  0  0  0  0
 14 39  1  0  0  0  0
 15 16  1  0  0  0  0
 15 19  2  0  0  0  0
 16 18  1  0  0  0  0
 17 23  1  0  0  0  0
 18 24  2  0  0  0  0
 21 31  2  0  0  0  0
 22 27  2  0  0  0  0
 22 28  1  0  0  0  0
 23 32  2  0  0  0  0
 25 27  1  0  0  0  0
 25 29  1  0  0  0  0
 25 30  2  0  0  0  0
 26 28  2  0  0  0  0
 26 30  1  0  0  0  0
 29 33  2  0  0  0  0
 31 32  1  0  0  0  0
 33 36  1  0  0  0  0
 34 37  1  0  0  0  0
 34 38  1  0  0  0  0
 35 36  2  0  0  0  0
 38 39  1  0  0  0  0
 40 41  1  0  0  0  0
M  END
> <PUBCHEM_COMPOUND_ID_TYPE>
0

> <PUBCHEM_TOTAL_CHARGE>
0

> <PUBCHEM_SUBSTANCE_ID>
310937817

> <PUBCHEM_SUBSTANCE_VERSION>
1

> <PUBCHEM_EXT_DATASOURCE_NAME>
4488

> <PUBCHEM_EXT_DATASOURCE_REGID>
SCHEMBL16115634

> <PUBCHEM_SUBSTANCE_COMMENT>
InChI=1S/C25H21FN6OS.C2HF3O2/c26-20-14-29-25(31-24(20)21-15-28-23-5-1-2-8-32(21)23)30-17-10-16(22-4-3-9-34-22)11-19(12-17)33-18-6-7-27-13-18;3-2(4,5)1(6)7/h1-5,8-12,14-15,18,27H,6-7,13H2,(H,29,30,31);(H,6,7)
InChIKey=NWKBZQSKVXKEKI-UHFFFAOYSA-N

> <PUBCHEM_SUBSTANCE_SYNONYM>
SCHEMBL16115634

> <PUBCHEM_XREF_EXT_ID>
SCHEMBL16115634

> <PUBCHEM_EXT_DATASOURCE_URL>
https://www.surechembl.org/

> <PUBCHEM_EXT_SUBSTANCE_URL>
https://www.surechembl.org/chemical/SCHEMBL16115634

> <PUBCHEM_CID_ASSOCIATIONS>
86301593  1
6422  2
86301594  2

> <PUBCHEM_COORDINATE_TYPE>
1
3

$$$$
