310931222
  -OEChem-07211613022D

 16 14  0     0  0  0  0  0  0999 V2000
    6.9128   -2.7310    0.0000 N   0  3  0  0  0  0  0  0  0  0  0  0
    6.9128   -1.3939    0.0000 N   0  0  0  0  0  0  0  0  0  0  0  0
    1.4224   -1.4508    0.0000 N   0  0  0  0  0  0  0  0  0  0  0  0
    4.4947   -1.4508    0.0000 N   0  0  0  0  0  0  0  0  0  0  0  0
    0.0000   -2.2474    0.0000 N   0  0  0  0  0  0  0  0  0  0  0  0
    3.0723   -2.2474    0.0000 N   0  0  0  0  0  0  0  0  0  0  0  0
    7.3964   -2.0767    0.0000 C   0  0  0  0  0  0  0  0  0  0  0  0
    6.1447   -2.4749    0.0000 C   0  0  0  0  0  0  0  0  0  0  0  0
    6.1447   -1.6499    0.0000 C   0  0  0  0  0  0  0  0  0  0  0  0
    7.1688   -3.5275    0.0000 C   0  0  0  0  0  0  0  0  0  0  0  0
    7.1688   -0.6258    0.0000 C   0  0  0  0  0  0  0  0  0  0  0  0
    7.9653   -3.6982    0.0000 C   0  0  0  0  0  0  0  0  0  0  0  0
    6.6283    0.0000    0.0000 C   0  0  0  0  0  0  0  0  0  0  0  0
    8.5343   -3.0723    0.0000 C   0  0  0  0  0  0  0  0  0  0  0  0
    0.7112   -1.8491    0.0000 C   0  0  0  0  0  0  0  0  0  0  0  0
    3.7835   -1.8491    0.0000 C   0  0  0  0  0  0  0  0  0  0  0  0
  1  7  2  0  0  0  0
  1  8  1  0  0  0  0
  1 10  1  0  0  0  0
  2  7  1  0  0  0  0
  2  9  1  0  0  0  0
  2 11  1  0  0  0  0
  3 15  3  0  0  0  0
  4 16  3  0  0  0  0
  5 15  1  0  0  0  0
  6 16  1  0  0  0  0
  8  9  2  0  0  0  0
 10 12  1  0  0  0  0
 11 13  2  0  0  0  0
 12 14  2  0  0  0  0
M  CHG  1   1   1
M  END
> <PUBCHEM_COMPOUND_ID_TYPE>
0

> <PUBCHEM_TOTAL_CHARGE>
1

> <PUBCHEM_SUBSTANCE_ID>
310931222

> <PUBCHEM_SUBSTANCE_VERSION>
1

> <PUBCHEM_EXT_DATASOURCE_NAME>
4488

> <PUBCHEM_EXT_DATASOURCE_REGID>
SCHEMBL16108531

> <PUBCHEM_SUBSTANCE_COMMENT>
InChI=1S/C8H11N2.2CH2N2/c1-3-5-10-7-6-9(4-2)8-10;2*2-1-3/h3-4,6-8H,1-2,5H2;2*2H2/q+1;;
InChIKey=MDBLVGIQHNIFIM-UHFFFAOYSA-N

> <PUBCHEM_SUBSTANCE_SYNONYM>
SCHEMBL16108531

> <PUBCHEM_XREF_EXT_ID>
SCHEMBL16108531

> <PUBCHEM_EXT_DATASOURCE_URL>
https://www.surechembl.org/

> <PUBCHEM_EXT_SUBSTANCE_URL>
https://www.surechembl.org/chemical/SCHEMBL16108531

> <PUBCHEM_CID_ASSOCIATIONS>
117600066  1
9864  2
59538260  2

> <PUBCHEM_COORDINATE_TYPE>
1
3

$$$$
