310936457
  -OEChem-07211613022D

 18 17  0     1  0  0  0  0  0999 V2000
    4.7578    1.0207    0.0000 F   0  0  0  0  0  0  0  0  0  0  0  0
    5.0597   -0.1063    0.0000 F   0  0  0  0  0  0  0  0  0  0  0  0
    3.6308    0.7187    0.0000 F   0  0  0  0  0  0  0  0  0  0  0  0
    3.1078   -0.4083    0.0000 O   0  0  0  0  0  0  0  0  0  0  0  0
    4.3453   -1.1227    0.0000 O   0  0  0  0  0  0  0  0  0  0  0  0
    0.3897    0.1500    0.0000 N   0  0  3  0  0  0  0  0  0  0  0  0
   -1.0392   -1.5000    0.0000 N   0  0  0  0  0  0  0  0  0  0  0  0
    4.3453    0.3062    0.0000 C   0  0  0  0  0  0  0  0  0  0  0  0
    3.9328   -0.4083    0.0000 C   0  0  0  0  0  0  0  0  0  0  0  0
   -0.3248   -1.0875    0.0000 C   0  0  3  0  0  0  0  0  0  0  0  0
   -0.3248   -0.2625    0.0000 C   0  0  0  0  0  0  0  0  0  0  0  0
    1.1042   -0.2625    0.0000 C   0  0  0  0  0  0  0  0  0  0  0  0
    0.3897    0.9750    0.0000 C   0  0  0  0  0  0  0  0  0  0  0  0
    0.3897   -1.5000    0.0000 C   0  0  0  0  0  0  0  0  0  0  0  0
    1.1042   -1.0875    0.0000 C   0  0  0  0  0  0  0  0  0  0  0  0
   -0.3248    1.3875    0.0000 C   0  0  0  0  0  0  0  0  0  0  0  0
   -0.3248    2.2125    0.0000 C   0  0  0  0  0  0  0  0  0  0  0  0
   -1.0392    0.9750    0.0000 C   0  0  0  0  0  0  0  0  0  0  0  0
  1  8  1  0  0  0  0
  2  8  1  0  0  0  0
  3  8  1  0  0  0  0
  4  9  2  0  0  0  0
  5  9  1  0  0  0  0
  6 11  1  0  0  0  0
  6 12  1  0  0  0  0
  6 13  1  0  0  0  0
  7 10  1  0  0  0  0
  8  9  1  0  0  0  0
 10 11  1  0  0  0  0
 10 14  1  0  0  0  0
 12 15  1  0  0  0  0
 13 16  1  0  0  0  0
 14 15  1  0  0  0  0
 16 17  1  0  0  0  0
 16 18  1  0  0  0  0
M  END
> <PUBCHEM_COMPOUND_ID_TYPE>
0

> <PUBCHEM_TOTAL_CHARGE>
0

> <PUBCHEM_SUBSTANCE_ID>
310936457

> <PUBCHEM_SUBSTANCE_VERSION>
1

> <PUBCHEM_EXT_DATASOURCE_NAME>
4488

> <PUBCHEM_EXT_DATASOURCE_REGID>
SCHEMBL16114099

> <PUBCHEM_SUBSTANCE_COMMENT>
InChI=1S/C9H20N2.C2HF3O2/c1-8(2)6-11-5-3-4-9(10)7-11;3-2(4,5)1(6)7/h8-9H,3-7,10H2,1-2H3;(H,6,7)
InChIKey=IRHIWIJEDXKXAL-UHFFFAOYSA-N

> <PUBCHEM_SUBSTANCE_SYNONYM>
SCHEMBL16114099

> <PUBCHEM_XREF_EXT_ID>
SCHEMBL16114099

> <PUBCHEM_EXT_DATASOURCE_URL>
https://www.surechembl.org/

> <PUBCHEM_EXT_SUBSTANCE_URL>
https://www.surechembl.org/chemical/SCHEMBL16114099

> <PUBCHEM_CID_ASSOCIATIONS>
117604388  1
6422  2
574686  2

> <PUBCHEM_COORDINATE_TYPE>
1
3

$$$$
