310931492
  -OEChem-07211613022D

 29 30  0     0  0  0  0  0  0999 V2000
    0.0000   -3.2068    0.0000 Cl  0  0  0  0  0  0  0  0  0  0  0  0
    5.7488   -2.1509    0.0000 O   0  0  0  0  0  0  0  0  0  0  0  0
   10.2462   -2.2291    0.0000 O   0  0  0  0  0  0  0  0  0  0  0  0
    6.6483   -0.9777    0.0000 N   0  0  0  0  0  0  0  0  0  0  0  0
    6.5701   -0.1565    0.0000 N   0  0  0  0  0  0  0  0  0  0  0  0
    8.0952   -0.9777    0.0000 N   0  0  0  0  0  0  0  0  0  0  0  0
    9.5422   -3.4805    0.0000 N   0  0  0  0  0  0  0  0  0  0  0  0
    1.6425   -1.8380    0.0000 N   0  0  0  0  0  0  0  0  0  0  0  0
   10.9892   -5.9835    0.0000 N   0  0  0  0  0  0  0  0  0  0  0  0
    5.3186   -0.7039    0.0000 C   0  0  0  0  0  0  0  0  0  0  0  0
    5.9052   -1.3297    0.0000 C   0  0  0  0  0  0  0  0  0  0  0  0
    7.3522   -1.4079    0.0000 C   0  0  0  0  0  0  0  0  0  0  0  0
    4.4973   -0.8212    0.0000 C   0  0  0  0  0  0  0  0  0  0  0  0
    5.7488    0.0000    0.0000 C   0  0  0  0  0  0  0  0  0  0  0  0
    7.3522   -2.2291    0.0000 C   0  0  0  0  0  0  0  0  0  0  0  0
    8.7992   -2.2291    0.0000 C   0  0  0  0  0  0  0  0  0  0  0  0
    4.1454   -1.5643    0.0000 C   0  0  0  0  0  0  0  0  0  0  0  0
    3.9890   -0.1565    0.0000 C   0  0  0  0  0  0  0  0  0  0  0  0
    8.7992   -1.4079    0.0000 C   0  0  0  0  0  0  0  0  0  0  0  0
    8.0952   -2.6593    0.0000 C   0  0  0  0  0  0  0  0  0  0  0  0
    9.5422   -2.6593    0.0000 C   0  0  0  0  0  0  0  0  0  0  0  0
    2.8157   -1.0168    0.0000 C   0  0  0  0  0  0  0  0  0  0  0  0
    3.3241   -1.6816    0.0000 C   0  0  0  0  0  0  0  0  0  0  0  0
    3.1677   -0.2346    0.0000 C   0  0  0  0  0  0  0  0  0  0  0  0
    1.9945   -1.0950    0.0000 C   0  0  0  0  0  0  0  0  0  0  0  0
   10.2852   -3.9107    0.0000 C   0  0  0  0  0  0  0  0  0  0  0  0
   10.2852   -4.7320    0.0000 C   0  0  0  0  0  0  0  0  0  0  0  0
   10.9892   -5.1622    0.0000 C   0  0  0  0  0  0  0  0  0  0  0  0
   11.7322   -6.4136    0.0000 C   0  0  0  0  0  0  0  0  0  0  0  0
  2 11  1  0  0  0  0
  3 21  2  0  0  0  0
  4  5  1  0  0  0  0
  4 11  1  0  0  0  0
  4 12  1  0  0  0  0
  5 14  2  0  0  0  0
  6 12  2  0  0  0  0
  6 19  1  0  0  0  0
  7 21  1  0  0  0  0
  7 26  1  0  0  0  0
  8 25  3  0  0  0  0
  9 28  1  0  0  0  0
  9 29  1  0  0  0  0
 10 11  2  0  0  0  0
 10 13  1  0  0  0  0
 10 14  1  0  0  0  0
 12 15  1  0  0  0  0
 13 17  2  0  0  0  0
 13 18  1  0  0  0  0
 15 20  2  0  0  0  0
 16 19  2  0  0  0  0
 16 20  1  0  0  0  0
 16 21  1  0  0  0  0
 17 23  1  0  0  0  0
 18 24  2  0  0  0  0
 22 23  2  0  0  0  0
 22 24  1  0  0  0  0
 22 25  1  0  0  0  0
 26 27  1  0  0  0  0
 27 28  1  0  0  0  0
M  END
> <PUBCHEM_COMPOUND_ID_TYPE>
0

> <PUBCHEM_TOTAL_CHARGE>
0

> <PUBCHEM_SUBSTANCE_ID>
310931492

> <PUBCHEM_SUBSTANCE_VERSION>
1

> <PUBCHEM_EXT_DATASOURCE_NAME>
4488

> <PUBCHEM_EXT_DATASOURCE_REGID>
SCHEMBL16108817

> <PUBCHEM_SUBSTANCE_COMMENT>
InChI=1S/C20H20N6O2.ClH/c1-22-9-2-10-23-19(27)16-7-8-18(24-12-16)26-20(28)17(13-25-26)15-5-3-14(11-21)4-6-15;/h3-8,12-13,22,28H,2,9-10H2,1H3,(H,23,27);1H
InChIKey=YFAGSZUUSOYKQF-UHFFFAOYSA-N

> <PUBCHEM_SUBSTANCE_SYNONYM>
SCHEMBL16108817

> <PUBCHEM_XREF_EXT_ID>
SCHEMBL16108817

> <PUBCHEM_EXT_DATASOURCE_URL>
https://www.surechembl.org/

> <PUBCHEM_EXT_SUBSTANCE_URL>
https://www.surechembl.org/chemical/SCHEMBL16108817

> <PUBCHEM_CID_ASSOCIATIONS>
117600257  1
313  2
117600258  2

> <PUBCHEM_COORDINATE_TYPE>
1
3

$$$$
