310936309
  -OEChem-07211613022D

 38 40  0     1  0  0  0  0  0999 V2000
    2.5339   -1.0900    0.0000 O   0  0  0  0  0  0  0  0  0  0  0  0
    8.5066    0.5311    0.0000 O   0  0  0  0  0  0  0  0  0  0  0  0
    6.1033   -1.2216    0.0000 O   0  0  0  0  0  0  0  0  0  0  0  0
    0.4125   -0.7145    0.0000 O   0  0  0  0  0  0  0  0  0  0  0  0
   -0.8250   -0.0000    0.0000 O   0  0  0  0  0  0  0  0  0  0  0  0
    3.9258    2.1983    0.0000 N   0  0  0  0  0  0  0  0  0  0  0  0
    3.9258    0.5483    0.0000 C   0  0  3  0  0  0  0  0  0  0  0  0
    4.6403    0.9608    0.0000 C   0  0  3  0  0  0  0  0  0  0  0  0
    3.9258   -0.2767    0.0000 C   0  0  3  0  0  0  0  0  0  0  0  0
    5.3548    0.5483    0.0000 C   0  0  3  0  0  0  0  0  0  0  0  0
    3.1412   -0.5316    0.0000 C   0  0  3  0  0  0  0  0  0  0  0  0
    6.0692    0.9608    0.0000 C   0  0  3  0  0  0  0  0  0  0  0  0
    3.1412    0.8033    0.0000 C   0  0  0  0  0  0  0  0  0  0  0  0
    4.6403   -0.6892    0.0000 C   0  0  0  0  0  0  0  0  0  0  0  0
    5.3548   -0.2767    0.0000 C   0  0  0  0  0  0  0  0  0  0  0  0
    6.3514    0.1856    0.0000 C   0  0  3  0  0  0  0  0  0  0  0  0
    2.6563    0.1358    0.0000 C   0  0  0  0  0  0  0  0  0  0  0  0
    4.6403    1.7858    0.0000 C   0  0  0  0  0  0  0  0  0  0  0  0
    3.3043   -1.3403    0.0000 C   0  0  0  0  0  0  0  0  0  0  0  0
    3.8396   -1.0971    0.0000 C   0  0  0  0  0  0  0  0  0  0  0  0
    6.5995    1.5928    0.0000 C   0  0  0  0  0  0  0  0  0  0  0  0
    7.1639    0.0423    0.0000 C   0  0  0  0  0  0  0  0  0  0  0  0
    5.5389    1.5928    0.0000 C   0  0  0  0  0  0  0  0  0  0  0  0
    7.6942    0.6743    0.0000 C   0  0  3  0  0  0  0  0  0  0  0  0
    5.8211   -0.4464    0.0000 C   0  0  0  0  0  0  0  0  0  0  0  0
    7.4120    1.4496    0.0000 C   0  0  0  0  0  0  0  0  0  0  0  0
    2.6854   -1.8859    0.0000 C   0  0  0  0  0  0  0  0  0  0  0  0
    4.0862   -1.6035    0.0000 C   0  0  0  0  0  0  0  0  0  0  0  0
    2.8485   -2.6946    0.0000 C   0  0  0  0  0  0  0  0  0  0  0  0
    4.2493   -2.4122    0.0000 C   0  0  0  0  0  0  0  0  0  0  0  0
    3.6304   -2.9578    0.0000 C   0  0  0  0  0  0  0  0  0  0  0  0
    0.0000   -0.0000    0.0000 C   0  0  0  0  0  0  0  0  0  0  0  0
    0.4125    0.7145    0.0000 C   0  0  0  0  0  0  0  0  0  0  0  0
    3.8396    1.3688    0.0000 H   0  0  0  0  0  0  0  0  0  0  0  0
    5.1706    1.5928    0.0000 H   0  0  0  0  0  0  0  0  0  0  0  0
    5.6369    1.3236    0.0000 H   0  0  0  0  0  0  0  0  0  0  0  0
    5.5389    0.3289    0.0000 H   0  0  0  0  0  0  0  0  0  0  0  0
    7.9763   -0.1009    0.0000 H   0  0  0  0  0  0  0  0  0  0  0  0
 11  1  1  1  0  0  0
 24  2  1  6  0  0  0
  3 25  1  0  0  0  0
  4 32  2  0  0  0  0
  5 32  1  0  0  0  0
  6 18  1  0  0  0  0
  7  8  1  0  0  0  0
  7  9  1  0  0  0  0
  7 13  1  0  0  0  0
  7 34  1  6  0  0  0
  8 10  1  0  0  0  0
  8 18  1  0  0  0  0
  8 35  1  1  0  0  0
  9 11  1  0  0  0  0
  9 14  1  0  0  0  0
  9 20  1  1  0  0  0
 10 12  1  0  0  0  0
 10 15  1  0  0  0  0
 10 36  1  6  0  0  0
 11 17  1  0  0  0  0
 11 19  1  0  0  0  0
 12 16  1  0  0  0  0
 12 21  1  0  0  0  0
 12 23  1  6  0  0  0
 13 17  1  0  0  0  0
 14 15  1  0  0  0  0
 16 22  1  0  0  0  0
 16 25  1  0  0  0  0
 16 37  1  1  0  0  0
 19 27  2  0  0  0  0
 19 28  1  0  0  0  0
 21 26  1  0  0  0  0
 22 24  1  0  0  0  0
 24 26  1  0  0  0  0
 24 38  1  1  0  0  0
 27 29  1  0  0  0  0
 28 30  2  0  0  0  0
 29 31  2  0  0  0  0
 30 31  1  0  0  0  0
 32 33  1  0  0  0  0
M  END
> <PUBCHEM_COMPOUND_ID_TYPE>
0

> <PUBCHEM_TOTAL_CHARGE>
0

> <PUBCHEM_SUBSTANCE_ID>
310936309

> <PUBCHEM_SUBSTANCE_VERSION>
1

> <PUBCHEM_EXT_DATASOURCE_NAME>
4488

> <PUBCHEM_EXT_DATASOURCE_REGID>
SCHEMBL16113935

> <PUBCHEM_SUBSTANCE_COMMENT>
InChI=1S/C25H39NO3.C2H4O2/c1-23(11-8-19(28)14-18(23)16-27)21-9-12-24(2)22(20(21)15-26)10-13-25(24,29)17-6-4-3-5-7-17;1-2(3)4/h3-7,18-22,27-29H,8-16,26H2,1-2H3;1H3,(H,3,4)/t18-,19+,20-,21+,22+,23+,24+,25-;/m1./s1
InChIKey=BNJOQUKCNOONML-XWRWLZQHSA-N

> <PUBCHEM_SUBSTANCE_SYNONYM>
SCHEMBL16113935

> <PUBCHEM_XREF_EXT_ID>
SCHEMBL16113935

> <PUBCHEM_EXT_DATASOURCE_URL>
https://www.surechembl.org/

> <PUBCHEM_EXT_SUBSTANCE_URL>
https://www.surechembl.org/chemical/SCHEMBL16113935

> <PUBCHEM_CID_ASSOCIATIONS>
117604252  1
176  2
117604253  2

> <PUBCHEM_COORDINATE_TYPE>
1
3

> <PUBCHEM_BONDANNOTATIONS>
11  1  5
10  36  6
12  23  6
16  37  5
24  2  6
24  38  5
7  34  6
8  35  5
9  20  5

$$$$
