310931124
  -OEChem-07211613022D

 21 18  0     0  0  0  0  0  0999 V2000
    0.8250    0.0000    0.0000 Cl  0  5  0  0  0  0  0  0  0  0  0  0
    0.0000    0.0000    0.0000 Na  0  3  0  0  0  0  0  0  0  0  0  0
    1.6500   -0.2063    0.0000 O   0  0  0  0  0  0  0  0  0  0  0  0
    7.3659   -0.2063    0.0000 C   0  0  0  0  0  0  0  0  0  0  0  0
    8.0804    0.2063    0.0000 C   0  0  0  0  0  0  0  0  0  0  0  0
    6.6514    0.2063    0.0000 C   0  0  0  0  0  0  0  0  0  0  0  0
    8.7949   -0.2063    0.0000 C   0  0  0  0  0  0  0  0  0  0  0  0
    5.9369   -0.2063    0.0000 C   0  0  0  0  0  0  0  0  0  0  0  0
    9.5094    0.2063    0.0000 C   0  0  0  0  0  0  0  0  0  0  0  0
    5.2225    0.2063    0.0000 C   0  0  0  0  0  0  0  0  0  0  0  0
   10.2239   -0.2063    0.0000 C   0  0  0  0  0  0  0  0  0  0  0  0
    4.5080   -0.2063    0.0000 C   0  0  0  0  0  0  0  0  0  0  0  0
   10.9384    0.2063    0.0000 C   0  0  0  0  0  0  0  0  0  0  0  0
   11.6529   -0.2063    0.0000 C   0  0  0  0  0  0  0  0  0  0  0  0
    3.7935    0.2063    0.0000 C   0  0  0  0  0  0  0  0  0  0  0  0
   12.3673    0.2063    0.0000 C   0  0  0  0  0  0  0  0  0  0  0  0
    3.0790   -0.2063    0.0000 C   0  0  0  0  0  0  0  0  0  0  0  0
   13.0818   -0.2063    0.0000 C   0  0  0  0  0  0  0  0  0  0  0  0
    2.3645    0.2063    0.0000 C   0  0  0  0  0  0  0  0  0  0  0  0
   13.7963    0.2063    0.0000 C   0  0  0  0  0  0  0  0  0  0  0  0
   14.5108   -0.2063    0.0000 C   0  0  0  0  0  0  0  0  0  0  0  0
  3 19  1  0  0  0  0
  4  5  1  0  0  0  0
  4  6  1  0  0  0  0
  5  7  1  0  0  0  0
  6  8  1  0  0  0  0
  7  9  1  0  0  0  0
  8 10  1  0  0  0  0
  9 11  1  0  0  0  0
 10 12  1  0  0  0  0
 11 13  1  0  0  0  0
 12 15  1  0  0  0  0
 13 14  1  0  0  0  0
 14 16  1  0  0  0  0
 15 17  1  0  0  0  0
 16 18  1  0  0  0  0
 17 19  1  0  0  0  0
 18 20  1  0  0  0  0
 20 21  1  0  0  0  0
M  CHG  2   1  -1   2   1
M  END
> <PUBCHEM_COMPOUND_ID_TYPE>
0

> <PUBCHEM_TOTAL_CHARGE>
0

> <PUBCHEM_SUBSTANCE_ID>
310931124

> <PUBCHEM_SUBSTANCE_VERSION>
1

> <PUBCHEM_EXT_DATASOURCE_NAME>
4488

> <PUBCHEM_EXT_DATASOURCE_REGID>
SCHEMBL16108428

> <PUBCHEM_SUBSTANCE_COMMENT>
InChI=1S/C18H38O.ClH.Na/c1-2-3-4-5-6-7-8-9-10-11-12-13-14-15-16-17-18-19;;/h19H,2-18H2,1H3;1H;/q;;+1/p-1
InChIKey=PTINBIRQOXIIFR-UHFFFAOYSA-M

> <PUBCHEM_SUBSTANCE_SYNONYM>
SCHEMBL16108428

> <PUBCHEM_XREF_EXT_ID>
SCHEMBL16108428

> <PUBCHEM_EXT_DATASOURCE_URL>
https://www.surechembl.org/

> <PUBCHEM_EXT_SUBSTANCE_URL>
https://www.surechembl.org/chemical/SCHEMBL16108428

> <PUBCHEM_CID_ASSOCIATIONS>
117600008  1
313  2
8221  2
5360545  2

> <PUBCHEM_COORDINATE_TYPE>
1
3

$$$$
