310936326
  -OEChem-07211613022D

 19 18  0     0  0  0  0  0  0999 V2000
   -1.2375    0.8250    0.0000 O   0  0  0  0  0  0  0  0  0  0  0  0
    1.2375   -0.8250    0.0000 O   0  0  0  0  0  0  0  0  0  0  0  0
    5.6129    1.4208    0.0000 O   0  0  0  0  0  0  0  0  0  0  0  0
    4.1839    1.4208    0.0000 O   0  0  0  0  0  0  0  0  0  0  0  0
    1.2375    0.0000    0.0000 C   0  0  0  0  0  0  0  0  0  0  0  0
   -1.2375    0.0000    0.0000 C   0  0  0  0  0  0  0  0  0  0  0  0
    4.8984    0.1833    0.0000 C   0  0  0  0  0  0  0  0  0  0  0  0
    0.4125   -0.0000    0.0000 C   0  0  0  0  0  0  0  0  0  0  0  0
   -0.4125   -0.0000    0.0000 C   0  0  0  0  0  0  0  0  0  0  0  0
    4.8984    1.0083    0.0000 C   0  0  0  0  0  0  0  0  0  0  0  0
    5.6129   -0.2292    0.0000 C   0  0  0  0  0  0  0  0  0  0  0  0
    4.1839   -0.2292    0.0000 C   0  0  0  0  0  0  0  0  0  0  0  0
    5.6129   -1.0542    0.0000 C   0  0  0  0  0  0  0  0  0  0  0  0
    4.1839   -1.0542    0.0000 C   0  0  0  0  0  0  0  0  0  0  0  0
    4.8984   -1.4667    0.0000 C   0  0  0  0  0  0  0  0  0  0  0  0
   -2.0625    0.0000    0.0000 C   0  0  0  0  0  0  0  0  0  0  0  0
    2.0625    0.0000    0.0000 C   0  0  0  0  0  0  0  0  0  0  0  0
    1.2375    0.8250    0.0000 C   0  0  0  0  0  0  0  0  0  0  0  0
   -1.2375   -0.8250    0.0000 C   0  0  0  0  0  0  0  0  0  0  0  0
  1  6  1  0  0  0  0
  2  5  1  0  0  0  0
  3 10  2  0  0  0  0
  4 10  1  0  0  0  0
  5  8  1  0  0  0  0
  5 17  1  0  0  0  0
  5 18  1  0  0  0  0
  6  9  1  0  0  0  0
  6 16  1  0  0  0  0
  6 19  1  0  0  0  0
  7 10  1  0  0  0  0
  7 11  2  0  0  0  0
  7 12  1  0  0  0  0
  8  9  3  0  0  0  0
 11 13  1  0  0  0  0
 12 14  2  0  0  0  0
 13 15  2  0  0  0  0
 14 15  1  0  0  0  0
M  END
> <PUBCHEM_COMPOUND_ID_TYPE>
0

> <PUBCHEM_TOTAL_CHARGE>
0

> <PUBCHEM_SUBSTANCE_ID>
310936326

> <PUBCHEM_SUBSTANCE_VERSION>
1

> <PUBCHEM_EXT_DATASOURCE_NAME>
4488

> <PUBCHEM_EXT_DATASOURCE_REGID>
SCHEMBL16113952

> <PUBCHEM_SUBSTANCE_COMMENT>
InChI=1S/C8H14O2.C7H6O2/c1-7(2,9)5-6-8(3,4)10;8-7(9)6-4-2-1-3-5-6/h9-10H,1-4H3;1-5H,(H,8,9)
InChIKey=LAXRVPGLGYOUTP-UHFFFAOYSA-N

> <PUBCHEM_SUBSTANCE_SYNONYM>
SCHEMBL16113952

> <PUBCHEM_XREF_EXT_ID>
SCHEMBL16113952

> <PUBCHEM_EXT_DATASOURCE_URL>
https://www.surechembl.org/

> <PUBCHEM_EXT_SUBSTANCE_URL>
https://www.surechembl.org/chemical/SCHEMBL16113952

> <PUBCHEM_CID_ASSOCIATIONS>
117604271  1
243  2
8883  2

> <PUBCHEM_COORDINATE_TYPE>
1
3

$$$$
