310938418
  -OEChem-07211613022D

  9  8  0     0  0  0  0  0  0999 V2000
    0.0000    0.0000    0.0000 Br  0  0  0  0  0  0  0  0  0  0  0  0
    3.4325    1.5469    0.0000 O   0  0  0  0  0  0  0  0  0  0  0  0
    2.0036   -0.9281    0.0000 O   0  0  0  0  0  0  0  0  0  0  0  0
    2.7180    0.3094    0.0000 N   0  0  0  0  0  0  0  0  0  0  0  0
    4.1470    0.3094    0.0000 N   0  0  0  0  0  0  0  0  0  0  0  0
    3.4325    0.7219    0.0000 C   0  0  0  0  0  0  0  0  0  0  0  0
    2.7180   -0.5156    0.0000 C   0  0  0  0  0  0  0  0  0  0  0  0
    3.4325   -0.9281    0.0000 C   0  0  0  0  0  0  0  0  0  0  0  0
    4.1470   -0.5156    0.0000 C   0  0  0  0  0  0  0  0  0  0  0  0
  2  6  2  0  0  0  0
  3  7  2  0  0  0  0
  4  6  1  0  0  0  0
  4  7  1  0  0  0  0
  5  6  1  0  0  0  0
  5  9  1  0  0  0  0
  7  8  1  0  0  0  0
  8  9  2  0  0  0  0
M  END
> <PUBCHEM_COMPOUND_ID_TYPE>
0

> <PUBCHEM_TOTAL_CHARGE>
0

> <PUBCHEM_SUBSTANCE_ID>
310938418

> <PUBCHEM_SUBSTANCE_VERSION>
1

> <PUBCHEM_EXT_DATASOURCE_NAME>
4488

> <PUBCHEM_EXT_DATASOURCE_REGID>
SCHEMBL16116311

> <PUBCHEM_SUBSTANCE_COMMENT>
InChI=1S/C4H4N2O2.BrH/c7-3-1-2-5-4(8)6-3;/h1-2H,(H2,5,6,7,8);1H
InChIKey=UNJKJIFDCXDYMJ-UHFFFAOYSA-N

> <PUBCHEM_SUBSTANCE_SYNONYM>
SCHEMBL16116311

> <PUBCHEM_XREF_EXT_ID>
SCHEMBL16116311

> <PUBCHEM_EXT_DATASOURCE_URL>
https://www.surechembl.org/

> <PUBCHEM_EXT_SUBSTANCE_URL>
https://www.surechembl.org/chemical/SCHEMBL16116311

> <PUBCHEM_CID_ASSOCIATIONS>
23224034  1
260  2
1174  2

> <PUBCHEM_COORDINATE_TYPE>
1
3

$$$$
