310929945
  -OEChem-07211613022D

 22 22  0     1  0  0  0  0  0999 V2000
   10.0216   -1.2360    0.0000 Cl  0  0  0  0  0  0  0  0  0  0  0  0
    4.8438   -2.4386    0.0000 O   0  0  0  0  0  0  0  0  0  0  0  0
    3.4407   -2.4386    0.0000 O   0  0  0  0  0  0  0  0  0  0  0  0
    7.6831    0.0000    0.0000 O   0  5  0  0  0  0  0  0  0  0  0  0
    8.3847   -1.2360    0.0000 O   0  0  0  0  0  0  0  0  0  0  0  0
    4.1422   -1.2360    0.0000 O   0  0  0  0  0  0  0  0  0  0  0  0
    7.6831   -0.8352    0.0000 N   0  3  0  0  0  0  0  0  0  0  0  0
    1.2026   -1.2360    0.0000 N   0  0  3  0  0  0  0  0  0  0  0  0
    5.5452   -2.0377    0.0000 C   0  0  0  0  0  0  0  0  0  0  0  0
    6.9817   -1.2360    0.0000 C   0  0  0  0  0  0  0  0  0  0  0  0
    5.5787   -1.2360    0.0000 C   0  0  0  0  0  0  0  0  0  0  0  0
    6.2801   -2.4386    0.0000 C   0  0  0  0  0  0  0  0  0  0  0  0
    6.2801   -0.8017    0.0000 C   0  0  0  0  0  0  0  0  0  0  0  0
    6.9817   -2.0377    0.0000 C   0  0  0  0  0  0  0  0  0  0  0  0
    1.3028   -2.0377    0.0000 C   0  0  3  0  0  0  0  0  0  0  0  0
    4.1422   -2.0377    0.0000 C   0  0  0  0  0  0  0  0  0  0  0  0
    2.0043   -2.4720    0.0000 C   0  0  0  0  0  0  0  0  0  0  0  0
    0.5345   -2.4052    0.0000 C   0  0  0  0  0  0  0  0  0  0  0  0
    0.4009   -1.0690    0.0000 C   0  0  0  0  0  0  0  0  0  0  0  0
    2.7058   -2.0377    0.0000 C   0  0  0  0  0  0  0  0  0  0  0  0
    0.0000   -1.7705    0.0000 C   0  0  0  0  0  0  0  0  0  0  0  0
    1.8039   -0.7015    0.0000 C   0  0  0  0  0  0  0  0  0  0  0  0
  2  9  1  0  0  0  0
  2 16  1  0  0  0  0
  3 16  1  0  0  0  0
  3 20  1  0  0  0  0
  4  7  1  0  0  0  0
  5  7  2  0  0  0  0
  6 16  2  0  0  0  0
  7 10  1  0  0  0  0
  8 15  1  0  0  0  0
  8 19  1  0  0  0  0
  8 22  1  0  0  0  0
  9 11  2  0  0  0  0
  9 12  1  0  0  0  0
 10 13  2  0  0  0  0
 10 14  1  0  0  0  0
 11 13  1  0  0  0  0
 12 14  2  0  0  0  0
 15 17  1  0  0  0  0
 15 18  1  0  0  0  0
 17 20  1  0  0  0  0
 18 21  1  0  0  0  0
 19 21  1  0  0  0  0
M  CHG  2   4  -1   7   1
M  END
> <PUBCHEM_COMPOUND_ID_TYPE>
0

> <PUBCHEM_TOTAL_CHARGE>
0

> <PUBCHEM_SUBSTANCE_ID>
310929945

> <PUBCHEM_SUBSTANCE_VERSION>
1

> <PUBCHEM_EXT_DATASOURCE_NAME>
4488

> <PUBCHEM_EXT_DATASOURCE_REGID>
SCHEMBL16107169

> <PUBCHEM_SUBSTANCE_COMMENT>
InChI=1S/C14H18N2O5.ClH/c1-15-9-2-3-11(15)8-10-20-14(17)21-13-6-4-12(5-7-13)16(18)19;/h4-7,11H,2-3,8-10H2,1H3;1H
InChIKey=LOOGNAAHWIFERM-UHFFFAOYSA-N

> <PUBCHEM_SUBSTANCE_SYNONYM>
SCHEMBL16107169

> <PUBCHEM_XREF_EXT_ID>
SCHEMBL16107169

> <PUBCHEM_EXT_DATASOURCE_URL>
https://www.surechembl.org/

> <PUBCHEM_EXT_SUBSTANCE_URL>
https://www.surechembl.org/chemical/SCHEMBL16107169

> <PUBCHEM_CID_ASSOCIATIONS>
117599205  1
313  2
117599206  2

> <PUBCHEM_COORDINATE_TYPE>
1
3

$$$$
