310928883
  -OEChem-07211613022D

 14 13  0     0  0  0  0  0  0999 V2000
    2.2539    0.0000    0.0000 Cl  0  0  0  0  0  0  0  0  0  0  0  0
    0.6039    0.8250    0.0000 F   0  0  0  0  0  0  0  0  0  0  0  0
   -0.1105    1.2375    0.0000 F   0  0  0  0  0  0  0  0  0  0  0  0
    0.6039   -0.0000    0.0000 F   0  0  0  0  0  0  0  0  0  0  0  0
   -1.5395   -1.2375    0.0000 N   0  0  0  0  0  0  0  0  0  0  0  0
    0.6039   -0.8250    0.0000 N   0  0  0  0  0  0  0  0  0  0  0  0
   -0.8250    0.0000    0.0000 C   0  0  0  0  0  0  0  0  0  0  0  0
   -0.1105    0.4125    0.0000 C   0  0  0  0  0  0  0  0  0  0  0  0
   -0.8250   -0.8250    0.0000 C   0  0  0  0  0  0  0  0  0  0  0  0
   -1.5395    0.4125    0.0000 C   0  0  0  0  0  0  0  0  0  0  0  0
   -0.1105   -1.2375    0.0000 C   0  0  0  0  0  0  0  0  0  0  0  0
   -2.2539    0.0000    0.0000 C   0  0  0  0  0  0  0  0  0  0  0  0
   -2.2539   -0.8250    0.0000 C   0  0  0  0  0  0  0  0  0  0  0  0
    1.4289    0.0000    0.0000 H   0  0  0  0  0  0  0  0  0  0  0  0
  1 14  1  0  0  0  0
  2  8  1  0  0  0  0
  3  8  1  0  0  0  0
  4  8  1  0  0  0  0
  5  9  2  0  0  0  0
  5 13  1  0  0  0  0
  6 11  1  0  0  0  0
  7  8  1  0  0  0  0
  7  9  1  0  0  0  0
  7 10  2  0  0  0  0
  9 11  1  0  0  0  0
 10 12  1  0  0  0  0
 12 13  2  0  0  0  0
M  END
> <PUBCHEM_COMPOUND_ID_TYPE>
0

> <PUBCHEM_TOTAL_CHARGE>
0

> <PUBCHEM_SUBSTANCE_ID>
310928883

> <PUBCHEM_SUBSTANCE_VERSION>
2

> <PUBCHEM_EXT_DATASOURCE_NAME>
11752

> <PUBCHEM_EXT_DATASOURCE_REGID>
BD262933

> <PUBCHEM_SUBSTANCE_SYNONYM>
(3-(Trifluoromethyl)pyridin-2-yl)methanamine hydrochloride
1187932-68-8

> <PUBCHEM_GENERIC_REGISTRY_NAME>
1187932-68-8

> <PUBCHEM_XREF_EXT_ID>
BD262933

> <PUBCHEM_EXT_DATASOURCE_URL>
http://www.bidepharmatech.com/en/index.html

> <PUBCHEM_EXT_SUBSTANCE_URL>
http://www.bidepharmatech.com/en/goodsview_goodscode_BD262933.html

> <PUBCHEM_CID_ASSOCIATIONS>
17998869  1
313  2
3830223  2

> <PUBCHEM_COORDINATE_TYPE>
1
3

$$$$
