310938078
  -OEChem-07211613022D

 41 45  0     0  0  0  0  0  0999 V2000
    2.4648   -0.7843    0.0000 S   0  0  0  0  0  0  0  0  0  0  0  0
    7.0211   -4.8923    0.0000 F   0  0  0  0  0  0  0  0  0  0  0  0
    9.7847   -1.6805    0.0000 F   0  0  0  0  0  0  0  0  0  0  0  0
    9.0751   -2.9503    0.0000 F   0  0  0  0  0  0  0  0  0  0  0  0
    9.0751   -2.0914    0.0000 F   0  0  0  0  0  0  0  0  0  0  0  0
    3.2491   -1.0084    0.0000 O   0  0  0  0  0  0  0  0  0  0  0  0
    1.6432   -0.5228    0.0000 O   0  0  0  0  0  0  0  0  0  0  0  0
   10.4943   -3.7720    0.0000 O   0  0  0  0  0  0  0  0  0  0  0  0
   11.2038   -2.5022    0.0000 O   0  0  0  0  0  0  0  0  0  0  0  0
    2.2034   -1.5685    0.0000 N   0  0  0  0  0  0  0  0  0  0  0  0
    6.3488   -3.3612    0.0000 N   0  0  0  0  0  0  0  0  0  0  0  0
    3.6972   -4.5189    0.0000 N   0  0  0  0  0  0  0  0  0  0  0  0
    0.0000   -2.6516    0.0000 N   0  0  0  0  0  0  0  0  0  0  0  0
    5.0417   -3.9587    0.0000 N   0  0  0  0  0  0  0  0  0  0  0  0
    7.4319   -2.6142    0.0000 N   0  0  0  0  0  0  0  0  0  0  0  0
    4.8923   -5.3779    0.0000 N   0  0  0  0  0  0  0  0  0  0  0  0
    2.7263   -2.2408    0.0000 C   0  0  0  0  0  0  0  0  0  0  0  0
    2.2034   -2.8756    0.0000 C   0  0  0  0  0  0  0  0  0  0  0  0
    1.4565   -1.8300    0.0000 C   0  0  0  0  0  0  0  0  0  0  0  0
    1.4565   -2.6516    0.0000 C   0  0  0  0  0  0  0  0  0  0  0  0
    2.5769   -3.6599    0.0000 C   0  0  0  0  0  0  0  0  0  0  0  0
    3.5105   -2.3155    0.0000 C   0  0  0  0  0  0  0  0  0  0  0  0
    3.3985   -3.7346    0.0000 C   0  0  0  0  0  0  0  0  0  0  0  0
    0.7096   -1.3818    0.0000 C   0  0  0  0  0  0  0  0  0  0  0  0
    0.7096   -3.0997    0.0000 C   0  0  0  0  0  0  0  0  0  0  0  0
    3.8467   -3.0997    0.0000 C   0  0  0  0  0  0  0  0  0  0  0  0
    5.8633   -4.0334    0.0000 C   0  0  0  0  0  0  0  0  0  0  0  0
    6.0500   -2.6142    0.0000 C   0  0  0  0  0  0  0  0  0  0  0  0
    0.0000   -1.8300    0.0000 C   0  0  0  0  0  0  0  0  0  0  0  0
    4.5189   -4.5936    0.0000 C   0  0  0  0  0  0  0  0  0  0  0  0
    2.6889    0.0000    0.0000 C   0  0  0  0  0  0  0  0  0  0  0  0
    6.7596   -2.0914    0.0000 C   0  0  0  0  0  0  0  0  0  0  0  0
    6.1995   -4.8176    0.0000 C   0  0  0  0  0  0  0  0  0  0  0  0
    7.1704   -3.3985    0.0000 C   0  0  0  0  0  0  0  0  0  0  0  0
    5.3405   -2.2408    0.0000 C   0  0  0  0  0  0  0  0  0  0  0  0
    5.6766   -5.4525    0.0000 C   0  0  0  0  0  0  0  0  0  0  0  0
    6.6850   -1.2697    0.0000 C   0  0  0  0  0  0  0  0  0  0  0  0
    5.2658   -1.4565    0.0000 C   0  0  0  0  0  0  0  0  0  0  0  0
    5.9380   -0.9336    0.0000 C   0  0  0  0  0  0  0  0  0  0  0  0
    9.7847   -2.5022    0.0000 C   0  0  0  0  0  0  0  0  0  0  0  0
   10.4943   -2.9503    0.0000 C   0  0  0  0  0  0  0  0  0  0  0  0
  1  6  2  0  0  0  0
  1  7  2  0  0  0  0
  1 10  1  0  0  0  0
  1 31  1  0  0  0  0
  2 33  1  0  0  0  0
  3 40  1  0  0  0  0
  4 40  1  0  0  0  0
  5 40  1  0  0  0  0
  8 41  2  0  0  0  0
  9 41  1  0  0  0  0
 10 17  1  0  0  0  0
 10 19  1  0  0  0  0
 11 27  1  0  0  0  0
 11 28  1  0  0  0  0
 11 34  1  0  0  0  0
 12 23  1  0  0  0  0
 12 30  1  0  0  0  0
 13 25  1  0  0  0  0
 13 29  1  0  0  0  0
 14 27  2  0  0  0  0
 14 30  1  0  0  0  0
 15 32  1  0  0  0  0
 15 34  2  0  0  0  0
 16 30  2  0  0  0  0
 16 36  1  0  0  0  0
 17 18  2  0  0  0  0
 17 22  1  0  0  0  0
 18 20  1  0  0  0  0
 18 21  1  0  0  0  0
 19 20  2  0  0  0  0
 19 24  1  0  0  0  0
 20 25  1  0  0  0  0
 21 23  2  0  0  0  0
 22 26  2  0  0  0  0
 23 26  1  0  0  0  0
 24 29  1  0  0  0  0
 27 33  1  0  0  0  0
 28 32  2  0  0  0  0
 28 35  1  0  0  0  0
 32 37  1  0  0  0  0
 33 36  2  0  0  0  0
 35 38  2  0  0  0  0
 37 39  2  0  0  0  0
 38 39  1  0  0  0  0
 40 41  1  0  0  0  0
M  END
> <PUBCHEM_COMPOUND_ID_TYPE>
0

> <PUBCHEM_TOTAL_CHARGE>
0

> <PUBCHEM_SUBSTANCE_ID>
310938078

> <PUBCHEM_SUBSTANCE_VERSION>
1

> <PUBCHEM_EXT_DATASOURCE_NAME>
4488

> <PUBCHEM_EXT_DATASOURCE_REGID>
SCHEMBL16115923

> <PUBCHEM_SUBSTANCE_COMMENT>
InChI=1S/C23H20FN7O2S.C2HF3O2/c1-34(32,33)31-19-7-6-14(10-15(19)16-11-25-9-8-20(16)31)28-23-26-12-17(24)22(29-23)30-13-27-18-4-2-3-5-21(18)30;3-2(4,5)1(6)7/h2-7,10,12-13,25H,8-9,11H2,1H3,(H,26,28,29);(H,6,7)
InChIKey=PEJXYRPPFLNGLU-UHFFFAOYSA-N

> <PUBCHEM_SUBSTANCE_SYNONYM>
SCHEMBL16115923

> <PUBCHEM_XREF_EXT_ID>
SCHEMBL16115923

> <PUBCHEM_EXT_DATASOURCE_URL>
https://www.surechembl.org/

> <PUBCHEM_EXT_SUBSTANCE_URL>
https://www.surechembl.org/chemical/SCHEMBL16115923

> <PUBCHEM_CID_ASSOCIATIONS>
86300963  1
6422  2
86300964  2

> <PUBCHEM_COORDINATE_TYPE>
1
3

$$$$
