310932053
  -OEChem-07211613022D

  8  6  0     1  0  0  0  0  0999 V2000
    0.5103    0.0589    0.0000 N   0  0  0  0  0  0  0  0  0  0  0  0
   -1.6331   -0.3536    0.0000 N   0  0  0  0  0  0  0  0  0  0  0  0
    4.1786    0.0000    0.0000 N   0  0  0  0  0  0  0  0  0  0  0  0
   -0.9186    0.0589    0.0000 C   0  0  3  0  0  0  0  0  0  0  0  0
   -0.2041   -0.3536    0.0000 C   0  0  0  0  0  0  0  0  0  0  0  0
    1.2248   -0.3536    0.0000 C   0  0  0  0  0  0  0  0  0  0  0  0
   -0.9186    0.8839    0.0000 C   0  0  0  0  0  0  0  0  0  0  0  0
    1.9393    0.0589    0.0000 C   0  0  0  0  0  0  0  0  0  0  0  0
  1  5  1  0  0  0  0
  1  6  1  0  0  0  0
  2  4  1  0  0  0  0
  4  5  1  0  0  0  0
  4  7  1  0  0  0  0
  6  8  1  0  0  0  0
M  END
> <PUBCHEM_COMPOUND_ID_TYPE>
0

> <PUBCHEM_TOTAL_CHARGE>
0

> <PUBCHEM_SUBSTANCE_ID>
310932053

> <PUBCHEM_SUBSTANCE_VERSION>
1

> <PUBCHEM_EXT_DATASOURCE_NAME>
4488

> <PUBCHEM_EXT_DATASOURCE_REGID>
SCHEMBL16109399

> <PUBCHEM_SUBSTANCE_COMMENT>
InChI=1S/C5H14N2.H3N/c1-3-7-4-5(2)6;/h5,7H,3-4,6H2,1-2H3;1H3
InChIKey=UPMBTPIOCMJDJU-UHFFFAOYSA-N

> <PUBCHEM_SUBSTANCE_SYNONYM>
SCHEMBL16109399

> <PUBCHEM_XREF_EXT_ID>
SCHEMBL16109399

> <PUBCHEM_EXT_DATASOURCE_URL>
https://www.surechembl.org/

> <PUBCHEM_EXT_SUBSTANCE_URL>
https://www.surechembl.org/chemical/SCHEMBL16109399

> <PUBCHEM_CID_ASSOCIATIONS>
117600683  1
222  2
15561927  2

> <PUBCHEM_COORDINATE_TYPE>
1
3

$$$$
