310930233
  -OEChem-07211613022D

  5  3  0     0  0  0  0  0  0999 V2000
    0.0000    0.0000    0.0000 Zn  0  0  0  0  0  0  0  0  0  0  0  0
    2.0036    0.0000    0.0000 S   0  0  0  0  0  0  0  0  0  0  0  0
    3.2411   -0.7145    0.0000 O   0  0  0  0  0  0  0  0  0  0  0  0
    2.8286    0.0000    0.0000 C   0  0  0  0  0  0  0  0  0  0  0  0
    3.2411    0.7145    0.0000 C   0  0  0  0  0  0  0  0  0  0  0  0
  2  4  2  0  0  0  0
  3  4  1  0  0  0  0
  4  5  1  0  0  0  0
M  END
> <PUBCHEM_COMPOUND_ID_TYPE>
0

> <PUBCHEM_TOTAL_CHARGE>
0

> <PUBCHEM_SUBSTANCE_ID>
310930233

> <PUBCHEM_SUBSTANCE_VERSION>
1

> <PUBCHEM_EXT_DATASOURCE_NAME>
4488

> <PUBCHEM_EXT_DATASOURCE_REGID>
SCHEMBL16107504

> <PUBCHEM_SUBSTANCE_COMMENT>
InChI=1S/C2H4OS.Zn/c1-2(3)4;/h1H3,(H,3,4);
InChIKey=ZQDVZBXBHUIHOQ-UHFFFAOYSA-N

> <PUBCHEM_SUBSTANCE_SYNONYM>
SCHEMBL16107504

> <PUBCHEM_XREF_EXT_ID>
SCHEMBL16107504

> <PUBCHEM_EXT_DATASOURCE_URL>
https://www.surechembl.org/

> <PUBCHEM_EXT_SUBSTANCE_URL>
https://www.surechembl.org/chemical/SCHEMBL16107504

> <PUBCHEM_CID_ASSOCIATIONS>
117599433  1
10484  2
23994  2

> <PUBCHEM_COORDINATE_TYPE>
1
3

$$$$
