310932071
  -OEChem-07211613022D

 52 60  0     0  0  0  0  0  0999 V2000
    0.9494   -0.3085    0.0000 P   0  0  0  0  0  0  0  0  0  0  0  0
    9.7233   -0.3085    0.0000 P   0  0  0  0  0  0  0  0  0  0  0  0
   -0.5156   -0.1857    0.0000 O   0  0  0  0  0  0  0  0  0  0  0  0
    8.2583   -0.1857    0.0000 O   0  0  0  0  0  0  0  0  0  0  0  0
   -1.0482    0.4443    0.0000 C   0  0  0  0  0  0  0  0  0  0  0  0
    7.7257    0.4443    0.0000 C   0  0  0  0  0  0  0  0  0  0  0  0
   -0.6136    1.1456    0.0000 C   0  0  0  0  0  0  0  0  0  0  0  0
    8.1603    1.1456    0.0000 C   0  0  0  0  0  0  0  0  0  0  0  0
    0.2482    0.1262    0.0000 C   0  0  0  0  0  0  0  0  0  0  0  0
    9.0221    0.1262    0.0000 C   0  0  0  0  0  0  0  0  0  0  0  0
   -1.8728    0.4701    0.0000 C   0  0  0  0  0  0  0  0  0  0  0  0
    6.9011    0.4701    0.0000 C   0  0  0  0  0  0  0  0  0  0  0  0
    0.1876    0.9489    0.0000 C   0  0  0  0  0  0  0  0  0  0  0  0
    8.9615    0.9489    0.0000 C   0  0  0  0  0  0  0  0  0  0  0  0
   -2.2628    1.1971    0.0000 C   0  0  0  0  0  0  0  0  0  0  0  0
    6.5111    1.1971    0.0000 C   0  0  0  0  0  0  0  0  0  0  0  0
   -1.0036    1.8726    0.0000 C   0  0  0  0  0  0  0  0  0  0  0  0
    7.7703    1.8726    0.0000 C   0  0  0  0  0  0  0  0  0  0  0  0
    0.9237   -1.1331    0.0000 C   0  0  0  0  0  0  0  0  0  0  0  0
    1.6764    0.0815    0.0000 C   0  0  0  0  0  0  0  0  0  0  0  0
   10.4503    0.0815    0.0000 C   0  0  0  0  0  0  0  0  0  0  0  0
    9.6976   -1.1331    0.0000 C   0  0  0  0  0  0  0  0  0  0  0  0
   -1.8282    1.8983    0.0000 C   0  0  0  0  0  0  0  0  0  0  0  0
    6.9457    1.8983    0.0000 C   0  0  0  0  0  0  0  0  0  0  0  0
   -2.3074   -0.2312    0.0000 C   0  0  0  0  0  0  0  0  0  0  0  0
    6.4665   -0.2312    0.0000 C   0  0  0  0  0  0  0  0  0  0  0  0
   -3.0874    1.2229    0.0000 C   0  0  0  0  0  0  0  0  0  0  0  0
    5.6865    1.2229    0.0000 C   0  0  0  0  0  0  0  0  0  0  0  0
   -3.1320   -0.2054    0.0000 C   0  0  0  0  0  0  0  0  0  0  0  0
    5.6419   -0.2054    0.0000 C   0  0  0  0  0  0  0  0  0  0  0  0
    1.6249   -1.5677    0.0000 C   0  0  0  0  0  0  0  0  0  0  0  0
    1.7022    0.9061    0.0000 C   0  0  0  0  0  0  0  0  0  0  0  0
   10.4761    0.9061    0.0000 C   0  0  0  0  0  0  0  0  0  0  0  0
   10.3988   -1.5677    0.0000 C   0  0  0  0  0  0  0  0  0  0  0  0
    0.1967   -1.5230    0.0000 C   0  0  0  0  0  0  0  0  0  0  0  0
    2.3777   -0.3531    0.0000 C   0  0  0  0  0  0  0  0  0  0  0  0
   11.1516   -0.3531    0.0000 C   0  0  0  0  0  0  0  0  0  0  0  0
    8.9706   -1.5230    0.0000 C   0  0  0  0  0  0  0  0  0  0  0  0
   -3.5220    0.5216    0.0000 C   0  0  0  0  0  0  0  0  0  0  0  0
    5.2519    0.5216    0.0000 C   0  0  0  0  0  0  0  0  0  0  0  0
    1.5992   -2.3923    0.0000 C   0  0  0  0  0  0  0  0  0  0  0  0
    2.4292    1.2961    0.0000 C   0  0  0  0  0  0  0  0  0  0  0  0
   11.2031    1.2961    0.0000 C   0  0  0  0  0  0  0  0  0  0  0  0
   10.3730   -2.3923    0.0000 C   0  0  0  0  0  0  0  0  0  0  0  0
    0.1709   -2.3476    0.0000 C   0  0  0  0  0  0  0  0  0  0  0  0
    3.1047    0.0369    0.0000 C   0  0  0  0  0  0  0  0  0  0  0  0
   11.8786    0.0369    0.0000 C   0  0  0  0  0  0  0  0  0  0  0  0
    8.9448   -2.3476    0.0000 C   0  0  0  0  0  0  0  0  0  0  0  0
    0.8722   -2.7823    0.0000 C   0  0  0  0  0  0  0  0  0  0  0  0
    3.1305    0.8615    0.0000 C   0  0  0  0  0  0  0  0  0  0  0  0
   11.9043    0.8615    0.0000 C   0  0  0  0  0  0  0  0  0  0  0  0
    9.6460   -2.7823    0.0000 C   0  0  0  0  0  0  0  0  0  0  0  0
  1  9  1  0  0  0  0
  1 19  1  0  0  0  0
  1 20  1  0  0  0  0
  2 10  1  0  0  0  0
  2 21  1  0  0  0  0
  2 22  1  0  0  0  0
  3  5  1  0  0  0  0
  3  9  1  0  0  0  0
  4  6  1  0  0  0  0
  4 10  1  0  0  0  0
  5  7  2  0  0  0  0
  5 11  1  0  0  0  0
  6  8  2  0  0  0  0
  6 12  1  0  0  0  0
  7 13  1  0  0  0  0
  7 17  1  0  0  0  0
  8 14  1  0  0  0  0
  8 18  1  0  0  0  0
  9 13  2  0  0  0  0
 10 14  2  0  0  0  0
 11 15  1  0  0  0  0
 11 25  2  0  0  0  0
 12 16  1  0  0  0  0
 12 26  2  0  0  0  0
 15 23  1  0  0  0  0
 15 27  2  0  0  0  0
 16 24  1  0  0  0  0
 16 28  2  0  0  0  0
 17 23  2  0  0  0  0
 18 24  2  0  0  0  0
 19 31  2  0  0  0  0
 19 35  1  0  0  0  0
 20 32  2  0  0  0  0
 20 36  1  0  0  0  0
 21 33  2  0  0  0  0
 21 37  1  0  0  0  0
 22 34  2  0  0  0  0
 22 38  1  0  0  0  0
 25 29  1  0  0  0  0
 26 30  1  0  0  0  0
 27 39  1  0  0  0  0
 28 40  1  0  0  0  0
 29 39  2  0  0  0  0
 30 40  2  0  0  0  0
 31 41  1  0  0  0  0
 32 42  1  0  0  0  0
 33 43  1  0  0  0  0
 34 44  1  0  0  0  0
 35 45  2  0  0  0  0
 36 46  2  0  0  0  0
 37 47  2  0  0  0  0
 38 48  2  0  0  0  0
 41 49  2  0  0  0  0
 42 50  2  0  0  0  0
 43 51  2  0  0  0  0
 44 52  2  0  0  0  0
 45 49  1  0  0  0  0
 46 50  1  0  0  0  0
 47 51  1  0  0  0  0
 48 52  1  0  0  0  0
M  END
> <PUBCHEM_COMPOUND_ID_TYPE>
0

> <PUBCHEM_TOTAL_CHARGE>
0

> <PUBCHEM_SUBSTANCE_ID>
310932071

> <PUBCHEM_SUBSTANCE_VERSION>
1

> <PUBCHEM_EXT_DATASOURCE_NAME>
4488

> <PUBCHEM_EXT_DATASOURCE_REGID>
SCHEMBL16109418

> <PUBCHEM_SUBSTANCE_COMMENT>
InChI=1S/2C24H17OP/c2*1-3-10-20(11-4-1)26(21-12-5-2-6-13-21)23-17-19-16-15-18-9-7-8-14-22(18)24(19)25-23/h2*1-17H
InChIKey=GZTQXVKCFSQNQY-UHFFFAOYSA-N

> <PUBCHEM_SUBSTANCE_SYNONYM>
SCHEMBL16109418

> <PUBCHEM_XREF_EXT_ID>
SCHEMBL16109418

> <PUBCHEM_EXT_DATASOURCE_URL>
https://www.surechembl.org/

> <PUBCHEM_EXT_SUBSTANCE_URL>
https://www.surechembl.org/chemical/SCHEMBL16109418

> <PUBCHEM_CID_ASSOCIATIONS>
117600697  1
117600698  2

> <PUBCHEM_COORDINATE_TYPE>
1
3

$$$$
