310934295
  -OEChem-07211613022D

 12 12  0     0  0  0  0  0  0999 V2000
    4.5491   -1.3041    0.0000 S   0  0  0  0  0  0  0  0  0  0  0  0
    3.8818    0.0000    0.0000 O   0  0  0  0  0  0  0  0  0  0  0  0
    2.9720   -2.7598    0.0000 O   0  0  0  0  0  0  0  0  0  0  0  0
    3.2147   -1.3041    0.0000 N   0  0  0  0  0  0  0  0  0  0  0  0
    0.6672   -0.7430    0.0000 N   0  0  0  0  0  0  0  0  0  0  0  0
    3.8818   -0.8188    0.0000 C   0  0  0  0  0  0  0  0  0  0  0  0
    3.4724   -2.0926    0.0000 C   0  0  0  0  0  0  0  0  0  0  0  0
    4.2913   -2.0926    0.0000 C   0  0  0  0  0  0  0  0  0  0  0  0
    1.3344   -1.2282    0.0000 C   0  0  0  0  0  0  0  0  0  0  0  0
    0.0000   -1.2282    0.0000 C   0  0  0  0  0  0  0  0  0  0  0  0
    1.0766   -2.0168    0.0000 C   0  0  0  0  0  0  0  0  0  0  0  0
    0.2578   -2.0168    0.0000 C   0  0  0  0  0  0  0  0  0  0  0  0
  1  6  1  0  0  0  0
  1  8  1  0  0  0  0
  2  6  2  0  0  0  0
  3  7  2  0  0  0  0
  4  6  1  0  0  0  0
  4  7  1  0  0  0  0
  5  9  1  0  0  0  0
  5 10  1  0  0  0  0
  7  8  1  0  0  0  0
  9 11  1  0  0  0  0
 10 12  1  0  0  0  0
 11 12  1  0  0  0  0
M  END
> <PUBCHEM_COMPOUND_ID_TYPE>
0

> <PUBCHEM_TOTAL_CHARGE>
0

> <PUBCHEM_SUBSTANCE_ID>
310934295

> <PUBCHEM_SUBSTANCE_VERSION>
1

> <PUBCHEM_EXT_DATASOURCE_NAME>
4488

> <PUBCHEM_EXT_DATASOURCE_REGID>
SCHEMBL16111753

> <PUBCHEM_SUBSTANCE_COMMENT>
InChI=1S/C4H9N.C3H3NO2S/c1-2-4-5-3-1;5-2-1-7-3(6)4-2/h5H,1-4H2;1H2,(H,4,5,6)
InChIKey=YIRIMSHIHMXYFJ-UHFFFAOYSA-N

> <PUBCHEM_SUBSTANCE_SYNONYM>
SCHEMBL16111753

> <PUBCHEM_XREF_EXT_ID>
SCHEMBL16111753

> <PUBCHEM_EXT_DATASOURCE_URL>
https://www.surechembl.org/

> <PUBCHEM_EXT_SUBSTANCE_URL>
https://www.surechembl.org/chemical/SCHEMBL16111753

> <PUBCHEM_CID_ASSOCIATIONS>
117602540  1
5437  2
31268  2

> <PUBCHEM_COORDINATE_TYPE>
1
3

$$$$
