310932130
  -OEChem-07211613022D

 19 17  0     0  0  0  0  0  0999 V2000
    6.9390   -2.7353    0.0000 N   0  3  0  0  0  0  0  0  0  0  0  0
    6.9390   -1.3820    0.0000 N   0  0  0  0  0  0  0  0  0  0  0  0
    1.4396   -1.4396    0.0000 N   0  0  0  0  0  0  0  0  0  0  0  0
    4.4917   -1.4396    0.0000 N   0  0  0  0  0  0  0  0  0  0  0  0
    0.0000   -2.2458    0.0000 N   0  0  0  0  0  0  0  0  0  0  0  0
    3.0808   -2.2458    0.0000 N   0  0  0  0  0  0  0  0  0  0  0  0
    7.3997   -2.0443    0.0000 C   0  0  0  0  0  0  0  0  0  0  0  0
    6.1616   -2.4762    0.0000 C   0  0  0  0  0  0  0  0  0  0  0  0
    6.1616   -1.6412    0.0000 C   0  0  0  0  0  0  0  0  0  0  0  0
    8.2347   -2.0443    0.0000 C   0  0  0  0  0  0  0  0  0  0  0  0
    7.1982   -3.5127    0.0000 C   0  0  0  0  0  0  0  0  0  0  0  0
    7.1982   -0.6047    0.0000 C   0  0  0  0  0  0  0  0  0  0  0  0
    8.6378   -1.3532    0.0000 C   0  0  0  0  0  0  0  0  0  0  0  0
    7.9755   -3.6855    0.0000 C   0  0  0  0  0  0  0  0  0  0  0  0
    6.6223    0.0000    0.0000 C   0  0  0  0  0  0  0  0  0  0  0  0
    8.2347   -0.6334    0.0000 C   0  0  0  0  0  0  0  0  0  0  0  0
    8.5226   -3.0808    0.0000 C   0  0  0  0  0  0  0  0  0  0  0  0
    0.7198   -1.8427    0.0000 C   0  0  0  0  0  0  0  0  0  0  0  0
    3.8006   -1.8427    0.0000 C   0  0  0  0  0  0  0  0  0  0  0  0
  1  7  2  0  0  0  0
  1  8  1  0  0  0  0
  1 11  1  0  0  0  0
  2  7  1  0  0  0  0
  2  9  1  0  0  0  0
  2 12  1  0  0  0  0
  3 18  3  0  0  0  0
  4 19  3  0  0  0  0
  5 18  1  0  0  0  0
  6 19  1  0  0  0  0
  7 10  1  0  0  0  0
  8  9  2  0  0  0  0
 10 13  1  0  0  0  0
 11 14  1  0  0  0  0
 12 15  2  0  0  0  0
 13 16  2  0  0  0  0
 14 17  2  0  0  0  0
M  CHG  1   1   1
M  END
> <PUBCHEM_COMPOUND_ID_TYPE>
0

> <PUBCHEM_TOTAL_CHARGE>
1

> <PUBCHEM_SUBSTANCE_ID>
310932130

> <PUBCHEM_SUBSTANCE_VERSION>
1

> <PUBCHEM_EXT_DATASOURCE_NAME>
4488

> <PUBCHEM_EXT_DATASOURCE_REGID>
SCHEMBL16109482

> <PUBCHEM_SUBSTANCE_COMMENT>
InChI=1S/C11H15N2.2CH2N2/c1-4-7-11-12(6-3)9-10-13(11)8-5-2;2*2-1-3/h4-6,9-10H,1-3,7-8H2;2*2H2/q+1;;
InChIKey=BCEWKGWTLYCFPO-UHFFFAOYSA-N

> <PUBCHEM_SUBSTANCE_SYNONYM>
SCHEMBL16109482

> <PUBCHEM_XREF_EXT_ID>
SCHEMBL16109482

> <PUBCHEM_EXT_DATASOURCE_URL>
https://www.surechembl.org/

> <PUBCHEM_EXT_SUBSTANCE_URL>
https://www.surechembl.org/chemical/SCHEMBL16109482

> <PUBCHEM_CID_ASSOCIATIONS>
117600742  1
9864  2
117600456  2

> <PUBCHEM_COORDINATE_TYPE>
1
3

$$$$
