310938152
  -OEChem-07211613022D

 37 41  0     0  0  0  0  0  0999 V2000
    7.0275   -3.4719    0.0000 F   0  0  0  0  0  0  0  0  0  0  0  0
   11.1269   -0.9621    0.0000 F   0  0  0  0  0  0  0  0  0  0  0  0
   10.4158   -2.2170    0.0000 F   0  0  0  0  0  0  0  0  0  0  0  0
   10.4158   -1.3804    0.0000 F   0  0  0  0  0  0  0  0  0  0  0  0
   11.8380   -3.0536    0.0000 O   0  0  0  0  0  0  0  0  0  0  0  0
   12.5491   -1.7987    0.0000 O   0  0  0  0  0  0  0  0  0  0  0  0
    7.1530   -2.0079    0.0000 N   0  0  0  0  0  0  0  0  0  0  0  0
    5.0615   -2.5517    0.0000 N   0  0  0  0  0  0  0  0  0  0  0  0
    2.2170   -0.1673    0.0000 N   0  0  0  0  0  0  0  0  0  0  0  0
    6.7347   -0.7111    0.0000 N   0  0  0  0  0  0  0  0  0  0  0  0
    3.7229   -3.0955    0.0000 N   0  0  0  0  0  0  0  0  0  0  0  0
    4.8942   -3.9321    0.0000 N   0  0  0  0  0  0  0  0  0  0  0  0
    8.7844   -1.6314    0.0000 N   0  0  0  0  0  0  0  0  0  0  0  0
    0.0000   -1.2549    0.0000 N   0  0  0  0  0  0  0  0  0  0  0  0
    6.3164   -1.9660    0.0000 C   0  0  0  0  0  0  0  0  0  0  0  0
    5.8563   -2.6353    0.0000 C   0  0  0  0  0  0  0  0  0  0  0  0
    2.2170   -1.4640    0.0000 C   0  0  0  0  0  0  0  0  0  0  0  0
    7.4040   -1.1713    0.0000 C   0  0  0  0  0  0  0  0  0  0  0  0
    1.4640   -1.2549    0.0000 C   0  0  0  0  0  0  0  0  0  0  0  0
    2.7190   -0.8366    0.0000 C   0  0  0  0  0  0  0  0  0  0  0  0
    1.4640   -0.4183    0.0000 C   0  0  0  0  0  0  0  0  0  0  0  0
    6.1909   -3.3883    0.0000 C   0  0  0  0  0  0  0  0  0  0  0  0
    6.0654   -1.1713    0.0000 C   0  0  0  0  0  0  0  0  0  0  0  0
    4.5177   -3.1791    0.0000 C   0  0  0  0  0  0  0  0  0  0  0  0
    3.3883   -2.3425    0.0000 C   0  0  0  0  0  0  0  0  0  0  0  0
    2.5935   -2.2170    0.0000 C   0  0  0  0  0  0  0  0  0  0  0  0
    7.7386   -2.5935    0.0000 C   0  0  0  0  0  0  0  0  0  0  0  0
    3.5137   -0.9202    0.0000 C   0  0  0  0  0  0  0  0  0  0  0  0
    8.2406   -1.0458    0.0000 C   0  0  0  0  0  0  0  0  0  0  0  0
    5.6890   -4.0575    0.0000 C   0  0  0  0  0  0  0  0  0  0  0  0
    3.8484   -1.6732    0.0000 C   0  0  0  0  0  0  0  0  0  0  0  0
    0.7111   -1.6732    0.0000 C   0  0  0  0  0  0  0  0  0  0  0  0
    0.7111    0.0000    0.0000 C   0  0  0  0  0  0  0  0  0  0  0  0
    8.4916   -2.4262    0.0000 C   0  0  0  0  0  0  0  0  0  0  0  0
    0.0000   -0.4183    0.0000 C   0  0  0  0  0  0  0  0  0  0  0  0
   11.1269   -1.7987    0.0000 C   0  0  0  0  0  0  0  0  0  0  0  0
   11.8380   -2.2170    0.0000 C   0  0  0  0  0  0  0  0  0  0  0  0
  1 22  1  0  0  0  0
  2 36  1  0  0  0  0
  3 36  1  0  0  0  0
  4 36  1  0  0  0  0
  5 37  2  0  0  0  0
  6 37  1  0  0  0  0
  7 15  1  0  0  0  0
  7 18  1  0  0  0  0
  7 27  1  0  0  0  0
  8 16  2  0  0  0  0
  8 24  1  0  0  0  0
  9 20  1  0  0  0  0
  9 21  1  0  0  0  0
 10 18  2  0  0  0  0
 10 23  1  0  0  0  0
 11 24  1  0  0  0  0
 11 25  1  0  0  0  0
 12 24  2  0  0  0  0
 12 30  1  0  0  0  0
 13 29  2  0  0  0  0
 13 34  1  0  0  0  0
 14 32  1  0  0  0  0
 14 35  1  0  0  0  0
 15 16  1  0  0  0  0
 15 23  2  0  0  0  0
 16 22  1  0  0  0  0
 17 19  1  0  0  0  0
 17 20  2  0  0  0  0
 17 26  1  0  0  0  0
 18 29  1  0  0  0  0
 19 21  2  0  0  0  0
 19 32  1  0  0  0  0
 20 28  1  0  0  0  0
 21 33  1  0  0  0  0
 22 30  2  0  0  0  0
 25 26  2  0  0  0  0
 25 31  1  0  0  0  0
 27 34  2  0  0  0  0
 28 31  2  0  0  0  0
 33 35  1  0  0  0  0
 36 37  1  0  0  0  0
M  END
> <PUBCHEM_COMPOUND_ID_TYPE>
0

> <PUBCHEM_TOTAL_CHARGE>
0

> <PUBCHEM_SUBSTANCE_ID>
310938152

> <PUBCHEM_SUBSTANCE_VERSION>
1

> <PUBCHEM_EXT_DATASOURCE_NAME>
4488

> <PUBCHEM_EXT_DATASOURCE_REGID>
SCHEMBL16116004

> <PUBCHEM_SUBSTANCE_COMMENT>
InChI=1S/C21H17FN8.C2HF3O2/c22-15-9-26-21(29-20(15)18-10-25-19-11-24-5-6-30(18)19)27-12-1-2-16-13(7-12)14-8-23-4-3-17(14)28-16;3-2(4,5)1(6)7/h1-2,5-7,9-11,23,28H,3-4,8H2,(H,26,27,29);(H,6,7)
InChIKey=FEVIEZOJZRQAPF-UHFFFAOYSA-N

> <PUBCHEM_SUBSTANCE_SYNONYM>
SCHEMBL16116004

> <PUBCHEM_XREF_EXT_ID>
SCHEMBL16116004

> <PUBCHEM_EXT_DATASOURCE_URL>
https://www.surechembl.org/

> <PUBCHEM_EXT_SUBSTANCE_URL>
https://www.surechembl.org/chemical/SCHEMBL16116004

> <PUBCHEM_CID_ASSOCIATIONS>
86301116  1
6422  2
86301117  2

> <PUBCHEM_COORDINATE_TYPE>
1
3

$$$$
