310930076
  -OEChem-07211613022D

 29 29  0     0  0  0  0  0  0999 V2000
    4.0681   -2.1309    0.0000 S   0  0  0  0  0  0  0  0  0  0  0  0
    8.9756   -4.9721    0.0000 S   0  0  0  0  0  0  0  0  0  0  0  0
    7.3290   -2.1309    0.0000 P   0  0  0  0  0  0  0  0  0  0  0  0
    0.0000   -2.8412    0.0000 Na  0  3  0  0  0  0  0  0  0  0  0  0
    1.6143   -2.8412    0.0000 Na  0  3  0  0  0  0  0  0  0  0  0  0
    3.2609   -2.1309    0.0000 O   0  5  0  0  0  0  0  0  0  0  0  0
    9.3630   -5.6824    0.0000 O   0  5  0  0  0  0  0  0  0  0  0  0
    4.0681   -2.9380    0.0000 O   0  0  0  0  0  0  0  0  0  0  0  0
    4.0681   -1.3237    0.0000 O   0  0  0  0  0  0  0  0  0  0  0  0
    9.6858   -4.5524    0.0000 O   0  0  0  0  0  0  0  0  0  0  0  0
    8.2653   -5.3595    0.0000 O   0  0  0  0  0  0  0  0  0  0  0  0
    6.5218   -2.1309    0.0000 C   0  0  0  0  0  0  0  0  0  0  0  0
    7.7487   -2.8412    0.0000 C   0  0  0  0  0  0  0  0  0  0  0  0
    7.7487   -1.4206    0.0000 C   0  0  0  0  0  0  0  0  0  0  0  0
    4.8752   -2.1309    0.0000 C   0  0  0  0  0  0  0  0  0  0  0  0
    8.5558   -4.2618    0.0000 C   0  0  0  0  0  0  0  0  0  0  0  0
    6.1021   -2.8412    0.0000 C   0  0  0  0  0  0  0  0  0  0  0  0
    8.5558   -2.8412    0.0000 C   0  0  0  0  0  0  0  0  0  0  0  0
    6.1021   -1.4206    0.0000 C   0  0  0  0  0  0  0  0  0  0  0  0
    7.3612   -3.5515    0.0000 C   0  0  0  0  0  0  0  0  0  0  0  0
    5.2949   -2.8412    0.0000 C   0  0  0  0  0  0  0  0  0  0  0  0
    8.9756   -3.5515    0.0000 C   0  0  0  0  0  0  0  0  0  0  0  0
    5.2949   -1.4206    0.0000 C   0  0  0  0  0  0  0  0  0  0  0  0
    7.7487   -4.2618    0.0000 C   0  0  0  0  0  0  0  0  0  0  0  0
    7.3290   -0.7103    0.0000 C   0  0  0  0  0  0  0  0  0  0  0  0
    8.5558   -1.4206    0.0000 C   0  0  0  0  0  0  0  0  0  0  0  0
    7.7487    0.0000    0.0000 C   0  0  0  0  0  0  0  0  0  0  0  0
    8.9756   -0.7103    0.0000 C   0  0  0  0  0  0  0  0  0  0  0  0
    8.5558    0.0000    0.0000 C   0  0  0  0  0  0  0  0  0  0  0  0
  1  6  1  0  0  0  0
  1  8  2  0  0  0  0
  1  9  2  0  0  0  0
  1 15  1  0  0  0  0
  2  7  1  0  0  0  0
  2 10  2  0  0  0  0
  2 11  2  0  0  0  0
  2 16  1  0  0  0  0
  3 12  1  0  0  0  0
  3 13  1  0  0  0  0
  3 14  1  0  0  0  0
 12 17  2  0  0  0  0
 12 19  1  0  0  0  0
 13 18  2  0  0  0  0
 13 20  1  0  0  0  0
 14 25  2  0  0  0  0
 14 26  1  0  0  0  0
 15 21  2  0  0  0  0
 15 23  1  0  0  0  0
 16 22  2  0  0  0  0
 16 24  1  0  0  0  0
 17 21  1  0  0  0  0
 18 22  1  0  0  0  0
 19 23  2  0  0  0  0
 20 24  2  0  0  0  0
 25 27  1  0  0  0  0
 26 28  2  0  0  0  0
 27 29  2  0  0  0  0
 28 29  1  0  0  0  0
M  CHG  4   4   1   5   1   6  -1   7  -1
M  END
> <PUBCHEM_COMPOUND_ID_TYPE>
0

> <PUBCHEM_TOTAL_CHARGE>
0

> <PUBCHEM_SUBSTANCE_ID>
310930076

> <PUBCHEM_SUBSTANCE_VERSION>
1

> <PUBCHEM_EXT_DATASOURCE_NAME>
4488

> <PUBCHEM_EXT_DATASOURCE_REGID>
SCHEMBL16107319

> <PUBCHEM_SUBSTANCE_COMMENT>
InChI=1S/C18H15O6PS2.2Na/c19-26(20,21)17-10-6-15(7-11-17)25(14-4-2-1-3-5-14)16-8-12-18(13-9-16)27(22,23)24;;/h1-13H,(H,19,20,21)(H,22,23,24);;/q;2*+1/p-2
InChIKey=CFMNCDYISOVTQE-UHFFFAOYSA-L

> <PUBCHEM_SUBSTANCE_SYNONYM>
SCHEMBL16107319

> <PUBCHEM_XREF_EXT_ID>
SCHEMBL16107319

> <PUBCHEM_EXT_DATASOURCE_URL>
https://www.surechembl.org/

> <PUBCHEM_EXT_SUBSTANCE_URL>
https://www.surechembl.org/chemical/SCHEMBL16107319

> <PUBCHEM_CID_ASSOCIATIONS>
10961633  1
4303689  2
5360545  2

> <PUBCHEM_COORDINATE_TYPE>
1
3

$$$$
