310938252
  -OEChem-07211613022D

 38 41  0     1  0  0  0  0  0999 V2000
    0.0000   -3.9286    0.0000 Cl  0  0  0  0  0  0  0  0  0  0  0  0
    6.0107   -5.3429    0.0000 O   0  0  0  0  0  0  0  0  0  0  0  0
    8.8785   -5.3821    0.0000 O   0  0  0  0  0  0  0  0  0  0  0  0
    8.2107   -2.5928    0.0000 N   0  0  3  0  0  0  0  0  0  0  0  0
    7.4249   -5.3429    0.0000 N   0  0  0  0  0  0  0  0  0  0  0  0
    3.8500   -2.4750    0.0000 N   0  0  0  0  0  0  0  0  0  0  0  0
    3.1036   -1.2179    0.0000 N   0  0  0  0  0  0  0  0  0  0  0  0
    9.5857   -6.5999    0.0000 N   0  0  0  0  0  0  0  0  0  0  0  0
    1.6500   -0.4321    0.0000 N   0  0  0  0  0  0  0  0  0  0  0  0
    7.4249   -3.6929    0.0000 C   0  0  0  0  0  0  0  0  0  0  0  0
    7.4249   -2.8679    0.0000 C   0  0  0  0  0  0  0  0  0  0  0  0
    6.7178   -4.0857    0.0000 C   0  0  0  0  0  0  0  0  0  0  0  0
    6.0107   -2.8679    0.0000 C   0  0  0  0  0  0  0  0  0  0  0  0
    6.7178   -2.4357    0.0000 C   0  0  0  0  0  0  0  0  0  0  0  0
    6.0107   -3.6929    0.0000 C   0  0  0  0  0  0  0  0  0  0  0  0
    8.2107   -3.9286    0.0000 C   0  0  0  0  0  0  0  0  0  0  0  0
    6.7178   -4.9107    0.0000 C   0  0  0  0  0  0  0  0  0  0  0  0
    5.2643   -2.4750    0.0000 C   0  0  0  0  0  0  0  0  0  0  0  0
    8.6821   -3.2607    0.0000 C   0  0  0  0  0  0  0  0  0  0  0  0
    8.4857   -1.8071    0.0000 C   0  0  0  0  0  0  0  0  0  0  0  0
    4.5571   -2.8679    0.0000 C   0  0  0  0  0  0  0  0  0  0  0  0
    5.2643   -1.6500    0.0000 C   0  0  0  0  0  0  0  0  0  0  0  0
    3.8107   -1.6500    0.0000 C   0  0  0  0  0  0  0  0  0  0  0  0
    8.1321   -6.5999    0.0000 C   0  0  0  0  0  0  0  0  0  0  0  0
    4.5571   -1.2179    0.0000 C   0  0  0  0  0  0  0  0  0  0  0  0
    7.4249   -6.1679    0.0000 C   0  0  0  0  0  0  0  0  0  0  0  0
    8.8785   -6.2071    0.0000 C   0  0  0  0  0  0  0  0  0  0  0  0
    8.1714   -7.4249    0.0000 C   0  0  0  0  0  0  0  0  0  0  0  0
    7.9357   -1.2179    0.0000 C   0  0  0  0  0  0  0  0  0  0  0  0
    9.2714   -1.6500    0.0000 C   0  0  0  0  0  0  0  0  0  0  0  0
    9.5857   -7.4249    0.0000 C   0  0  0  0  0  0  0  0  0  0  0  0
    8.8785   -7.8178    0.0000 C   0  0  0  0  0  0  0  0  0  0  0  0
    3.1036   -0.3929    0.0000 C   0  0  0  0  0  0  0  0  0  0  0  0
    2.3964   -1.6500    0.0000 C   0  0  0  0  0  0  0  0  0  0  0  0
    7.4642   -7.8178    0.0000 C   0  0  0  0  0  0  0  0  0  0  0  0
    1.6500   -1.2571    0.0000 C   0  0  0  0  0  0  0  0  0  0  0  0
    2.3571    0.0000    0.0000 C   0  0  0  0  0  0  0  0  0  0  0  0
   10.2928   -7.8571    0.0000 C   0  0  0  0  0  0  0  0  0  0  0  0
  2 17  2  0  0  0  0
  3 27  2  0  0  0  0
  4 11  1  0  0  0  0
  4 19  1  0  0  0  0
  4 20  1  0  0  0  0
  5 17  1  0  0  0  0
  5 26  1  0  0  0  0
  6 21  1  0  0  0  0
  6 23  2  0  0  0  0
  7 23  1  0  0  0  0
  7 33  1  0  0  0  0
  7 34  1  0  0  0  0
  8 27  1  0  0  0  0
  8 31  1  0  0  0  0
  9 36  1  0  0  0  0
  9 37  1  0  0  0  0
 10 11  2  0  0  0  0
 10 12  1  0  0  0  0
 10 16  1  0  0  0  0
 11 14  1  0  0  0  0
 12 15  2  0  0  0  0
 12 17  1  0  0  0  0
 13 14  2  0  0  0  0
 13 15  1  0  0  0  0
 13 18  1  0  0  0  0
 16 19  1  0  0  0  0
 18 21  2  0  0  0  0
 18 22  1  0  0  0  0
 20 29  1  0  0  0  0
 20 30  1  0  0  0  0
 22 25  2  0  0  0  0
 23 25  1  0  0  0  0
 24 26  1  0  0  0  0
 24 27  1  0  0  0  0
 24 28  2  0  0  0  0
 28 32  1  0  0  0  0
 28 35  1  0  0  0  0
 31 32  2  0  0  0  0
 31 38  1  0  0  0  0
 33 37  1  0  0  0  0
 34 36  1  0  0  0  0
M  END
> <PUBCHEM_COMPOUND_ID_TYPE>
0

> <PUBCHEM_TOTAL_CHARGE>
0

> <PUBCHEM_SUBSTANCE_ID>
310938252

> <PUBCHEM_SUBSTANCE_VERSION>
1

> <PUBCHEM_EXT_DATASOURCE_NAME>
4488

> <PUBCHEM_EXT_DATASOURCE_REGID>
SCHEMBL16116117

> <PUBCHEM_SUBSTANCE_COMMENT>
InChI=1S/C29H36N6O2.ClH/c1-18(2)35-10-7-23-24(28(36)32-17-25-19(3)13-20(4)33-29(25)37)14-22(15-26(23)35)21-5-6-27(31-16-21)34-11-8-30-9-12-34;/h5-6,13-16,18,30H,7-12,17H2,1-4H3,(H,32,36)(H,33,37);1H
InChIKey=HPSVZZVCQRBSGW-UHFFFAOYSA-N

> <PUBCHEM_SUBSTANCE_SYNONYM>
SCHEMBL16116117

> <PUBCHEM_XREF_EXT_ID>
SCHEMBL16116117

> <PUBCHEM_EXT_DATASOURCE_URL>
https://www.surechembl.org/

> <PUBCHEM_EXT_SUBSTANCE_URL>
https://www.surechembl.org/chemical/SCHEMBL16116117

> <PUBCHEM_CID_ASSOCIATIONS>
86272915  1
313  2
86272916  2

> <PUBCHEM_COORDINATE_TYPE>
1
3

$$$$
