310936557
  -OEChem-07211613022D

 69 77  0     0  0  0  0  0  0999 V2000
   10.6779   -2.4406    0.0000 S   0  0  0  0  0  0  0  0  0  0  0  0
   11.0593   -3.1271    0.0000 O   0  0  0  0  0  0  0  0  0  0  0  0
   10.2203   -1.6779    0.0000 O   0  0  0  0  0  0  0  0  0  0  0  0
   22.1948    0.0000    0.0000 O   0  0  0  0  0  0  0  0  0  0  0  0
   17.2372   -4.5000    0.0000 N   0  0  0  0  0  0  0  0  0  0  0  0
   16.5507   -3.2796    0.0000 N   0  0  0  0  0  0  0  0  0  0  0  0
   17.2372   -2.0593    0.0000 N   0  0  0  0  0  0  0  0  0  0  0  0
    8.5423   -3.6610    0.0000 N   0  0  0  0  0  0  0  0  0  0  0  0
    5.7203   -3.6610    0.0000 N   0  0  0  0  0  0  0  0  0  0  0  0
    4.9576   -4.8813    0.0000 N   0  0  0  0  0  0  0  0  0  0  0  0
    9.9152   -2.8220    0.0000 N   0  0  0  0  0  0  0  0  0  0  0  0
    5.7203   -6.1016    0.0000 N   0  0  0  0  0  0  0  0  0  0  0  0
   15.8643   -6.1779    0.0000 N   0  0  0  0  0  0  0  0  0  0  0  0
   21.5083   -1.2966    0.0000 N   0  0  0  0  0  0  0  0  0  0  0  0
    3.5847   -4.8813    0.0000 N   0  0  0  0  0  0  0  0  0  0  0  0
   12.9660   -7.0169    0.0000 N   0  0  0  0  0  0  0  0  0  0  0  0
    0.7627   -4.0423    0.0000 N   0  0  0  0  0  0  0  0  0  0  0  0
   17.9999   -3.2796    0.0000 C   0  0  0  0  0  0  0  0  0  0  0  0
   17.2372   -3.7373    0.0000 C   0  0  0  0  0  0  0  0  0  0  0  0
   17.9999   -2.5169    0.0000 C   0  0  0  0  0  0  0  0  0  0  0  0
   19.3728   -2.5169    0.0000 C   0  0  0  0  0  0  0  0  0  0  0  0
   18.6863   -2.0593    0.0000 C   0  0  0  0  0  0  0  0  0  0  0  0
    6.4067   -4.8813    0.0000 C   0  0  0  0  0  0  0  0  0  0  0  0
   18.6863   -3.7373    0.0000 C   0  0  0  0  0  0  0  0  0  0  0  0
    6.4067   -4.0423    0.0000 C   0  0  0  0  0  0  0  0  0  0  0  0
   16.5507   -4.9576    0.0000 C   0  0  0  0  0  0  0  0  0  0  0  0
    7.7796   -4.0423    0.0000 C   0  0  0  0  0  0  0  0  0  0  0  0
   19.3728   -3.2796    0.0000 C   0  0  0  0  0  0  0  0  0  0  0  0
   20.0592   -2.0593    0.0000 C   0  0  0  0  0  0  0  0  0  0  0  0
    5.7203   -5.2627    0.0000 C   0  0  0  0  0  0  0  0  0  0  0  0
    7.0932   -3.6610    0.0000 C   0  0  0  0  0  0  0  0  0  0  0  0
   16.5507   -2.5169    0.0000 C   0  0  0  0  0  0  0  0  0  0  0  0
    7.0932   -5.2627    0.0000 C   0  0  0  0  0  0  0  0  0  0  0  0
    7.7796   -4.8813    0.0000 C   0  0  0  0  0  0  0  0  0  0  0  0
   16.5507   -5.7966    0.0000 C   0  0  0  0  0  0  0  0  0  0  0  0
   15.8643   -4.5000    0.0000 C   0  0  0  0  0  0  0  0  0  0  0  0
   15.1016   -5.7966    0.0000 C   0  0  0  0  0  0  0  0  0  0  0  0
   20.8219   -2.5169    0.0000 C   0  0  0  0  0  0  0  0  0  0  0  0
   20.0592   -1.2966    0.0000 C   0  0  0  0  0  0  0  0  0  0  0  0
    9.2287   -4.0423    0.0000 C   0  0  0  0  0  0  0  0  0  0  0  0
    8.5423   -2.8220    0.0000 C   0  0  0  0  0  0  0  0  0  0  0  0
   17.9999   -4.9576    0.0000 C   0  0  0  0  0  0  0  0  0  0  0  0
    4.9576   -4.0423    0.0000 C   0  0  0  0  0  0  0  0  0  0  0  0
   15.1016   -4.9576    0.0000 C   0  0  0  0  0  0  0  0  0  0  0  0
   14.4151   -6.1779    0.0000 C   0  0  0  0  0  0  0  0  0  0  0  0
    9.2287   -2.4406    0.0000 C   0  0  0  0  0  0  0  0  0  0  0  0
    9.9152   -3.6610    0.0000 C   0  0  0  0  0  0  0  0  0  0  0  0
   21.5083   -2.0593    0.0000 C   0  0  0  0  0  0  0  0  0  0  0  0
   20.8219   -0.8390    0.0000 C   0  0  0  0  0  0  0  0  0  0  0  0
    4.9576   -6.5593    0.0000 C   0  0  0  0  0  0  0  0  0  0  0  0
    4.2712   -6.1016    0.0000 C   0  0  0  0  0  0  0  0  0  0  0  0
   14.4151   -7.0169    0.0000 C   0  0  0  0  0  0  0  0  0  0  0  0
   13.7287   -5.7966    0.0000 C   0  0  0  0  0  0  0  0  0  0  0  0
   22.1948   -0.8390    0.0000 C   0  0  0  0  0  0  0  0  0  0  0  0
    2.8983   -5.3389    0.0000 C   0  0  0  0  0  0  0  0  0  0  0  0
   13.6524   -7.3983    0.0000 C   0  0  0  0  0  0  0  0  0  0  0  0
   11.3643   -2.0593    0.0000 C   0  0  0  0  0  0  0  0  0  0  0  0
    4.2712   -5.2627    0.0000 C   0  0  0  0  0  0  0  0  0  0  0  0
    3.5847   -6.4830    0.0000 C   0  0  0  0  0  0  0  0  0  0  0  0
    2.1356   -4.8813    0.0000 C   0  0  0  0  0  0  0  0  0  0  0  0
    2.8220   -6.1016    0.0000 C   0  0  0  0  0  0  0  0  0  0  0  0
   12.9660   -6.1779    0.0000 C   0  0  0  0  0  0  0  0  0  0  0  0
    1.4491   -5.3389    0.0000 C   0  0  0  0  0  0  0  0  0  0  0  0
    2.2119   -4.1186    0.0000 C   0  0  0  0  0  0  0  0  0  0  0  0
   22.8812   -1.2966    0.0000 C   0  0  0  0  0  0  0  0  0  0  0  0
    0.7627   -4.8813    0.0000 C   0  0  0  0  0  0  0  0  0  0  0  0
   13.6524   -8.2372    0.0000 C   0  0  0  0  0  0  0  0  0  0  0  0
    1.4491   -3.6610    0.0000 C   0  0  0  0  0  0  0  0  0  0  0  0
    0.0000   -5.2627    0.0000 C   0  0  0  0  0  0  0  0  0  0  0  0
  1  2  2  0  0  0  0
  1  3  2  0  0  0  0
  1 11  1  0  0  0  0
  1 57  1  0  0  0  0
  4 54  2  0  0  0  0
  5 19  1  0  0  0  0
  5 26  1  0  0  0  0
  5 42  1  0  0  0  0
  6 19  1  0  0  0  0
  6 32  2  0  0  0  0
  7 20  2  0  0  0  0
  7 32  1  0  0  0  0
  8 27  1  0  0  0  0
  8 40  1  0  0  0  0
  8 41  1  0  0  0  0
  9 25  2  0  0  0  0
  9 43  1  0  0  0  0
 10 30  1  0  0  0  0
 10 43  2  0  0  0  0
 11 46  1  0  0  0  0
 11 47  1  0  0  0  0
 12 30  1  0  0  0  0
 12 50  1  0  0  0  0
 13 35  1  0  0  0  0
 13 37  2  0  0  0  0
 14 48  1  0  0  0  0
 14 49  1  0  0  0  0
 14 54  1  0  0  0  0
 15 55  1  0  0  0  0
 15 58  2  0  0  0  0
 16 56  1  0  0  0  0
 16 62  2  0  0  0  0
 17 66  1  0  0  0  0
 17 68  2  0  0  0  0
 18 19  2  0  0  0  0
 18 20  1  0  0  0  0
 18 24  1  0  0  0  0
 20 22  1  0  0  0  0
 21 22  2  0  0  0  0
 21 28  1  0  0  0  0
 21 29  1  0  0  0  0
 23 25  1  0  0  0  0
 23 30  2  0  0  0  0
 23 33  1  0  0  0  0
 24 28  2  0  0  0  0
 25 31  1  0  0  0  0
 26 35  2  0  0  0  0
 26 36  1  0  0  0  0
 27 31  2  0  0  0  0
 27 34  1  0  0  0  0
 29 38  1  0  0  0  0
 29 39  1  0  0  0  0
 33 34  2  0  0  0  0
 36 44  2  0  0  0  0
 37 44  1  0  0  0  0
 37 45  1  0  0  0  0
 38 48  1  0  0  0  0
 39 49  1  0  0  0  0
 40 47  1  0  0  0  0
 41 46  1  0  0  0  0
 45 52  1  0  0  0  0
 45 53  2  0  0  0  0
 50 51  1  0  0  0  0
 51 58  1  0  0  0  0
 51 59  2  0  0  0  0
 52 56  2  0  0  0  0
 53 62  1  0  0  0  0
 54 65  1  0  0  0  0
 55 60  1  0  0  0  0
 55 61  2  0  0  0  0
 56 67  1  0  0  0  0
 59 61  1  0  0  0  0
 60 63  1  0  0  0  0
 60 64  2  0  0  0  0
 63 66  2  0  0  0  0
 64 68  1  0  0  0  0
 66 69  1  0  0  0  0
M  END
> <PUBCHEM_COMPOUND_ID_TYPE>
0

> <PUBCHEM_TOTAL_CHARGE>
0

> <PUBCHEM_SUBSTANCE_ID>
310936557

> <PUBCHEM_SUBSTANCE_VERSION>
1

> <PUBCHEM_EXT_DATASOURCE_NAME>
4488

> <PUBCHEM_EXT_DATASOURCE_REGID>
SCHEMBL16114211

> <PUBCHEM_SUBSTANCE_COMMENT>
InChI=1S/C27H28N6O.C25H27N7O2S/c1-18-14-22(8-11-28-18)25-7-5-23(16-29-25)32(3)27-24-6-4-21(15-26(24)30-17-31-27)20-9-12-33(13-10-20)19(2)34;1-18-13-20(7-8-26-18)23-6-3-19(15-27-23)16-28-25-22-5-4-21(14-24(22)29-17-30-25)31-9-11-32(12-10-31)35(2,33)34/h4-8,11,14-17,20H,9-10,12-13H2,1-3H3;3-8,13-15,17H,9-12,16H2,1-2H3,(H,28,29,30)
InChIKey=BWCIPXZJOXYROV-UHFFFAOYSA-N

> <PUBCHEM_SUBSTANCE_SYNONYM>
SCHEMBL16114211

> <PUBCHEM_XREF_EXT_ID>
SCHEMBL16114211

> <PUBCHEM_EXT_DATASOURCE_URL>
https://www.surechembl.org/

> <PUBCHEM_EXT_SUBSTANCE_URL>
https://www.surechembl.org/chemical/SCHEMBL16114211

> <PUBCHEM_CID_ASSOCIATIONS>
117604477  1
57414223  2
57414358  2

> <PUBCHEM_COORDINATE_TYPE>
1
3

$$$$
