310930024
  -OEChem-07211613022D

 24 24  0     1  0  0  0  0  0999 V2000
    2.8286    3.7216    0.0000 S   0  0  0  0  0  0  0  0  0  0  0  0
    2.8286    2.8966    0.0000 O   0  0  0  0  0  0  0  0  0  0  0  0
    4.3045   -3.7758    0.0000 O   0  0  0  0  0  0  0  0  0  0  0  0
    2.8286    4.5466    0.0000 O   0  5  0  0  0  0  0  0  0  0  0  0
    2.0036    3.7216    0.0000 O   0  0  0  0  0  0  0  0  0  0  0  0
    3.6536    3.7216    0.0000 O   0  0  0  0  0  0  0  0  0  0  0  0
    4.2575    1.2466    0.0000 N   0  0  3  0  0  0  0  0  0  0  0  0
    4.2575   -2.0534    0.0000 N   0  0  0  0  0  0  0  0  0  0  0  0
    4.9720   -2.4659    0.0000 N   0  0  0  0  0  0  0  0  0  0  0  0
    4.5595   -4.5605    0.0000 N   0  0  0  0  0  0  0  0  0  0  0  0
    4.2575    0.4216    0.0000 C   0  0  0  0  0  0  0  0  0  0  0  0
    4.2575   -1.2284    0.0000 C   0  0  0  0  0  0  0  0  0  0  0  0
    4.9720    0.0091    0.0000 C   0  0  0  0  0  0  0  0  0  0  0  0
    3.5430    0.0091    0.0000 C   0  0  0  0  0  0  0  0  0  0  0  0
    4.9720   -0.8159    0.0000 C   0  0  0  0  0  0  0  0  0  0  0  0
    3.5430   -0.8159    0.0000 C   0  0  0  0  0  0  0  0  0  0  0  0
    3.5430    1.6591    0.0000 C   0  0  0  0  0  0  0  0  0  0  0  0
    4.9720   -3.2909    0.0000 C   0  0  0  0  0  0  0  0  0  0  0  0
    3.5430    2.4841    0.0000 C   0  0  0  0  0  0  0  0  0  0  0  0
    4.9720    1.6591    0.0000 C   0  0  0  0  0  0  0  0  0  0  0  0
    5.6394   -3.7758    0.0000 C   0  0  0  0  0  0  0  0  0  0  0  0
    5.3845   -4.5605    0.0000 C   0  0  0  0  0  0  0  0  0  0  0  0
    5.6865    1.2466    0.0000 C   0  0  0  0  0  0  0  0  0  0  0  0
    0.0000    0.0000    0.0000 H   0  3  0  0  0  0  0  0  0  0  0  0
  1  2  1  0  0  0  0
  1  4  1  0  0  0  0
  1  5  2  0  0  0  0
  1  6  2  0  0  0  0
  2 19  1  0  0  0  0
  3 10  1  0  0  0  0
  3 18  1  0  0  0  0
  7 11  1  0  0  0  0
  7 17  1  0  0  0  0
  7 20  1  0  0  0  0
  8  9  2  0  0  0  0
  8 12  1  0  0  0  0
  9 18  1  0  0  0  0
 10 22  2  0  0  0  0
 11 13  2  0  0  0  0
 11 14  1  0  0  0  0
 12 15  2  0  0  0  0
 12 16  1  0  0  0  0
 13 15  1  0  0  0  0
 14 16  2  0  0  0  0
 17 19  1  0  0  0  0
 18 21  2  0  0  0  0
 20 23  1  0  0  0  0
 21 22  1  0  0  0  0
M  CHG  2   4  -1  24   1
M  END
> <PUBCHEM_COMPOUND_ID_TYPE>
0

> <PUBCHEM_TOTAL_CHARGE>
0

> <PUBCHEM_SUBSTANCE_ID>
310930024

> <PUBCHEM_SUBSTANCE_VERSION>
1

> <PUBCHEM_EXT_DATASOURCE_NAME>
4488

> <PUBCHEM_EXT_DATASOURCE_REGID>
SCHEMBL16107263

> <PUBCHEM_SUBSTANCE_COMMENT>
InChI=1S/C13H16N4O5S/c1-2-17(9-10-21-23(18,19)20)12-5-3-11(4-6-12)15-16-13-7-8-14-22-13/h3-8H,2,9-10H2,1H3,(H,18,19,20)/b16-15+
InChIKey=QMWGCTVHYSPUSN-FOCLMDBBSA-N

> <PUBCHEM_SUBSTANCE_SYNONYM>
SCHEMBL16107263

> <PUBCHEM_XREF_EXT_ID>
SCHEMBL16107263

> <PUBCHEM_EXT_DATASOURCE_URL>
https://www.surechembl.org/

> <PUBCHEM_EXT_SUBSTANCE_URL>
https://www.surechembl.org/chemical/SCHEMBL16107263

> <PUBCHEM_CID_ASSOCIATIONS>
117599270  1
783  2
89559085  2

> <PUBCHEM_COORDINATE_TYPE>
1
3

> <PUBCHEM_BONDANNOTATIONS>
8  12  3

$$$$
