310929887
  -OEChem-07211613022D

 31 33  0     1  0  0  0  0  0999 V2000
    1.0396    1.4521    0.0000 O   0  0  0  0  0  0  0  0  0  0  0  0
    2.0946   -1.4290    0.0000 O   0  0  0  0  0  0  0  0  0  0  0  0
    4.5696    0.0000    0.0000 O   0  0  0  0  0  0  0  0  0  0  0  0
    5.3946   -0.9239    0.0000 O   0  0  0  0  0  0  0  0  0  0  0  0
    5.3946    0.7261    0.0000 O   0  0  0  0  0  0  0  0  0  0  0  0
    6.8235   -1.7489    0.0000 O   0  0  0  0  0  0  0  0  0  0  0  0
    8.2524    1.5511    0.0000 O   0  0  0  0  0  0  0  0  0  0  0  0
    8.9669    0.3136    0.0000 O   0  0  0  0  0  0  0  0  0  0  0  0
    1.2696    0.0000    0.0000 N   0  0  0  0  0  0  0  0  0  0  0  0
    3.3321   -0.7144    0.0000 N   0  0  0  0  0  0  0  0  0  0  0  0
   -0.7144   -1.6500    0.0000 N   0  0  0  0  0  0  0  0  0  0  0  0
    0.0000    0.4125    0.0000 C   0  0  0  0  0  0  0  0  0  0  0  0
    0.0000   -0.4125    0.0000 C   0  0  0  0  0  0  0  0  0  0  0  0
    0.7846    0.6674    0.0000 C   0  0  0  0  0  0  0  0  0  0  0  0
    2.0946    0.0000    0.0000 C   0  0  3  0  0  0  0  0  0  0  0  0
    0.7846   -0.6674    0.0000 C   0  0  0  0  0  0  0  0  0  0  0  0
   -0.7144   -0.8250    0.0000 C   0  0  0  0  0  0  0  0  0  0  0  0
    2.5071   -0.7144    0.0000 C   0  0  0  0  0  0  0  0  0  0  0  0
   -0.7144    0.8250    0.0000 C   0  0  0  0  0  0  0  0  0  0  0  0
    2.5071    0.7144    0.0000 C   0  0  0  0  0  0  0  0  0  0  0  0
   -1.4290   -0.4125    0.0000 C   0  0  0  0  0  0  0  0  0  0  0  0
   -1.4290    0.4125    0.0000 C   0  0  0  0  0  0  0  0  0  0  0  0
    3.7446    0.0000    0.0000 C   0  0  0  0  0  0  0  0  0  0  0  0
    3.3321    0.7144    0.0000 C   0  0  0  0  0  0  0  0  0  0  0  0
    7.5380    0.3136    0.0000 C   0  0  0  0  0  0  0  0  0  0  0  0
    6.1090   -0.5114    0.0000 C   0  0  0  0  0  0  0  0  0  0  0  0
    6.1090    0.3136    0.0000 C   0  0  0  0  0  0  0  0  0  0  0  0
    6.8235   -0.9239    0.0000 C   0  0  0  0  0  0  0  0  0  0  0  0
    6.8235    0.7261    0.0000 C   0  0  0  0  0  0  0  0  0  0  0  0
    7.5380   -0.5114    0.0000 C   0  0  0  0  0  0  0  0  0  0  0  0
    8.2524    0.7261    0.0000 C   0  0  0  0  0  0  0  0  0  0  0  0
  1 14  2  0  0  0  0
  2 18  2  0  0  0  0
  3 23  2  0  0  0  0
  4 26  1  0  0  0  0
  5 27  1  0  0  0  0
  6 28  1  0  0  0  0
  7 31  2  0  0  0  0
  8 31  1  0  0  0  0
  9 14  1  0  0  0  0
  9 15  1  0  0  0  0
  9 16  1  0  0  0  0
 10 18  1  0  0  0  0
 10 23  1  0  0  0  0
 11 17  1  0  0  0  0
 12 13  2  0  0  0  0
 12 14  1  0  0  0  0
 12 19  1  0  0  0  0
 13 16  1  0  0  0  0
 13 17  1  0  0  0  0
 15 18  1  0  0  0  0
 15 20  1  0  0  0  0
 17 21  2  0  0  0  0
 19 22  2  0  0  0  0
 20 24  1  0  0  0  0
 21 22  1  0  0  0  0
 23 24  1  0  0  0  0
 25 29  2  0  0  0  0
 25 30  1  0  0  0  0
 25 31  1  0  0  0  0
 26 27  2  0  0  0  0
 26 28  1  0  0  0  0
 27 29  1  0  0  0  0
 28 30  2  0  0  0  0
M  END
> <PUBCHEM_COMPOUND_ID_TYPE>
0

> <PUBCHEM_TOTAL_CHARGE>
0

> <PUBCHEM_SUBSTANCE_ID>
310929887

> <PUBCHEM_SUBSTANCE_VERSION>
1

> <PUBCHEM_EXT_DATASOURCE_NAME>
4488

> <PUBCHEM_EXT_DATASOURCE_REGID>
SCHEMBL16107103

> <PUBCHEM_SUBSTANCE_COMMENT>
InChI=1S/C13H13N3O3.C7H6O5/c14-9-3-1-2-7-8(9)6-16(13(7)19)10-4-5-11(17)15-12(10)18;8-4-1-3(7(11)12)2-5(9)6(4)10/h1-3,10H,4-6,14H2,(H,15,17,18);1-2,8-10H,(H,11,12)
InChIKey=LIXGHKQWWDTIAE-UHFFFAOYSA-N

> <PUBCHEM_SUBSTANCE_SYNONYM>
SCHEMBL16107103

> <PUBCHEM_XREF_EXT_ID>
SCHEMBL16107103

> <PUBCHEM_EXT_DATASOURCE_URL>
https://www.surechembl.org/

> <PUBCHEM_EXT_SUBSTANCE_URL>
https://www.surechembl.org/chemical/SCHEMBL16107103

> <PUBCHEM_CID_ASSOCIATIONS>
71483258  1
370  2
216326  2

> <PUBCHEM_COORDINATE_TYPE>
1
3

$$$$
