310929941
  -OEChem-07211613022D

 58 62  0     1  0  0  0  0  0999 V2000
   -0.0000   -1.1786    0.0000 F   0  0  0  0  0  0  0  0  0  0  0  0
    0.8250   -0.3536    0.0000 F   0  0  0  0  0  0  0  0  0  0  0  0
   -0.8250   -0.3536    0.0000 F   0  0  0  0  0  0  0  0  0  0  0  0
    4.7499    0.6729    0.0000 O   0  0  0  0  0  0  0  0  0  0  0  0
    8.3911   -0.3443    0.0000 O   0  0  0  0  0  0  0  0  0  0  0  0
    3.5753    1.4867    0.0000 O   0  0  0  0  0  0  0  0  0  0  0  0
    5.5721    0.6051    0.0000 O   0  0  0  0  0  0  0  0  0  0  0  0
    6.7785    2.9364    0.0000 O   0  0  0  0  0  0  0  0  0  0  0  0
    8.2071    2.9684    0.0000 O   0  0  0  0  0  0  0  0  0  0  0  0
    9.4482   -2.5822    0.0000 O   0  0  0  0  0  0  0  0  0  0  0  0
   -0.7145    0.8839    0.0000 O   0  0  0  0  0  0  0  0  0  0  0  0
    0.7145    0.8839    0.0000 O   0  0  0  0  0  0  0  0  0  0  0  0
    6.8642    1.2154    0.0000 N   0  0  0  0  0  0  0  0  0  0  0  0
    4.8674    2.0970    0.0000 N   0  0  0  0  0  0  0  0  0  0  0  0
    8.3286    0.0001    0.0000 N   0  0  0  0  0  0  0  0  0  0  0  0
   11.9149   -2.7856    0.0000 N   0  0  0  0  0  0  0  0  0  0  0  0
    4.2801   -0.0052    0.0000 C   0  0  3  0  0  0  0  0  0  0  0  0
    4.6325   -0.7512    0.0000 C   0  0  3  0  0  0  0  0  0  0  0  0
    3.8102   -0.6834    0.0000 C   0  0  3  0  0  0  0  0  0  0  0  0
    5.4547   -0.8190    0.0000 C   0  0  0  0  0  0  0  0  0  0  0  0
    3.0643   -1.0357    0.0000 C   0  0  0  0  0  0  0  0  0  0  0  0
    5.6896    2.0292    0.0000 C   0  0  3  0  0  0  0  0  0  0  0  0
    4.3975    1.4189    0.0000 C   0  0  0  0  0  0  0  0  0  0  0  0
    7.5206    1.7152    0.0000 C   0  0  3  0  0  0  0  0  0  0  0  0
    6.0420    1.2833    0.0000 C   0  0  0  0  0  0  0  0  0  0  0  0
    8.0387    0.4017    0.0000 C   0  0  3  0  0  0  0  0  0  0  0  0
    8.1987    1.2454    0.0000 C   0  0  0  0  0  0  0  0  0  0  0  0
    7.2165    0.4695    0.0000 C   0  0  0  0  0  0  0  0  0  0  0  0
    6.1594    2.7074    0.0000 C   0  0  0  0  0  0  0  0  0  0  0  0
    5.8070   -1.5650    0.0000 C   0  0  0  0  0  0  0  0  0  0  0  0
    7.5021    2.5400    0.0000 C   0  0  0  0  0  0  0  0  0  0  0  0
    7.9213   -1.0224    0.0000 C   0  0  0  0  0  0  0  0  0  0  0  0
    8.2737   -1.7684    0.0000 C   0  0  0  0  0  0  0  0  0  0  0  0
    6.6292   -1.6328    0.0000 C   0  0  0  0  0  0  0  0  0  0  0  0
    9.0959   -1.8362    0.0000 C   0  0  0  0  0  0  0  0  0  0  0  0
    6.6292    3.3855    0.0000 C   0  0  0  0  0  0  0  0  0  0  0  0
    5.4813    3.1772    0.0000 C   0  0  0  0  0  0  0  0  0  0  0  0
    6.8376    2.2375    0.0000 C   0  0  0  0  0  0  0  0  0  0  0  0
    9.5657   -1.1581    0.0000 C   0  0  0  0  0  0  0  0  0  0  0  0
    9.2133   -0.4121    0.0000 C   0  0  0  0  0  0  0  0  0  0  0  0
    7.8038   -2.4466    0.0000 C   0  0  0  0  0  0  0  0  0  0  0  0
    6.9816   -2.3787    0.0000 C   0  0  0  0  0  0  0  0  0  0  0  0
   10.3879   -1.2259    0.0000 C   0  0  0  0  0  0  0  0  0  0  0  0
    9.6832    0.2660    0.0000 C   0  0  0  0  0  0  0  0  0  0  0  0
   10.2705   -2.6500    0.0000 C   0  0  0  0  0  0  0  0  0  0  0  0
   10.8577   -0.5477    0.0000 C   0  0  0  0  0  0  0  0  0  0  0  0
   10.5054    0.1982    0.0000 C   0  0  0  0  0  0  0  0  0  0  0  0
   10.6228   -3.3960    0.0000 C   0  0  0  0  0  0  0  0  0  0  0  0
   10.7403   -1.9718    0.0000 C   0  0  0  0  0  0  0  0  0  0  0  0
   11.4450   -3.4638    0.0000 C   0  0  0  0  0  0  0  0  0  0  0  0
   11.5625   -2.0397    0.0000 C   0  0  0  0  0  0  0  0  0  0  0  0
   -0.0000   -0.3536    0.0000 C   0  0  0  0  0  0  0  0  0  0  0  0
    0.0000    0.4714    0.0000 C   0  0  0  0  0  0  0  0  0  0  0  0
    3.6019    0.4646    0.0000 H   0  0  0  0  0  0  0  0  0  0  0  0
    4.5646   -1.5734    0.0000 H   0  0  0  0  0  0  0  0  0  0  0  0
    6.5118    1.9614    0.0000 H   0  0  0  0  0  0  0  0  0  0  0  0
    8.2471    2.1061    0.0000 H   0  0  0  0  0  0  0  0  0  0  0  0
    8.8571    0.5061    0.0000 H   0  0  0  0  0  0  0  0  0  0  0  0
  1 52  1  0  0  0  0
  2 52  1  0  0  0  0
  3 52  1  0  0  0  0
  4 17  1  0  0  0  0
  4 23  1  0  0  0  0
  5 26  1  0  0  0  0
  5 32  1  0  0  0  0
  6 23  2  0  0  0  0
  7 25  2  0  0  0  0
  8 31  2  0  0  0  0
  9 31  1  0  0  0  0
 10 35  1  0  0  0  0
 10 45  1  0  0  0  0
 11 53  2  0  0  0  0
 12 53  1  0  0  0  0
 13 24  1  0  0  0  0
 13 25  1  0  0  0  0
 13 28  1  0  0  0  0
 14 22  1  0  0  0  0
 14 23  1  0  0  0  0
 15 32  2  0  0  0  0
 15 40  1  0  0  0  0
 16 50  1  0  0  0  0
 16 51  1  0  0  0  0
 17 18  1  0  0  0  0
 17 19  1  0  0  0  0
 17 54  1  6  0  0  0
 18 19  1  0  0  0  0
 18 20  1  0  0  0  0
 18 55  1  1  0  0  0
 19 21  1  0  0  0  0
 20 30  1  0  0  0  0
 22 25  1  0  0  0  0
 22 29  1  0  0  0  0
 22 56  1  6  0  0  0
 24 27  1  0  0  0  0
 24 31  1  0  0  0  0
 24 57  1  1  0  0  0
 26 27  1  0  0  0  0
 26 28  1  0  0  0  0
 26 58  1  6  0  0  0
 29 36  1  0  0  0  0
 29 37  1  0  0  0  0
 29 38  1  0  0  0  0
 30 34  1  0  0  0  0
 32 33  1  0  0  0  0
 33 35  2  0  0  0  0
 33 41  1  0  0  0  0
 34 42  1  0  0  0  0
 35 39  1  0  0  0  0
 39 40  2  0  0  0  0
 39 43  1  0  0  0  0
 40 44  1  0  0  0  0
 41 42  1  0  0  0  0
 43 46  2  0  0  0  0
 44 47  2  0  0  0  0
 45 48  1  0  0  0  0
 45 49  1  0  0  0  0
 46 47  1  0  0  0  0
 48 50  1  0  0  0  0
 49 51  1  0  0  0  0
 52 53  1  0  0  0  0
M  END
> <PUBCHEM_COMPOUND_ID_TYPE>
0

> <PUBCHEM_TOTAL_CHARGE>
0

> <PUBCHEM_SUBSTANCE_ID>
310929941

> <PUBCHEM_SUBSTANCE_VERSION>
1

> <PUBCHEM_EXT_DATASOURCE_NAME>
4488

> <PUBCHEM_EXT_DATASOURCE_REGID>
SCHEMBL16107162

> <PUBCHEM_SUBSTANCE_COMMENT>
InChI=1S/C35H48N4O7.C2HF3O2/c1-20-23-10-6-5-7-12-25-29(44-21-14-16-36-17-15-21)24-11-8-9-13-26(24)37-31(25)45-22-18-27(33(41)42)39(19-22)32(40)30(35(2,3)4)38-34(43)46-28(20)23;3-2(4,5)1(6)7/h8-9,11,13,20-23,27-28,30,36H,5-7,10,12,14-19H2,1-4H3,(H,38,43)(H,41,42);(H,6,7)/t20?,22-,23-,27+,28-,30-;/m1./s1
InChIKey=LUAVOLUAZSPMLB-PGRYEBRGSA-N

> <PUBCHEM_SUBSTANCE_SYNONYM>
SCHEMBL16107162

> <PUBCHEM_XREF_EXT_ID>
SCHEMBL16107162

> <PUBCHEM_EXT_DATASOURCE_URL>
https://www.surechembl.org/

> <PUBCHEM_EXT_SUBSTANCE_URL>
https://www.surechembl.org/chemical/SCHEMBL16107162

> <PUBCHEM_CID_ASSOCIATIONS>
117599202  1
6422  2
117599203  2

> <PUBCHEM_COORDINATE_TYPE>
1
3

> <PUBCHEM_BONDANNOTATIONS>
17  54  6
18  55  5
22  56  6
24  57  5
26  58  6

$$$$
