310937596
  -OEChem-07211613022D

 24 24  0     0  0  0  0  0  0999 V2000
    8.1057   -1.6330    0.0000 S   0  0  0  0  0  0  0  0  0  0  0  0
    2.1378    0.0000    0.0000 O   0  0  0  0  0  0  0  0  0  0  0  0
    8.9074   -1.6330    0.0000 O   0  0  0  0  0  0  0  0  0  0  0  0
    7.2743   -1.6330    0.0000 O   0  0  0  0  0  0  0  0  0  0  0  0
    8.1057   -0.8017    0.0000 O   0  0  0  0  0  0  0  0  0  0  0  0
    8.1057   -2.4644    0.0000 O   0  0  0  0  0  0  0  0  0  0  0  0
    4.5428   -1.2767    0.0000 N   0  0  0  0  0  0  0  0  0  0  0  0
    4.9584   -2.5238    0.0000 N   0  0  0  0  0  0  0  0  0  0  0  0
    1.4252   -1.2173    0.0000 C   0  0  0  0  0  0  0  0  0  0  0  0
    2.8504   -2.0487    0.0000 C   0  0  0  0  0  0  0  0  0  0  0  0
    2.1378   -0.8017    0.0000 C   0  0  0  0  0  0  0  0  0  0  0  0
    2.8504   -1.2173    0.0000 C   0  0  0  0  0  0  0  0  0  0  0  0
    2.1378   -2.4644    0.0000 C   0  0  0  0  0  0  0  0  0  0  0  0
    0.7423   -0.8017    0.0000 C   0  0  0  0  0  0  0  0  0  0  0  0
    1.4252   -2.0487    0.0000 C   0  0  0  0  0  0  0  0  0  0  0  0
    3.5630   -2.4644    0.0000 C   0  0  0  0  0  0  0  0  0  0  0  0
    4.3052   -2.0487    0.0000 C   0  0  0  0  0  0  0  0  0  0  0  0
    3.5630   -0.8017    0.0000 C   0  0  0  0  0  0  0  0  0  0  0  0
    2.1378   -3.2660    0.0000 C   0  0  0  0  0  0  0  0  0  0  0  0
    0.3266   -1.5143    0.0000 C   0  0  0  0  0  0  0  0  0  0  0  0
    1.1283   -0.0891    0.0000 C   0  0  0  0  0  0  0  0  0  0  0  0
    0.0000   -0.3860    0.0000 C   0  0  0  0  0  0  0  0  0  0  0  0
    5.3741   -1.2767    0.0000 C   0  0  0  0  0  0  0  0  0  0  0  0
    5.6413   -2.0487    0.0000 C   0  0  0  0  0  0  0  0  0  0  0  0
  1  3  2  0  0  0  0
  1  4  2  0  0  0  0
  1  5  1  0  0  0  0
  1  6  1  0  0  0  0
  2 11  1  0  0  0  0
  7 17  2  0  0  0  0
  7 23  1  0  0  0  0
  8 17  1  0  0  0  0
  8 24  1  0  0  0  0
  9 11  2  0  0  0  0
  9 14  1  0  0  0  0
  9 15  1  0  0  0  0
 10 12  2  0  0  0  0
 10 13  1  0  0  0  0
 10 16  1  0  0  0  0
 11 12  1  0  0  0  0
 12 18  1  0  0  0  0
 13 15  2  0  0  0  0
 13 19  1  0  0  0  0
 14 20  1  0  0  0  0
 14 21  1  0  0  0  0
 14 22  1  0  0  0  0
 16 17  1  0  0  0  0
 23 24  1  0  0  0  0
M  END
> <PUBCHEM_COMPOUND_ID_TYPE>
0

> <PUBCHEM_TOTAL_CHARGE>
0

> <PUBCHEM_SUBSTANCE_ID>
310937596

> <PUBCHEM_SUBSTANCE_VERSION>
1

> <PUBCHEM_EXT_DATASOURCE_NAME>
4488

> <PUBCHEM_EXT_DATASOURCE_REGID>
SCHEMBL16115377

> <PUBCHEM_SUBSTANCE_COMMENT>
InChI=1S/C16H24N2O.H2O4S/c1-10-8-13(16(3,4)5)15(19)11(2)12(10)9-14-17-6-7-18-14;1-5(2,3)4/h8,19H,6-7,9H2,1-5H3,(H,17,18);(H2,1,2,3,4)
InChIKey=BXFBWAHIJSFENB-UHFFFAOYSA-N

> <PUBCHEM_SUBSTANCE_SYNONYM>
SCHEMBL16115377

> <PUBCHEM_XREF_EXT_ID>
SCHEMBL16115377

> <PUBCHEM_EXT_DATASOURCE_URL>
https://www.surechembl.org/

> <PUBCHEM_EXT_SUBSTANCE_URL>
https://www.surechembl.org/chemical/SCHEMBL16115377

> <PUBCHEM_CID_ASSOCIATIONS>
85471466  1
1118  2
4636  2

> <PUBCHEM_COORDINATE_TYPE>
1
3

$$$$
