310935444
  -OEChem-07211613022D

 13 14  0     0  0  0  0  0  0999 V2000
   -0.7144   -0.4125    0.0000 N   0  0  0  0  0  0  0  0  0  0  0  0
   -0.7144    1.2375    0.0000 N   0  0  0  0  0  0  0  0  0  0  0  0
    1.0799    1.0473    0.0000 N   0  0  0  0  0  0  0  0  0  0  0  0
    1.4924   -0.2223    0.0000 N   0  0  0  0  0  0  0  0  0  0  0  0
   -1.0557    0.1026    0.0000 C   0  0  0  0  0  0  0  0  0  0  0  0
   -1.0557    0.7213    0.0000 C   0  0  0  0  0  0  0  0  0  0  0  0
   -1.4290    0.8250    0.0000 C   0  0  0  0  0  0  0  0  0  0  0  0
   -1.4290    0.0000    0.0000 C   0  0  0  0  0  0  0  0  0  0  0  0
    0.0000    0.0000    0.0000 C   0  0  0  0  0  0  0  0  0  0  0  0
    0.0000    0.8250    0.0000 C   0  0  0  0  0  0  0  0  0  0  0  0
    0.8250    0.2626    0.0000 C   0  0  0  0  0  0  0  0  0  0  0  0
    1.9049    1.0473    0.0000 C   0  0  0  0  0  0  0  0  0  0  0  0
    2.1599    0.2626    0.0000 C   0  0  0  0  0  0  0  0  0  0  0  0
  1  5  1  0  0  0  0
  1  8  1  0  0  0  0
  1  9  1  0  0  0  0
  2  6  1  0  0  0  0
  2  7  1  0  0  0  0
  2 10  1  0  0  0  0
  3 11  2  0  0  0  0
  3 12  1  0  0  0  0
  4 11  1  0  0  0  0
  4 13  1  0  0  0  0
  5  6  1  0  0  0  0
  7  8  1  0  0  0  0
  9 10  1  0  0  0  0
 12 13  2  0  0  0  0
M  END
> <PUBCHEM_COMPOUND_ID_TYPE>
0

> <PUBCHEM_TOTAL_CHARGE>
0

> <PUBCHEM_SUBSTANCE_ID>
310935444

> <PUBCHEM_SUBSTANCE_VERSION>
1

> <PUBCHEM_EXT_DATASOURCE_NAME>
4488

> <PUBCHEM_EXT_DATASOURCE_REGID>
SCHEMBL16112988

> <PUBCHEM_SUBSTANCE_COMMENT>
InChI=1S/C6H12N2.C3H4N2/c1-2-8-5-3-7(1)4-6-8;1-2-5-3-4-1/h1-6H2;1-3H,(H,4,5)
InChIKey=BWLRYJKJWCDIDR-UHFFFAOYSA-N

> <PUBCHEM_SUBSTANCE_SYNONYM>
SCHEMBL16112988

> <PUBCHEM_XREF_EXT_ID>
SCHEMBL16112988

> <PUBCHEM_EXT_DATASOURCE_URL>
https://www.surechembl.org/

> <PUBCHEM_EXT_SUBSTANCE_URL>
https://www.surechembl.org/chemical/SCHEMBL16112988

> <PUBCHEM_CID_ASSOCIATIONS>
117603485  1
795  2
9237  2

> <PUBCHEM_COORDINATE_TYPE>
1
3

$$$$
