310937321
  -OEChem-07211613022D

 40 38  0     0  0  0  0  0  0999 V2000
    1.4074   -2.4750    0.0000 O   0  0  0  0  0  0  0  0  0  0  0  0
    0.0000   -2.4750    0.0000 O   0  0  0  0  0  0  0  0  0  0  0  0
    6.6485   -2.0382    0.0000 O   0  0  0  0  0  0  0  0  0  0  0  0
    5.9205   -3.3000    0.0000 O   0  0  0  0  0  0  0  0  0  0  0  0
    0.7279   -2.8632    0.0000 C   0  0  0  0  0  0  0  0  0  0  0  0
    0.7279   -3.6882    0.0000 C   0  0  0  0  0  0  0  0  0  0  0  0
    1.4074   -4.0764    0.0000 C   0  0  0  0  0  0  0  0  0  0  0  0
    1.4074   -4.9014    0.0000 C   0  0  0  0  0  0  0  0  0  0  0  0
    2.1353   -5.3382    0.0000 C   0  0  0  0  0  0  0  0  0  0  0  0
    6.6485   -2.8632    0.0000 C   0  0  0  0  0  0  0  0  0  0  0  0
    2.8632   -4.9014    0.0000 C   0  0  0  0  0  0  0  0  0  0  0  0
    7.3764   -3.3000    0.0000 C   0  0  0  0  0  0  0  0  0  0  0  0
    8.0558   -2.8632    0.0000 C   0  0  0  0  0  0  0  0  0  0  0  0
    3.5426   -5.3382    0.0000 C   0  0  0  0  0  0  0  0  0  0  0  0
    8.7838   -3.3000    0.0000 C   0  0  0  0  0  0  0  0  0  0  0  0
    9.5117   -2.8632    0.0000 C   0  0  0  0  0  0  0  0  0  0  0  0
    4.2705   -4.9014    0.0000 C   0  0  0  0  0  0  0  0  0  0  0  0
   10.2396   -3.3000    0.0000 C   0  0  0  0  0  0  0  0  0  0  0  0
    4.2705   -4.0764    0.0000 C   0  0  0  0  0  0  0  0  0  0  0  0
   10.9675   -2.8632    0.0000 C   0  0  0  0  0  0  0  0  0  0  0  0
   11.6469   -3.3000    0.0000 C   0  0  0  0  0  0  0  0  0  0  0  0
    3.5426   -3.6882    0.0000 C   0  0  0  0  0  0  0  0  0  0  0  0
   12.3749   -2.8632    0.0000 C   0  0  0  0  0  0  0  0  0  0  0  0
   13.1028   -3.3000    0.0000 C   0  0  0  0  0  0  0  0  0  0  0  0
    3.5426   -2.8632    0.0000 C   0  0  0  0  0  0  0  0  0  0  0  0
   13.1028   -4.1249    0.0000 C   0  0  0  0  0  0  0  0  0  0  0  0
    2.8632   -2.4750    0.0000 C   0  0  0  0  0  0  0  0  0  0  0  0
   12.3749   -4.5132    0.0000 C   0  0  0  0  0  0  0  0  0  0  0  0
    2.8632   -1.6500    0.0000 C   0  0  0  0  0  0  0  0  0  0  0  0
   12.3749   -5.3382    0.0000 C   0  0  0  0  0  0  0  0  0  0  0  0
    3.5426   -1.2132    0.0000 C   0  0  0  0  0  0  0  0  0  0  0  0
   13.1028   -5.7749    0.0000 C   0  0  0  0  0  0  0  0  0  0  0  0
    3.5426   -0.3882    0.0000 C   0  0  0  0  0  0  0  0  0  0  0  0
   13.8308   -5.3382    0.0000 C   0  0  0  0  0  0  0  0  0  0  0  0
   14.5102   -5.7264    0.0000 C   0  0  0  0  0  0  0  0  0  0  0  0
    2.8632    0.0000    0.0000 C   0  0  0  0  0  0  0  0  0  0  0  0
   14.5587   -6.5514    0.0000 C   0  0  0  0  0  0  0  0  0  0  0  0
    2.1353   -0.3882    0.0000 C   0  0  0  0  0  0  0  0  0  0  0  0
   13.8308   -6.9882    0.0000 C   0  0  0  0  0  0  0  0  0  0  0  0
    1.4074    0.0000    0.0000 C   0  0  0  0  0  0  0  0  0  0  0  0
  1  5  2  0  0  0  0
  2  5  1  0  0  0  0
  3 10  2  0  0  0  0
  4 10  1  0  0  0  0
  5  6  1  0  0  0  0
  6  7  1  0  0  0  0
  7  8  1  0  0  0  0
  8  9  2  0  0  0  0
  9 11  1  0  0  0  0
 10 12  1  0  0  0  0
 11 14  1  0  0  0  0
 12 13  1  0  0  0  0
 13 15  1  0  0  0  0
 14 17  1  0  0  0  0
 15 16  1  0  0  0  0
 16 18  1  0  0  0  0
 17 19  2  0  0  0  0
 18 20  1  0  0  0  0
 19 22  1  0  0  0  0
 20 21  1  0  0  0  0
 21 23  1  0  0  0  0
 22 25  1  0  0  0  0
 23 24  2  0  0  0  0
 24 26  1  0  0  0  0
 25 27  1  0  0  0  0
 26 28  1  0  0  0  0
 27 29  2  0  0  0  0
 28 30  2  0  0  0  0
 29 31  1  0  0  0  0
 30 32  1  0  0  0  0
 31 33  1  0  0  0  0
 32 34  1  0  0  0  0
 33 36  2  0  0  0  0
 34 35  2  0  0  0  0
 35 37  1  0  0  0  0
 36 38  1  0  0  0  0
 37 39  1  0  0  0  0
 38 40  1  0  0  0  0
M  END
> <PUBCHEM_COMPOUND_ID_TYPE>
0

> <PUBCHEM_TOTAL_CHARGE>
0

> <PUBCHEM_SUBSTANCE_ID>
310937321

> <PUBCHEM_SUBSTANCE_VERSION>
1

> <PUBCHEM_EXT_DATASOURCE_NAME>
4488

> <PUBCHEM_EXT_DATASOURCE_REGID>
SCHEMBL16115069

> <PUBCHEM_SUBSTANCE_COMMENT>
InChI=1S/C18H30O2.C18H28O2/c2*1-2-3-4-5-6-7-8-9-10-11-12-13-14-15-16-17-18(19)20/h3-4,6-7,9-10H,2,5,8,11-17H2,1H3,(H,19,20);3-4,6-7,10-11,14-15H,2,5,8-9,12-13,16-17H2,1H3,(H,19,20)/b4-3-,7-6-,10-9-;4-3-,7-6-,11-10-,15-14-
InChIKey=UYDIBUGKJUHCLC-GOAFUOQESA-N

> <PUBCHEM_SUBSTANCE_SYNONYM>
SCHEMBL16115069

> <PUBCHEM_XREF_EXT_ID>
SCHEMBL16115069

> <PUBCHEM_EXT_DATASOURCE_URL>
https://www.surechembl.org/

> <PUBCHEM_EXT_SUBSTANCE_URL>
https://www.surechembl.org/chemical/SCHEMBL16115069

> <PUBCHEM_CID_ASSOCIATIONS>
117605103  1
5280934  2
20055155  2

> <PUBCHEM_COORDINATE_TYPE>
1
3

$$$$
