310936819
  -OEChem-07211613022D

 93 98  0     1  0  0  0  0  0999 V2000
    5.6626   -5.7943    0.0000 O   0  0  0  0  0  0  0  0  0  0  0  0
    7.7038   -3.7531    0.0000 O   0  0  0  0  0  0  0  0  0  0  0  0
    3.5556   -3.7531    0.0000 O   0  0  0  0  0  0  0  0  0  0  0  0
   14.8808   -2.4362    0.0000 O   0  0  0  0  0  0  0  0  0  0  0  0
   14.2224   -4.4774    0.0000 O   0  0  0  0  0  0  0  0  0  0  0  0
   16.2636   -4.8725    0.0000 O   0  0  0  0  0  0  0  0  0  0  0  0
   12.8397   -2.0412    0.0000 O   0  0  0  0  0  0  0  0  0  0  0  0
   14.8808    0.0000    0.0000 O   0  0  0  0  0  0  0  0  0  0  0  0
    6.3211   -4.5433    0.0000 N   0  0  0  0  0  0  0  0  0  0  0  0
    4.2140   -4.9383    0.0000 N   0  0  0  0  0  0  0  0  0  0  0  0
    8.4281   -4.9383    0.0000 N   0  0  0  0  0  0  0  0  0  0  0  0
   15.6052   -4.4774    0.0000 N   0  0  0  0  0  0  0  0  0  0  0  0
    0.7243   -3.7531    0.0000 N   0  0  0  0  0  0  0  0  0  0  0  0
   14.2224   -3.6214    0.0000 N   0  0  0  0  0  0  0  0  0  0  0  0
   15.6052   -6.0577    0.0000 N   0  0  0  0  0  0  0  0  0  0  0  0
   14.2224   -2.0412    0.0000 N   0  0  0  0  0  0  0  0  0  0  0  0
   13.6298   -7.3746    0.0000 N   0  0  0  0  0  0  0  0  0  0  0  0
   16.5928   -6.7820    0.0000 N   0  0  0  0  0  0  0  0  0  0  0  0
   14.7492   -8.0330    0.0000 N   0  0  0  0  0  0  0  0  0  0  0  0
   15.6052   -1.2511    0.0000 N   0  0  0  0  0  0  0  0  0  0  0  0
   10.7327   -0.8560    0.0000 N   0  0  0  0  0  0  0  0  0  0  0  0
    4.9383   -4.5433    0.0000 C   0  0  3  0  0  0  0  0  0  0  0  0
    5.6626   -4.9383    0.0000 C   0  0  0  0  0  0  0  0  0  0  0  0
    6.9795   -4.9383    0.0000 C   0  0  3  0  0  0  0  0  0  0  0  0
    5.3992   -3.9507    0.0000 C   0  0  0  0  0  0  0  0  0  0  0  0
    7.7038   -4.5433    0.0000 C   0  0  0  0  0  0  0  0  0  0  0  0
    6.5186   -5.5968    0.0000 C   0  0  0  0  0  0  0  0  0  0  0  0
    5.0042   -3.2264    0.0000 C   0  0  0  0  0  0  0  0  0  0  0  0
    3.5556   -4.5433    0.0000 C   0  0  0  0  0  0  0  0  0  0  0  0
    6.3211   -3.7531    0.0000 C   0  0  0  0  0  0  0  0  0  0  0  0
    6.8478   -6.3211    0.0000 C   0  0  0  0  0  0  0  0  0  0  0  0
    5.3992   -2.5021    0.0000 C   0  0  0  0  0  0  0  0  0  0  0  0
    4.2140   -5.7943    0.0000 C   0  0  0  0  0  0  0  0  0  0  0  0
    5.0042   -1.8436    0.0000 C   0  0  0  0  0  0  0  0  0  0  0  0
    4.2140   -3.2264    0.0000 C   0  0  0  0  0  0  0  0  0  0  0  0
    4.2140   -1.8436    0.0000 C   0  0  0  0  0  0  0  0  0  0  0  0
    2.8313   -4.9383    0.0000 C   0  0  0  0  0  0  0  0  0  0  0  0
    3.8190   -2.5021    0.0000 C   0  0  0  0  0  0  0  0  0  0  0  0
    6.4527   -7.0454    0.0000 C   0  0  0  0  0  0  0  0  0  0  0  0
    7.6380   -6.3211    0.0000 C   0  0  0  0  0  0  0  0  0  0  0  0
    5.3992   -1.1194    0.0000 C   0  0  0  0  0  0  0  0  0  0  0  0
    3.8190   -1.1194    0.0000 C   0  0  0  0  0  0  0  0  0  0  0  0
    2.1070   -4.5433    0.0000 C   0  0  0  0  0  0  0  0  0  0  0  0
    9.0865   -4.5433    0.0000 C   0  0  0  0  0  0  0  0  0  0  0  0
    6.8478   -7.7696    0.0000 C   0  0  0  0  0  0  0  0  0  0  0  0
    8.0330   -7.0454    0.0000 C   0  0  0  0  0  0  0  0  0  0  0  0
    5.0042   -0.3951    0.0000 C   0  0  0  0  0  0  0  0  0  0  0  0
    4.2140   -0.3951    0.0000 C   0  0  0  0  0  0  0  0  0  0  0  0
    7.6380   -7.7696    0.0000 C   0  0  0  0  0  0  0  0  0  0  0  0
    1.4486   -4.9383    0.0000 C   0  0  0  0  0  0  0  0  0  0  0  0
    0.7243   -4.5433    0.0000 C   0  0  0  0  0  0  0  0  0  0  0  0
   15.6052   -3.6214    0.0000 C   0  0  3  0  0  0  0  0  0  0  0  0
   16.9879   -3.6214    0.0000 C   0  0  0  0  0  0  0  0  0  0  0  0
   18.3706   -3.6214    0.0000 C   0  0  0  0  0  0  0  0  0  0  0  0
   18.3706   -4.4774    0.0000 C   0  0  0  0  0  0  0  0  0  0  0  0
   16.2636   -3.2264    0.0000 C   0  0  0  0  0  0  0  0  0  0  0  0
   14.8808   -3.2264    0.0000 C   0  0  0  0  0  0  0  0  0  0  0  0
   17.7122   -3.2264    0.0000 C   0  0  0  0  0  0  0  0  0  0  0  0
   14.8808   -4.8725    0.0000 C   0  0  0  0  0  0  0  0  0  0  0  0
   14.8808   -5.6626    0.0000 C   0  0  3  0  0  0  0  0  0  0  0  0
   16.9879   -4.4774    0.0000 C   0  0  0  0  0  0  0  0  0  0  0  0
   17.7122   -4.8725    0.0000 C   0  0  0  0  0  0  0  0  0  0  0  0
    0.0000   -4.9383    0.0000 C   0  0  0  0  0  0  0  0  0  0  0  0
    0.0000   -4.1482    0.0000 C   0  0  0  0  0  0  0  0  0  0  0  0
   13.4981   -3.2264    0.0000 C   0  0  3  0  0  0  0  0  0  0  0  0
   19.0949   -3.2264    0.0000 C   0  0  0  0  0  0  0  0  0  0  0  0
   19.0949   -4.8725    0.0000 C   0  0  0  0  0  0  0  0  0  0  0  0
   16.2636   -5.6626    0.0000 C   0  0  0  0  0  0  0  0  0  0  0  0
   14.2224   -6.0577    0.0000 C   0  0  0  0  0  0  0  0  0  0  0  0
   13.4981   -2.4362    0.0000 C   0  0  0  0  0  0  0  0  0  0  0  0
   16.9879   -6.0577    0.0000 C   0  0  0  0  0  0  0  0  0  0  0  0
   14.2224   -6.8478    0.0000 C   0  0  0  0  0  0  0  0  0  0  0  0
   12.8397   -3.6214    0.0000 C   0  0  0  0  0  0  0  0  0  0  0  0
   19.7533   -3.6214    0.0000 C   0  0  0  0  0  0  0  0  0  0  0  0
   19.7533   -4.4774    0.0000 C   0  0  0  0  0  0  0  0  0  0  0  0
   12.8397   -4.4774    0.0000 C   0  0  0  0  0  0  0  0  0  0  0  0
   14.2224   -1.2511    0.0000 C   0  0  3  0  0  0  0  0  0  0  0  0
   14.8808   -7.2429    0.0000 C   0  0  0  0  0  0  0  0  0  0  0  0
   12.1154   -4.8725    0.0000 C   0  0  0  0  0  0  0  0  0  0  0  0
   13.4981   -4.8725    0.0000 C   0  0  0  0  0  0  0  0  0  0  0  0
   17.7122   -6.4527    0.0000 C   0  0  0  0  0  0  0  0  0  0  0  0
   17.3830   -5.3334    0.0000 C   0  0  0  0  0  0  0  0  0  0  0  0
   13.9590   -8.1647    0.0000 C   0  0  0  0  0  0  0  0  0  0  0  0
   14.8808   -0.8560    0.0000 C   0  0  0  0  0  0  0  0  0  0  0  0
   13.4981   -0.8560    0.0000 C   0  0  0  0  0  0  0  0  0  0  0  0
   12.1154   -5.6626    0.0000 C   0  0  0  0  0  0  0  0  0  0  0  0
   13.4981   -5.6626    0.0000 C   0  0  0  0  0  0  0  0  0  0  0  0
   12.8397   -6.0577    0.0000 C   0  0  0  0  0  0  0  0  0  0  0  0
   12.8397   -1.2511    0.0000 C   0  0  0  0  0  0  0  0  0  0  0  0
   12.1154   -0.8560    0.0000 C   0  0  0  0  0  0  0  0  0  0  0  0
   11.3911   -1.2511    0.0000 C   0  0  0  0  0  0  0  0  0  0  0  0
    4.3458   -4.0165    0.0000 H   0  0  0  0  0  0  0  0  0  0  0  0
    7.5721   -5.5309    0.0000 H   0  0  0  0  0  0  0  0  0  0  0  0
  1 23  2  0  0  0  0
  2 26  2  0  0  0  0
  3 29  2  0  0  0  0
  4 57  2  0  0  0  0
  5 59  2  0  0  0  0
  6 68  2  0  0  0  0
  7 70  2  0  0  0  0
  8 84  2  0  0  0  0
  9 23  1  0  0  0  0
 24  9  1  6  0  0  0
  9 30  1  0  0  0  0
 22 10  1  6  0  0  0
 10 29  1  0  0  0  0
 10 33  1  0  0  0  0
 11 26  1  0  0  0  0
 11 44  1  0  0  0  0
 52 12  1  1  0  0  0
 12 59  1  0  0  0  0
 13 51  1  0  0  0  0
 14 57  1  0  0  0  0
 65 14  1  6  0  0  0
 60 15  1  1  0  0  0
 15 68  1  0  0  0  0
 16 70  1  0  0  0  0
 77 16  1  1  0  0  0
 17 72  1  0  0  0  0
 17 83  2  0  0  0  0
 18 71  1  0  0  0  0
 19 78  1  0  0  0  0
 19 83  1  0  0  0  0
 20 84  1  0  0  0  0
 21 91  1  0  0  0  0
 22 23  1  0  0  0  0
 22 25  1  0  0  0  0
 22 92  1  1  0  0  0
 24 26  1  0  0  0  0
 24 27  1  0  0  0  0
 24 93  1  6  0  0  0
 25 28  1  0  0  0  0
 27 31  1  0  0  0  0
 28 32  2  0  0  0  0
 28 35  1  0  0  0  0
 29 37  1  0  0  0  0
 31 39  2  0  0  0  0
 31 40  1  0  0  0  0
 32 34  1  0  0  0  0
 34 36  2  0  0  0  0
 34 41  1  0  0  0  0
 35 38  2  0  0  0  0
 36 38  1  0  0  0  0
 36 42  1  0  0  0  0
 37 43  2  0  0  0  0
 39 45  1  0  0  0  0
 40 46  2  0  0  0  0
 41 47  2  0  0  0  0
 42 48  2  0  0  0  0
 43 50  1  0  0  0  0
 45 49  2  0  0  0  0
 46 49  1  0  0  0  0
 47 48  1  0  0  0  0
 50 51  1  0  0  0  0
 51 63  1  0  0  0  0
 51 64  1  0  0  0  0
 52 56  1  0  0  0  0
 52 57  1  0  0  0  0
 53 56  1  0  0  0  0
 53 58  2  0  0  0  0
 53 61  1  0  0  0  0
 54 55  2  0  0  0  0
 54 58  1  0  0  0  0
 54 66  1  0  0  0  0
 55 62  1  0  0  0  0
 55 67  1  0  0  0  0
 59 60  1  0  0  0  0
 60 69  1  0  0  0  0
 61 62  2  0  0  0  0
 65 70  1  0  0  0  0
 65 73  1  0  0  0  0
 66 74  2  0  0  0  0
 67 75  2  0  0  0  0
 68 71  1  0  0  0  0
 69 72  1  0  0  0  0
 71 81  1  0  0  0  0
 71 82  1  0  0  0  0
 72 78  2  0  0  0  0
 73 76  1  0  0  0  0
 74 75  1  0  0  0  0
 76 79  2  0  0  0  0
 76 80  1  0  0  0  0
 77 84  1  0  0  0  0
 77 85  1  0  0  0  0
 79 86  1  0  0  0  0
 80 87  2  0  0  0  0
 85 89  1  0  0  0  0
 86 88  2  0  0  0  0
 87 88  1  0  0  0  0
 89 90  1  0  0  0  0
 90 91  1  0  0  0  0
M  END
> <PUBCHEM_COMPOUND_ID_TYPE>
0

> <PUBCHEM_TOTAL_CHARGE>
0

> <PUBCHEM_SUBSTANCE_ID>
310936819

> <PUBCHEM_SUBSTANCE_VERSION>
1

> <PUBCHEM_EXT_DATASOURCE_NAME>
4488

> <PUBCHEM_EXT_DATASOURCE_REGID>
SCHEMBL16114507

> <PUBCHEM_SUBSTANCE_COMMENT>
InChI=1S/C38H49N9O5.C32H40N4O3/c1-38(2,41)37(52)47-32(21-28-22-42-23-43-28)36(51)46-31(20-25-15-16-26-12-6-7-13-27(26)18-25)35(50)45-30(19-24-10-4-3-5-11-24)34(49)44-29(33(40)48)14-8-9-17-39;1-32(2,33)19-11-16-29(37)35(4)28(22-24-17-18-25-14-9-10-15-26(25)20-24)31(39)36(5)27(30(38)34-3)21-23-12-7-6-8-13-23/h3-7,10-13,15-16,18,22-23,29-32H,8-9,14,17,19-21,39,41H2,1-2H3,(H2,40,48)(H,42,43)(H,44,49)(H,45,50)(H,46,51)(H,47,52);6-18,20,27-28H,19,21-22,33H2,1-5H3,(H,34,38)/b;16-11+/t29-,30+,31+,32-;27-,28-/m01/s1
InChIKey=DEQRXWZZALGSLL-VKPIODDGSA-N

> <PUBCHEM_SUBSTANCE_SYNONYM>
SCHEMBL16114507

> <PUBCHEM_XREF_EXT_ID>
SCHEMBL16114507

> <PUBCHEM_EXT_DATASOURCE_URL>
https://www.surechembl.org/

> <PUBCHEM_EXT_SUBSTANCE_URL>
https://www.surechembl.org/chemical/SCHEMBL16114507

> <PUBCHEM_CID_ASSOCIATIONS>
117604713  1
9810101  2
9831659  2

> <PUBCHEM_COORDINATE_TYPE>
1
3

> <PUBCHEM_BONDANNOTATIONS>
22  10  6
52  12  5
65  14  6
60  15  5
77  16  5
22  92  5
24  93  6
24  9  6

$$$$
