310937454
  -OEChem-07211613022D

 39 42  0     1  0  0  0  0  0999 V2000
   -2.1434   -0.4125    0.0000 Br  0  0  0  0  0  0  0  0  0  0  0  0
    4.3974   -0.4125    0.0000 Br  0  0  0  0  0  0  0  0  0  0  0  0
    0.7144    0.4125    0.0000 O   0  0  0  0  0  0  0  0  0  0  0  0
    2.1434   -0.4125    0.0000 O   0  0  0  0  0  0  0  0  0  0  0  0
    3.5724   -0.4125    0.0000 O   0  0  0  0  0  0  0  0  0  0  0  0
    7.2552    0.4125    0.0000 O   0  0  0  0  0  0  0  0  0  0  0  0
    0.7144    1.2375    0.0000 N   0  0  0  0  0  0  0  0  0  0  0  0
    2.8579    0.8250    0.0000 N   0  0  0  0  0  0  0  0  0  0  0  0
    7.2552   -2.0625    0.0000 N   0  0  0  0  0  0  0  0  0  0  0  0
    0.7144   -0.4125    0.0000 C   0  0  3  0  0  0  0  0  0  0  0  0
    0.0000    0.0000    0.0000 C   0  0  0  0  0  0  0  0  0  0  0  0
    1.4290    0.0000    0.0000 C   0  0  0  0  0  0  0  0  0  0  0  0
    0.7144   -1.2375    0.0000 C   0  0  0  0  0  0  0  0  0  0  0  0
    0.0000    0.8250    0.0000 C   0  0  0  0  0  0  0  0  0  0  0  0
   -0.7144   -0.4125    0.0000 C   0  0  0  0  0  0  0  0  0  0  0  0
    1.4290    0.8250    0.0000 C   0  0  0  0  0  0  0  0  0  0  0  0
    0.0000   -1.6500    0.0000 C   0  0  0  0  0  0  0  0  0  0  0  0
    1.4290   -1.6500    0.0000 C   0  0  0  0  0  0  0  0  0  0  0  0
   -1.4290    0.0000    0.0000 C   0  0  0  0  0  0  0  0  0  0  0  0
   -0.7144    1.2375    0.0000 C   0  0  0  0  0  0  0  0  0  0  0  0
    2.8579    0.0000    0.0000 C   0  0  0  0  0  0  0  0  0  0  0  0
   -1.4290    0.8250    0.0000 C   0  0  0  0  0  0  0  0  0  0  0  0
    2.1434    1.2375    0.0000 C   0  0  0  0  0  0  0  0  0  0  0  0
    0.0000   -2.4750    0.0000 C   0  0  0  0  0  0  0  0  0  0  0  0
    1.4290   -2.4750    0.0000 C   0  0  0  0  0  0  0  0  0  0  0  0
    0.7144   -2.8875    0.0000 C   0  0  0  0  0  0  0  0  0  0  0  0
    6.5408   -0.8250    0.0000 C   0  0  0  0  0  0  0  0  0  0  0  0
    7.2552   -0.4125    0.0000 C   0  0  0  0  0  0  0  0  0  0  0  0
    6.5408   -1.6500    0.0000 C   0  0  0  0  0  0  0  0  0  0  0  0
    7.9697   -0.8250    0.0000 C   0  0  0  0  0  0  0  0  0  0  0  0
    5.8263   -0.4125    0.0000 C   0  0  0  0  0  0  0  0  0  0  0  0
    5.1118   -0.8250    0.0000 C   0  0  0  0  0  0  0  0  0  0  0  0
    5.8263   -2.0625    0.0000 C   0  0  0  0  0  0  0  0  0  0  0  0
    5.1118   -1.6500    0.0000 C   0  0  0  0  0  0  0  0  0  0  0  0
    7.9697   -1.6500    0.0000 C   0  0  0  0  0  0  0  0  0  0  0  0
    8.6842   -0.4125    0.0000 C   0  0  0  0  0  0  0  0  0  0  0  0
    8.6842   -2.0625    0.0000 C   0  0  0  0  0  0  0  0  0  0  0  0
    9.3986   -0.8250    0.0000 C   0  0  0  0  0  0  0  0  0  0  0  0
    9.3986   -1.6500    0.0000 C   0  0  0  0  0  0  0  0  0  0  0  0
  1 19  1  0  0  0  0
  2 32  1  0  0  0  0
  3 10  1  0  0  0  0
  4 12  1  0  0  0  0
  4 21  1  0  0  0  0
  5 21  2  0  0  0  0
  6 28  2  0  0  0  0
  7 14  1  0  0  0  0
  8 21  1  0  0  0  0
  8 23  2  0  0  0  0
  9 29  1  0  0  0  0
 10 11  1  0  0  0  0
 10 12  1  0  0  0  0
 10 13  1  0  0  0  0
 11 14  1  0  0  0  0
 11 15  2  0  0  0  0
 12 16  2  0  0  0  0
 13 17  2  0  0  0  0
 13 18  1  0  0  0  0
 14 20  2  0  0  0  0
 15 19  1  0  0  0  0
 16 23  1  0  0  0  0
 17 24  1  0  0  0  0
 18 25  2  0  0  0  0
 19 22  2  0  0  0  0
 20 22  1  0  0  0  0
 24 26  2  0  0  0  0
 25 26  1  0  0  0  0
 27 28  1  0  0  0  0
 27 29  1  0  0  0  0
 27 31  2  0  0  0  0
 28 30  1  0  0  0  0
 29 33  2  0  0  0  0
 30 35  2  0  0  0  0
 30 36  1  0  0  0  0
 31 32  1  0  0  0  0
 32 34  2  0  0  0  0
 33 34  1  0  0  0  0
 35 37  1  0  0  0  0
 36 38  2  0  0  0  0
 37 39  2  0  0  0  0
 38 39  1  0  0  0  0
M  END
> <PUBCHEM_COMPOUND_ID_TYPE>
0

> <PUBCHEM_TOTAL_CHARGE>
0

> <PUBCHEM_SUBSTANCE_ID>
310937454

> <PUBCHEM_SUBSTANCE_VERSION>
1

> <PUBCHEM_EXT_DATASOURCE_NAME>
4488

> <PUBCHEM_EXT_DATASOURCE_REGID>
SCHEMBL16115222

> <PUBCHEM_SUBSTANCE_COMMENT>
InChI=1S/C17H13BrN2O3.C13H10BrNO/c18-12-6-7-14(19)13(10-12)17(22,11-4-2-1-3-5-11)15-8-9-20-16(21)23-15;14-10-6-7-12(15)11(8-10)13(16)9-4-2-1-3-5-9/h1-10,22H,19H2;1-8H,15H2
InChIKey=BSNAAQQLRDAZHM-UHFFFAOYSA-N

> <PUBCHEM_SUBSTANCE_SYNONYM>
SCHEMBL16115222

> <PUBCHEM_XREF_EXT_ID>
SCHEMBL16115222

> <PUBCHEM_EXT_DATASOURCE_URL>
https://www.surechembl.org/

> <PUBCHEM_EXT_SUBSTANCE_URL>
https://www.surechembl.org/chemical/SCHEMBL16115222

> <PUBCHEM_CID_ASSOCIATIONS>
117605198  1
99677  2
117605199  2

> <PUBCHEM_COORDINATE_TYPE>
1
3

$$$$
