310928955
  -OEChem-07211613022D

 36 37  0     1  0  0  0  0  0999 V2000
    0.6592    1.6500    0.0000 O   0  0  0  0  0  0  0  0  0  0  0  0
    1.3737    2.0625    0.0000 O   0  0  0  0  0  0  0  0  0  0  0  0
    2.8026    2.0625    0.0000 O   0  0  0  0  0  0  0  0  0  0  0  0
    4.2316   -0.4125    0.0000 O   0  0  0  0  0  0  0  0  0  0  0  0
    4.9460    0.8250    0.0000 O   0  0  0  0  0  0  0  0  0  0  0  0
    6.4855    0.2062    0.0000 O   0  0  0  0  0  0  0  0  0  0  0  0
   -4.3421   -0.4125    0.0000 N   0  0  0  0  0  0  0  0  0  0  0  0
   -5.7710   -2.0625    0.0000 N   0  0  0  0  0  0  0  0  0  0  0  0
   -4.3421   -2.0625    0.0000 N   0  0  0  0  0  0  0  0  0  0  0  0
   -6.4855   -0.8250    0.0000 N   0  0  0  0  0  0  0  0  0  0  0  0
   -2.1987   -0.8250    0.0000 N   0  0  3  0  0  0  0  0  0  0  0  0
   -5.7710    0.4125    0.0000 N   0  0  0  0  0  0  0  0  0  0  0  0
   -7.2000   -2.0625    0.0000 N   0  0  0  0  0  0  0  0  0  0  0  0
    1.3737    0.4125    0.0000 N   0  0  0  0  0  0  0  0  0  0  0  0
   -5.0566   -0.8250    0.0000 C   0  0  0  0  0  0  0  0  0  0  0  0
   -5.0566   -1.6500    0.0000 C   0  0  0  0  0  0  0  0  0  0  0  0
   -5.7710   -0.4125    0.0000 C   0  0  0  0  0  0  0  0  0  0  0  0
   -3.6276   -0.8250    0.0000 C   0  0  0  0  0  0  0  0  0  0  0  0
   -6.4855   -1.6500    0.0000 C   0  0  0  0  0  0  0  0  0  0  0  0
   -3.6276   -1.6500    0.0000 C   0  0  0  0  0  0  0  0  0  0  0  0
   -2.9131   -0.4125    0.0000 C   0  0  0  0  0  0  0  0  0  0  0  0
   -1.4842   -0.4125    0.0000 C   0  0  0  0  0  0  0  0  0  0  0  0
   -0.0553    0.4125    0.0000 C   0  0  0  0  0  0  0  0  0  0  0  0
   -0.7697   -0.8250    0.0000 C   0  0  0  0  0  0  0  0  0  0  0  0
   -1.4842    0.4125    0.0000 C   0  0  0  0  0  0  0  0  0  0  0  0
    0.6592    0.8250    0.0000 C   0  0  0  0  0  0  0  0  0  0  0  0
   -0.0553   -0.4125    0.0000 C   0  0  0  0  0  0  0  0  0  0  0  0
   -0.7697    0.8250    0.0000 C   0  0  0  0  0  0  0  0  0  0  0  0
    2.0881    0.8250    0.0000 C   0  0  3  0  0  0  0  0  0  0  0  0
   -2.1987   -1.6500    0.0000 C   0  0  0  0  0  0  0  0  0  0  0  0
    2.0881    1.6500    0.0000 C   0  0  0  0  0  0  0  0  0  0  0  0
    2.8026    0.4125    0.0000 C   0  0  0  0  0  0  0  0  0  0  0  0
    3.5171    0.8250    0.0000 C   0  0  0  0  0  0  0  0  0  0  0  0
    4.2316    0.4125    0.0000 C   0  0  0  0  0  0  0  0  0  0  0  0
    5.7710   -0.2062    0.0000 H   0  0  0  0  0  0  0  0  0  0  0  0
    7.2000   -0.2063    0.0000 H   0  0  0  0  0  0  0  0  0  0  0  0
  1 26  2  0  0  0  0
  2 31  2  0  0  0  0
  3 31  1  0  0  0  0
  4 34  2  0  0  0  0
  5 34  1  0  0  0  0
  6 35  1  0  0  0  0
  6 36  1  0  0  0  0
  7 15  1  0  0  0  0
  7 18  2  0  0  0  0
  8 16  2  0  0  0  0
  8 19  1  0  0  0  0
  9 16  1  0  0  0  0
  9 20  2  0  0  0  0
 10 17  1  0  0  0  0
 10 19  2  0  0  0  0
 11 21  1  0  0  0  0
 11 22  1  0  0  0  0
 11 30  1  0  0  0  0
 12 17  1  0  0  0  0
 13 19  1  0  0  0  0
 14 26  1  0  0  0  0
 29 14  1  6  0  0  0
 15 16  1  0  0  0  0
 15 17  2  0  0  0  0
 18 20  1  0  0  0  0
 18 21  1  0  0  0  0
 22 24  2  0  0  0  0
 22 25  1  0  0  0  0
 23 26  1  0  0  0  0
 23 27  2  0  0  0  0
 23 28  1  0  0  0  0
 24 27  1  0  0  0  0
 25 28  2  0  0  0  0
 29 31  1  0  0  0  0
 29 32  1  0  0  0  0
 32 33  1  0  0  0  0
 33 34  1  0  0  0  0
M  END
> <PUBCHEM_COMPOUND_ID_TYPE>
0

> <PUBCHEM_TOTAL_CHARGE>
0

> <PUBCHEM_SUBSTANCE_ID>
310928955

> <PUBCHEM_SUBSTANCE_VERSION>
2

> <PUBCHEM_EXT_DATASOURCE_NAME>
11752

> <PUBCHEM_EXT_DATASOURCE_REGID>
BD137723

> <PUBCHEM_SUBSTANCE_SYNONYM>
133073-73-1
Methotrexate hydrate(1:x)

> <PUBCHEM_GENERIC_REGISTRY_NAME>
133073-73-1

> <PUBCHEM_XREF_EXT_ID>
BD137723

> <PUBCHEM_EXT_DATASOURCE_URL>
http://www.bidepharmatech.com/en/index.html

> <PUBCHEM_EXT_SUBSTANCE_URL>
http://www.bidepharmatech.com/en/goodsview_goodscode_BD137723.html

> <PUBCHEM_CID_ASSOCIATIONS>
165528  1
962  2
126941  2

> <PUBCHEM_COORDINATE_TYPE>
1
3

> <PUBCHEM_BONDANNOTATIONS>
29  14  6

$$$$
