310936641
  -OEChem-07211613022D

 18 17  0     0  0  0  0  0  0999 V2000
    4.5381   -1.2253    0.0000 F   0  0  0  0  0  0  0  0  0  0  0  0
    3.8120   -2.4733    0.0000 F   0  0  0  0  0  0  0  0  0  0  0  0
    3.8120   -1.6564    0.0000 F   0  0  0  0  0  0  0  0  0  0  0  0
    5.2641   -3.3128    0.0000 O   0  0  0  0  0  0  0  0  0  0  0  0
    5.9676   -2.0648    0.0000 O   0  0  0  0  0  0  0  0  0  0  0  0
    1.4295   -2.0648    0.0000 N   0  0  0  0  0  0  0  0  0  0  0  0
    1.4295   -4.5381    0.0000 N   0  0  0  0  0  0  0  0  0  0  0  0
    4.5381   -2.0648    0.0000 C   0  0  0  0  0  0  0  0  0  0  0  0
    5.2641   -2.4733    0.0000 C   0  0  0  0  0  0  0  0  0  0  0  0
    1.4295   -3.7212    0.0000 C   0  0  0  0  0  0  0  0  0  0  0  0
    2.1556   -2.4733    0.0000 C   0  0  0  0  0  0  0  0  0  0  0  0
    0.7261   -2.4733    0.0000 C   0  0  0  0  0  0  0  0  0  0  0  0
    2.1556   -3.2901    0.0000 C   0  0  0  0  0  0  0  0  0  0  0  0
    0.7261   -3.2901    0.0000 C   0  0  0  0  0  0  0  0  0  0  0  0
    1.4295   -1.2253    0.0000 C   0  0  0  0  0  0  0  0  0  0  0  0
    0.7034   -0.8168    0.0000 C   0  0  0  0  0  0  0  0  0  0  0  0
    0.7034    0.0000    0.0000 C   0  0  0  0  0  0  0  0  0  0  0  0
    0.0000   -1.2480    0.0000 C   0  0  0  0  0  0  0  0  0  0  0  0
  1  8  1  0  0  0  0
  2  8  1  0  0  0  0
  3  8  1  0  0  0  0
  4  9  2  0  0  0  0
  5  9  1  0  0  0  0
  6 11  1  0  0  0  0
  6 12  1  0  0  0  0
  6 15  1  0  0  0  0
  7 10  1  0  0  0  0
  8  9  1  0  0  0  0
 10 13  1  0  0  0  0
 10 14  1  0  0  0  0
 11 13  1  0  0  0  0
 12 14  1  0  0  0  0
 15 16  1  0  0  0  0
 16 17  1  0  0  0  0
 16 18  1  0  0  0  0
M  END
> <PUBCHEM_COMPOUND_ID_TYPE>
0

> <PUBCHEM_TOTAL_CHARGE>
0

> <PUBCHEM_SUBSTANCE_ID>
310936641

> <PUBCHEM_SUBSTANCE_VERSION>
1

> <PUBCHEM_EXT_DATASOURCE_NAME>
4488

> <PUBCHEM_EXT_DATASOURCE_REGID>
SCHEMBL16114304

> <PUBCHEM_SUBSTANCE_COMMENT>
InChI=1S/C9H20N2.C2HF3O2/c1-8(2)7-11-5-3-9(10)4-6-11;3-2(4,5)1(6)7/h8-9H,3-7,10H2,1-2H3;(H,6,7)
InChIKey=ZZTIBVKGQRFFPI-UHFFFAOYSA-N

> <PUBCHEM_SUBSTANCE_SYNONYM>
SCHEMBL16114304

> <PUBCHEM_XREF_EXT_ID>
SCHEMBL16114304

> <PUBCHEM_EXT_DATASOURCE_URL>
https://www.surechembl.org/

> <PUBCHEM_EXT_SUBSTANCE_URL>
https://www.surechembl.org/chemical/SCHEMBL16114304

> <PUBCHEM_CID_ASSOCIATIONS>
117604555  1
6422  2
550780  2

> <PUBCHEM_COORDINATE_TYPE>
1
3

$$$$
