310934541
  -OEChem-07211613022D

 12 11  0     0  0  0  0  0  0999 V2000
    1.8213    2.0532    0.0000 O   0  0  0  0  0  0  0  0  0  0  0  0
    3.3607    1.6901    0.0000 O   0  0  0  0  0  0  0  0  0  0  0  0
    4.0752    0.4526    0.0000 O   0  0  0  0  0  0  0  0  0  0  0  0
    0.4329    1.8968    0.0000 N   0  0  0  0  0  0  0  0  0  0  0  0
    1.1762    1.5388    0.0000 C   0  0  0  0  0  0  0  0  0  0  0  0
    1.3598    0.7345    0.0000 C   0  0  0  0  0  0  0  0  0  0  0  0
   -0.3104    1.5388    0.0000 C   0  0  0  0  0  0  0  0  0  0  0  0
    0.8455    0.0895    0.0000 C   0  0  0  0  0  0  0  0  0  0  0  0
   -0.4939    0.7345    0.0000 C   0  0  0  0  0  0  0  0  0  0  0  0
    0.0204    0.0895    0.0000 C   0  0  0  0  0  0  0  0  0  0  0  0
    3.3607    0.8651    0.0000 C   0  0  0  0  0  0  0  0  0  0  0  0
    2.6463    0.4526    0.0000 C   0  0  0  0  0  0  0  0  0  0  0  0
  1  5  2  0  0  0  0
  2 11  2  0  0  0  0
  3 11  1  0  0  0  0
  4  5  1  0  0  0  0
  4  7  1  0  0  0  0
  5  6  1  0  0  0  0
  6  8  1  0  0  0  0
  7  9  1  0  0  0  0
  8 10  1  0  0  0  0
  9 10  1  0  0  0  0
 11 12  1  0  0  0  0
M  END
> <PUBCHEM_COMPOUND_ID_TYPE>
0

> <PUBCHEM_TOTAL_CHARGE>
0

> <PUBCHEM_SUBSTANCE_ID>
310934541

> <PUBCHEM_SUBSTANCE_VERSION>
1

> <PUBCHEM_EXT_DATASOURCE_NAME>
4488

> <PUBCHEM_EXT_DATASOURCE_REGID>
SCHEMBL16112032

> <PUBCHEM_SUBSTANCE_COMMENT>
InChI=1S/C6H11NO.C2H4O2/c8-6-4-2-1-3-5-7-6;1-2(3)4/h1-5H2,(H,7,8);1H3,(H,3,4)
InChIKey=XQLAWOBSQBVHEL-UHFFFAOYSA-N

> <PUBCHEM_SUBSTANCE_SYNONYM>
SCHEMBL16112032

> <PUBCHEM_XREF_EXT_ID>
SCHEMBL16112032

> <PUBCHEM_EXT_DATASOURCE_URL>
https://www.surechembl.org/

> <PUBCHEM_EXT_SUBSTANCE_URL>
https://www.surechembl.org/chemical/SCHEMBL16112032

> <PUBCHEM_CID_ASSOCIATIONS>
117602736  1
176  2
7768  2

> <PUBCHEM_COORDINATE_TYPE>
1
3

$$$$
