310936409
  -OEChem-07211613022D

 18 19  0     1  0  0  0  0  0999 V2000
    0.0000   -2.0702    0.0000 Cl  0  0  0  0  0  0  0  0  0  0  0  0
    2.1323   -2.6498    0.0000 O   0  0  0  0  0  0  0  0  0  0  0  0
    2.1323   -3.9747    0.0000 O   0  0  0  0  0  0  0  0  0  0  0  0
    5.0513   -1.6561    0.0000 N   0  0  0  0  0  0  0  0  0  0  0  0
    5.0513    0.0000    0.0000 N   0  0  0  0  0  0  0  0  0  0  0  0
    2.9190   -2.8776    0.0000 C   0  0  0  0  0  0  0  0  0  0  0  0
    4.3474   -2.8776    0.0000 C   0  0  0  0  0  0  0  0  0  0  0  0
    2.9190   -3.7263    0.0000 C   0  0  0  0  0  0  0  0  0  0  0  0
    5.0513   -2.4842    0.0000 C   0  0  3  0  0  0  0  0  0  0  0  0
    3.6436   -2.4842    0.0000 C   0  0  0  0  0  0  0  0  0  0  0  0
    4.3267   -3.7471    0.0000 C   0  0  0  0  0  0  0  0  0  0  0  0
    3.6436   -4.1404    0.0000 C   0  0  0  0  0  0  0  0  0  0  0  0
    1.6355   -3.2916    0.0000 C   0  0  0  0  0  0  0  0  0  0  0  0
    5.7758   -1.2421    0.0000 C   0  0  0  0  0  0  0  0  0  0  0  0
    4.3474   -1.2421    0.0000 C   0  0  0  0  0  0  0  0  0  0  0  0
    5.7758   -2.8776    0.0000 C   0  0  0  0  0  0  0  0  0  0  0  0
    4.3474   -0.4141    0.0000 C   0  0  0  0  0  0  0  0  0  0  0  0
    5.7758   -0.4141    0.0000 C   0  0  0  0  0  0  0  0  0  0  0  0
  2  6  1  0  0  0  0
  2 13  1  0  0  0  0
  3  8  1  0  0  0  0
  3 13  1  0  0  0  0
  4  9  1  0  0  0  0
  4 14  1  0  0  0  0
  4 15  1  0  0  0  0
  5 17  1  0  0  0  0
  5 18  1  0  0  0  0
  6  8  2  0  0  0  0
  6 10  1  0  0  0  0
  7  9  1  0  0  0  0
  7 10  2  0  0  0  0
  7 11  1  0  0  0  0
  8 12  1  0  0  0  0
  9 16  1  0  0  0  0
 11 12  2  0  0  0  0
 14 18  1  0  0  0  0
 15 17  1  0  0  0  0
M  END
> <PUBCHEM_COMPOUND_ID_TYPE>
0

> <PUBCHEM_TOTAL_CHARGE>
0

> <PUBCHEM_SUBSTANCE_ID>
310936409

> <PUBCHEM_SUBSTANCE_VERSION>
1

> <PUBCHEM_EXT_DATASOURCE_NAME>
4488

> <PUBCHEM_EXT_DATASOURCE_REGID>
SCHEMBL16114049

> <PUBCHEM_SUBSTANCE_COMMENT>
InChI=1S/C13H18N2O2.ClH/c1-10(15-6-4-14-5-7-15)11-2-3-12-13(8-11)17-9-16-12;/h2-3,8,10,14H,4-7,9H2,1H3;1H
InChIKey=NBKIMAFXTHTCRX-UHFFFAOYSA-N

> <PUBCHEM_SUBSTANCE_SYNONYM>
SCHEMBL16114049

> <PUBCHEM_XREF_EXT_ID>
SCHEMBL16114049

> <PUBCHEM_EXT_DATASOURCE_URL>
https://www.surechembl.org/

> <PUBCHEM_EXT_SUBSTANCE_URL>
https://www.surechembl.org/chemical/SCHEMBL16114049

> <PUBCHEM_CID_ASSOCIATIONS>
117604345  1
313  2
3960363  2

> <PUBCHEM_COORDINATE_TYPE>
1
3

$$$$
