310937628
  -OEChem-07211613022D

 37 41  0     0  0  0  0  0  0999 V2000
    7.0214   -3.9589    0.0000 F   0  0  0  0  0  0  0  0  0  0  0  0
    9.7852   -1.1951    0.0000 F   0  0  0  0  0  0  0  0  0  0  0  0
    9.0755   -2.4650    0.0000 F   0  0  0  0  0  0  0  0  0  0  0  0
    9.0755   -1.6060    0.0000 F   0  0  0  0  0  0  0  0  0  0  0  0
   10.4948   -3.2866    0.0000 O   0  0  0  0  0  0  0  0  0  0  0  0
   11.2044   -2.0168    0.0000 O   0  0  0  0  0  0  0  0  0  0  0  0
    6.0877   -1.6060    0.0000 N   0  0  0  0  0  0  0  0  0  0  0  0
    2.2035   -0.6349    0.0000 N   0  0  0  0  0  0  0  0  0  0  0  0
    5.0420   -2.9878    0.0000 N   0  0  0  0  0  0  0  0  0  0  0  0
    7.4322   -1.6433    0.0000 N   0  0  0  0  0  0  0  0  0  0  0  0
    3.6974   -3.5481    0.0000 N   0  0  0  0  0  0  0  0  0  0  0  0
    4.8552   -4.4071    0.0000 N   0  0  0  0  0  0  0  0  0  0  0  0
    0.0000   -1.7180    0.0000 N   0  0  0  0  0  0  0  0  0  0  0  0
    6.3118   -2.4276    0.0000 C   0  0  0  0  0  0  0  0  0  0  0  0
    2.2035   -1.9421    0.0000 C   0  0  0  0  0  0  0  0  0  0  0  0
    5.8263   -3.0999    0.0000 C   0  0  0  0  0  0  0  0  0  0  0  0
    1.4566   -1.7180    0.0000 C   0  0  0  0  0  0  0  0  0  0  0  0
    2.7264   -1.2698    0.0000 C   0  0  0  0  0  0  0  0  0  0  0  0
    6.7600   -1.1578    0.0000 C   0  0  0  0  0  0  0  0  0  0  0  0
    1.4566   -0.8590    0.0000 C   0  0  0  0  0  0  0  0  0  0  0  0
    6.1998   -3.8468    0.0000 C   0  0  0  0  0  0  0  0  0  0  0  0
    3.3613   -2.8011    0.0000 C   0  0  0  0  0  0  0  0  0  0  0  0
    4.5191   -3.6601    0.0000 C   0  0  0  0  0  0  0  0  0  0  0  0
    2.5770   -2.6891    0.0000 C   0  0  0  0  0  0  0  0  0  0  0  0
    7.1708   -2.4276    0.0000 C   0  0  0  0  0  0  0  0  0  0  0  0
    3.5107   -1.3819    0.0000 C   0  0  0  0  0  0  0  0  0  0  0  0
    5.3408   -1.2698    0.0000 C   0  0  0  0  0  0  0  0  0  0  0  0
    3.8468   -2.1288    0.0000 C   0  0  0  0  0  0  0  0  0  0  0  0
    0.7096   -2.1288    0.0000 C   0  0  0  0  0  0  0  0  0  0  0  0
    5.6769   -4.4818    0.0000 C   0  0  0  0  0  0  0  0  0  0  0  0
    6.6853   -0.3361    0.0000 C   0  0  0  0  0  0  0  0  0  0  0  0
    0.7096   -0.4482    0.0000 C   0  0  0  0  0  0  0  0  0  0  0  0
    5.2661   -0.4482    0.0000 C   0  0  0  0  0  0  0  0  0  0  0  0
    5.9383    0.0000    0.0000 C   0  0  0  0  0  0  0  0  0  0  0  0
    0.0000   -0.8590    0.0000 C   0  0  0  0  0  0  0  0  0  0  0  0
    9.7852   -2.0168    0.0000 C   0  0  0  0  0  0  0  0  0  0  0  0
   10.4948   -2.4650    0.0000 C   0  0  0  0  0  0  0  0  0  0  0  0
  1 21  1  0  0  0  0
  2 36  1  0  0  0  0
  3 36  1  0  0  0  0
  4 36  1  0  0  0  0
  5 37  2  0  0  0  0
  6 37  1  0  0  0  0
  7 14  1  0  0  0  0
  7 19  1  0  0  0  0
  7 27  1  0  0  0  0
  8 18  1  0  0  0  0
  8 20  1  0  0  0  0
  9 16  2  0  0  0  0
  9 23  1  0  0  0  0
 10 19  2  0  0  0  0
 10 25  1  0  0  0  0
 11 22  1  0  0  0  0
 11 23  1  0  0  0  0
 12 23  2  0  0  0  0
 12 30  1  0  0  0  0
 13 29  1  0  0  0  0
 13 35  1  0  0  0  0
 14 16  1  0  0  0  0
 14 25  2  0  0  0  0
 15 17  1  0  0  0  0
 15 18  2  0  0  0  0
 15 24  1  0  0  0  0
 16 21  1  0  0  0  0
 17 20  2  0  0  0  0
 17 29  1  0  0  0  0
 18 26  1  0  0  0  0
 19 31  1  0  0  0  0
 20 32  1  0  0  0  0
 21 30  2  0  0  0  0
 22 24  2  0  0  0  0
 22 28  1  0  0  0  0
 26 28  2  0  0  0  0
 27 33  2  0  0  0  0
 31 34  2  0  0  0  0
 32 35  1  0  0  0  0
 33 34  1  0  0  0  0
 36 37  1  0  0  0  0
M  END
> <PUBCHEM_COMPOUND_ID_TYPE>
0

> <PUBCHEM_TOTAL_CHARGE>
0

> <PUBCHEM_SUBSTANCE_ID>
310937628

> <PUBCHEM_SUBSTANCE_VERSION>
1

> <PUBCHEM_EXT_DATASOURCE_NAME>
4488

> <PUBCHEM_EXT_DATASOURCE_REGID>
SCHEMBL16115413

> <PUBCHEM_SUBSTANCE_COMMENT>
InChI=1S/C22H18FN7.C2HF3O2/c23-16-11-26-22(29-21(16)19-12-25-20-3-1-2-8-30(19)20)27-13-4-5-17-14(9-13)15-10-24-7-6-18(15)28-17;3-2(4,5)1(6)7/h1-5,8-9,11-12,24,28H,6-7,10H2,(H,26,27,29);(H,6,7)
InChIKey=KWNBUDFUDYTATQ-UHFFFAOYSA-N

> <PUBCHEM_SUBSTANCE_SYNONYM>
SCHEMBL16115413

> <PUBCHEM_XREF_EXT_ID>
SCHEMBL16115413

> <PUBCHEM_EXT_DATASOURCE_URL>
https://www.surechembl.org/

> <PUBCHEM_EXT_SUBSTANCE_URL>
https://www.surechembl.org/chemical/SCHEMBL16115413

> <PUBCHEM_CID_ASSOCIATIONS>
86300965  1
6422  2
86300966  2

> <PUBCHEM_COORDINATE_TYPE>
1
3

$$$$
