310931413
  -OEChem-07211613022D

 12 10  0     0  0  0  0  0  0999 V2000
    3.6682    1.9875    0.0000 F   0  0  0  0  0  0  0  0  0  0  0  0
    4.4932    1.1625    0.0000 F   0  0  0  0  0  0  0  0  0  0  0  0
    2.8432    1.1625    0.0000 F   0  0  0  0  0  0  0  0  0  0  0  0
    2.9538   -0.0750    0.0000 O   0  0  0  0  0  0  0  0  0  0  0  0
    4.3827   -0.0750    0.0000 O   0  0  0  0  0  0  0  0  0  0  0  0
    3.6682   -1.3125    0.0000 O   0  0  0  0  0  0  0  0  0  0  0  0
    2.2393   -2.1375    0.0000 N   0  0  0  0  0  0  0  0  0  0  0  0
    0.0000    0.0000    0.0000 N   0  0  0  0  0  0  0  0  0  0  0  0
    3.6682    1.1625    0.0000 C   0  0  0  0  0  0  0  0  0  0  0  0
    3.6682    0.3375    0.0000 C   0  0  0  0  0  0  0  0  0  0  0  0
    2.9538   -0.9000    0.0000 C   0  0  0  0  0  0  0  0  0  0  0  0
    2.2393   -1.3125    0.0000 C   0  0  0  0  0  0  0  0  0  0  0  0
  1  9  1  0  0  0  0
  2  9  1  0  0  0  0
  3  9  1  0  0  0  0
  4 10  1  0  0  0  0
  4 11  1  0  0  0  0
  5 10  2  0  0  0  0
  6 11  2  0  0  0  0
  7 12  1  0  0  0  0
  9 10  1  0  0  0  0
 11 12  1  0  0  0  0
M  END
> <PUBCHEM_COMPOUND_ID_TYPE>
0

> <PUBCHEM_TOTAL_CHARGE>
0

> <PUBCHEM_SUBSTANCE_ID>
310931413

> <PUBCHEM_SUBSTANCE_VERSION>
1

> <PUBCHEM_EXT_DATASOURCE_NAME>
4488

> <PUBCHEM_EXT_DATASOURCE_REGID>
SCHEMBL16108738

> <PUBCHEM_SUBSTANCE_COMMENT>
InChI=1S/C4H4F3NO3.H3N/c5-4(6,7)3(10)11-2(9)1-8;/h1,8H2;1H3
InChIKey=RYBUTLNQTMWSQU-UHFFFAOYSA-N

> <PUBCHEM_SUBSTANCE_SYNONYM>
SCHEMBL16108738

> <PUBCHEM_XREF_EXT_ID>
SCHEMBL16108738

> <PUBCHEM_EXT_DATASOURCE_URL>
https://www.surechembl.org/

> <PUBCHEM_EXT_SUBSTANCE_URL>
https://www.surechembl.org/chemical/SCHEMBL16108738

> <PUBCHEM_CID_ASSOCIATIONS>
117600196  1
222  2
57503205  2

> <PUBCHEM_COORDINATE_TYPE>
1
3

$$$$
