310935251
  -OEChem-07211613022D

 12 11  0     0  0  0  0  0  0999 V2000
    0.0000   -2.0619    0.0000 Cl  0  0  0  0  0  0  0  0  0  0  0  0
    3.0722    0.0000    0.0000 N   0  0  0  0  0  0  0  0  0  0  0  0
    3.0722   -1.6495    0.0000 C   0  0  0  0  0  0  0  0  0  0  0  0
    3.7938   -1.2371    0.0000 C   0  0  0  0  0  0  0  0  0  0  0  0
    2.3711   -1.2371    0.0000 C   0  0  0  0  0  0  0  0  0  0  0  0
    3.0722   -2.4742    0.0000 C   0  0  0  0  0  0  0  0  0  0  0  0
    3.7938   -0.4124    0.0000 C   0  0  0  0  0  0  0  0  0  0  0  0
    2.3711   -0.4124    0.0000 C   0  0  0  0  0  0  0  0  0  0  0  0
    3.7938   -2.0619    0.0000 C   0  0  0  0  0  0  0  0  0  0  0  0
    2.3505   -2.8866    0.0000 C   0  0  0  0  0  0  0  0  0  0  0  0
    2.3711   -3.7113    0.0000 C   0  0  0  0  0  0  0  0  0  0  0  0
    1.6495   -4.1237    0.0000 C   0  0  0  0  0  0  0  0  0  0  0  0
  2  7  1  0  0  0  0
  2  8  1  0  0  0  0
  3  4  1  0  0  0  0
  3  5  1  0  0  0  0
  3  6  1  0  0  0  0
  3  9  1  0  0  0  0
  4  7  1  0  0  0  0
  5  8  1  0  0  0  0
  6 10  1  0  0  0  0
 10 11  1  0  0  0  0
 11 12  2  0  0  0  0
M  END
> <PUBCHEM_COMPOUND_ID_TYPE>
0

> <PUBCHEM_TOTAL_CHARGE>
0

> <PUBCHEM_SUBSTANCE_ID>
310935251

> <PUBCHEM_SUBSTANCE_VERSION>
1

> <PUBCHEM_EXT_DATASOURCE_NAME>
4488

> <PUBCHEM_EXT_DATASOURCE_REGID>
SCHEMBL16112781

> <PUBCHEM_SUBSTANCE_COMMENT>
InChI=1S/C10H19N.ClH/c1-3-4-5-10(2)6-8-11-9-7-10;/h3,11H,1,4-9H2,2H3;1H
InChIKey=LIMJKKQGXUXBOX-UHFFFAOYSA-N

> <PUBCHEM_SUBSTANCE_SYNONYM>
SCHEMBL16112781

> <PUBCHEM_XREF_EXT_ID>
SCHEMBL16112781

> <PUBCHEM_EXT_DATASOURCE_URL>
https://www.surechembl.org/

> <PUBCHEM_EXT_SUBSTANCE_URL>
https://www.surechembl.org/chemical/SCHEMBL16112781

> <PUBCHEM_CID_ASSOCIATIONS>
117603325  1
313  2
117603298  2

> <PUBCHEM_COORDINATE_TYPE>
1
3

$$$$
