310936818
  -OEChem-07211613022D

 29 29  0     1  0  0  0  0  0999 V2000
   -1.5418   -0.2712    0.0000 O   0  0  0  0  0  0  0  0  0  0  0  0
    5.4161   -1.0313    0.0000 O   0  0  0  0  0  0  0  0  0  0  0  0
    6.1306    1.0312    0.0000 O   0  0  0  0  0  0  0  0  0  0  0  0
    3.9871   -0.2062    0.0000 O   0  0  0  0  0  0  0  0  0  0  0  0
    7.5595    0.2062    0.0000 O   0  0  0  0  0  0  0  0  0  0  0  0
    4.7016    1.0313    0.0000 O   0  0  0  0  0  0  0  0  0  0  0  0
    6.8450   -1.0313    0.0000 O   0  0  0  0  0  0  0  0  0  0  0  0
    0.6487   -1.5812    0.0000 N   0  0  0  0  0  0  0  0  0  0  0  0
    1.9836   -1.5812    0.0000 N   0  0  0  0  0  0  0  0  0  0  0  0
   -0.8273    0.9663    0.0000 C   0  0  0  0  0  0  0  0  0  0  0  0
   -0.8273    0.1413    0.0000 C   0  0  0  0  0  0  0  0  0  0  0  0
    0.6017    0.1413    0.0000 C   0  0  0  0  0  0  0  0  0  0  0  0
   -0.1128   -0.2712    0.0000 C   0  0  0  0  0  0  0  0  0  0  0  0
    0.6017    0.9663    0.0000 C   0  0  0  0  0  0  0  0  0  0  0  0
   -1.5418    1.3788    0.0000 C   0  0  0  0  0  0  0  0  0  0  0  0
   -0.1128    1.3788    0.0000 C   0  0  0  0  0  0  0  0  0  0  0  0
    1.3161   -0.2712    0.0000 C   0  0  0  0  0  0  0  0  0  0  0  0
    1.3161   -1.0962    0.0000 C   0  0  0  0  0  0  0  0  0  0  0  0
   -0.1128   -1.0962    0.0000 C   0  0  0  0  0  0  0  0  0  0  0  0
    1.3161    1.3788    0.0000 C   0  0  0  0  0  0  0  0  0  0  0  0
   -2.2562    1.7913    0.0000 C   0  0  0  0  0  0  0  0  0  0  0  0
   -1.1293    2.0932    0.0000 C   0  0  0  0  0  0  0  0  0  0  0  0
   -1.9543    0.6643    0.0000 C   0  0  0  0  0  0  0  0  0  0  0  0
    5.4161   -0.2063    0.0000 C   0  0  3  0  0  0  0  0  0  0  0  0
    6.1306    0.2062    0.0000 C   0  0  3  0  0  0  0  0  0  0  0  0
    0.9036   -2.3658    0.0000 C   0  0  0  0  0  0  0  0  0  0  0  0
    1.7286   -2.3658    0.0000 C   0  0  0  0  0  0  0  0  0  0  0  0
    4.7016    0.2063    0.0000 C   0  0  0  0  0  0  0  0  0  0  0  0
    6.8450   -0.2063    0.0000 C   0  0  0  0  0  0  0  0  0  0  0  0
  1 11  1  0  0  0  0
  2 24  1  0  0  0  0
  3 25  1  0  0  0  0
  4 28  2  0  0  0  0
  5 29  2  0  0  0  0
  6 28  1  0  0  0  0
  7 29  1  0  0  0  0
  8 18  2  0  0  0  0
  8 26  1  0  0  0  0
  9 18  1  0  0  0  0
  9 27  1  0  0  0  0
 10 11  1  0  0  0  0
 10 15  1  0  0  0  0
 10 16  2  0  0  0  0
 11 13  2  0  0  0  0
 12 13  1  0  0  0  0
 12 14  2  0  0  0  0
 12 17  1  0  0  0  0
 13 19  1  0  0  0  0
 14 16  1  0  0  0  0
 14 20  1  0  0  0  0
 15 21  1  0  0  0  0
 15 22  1  0  0  0  0
 15 23  1  0  0  0  0
 17 18  1  0  0  0  0
 24 25  1  0  0  0  0
 24 28  1  0  0  0  0
 25 29  1  0  0  0  0
 26 27  1  0  0  0  0
M  END
> <PUBCHEM_COMPOUND_ID_TYPE>
0

> <PUBCHEM_TOTAL_CHARGE>
0

> <PUBCHEM_SUBSTANCE_ID>
310936818

> <PUBCHEM_SUBSTANCE_VERSION>
1

> <PUBCHEM_EXT_DATASOURCE_NAME>
4488

> <PUBCHEM_EXT_DATASOURCE_REGID>
SCHEMBL16114505

> <PUBCHEM_SUBSTANCE_COMMENT>
InChI=1S/C16H24N2O.C4H6O6/c1-10-8-13(16(3,4)5)15(19)11(2)12(10)9-14-17-6-7-18-14;5-1(3(7)8)2(6)4(9)10/h8,19H,6-7,9H2,1-5H3,(H,17,18);1-2,5-6H,(H,7,8)(H,9,10)
InChIKey=YBPYVMVXYFDJJA-UHFFFAOYSA-N

> <PUBCHEM_SUBSTANCE_SYNONYM>
SCHEMBL16114505

> <PUBCHEM_XREF_EXT_ID>
SCHEMBL16114505

> <PUBCHEM_EXT_DATASOURCE_URL>
https://www.surechembl.org/

> <PUBCHEM_EXT_SUBSTANCE_URL>
https://www.surechembl.org/chemical/SCHEMBL16114505

> <PUBCHEM_CID_ASSOCIATIONS>
85471469  1
875  2
4636  2

> <PUBCHEM_COORDINATE_TYPE>
1
3

$$$$
