310936829
  -OEChem-07211613022D

 14 14  0     0  0  0  0  0  0999 V2000
    2.1297    0.0000    0.0000 O   0  0  0  0  0  0  0  0  0  0  0  0
    5.2764   -1.9187    0.0000 N   0  0  0  0  0  0  0  0  0  0  0  0
    4.4897   -1.6501    0.0000 N   0  0  0  0  0  0  0  0  0  0  0  0
    5.7561   -1.2472    0.0000 N   0  0  0  0  0  0  0  0  0  0  0  0
    1.4198   -1.2472    0.0000 C   0  0  0  0  0  0  0  0  0  0  0  0
    2.1297   -0.8251    0.0000 C   0  0  0  0  0  0  0  0  0  0  0  0
    1.4198   -2.0722    0.0000 C   0  0  0  0  0  0  0  0  0  0  0  0
    0.7099   -0.8442    0.0000 C   0  0  0  0  0  0  0  0  0  0  0  0
    0.7099   -2.4751    0.0000 C   0  0  0  0  0  0  0  0  0  0  0  0
    0.0000   -1.2472    0.0000 C   0  0  0  0  0  0  0  0  0  0  0  0
    0.0000   -2.0722    0.0000 C   0  0  0  0  0  0  0  0  0  0  0  0
    4.4897   -0.8442    0.0000 C   0  0  0  0  0  0  0  0  0  0  0  0
    5.2764   -0.5756    0.0000 C   0  0  0  0  0  0  0  0  0  0  0  0
    2.8397   -1.2472    0.0000 C   0  0  0  0  0  0  0  0  0  0  0  0
  1  6  2  0  0  0  0
  2  3  2  0  0  0  0
  2  4  1  0  0  0  0
  3 12  1  0  0  0  0
  4 13  1  0  0  0  0
  5  6  1  0  0  0  0
  5  7  2  0  0  0  0
  5  8  1  0  0  0  0
  6 14  1  0  0  0  0
  7  9  1  0  0  0  0
  8 10  2  0  0  0  0
  9 11  2  0  0  0  0
 10 11  1  0  0  0  0
 12 13  2  0  0  0  0
M  END
> <PUBCHEM_COMPOUND_ID_TYPE>
0

> <PUBCHEM_TOTAL_CHARGE>
0

> <PUBCHEM_SUBSTANCE_ID>
310936829

> <PUBCHEM_SUBSTANCE_VERSION>
1

> <PUBCHEM_EXT_DATASOURCE_NAME>
4488

> <PUBCHEM_EXT_DATASOURCE_REGID>
SCHEMBL16114519

> <PUBCHEM_SUBSTANCE_COMMENT>
InChI=1S/C8H8O.C2H3N3/c1-7(9)8-5-3-2-4-6-8;1-2-4-5-3-1/h2-6H,1H3;1-2H,(H,3,4,5)
InChIKey=IPAQBMYXFMUFEK-UHFFFAOYSA-N

> <PUBCHEM_SUBSTANCE_SYNONYM>
SCHEMBL16114519

> <PUBCHEM_XREF_EXT_ID>
SCHEMBL16114519

> <PUBCHEM_EXT_DATASOURCE_URL>
https://www.surechembl.org/

> <PUBCHEM_EXT_SUBSTANCE_URL>
https://www.surechembl.org/chemical/SCHEMBL16114519

> <PUBCHEM_CID_ASSOCIATIONS>
20226679  1
7410  2
67516  2

> <PUBCHEM_COORDINATE_TYPE>
1
3

$$$$
