310937522
  -OEChem-07211613022D

 34 36  0     1  0  0  0  0  0999 V2000
    2.3816    2.2306    0.0000 F   0  0  0  0  0  0  0  0  0  0  0  0
    6.0351    1.0207    0.0000 F   0  0  0  0  0  0  0  0  0  0  0  0
    6.3371   -0.1063    0.0000 F   0  0  0  0  0  0  0  0  0  0  0  0
    4.9082    0.7187    0.0000 F   0  0  0  0  0  0  0  0  0  0  0  0
   -1.9053   -1.8944    0.0000 O   0  0  0  0  0  0  0  0  0  0  0  0
    4.3851   -0.4083    0.0000 O   0  0  0  0  0  0  0  0  0  0  0  0
    5.6226   -1.1227    0.0000 O   0  0  0  0  0  0  0  0  0  0  0  0
    0.9526    3.0556    0.0000 N   0  0  0  0  0  0  0  0  0  0  0  0
    0.2382    1.8181    0.0000 N   0  0  0  0  0  0  0  0  0  0  0  0
   -0.4763    0.5806    0.0000 N   0  0  0  0  0  0  0  0  0  0  0  0
    0.9526    0.5806    0.0000 N   0  0  0  0  0  0  0  0  0  0  0  0
    0.5401    4.3251    0.0000 N   0  0  0  0  0  0  0  0  0  0  0  0
   -2.3178   -3.9890    0.0000 N   0  0  0  0  0  0  0  0  0  0  0  0
    0.9526    2.2306    0.0000 C   0  0  0  0  0  0  0  0  0  0  0  0
    0.2382    0.9931    0.0000 C   0  0  0  0  0  0  0  0  0  0  0  0
    1.6671    1.8181    0.0000 C   0  0  0  0  0  0  0  0  0  0  0  0
   -0.4763   -0.2444    0.0000 C   0  0  0  0  0  0  0  0  0  0  0  0
    1.6671    0.9931    0.0000 C   0  0  0  0  0  0  0  0  0  0  0  0
   -1.1908   -1.4819    0.0000 C   0  0  0  0  0  0  0  0  0  0  0  0
   -1.1908   -0.6569    0.0000 C   0  0  0  0  0  0  0  0  0  0  0  0
    0.2852    3.5405    0.0000 C   0  0  0  0  0  0  0  0  0  0  0  0
    1.6201    3.5405    0.0000 C   0  0  0  0  0  0  0  0  0  0  0  0
    0.2382   -1.4819    0.0000 C   0  0  0  0  0  0  0  0  0  0  0  0
    0.2382   -0.6569    0.0000 C   0  0  0  0  0  0  0  0  0  0  0  0
   -0.4763   -1.8944    0.0000 C   0  0  0  0  0  0  0  0  0  0  0  0
    1.3651    4.3251    0.0000 C   0  0  0  0  0  0  0  0  0  0  0  0
   -1.9053   -2.7194    0.0000 C   0  0  3  0  0  0  0  0  0  0  0  0
    0.9526   -1.8944    0.0000 C   0  0  0  0  0  0  0  0  0  0  0  0
   -2.5727   -3.2044    0.0000 C   0  0  0  0  0  0  0  0  0  0  0  0
   -1.2378   -3.2044    0.0000 C   0  0  0  0  0  0  0  0  0  0  0  0
    5.6226    0.3062    0.0000 C   0  0  0  0  0  0  0  0  0  0  0  0
   -1.4928   -3.9890    0.0000 C   0  0  0  0  0  0  0  0  0  0  0  0
    5.2101   -0.4083    0.0000 C   0  0  0  0  0  0  0  0  0  0  0  0
    0.9526   -2.7194    0.0000 C   0  0  0  0  0  0  0  0  0  0  0  0
  1 16  1  0  0  0  0
  2 31  1  0  0  0  0
  3 31  1  0  0  0  0
  4 31  1  0  0  0  0
  5 19  1  0  0  0  0
  5 27  1  0  0  0  0
  6 33  2  0  0  0  0
  7 33  1  0  0  0  0
  8 14  1  0  0  0  0
  8 21  1  0  0  0  0
  8 22  1  0  0  0  0
  9 14  2  0  0  0  0
  9 15  1  0  0  0  0
 10 15  1  0  0  0  0
 10 17  1  0  0  0  0
 11 15  2  0  0  0  0
 11 18  1  0  0  0  0
 12 21  2  0  0  0  0
 12 26  1  0  0  0  0
 13 29  1  0  0  0  0
 13 32  1  0  0  0  0
 14 16  1  0  0  0  0
 16 18  2  0  0  0  0
 17 20  1  0  0  0  0
 17 24  2  0  0  0  0
 19 20  2  0  0  0  0
 19 25  1  0  0  0  0
 22 26  2  0  0  0  0
 23 24  1  0  0  0  0
 23 25  2  0  0  0  0
 23 28  1  0  0  0  0
 27 29  1  0  0  0  0
 27 30  1  0  0  0  0
 28 34  1  0  0  0  0
 30 32  1  0  0  0  0
 31 33  1  0  0  0  0
M  END
> <PUBCHEM_COMPOUND_ID_TYPE>
0

> <PUBCHEM_TOTAL_CHARGE>
0

> <PUBCHEM_SUBSTANCE_ID>
310937522

> <PUBCHEM_SUBSTANCE_VERSION>
1

> <PUBCHEM_EXT_DATASOURCE_NAME>
4488

> <PUBCHEM_EXT_DATASOURCE_REGID>
SCHEMBL16115296

> <PUBCHEM_SUBSTANCE_COMMENT>
InChI=1S/C19H21FN6O.C2HF3O2/c1-2-13-7-14(9-16(8-13)27-15-3-4-21-10-15)24-19-23-11-17(20)18(25-19)26-6-5-22-12-26;3-2(4,5)1(6)7/h5-9,11-12,15,21H,2-4,10H2,1H3,(H,23,24,25);(H,6,7)
InChIKey=NREWFWMXVAXLIZ-UHFFFAOYSA-N

> <PUBCHEM_SUBSTANCE_SYNONYM>
SCHEMBL16115296

> <PUBCHEM_XREF_EXT_ID>
SCHEMBL16115296

> <PUBCHEM_EXT_DATASOURCE_URL>
https://www.surechembl.org/

> <PUBCHEM_EXT_SUBSTANCE_URL>
https://www.surechembl.org/chemical/SCHEMBL16115296

> <PUBCHEM_CID_ASSOCIATIONS>
86301428  1
6422  2
86301429  2

> <PUBCHEM_COORDINATE_TYPE>
1
3

$$$$
