310931967
  -OEChem-07211613022D

 14 14  0     0  0  0  0  0  0999 V2000
    1.6470   -0.9641    0.0000 Cl  0  0  0  0  0  0  0  0  0  0  0  0
    0.0000   -0.5423    0.0000 O   0  0  0  0  0  0  0  0  0  0  0  0
    6.0258   -1.1851    0.0000 N   0  0  0  0  0  0  0  0  0  0  0  0
    5.2022   -1.1851    0.0000 C   0  0  0  0  0  0  0  0  0  0  0  0
    3.6757   -0.7432    0.0000 C   0  0  0  0  0  0  0  0  0  0  0  0
    4.0975   -0.4619    0.0000 C   0  0  0  0  0  0  0  0  0  0  0  0
    4.0975   -1.9283    0.0000 C   0  0  0  0  0  0  0  0  0  0  0  0
    4.4189   -0.7432    0.0000 C   0  0  0  0  0  0  0  0  0  0  0  0
    4.8407   -0.4619    0.0000 C   0  0  0  0  0  0  0  0  0  0  0  0
    4.8407   -1.9283    0.0000 C   0  0  0  0  0  0  0  0  0  0  0  0
    3.2941    0.0000    0.0000 C   0  0  0  0  0  0  0  0  0  0  0  0
    3.2941   -1.4663    0.0000 C   0  0  0  0  0  0  0  0  0  0  0  0
    3.7159   -1.1851    0.0000 C   0  0  0  0  0  0  0  0  0  0  0  0
    0.0000   -1.3859    0.0000 C   0  0  0  0  0  0  0  0  0  0  0  0
  2 14  2  0  0  0  0
  3  4  1  0  0  0  0
  4  8  1  0  0  0  0
  4  9  1  0  0  0  0
  4 10  1  0  0  0  0
  5  8  1  0  0  0  0
  5 11  1  0  0  0  0
  5 12  1  0  0  0  0
  6  9  1  0  0  0  0
  6 11  1  0  0  0  0
  6 13  1  0  0  0  0
  7 10  1  0  0  0  0
  7 12  1  0  0  0  0
  7 13  1  0  0  0  0
M  END
> <PUBCHEM_COMPOUND_ID_TYPE>
0

> <PUBCHEM_TOTAL_CHARGE>
0

> <PUBCHEM_SUBSTANCE_ID>
310931967

> <PUBCHEM_SUBSTANCE_VERSION>
1

> <PUBCHEM_EXT_DATASOURCE_NAME>
4488

> <PUBCHEM_EXT_DATASOURCE_REGID>
SCHEMBL16109305

> <PUBCHEM_SUBSTANCE_COMMENT>
InChI=1S/C10H17N.CH2O.ClH/c11-10-4-7-1-8(5-10)3-9(2-7)6-10;1-2;/h7-9H,1-6,11H2;1H2;1H
InChIKey=WCJKKWSHWVVVPF-UHFFFAOYSA-N

> <PUBCHEM_SUBSTANCE_SYNONYM>
SCHEMBL16109305

> <PUBCHEM_XREF_EXT_ID>
SCHEMBL16109305

> <PUBCHEM_EXT_DATASOURCE_URL>
https://www.surechembl.org/

> <PUBCHEM_EXT_SUBSTANCE_URL>
https://www.surechembl.org/chemical/SCHEMBL16109305

> <PUBCHEM_CID_ASSOCIATIONS>
117600614  1
313  2
712  2
2130  2

> <PUBCHEM_COORDINATE_TYPE>
1
3

$$$$
