310930167
  -OEChem-07211613022D

 19 20  0     0  0  0  0  0  0999 V2000
    0.0000   -1.8806    0.0000 Cl  0  0  0  0  0  0  0  0  0  0  0  0
    3.8007   -2.4744    0.0000 N   0  0  0  0  0  0  0  0  0  0  0  0
    3.8007   -1.6628    0.0000 C   0  0  0  0  0  0  0  0  0  0  0  0
    4.5134   -1.2471    0.0000 C   0  0  0  0  0  0  0  0  0  0  0  0
    3.0881   -1.2471    0.0000 C   0  0  0  0  0  0  0  0  0  0  0  0
    4.4738   -2.9694    0.0000 C   0  0  0  0  0  0  0  0  0  0  0  0
    3.1277   -2.9694    0.0000 C   0  0  0  0  0  0  0  0  0  0  0  0
    4.5332   -0.4157    0.0000 C   0  0  0  0  0  0  0  0  0  0  0  0
    2.3557   -1.6628    0.0000 C   0  0  0  0  0  0  0  0  0  0  0  0
    5.2260   -1.6431    0.0000 C   0  0  0  0  0  0  0  0  0  0  0  0
    3.0683   -0.4157    0.0000 C   0  0  0  0  0  0  0  0  0  0  0  0
    4.2165   -3.7414    0.0000 C   0  0  0  0  0  0  0  0  0  0  0  0
    3.3851   -3.7414    0.0000 C   0  0  0  0  0  0  0  0  0  0  0  0
    5.2260    0.0000    0.0000 C   0  0  0  0  0  0  0  0  0  0  0  0
    1.6431   -1.2471    0.0000 C   0  0  0  0  0  0  0  0  0  0  0  0
    5.9387   -1.2471    0.0000 C   0  0  0  0  0  0  0  0  0  0  0  0
    2.3755   -0.0198    0.0000 C   0  0  0  0  0  0  0  0  0  0  0  0
    5.9387   -0.4157    0.0000 C   0  0  0  0  0  0  0  0  0  0  0  0
    1.6431   -0.4157    0.0000 C   0  0  0  0  0  0  0  0  0  0  0  0
  2  3  1  0  0  0  0
  2  6  1  0  0  0  0
  2  7  1  0  0  0  0
  3  4  1  0  0  0  0
  3  5  1  0  0  0  0
  4  8  2  0  0  0  0
  4 10  1  0  0  0  0
  5  9  2  0  0  0  0
  5 11  1  0  0  0  0
  6 12  1  0  0  0  0
  7 13  1  0  0  0  0
  8 14  1  0  0  0  0
  9 15  1  0  0  0  0
 10 16  2  0  0  0  0
 11 17  2  0  0  0  0
 12 13  1  0  0  0  0
 14 18  2  0  0  0  0
 15 19  2  0  0  0  0
 16 18  1  0  0  0  0
 17 19  1  0  0  0  0
M  END
> <PUBCHEM_COMPOUND_ID_TYPE>
0

> <PUBCHEM_TOTAL_CHARGE>
0

> <PUBCHEM_SUBSTANCE_ID>
310930167

> <PUBCHEM_SUBSTANCE_VERSION>
1

> <PUBCHEM_EXT_DATASOURCE_NAME>
4488

> <PUBCHEM_EXT_DATASOURCE_REGID>
SCHEMBL16107427

> <PUBCHEM_SUBSTANCE_COMMENT>
InChI=1S/C17H19N.ClH/c1-3-9-15(10-4-1)17(18-13-7-8-14-18)16-11-5-2-6-12-16;/h1-6,9-12,17H,7-8,13-14H2;1H
InChIKey=UWAPYHOMTIUQKR-UHFFFAOYSA-N

> <PUBCHEM_SUBSTANCE_SYNONYM>
SCHEMBL16107427

> <PUBCHEM_XREF_EXT_ID>
SCHEMBL16107427

> <PUBCHEM_EXT_DATASOURCE_URL>
https://www.surechembl.org/

> <PUBCHEM_EXT_SUBSTANCE_URL>
https://www.surechembl.org/chemical/SCHEMBL16107427

> <PUBCHEM_CID_ASSOCIATIONS>
117599388  1
313  2
245012  2

> <PUBCHEM_COORDINATE_TYPE>
1
3

$$$$
