310937590
  -OEChem-07211613022D

 41 45  0     1  0  0  0  0  0999 V2000
    0.1492   -0.7088    0.0000 F   0  0  0  0  0  0  0  0  0  0  0  0
    9.7746   -1.4177    0.0000 F   0  0  0  0  0  0  0  0  0  0  0  0
    9.0658   -2.6862    0.0000 F   0  0  0  0  0  0  0  0  0  0  0  0
    9.0658   -1.8281    0.0000 F   0  0  0  0  0  0  0  0  0  0  0  0
    5.9692   -2.1639    0.0000 O   0  0  0  0  0  0  0  0  0  0  0  0
   10.4835   -3.5069    0.0000 O   0  0  0  0  0  0  0  0  0  0  0  0
   11.1923   -2.2384    0.0000 O   0  0  0  0  0  0  0  0  0  0  0  0
    1.3804   -2.9100    0.0000 N   0  0  0  0  0  0  0  0  0  0  0  0
    2.2384   -1.4177    0.0000 N   0  0  0  0  0  0  0  0  0  0  0  0
    0.0000   -3.0592    0.0000 N   0  0  0  0  0  0  0  0  0  0  0  0
    3.5069   -0.7088    0.0000 N   0  0  0  0  0  0  0  0  0  0  0  0
    2.2384    0.0000    0.0000 N   0  0  0  0  0  0  0  0  0  0  0  0
    3.2085   -4.9246    0.0000 N   0  0  0  0  0  0  0  0  0  0  0  0
    2.4996   -4.4769    0.0000 N   0  0  0  0  0  0  0  0  0  0  0  0
    7.3869   -0.5596    0.0000 N   0  0  0  0  0  0  0  0  0  0  0  0
    1.0073   -2.1639    0.0000 C   0  0  0  0  0  0  0  0  0  0  0  0
    1.4177   -1.4177    0.0000 C   0  0  0  0  0  0  0  0  0  0  0  0
    0.7461   -3.4696    0.0000 C   0  0  0  0  0  0  0  0  0  0  0  0
    0.9700   -0.7088    0.0000 C   0  0  0  0  0  0  0  0  0  0  0  0
    0.1866   -2.2384    0.0000 C   0  0  0  0  0  0  0  0  0  0  0  0
    2.6489   -0.7088    0.0000 C   0  0  0  0  0  0  0  0  0  0  0  0
    2.1639   -3.1711    0.0000 C   0  0  0  0  0  0  0  0  0  0  0  0
    3.9173   -1.4550    0.0000 C   0  0  0  0  0  0  0  0  0  0  0  0
    0.9327   -4.2904    0.0000 C   0  0  0  0  0  0  0  0  0  0  0  0
    1.4177    0.0000    0.0000 C   0  0  0  0  0  0  0  0  0  0  0  0
    3.9173   -2.8727    0.0000 C   0  0  0  0  0  0  0  0  0  0  0  0
    5.1484   -2.1639    0.0000 C   0  0  0  0  0  0  0  0  0  0  0  0
    3.5069   -2.1639    0.0000 C   0  0  0  0  0  0  0  0  0  0  0  0
    4.7381   -1.4550    0.0000 C   0  0  0  0  0  0  0  0  0  0  0  0
    3.5069   -3.5816    0.0000 C   0  0  0  0  0  0  0  0  0  0  0  0
    2.3131   -3.9919    0.0000 C   0  0  0  0  0  0  0  0  0  0  0  0
    4.7381   -2.8727    0.0000 C   0  0  0  0  0  0  0  0  0  0  0  0
    1.7162   -4.5515    0.0000 C   0  0  0  0  0  0  0  0  0  0  0  0
    3.8054   -4.3650    0.0000 C   0  0  0  0  0  0  0  0  0  0  0  0
    2.6489   -3.6935    0.0000 C   0  0  0  0  0  0  0  0  0  0  0  0
    6.3796   -1.4550    0.0000 C   0  0  3  0  0  0  0  0  0  0  0  0
    7.2004   -1.3431    0.0000 C   0  0  0  0  0  0  0  0  0  0  0  0
    6.0439   -0.6716    0.0000 C   0  0  0  0  0  0  0  0  0  0  0  0
    6.6781   -0.1492    0.0000 C   0  0  0  0  0  0  0  0  0  0  0  0
    9.7746   -2.2384    0.0000 C   0  0  0  0  0  0  0  0  0  0  0  0
   10.4835   -2.6862    0.0000 C   0  0  0  0  0  0  0  0  0  0  0  0
  1 19  1  0  0  0  0
  2 40  1  0  0  0  0
  3 40  1  0  0  0  0
  4 40  1  0  0  0  0
  5 27  1  0  0  0  0
  5 36  1  0  0  0  0
  6 41  2  0  0  0  0
  7 41  1  0  0  0  0
  8 16  1  0  0  0  0
  8 18  1  0  0  0  0
  8 22  1  0  0  0  0
  9 17  2  0  0  0  0
  9 21  1  0  0  0  0
 10 18  2  0  0  0  0
 10 20  1  0  0  0  0
 11 21  1  0  0  0  0
 11 23  1  0  0  0  0
 12 21  2  0  0  0  0
 12 25  1  0  0  0  0
 13 14  1  0  0  0  0
 13 34  2  0  0  0  0
 14 35  1  0  0  0  0
 15 37  1  0  0  0  0
 15 39  1  0  0  0  0
 16 17  1  0  0  0  0
 16 20  2  0  0  0  0
 17 19  1  0  0  0  0
 18 24  1  0  0  0  0
 19 25  2  0  0  0  0
 22 31  2  0  0  0  0
 23 28  1  0  0  0  0
 23 29  2  0  0  0  0
 24 33  2  0  0  0  0
 26 28  2  0  0  0  0
 26 30  1  0  0  0  0
 26 32  1  0  0  0  0
 27 29  1  0  0  0  0
 27 32  2  0  0  0  0
 30 34  1  0  0  0  0
 30 35  2  0  0  0  0
 31 33  1  0  0  0  0
 36 37  1  0  0  0  0
 36 38  1  0  0  0  0
 38 39  1  0  0  0  0
 40 41  1  0  0  0  0
M  END
> <PUBCHEM_COMPOUND_ID_TYPE>
0

> <PUBCHEM_TOTAL_CHARGE>
0

> <PUBCHEM_SUBSTANCE_ID>
310937590

> <PUBCHEM_SUBSTANCE_VERSION>
1

> <PUBCHEM_EXT_DATASOURCE_NAME>
4488

> <PUBCHEM_EXT_DATASOURCE_REGID>
SCHEMBL16115370

> <PUBCHEM_SUBSTANCE_COMMENT>
InChI=1S/C24H21FN8O.C2HF3O2/c25-20-13-28-24(32-23(20)21-14-27-22-3-1-2-6-33(21)22)31-17-7-15(16-10-29-30-11-16)8-19(9-17)34-18-4-5-26-12-18;3-2(4,5)1(6)7/h1-3,6-11,13-14,18,26H,4-5,12H2,(H,29,30)(H,28,31,32);(H,6,7)
InChIKey=RWSDIZQSYYSMFH-UHFFFAOYSA-N

> <PUBCHEM_SUBSTANCE_SYNONYM>
SCHEMBL16115370

> <PUBCHEM_XREF_EXT_ID>
SCHEMBL16115370

> <PUBCHEM_EXT_DATASOURCE_URL>
https://www.surechembl.org/

> <PUBCHEM_EXT_SUBSTANCE_URL>
https://www.surechembl.org/chemical/SCHEMBL16115370

> <PUBCHEM_CID_ASSOCIATIONS>
86301747  1
6422  2
86301748  2

> <PUBCHEM_COORDINATE_TYPE>
1
3

$$$$
