310931221
  -OEChem-07211613022D

 19 20  0     0  0  0  0  0  0999 V2000
    5.5112   -1.2452    0.0000 O   0  0  0  0  0  0  0  0  0  0  0  0
    6.9178   -1.2452    0.0000 O   0  0  0  0  0  0  0  0  0  0  0  0
    6.2030    0.0000    0.0000 O   0  0  0  0  0  0  0  0  0  0  0  0
    2.7210   -1.2683    0.0000 N   0  0  0  0  0  0  0  0  0  0  0  0
    1.9139   -1.2683    0.0000 C   0  0  0  0  0  0  0  0  0  0  0  0
    0.3690   -0.8071    0.0000 C   0  0  0  0  0  0  0  0  0  0  0  0
    0.8071   -0.5304    0.0000 C   0  0  0  0  0  0  0  0  0  0  0  0
    0.8071   -1.9831    0.0000 C   0  0  0  0  0  0  0  0  0  0  0  0
    1.1299   -0.8071    0.0000 C   0  0  0  0  0  0  0  0  0  0  0  0
    1.5450   -0.5304    0.0000 C   0  0  0  0  0  0  0  0  0  0  0  0
    1.5450   -1.9831    0.0000 C   0  0  0  0  0  0  0  0  0  0  0  0
    0.0000   -0.0922    0.0000 C   0  0  0  0  0  0  0  0  0  0  0  0
    0.0000   -1.5450    0.0000 C   0  0  0  0  0  0  0  0  0  0  0  0
    0.4151   -1.2683    0.0000 C   0  0  0  0  0  0  0  0  0  0  0  0
    3.1360   -1.9831    0.0000 C   0  0  0  0  0  0  0  0  0  0  0  0
    3.1360   -0.5534    0.0000 C   0  0  0  0  0  0  0  0  0  0  0  0
    6.2030   -0.8302    0.0000 C   0  0  0  0  0  0  0  0  0  0  0  0
    4.7963   -0.8302    0.0000 C   0  0  0  0  0  0  0  0  0  0  0  0
    6.9178   -2.0753    0.0000 C   0  0  0  0  0  0  0  0  0  0  0  0
  1 17  1  0  0  0  0
  1 18  1  0  0  0  0
  2 17  1  0  0  0  0
  2 19  1  0  0  0  0
  3 17  2  0  0  0  0
  4  5  1  0  0  0  0
  4 15  1  0  0  0  0
  4 16  1  0  0  0  0
  5  9  1  0  0  0  0
  5 10  1  0  0  0  0
  5 11  1  0  0  0  0
  6  9  1  0  0  0  0
  6 12  1  0  0  0  0
  6 13  1  0  0  0  0
  7 10  1  0  0  0  0
  7 12  1  0  0  0  0
  7 14  1  0  0  0  0
  8 11  1  0  0  0  0
  8 13  1  0  0  0  0
  8 14  1  0  0  0  0
M  END
> <PUBCHEM_COMPOUND_ID_TYPE>
0

> <PUBCHEM_TOTAL_CHARGE>
0

> <PUBCHEM_SUBSTANCE_ID>
310931221

> <PUBCHEM_SUBSTANCE_VERSION>
1

> <PUBCHEM_EXT_DATASOURCE_NAME>
4488

> <PUBCHEM_EXT_DATASOURCE_REGID>
SCHEMBL16108530

> <PUBCHEM_SUBSTANCE_COMMENT>
InChI=1S/C12H21N.C3H6O3/c1-13(2)12-6-9-3-10(7-12)5-11(4-9)8-12;1-5-3(4)6-2/h9-11H,3-8H2,1-2H3;1-2H3
InChIKey=XLFNVNURUNTFNK-UHFFFAOYSA-N

> <PUBCHEM_SUBSTANCE_SYNONYM>
SCHEMBL16108530

> <PUBCHEM_XREF_EXT_ID>
SCHEMBL16108530

> <PUBCHEM_EXT_DATASOURCE_URL>
https://www.surechembl.org/

> <PUBCHEM_EXT_SUBSTANCE_URL>
https://www.surechembl.org/chemical/SCHEMBL16108530

> <PUBCHEM_CID_ASSOCIATIONS>
117600065  1
12021  2
19478  2

> <PUBCHEM_COORDINATE_TYPE>
1
3

$$$$
