310936781
  -OEChem-07211613022D

 23 23  0     0  0  0  0  0  0999 V2000
   -1.5418   -0.2712    0.0000 O   0  0  0  0  0  0  0  0  0  0  0  0
    3.9871   -0.0000    0.0000 O   0  0  0  0  0  0  0  0  0  0  0  0
    5.2246   -0.7145    0.0000 O   0  0  0  0  0  0  0  0  0  0  0  0
    0.6487   -1.5812    0.0000 N   0  0  0  0  0  0  0  0  0  0  0  0
    1.9836   -1.5812    0.0000 N   0  0  0  0  0  0  0  0  0  0  0  0
   -0.8273    0.9663    0.0000 C   0  0  0  0  0  0  0  0  0  0  0  0
    0.6017    0.1413    0.0000 C   0  0  0  0  0  0  0  0  0  0  0  0
   -0.8273    0.1413    0.0000 C   0  0  0  0  0  0  0  0  0  0  0  0
   -0.1128   -0.2712    0.0000 C   0  0  0  0  0  0  0  0  0  0  0  0
    0.6017    0.9663    0.0000 C   0  0  0  0  0  0  0  0  0  0  0  0
   -1.5418    1.3788    0.0000 C   0  0  0  0  0  0  0  0  0  0  0  0
   -0.1128    1.3788    0.0000 C   0  0  0  0  0  0  0  0  0  0  0  0
    1.3161   -0.2712    0.0000 C   0  0  0  0  0  0  0  0  0  0  0  0
    1.3161   -1.0962    0.0000 C   0  0  0  0  0  0  0  0  0  0  0  0
   -0.1128   -1.0962    0.0000 C   0  0  0  0  0  0  0  0  0  0  0  0
    1.3161    1.3788    0.0000 C   0  0  0  0  0  0  0  0  0  0  0  0
   -2.2562    1.7913    0.0000 C   0  0  0  0  0  0  0  0  0  0  0  0
   -1.1293    2.0932    0.0000 C   0  0  0  0  0  0  0  0  0  0  0  0
   -1.9543    0.6643    0.0000 C   0  0  0  0  0  0  0  0  0  0  0  0
    0.9036   -2.3658    0.0000 C   0  0  0  0  0  0  0  0  0  0  0  0
    1.7286   -2.3658    0.0000 C   0  0  0  0  0  0  0  0  0  0  0  0
    4.8121   -0.0000    0.0000 C   0  0  0  0  0  0  0  0  0  0  0  0
    5.2246    0.7145    0.0000 C   0  0  0  0  0  0  0  0  0  0  0  0
  1  8  1  0  0  0  0
  2 22  2  0  0  0  0
  3 22  1  0  0  0  0
  4 14  2  0  0  0  0
  4 20  1  0  0  0  0
  5 14  1  0  0  0  0
  5 21  1  0  0  0  0
  6  8  1  0  0  0  0
  6 11  1  0  0  0  0
  6 12  2  0  0  0  0
  7  9  1  0  0  0  0
  7 10  2  0  0  0  0
  7 13  1  0  0  0  0
  8  9  2  0  0  0  0
  9 15  1  0  0  0  0
 10 12  1  0  0  0  0
 10 16  1  0  0  0  0
 11 17  1  0  0  0  0
 11 18  1  0  0  0  0
 11 19  1  0  0  0  0
 13 14  1  0  0  0  0
 20 21  1  0  0  0  0
 22 23  1  0  0  0  0
M  END
> <PUBCHEM_COMPOUND_ID_TYPE>
0

> <PUBCHEM_TOTAL_CHARGE>
0

> <PUBCHEM_SUBSTANCE_ID>
310936781

> <PUBCHEM_SUBSTANCE_VERSION>
1

> <PUBCHEM_EXT_DATASOURCE_NAME>
4488

> <PUBCHEM_EXT_DATASOURCE_REGID>
SCHEMBL16114465

> <PUBCHEM_SUBSTANCE_COMMENT>
InChI=1S/C16H24N2O.C2H4O2/c1-10-8-13(16(3,4)5)15(19)11(2)12(10)9-14-17-6-7-18-14;1-2(3)4/h8,19H,6-7,9H2,1-5H3,(H,17,18);1H3,(H,3,4)
InChIKey=IXAZEMXCBSVCFR-UHFFFAOYSA-N

> <PUBCHEM_SUBSTANCE_SYNONYM>
SCHEMBL16114465

> <PUBCHEM_XREF_EXT_ID>
SCHEMBL16114465

> <PUBCHEM_EXT_DATASOURCE_URL>
https://www.surechembl.org/

> <PUBCHEM_EXT_SUBSTANCE_URL>
https://www.surechembl.org/chemical/SCHEMBL16114465

> <PUBCHEM_CID_ASSOCIATIONS>
22295996  1
176  2
4636  2

> <PUBCHEM_COORDINATE_TYPE>
1
3

$$$$
