310937374
  -OEChem-07211613022D

 47 46  0     0  0  0  0  0  0999 V2000
   22.3571   -6.3305    0.0000 Br  0  5  0  0  0  0  0  0  0  0  0  0
   24.0398   -6.3305    0.0000 Br  0  5  0  0  0  0  0  0  0  0  0  0
    9.6961   -7.4524    0.0000 O   0  0  0  0  0  0  0  0  0  0  0  0
   10.9782   -5.2086    0.0000 O   0  0  0  0  0  0  0  0  0  0  0  0
    9.6961   -4.4875    0.0000 O   0  0  0  0  0  0  0  0  0  0  0  0
    8.5742   -6.8914    0.0000 O   0  0  0  0  0  0  0  0  0  0  0  0
    7.6126   -8.1736    0.0000 N   0  3  0  0  0  0  0  0  0  0  0  0
   13.0616   -4.4875    0.0000 N   0  3  0  0  0  0  0  0  0  0  0  0
    9.6961   -5.9298    0.0000 C   0  0  0  0  0  0  0  0  0  0  0  0
   10.0967   -6.7311    0.0000 C   0  0  0  0  0  0  0  0  0  0  0  0
   10.5776   -5.9298    0.0000 C   0  0  0  0  0  0  0  0  0  0  0  0
    8.8947   -7.4524    0.0000 C   0  0  0  0  0  0  0  0  0  0  0  0
   11.8597   -5.2086    0.0000 C   0  0  0  0  0  0  0  0  0  0  0  0
   10.0967   -5.2086    0.0000 C   0  0  0  0  0  0  0  0  0  0  0  0
    8.8947   -5.9298    0.0000 C   0  0  0  0  0  0  0  0  0  0  0  0
    8.4140   -8.1736    0.0000 C   0  0  0  0  0  0  0  0  0  0  0  0
   12.2603   -4.4875    0.0000 C   0  0  0  0  0  0  0  0  0  0  0  0
    8.4140   -6.7311    0.0000 C   0  0  0  0  0  0  0  0  0  0  0  0
   12.2603   -5.9298    0.0000 C   0  0  0  0  0  0  0  0  0  0  0  0
    7.1318   -7.4524    0.0000 C   0  0  0  0  0  0  0  0  0  0  0  0
   13.5425   -5.2086    0.0000 C   0  0  0  0  0  0  0  0  0  0  0  0
    7.6126   -6.7311    0.0000 C   0  0  0  0  0  0  0  0  0  0  0  0
   13.0616   -5.9298    0.0000 C   0  0  0  0  0  0  0  0  0  0  0  0
   13.5425   -3.7662    0.0000 C   0  0  0  0  0  0  0  0  0  0  0  0
    7.1318   -8.8947    0.0000 C   0  0  0  0  0  0  0  0  0  0  0  0
   14.3438   -3.7662    0.0000 C   0  0  0  0  0  0  0  0  0  0  0  0
    6.3305   -8.8947    0.0000 C   0  0  0  0  0  0  0  0  0  0  0  0
   14.7444   -3.0450    0.0000 C   0  0  0  0  0  0  0  0  0  0  0  0
    5.9298   -9.6159    0.0000 C   0  0  0  0  0  0  0  0  0  0  0  0
   15.6259   -2.9649    0.0000 C   0  0  0  0  0  0  0  0  0  0  0  0
    5.0484   -9.6961    0.0000 C   0  0  0  0  0  0  0  0  0  0  0  0
   16.0265   -2.2437    0.0000 C   0  0  0  0  0  0  0  0  0  0  0  0
    4.6477  -10.4173    0.0000 C   0  0  0  0  0  0  0  0  0  0  0  0
   16.9080   -2.2437    0.0000 C   0  0  0  0  0  0  0  0  0  0  0  0
    3.7662  -10.4173    0.0000 C   0  0  0  0  0  0  0  0  0  0  0  0
   17.3087   -1.5226    0.0000 C   0  0  0  0  0  0  0  0  0  0  0  0
    3.3656  -11.1385    0.0000 C   0  0  0  0  0  0  0  0  0  0  0  0
   18.1100   -1.5226    0.0000 C   0  0  0  0  0  0  0  0  0  0  0  0
    2.5643  -11.1385    0.0000 C   0  0  0  0  0  0  0  0  0  0  0  0
   18.5908   -0.8013    0.0000 C   0  0  0  0  0  0  0  0  0  0  0  0
    2.0835  -11.8597    0.0000 C   0  0  0  0  0  0  0  0  0  0  0  0
   19.3922   -0.8013    0.0000 C   0  0  0  0  0  0  0  0  0  0  0  0
    1.2821  -11.9398    0.0000 C   0  0  0  0  0  0  0  0  0  0  0  0
   19.7928    0.0000    0.0000 C   0  0  0  0  0  0  0  0  0  0  0  0
    0.8814  -12.6610    0.0000 C   0  0  0  0  0  0  0  0  0  0  0  0
   20.6743    0.0000    0.0000 C   0  0  0  0  0  0  0  0  0  0  0  0
    0.0000  -12.6610    0.0000 C   0  0  0  0  0  0  0  0  0  0  0  0
  3 10  1  0  0  0  0
  3 12  1  0  0  0  0
  4 11  1  0  0  0  0
  4 13  1  0  0  0  0
  5 14  1  0  0  0  0
  6 15  1  0  0  0  0
  7 16  1  0  0  0  0
  7 20  2  0  0  0  0
  7 25  1  0  0  0  0
  8 17  1  0  0  0  0
  8 21  2  0  0  0  0
  8 24  1  0  0  0  0
  9 10  1  0  0  0  0
  9 11  1  0  0  0  0
  9 14  1  0  0  0  0
  9 15  1  0  0  0  0
 12 16  2  0  0  0  0
 12 18  1  0  0  0  0
 13 17  2  0  0  0  0
 13 19  1  0  0  0  0
 18 22  2  0  0  0  0
 19 23  2  0  0  0  0
 20 22  1  0  0  0  0
 21 23  1  0  0  0  0
 24 26  1  0  0  0  0
 25 27  1  0  0  0  0
 26 28  1  0  0  0  0
 27 29  1  0  0  0  0
 28 30  1  0  0  0  0
 29 31  1  0  0  0  0
 30 32  1  0  0  0  0
 31 33  1  0  0  0  0
 32 34  1  0  0  0  0
 33 35  1  0  0  0  0
 34 36  1  0  0  0  0
 35 37  1  0  0  0  0
 36 38  1  0  0  0  0
 37 39  1  0  0  0  0
 38 40  1  0  0  0  0
 39 41  1  0  0  0  0
 40 42  1  0  0  0  0
 41 43  1  0  0  0  0
 42 44  1  0  0  0  0
 43 45  1  0  0  0  0
 44 46  1  0  0  0  0
 45 47  1  0  0  0  0
M  CHG  4   1  -1   2  -1   7   1   8   1
M  END
> <PUBCHEM_COMPOUND_ID_TYPE>
0

> <PUBCHEM_TOTAL_CHARGE>
0

> <PUBCHEM_SUBSTANCE_ID>
310937374

> <PUBCHEM_SUBSTANCE_VERSION>
1

> <PUBCHEM_EXT_DATASOURCE_NAME>
4488

> <PUBCHEM_EXT_DATASOURCE_REGID>
SCHEMBL16115130

> <PUBCHEM_SUBSTANCE_COMMENT>
InChI=1S/C39H68N2O4.2BrH/c1-3-5-7-9-11-13-15-17-19-21-27-40-29-23-25-37(31-40)44-35-39(33-42,34-43)36-45-38-26-24-30-41(32-38)28-22-20-18-16-14-12-10-8-6-4-2;;/h23-26,29-32,42-43H,3-22,27-28,33-36H2,1-2H3;2*1H/q+2;;/p-2
InChIKey=VYBMKWHJNDKSKP-UHFFFAOYSA-L

> <PUBCHEM_SUBSTANCE_SYNONYM>
SCHEMBL16115130

> <PUBCHEM_XREF_EXT_ID>
SCHEMBL16115130

> <PUBCHEM_EXT_DATASOURCE_URL>
https://www.surechembl.org/

> <PUBCHEM_EXT_SUBSTANCE_URL>
https://www.surechembl.org/chemical/SCHEMBL16115130

> <PUBCHEM_CID_ASSOCIATIONS>
81689871  1
260  2
81689872  2

> <PUBCHEM_COORDINATE_TYPE>
1
3

$$$$
