310938256
  -OEChem-07211613022D

 22 22  0     0  0  0  0  0  0999 V2000
    4.0085    0.0000    0.0000 Cl  0  5  0  0  0  0  0  0  0  0  0  0
    1.0547    0.8839    0.0000 O   0  0  0  0  0  0  0  0  0  0  0  0
    1.7692   -0.3536    0.0000 O   0  0  0  0  0  0  0  0  0  0  0  0
   -2.5177    2.1214    0.0000 N   0  3  0  0  0  0  0  0  0  0  0  0
   -0.3742    0.8839    0.0000 C   0  0  0  0  0  0  0  0  0  0  0  0
   -0.3742    1.7089    0.0000 C   0  0  0  0  0  0  0  0  0  0  0  0
   -1.0887    0.4714    0.0000 C   0  0  0  0  0  0  0  0  0  0  0  0
   -1.0887    2.1214    0.0000 C   0  0  0  0  0  0  0  0  0  0  0  0
    0.3402    0.4714    0.0000 C   0  0  0  0  0  0  0  0  0  0  0  0
   -1.8032    1.7089    0.0000 C   0  0  0  0  0  0  0  0  0  0  0  0
   -1.8032    0.8839    0.0000 C   0  0  0  0  0  0  0  0  0  0  0  0
    0.3402   -0.3536    0.0000 C   0  0  0  0  0  0  0  0  0  0  0  0
    1.0547   -0.7661    0.0000 C   0  0  0  0  0  0  0  0  0  0  0  0
    1.0547   -1.5911    0.0000 C   0  0  0  0  0  0  0  0  0  0  0  0
    0.3402    2.1214    0.0000 C   0  0  0  0  0  0  0  0  0  0  0  0
   -1.0887   -0.3536    0.0000 C   0  0  0  0  0  0  0  0  0  0  0  0
   -1.0887    2.9464    0.0000 C   0  0  0  0  0  0  0  0  0  0  0  0
    1.7692   -2.0036    0.0000 C   0  0  0  0  0  0  0  0  0  0  0  0
    0.3402   -2.0036    0.0000 C   0  0  0  0  0  0  0  0  0  0  0  0
    1.7692   -2.8286    0.0000 C   0  0  0  0  0  0  0  0  0  0  0  0
    0.3402   -2.8286    0.0000 C   0  0  0  0  0  0  0  0  0  0  0  0
    1.0547   -3.2411    0.0000 C   0  0  0  0  0  0  0  0  0  0  0  0
  2  9  2  0  0  0  0
  3 13  2  0  0  0  0
  4 10  1  0  0  0  0
  5  6  2  0  0  0  0
  5  7  1  0  0  0  0
  5  9  1  0  0  0  0
  6  8  1  0  0  0  0
  6 15  1  0  0  0  0
  7 11  2  0  0  0  0
  7 16  1  0  0  0  0
  8 10  2  0  0  0  0
  8 17  1  0  0  0  0
  9 12  1  0  0  0  0
 10 11  1  0  0  0  0
 12 13  1  0  0  0  0
 13 14  1  0  0  0  0
 14 18  2  0  0  0  0
 14 19  1  0  0  0  0
 18 20  1  0  0  0  0
 19 21  2  0  0  0  0
 20 22  2  0  0  0  0
 21 22  1  0  0  0  0
M  CHG  2   1  -1   4   1
M  END
> <PUBCHEM_COMPOUND_ID_TYPE>
0

> <PUBCHEM_TOTAL_CHARGE>
0

> <PUBCHEM_SUBSTANCE_ID>
310938256

> <PUBCHEM_SUBSTANCE_VERSION>
1

> <PUBCHEM_EXT_DATASOURCE_NAME>
4488

> <PUBCHEM_EXT_DATASOURCE_REGID>
SCHEMBL16116122

> <PUBCHEM_SUBSTANCE_COMMENT>
InChI=1S/C18H19NO2.ClH/c1-11-9-15(19)12(2)13(3)18(11)17(21)10-16(20)14-7-5-4-6-8-14;/h4-9H,10,19H2,1-3H3;1H
InChIKey=JVUIRXFWFKXJNK-UHFFFAOYSA-N

> <PUBCHEM_SUBSTANCE_SYNONYM>
SCHEMBL16116122

> <PUBCHEM_XREF_EXT_ID>
SCHEMBL16116122

> <PUBCHEM_EXT_DATASOURCE_URL>
https://www.surechembl.org/

> <PUBCHEM_EXT_SUBSTANCE_URL>
https://www.surechembl.org/chemical/SCHEMBL16116122

> <PUBCHEM_CID_ASSOCIATIONS>
117605770  1
313  2
117605771  2

> <PUBCHEM_COORDINATE_TYPE>
1
3

$$$$
