310930491
  -OEChem-07211613022D

 19 18  0     0  0  0  0  0  0999 V2000
    4.5449   -0.7974    0.0000 S   0  0  0  0  0  0  0  0  0  0  0  0
    3.8272   -2.0332    0.0000 F   0  0  0  0  0  0  0  0  0  0  0  0
    4.5449   -2.4518    0.0000 F   0  0  0  0  0  0  0  0  0  0  0  0
    5.2625   -2.8705    0.0000 F   0  0  0  0  0  0  0  0  0  0  0  0
    5.9801   -1.6346    0.0000 F   0  0  0  0  0  0  0  0  0  0  0  0
    4.5449    0.0000    0.0000 O   0  5  0  0  0  0  0  0  0  0  0  0
    5.4419   -0.7974    0.0000 O   0  0  0  0  0  0  0  0  0  0  0  0
    3.7475   -0.7974    0.0000 O   0  0  0  0  0  0  0  0  0  0  0  0
    1.4352   -1.2159    0.0000 N   0  3  0  0  0  0  0  0  0  0  0  0
    4.5449   -1.6346    0.0000 C   0  0  0  0  0  0  0  0  0  0  0  0
    5.2625   -2.0332    0.0000 C   0  0  0  0  0  0  0  0  0  0  0  0
    2.0930   -1.6944    0.0000 C   0  0  0  0  0  0  0  0  0  0  0  0
    0.7575   -1.6944    0.0000 C   0  0  0  0  0  0  0  0  0  0  0  0
    0.6977   -0.8372    0.0000 C   0  0  0  0  0  0  0  0  0  0  0  0
    1.8339   -2.4917    0.0000 C   0  0  0  0  0  0  0  0  0  0  0  0
    1.0166   -2.4917    0.0000 C   0  0  0  0  0  0  0  0  0  0  0  0
    1.4352   -0.3787    0.0000 C   0  0  0  0  0  0  0  0  0  0  0  0
    0.0000   -1.2957    0.0000 C   0  0  0  0  0  0  0  0  0  0  0  0
    0.0398   -2.1129    0.0000 C   0  0  0  0  0  0  0  0  0  0  0  0
  1  6  1  0  0  0  0
  1  7  2  0  0  0  0
  1  8  2  0  0  0  0
  1 10  1  0  0  0  0
  2 10  1  0  0  0  0
  3 10  1  0  0  0  0
  4 11  1  0  0  0  0
  5 11  1  0  0  0  0
  9 12  1  0  0  0  0
  9 13  1  0  0  0  0
  9 14  1  0  0  0  0
  9 17  1  0  0  0  0
 10 11  1  0  0  0  0
 12 15  1  0  0  0  0
 13 16  1  0  0  0  0
 14 18  1  0  0  0  0
 15 16  1  0  0  0  0
 18 19  1  0  0  0  0
M  CHG  2   6  -1   9   1
M  END
> <PUBCHEM_COMPOUND_ID_TYPE>
0

> <PUBCHEM_TOTAL_CHARGE>
0

> <PUBCHEM_SUBSTANCE_ID>
310930491

> <PUBCHEM_SUBSTANCE_VERSION>
1

> <PUBCHEM_EXT_DATASOURCE_NAME>
4488

> <PUBCHEM_EXT_DATASOURCE_REGID>
SCHEMBL16107782

> <PUBCHEM_SUBSTANCE_COMMENT>
InChI=1S/C8H18N.C2H2F4O3S/c1-3-6-9(2)7-4-5-8-9;3-1(4)2(5,6)10(7,8)9/h3-8H2,1-2H3;1H,(H,7,8,9)/q+1;/p-1
InChIKey=SRNMHXUSMAVCIO-UHFFFAOYSA-M

> <PUBCHEM_SUBSTANCE_SYNONYM>
SCHEMBL16107782

> <PUBCHEM_XREF_EXT_ID>
SCHEMBL16107782

> <PUBCHEM_EXT_DATASOURCE_URL>
https://www.surechembl.org/

> <PUBCHEM_EXT_SUBSTANCE_URL>
https://www.surechembl.org/chemical/SCHEMBL16107782

> <PUBCHEM_CID_ASSOCIATIONS>
117599604  1
10176391  2
12059918  2

> <PUBCHEM_COORDINATE_TYPE>
1
3

$$$$
