310929939
  -OEChem-07211613022D

 56 60  0     1  0  0  0  0  0999 V2000
    2.9684   -1.1888    0.0000 F   0  0  0  0  0  0  0  0  0  0  0  0
    3.6829   -1.6013    0.0000 F   0  0  0  0  0  0  0  0  0  0  0  0
    2.9684   -0.3638    0.0000 F   0  0  0  0  0  0  0  0  0  0  0  0
   -4.2868   -0.8250    0.0000 O   0  0  0  0  0  0  0  0  0  0  0  0
   -1.4290   -0.8250    0.0000 O   0  0  0  0  0  0  0  0  0  0  0  0
   -5.0013   -2.0625    0.0000 O   0  0  0  0  0  0  0  0  0  0  0  0
    0.0000    1.6500    0.0000 O   0  0  0  0  0  0  0  0  0  0  0  0
   -2.8579   -4.1250    0.0000 O   0  0  0  0  0  0  0  0  0  0  0  0
   -0.0902   -3.7257    0.0000 O   0  0  0  0  0  0  0  0  0  0  0  0
   -1.3277   -4.4402    0.0000 O   0  0  0  0  0  0  0  0  0  0  0  0
    4.3974    0.4612    0.0000 O   0  0  0  0  0  0  0  0  0  0  0  0
    5.1118   -0.7763    0.0000 O   0  0  0  0  0  0  0  0  0  0  0  0
   -2.1434   -2.8875    0.0000 N   0  0  0  0  0  0  0  0  0  0  0  0
   -3.5724   -2.0625    0.0000 N   0  0  0  0  0  0  0  0  0  0  0  0
    0.0000   -0.8250    0.0000 N   0  0  0  0  0  0  0  0  0  0  0  0
    2.1434    2.8875    0.0000 N   0  0  0  0  0  0  0  0  0  0  0  0
   -5.0013   -0.4125    0.0000 C   0  0  3  0  0  0  0  0  0  0  0  0
   -5.0013    0.4125    0.0000 C   0  0  3  0  0  0  0  0  0  0  0  0
   -5.7158    0.0000    0.0000 C   0  0  0  0  0  0  0  0  0  0  0  0
   -4.2868    0.8250    0.0000 C   0  0  0  0  0  0  0  0  0  0  0  0
   -4.2868   -1.6500    0.0000 C   0  0  0  0  0  0  0  0  0  0  0  0
   -1.4290   -1.6500    0.0000 C   0  0  3  0  0  0  0  0  0  0  0  0
   -1.3277   -3.0112    0.0000 C   0  0  3  0  0  0  0  0  0  0  0  0
   -3.5724   -2.8875    0.0000 C   0  0  3  0  0  0  0  0  0  0  0  0
   -2.8579   -3.3000    0.0000 C   0  0  0  0  0  0  0  0  0  0  0  0
   -2.1434   -2.0625    0.0000 C   0  0  0  0  0  0  0  0  0  0  0  0
   -0.9152   -2.2967    0.0000 C   0  0  0  0  0  0  0  0  0  0  0  0
   -0.7144   -0.4125    0.0000 C   0  0  0  0  0  0  0  0  0  0  0  0
   -3.5724    0.4125    0.0000 C   0  0  0  0  0  0  0  0  0  0  0  0
   -0.7144    0.4125    0.0000 C   0  0  0  0  0  0  0  0  0  0  0  0
    0.0000    0.8250    0.0000 C   0  0  0  0  0  0  0  0  0  0  0  0
   -4.2868   -3.3000    0.0000 C   0  0  0  0  0  0  0  0  0  0  0  0
    0.7144    0.4125    0.0000 C   0  0  0  0  0  0  0  0  0  0  0  0
    0.7144   -0.4125    0.0000 C   0  0  0  0  0  0  0  0  0  0  0  0
   -0.9152   -3.7257    0.0000 C   0  0  0  0  0  0  0  0  0  0  0  0
   -2.8579    0.8250    0.0000 C   0  0  0  0  0  0  0  0  0  0  0  0
   -1.4290    0.8250    0.0000 C   0  0  0  0  0  0  0  0  0  0  0  0
   -2.1434    0.4125    0.0000 C   0  0  0  0  0  0  0  0  0  0  0  0
    1.4290    0.8250    0.0000 C   0  0  0  0  0  0  0  0  0  0  0  0
    1.4290   -0.8250    0.0000 C   0  0  0  0  0  0  0  0  0  0  0  0
   -4.2868   -4.1250    0.0000 C   0  0  0  0  0  0  0  0  0  0  0  0
   -5.0013   -3.7125    0.0000 C   0  0  0  0  0  0  0  0  0  0  0  0
   -5.0013   -2.8875    0.0000 C   0  0  0  0  0  0  0  0  0  0  0  0
    0.7144    2.0625    0.0000 C   0  0  0  0  0  0  0  0  0  0  0  0
    2.1434    0.4125    0.0000 C   0  0  0  0  0  0  0  0  0  0  0  0
    2.1434   -0.4125    0.0000 C   0  0  0  0  0  0  0  0  0  0  0  0
    1.4290    1.6500    0.0000 C   0  0  0  0  0  0  0  0  0  0  0  0
    0.7144    2.8875    0.0000 C   0  0  0  0  0  0  0  0  0  0  0  0
    0.3223   -4.4402    0.0000 C   0  0  0  0  0  0  0  0  0  0  0  0
    2.1434    2.0625    0.0000 C   0  0  0  0  0  0  0  0  0  0  0  0
    1.4290    3.3000    0.0000 C   0  0  0  0  0  0  0  0  0  0  0  0
    3.6829   -0.7763    0.0000 C   0  0  0  0  0  0  0  0  0  0  0  0
    4.3974   -0.3638    0.0000 C   0  0  0  0  0  0  0  0  0  0  0  0
   -5.4138   -1.1270    0.0000 H   0  0  0  0  0  0  0  0  0  0  0  0
   -5.4138    1.1270    0.0000 H   0  0  0  0  0  0  0  0  0  0  0  0
   -0.6500   -1.3783    0.0000 H   0  0  0  0  0  0  0  0  0  0  0  0
  1 52  1  0  0  0  0
  2 52  1  0  0  0  0
  3 52  1  0  0  0  0
  4 17  1  0  0  0  0
  4 21  1  0  0  0  0
  5 22  1  0  0  0  0
  5 28  1  0  0  0  0
  6 21  2  0  0  0  0
  7 31  1  0  0  0  0
  7 44  1  0  0  0  0
  8 25  2  0  0  0  0
  9 35  1  0  0  0  0
  9 49  1  0  0  0  0
 10 35  2  0  0  0  0
 11 53  2  0  0  0  0
 12 53  1  0  0  0  0
 13 23  1  0  0  0  0
 13 25  1  0  0  0  0
 13 26  1  0  0  0  0
 14 21  1  0  0  0  0
 14 24  1  0  0  0  0
 15 28  2  0  0  0  0
 15 34  1  0  0  0  0
 16 50  1  0  0  0  0
 16 51  1  0  0  0  0
 17 18  1  0  0  0  0
 17 19  1  0  0  0  0
 17 54  1  1  0  0  0
 18 19  1  0  0  0  0
 18 20  1  0  0  0  0
 18 55  1  6  0  0  0
 20 29  1  0  0  0  0
 22 26  1  0  0  0  0
 22 27  1  0  0  0  0
 22 56  1  1  0  0  0
 23 27  1  0  0  0  0
 23 35  1  1  0  0  0
 24 25  1  0  0  0  0
 24 32  1  6  0  0  0
 28 30  1  0  0  0  0
 29 36  1  0  0  0  0
 30 31  2  0  0  0  0
 30 37  1  0  0  0  0
 31 33  1  0  0  0  0
 32 41  1  0  0  0  0
 32 42  1  0  0  0  0
 32 43  1  0  0  0  0
 33 34  1  0  0  0  0
 33 39  2  0  0  0  0
 34 40  2  0  0  0  0
 36 38  1  0  0  0  0
 37 38  1  0  0  0  0
 39 45  1  0  0  0  0
 40 46  1  0  0  0  0
 44 47  1  0  0  0  0
 44 48  1  0  0  0  0
 45 46  2  0  0  0  0
 47 50  1  0  0  0  0
 48 51  1  0  0  0  0
 52 53  1  0  0  0  0
M  END
> <PUBCHEM_COMPOUND_ID_TYPE>
0

> <PUBCHEM_TOTAL_CHARGE>
0

> <PUBCHEM_SUBSTANCE_ID>
310929939

> <PUBCHEM_SUBSTANCE_VERSION>
1

> <PUBCHEM_EXT_DATASOURCE_NAME>
4488

> <PUBCHEM_EXT_DATASOURCE_REGID>
SCHEMBL16107160

> <PUBCHEM_SUBSTANCE_COMMENT>
InChI=1S/C35H48N4O7.C2HF3O2/c1-35(2,3)30-32(40)39-20-23(19-27(39)33(41)43-4)45-31-25(12-7-5-6-10-21-18-28(21)46-34(42)38-30)29(44-22-14-16-36-17-15-22)24-11-8-9-13-26(24)37-31;3-2(4,5)1(6)7/h8-9,11,13,21-23,27-28,30,36H,5-7,10,12,14-20H2,1-4H3,(H,38,42);(H,6,7)/t21-,23-,27+,28-,30-;/m1./s1
InChIKey=PIXLLEGYSBLFEU-IJFVYKMMSA-N

> <PUBCHEM_SUBSTANCE_SYNONYM>
SCHEMBL16107160

> <PUBCHEM_XREF_EXT_ID>
SCHEMBL16107160

> <PUBCHEM_EXT_DATASOURCE_URL>
https://www.surechembl.org/

> <PUBCHEM_EXT_SUBSTANCE_URL>
https://www.surechembl.org/chemical/SCHEMBL16107160

> <PUBCHEM_CID_ASSOCIATIONS>
117599199  1
6422  2
117599200  2

> <PUBCHEM_COORDINATE_TYPE>
1
3

> <PUBCHEM_BONDANNOTATIONS>
17  54  5
18  55  6
22  56  5
23  35  5
24  32  6

$$$$
