310936648
  -OEChem-07211613022D

 52 50  0     0  0  0  0  0  0999 V2000
    0.6713    0.0000    0.0000 O   0  0  0  0  0  0  0  0  0  0  0  0
    0.0000   -1.2468    0.0000 O   0  0  0  0  0  0  0  0  0  0  0  0
   19.3724    0.0000    0.0000 O   0  0  0  0  0  0  0  0  0  0  0  0
   18.7011   -1.2468    0.0000 O   0  0  0  0  0  0  0  0  0  0  0  0
    0.6713   -0.7673    0.0000 C   0  0  0  0  0  0  0  0  0  0  0  0
    1.4385   -1.2468    0.0000 C   0  0  0  0  0  0  0  0  0  0  0  0
    2.1099   -0.7673    0.0000 C   0  0  0  0  0  0  0  0  0  0  0  0
    2.8771   -1.2468    0.0000 C   0  0  0  0  0  0  0  0  0  0  0  0
    3.5484   -0.7673    0.0000 C   0  0  0  0  0  0  0  0  0  0  0  0
    4.3156   -1.2468    0.0000 C   0  0  0  0  0  0  0  0  0  0  0  0
    4.9869   -0.7673    0.0000 C   0  0  0  0  0  0  0  0  0  0  0  0
    5.6583   -1.2468    0.0000 C   0  0  0  0  0  0  0  0  0  0  0  0
    6.4255   -0.7673    0.0000 C   0  0  0  0  0  0  0  0  0  0  0  0
    7.0968   -1.2468    0.0000 C   0  0  0  0  0  0  0  0  0  0  0  0
    7.8640   -0.7673    0.0000 C   0  0  0  0  0  0  0  0  0  0  0  0
   19.3724   -0.7673    0.0000 C   0  0  0  0  0  0  0  0  0  0  0  0
   20.1396   -1.2468    0.0000 C   0  0  0  0  0  0  0  0  0  0  0  0
   20.8109   -0.7673    0.0000 C   0  0  0  0  0  0  0  0  0  0  0  0
   21.5781   -1.2468    0.0000 C   0  0  0  0  0  0  0  0  0  0  0  0
   22.2495   -0.7673    0.0000 C   0  0  0  0  0  0  0  0  0  0  0  0
    8.5354   -1.2468    0.0000 C   0  0  0  0  0  0  0  0  0  0  0  0
   22.9208   -1.2468    0.0000 C   0  0  0  0  0  0  0  0  0  0  0  0
   23.6880   -0.7673    0.0000 C   0  0  0  0  0  0  0  0  0  0  0  0
   24.3593   -1.2468    0.0000 C   0  0  0  0  0  0  0  0  0  0  0  0
   25.1266   -0.7673    0.0000 C   0  0  0  0  0  0  0  0  0  0  0  0
   25.7979   -1.2468    0.0000 C   0  0  0  0  0  0  0  0  0  0  0  0
   25.7979   -2.0140    0.0000 C   0  0  0  0  0  0  0  0  0  0  0  0
   25.1266   -2.3975    0.0000 C   0  0  0  0  0  0  0  0  0  0  0  0
   25.1266   -3.2607    0.0000 C   0  0  0  0  0  0  0  0  0  0  0  0
    9.2067   -0.7673    0.0000 C   0  0  0  0  0  0  0  0  0  0  0  0
   25.7979   -3.6443    0.0000 C   0  0  0  0  0  0  0  0  0  0  0  0
   26.4692   -3.2607    0.0000 C   0  0  0  0  0  0  0  0  0  0  0  0
    9.9739   -1.2468    0.0000 C   0  0  0  0  0  0  0  0  0  0  0  0
   27.2364   -3.6443    0.0000 C   0  0  0  0  0  0  0  0  0  0  0  0
   10.6452   -0.7673    0.0000 C   0  0  0  0  0  0  0  0  0  0  0  0
   27.2364   -4.5074    0.0000 C   0  0  0  0  0  0  0  0  0  0  0  0
   26.5651   -4.8911    0.0000 C   0  0  0  0  0  0  0  0  0  0  0  0
   11.4124   -1.2468    0.0000 C   0  0  0  0  0  0  0  0  0  0  0  0
   26.5651   -5.7542    0.0000 C   0  0  0  0  0  0  0  0  0  0  0  0
   12.0838   -0.7673    0.0000 C   0  0  0  0  0  0  0  0  0  0  0  0
   12.7551   -1.2468    0.0000 C   0  0  0  0  0  0  0  0  0  0  0  0
   27.3323   -6.1378    0.0000 C   0  0  0  0  0  0  0  0  0  0  0  0
   13.5223   -0.7673    0.0000 C   0  0  0  0  0  0  0  0  0  0  0  0
   28.0036   -5.6583    0.0000 C   0  0  0  0  0  0  0  0  0  0  0  0
   14.1936   -1.2468    0.0000 C   0  0  0  0  0  0  0  0  0  0  0  0
   28.7709   -6.0419    0.0000 C   0  0  0  0  0  0  0  0  0  0  0  0
   14.9608   -0.7673    0.0000 C   0  0  0  0  0  0  0  0  0  0  0  0
   15.6322   -1.2468    0.0000 C   0  0  0  0  0  0  0  0  0  0  0  0
   28.7709   -6.9050    0.0000 C   0  0  0  0  0  0  0  0  0  0  0  0
   16.3994   -0.7673    0.0000 C   0  0  0  0  0  0  0  0  0  0  0  0
   28.0995   -7.2886    0.0000 C   0  0  0  0  0  0  0  0  0  0  0  0
   17.0707   -1.2468    0.0000 C   0  0  0  0  0  0  0  0  0  0  0  0
  1  5  2  0  0  0  0
  2  5  1  0  0  0  0
  3 16  2  0  0  0  0
  4 16  1  0  0  0  0
  5  6  1  0  0  0  0
  6  7  2  0  0  0  0
  7  8  1  0  0  0  0
  8  9  2  0  0  0  0
  9 10  1  0  0  0  0
 10 11  2  0  0  0  0
 11 12  1  0  0  0  0
 12 13  2  0  0  0  0
 13 14  1  0  0  0  0
 14 15  2  0  0  0  0
 15 21  1  0  0  0  0
 16 17  1  0  0  0  0
 17 18  1  0  0  0  0
 18 19  1  0  0  0  0
 19 20  1  0  0  0  0
 20 22  1  0  0  0  0
 21 30  2  0  0  0  0
 22 23  1  0  0  0  0
 23 24  1  0  0  0  0
 24 25  1  0  0  0  0
 25 26  2  0  0  0  0
 26 27  1  0  0  0  0
 27 28  1  0  0  0  0
 28 29  2  0  0  0  0
 29 31  1  0  0  0  0
 30 33  1  0  0  0  0
 31 32  1  0  0  0  0
 32 34  2  0  0  0  0
 33 35  1  0  0  0  0
 34 36  1  0  0  0  0
 35 38  1  0  0  0  0
 36 37  1  0  0  0  0
 37 39  2  0  0  0  0
 38 40  1  0  0  0  0
 39 42  1  0  0  0  0
 40 41  1  0  0  0  0
 41 43  1  0  0  0  0
 42 44  1  0  0  0  0
 43 45  1  0  0  0  0
 44 46  2  0  0  0  0
 45 47  1  0  0  0  0
 46 49  1  0  0  0  0
 47 48  1  0  0  0  0
 48 50  1  0  0  0  0
 49 51  1  0  0  0  0
 50 52  1  0  0  0  0
M  END
> <PUBCHEM_COMPOUND_ID_TYPE>
0

> <PUBCHEM_TOTAL_CHARGE>
0

> <PUBCHEM_SUBSTANCE_ID>
310936648

> <PUBCHEM_SUBSTANCE_VERSION>
1

> <PUBCHEM_EXT_DATASOURCE_NAME>
4488

> <PUBCHEM_EXT_DATASOURCE_REGID>
SCHEMBL16114315

> <PUBCHEM_SUBSTANCE_COMMENT>
InChI=1S/C24H38O2.C24H36O2/c2*1-2-3-4-5-6-7-8-9-10-11-12-13-14-15-16-17-18-19-20-21-22-23-24(25)26/h3-4,6-7,9-10,12-13,15-16H,2,5,8,11,14,17-23H2,1H3,(H,25,26);12-23H,2-11H2,1H3,(H,25,26)/b4-3-,7-6-,10-9-,13-12-,16-15-;13-12+,15-14+,17-16+,19-18+,21-20+,23-22+
InChIKey=NRHUDWZCFMPEDY-FTPUQJKGSA-N

> <PUBCHEM_SUBSTANCE_SYNONYM>
SCHEMBL16114315

> <PUBCHEM_XREF_EXT_ID>
SCHEMBL16114315

> <PUBCHEM_EXT_DATASOURCE_URL>
https://www.surechembl.org/

> <PUBCHEM_EXT_SUBSTANCE_URL>
https://www.surechembl.org/chemical/SCHEMBL16114315

> <PUBCHEM_CID_ASSOCIATIONS>
117604561  1
6439582  2
52921801  2

> <PUBCHEM_COORDINATE_TYPE>
1
3

$$$$
