310938107
  -OEChem-07211613022D

 16 16  0     0  0  0  0  0  0999 V2000
    7.0484   -2.9369    0.0000 O   0  0  0  0  0  0  0  0  0  0  0  0
    7.0484   -1.5037    0.0000 O   0  0  0  0  0  0  0  0  0  0  0  0
    5.3098   -2.8898    0.0000 N   0  0  0  0  0  0  0  0  0  0  0  0
    2.5139   -0.3759    0.0000 N   0  0  0  0  0  0  0  0  0  0  0  0
    4.5345   -1.8091    0.0000 C   0  0  0  0  0  0  0  0  0  0  0  0
    3.8531   -1.3392    0.0000 C   0  0  0  0  0  0  0  0  0  0  0  0
    5.8032   -2.2085    0.0000 C   0  0  0  0  0  0  0  0  0  0  0  0
    5.3098   -1.5506    0.0000 C   0  0  0  0  0  0  0  0  0  0  0  0
    4.5345   -2.6314    0.0000 C   0  0  0  0  0  0  0  0  0  0  0  0
    6.6255   -2.2085    0.0000 C   0  0  0  0  0  0  0  0  0  0  0  0
    3.1013   -1.6916    0.0000 C   0  0  0  0  0  0  0  0  0  0  0  0
    3.9471   -0.5169    0.0000 C   0  0  0  0  0  0  0  0  0  0  0  0
    2.4200   -1.1747    0.0000 C   0  0  0  0  0  0  0  0  0  0  0  0
    3.2658    0.0000    0.0000 C   0  0  0  0  0  0  0  0  0  0  0  0
    1.6681   -1.5037    0.0000 C   0  0  0  0  0  0  0  0  0  0  0  0
    0.0000   -1.4802    0.0000 Li  0  4  0  0  0  0  0  0  0  0  0  0
  1 10  2  0  0  0  0
  2 10  1  0  0  0  0
  3  7  1  0  0  0  0
  3  9  1  0  0  0  0
  4 13  1  0  0  0  0
  4 14  2  0  0  0  0
  5  6  1  0  0  0  0
  5  8  1  0  0  0  0
  5  9  2  0  0  0  0
  6 11  1  0  0  0  0
  6 12  2  0  0  0  0
  7  8  2  0  0  0  0
  7 10  1  0  0  0  0
 11 13  2  0  0  0  0
 12 14  1  0  0  0  0
 13 15  1  0  0  0  0
M  RAD  1  16   2
M  END
> <PUBCHEM_COMPOUND_ID_TYPE>
0

> <PUBCHEM_TOTAL_CHARGE>
0

> <PUBCHEM_SUBSTANCE_ID>
310938107

> <PUBCHEM_SUBSTANCE_VERSION>
1

> <PUBCHEM_EXT_DATASOURCE_NAME>
4488

> <PUBCHEM_EXT_DATASOURCE_REGID>
SCHEMBL16115955

> <PUBCHEM_SUBSTANCE_COMMENT>
InChI=1S/C11H10N2O2.Li/c1-7-4-8(2-3-12-7)9-5-10(11(14)15)13-6-9;/h2-6,13H,1H3,(H,14,15);
InChIKey=HOVBTUBCRGMDHF-UHFFFAOYSA-N

> <PUBCHEM_SUBSTANCE_SYNONYM>
SCHEMBL16115955

> <PUBCHEM_XREF_EXT_ID>
SCHEMBL16115955

> <PUBCHEM_EXT_DATASOURCE_URL>
https://www.surechembl.org/

> <PUBCHEM_EXT_SUBSTANCE_URL>
https://www.surechembl.org/chemical/SCHEMBL16115955

> <PUBCHEM_CID_ASSOCIATIONS>
117605668  1
3028194  2
117605669  2

> <PUBCHEM_COORDINATE_TYPE>
1
3

$$$$
