310933673
  -OEChem-07211613022D

 29 27  0     0  0  0  0  0  0999 V2000
    0.7672   -1.6500    0.0000 O   0  0  0  0  0  0  0  0  0  0  0  0
    0.7145    0.4125    0.0000 O   0  0  0  0  0  0  0  0  0  0  0  0
    2.8579    0.0000    0.0000 O   0  0  0  0  0  0  0  0  0  0  0  0
    0.0000   -0.8250    0.0000 O   0  0  0  0  0  0  0  0  0  0  0  0
    3.5724    1.2375    0.0000 O   0  0  0  0  0  0  0  0  0  0  0  0
    5.0013    1.2375    0.0000 O   0  0  0  0  0  0  0  0  0  0  0  0
    3.9233   -3.1613    0.0000 O   0  0  0  0  0  0  0  0  0  0  0  0
    3.2088   -1.9238    0.0000 O   0  0  0  0  0  0  0  0  0  0  0  0
    0.2404   -3.0225    0.0000 N   0  0  0  0  0  0  0  0  0  0  0  0
    0.1541   -2.2021    0.0000 C   0  0  0  0  0  0  0  0  0  0  0  0
   -0.5133   -3.3581    0.0000 C   0  0  0  0  0  0  0  0  0  0  0  0
   -0.6529   -2.0305    0.0000 C   0  0  0  0  0  0  0  0  0  0  0  0
   -1.0654   -2.7450    0.0000 C   0  0  0  0  0  0  0  0  0  0  0  0
    0.9548   -3.4350    0.0000 C   0  0  0  0  0  0  0  0  0  0  0  0
    0.0000    0.0000    0.0000 C   0  0  0  0  0  0  0  0  0  0  0  0
    3.5724    0.4125    0.0000 C   0  0  0  0  0  0  0  0  0  0  0  0
   -0.7145    0.4125    0.0000 C   0  0  0  0  0  0  0  0  0  0  0  0
    4.2869    0.0000    0.0000 C   0  0  0  0  0  0  0  0  0  0  0  0
    1.4290    0.0000    0.0000 C   0  0  0  0  0  0  0  0  0  0  0  0
    2.1434    0.4125    0.0000 C   0  0  0  0  0  0  0  0  0  0  0  0
    5.0013    0.4125    0.0000 C   0  0  0  0  0  0  0  0  0  0  0  0
    1.6693   -3.0225    0.0000 C   0  0  0  0  0  0  0  0  0  0  0  0
   -1.4290    0.0000    0.0000 C   0  0  0  0  0  0  0  0  0  0  0  0
   -0.7145    1.2375    0.0000 C   0  0  0  0  0  0  0  0  0  0  0  0
    5.7158    0.0000    0.0000 C   0  0  0  0  0  0  0  0  0  0  0  0
    3.2088   -2.7488    0.0000 C   0  0  0  0  0  0  0  0  0  0  0  0
    4.6378   -2.7488    0.0000 C   0  0  0  0  0  0  0  0  0  0  0  0
    2.4943   -3.1613    0.0000 C   0  0  0  0  0  0  0  0  0  0  0  0
    5.3522   -3.1613    0.0000 C   0  0  0  0  0  0  0  0  0  0  0  0
  1 10  2  0  0  0  0
  2 15  1  0  0  0  0
  2 19  1  0  0  0  0
  3 16  1  0  0  0  0
  3 20  1  0  0  0  0
  4 15  2  0  0  0  0
  5 16  2  0  0  0  0
  6 21  2  0  0  0  0
  7 26  1  0  0  0  0
  7 27  1  0  0  0  0
  8 26  2  0  0  0  0
  9 10  1  0  0  0  0
  9 11  1  0  0  0  0
  9 14  1  0  0  0  0
 10 12  1  0  0  0  0
 11 13  1  0  0  0  0
 12 13  1  0  0  0  0
 14 22  2  0  0  0  0
 15 17  1  0  0  0  0
 16 18  1  0  0  0  0
 17 23  2  0  0  0  0
 17 24  1  0  0  0  0
 18 21  1  0  0  0  0
 19 20  1  0  0  0  0
 21 25  1  0  0  0  0
 26 28  1  0  0  0  0
 27 29  2  0  0  0  0
M  END
> <PUBCHEM_COMPOUND_ID_TYPE>
0

> <PUBCHEM_TOTAL_CHARGE>
0

> <PUBCHEM_SUBSTANCE_ID>
310933673

> <PUBCHEM_SUBSTANCE_VERSION>
1

> <PUBCHEM_EXT_DATASOURCE_NAME>
4488

> <PUBCHEM_EXT_DATASOURCE_REGID>
SCHEMBL16111106

> <PUBCHEM_SUBSTANCE_COMMENT>
InChI=1S/C10H14O5.C6H9NO.C4H6O2/c1-7(2)10(13)15-5-4-14-9(12)6-8(3)11;1-2-7-5-3-4-6(7)8;1-3-6-4(2)5/h1,4-6H2,2-3H3;2H,1,3-5H2;3H,1H2,2H3
InChIKey=OVKXTLYVYOHDAR-UHFFFAOYSA-N

> <PUBCHEM_SUBSTANCE_SYNONYM>
SCHEMBL16111106

> <PUBCHEM_XREF_EXT_ID>
SCHEMBL16111106

> <PUBCHEM_EXT_DATASOURCE_URL>
https://www.surechembl.org/

> <PUBCHEM_EXT_SUBSTANCE_URL>
https://www.surechembl.org/chemical/SCHEMBL16111106

> <PUBCHEM_CID_ASSOCIATIONS>
117602042  1
6917  2
7904  2
88855  2

> <PUBCHEM_COORDINATE_TYPE>
1
3

$$$$
