310930971
  -OEChem-07211613022D

 36 38  0     0  0  0  0  0  0999 V2000
    3.8344   -2.6876    0.0000 S   0  0  0  0  0  0  0  0  0  0  0  0
    6.6296   -2.5443    0.0000 F   0  0  0  0  0  0  0  0  0  0  0  0
    5.9129   -3.7986    0.0000 F   0  0  0  0  0  0  0  0  0  0  0  0
    5.9129   -2.9744    0.0000 F   0  0  0  0  0  0  0  0  0  0  0  0
    0.9317   -2.6876    0.0000 O   0  0  0  0  0  0  0  0  0  0  0  0
    0.0000   -6.4146    0.0000 O   0  0  0  0  0  0  0  0  0  0  0  0
    3.4402   -6.7013    0.0000 O   0  0  0  0  0  0  0  0  0  0  0  0
    7.3463   -4.6228    0.0000 O   0  0  0  0  0  0  0  0  0  0  0  0
    8.0630   -3.3685    0.0000 O   0  0  0  0  0  0  0  0  0  0  0  0
    2.3651   -2.4727    0.0000 N   0  0  0  0  0  0  0  0  0  0  0  0
    2.7952   -3.7269    0.0000 N   0  0  0  0  0  0  0  0  0  0  0  0
    2.3651    0.0000    0.0000 N   0  0  0  0  0  0  0  0  0  0  0  0
    1.9351   -3.7269    0.0000 C   0  0  0  0  0  0  0  0  0  0  0  0
    1.7201   -2.9385    0.0000 C   0  0  0  0  0  0  0  0  0  0  0  0
    1.4693   -4.4078    0.0000 C   0  0  0  0  0  0  0  0  0  0  0  0
    2.3293   -4.4794    0.0000 C   0  0  0  0  0  0  0  0  0  0  0  0
    3.0460   -2.9385    0.0000 C   0  0  0  0  0  0  0  0  0  0  0  0
    2.3651   -1.6484    0.0000 C   0  0  0  0  0  0  0  0  0  0  0  0
    1.7918   -5.1603    0.0000 C   0  0  0  0  0  0  0  0  0  0  0  0
    3.1535   -4.5153    0.0000 C   0  0  0  0  0  0  0  0  0  0  0  0
    0.6450   -4.3361    0.0000 C   0  0  0  0  0  0  0  0  0  0  0  0
    2.0426   -5.3395    0.0000 C   0  0  0  0  0  0  0  0  0  0  0  0
    3.0819   -1.2184    0.0000 C   0  0  0  0  0  0  0  0  0  0  0  0
    1.6484   -1.2184    0.0000 C   0  0  0  0  0  0  0  0  0  0  0  0
    1.3259   -5.8412    0.0000 C   0  0  0  0  0  0  0  0  0  0  0  0
    3.5119   -5.2678    0.0000 C   0  0  0  0  0  0  0  0  0  0  0  0
    0.1433   -4.9811    0.0000 C   0  0  0  0  0  0  0  0  0  0  0  0
    2.2576   -5.9129    0.0000 C   0  0  0  0  0  0  0  0  0  0  0  0
    0.5017   -5.7337    0.0000 C   0  0  0  0  0  0  0  0  0  0  0  0
    3.0819   -5.9487    0.0000 C   0  0  0  0  0  0  0  0  0  0  0  0
    3.0819   -0.3942    0.0000 C   0  0  0  0  0  0  0  0  0  0  0  0
    1.6484   -0.3942    0.0000 C   0  0  0  0  0  0  0  0  0  0  0  0
    0.3225   -7.1671    0.0000 C   0  0  0  0  0  0  0  0  0  0  0  0
    4.2644   -6.7371    0.0000 C   0  0  0  0  0  0  0  0  0  0  0  0
    6.6296   -3.3685    0.0000 C   0  0  0  0  0  0  0  0  0  0  0  0
    7.3463   -3.7986    0.0000 C   0  0  0  0  0  0  0  0  0  0  0  0
  1 17  2  0  0  0  0
  2 35  1  0  0  0  0
  3 35  1  0  0  0  0
  4 35  1  0  0  0  0
  5 14  2  0  0  0  0
  6 29  1  0  0  0  0
  6 33  1  0  0  0  0
  7 30  1  0  0  0  0
  7 34  1  0  0  0  0
  8 36  2  0  0  0  0
  9 36  1  0  0  0  0
 10 14  1  0  0  0  0
 10 17  1  0  0  0  0
 10 18  1  0  0  0  0
 11 13  1  0  0  0  0
 11 17  1  0  0  0  0
 12 31  1  0  0  0  0
 12 32  1  0  0  0  0
 13 14  1  0  0  0  0
 13 15  1  0  0  0  0
 13 16  1  0  0  0  0
 15 19  2  0  0  0  0
 15 21  1  0  0  0  0
 16 20  2  0  0  0  0
 16 22  1  0  0  0  0
 18 23  1  0  0  0  0
 18 24  1  0  0  0  0
 19 25  1  0  0  0  0
 20 26  1  0  0  0  0
 21 27  2  0  0  0  0
 22 28  2  0  0  0  0
 23 31  1  0  0  0  0
 24 32  1  0  0  0  0
 25 29  2  0  0  0  0
 26 30  2  0  0  0  0
 27 29  1  0  0  0  0
 28 30  1  0  0  0  0
 35 36  1  0  0  0  0
M  END
> <PUBCHEM_COMPOUND_ID_TYPE>
0

> <PUBCHEM_TOTAL_CHARGE>
0

> <PUBCHEM_SUBSTANCE_ID>
310930971

> <PUBCHEM_SUBSTANCE_VERSION>
1

> <PUBCHEM_EXT_DATASOURCE_NAME>
4488

> <PUBCHEM_EXT_DATASOURCE_REGID>
SCHEMBL16108271

> <PUBCHEM_SUBSTANCE_COMMENT>
InChI=1S/C22H25N3O3S.C2HF3O2/c1-27-18-7-3-15(4-8-18)22(16-5-9-19(28-2)10-6-16)20(26)25(21(29)24-22)17-11-13-23-14-12-17;3-2(4,5)1(6)7/h3-10,17,23H,11-14H2,1-2H3,(H,24,29);(H,6,7)
InChIKey=DHEVLCGUBDNZGS-UHFFFAOYSA-N

> <PUBCHEM_SUBSTANCE_SYNONYM>
SCHEMBL16108271

> <PUBCHEM_XREF_EXT_ID>
SCHEMBL16108271

> <PUBCHEM_EXT_DATASOURCE_URL>
https://www.surechembl.org/

> <PUBCHEM_EXT_SUBSTANCE_URL>
https://www.surechembl.org/chemical/SCHEMBL16108271

> <PUBCHEM_CID_ASSOCIATIONS>
117599910  1
6422  2
117599911  2

> <PUBCHEM_COORDINATE_TYPE>
1
3

$$$$
