310930259
  -OEChem-07211613022D

 30 32  0     0  0  0  0  0  0999 V2000
    4.1135    0.0000    0.0000 Cl  0  5  0  0  0  0  0  0  0  0  0  0
   -0.1366    0.6120    0.0000 P   0  3  0  0  0  0  0  0  0  0  0  0
   -0.6887   -3.3011    0.0000 O   0  0  0  0  0  0  0  0  0  0  0  0
    0.7403   -3.3011    0.0000 O   0  0  0  0  0  0  0  0  0  0  0  0
    0.4154    1.2251    0.0000 C   0  0  0  0  0  0  0  0  0  0  0  0
   -0.7497    1.1641    0.0000 C   0  0  0  0  0  0  0  0  0  0  0  0
    0.4765    0.0600    0.0000 C   0  0  0  0  0  0  0  0  0  0  0  0
   -0.6887   -0.0011    0.0000 C   0  0  0  0  0  0  0  0  0  0  0  0
   -0.6887   -0.8261    0.0000 C   0  0  0  0  0  0  0  0  0  0  0  0
    0.1605    2.0097    0.0000 C   0  0  0  0  0  0  0  0  0  0  0  0
   -1.5343    0.9091    0.0000 C   0  0  0  0  0  0  0  0  0  0  0  0
    1.2611    0.3149    0.0000 C   0  0  0  0  0  0  0  0  0  0  0  0
    1.2224    1.0536    0.0000 C   0  0  0  0  0  0  0  0  0  0  0  0
   -0.5782    1.9710    0.0000 C   0  0  0  0  0  0  0  0  0  0  0  0
    0.3049   -0.7470    0.0000 C   0  0  0  0  0  0  0  0  0  0  0  0
    0.0258   -1.2386    0.0000 C   0  0  0  0  0  0  0  0  0  0  0  0
   -1.4031   -1.2386    0.0000 C   0  0  0  0  0  0  0  0  0  0  0  0
    0.0258   -2.0636    0.0000 C   0  0  0  0  0  0  0  0  0  0  0  0
    0.7125    2.6228    0.0000 C   0  0  0  0  0  0  0  0  0  0  0  0
   -2.1474    1.4612    0.0000 C   0  0  0  0  0  0  0  0  0  0  0  0
    1.8742   -0.2371    0.0000 C   0  0  0  0  0  0  0  0  0  0  0  0
    1.7744    1.6667    0.0000 C   0  0  0  0  0  0  0  0  0  0  0  0
   -1.1913    2.5231    0.0000 C   0  0  0  0  0  0  0  0  0  0  0  0
    0.9180   -1.2990    0.0000 C   0  0  0  0  0  0  0  0  0  0  0  0
   -0.6887   -2.4761    0.0000 C   0  0  0  0  0  0  0  0  0  0  0  0
   -1.4031   -2.0636    0.0000 C   0  0  0  0  0  0  0  0  0  0  0  0
    1.5195    2.4513    0.0000 C   0  0  0  0  0  0  0  0  0  0  0  0
   -1.9759    2.2681    0.0000 C   0  0  0  0  0  0  0  0  0  0  0  0
    1.7027   -1.0441    0.0000 C   0  0  0  0  0  0  0  0  0  0  0  0
    0.7403   -2.4761    0.0000 C   0  0  0  0  0  0  0  0  0  0  0  0
  2  5  1  0  0  0  0
  2  6  1  0  0  0  0
  2  7  1  0  0  0  0
  2  8  1  0  0  0  0
  3 25  1  0  0  0  0
  4 30  2  0  0  0  0
  5 10  2  0  0  0  0
  5 13  1  0  0  0  0
  6 11  2  0  0  0  0
  6 14  1  0  0  0  0
  7 12  2  0  0  0  0
  7 15  1  0  0  0  0
  8  9  1  0  0  0  0
  9 16  2  0  0  0  0
  9 17  1  0  0  0  0
 10 19  1  0  0  0  0
 11 20  1  0  0  0  0
 12 21  1  0  0  0  0
 13 22  2  0  0  0  0
 14 23  2  0  0  0  0
 15 24  2  0  0  0  0
 16 18  1  0  0  0  0
 17 26  2  0  0  0  0
 18 25  2  0  0  0  0
 18 30  1  0  0  0  0
 19 27  2  0  0  0  0
 20 28  2  0  0  0  0
 21 29  2  0  0  0  0
 22 27  1  0  0  0  0
 23 28  1  0  0  0  0
 24 29  1  0  0  0  0
 25 26  1  0  0  0  0
M  CHG  2   1  -1   2   1
M  END
> <PUBCHEM_COMPOUND_ID_TYPE>
0

> <PUBCHEM_TOTAL_CHARGE>
0

> <PUBCHEM_SUBSTANCE_ID>
310930259

> <PUBCHEM_SUBSTANCE_VERSION>
1

> <PUBCHEM_EXT_DATASOURCE_NAME>
4488

> <PUBCHEM_EXT_DATASOURCE_REGID>
SCHEMBL16107535

> <PUBCHEM_SUBSTANCE_COMMENT>
InChI=1S/C26H21O2P.ClH/c27-19-22-18-21(16-17-26(22)28)20-29(23-10-4-1-5-11-23,24-12-6-2-7-13-24)25-14-8-3-9-15-25;/h1-19H,20H2;1H
InChIKey=FUFXZSOZKSIRMD-UHFFFAOYSA-N

> <PUBCHEM_SUBSTANCE_SYNONYM>
SCHEMBL16107535

> <PUBCHEM_XREF_EXT_ID>
SCHEMBL16107535

> <PUBCHEM_EXT_DATASOURCE_URL>
https://www.surechembl.org/

> <PUBCHEM_EXT_SUBSTANCE_URL>
https://www.surechembl.org/chemical/SCHEMBL16107535

> <PUBCHEM_CID_ASSOCIATIONS>
11080552  1
313  2
11080553  2

> <PUBCHEM_COORDINATE_TYPE>
1
3

$$$$
