310930444
  -OEChem-07211613022D

 11 10  0     0  0  0  0  0  0999 V2000
    5.6812   -0.7007    0.0000 Cl  0  0  0  0  0  0  0  0  0  0  0  0
    2.3483   -0.7007    0.0000 Cl  0  0  0  0  0  0  0  0  0  0  0  0
    0.0000   -0.0757    0.0000 O   0  0  0  0  0  0  0  0  0  0  0  0
    4.8480   -0.7007    0.0000 C   0  0  0  0  0  0  0  0  0  0  0  0
    3.1815   -0.7007    0.0000 C   0  0  0  0  0  0  0  0  0  0  0  0
    4.4124   -1.4013    0.0000 C   0  0  0  0  0  0  0  0  0  0  0  0
    3.6171   -1.4013    0.0000 C   0  0  0  0  0  0  0  0  0  0  0  0
    3.6171    0.0000    0.0000 C   0  0  0  0  0  0  0  0  0  0  0  0
    4.4124    0.0000    0.0000 C   0  0  0  0  0  0  0  0  0  0  0  0
    0.0000   -0.9090    0.0000 C   0  0  0  0  0  0  0  0  0  0  0  0
    0.7197   -1.3256    0.0000 C   0  0  0  0  0  0  0  0  0  0  0  0
  1  4  1  0  0  0  0
  2  5  1  0  0  0  0
  3 10  1  0  0  0  0
  4  6  2  0  0  0  0
  4  9  1  0  0  0  0
  5  7  2  0  0  0  0
  5  8  1  0  0  0  0
  6  7  1  0  0  0  0
  8  9  2  0  0  0  0
 10 11  1  0  0  0  0
M  END
> <PUBCHEM_COMPOUND_ID_TYPE>
0

> <PUBCHEM_TOTAL_CHARGE>
0

> <PUBCHEM_SUBSTANCE_ID>
310930444

> <PUBCHEM_SUBSTANCE_VERSION>
1

> <PUBCHEM_EXT_DATASOURCE_NAME>
4488

> <PUBCHEM_EXT_DATASOURCE_REGID>
SCHEMBL16107734

> <PUBCHEM_SUBSTANCE_COMMENT>
InChI=1S/C6H4Cl2.C2H6O/c7-5-1-2-6(8)4-3-5;1-2-3/h1-4H;3H,2H2,1H3
InChIKey=WNWNVFOHBOAPFU-UHFFFAOYSA-N

> <PUBCHEM_SUBSTANCE_SYNONYM>
SCHEMBL16107734

> <PUBCHEM_XREF_EXT_ID>
SCHEMBL16107734

> <PUBCHEM_EXT_DATASOURCE_URL>
https://www.surechembl.org/

> <PUBCHEM_EXT_SUBSTANCE_URL>
https://www.surechembl.org/chemical/SCHEMBL16107734

> <PUBCHEM_CID_ASSOCIATIONS>
117599575  1
702  2
4685  2

> <PUBCHEM_COORDINATE_TYPE>
1
3

$$$$
