310938313
  -OEChem-07211613022D

 10  8  0     0  0  0  0  0  0999 V2000
    0.7145   -0.8250    0.0000 O   0  0  0  0  0  0  0  0  0  0  0  0
    2.1435   -0.8250    0.0000 O   0  5  0  0  0  0  0  0  0  0  0  0
    1.4290    0.4125    0.0000 O   0  0  0  0  0  0  0  0  0  0  0  0
    0.7145   -2.4751    0.0000 N   0  3  0  0  0  0  0  0  0  0  0  0
    1.4290   -0.4125    0.0000 C   0  0  0  0  0  0  0  0  0  0  0  0
    0.0000   -0.4125    0.0000 C   0  0  0  0  0  0  0  0  0  0  0  0
   -0.7145   -0.8250    0.0000 C   0  0  0  0  0  0  0  0  0  0  0  0
    0.0000   -2.8876    0.0000 C   0  0  0  0  0  0  0  0  0  0  0  0
    1.4290   -2.8876    0.0000 C   0  0  0  0  0  0  0  0  0  0  0  0
    0.7145   -1.6500    0.0000 C   0  0  0  0  0  0  0  0  0  0  0  0
  1  5  1  0  0  0  0
  1  6  1  0  0  0  0
  2  5  1  0  0  0  0
  3  5  2  0  0  0  0
  4  8  1  0  0  0  0
  4  9  1  0  0  0  0
  4 10  1  0  0  0  0
  6  7  1  0  0  0  0
M  CHG  2   2  -1   4   1
M  END
> <PUBCHEM_COMPOUND_ID_TYPE>
0

> <PUBCHEM_TOTAL_CHARGE>
0

> <PUBCHEM_SUBSTANCE_ID>
310938313

> <PUBCHEM_SUBSTANCE_VERSION>
1

> <PUBCHEM_EXT_DATASOURCE_NAME>
4488

> <PUBCHEM_EXT_DATASOURCE_REGID>
SCHEMBL16116188

> <PUBCHEM_SUBSTANCE_COMMENT>
InChI=1S/C3H9N.C3H6O3/c1-4(2)3;1-2-6-3(4)5/h1-3H3;2H2,1H3,(H,4,5)
InChIKey=ZOOBNVHUDLWFCX-UHFFFAOYSA-N

> <PUBCHEM_SUBSTANCE_SYNONYM>
SCHEMBL16116188

> <PUBCHEM_XREF_EXT_ID>
SCHEMBL16116188

> <PUBCHEM_EXT_DATASOURCE_URL>
https://www.surechembl.org/

> <PUBCHEM_EXT_SUBSTANCE_URL>
https://www.surechembl.org/chemical/SCHEMBL16116188

> <PUBCHEM_CID_ASSOCIATIONS>
117605812  1
1146  2
105349  2

> <PUBCHEM_COORDINATE_TYPE>
1
3

$$$$
