310937279
  -OEChem-07211613022D

 25 24  0     0  0  0  0  0  0999 V2000
    8.5248   -2.1214    0.0000 S   0  0  0  0  0  0  0  0  0  0  0  0
    0.0000   -1.4928    0.0000 Na  0  3  0  0  0  0  0  0  0  0  0  0
    8.5248   -3.0249    0.0000 O   0  0  0  0  0  0  0  0  0  0  0  0
    8.5248   -1.2964    0.0000 O   0  0  0  0  0  0  0  0  0  0  0  0
    5.2642   -0.6679    0.0000 O   0  5  0  0  0  0  0  0  0  0  0  0
    6.4820    0.0000    0.0000 O   0  0  0  0  0  0  0  0  0  0  0  0
    6.0892   -0.7071    0.0000 N   0  3  0  0  0  0  0  0  0  0  0  0
    5.2249   -2.1214    0.0000 N   0  0  0  0  0  0  0  0  0  0  0  0
    9.3106   -2.1214    0.0000 N   0  0  0  0  0  0  0  0  0  0  0  0
    1.6107   -2.0821    0.0000 N   0  0  0  0  0  0  0  0  0  0  0  0
   11.3534   -1.4928    0.0000 N   0  3  0  0  0  0  0  0  0  0  0  0
   10.9605   -2.1999    0.0000 N   0  5  0  0  0  0  0  0  0  0  0  0
   11.7855   -0.7857    0.0000 N   0  5  0  0  0  0  0  0  0  0  0  0
    7.6999   -2.1214    0.0000 C   0  0  0  0  0  0  0  0  0  0  0  0
    6.4820   -1.4143    0.0000 C   0  0  0  0  0  0  0  0  0  0  0  0
    6.0499   -2.1214    0.0000 C   0  0  0  0  0  0  0  0  0  0  0  0
    7.2678   -1.4143    0.0000 C   0  0  0  0  0  0  0  0  0  0  0  0
    7.2678   -2.8285    0.0000 C   0  0  0  0  0  0  0  0  0  0  0  0
    6.4820   -2.8285    0.0000 C   0  0  0  0  0  0  0  0  0  0  0  0
    4.0071   -1.4143    0.0000 C   0  0  0  0  0  0  0  0  0  0  0  0
    4.8321   -1.4143    0.0000 C   0  0  0  0  0  0  0  0  0  0  0  0
    2.8678   -1.3750    0.0000 C   0  0  0  0  0  0  0  0  0  0  0  0
    3.4178   -1.9643    0.0000 C   0  0  0  0  0  0  0  0  0  0  0  0
    3.4178   -0.7857    0.0000 C   0  0  0  0  0  0  0  0  0  0  0  0
    2.0428   -1.3750    0.0000 C   0  0  0  0  0  0  0  0  0  0  0  0
  1  3  2  0  0  0  0
  1  4  2  0  0  0  0
  1  9  1  0  0  0  0
  1 14  1  0  0  0  0
  5  7  1  0  0  0  0
  6  7  2  0  0  0  0
  7 15  1  0  0  0  0
  8 16  1  0  0  0  0
  8 21  1  0  0  0  0
 10 25  3  0  0  0  0
 11 12  2  0  0  0  0
 11 13  2  0  0  0  0
 14 17  1  0  0  0  0
 14 18  2  0  0  0  0
 15 16  1  0  0  0  0
 15 17  2  0  0  0  0
 16 19  2  0  0  0  0
 18 19  1  0  0  0  0
 20 21  1  6  0  0  0
 20 23  1  0  0  0  0
 20 24  1  0  0  0  0
 22 23  1  0  0  0  0
 22 24  1  0  0  0  0
 22 25  1  1  0  0  0
M  CHG  6   2   1   5  -1   7   1  11   1  12  -1  13  -1
M  END
> <PUBCHEM_COMPOUND_ID_TYPE>
0

> <PUBCHEM_TOTAL_CHARGE>
0

> <PUBCHEM_SUBSTANCE_ID>
310937279

> <PUBCHEM_SUBSTANCE_VERSION>
1

> <PUBCHEM_EXT_DATASOURCE_NAME>
4488

> <PUBCHEM_EXT_DATASOURCE_REGID>
SCHEMBL16115023

> <PUBCHEM_SUBSTANCE_COMMENT>
InChI=1S/C12H14N4O4S.N3.Na/c13-6-8-3-9(4-8)7-15-11-2-1-10(21(14,19)20)5-12(11)16(17)18;1-3-2;/h1-2,5,8-9,15H,3-4,7H2,(H2,14,19,20);;/q;-1;+1/t8-,9-;;
InChIKey=MEVVPXOTGMVPKN-JZDLBZJVSA-N

> <PUBCHEM_SUBSTANCE_SYNONYM>
SCHEMBL16115023

> <PUBCHEM_XREF_EXT_ID>
SCHEMBL16115023

> <PUBCHEM_EXT_DATASOURCE_URL>
https://www.surechembl.org/

> <PUBCHEM_EXT_SUBSTANCE_URL>
https://www.surechembl.org/chemical/SCHEMBL16115023

> <PUBCHEM_CID_ASSOCIATIONS>
117605068  1
33558  2
5360545  2
90410368  2

> <PUBCHEM_COORDINATE_TYPE>
1
3

> <PUBCHEM_BONDANNOTATIONS>
20  21  6
22  25  5

$$$$
