310937774
  -OEChem-07211613022D

  9  8  0     0  0  0  0  0  0999 V2000
    0.0000    0.0000    0.0000 Br  0  0  0  0  0  0  0  0  0  0  0  0
    3.4325    1.3406    0.0000 O   0  0  0  0  0  0  0  0  0  0  0  0
    2.0036    0.5156    0.0000 O   0  0  0  0  0  0  0  0  0  0  0  0
    4.1470    0.1031    0.0000 N   0  0  0  0  0  0  0  0  0  0  0  0
    4.1470   -0.7219    0.0000 N   0  0  0  0  0  0  0  0  0  0  0  0
    3.4325   -1.1344    0.0000 N   0  0  0  0  0  0  0  0  0  0  0  0
    3.4325    0.5156    0.0000 C   0  0  0  0  0  0  0  0  0  0  0  0
    2.7180    0.1031    0.0000 C   0  0  0  0  0  0  0  0  0  0  0  0
    2.7180   -0.7219    0.0000 C   0  0  0  0  0  0  0  0  0  0  0  0
  2  7  2  0  0  0  0
  3  8  2  0  0  0  0
  4  5  2  0  0  0  0
  4  7  1  0  0  0  0
  5  6  1  0  0  0  0
  6  9  2  0  0  0  0
  7  8  1  0  0  0  0
  8  9  1  0  0  0  0
M  END
> <PUBCHEM_COMPOUND_ID_TYPE>
0

> <PUBCHEM_TOTAL_CHARGE>
0

> <PUBCHEM_SUBSTANCE_ID>
310937774

> <PUBCHEM_SUBSTANCE_VERSION>
1

> <PUBCHEM_EXT_DATASOURCE_NAME>
4488

> <PUBCHEM_EXT_DATASOURCE_REGID>
SCHEMBL16115585

> <PUBCHEM_SUBSTANCE_COMMENT>
InChI=1S/C3HN3O2.BrH/c7-2-1-4-6-5-3(2)8;/h1H;1H
InChIKey=ASLOCQZZAYPRLQ-UHFFFAOYSA-N

> <PUBCHEM_SUBSTANCE_SYNONYM>
SCHEMBL16115585

> <PUBCHEM_XREF_EXT_ID>
SCHEMBL16115585

> <PUBCHEM_EXT_DATASOURCE_URL>
https://www.surechembl.org/

> <PUBCHEM_EXT_SUBSTANCE_URL>
https://www.surechembl.org/chemical/SCHEMBL16115585

> <PUBCHEM_CID_ASSOCIATIONS>
117605430  1
260  2
66602574  2

> <PUBCHEM_COORDINATE_TYPE>
1
3

$$$$
