310931583
  -OEChem-07211613022D

 16 15  0     0  0  0  0  0  0999 V2000
    3.9084   -1.0875    0.0000 N   0  3  0  0  0  0  0  0  0  0  0  0
    0.2475    0.4287    0.0000 N   0  0  0  0  0  0  0  0  0  0  0  0
    1.0725   -1.0003    0.0000 N   0  0  0  0  0  0  0  0  0  0  0  0
   -1.4025    0.4287    0.0000 N   0  0  0  0  0  0  0  0  0  0  0  0
    3.9084    0.5625    0.0000 C   0  0  0  0  0  0  0  0  0  0  0  0
    3.1939   -0.6750    0.0000 C   0  0  0  0  0  0  0  0  0  0  0  0
    4.6229   -0.6750    0.0000 C   0  0  0  0  0  0  0  0  0  0  0  0
    3.1939    0.1500    0.0000 C   0  0  0  0  0  0  0  0  0  0  0  0
    4.6229    0.1500    0.0000 C   0  0  0  0  0  0  0  0  0  0  0  0
    3.9084    1.3875    0.0000 C   0  0  0  0  0  0  0  0  0  0  0  0
    3.9084   -1.9125    0.0000 C   0  0  0  0  0  0  0  0  0  0  0  0
    4.6229    1.8000    0.0000 C   0  0  0  0  0  0  0  0  0  0  0  0
    4.6229   -2.3250    0.0000 C   0  0  0  0  0  0  0  0  0  0  0  0
    4.6229    2.6250    0.0000 C   0  0  0  0  0  0  0  0  0  0  0  0
    0.6600   -0.2858    0.0000 C   0  0  0  0  0  0  0  0  0  0  0  0
   -0.5775    0.4287    0.0000 C   0  0  0  0  0  0  0  0  0  0  0  0
  1  6  2  0  0  0  0
  1  7  1  0  0  0  0
  1 11  1  0  0  0  0
  2 15  1  0  0  0  0
  2 16  1  0  0  0  0
  3 15  3  0  0  0  0
  4 16  3  0  0  0  0
  5  8  2  0  0  0  0
  5  9  1  0  0  0  0
  5 10  1  0  0  0  0
  6  8  1  0  0  0  0
  7  9  2  0  0  0  0
 10 12  1  0  0  0  0
 11 13  2  0  0  0  0
 12 14  2  0  0  0  0
M  CHG  1   1   1
M  END
> <PUBCHEM_COMPOUND_ID_TYPE>
0

> <PUBCHEM_TOTAL_CHARGE>
1

> <PUBCHEM_SUBSTANCE_ID>
310931583

> <PUBCHEM_SUBSTANCE_VERSION>
1

> <PUBCHEM_EXT_DATASOURCE_NAME>
4488

> <PUBCHEM_EXT_DATASOURCE_REGID>
SCHEMBL16108909

> <PUBCHEM_SUBSTANCE_COMMENT>
InChI=1S/C10H12N.C2HN3/c1-3-5-10-6-8-11(4-2)9-7-10;3-1-5-2-4/h3-4,6-9H,1-2,5H2;5H/q+1;
InChIKey=RDVITHOPFCVKPA-UHFFFAOYSA-N

> <PUBCHEM_SUBSTANCE_SYNONYM>
SCHEMBL16108909

> <PUBCHEM_XREF_EXT_ID>
SCHEMBL16108909

> <PUBCHEM_EXT_DATASOURCE_URL>
https://www.surechembl.org/

> <PUBCHEM_EXT_SUBSTANCE_URL>
https://www.surechembl.org/chemical/SCHEMBL16108909

> <PUBCHEM_CID_ASSOCIATIONS>
117600322  1
10443  2
70223843  2

> <PUBCHEM_COORDINATE_TYPE>
1
3

$$$$
