310937226
  -OEChem-07211613022D

 47 45  0     0  0  0  0  0  0999 V2000
   14.2897    0.4125    0.0000 O   0  0  0  0  0  0  0  0  0  0  0  0
   15.0042   -0.8250    0.0000 O   0  0  0  0  0  0  0  0  0  0  0  0
   14.2088   -1.6500    0.0000 O   0  0  0  0  0  0  0  0  0  0  0  0
   14.9233   -2.8876    0.0000 O   0  0  0  0  0  0  0  0  0  0  0  0
   14.2897   -0.4125    0.0000 C   0  0  0  0  0  0  0  0  0  0  0  0
   13.5753   -0.8250    0.0000 C   0  0  0  0  0  0  0  0  0  0  0  0
   12.8607   -0.4125    0.0000 C   0  0  0  0  0  0  0  0  0  0  0  0
   12.1463   -0.8250    0.0000 C   0  0  0  0  0  0  0  0  0  0  0  0
   11.4318   -0.4125    0.0000 C   0  0  0  0  0  0  0  0  0  0  0  0
   10.7173   -0.8250    0.0000 C   0  0  0  0  0  0  0  0  0  0  0  0
   10.0028   -0.4125    0.0000 C   0  0  0  0  0  0  0  0  0  0  0  0
    9.2883   -0.8250    0.0000 C   0  0  0  0  0  0  0  0  0  0  0  0
    8.5738   -0.4125    0.0000 C   0  0  0  0  0  0  0  0  0  0  0  0
   14.2088   -2.4751    0.0000 C   0  0  0  0  0  0  0  0  0  0  0  0
   13.4944   -2.8876    0.0000 C   0  0  0  0  0  0  0  0  0  0  0  0
   12.7798   -2.4751    0.0000 C   0  0  0  0  0  0  0  0  0  0  0  0
    7.8594   -0.8250    0.0000 C   0  0  0  0  0  0  0  0  0  0  0  0
   12.0654   -2.8876    0.0000 C   0  0  0  0  0  0  0  0  0  0  0  0
   11.3509   -2.4751    0.0000 C   0  0  0  0  0  0  0  0  0  0  0  0
   10.6364   -2.8876    0.0000 C   0  0  0  0  0  0  0  0  0  0  0  0
    7.1449   -0.4125    0.0000 C   0  0  0  0  0  0  0  0  0  0  0  0
    9.8114   -2.8876    0.0000 C   0  0  0  0  0  0  0  0  0  0  0  0
    9.0969   -2.4751    0.0000 C   0  0  0  0  0  0  0  0  0  0  0  0
    6.4304   -0.8250    0.0000 C   0  0  0  0  0  0  0  0  0  0  0  0
    8.3824   -2.8876    0.0000 C   0  0  0  0  0  0  0  0  0  0  0  0
    7.5574   -2.8876    0.0000 C   0  0  0  0  0  0  0  0  0  0  0  0
    5.7159   -0.4125    0.0000 C   0  0  0  0  0  0  0  0  0  0  0  0
    6.8429   -2.4751    0.0000 C   0  0  0  0  0  0  0  0  0  0  0  0
    6.1284   -2.8876    0.0000 C   0  0  0  0  0  0  0  0  0  0  0  0
    5.0014   -0.8250    0.0000 C   0  0  0  0  0  0  0  0  0  0  0  0
    5.3034   -2.8876    0.0000 C   0  0  0  0  0  0  0  0  0  0  0  0
    4.5889   -2.4751    0.0000 C   0  0  0  0  0  0  0  0  0  0  0  0
    4.2869   -0.4125    0.0000 C   0  0  0  0  0  0  0  0  0  0  0  0
    3.8744   -2.8876    0.0000 C   0  0  0  0  0  0  0  0  0  0  0  0
    3.5724   -0.8250    0.0000 C   0  0  0  0  0  0  0  0  0  0  0  0
    3.0494   -2.8876    0.0000 C   0  0  0  0  0  0  0  0  0  0  0  0
    2.8579   -0.4125    0.0000 C   0  0  0  0  0  0  0  0  0  0  0  0
    2.3349   -2.4751    0.0000 C   0  0  0  0  0  0  0  0  0  0  0  0
    2.1435   -0.8250    0.0000 C   0  0  0  0  0  0  0  0  0  0  0  0
    1.6204   -2.8876    0.0000 C   0  0  0  0  0  0  0  0  0  0  0  0
    1.4290   -0.4125    0.0000 C   0  0  0  0  0  0  0  0  0  0  0  0
    0.7954   -2.8876    0.0000 C   0  0  0  0  0  0  0  0  0  0  0  0
    0.7145   -0.8250    0.0000 C   0  0  0  0  0  0  0  0  0  0  0  0
    0.0809   -2.4751    0.0000 C   0  0  0  0  0  0  0  0  0  0  0  0
    0.0000   -0.4125    0.0000 C   0  0  0  0  0  0  0  0  0  0  0  0
   -0.6336   -2.8876    0.0000 C   0  0  0  0  0  0  0  0  0  0  0  0
   -0.7145   -0.8250    0.0000 C   0  0  0  0  0  0  0  0  0  0  0  0
  1  5  2  0  0  0  0
  2  5  1  0  0  0  0
  3 14  2  0  0  0  0
  4 14  1  0  0  0  0
  5  6  1  0  0  0  0
  6  7  2  3  0  0  0
  7  8  1  0  0  0  0
  8  9  2  3  0  0  0
  9 10  1  0  0  0  0
 10 11  2  3  0  0  0
 11 12  1  0  0  0  0
 12 13  2  3  0  0  0
 13 17  1  0  0  0  0
 14 15  1  0  0  0  0
 15 16  1  0  0  0  0
 16 18  1  0  0  0  0
 17 21  2  3  0  0  0
 18 19  1  0  0  0  0
 19 20  1  0  0  0  0
 20 22  2  0  0  0  0
 21 24  1  0  0  0  0
 22 23  1  0  0  0  0
 23 25  1  0  0  0  0
 24 27  1  0  0  0  0
 25 26  2  0  0  0  0
 26 28  1  0  0  0  0
 27 30  1  0  0  0  0
 28 29  1  0  0  0  0
 29 31  2  0  0  0  0
 30 33  1  0  0  0  0
 31 32  1  0  0  0  0
 32 34  1  0  0  0  0
 33 35  1  0  0  0  0
 34 36  2  0  0  0  0
 35 37  1  0  0  0  0
 36 38  1  0  0  0  0
 37 39  1  0  0  0  0
 38 40  1  0  0  0  0
 39 41  1  0  0  0  0
 40 42  2  0  0  0  0
 41 43  1  0  0  0  0
 42 44  1  0  0  0  0
 43 45  1  0  0  0  0
 44 46  1  0  0  0  0
 45 47  1  0  0  0  0
M  END
> <PUBCHEM_COMPOUND_ID_TYPE>
0

> <PUBCHEM_TOTAL_CHARGE>
0

> <PUBCHEM_SUBSTANCE_ID>
310937226

> <PUBCHEM_SUBSTANCE_VERSION>
1

> <PUBCHEM_EXT_DATASOURCE_NAME>
4488

> <PUBCHEM_EXT_DATASOURCE_REGID>
SCHEMBL16114962

> <PUBCHEM_SUBSTANCE_COMMENT>
InChI=1S/C22H34O2.C21H32O2/c1-2-3-4-5-6-7-8-9-10-11-12-13-14-15-16-17-18-19-20-21-22(23)24;1-2-3-4-5-6-7-8-9-10-11-12-13-14-15-16-17-18-19-20-21(22)23/h12-21H,2-11H2,1H3,(H,23,24);3-4,6-7,9-10,12-13,15-16H,2,5,8,11,14,17-20H2,1H3,(H,22,23)/b13-12+,15-14+,17-16+,19-18+,21-20+;4-3-,7-6-,10-9-,13-12-,16-15-
InChIKey=RVANHOGOLDWRGT-UUKMVLEISA-N

> <PUBCHEM_SUBSTANCE_SYNONYM>
SCHEMBL16114962

> <PUBCHEM_XREF_EXT_ID>
SCHEMBL16114962

> <PUBCHEM_EXT_DATASOURCE_URL>
https://www.surechembl.org/

> <PUBCHEM_EXT_SUBSTANCE_URL>
https://www.surechembl.org/chemical/SCHEMBL16114962

> <PUBCHEM_CID_ASSOCIATIONS>
117605031  1
3035421  2
11998573  2

> <PUBCHEM_COORDINATE_TYPE>
1
3

> <PUBCHEM_BONDANNOTATIONS>
10  11  1
12  13  1
17  21  1
6  7  1
8  9  1

$$$$
