310933965
  -OEChem-07211613022D

 41 45  0     1  0  0  0  0  0999 V2000
    2.8632   -2.0868    0.0000 O   0  0  0  0  0  0  0  0  0  0  0  0
   10.9677   -0.8250    0.0000 O   0  0  0  0  0  0  0  0  0  0  0  0
    2.8632   -4.5618    0.0000 O   0  0  0  0  0  0  0  0  0  0  0  0
    1.4559   -4.5618    0.0000 O   0  0  0  0  0  0  0  0  0  0  0  0
   10.9677   -3.3000    0.0000 O   0  0  0  0  0  0  0  0  0  0  0  0
    0.0000   -2.0868    0.0000 O   0  0  0  0  0  0  0  0  0  0  0  0
    6.4544   -0.8250    0.0000 O   0  0  0  0  0  0  0  0  0  0  0  0
    4.9985    0.0000    0.0000 O   0  0  0  0  0  0  0  0  0  0  0  0
    8.1044   -0.8250    0.0000 O   0  0  0  0  0  0  0  0  0  0  0  0
   14.5588   -3.7368    0.0000 O   0  0  0  0  0  0  0  0  0  0  0  0
    2.1353   -3.3000    0.0000 C   0  0  0  0  0  0  0  0  0  0  0  0
    2.1353   -2.4750    0.0000 C   0  0  0  0  0  0  0  0  0  0  0  0
    3.5912   -2.4750    0.0000 C   0  0  3  0  0  0  0  0  0  0  0  0
    2.8632   -3.7368    0.0000 C   0  0  0  0  0  0  0  0  0  0  0  0
    1.4559   -3.7368    0.0000 C   0  0  0  0  0  0  0  0  0  0  0  0
    4.2706   -2.0868    0.0000 C   0  0  0  0  0  0  0  0  0  0  0  0
    3.5912   -3.3000    0.0000 C   0  0  0  0  0  0  0  0  0  0  0  0
   10.2397   -2.0868    0.0000 C   0  0  0  0  0  0  0  0  0  0  0  0
   10.9677   -2.4750    0.0000 C   0  0  0  0  0  0  0  0  0  0  0  0
   11.6956   -2.0868    0.0000 C   0  0  0  0  0  0  0  0  0  0  0  0
    1.4559   -2.0868    0.0000 C   0  0  0  0  0  0  0  0  0  0  0  0
   10.2397   -1.2618    0.0000 C   0  0  0  0  0  0  0  0  0  0  0  0
    0.7280   -2.4750    0.0000 C   0  0  0  0  0  0  0  0  0  0  0  0
    0.7280   -3.3000    0.0000 C   0  0  0  0  0  0  0  0  0  0  0  0
   12.3750   -2.4750    0.0000 C   0  0  0  0  0  0  0  0  0  0  0  0
    4.2706   -1.2618    0.0000 C   0  0  0  0  0  0  0  0  0  0  0  0
   11.6956   -1.2618    0.0000 C   0  0  0  0  0  0  0  0  0  0  0  0
    4.9985   -2.4750    0.0000 C   0  0  0  0  0  0  0  0  0  0  0  0
    9.5118   -2.4750    0.0000 C   0  0  0  0  0  0  0  0  0  0  0  0
    4.9985   -0.8250    0.0000 C   0  0  0  0  0  0  0  0  0  0  0  0
    9.5118   -0.8250    0.0000 C   0  0  0  0  0  0  0  0  0  0  0  0
    5.7265   -1.2618    0.0000 C   0  0  0  0  0  0  0  0  0  0  0  0
    8.8323   -1.2618    0.0000 C   0  0  0  0  0  0  0  0  0  0  0  0
    5.7265   -2.0868    0.0000 C   0  0  0  0  0  0  0  0  0  0  0  0
    8.8323   -2.0868    0.0000 C   0  0  0  0  0  0  0  0  0  0  0  0
   13.1030   -2.0868    0.0000 C   0  0  0  0  0  0  0  0  0  0  0  0
   12.3750   -3.3000    0.0000 C   0  0  0  0  0  0  0  0  0  0  0  0
   13.8309   -2.4750    0.0000 C   0  0  0  0  0  0  0  0  0  0  0  0
   13.1030   -3.7368    0.0000 C   0  0  0  0  0  0  0  0  0  0  0  0
   13.8309   -3.3000    0.0000 C   0  0  0  0  0  0  0  0  0  0  0  0
    6.4544    0.0000    0.0000 C   0  0  0  0  0  0  0  0  0  0  0  0
  1 12  1  0  0  0  0
 13  1  1  6  0  0  0
  2 22  1  0  0  0  0
  2 27  1  0  0  0  0
  3 14  2  0  0  0  0
  4 15  1  0  0  0  0
  5 19  2  0  0  0  0
  6 23  1  0  0  0  0
  7 32  1  0  0  0  0
  7 41  1  0  0  0  0
  8 30  1  0  0  0  0
  9 33  1  0  0  0  0
 10 40  1  0  0  0  0
 11 12  2  0  0  0  0
 11 14  1  0  0  0  0
 11 15  1  0  0  0  0
 12 21  1  0  0  0  0
 13 16  1  0  0  0  0
 13 17  1  0  0  0  0
 14 17  1  0  0  0  0
 15 24  2  0  0  0  0
 16 26  2  0  0  0  0
 16 28  1  0  0  0  0
 18 19  1  0  0  0  0
 18 22  2  0  0  0  0
 18 29  1  0  0  0  0
 19 20  1  0  0  0  0
 20 25  1  0  0  0  0
 20 27  2  0  0  0  0
 21 23  2  0  0  0  0
 22 31  1  0  0  0  0
 23 24  1  0  0  0  0
 25 36  2  0  0  0  0
 25 37  1  0  0  0  0
 26 30  1  0  0  0  0
 28 34  2  0  0  0  0
 29 35  2  0  0  0  0
 30 32  2  0  0  0  0
 31 33  2  0  0  0  0
 32 34  1  0  0  0  0
 33 35  1  0  0  0  0
 36 38  1  0  0  0  0
 37 39  2  0  0  0  0
 38 40  2  0  0  0  0
 39 40  1  0  0  0  0
M  END
> <PUBCHEM_COMPOUND_ID_TYPE>
0

> <PUBCHEM_TOTAL_CHARGE>
0

> <PUBCHEM_SUBSTANCE_ID>
310933965

> <PUBCHEM_SUBSTANCE_VERSION>
1

> <PUBCHEM_EXT_DATASOURCE_NAME>
4488

> <PUBCHEM_EXT_DATASOURCE_REGID>
SCHEMBL16111405

> <PUBCHEM_SUBSTANCE_COMMENT>
InChI=1S/C16H14O6.C15H10O4/c1-21-13-3-2-8(4-10(13)18)14-7-12(20)16-11(19)5-9(17)6-15(16)22-14;16-10-3-1-9(2-4-10)13-8-19-14-7-11(17)5-6-12(14)15(13)18/h2-6,14,17-19H,7H2,1H3;1-8,16-17H/t14-;/m0./s1
InChIKey=UFUPQXRRVDBBAI-UQKRIMTDSA-N

> <PUBCHEM_SUBSTANCE_SYNONYM>
SCHEMBL16111405

> <PUBCHEM_XREF_EXT_ID>
SCHEMBL16111405

> <PUBCHEM_EXT_DATASOURCE_URL>
https://www.surechembl.org/

> <PUBCHEM_EXT_SUBSTANCE_URL>
https://www.surechembl.org/chemical/SCHEMBL16111405

> <PUBCHEM_CID_ASSOCIATIONS>
117602281  1
72281  2
5281708  2

> <PUBCHEM_COORDINATE_TYPE>
1
3

> <PUBCHEM_BONDANNOTATIONS>
13  1  6

$$$$
