310930130
  -OEChem-07211613022D

 34 36  0     0  0  0  0  0  0999 V2000
    0.8406    0.3882    0.0000 S   0  0  0  0  0  0  0  0  0  0  0  0
    6.5343    0.3882    0.0000 S   0  0  0  0  0  0  0  0  0  0  0  0
   -0.5884   -2.0868    0.0000 S   0  0  0  0  0  0  0  0  0  0  0  0
   -0.5884    2.8632    0.0000 S   0  0  0  0  0  0  0  0  0  0  0  0
    5.1054   -2.0868    0.0000 S   0  0  0  0  0  0  0  0  0  0  0  0
    5.1054    2.8632    0.0000 S   0  0  0  0  0  0  0  0  0  0  0  0
    0.8406   -2.9118    0.0000 S   0  0  0  0  0  0  0  0  0  0  0  0
   -2.0173    2.0382    0.0000 S   0  0  0  0  0  0  0  0  0  0  0  0
    6.5343   -2.9118    0.0000 S   0  0  0  0  0  0  0  0  0  0  0  0
    3.6765    2.0382    0.0000 S   0  0  0  0  0  0  0  0  0  0  0  0
    0.8406   -0.4368    0.0000 C   0  0  0  0  0  0  0  0  0  0  0  0
    0.1261    0.8007    0.0000 C   0  0  0  0  0  0  0  0  0  0  0  0
    6.5343   -0.4368    0.0000 C   0  0  0  0  0  0  0  0  0  0  0  0
    5.8199    0.8007    0.0000 C   0  0  0  0  0  0  0  0  0  0  0  0
    0.1261   -1.6743    0.0000 C   0  0  0  0  0  0  0  0  0  0  0  0
   -0.5884    2.0382    0.0000 C   0  0  0  0  0  0  0  0  0  0  0  0
    5.8199   -1.6743    0.0000 C   0  0  0  0  0  0  0  0  0  0  0  0
    5.1054    2.0382    0.0000 C   0  0  0  0  0  0  0  0  0  0  0  0
    0.1261   -0.8493    0.0000 C   0  0  0  0  0  0  0  0  0  0  0  0
    0.1261    1.6257    0.0000 C   0  0  0  0  0  0  0  0  0  0  0  0
    5.8199   -0.8493    0.0000 C   0  0  0  0  0  0  0  0  0  0  0  0
    5.8199    1.6257    0.0000 C   0  0  0  0  0  0  0  0  0  0  0  0
    0.8406   -2.0868    0.0000 C   0  0  0  0  0  0  0  0  0  0  0  0
   -1.3029    1.6257    0.0000 C   0  0  0  0  0  0  0  0  0  0  0  0
    6.5343   -2.0868    0.0000 C   0  0  0  0  0  0  0  0  0  0  0  0
    4.3909    1.6257    0.0000 C   0  0  0  0  0  0  0  0  0  0  0  0
    1.5550   -0.8493    0.0000 C   0  0  0  0  0  0  0  0  0  0  0  0
   -0.5884    0.3882    0.0000 C   0  0  0  0  0  0  0  0  0  0  0  0
    7.2488   -0.8493    0.0000 C   0  0  0  0  0  0  0  0  0  0  0  0
    5.1054    0.3882    0.0000 C   0  0  0  0  0  0  0  0  0  0  0  0
    1.5550   -1.6743    0.0000 C   0  0  0  0  0  0  0  0  0  0  0  0
   -1.3029    0.8007    0.0000 C   0  0  0  0  0  0  0  0  0  0  0  0
    7.2488   -1.6743    0.0000 C   0  0  0  0  0  0  0  0  0  0  0  0
    4.3909    0.8007    0.0000 C   0  0  0  0  0  0  0  0  0  0  0  0
  1 11  1  0  0  0  0
  1 12  1  0  0  0  0
  2 13  1  0  0  0  0
  2 14  1  0  0  0  0
  3 15  1  0  0  0  0
  4 16  1  0  0  0  0
  5 17  1  0  0  0  0
  6 18  1  0  0  0  0
  7 23  1  0  0  0  0
  8 24  1  0  0  0  0
  9 25  1  0  0  0  0
 10 26  1  0  0  0  0
 11 19  1  0  0  0  0
 11 27  2  0  0  0  0
 12 20  1  0  0  0  0
 12 28  2  0  0  0  0
 13 21  1  0  0  0  0
 13 29  2  0  0  0  0
 14 22  1  0  0  0  0
 14 30  2  0  0  0  0
 15 19  2  0  0  0  0
 15 23  1  0  0  0  0
 16 20  2  0  0  0  0
 16 24  1  0  0  0  0
 17 21  2  0  0  0  0
 17 25  1  0  0  0  0
 18 22  2  0  0  0  0
 18 26  1  0  0  0  0
 23 31  2  0  0  0  0
 24 32  2  0  0  0  0
 25 33  2  0  0  0  0
 26 34  2  0  0  0  0
 27 31  1  0  0  0  0
 28 32  1  0  0  0  0
 29 33  1  0  0  0  0
 30 34  1  0  0  0  0
M  END
> <PUBCHEM_COMPOUND_ID_TYPE>
0

> <PUBCHEM_TOTAL_CHARGE>
0

> <PUBCHEM_SUBSTANCE_ID>
310930130

> <PUBCHEM_SUBSTANCE_VERSION>
1

> <PUBCHEM_EXT_DATASOURCE_NAME>
4488

> <PUBCHEM_EXT_DATASOURCE_REGID>
SCHEMBL16107384

> <PUBCHEM_SUBSTANCE_COMMENT>
InChI=1S/2C12H10S5/c2*13-9-3-1-7(5-11(9)15)17-8-2-4-10(14)12(16)6-8/h2*1-6,13-16H
InChIKey=MUFMZXREEHPPBB-UHFFFAOYSA-N

> <PUBCHEM_SUBSTANCE_SYNONYM>
SCHEMBL16107384

> <PUBCHEM_XREF_EXT_ID>
SCHEMBL16107384

> <PUBCHEM_EXT_DATASOURCE_URL>
https://www.surechembl.org/

> <PUBCHEM_EXT_SUBSTANCE_URL>
https://www.surechembl.org/chemical/SCHEMBL16107384

> <PUBCHEM_CID_ASSOCIATIONS>
117599358  1
22461979  2

> <PUBCHEM_COORDINATE_TYPE>
1
3

$$$$
