310931020
  -OEChem-07211613022D

 21 19  0     0  0  0  0  0  0999 V2000
    7.5633   -0.2062    0.0000 O   0  0  0  0  0  0  0  0  0  0  0  0
    9.7067    0.2062    0.0000 O   0  0  0  0  0  0  0  0  0  0  0  0
    5.4198    0.2063    0.0000 O   0  0  0  0  0  0  0  0  0  0  0  0
   11.8501   -0.2063    0.0000 O   0  0  0  0  0  0  0  0  0  0  0  0
   13.9935    0.2062    0.0000 O   0  0  0  0  0  0  0  0  0  0  0  0
    3.2764   -0.2062    0.0000 O   0  0  0  0  0  0  0  0  0  0  0  0
   -0.0825   -0.1429    0.0000 O   0  0  0  0  0  0  0  0  0  0  0  0
    8.2777    0.2063    0.0000 C   0  0  0  0  0  0  0  0  0  0  0  0
    8.9922   -0.2062    0.0000 C   0  0  0  0  0  0  0  0  0  0  0  0
    6.8488    0.2063    0.0000 C   0  0  0  0  0  0  0  0  0  0  0  0
   10.4211   -0.2063    0.0000 C   0  0  0  0  0  0  0  0  0  0  0  0
    6.1343   -0.2062    0.0000 C   0  0  0  0  0  0  0  0  0  0  0  0
   11.1356    0.2062    0.0000 C   0  0  0  0  0  0  0  0  0  0  0  0
    4.7054   -0.2062    0.0000 C   0  0  0  0  0  0  0  0  0  0  0  0
   12.5646    0.2062    0.0000 C   0  0  0  0  0  0  0  0  0  0  0  0
    3.9909    0.2063    0.0000 C   0  0  0  0  0  0  0  0  0  0  0  0
   13.2790   -0.2063    0.0000 C   0  0  0  0  0  0  0  0  0  0  0  0
    0.7425   -0.1429    0.0000 C   0  0  0  0  0  0  0  0  0  0  0  0
   -0.4950    0.5716    0.0000 C   0  0  0  0  0  0  0  0  0  0  0  0
    1.1550   -0.8574    0.0000 C   0  0  0  0  0  0  0  0  0  0  0  0
   -1.3200    0.5716    0.0000 C   0  0  0  0  0  0  0  0  0  0  0  0
  1  8  1  0  0  0  0
  1 10  1  0  0  0  0
  2  9  1  0  0  0  0
  2 11  1  0  0  0  0
  3 12  1  0  0  0  0
  3 14  1  0  0  0  0
  4 13  1  0  0  0  0
  4 15  1  0  0  0  0
  5 17  1  0  0  0  0
  6 16  1  0  0  0  0
  7 18  1  0  0  0  0
  7 19  1  0  0  0  0
  8  9  1  0  0  0  0
 10 12  1  0  0  0  0
 11 13  1  0  0  0  0
 14 16  1  0  0  0  0
 15 17  1  0  0  0  0
 18 20  2  0  0  0  0
 19 21  1  0  0  0  0
M  END
> <PUBCHEM_COMPOUND_ID_TYPE>
0

> <PUBCHEM_TOTAL_CHARGE>
0

> <PUBCHEM_SUBSTANCE_ID>
310931020

> <PUBCHEM_SUBSTANCE_VERSION>
1

> <PUBCHEM_EXT_DATASOURCE_NAME>
4488

> <PUBCHEM_EXT_DATASOURCE_REGID>
SCHEMBL16108320

> <PUBCHEM_SUBSTANCE_COMMENT>
InChI=1S/C10H22O6.C4H8O/c11-1-3-13-5-7-15-9-10-16-8-6-14-4-2-12;1-3-5-4-2/h11-12H,1-10H2;3H,1,4H2,2H3
InChIKey=UYHFIIBVKDVSRF-UHFFFAOYSA-N

> <PUBCHEM_SUBSTANCE_SYNONYM>
SCHEMBL16108320

> <PUBCHEM_XREF_EXT_ID>
SCHEMBL16108320

> <PUBCHEM_EXT_DATASOURCE_URL>
https://www.surechembl.org/

> <PUBCHEM_EXT_SUBSTANCE_URL>
https://www.surechembl.org/chemical/SCHEMBL16108320

> <PUBCHEM_CID_ASSOCIATIONS>
117599943  1
8023  2
62551  2

> <PUBCHEM_COORDINATE_TYPE>
1
3

$$$$
