310929914
  -OEChem-07211613022D

  7  5  0     1  0  0  0  0  0999 V2000
    2.6518   -0.2858    0.0000 N   0  0  0  0  0  0  0  0  0  0  0  0
    3.4768   -0.2858    0.0000 C   0  0  3  0  0  0  0  0  0  0  0  0
    3.8893    0.4287    0.0000 C   0  0  0  0  0  0  0  0  0  0  0  0
    3.8893   -1.0003    0.0000 C   0  0  0  0  0  0  0  0  0  0  0  0
    3.4768    1.1432    0.0000 C   0  0  0  0  0  0  0  0  0  0  0  0
    0.4125    0.0000    0.0000 C   0  0  0  0  0  0  0  0  0  0  0  0
   -0.4125    0.0000    0.0000 C   0  0  0  0  0  0  0  0  0  0  0  0
  1  2  1  0  0  0  0
  2  3  1  0  0  0  0
  2  4  1  0  0  0  0
  3  5  1  0  0  0  0
  6  7  1  0  0  0  0
M  END
> <PUBCHEM_COMPOUND_ID_TYPE>
0

> <PUBCHEM_TOTAL_CHARGE>
0

> <PUBCHEM_SUBSTANCE_ID>
310929914

> <PUBCHEM_SUBSTANCE_VERSION>
1

> <PUBCHEM_EXT_DATASOURCE_NAME>
4488

> <PUBCHEM_EXT_DATASOURCE_REGID>
SCHEMBL16107131

> <PUBCHEM_SUBSTANCE_COMMENT>
InChI=1S/C4H11N.C2H6/c1-3-4(2)5;1-2/h4H,3,5H2,1-2H3;1-2H3
InChIKey=NGYKMEHRUJZUMM-UHFFFAOYSA-N

> <PUBCHEM_SUBSTANCE_SYNONYM>
SCHEMBL16107131

> <PUBCHEM_XREF_EXT_ID>
SCHEMBL16107131

> <PUBCHEM_EXT_DATASOURCE_URL>
https://www.surechembl.org/

> <PUBCHEM_EXT_SUBSTANCE_URL>
https://www.surechembl.org/chemical/SCHEMBL16107131

> <PUBCHEM_CID_ASSOCIATIONS>
117599176  1
6324  2
24874  2

> <PUBCHEM_COORDINATE_TYPE>
1
3

$$$$
