310933104
  -OEChem-07211613022D

 10  8  0     0  0  0  0  0  0999 V2000
    3.9364    0.0000    0.0000 P   0  0  0  0  0  0  0  0  0  0  0  0
    3.9364   -0.8250    0.0000 O   0  0  0  0  0  0  0  0  0  0  0  0
    3.9364    0.8250    0.0000 O   0  0  0  0  0  0  0  0  0  0  0  0
    4.7614   -0.0000    0.0000 O   0  0  0  0  0  0  0  0  0  0  0  0
    3.1114    0.0000    0.0000 O   0  0  0  0  0  0  0  0  0  0  0  0
    0.9900    1.1432    0.0000 N   0  0  0  0  0  0  0  0  0  0  0  0
    0.1650   -0.2858    0.0000 C   0  0  0  0  0  0  0  0  0  0  0  0
    0.5775    0.4287    0.0000 C   0  0  0  0  0  0  0  0  0  0  0  0
   -0.6600   -0.2858    0.0000 C   0  0  0  0  0  0  0  0  0  0  0  0
   -1.0725   -1.0003    0.0000 C   0  0  0  0  0  0  0  0  0  0  0  0
  1  2  2  0  0  0  0
  1  3  1  0  0  0  0
  1  4  1  0  0  0  0
  1  5  1  0  0  0  0
  6  8  3  0  0  0  0
  7  8  1  0  0  0  0
  7  9  2  0  0  0  0
  9 10  1  0  0  0  0
M  END
> <PUBCHEM_COMPOUND_ID_TYPE>
0

> <PUBCHEM_TOTAL_CHARGE>
0

> <PUBCHEM_SUBSTANCE_ID>
310933104

> <PUBCHEM_SUBSTANCE_VERSION>
1

> <PUBCHEM_EXT_DATASOURCE_NAME>
4488

> <PUBCHEM_EXT_DATASOURCE_REGID>
SCHEMBL16110506

> <PUBCHEM_SUBSTANCE_COMMENT>
InChI=1S/C4H5N.H3O4P/c1-2-3-4-5;1-5(2,3)4/h2-3H,1H3;(H3,1,2,3,4)
InChIKey=LAQNRJXCZMSUSK-UHFFFAOYSA-N

> <PUBCHEM_SUBSTANCE_SYNONYM>
SCHEMBL16110506

> <PUBCHEM_XREF_EXT_ID>
SCHEMBL16110506

> <PUBCHEM_EXT_DATASOURCE_URL>
https://www.surechembl.org/

> <PUBCHEM_EXT_SUBSTANCE_URL>
https://www.surechembl.org/chemical/SCHEMBL16110506

> <PUBCHEM_CID_ASSOCIATIONS>
117601561  1
1004  2
637921  2

> <PUBCHEM_COORDINATE_TYPE>
1
3

> <PUBCHEM_BONDANNOTATIONS>
9  10  3

$$$$
