310930335
  -OEChem-07211613022D

 25 25  0     1  0  0  0  0  0999 V2000
    2.8286    3.9394    0.0000 S   0  0  0  0  0  0  0  0  0  0  0  0
    2.8286    3.1144    0.0000 O   0  0  0  0  0  0  0  0  0  0  0  0
    2.8286    4.7644    0.0000 O   0  5  0  0  0  0  0  0  0  0  0  0
    2.0036    3.9394    0.0000 O   0  0  0  0  0  0  0  0  0  0  0  0
    3.6536    3.9394    0.0000 O   0  0  0  0  0  0  0  0  0  0  0  0
    4.2575    1.4644    0.0000 N   0  0  3  0  0  0  0  0  0  0  0  0
    4.2575   -1.8356    0.0000 N   0  0  0  0  0  0  0  0  0  0  0  0
    5.3845   -4.3426    0.0000 N   0  0  0  0  0  0  0  0  0  0  0  0
    5.6394   -3.5580    0.0000 N   0  0  0  0  0  0  0  0  0  0  0  0
    4.9720   -2.2481    0.0000 N   0  0  0  0  0  0  0  0  0  0  0  0
    4.3045   -3.5580    0.0000 N   0  0  0  0  0  0  0  0  0  0  0  0
    4.2575    0.6394    0.0000 C   0  0  0  0  0  0  0  0  0  0  0  0
    4.2575   -1.0106    0.0000 C   0  0  0  0  0  0  0  0  0  0  0  0
    4.9720   -3.0731    0.0000 C   0  0  0  0  0  0  0  0  0  0  0  0
    4.9720    0.2269    0.0000 C   0  0  0  0  0  0  0  0  0  0  0  0
    3.5430    0.2269    0.0000 C   0  0  0  0  0  0  0  0  0  0  0  0
    4.9720   -0.5981    0.0000 C   0  0  0  0  0  0  0  0  0  0  0  0
    3.5430   -0.5981    0.0000 C   0  0  0  0  0  0  0  0  0  0  0  0
    3.5430    1.8769    0.0000 C   0  0  0  0  0  0  0  0  0  0  0  0
    4.5595   -4.3426    0.0000 C   0  0  0  0  0  0  0  0  0  0  0  0
    4.9720    1.8769    0.0000 C   0  0  0  0  0  0  0  0  0  0  0  0
    3.5430    2.7019    0.0000 C   0  0  0  0  0  0  0  0  0  0  0  0
    5.8694   -5.0101    0.0000 C   0  0  0  0  0  0  0  0  0  0  0  0
    5.6865    1.4644    0.0000 C   0  0  0  0  0  0  0  0  0  0  0  0
    0.0000    0.0000    0.0000 H   0  3  0  0  0  0  0  0  0  0  0  0
  1  2  1  0  0  0  0
  1  3  1  0  0  0  0
  1  4  2  0  0  0  0
  1  5  2  0  0  0  0
  2 22  1  0  0  0  0
  6 12  1  0  0  0  0
  6 19  1  0  0  0  0
  6 21  1  0  0  0  0
  7 10  2  0  0  0  0
  7 13  1  0  0  0  0
  8  9  1  0  0  0  0
  8 20  1  0  0  0  0
  8 23  1  0  0  0  0
  9 14  2  0  0  0  0
 10 14  1  0  0  0  0
 11 14  1  0  0  0  0
 11 20  2  0  0  0  0
 12 15  2  0  0  0  0
 12 16  1  0  0  0  0
 13 17  2  0  0  0  0
 13 18  1  0  0  0  0
 15 17  1  0  0  0  0
 16 18  2  0  0  0  0
 19 22  1  0  0  0  0
 21 24  1  0  0  0  0
M  CHG  2   3  -1  25   1
M  END
> <PUBCHEM_COMPOUND_ID_TYPE>
0

> <PUBCHEM_TOTAL_CHARGE>
0

> <PUBCHEM_SUBSTANCE_ID>
310930335

> <PUBCHEM_SUBSTANCE_VERSION>
1

> <PUBCHEM_EXT_DATASOURCE_NAME>
4488

> <PUBCHEM_EXT_DATASOURCE_REGID>
SCHEMBL16107619

> <PUBCHEM_SUBSTANCE_COMMENT>
InChI=1S/C13H18N6O4S/c1-3-19(8-9-23-24(20,21)22)12-6-4-11(5-7-12)15-16-13-14-10-18(2)17-13/h4-7,10H,3,8-9H2,1-2H3,(H,20,21,22)/b16-15+
InChIKey=MDUMQFMANPQDOE-FOCLMDBBSA-N

> <PUBCHEM_SUBSTANCE_SYNONYM>
SCHEMBL16107619

> <PUBCHEM_XREF_EXT_ID>
SCHEMBL16107619

> <PUBCHEM_EXT_DATASOURCE_URL>
https://www.surechembl.org/

> <PUBCHEM_EXT_SUBSTANCE_URL>
https://www.surechembl.org/chemical/SCHEMBL16107619

> <PUBCHEM_CID_ASSOCIATIONS>
117599505  1
783  2
89561230  2

> <PUBCHEM_COORDINATE_TYPE>
1
3

> <PUBCHEM_BONDANNOTATIONS>
7  13  3

$$$$
