310930002
  -OEChem-07211613022D

 26 26  0     1  0  0  0  0  0999 V2000
    2.8286    3.9354    0.0000 S   0  0  0  0  0  0  0  0  0  0  0  0
    4.3045   -3.5621    0.0000 S   0  0  0  0  0  0  0  0  0  0  0  0
    2.8286    3.1104    0.0000 O   0  0  0  0  0  0  0  0  0  0  0  0
    5.6865   -1.8396    0.0000 O   0  5  0  0  0  0  0  0  0  0  0  0
    6.4009   -0.6021    0.0000 O   0  0  0  0  0  0  0  0  0  0  0  0
    2.8286    4.7604    0.0000 O   0  5  0  0  0  0  0  0  0  0  0  0
    2.0036    3.9354    0.0000 O   0  0  0  0  0  0  0  0  0  0  0  0
    3.6536    3.9354    0.0000 O   0  0  0  0  0  0  0  0  0  0  0  0
    4.2575    1.4604    0.0000 N   0  0  3  0  0  0  0  0  0  0  0  0
    5.6865   -1.0146    0.0000 N   0  3  0  0  0  0  0  0  0  0  0  0
    4.2575   -1.8396    0.0000 N   0  0  0  0  0  0  0  0  0  0  0  0
    4.9720   -2.2521    0.0000 N   0  0  0  0  0  0  0  0  0  0  0  0
    5.6394   -3.5621    0.0000 N   0  0  0  0  0  0  0  0  0  0  0  0
    5.3845   -4.3467    0.0000 N   0  0  0  0  0  0  0  0  0  0  0  0
    4.9720   -0.6021    0.0000 C   0  0  0  0  0  0  0  0  0  0  0  0
    4.2575   -1.0146    0.0000 C   0  0  0  0  0  0  0  0  0  0  0  0
    4.2575    0.6354    0.0000 C   0  0  0  0  0  0  0  0  0  0  0  0
    4.9720    0.2229    0.0000 C   0  0  0  0  0  0  0  0  0  0  0  0
    3.5430   -0.6021    0.0000 C   0  0  0  0  0  0  0  0  0  0  0  0
    3.5430    0.2229    0.0000 C   0  0  0  0  0  0  0  0  0  0  0  0
    4.9720   -3.0771    0.0000 C   0  0  0  0  0  0  0  0  0  0  0  0
    3.5430    1.8729    0.0000 C   0  0  0  0  0  0  0  0  0  0  0  0
    3.5430    2.6979    0.0000 C   0  0  0  0  0  0  0  0  0  0  0  0
    4.9720    1.8729    0.0000 C   0  0  0  0  0  0  0  0  0  0  0  0
    4.5595   -4.3467    0.0000 C   0  0  0  0  0  0  0  0  0  0  0  0
    0.0000    0.0000    0.0000 H   0  3  0  0  0  0  0  0  0  0  0  0
  1  3  1  0  0  0  0
  1  6  1  0  0  0  0
  1  7  2  0  0  0  0
  1  8  2  0  0  0  0
  2 21  1  0  0  0  0
  2 25  1  0  0  0  0
  3 23  1  0  0  0  0
  4 10  1  0  0  0  0
  5 10  2  0  0  0  0
  9 17  1  0  0  0  0
  9 22  1  0  0  0  0
  9 24  1  0  0  0  0
 10 15  1  0  0  0  0
 11 12  2  0  0  0  0
 11 16  1  0  0  0  0
 12 21  1  0  0  0  0
 13 14  1  0  0  0  0
 13 21  2  0  0  0  0
 14 25  2  0  0  0  0
 15 16  2  0  0  0  0
 15 18  1  0  0  0  0
 16 19  1  0  0  0  0
 17 18  2  0  0  0  0
 17 20  1  0  0  0  0
 19 20  2  0  0  0  0
 22 23  1  0  0  0  0
M  CHG  4   4  -1   6  -1  10   1  26   1
M  END
> <PUBCHEM_COMPOUND_ID_TYPE>
0

> <PUBCHEM_TOTAL_CHARGE>
0

> <PUBCHEM_SUBSTANCE_ID>
310930002

> <PUBCHEM_SUBSTANCE_VERSION>
1

> <PUBCHEM_EXT_DATASOURCE_NAME>
4488

> <PUBCHEM_EXT_DATASOURCE_REGID>
SCHEMBL16107241

> <PUBCHEM_SUBSTANCE_COMMENT>
InChI=1S/C11H12N6O6S2/c1-16(4-5-23-25(20,21)22)8-2-3-9(10(6-8)17(18)19)13-15-11-14-12-7-24-11/h2-3,6-7H,4-5H2,1H3,(H,20,21,22)/b15-13+
InChIKey=PVYNFBNPCOZWOB-FYWRMAATSA-N

> <PUBCHEM_SUBSTANCE_SYNONYM>
SCHEMBL16107241

> <PUBCHEM_XREF_EXT_ID>
SCHEMBL16107241

> <PUBCHEM_EXT_DATASOURCE_URL>
https://www.surechembl.org/

> <PUBCHEM_EXT_SUBSTANCE_URL>
https://www.surechembl.org/chemical/SCHEMBL16107241

> <PUBCHEM_CID_ASSOCIATIONS>
117599254  1
783  2
89570183  2

> <PUBCHEM_COORDINATE_TYPE>
1
3

> <PUBCHEM_BONDANNOTATIONS>
11  16  3

$$$$
