310928690
  -OEChem-07211613022D

 14 13  0     0  0  0  0  0  0999 V2000
    2.9684    0.0000    0.0000 Cl  0  0  0  0  0  0  0  0  0  0  0  0
   -0.1105   -0.8250    0.0000 O   0  0  0  0  0  0  0  0  0  0  0  0
   -2.9684    0.8250    0.0000 N   0  0  0  0  0  0  0  0  0  0  0  0
   -0.8250   -0.4125    0.0000 C   0  0  0  0  0  0  0  0  0  0  0  0
    0.6039   -0.4125    0.0000 C   0  0  0  0  0  0  0  0  0  0  0  0
   -0.8250    0.4125    0.0000 C   0  0  0  0  0  0  0  0  0  0  0  0
   -1.5395   -0.8250    0.0000 C   0  0  0  0  0  0  0  0  0  0  0  0
   -2.2539    0.4125    0.0000 C   0  0  0  0  0  0  0  0  0  0  0  0
   -1.5395    0.8250    0.0000 C   0  0  0  0  0  0  0  0  0  0  0  0
   -2.2539   -0.4125    0.0000 C   0  0  0  0  0  0  0  0  0  0  0  0
    0.6039    0.4125    0.0000 C   0  0  0  0  0  0  0  0  0  0  0  0
    1.3184    0.0000    0.0000 C   0  0  0  0  0  0  0  0  0  0  0  0
    1.3184   -0.8250    0.0000 C   0  0  0  0  0  0  0  0  0  0  0  0
    2.1434    0.0000    0.0000 H   0  0  0  0  0  0  0  0  0  0  0  0
  1 14  1  0  0  0  0
  2  4  1  0  0  0  0
  2  5  1  0  0  0  0
  3  8  1  0  0  0  0
  4  6  1  0  0  0  0
  4  7  1  0  0  0  0
  5 11  1  0  0  0  0
  5 12  1  0  0  0  0
  5 13  1  0  0  0  0
  6  9  1  0  0  0  0
  7 10  1  0  0  0  0
  8  9  1  0  0  0  0
  8 10  1  0  0  0  0
M  END
> <PUBCHEM_COMPOUND_ID_TYPE>
0

> <PUBCHEM_TOTAL_CHARGE>
0

> <PUBCHEM_SUBSTANCE_ID>
310928690

> <PUBCHEM_SUBSTANCE_VERSION>
2

> <PUBCHEM_EXT_DATASOURCE_NAME>
11752

> <PUBCHEM_EXT_DATASOURCE_REGID>
BD318143

> <PUBCHEM_SUBSTANCE_SYNONYM>
1174044-78-0
4-(tert-Butoxy)cyclohexanamine hydrochloride

> <PUBCHEM_GENERIC_REGISTRY_NAME>
1174044-78-0

> <PUBCHEM_XREF_EXT_ID>
BD318143

> <PUBCHEM_EXT_DATASOURCE_URL>
http://www.bidepharmatech.com/en/index.html

> <PUBCHEM_EXT_SUBSTANCE_URL>
http://www.bidepharmatech.com/en/goodsview_goodscode_BD318143.html

> <PUBCHEM_CID_ASSOCIATIONS>
102594236  1
313  2
46840059  2

> <PUBCHEM_COORDINATE_TYPE>
1
3

$$$$
