310933688
  -OEChem-07211613022D

 36 33  0     0  0  0  0  0  0999 V2000
   10.8751   -2.1001    0.0000 O   0  0  0  0  0  0  0  0  0  0  0  0
    9.4501   -1.2750    0.0000 O   0  0  0  0  0  0  0  0  0  0  0  0
   10.2001    0.0000    0.0000 O   0  0  0  0  0  0  0  0  0  0  0  0
   13.0501    0.0000    0.0000 O   0  0  0  0  0  0  0  0  0  0  0  0
   13.7252   -1.2750    0.0000 O   0  0  0  0  0  0  0  0  0  0  0  0
    0.6750   -2.1001    0.0000 O   0  0  0  0  0  0  0  0  0  0  0  0
    7.1251    0.0000    0.0000 O   0  0  0  0  0  0  0  0  0  0  0  0
    0.0000   -0.8250    0.0000 O   0  0  0  0  0  0  0  0  0  0  0  0
    7.8001   -1.2750    0.0000 O   0  0  0  0  0  0  0  0  0  0  0  0
   21.7502   -0.4500    0.0000 O   0  0  0  0  0  0  0  0  0  0  0  0
   22.5002   -1.6500    0.0000 O   0  0  0  0  0  0  0  0  0  0  0  0
   10.8751   -1.2750    0.0000 C   0  0  0  0  0  0  0  0  0  0  0  0
   10.2001   -0.8250    0.0000 C   0  0  0  0  0  0  0  0  0  0  0  0
   11.6251   -0.8250    0.0000 C   0  0  0  0  0  0  0  0  0  0  0  0
   12.3001   -1.2750    0.0000 C   0  0  0  0  0  0  0  0  0  0  0  0
   13.0501   -0.8250    0.0000 C   0  0  0  0  0  0  0  0  0  0  0  0
    0.6750   -1.2750    0.0000 C   0  0  0  0  0  0  0  0  0  0  0  0
    7.1251   -0.8250    0.0000 C   0  0  0  0  0  0  0  0  0  0  0  0
    6.3751   -1.2750    0.0000 C   0  0  0  0  0  0  0  0  0  0  0  0
    1.4250   -0.8250    0.0000 C   0  0  0  0  0  0  0  0  0  0  0  0
    2.1001   -1.2750    0.0000 C   0  0  0  0  0  0  0  0  0  0  0  0
    5.7001   -0.8250    0.0000 C   0  0  0  0  0  0  0  0  0  0  0  0
    4.9501   -1.2750    0.0000 C   0  0  0  0  0  0  0  0  0  0  0  0
    2.8500   -0.8250    0.0000 C   0  0  0  0  0  0  0  0  0  0  0  0
    3.5251   -1.2750    0.0000 C   0  0  0  0  0  0  0  0  0  0  0  0
    4.2750   -0.8250    0.0000 C   0  0  0  0  0  0  0  0  0  0  0  0
   21.7502   -1.2750    0.0000 C   0  0  0  0  0  0  0  0  0  0  0  0
   21.0752   -1.6500    0.0000 C   0  0  0  0  0  0  0  0  0  0  0  0
   20.4002   -1.2750    0.0000 C   0  0  0  0  0  0  0  0  0  0  0  0
   19.6502   -1.6500    0.0000 C   0  0  0  0  0  0  0  0  0  0  0  0
   18.9002   -1.2750    0.0000 C   0  0  0  0  0  0  0  0  0  0  0  0
   18.2252   -1.6500    0.0000 C   0  0  0  0  0  0  0  0  0  0  0  0
   17.4751   -1.2750    0.0000 C   0  0  0  0  0  0  0  0  0  0  0  0
   16.8002   -1.6500    0.0000 C   0  0  0  0  0  0  0  0  0  0  0  0
   16.0501   -1.2000    0.0000 C   0  0  0  0  0  0  0  0  0  0  0  0
   15.3752   -1.6500    0.0000 C   0  0  0  0  0  0  0  0  0  0  0  0
  1 12  2  0  0  0  0
  2 13  2  0  0  0  0
  3 13  1  0  0  0  0
  4 16  2  0  0  0  0
  5 16  1  0  0  0  0
  6 17  2  0  0  0  0
  7 18  2  0  0  0  0
  8 17  1  0  0  0  0
  9 18  1  0  0  0  0
 10 27  2  0  0  0  0
 11 27  1  0  0  0  0
 12 13  1  0  0  0  0
 12 14  1  0  0  0  0
 14 15  1  0  0  0  0
 15 16  1  0  0  0  0
 17 20  1  0  0  0  0
 18 19  1  0  0  0  0
 19 22  1  0  0  0  0
 20 21  1  0  0  0  0
 21 24  1  0  0  0  0
 22 23  1  0  0  0  0
 23 26  1  0  0  0  0
 24 25  1  0  0  0  0
 25 26  1  0  0  0  0
 27 28  1  0  0  0  0
 28 29  1  0  0  0  0
 29 30  1  0  0  0  0
 30 31  1  0  0  0  0
 31 32  1  0  0  0  0
 32 33  1  0  0  0  0
 33 34  1  0  0  0  0
 34 35  1  0  0  0  0
 35 36  1  0  0  0  0
M  END
> <PUBCHEM_COMPOUND_ID_TYPE>
0

> <PUBCHEM_TOTAL_CHARGE>
0

> <PUBCHEM_SUBSTANCE_ID>
310933688

> <PUBCHEM_SUBSTANCE_VERSION>
1

> <PUBCHEM_EXT_DATASOURCE_NAME>
4488

> <PUBCHEM_EXT_DATASOURCE_REGID>
SCHEMBL16111123

> <PUBCHEM_SUBSTANCE_COMMENT>
InChI=1S/C10H18O4.C10H20O2.C5H6O5/c11-9(12)7-5-3-1-2-4-6-8-10(13)14;1-2-3-4-5-6-7-8-9-10(11)12;6-3(5(9)10)1-2-4(7)8/h1-8H2,(H,11,12)(H,13,14);2-9H2,1H3,(H,11,12);1-2H2,(H,7,8)(H,9,10)
InChIKey=NEAQOMMPWPCYJG-UHFFFAOYSA-N

> <PUBCHEM_SUBSTANCE_SYNONYM>
SCHEMBL16111123

> <PUBCHEM_XREF_EXT_ID>
SCHEMBL16111123

> <PUBCHEM_EXT_DATASOURCE_URL>
https://www.surechembl.org/

> <PUBCHEM_EXT_SUBSTANCE_URL>
https://www.surechembl.org/chemical/SCHEMBL16111123

> <PUBCHEM_CID_ASSOCIATIONS>
117602055  1
51  2
2969  2
5192  2

> <PUBCHEM_COORDINATE_TYPE>
1
3

$$$$
