310930198
  -OEChem-07211613022D

 41 43  0     1  0  0  0  0  0999 V2000
    0.0000    0.0000    0.0000 Cl  0  0  0  0  0  0  0  0  0  0  0  0
   10.8129   -0.2539    0.0000 S   0  0  0  0  0  0  0  0  0  0  0  0
   12.2419    1.3961    0.0000 F   0  0  0  0  0  0  0  0  0  0  0  0
   13.0669    0.5711    0.0000 F   0  0  0  0  0  0  0  0  0  0  0  0
   11.4573    0.8261    0.0000 F   0  0  0  0  0  0  0  0  0  0  0  0
   10.4004   -0.9683    0.0000 O   0  0  0  0  0  0  0  0  0  0  0  0
   11.2254    0.4606    0.0000 O   0  0  0  0  0  0  0  0  0  0  0  0
    5.8116    0.1586    0.0000 O   0  0  0  0  0  0  0  0  0  0  0  0
   10.0985    0.1586    0.0000 N   0  0  0  0  0  0  0  0  0  0  0  0
    7.9551   -0.2539    0.0000 N   0  0  0  0  0  0  0  0  0  0  0  0
   11.5274   -0.6664    0.0000 C   0  0  0  0  0  0  0  0  0  0  0  0
   12.2419   -0.2539    0.0000 C   0  0  0  0  0  0  0  0  0  0  0  0
    9.3840   -0.2539    0.0000 C   0  0  3  0  0  0  0  0  0  0  0  0
   12.2419    0.5711    0.0000 C   0  0  0  0  0  0  0  0  0  0  0  0
    8.6695    0.1586    0.0000 C   0  0  3  0  0  0  0  0  0  0  0  0
    9.3840   -1.0789    0.0000 C   0  0  0  0  0  0  0  0  0  0  0  0
   11.5274   -1.4914    0.0000 C   0  0  0  0  0  0  0  0  0  0  0  0
   12.9564   -0.6664    0.0000 C   0  0  0  0  0  0  0  0  0  0  0  0
    8.6695    0.9836    0.0000 C   0  0  0  0  0  0  0  0  0  0  0  0
   12.2419   -1.9039    0.0000 C   0  0  0  0  0  0  0  0  0  0  0  0
   12.9564   -1.4914    0.0000 C   0  0  0  0  0  0  0  0  0  0  0  0
   10.0985   -1.4914    0.0000 C   0  0  0  0  0  0  0  0  0  0  0  0
    8.6695   -1.4914    0.0000 C   0  0  0  0  0  0  0  0  0  0  0  0
    7.9551    1.3961    0.0000 C   0  0  0  0  0  0  0  0  0  0  0  0
    9.3840    1.3961    0.0000 C   0  0  0  0  0  0  0  0  0  0  0  0
   10.0985   -2.3164    0.0000 C   0  0  0  0  0  0  0  0  0  0  0  0
    8.6695   -2.3164    0.0000 C   0  0  0  0  0  0  0  0  0  0  0  0
    7.2406    0.1586    0.0000 C   0  0  0  0  0  0  0  0  0  0  0  0
    7.9551    2.2211    0.0000 C   0  0  0  0  0  0  0  0  0  0  0  0
    9.3840    2.2211    0.0000 C   0  0  0  0  0  0  0  0  0  0  0  0
    9.3840   -2.7289    0.0000 C   0  0  0  0  0  0  0  0  0  0  0  0
    8.6695    2.6336    0.0000 C   0  0  0  0  0  0  0  0  0  0  0  0
    6.5261   -0.2539    0.0000 C   0  0  0  0  0  0  0  0  0  0  0  0
    4.3827    0.1586    0.0000 C   0  0  0  0  0  0  0  0  0  0  0  0
    5.0972   -0.2539    0.0000 C   0  0  0  0  0  0  0  0  0  0  0  0
    3.6682   -0.2539    0.0000 C   0  0  0  0  0  0  0  0  0  0  0  0
    4.3827    0.9836    0.0000 C   0  0  0  0  0  0  0  0  0  0  0  0
    2.9538    0.9836    0.0000 C   0  0  0  0  0  0  0  0  0  0  0  0
    2.9538    0.1586    0.0000 C   0  0  0  0  0  0  0  0  0  0  0  0
    3.6682    1.3961    0.0000 C   0  0  0  0  0  0  0  0  0  0  0  0
    2.2393    1.3961    0.0000 C   0  0  0  0  0  0  0  0  0  0  0  0
  2  6  2  0  0  0  0
  2  7  2  0  0  0  0
  2  9  1  0  0  0  0
  2 11  1  0  0  0  0
  3 14  1  0  0  0  0
  4 14  1  0  0  0  0
  5 14  1  0  0  0  0
  8 33  1  0  0  0  0
  8 35  1  0  0  0  0
 13  9  1  6  0  0  0
 15 10  1  1  0  0  0
 10 28  1  0  0  0  0
 11 12  2  0  0  0  0
 11 17  1  0  0  0  0
 12 14  1  0  0  0  0
 12 18  1  0  0  0  0
 13 15  1  0  0  0  0
 13 16  1  0  0  0  0
 15 19  1  0  0  0  0
 16 22  2  0  0  0  0
 16 23  1  0  0  0  0
 17 20  2  0  0  0  0
 18 21  2  0  0  0  0
 19 24  2  0  0  0  0
 19 25  1  0  0  0  0
 20 21  1  0  0  0  0
 22 26  1  0  0  0  0
 23 27  2  0  0  0  0
 24 29  1  0  0  0  0
 25 30  2  0  0  0  0
 26 31  2  0  0  0  0
 27 31  1  0  0  0  0
 28 33  1  0  0  0  0
 29 32  2  0  0  0  0
 30 32  1  0  0  0  0
 34 35  1  0  0  0  0
 34 36  2  0  0  0  0
 34 37  1  0  0  0  0
 36 39  1  0  0  0  0
 37 40  1  0  0  0  0
 38 39  1  0  0  0  0
 38 40  2  0  0  0  0
 38 41  1  0  0  0  0
M  END
> <PUBCHEM_COMPOUND_ID_TYPE>
0

> <PUBCHEM_TOTAL_CHARGE>
0

> <PUBCHEM_SUBSTANCE_ID>
310930198

> <PUBCHEM_SUBSTANCE_VERSION>
1

> <PUBCHEM_EXT_DATASOURCE_NAME>
4488

> <PUBCHEM_EXT_DATASOURCE_REGID>
SCHEMBL16107463

> <PUBCHEM_SUBSTANCE_COMMENT>
InChI=1S/C31H33F3N2O3S.ClH/c1-23-16-18-24(19-17-23)22-39-21-20-35-29(25-10-4-2-5-11-25)30(26-12-6-3-7-13-26)36-40(37,38)28-15-9-8-14-27(28)31(32,33)34;/h2-16,19,29-30,35-36H,17-18,20-22H2,1H3;1H/t29-,30+;/m0./s1
InChIKey=BHXCGKJRALVKNJ-XCCPJCIBSA-N

> <PUBCHEM_SUBSTANCE_SYNONYM>
SCHEMBL16107463

> <PUBCHEM_XREF_EXT_ID>
SCHEMBL16107463

> <PUBCHEM_EXT_DATASOURCE_URL>
https://www.surechembl.org/

> <PUBCHEM_EXT_SUBSTANCE_URL>
https://www.surechembl.org/chemical/SCHEMBL16107463

> <PUBCHEM_CID_ASSOCIATIONS>
117599406  1
313  2
117599407  2

> <PUBCHEM_COORDINATE_TYPE>
1
3

> <PUBCHEM_BONDANNOTATIONS>
15  10  5
13  9  6

$$$$
