310937943
  -OEChem-07211613022D

 16 14  0     0  0  0  0  0  0999 V2000
    4.3680    0.2382    0.0000 S   0  0  0  0  0  0  0  0  0  0  0  0
   -0.0000    0.0000    0.0000 S   0  0  0  0  0  0  0  0  0  0  0  0
    3.5430   -1.1908    0.0000 F   0  0  0  0  0  0  0  0  0  0  0  0
    3.2411   -0.0638    0.0000 F   0  0  0  0  0  0  0  0  0  0  0  0
    4.6700   -0.8888    0.0000 F   0  0  0  0  0  0  0  0  0  0  0  0
    4.7805    0.9526    0.0000 O   0  0  0  0  0  0  0  0  0  0  0  0
    3.6536    0.6507    0.0000 O   0  0  0  0  0  0  0  0  0  0  0  0
    5.0825   -0.1743    0.0000 O   0  0  0  0  0  0  0  0  0  0  0  0
   -0.4125    0.7145    0.0000 O   0  0  0  0  0  0  0  0  0  0  0  0
    0.4125   -0.7145    0.0000 O   0  0  0  0  0  0  0  0  0  0  0  0
    0.7145    0.4125    0.0000 O   0  0  0  0  0  0  0  0  0  0  0  0
   -0.7145   -0.4125    0.0000 O   0  0  0  0  0  0  0  0  0  0  0  0
    3.9555   -0.4763    0.0000 C   0  0  0  0  0  0  0  0  0  0  0  0
    5.6055    0.9526    0.0000 C   0  0  0  0  0  0  0  0  0  0  0  0
    1.2375   -0.7145    0.0000 C   0  0  0  0  0  0  0  0  0  0  0  0
   -1.2375    0.7145    0.0000 C   0  0  0  0  0  0  0  0  0  0  0  0
  1  6  1  0  0  0  0
  1  7  2  0  0  0  0
  1  8  2  0  0  0  0
  1 13  1  0  0  0  0
  2  9  1  0  0  0  0
  2 10  1  0  0  0  0
  2 11  2  0  0  0  0
  2 12  2  0  0  0  0
  3 13  1  0  0  0  0
  4 13  1  0  0  0  0
  5 13  1  0  0  0  0
  6 14  1  0  0  0  0
  9 16  1  0  0  0  0
 10 15  1  0  0  0  0
M  END
> <PUBCHEM_COMPOUND_ID_TYPE>
0

> <PUBCHEM_TOTAL_CHARGE>
0

> <PUBCHEM_SUBSTANCE_ID>
310937943

> <PUBCHEM_SUBSTANCE_VERSION>
1

> <PUBCHEM_EXT_DATASOURCE_NAME>
4488

> <PUBCHEM_EXT_DATASOURCE_REGID>
SCHEMBL16115774

> <PUBCHEM_SUBSTANCE_COMMENT>
InChI=1S/C2H3F3O3S.C2H6O4S/c1-8-9(6,7)2(3,4)5;1-5-7(3,4)6-2/h1H3;1-2H3
InChIKey=YHGJIKBFIHAQGK-UHFFFAOYSA-N

> <PUBCHEM_SUBSTANCE_SYNONYM>
SCHEMBL16115774

> <PUBCHEM_XREF_EXT_ID>
SCHEMBL16115774

> <PUBCHEM_EXT_DATASOURCE_URL>
https://www.surechembl.org/

> <PUBCHEM_EXT_SUBSTANCE_URL>
https://www.surechembl.org/chemical/SCHEMBL16115774

> <PUBCHEM_CID_ASSOCIATIONS>
117605548  1
6497  2
9526  2

> <PUBCHEM_COORDINATE_TYPE>
1
3

$$$$
