310931244
  -OEChem-07211613022D

 25 24  0     0  0  0  0  0  0999 V2000
    0.0000   -0.4125    0.0000 S   0  0  0  0  0  0  0  0  0  0  0  0
    0.0000    1.2375    0.0000 F   0  0  0  0  0  0  0  0  0  0  0  0
    0.8250    0.4125    0.0000 F   0  0  0  0  0  0  0  0  0  0  0  0
   -0.8250    0.4125    0.0000 F   0  0  0  0  0  0  0  0  0  0  0  0
    0.8250   -0.4125    0.0000 O   0  0  0  0  0  0  0  0  0  0  0  0
   -0.8250   -0.4125    0.0000 O   0  0  0  0  0  0  0  0  0  0  0  0
    0.0000   -1.2375    0.0000 O   0  0  0  0  0  0  0  0  0  0  0  0
    3.7788    1.5044    0.0000 O   0  0  0  0  0  0  0  0  0  0  0  0
    4.4932    2.7419    0.0000 O   0  0  0  0  0  0  0  0  0  0  0  0
    5.2077   -0.1456    0.0000 N   0  3  0  0  0  0  0  0  0  0  0  0
    0.0000    0.4125    0.0000 C   0  0  0  0  0  0  0  0  0  0  0  0
    5.9222   -0.5581    0.0000 C   0  0  0  0  0  0  0  0  0  0  0  0
    5.9222   -1.3831    0.0000 C   0  0  0  0  0  0  0  0  0  0  0  0
    4.4932    0.2669    0.0000 C   0  0  0  0  0  0  0  0  0  0  0  0
    6.6366   -1.7956    0.0000 C   0  0  0  0  0  0  0  0  0  0  0  0
    5.2077   -1.7956    0.0000 C   0  0  0  0  0  0  0  0  0  0  0  0
    4.7952   -0.8601    0.0000 C   0  0  0  0  0  0  0  0  0  0  0  0
    5.6202    0.5689    0.0000 C   0  0  0  0  0  0  0  0  0  0  0  0
    4.4932    1.0919    0.0000 C   0  0  0  0  0  0  0  0  0  0  0  0
    6.6366   -2.6206    0.0000 C   0  0  0  0  0  0  0  0  0  0  0  0
    5.2077   -2.6206    0.0000 C   0  0  0  0  0  0  0  0  0  0  0  0
    5.9222   -3.0331    0.0000 C   0  0  0  0  0  0  0  0  0  0  0  0
    3.7788    2.3294    0.0000 C   0  0  0  0  0  0  0  0  0  0  0  0
    3.0643    2.7419    0.0000 C   0  0  0  0  0  0  0  0  0  0  0  0
    3.0643    3.5669    0.0000 C   0  0  0  0  0  0  0  0  0  0  0  0
  1  5  2  0  0  0  0
  1  6  2  0  0  0  0
  1  7  1  0  0  0  0
  1 11  1  0  0  0  0
  2 11  1  0  0  0  0
  3 11  1  0  0  0  0
  4 11  1  0  0  0  0
  8 19  1  0  0  0  0
  8 23  1  0  0  0  0
  9 23  2  0  0  0  0
 10 12  1  0  0  0  0
 10 14  1  0  0  0  0
 10 17  1  0  0  0  0
 10 18  1  0  0  0  0
 12 13  1  0  0  0  0
 13 15  2  0  0  0  0
 13 16  1  0  0  0  0
 14 19  1  0  0  0  0
 15 20  1  0  0  0  0
 16 21  2  0  0  0  0
 20 22  2  0  0  0  0
 21 22  1  0  0  0  0
 23 24  1  0  0  0  0
 24 25  2  0  0  0  0
M  CHG  1  10   1
M  END
> <PUBCHEM_COMPOUND_ID_TYPE>
0

> <PUBCHEM_TOTAL_CHARGE>
1

> <PUBCHEM_SUBSTANCE_ID>
310931244

> <PUBCHEM_SUBSTANCE_VERSION>
1

> <PUBCHEM_EXT_DATASOURCE_NAME>
4488

> <PUBCHEM_EXT_DATASOURCE_REGID>
SCHEMBL16108555

> <PUBCHEM_SUBSTANCE_COMMENT>
InChI=1S/C14H20NO2.CHF3O3S/c1-4-14(16)17-11-10-15(2,3)12-13-8-6-5-7-9-13;2-1(3,4)8(5,6)7/h4-9H,1,10-12H2,2-3H3;(H,5,6,7)/q+1;
InChIKey=RBBDEMIQFBVHSQ-UHFFFAOYSA-N

> <PUBCHEM_SUBSTANCE_SYNONYM>
SCHEMBL16108555

> <PUBCHEM_XREF_EXT_ID>
SCHEMBL16108555

> <PUBCHEM_EXT_DATASOURCE_URL>
https://www.surechembl.org/

> <PUBCHEM_EXT_SUBSTANCE_URL>
https://www.surechembl.org/chemical/SCHEMBL16108555

> <PUBCHEM_CID_ASSOCIATIONS>
117600081  1
62406  2
162074  2

> <PUBCHEM_COORDINATE_TYPE>
1
3

$$$$
