310929635
  -OEChem-07211613022D

 25 26  0     1  0  0  0  0  0999 V2000
    0.0000   -2.5920    0.0000 Cl  0  0  0  0  0  0  0  0  0  0  0  0
    5.2099   -3.6288    0.0000 S   0  0  0  0  0  0  0  0  0  0  0  0
    4.4583   -4.0435    0.0000 O   0  0  0  0  0  0  0  0  0  0  0  0
    5.9357   -3.2400    0.0000 O   0  0  0  0  0  0  0  0  0  0  0  0
    3.5511   -3.6288    0.0000 O   0  0  0  0  0  0  0  0  0  0  0  0
    5.9875   -2.9808    0.0000 O   0  0  0  0  0  0  0  0  0  0  0  0
    4.7952   -2.9290    0.0000 N   0  0  0  0  0  0  0  0  0  0  0  0
    2.9808   -2.7734    0.0000 N   0  0  0  0  0  0  0  0  0  0  0  0
    5.5987   -4.3545    0.0000 C   0  0  0  0  0  0  0  0  0  0  0  0
    3.5770   -2.2032    0.0000 C   0  0  3  0  0  0  0  0  0  0  0  0
    2.8771   -1.7885    0.0000 C   0  0  3  0  0  0  0  0  0  0  0  0
    3.9657   -2.9030    0.0000 C   0  0  0  0  0  0  0  0  0  0  0  0
    6.2986   -4.7952    0.0000 C   0  0  0  0  0  0  0  0  0  0  0  0
    5.5728   -5.1840    0.0000 C   0  0  0  0  0  0  0  0  0  0  0  0
    3.5770   -1.3479    0.0000 C   0  0  0  0  0  0  0  0  0  0  0  0
    6.1948   -3.7843    0.0000 C   0  0  0  0  0  0  0  0  0  0  0  0
    2.0477   -1.7885    0.0000 C   0  0  0  0  0  0  0  0  0  0  0  0
    6.6096   -2.4106    0.0000 C   0  0  0  0  0  0  0  0  0  0  0  0
    1.6329   -2.4883    0.0000 C   0  0  0  0  0  0  0  0  0  0  0  0
    6.4022   -1.6070    0.0000 C   0  0  0  0  0  0  0  0  0  0  0  0
    6.9984   -1.0368    0.0000 C   0  0  0  0  0  0  0  0  0  0  0  0
    5.5987   -1.3738    0.0000 C   0  0  0  0  0  0  0  0  0  0  0  0
    6.8170   -0.2333    0.0000 C   0  0  0  0  0  0  0  0  0  0  0  0
    5.4173   -0.5703    0.0000 C   0  0  0  0  0  0  0  0  0  0  0  0
    6.0134    0.0000    0.0000 C   0  0  0  0  0  0  0  0  0  0  0  0
  2  3  2  0  0  0  0
  2  4  2  0  0  0  0
  2  7  1  0  0  0  0
  2  9  1  0  0  0  0
  5 12  2  0  0  0  0
  6 16  1  0  0  0  0
  6 18  1  0  0  0  0
  7 12  1  0  0  0  0
 10  8  1  1  0  0  0
  9 13  1  0  0  0  0
  9 14  1  0  0  0  0
  9 16  1  0  0  0  0
 10 11  1  0  0  0  0
 10 12  1  6  0  0  0
 10 15  1  0  0  0  0
 11 15  1  0  0  0  0
 11 17  1  6  0  0  0
 13 14  1  0  0  0  0
 17 19  2  0  0  0  0
 18 20  1  0  0  0  0
 20 21  2  0  0  0  0
 20 22  1  0  0  0  0
 21 23  1  0  0  0  0
 22 24  2  0  0  0  0
 23 25  2  0  0  0  0
 24 25  1  0  0  0  0
M  END
> <PUBCHEM_COMPOUND_ID_TYPE>
0

> <PUBCHEM_TOTAL_CHARGE>
0

> <PUBCHEM_SUBSTANCE_ID>
310929635

> <PUBCHEM_SUBSTANCE_VERSION>
1

> <PUBCHEM_EXT_DATASOURCE_NAME>
4488

> <PUBCHEM_EXT_DATASOURCE_REGID>
SCHEMBL16106823

> <PUBCHEM_SUBSTANCE_COMMENT>
InChI=1S/C17H22N2O4S.ClH/c1-2-14-10-17(14,18)15(20)19-24(21,22)16(8-9-16)12-23-11-13-6-4-3-5-7-13;/h2-7,14H,1,8-12,18H2,(H,19,20);1H/t14-,17-;/m1./s1
InChIKey=FXXZUIYCMGBRSQ-SATBOSKTSA-N

> <PUBCHEM_SUBSTANCE_SYNONYM>
SCHEMBL16106823

> <PUBCHEM_XREF_EXT_ID>
SCHEMBL16106823

> <PUBCHEM_EXT_DATASOURCE_URL>
https://www.surechembl.org/

> <PUBCHEM_EXT_SUBSTANCE_URL>
https://www.surechembl.org/chemical/SCHEMBL16106823

> <PUBCHEM_CID_ASSOCIATIONS>
117598938  1
313  2
117598939  2

> <PUBCHEM_COORDINATE_TYPE>
1
3

> <PUBCHEM_BONDANNOTATIONS>
10  12  6
11  17  6
10  8  5

$$$$
