310930325
  -OEChem-07211613022D

 26 26  0     1  0  0  0  0  0999 V2000
    2.8286    3.7044    0.0000 S   0  0  0  0  0  0  0  0  0  0  0  0
    2.8286    2.8794    0.0000 O   0  0  0  0  0  0  0  0  0  0  0  0
    6.4009   -0.0081    0.0000 O   0  5  0  0  0  0  0  0  0  0  0  0
    5.6865    1.2294    0.0000 O   0  0  0  0  0  0  0  0  0  0  0  0
    4.3045   -3.7931    0.0000 O   0  0  0  0  0  0  0  0  0  0  0  0
    2.8286    4.5294    0.0000 O   0  5  0  0  0  0  0  0  0  0  0  0
    2.0036    3.7044    0.0000 O   0  0  0  0  0  0  0  0  0  0  0  0
    3.6536    3.7044    0.0000 O   0  0  0  0  0  0  0  0  0  0  0  0
    4.2575    1.2294    0.0000 N   0  0  3  0  0  0  0  0  0  0  0  0
    5.6865    0.4044    0.0000 N   0  3  0  0  0  0  0  0  0  0  0  0
    4.2575   -2.0706    0.0000 N   0  0  0  0  0  0  0  0  0  0  0  0
    4.9720   -2.4831    0.0000 N   0  0  0  0  0  0  0  0  0  0  0  0
    4.5595   -4.5777    0.0000 N   0  0  0  0  0  0  0  0  0  0  0  0
    4.2575    0.4044    0.0000 C   0  0  0  0  0  0  0  0  0  0  0  0
    4.9720   -0.0081    0.0000 C   0  0  0  0  0  0  0  0  0  0  0  0
    4.2575   -1.2456    0.0000 C   0  0  0  0  0  0  0  0  0  0  0  0
    4.9720   -0.8331    0.0000 C   0  0  0  0  0  0  0  0  0  0  0  0
    3.5430   -0.0081    0.0000 C   0  0  0  0  0  0  0  0  0  0  0  0
    3.5430   -0.8331    0.0000 C   0  0  0  0  0  0  0  0  0  0  0  0
    3.5430    1.6419    0.0000 C   0  0  0  0  0  0  0  0  0  0  0  0
    4.9720   -3.3081    0.0000 C   0  0  0  0  0  0  0  0  0  0  0  0
    3.5430    2.4669    0.0000 C   0  0  0  0  0  0  0  0  0  0  0  0
    4.9720    1.6419    0.0000 C   0  0  0  0  0  0  0  0  0  0  0  0
    5.6394   -3.7931    0.0000 C   0  0  0  0  0  0  0  0  0  0  0  0
    5.3845   -4.5777    0.0000 C   0  0  0  0  0  0  0  0  0  0  0  0
    0.0000    0.0000    0.0000 H   0  3  0  0  0  0  0  0  0  0  0  0
  1  2  1  0  0  0  0
  1  6  1  0  0  0  0
  1  7  2  0  0  0  0
  1  8  2  0  0  0  0
  2 22  1  0  0  0  0
  3 10  1  0  0  0  0
  4 10  2  0  0  0  0
  5 13  1  0  0  0  0
  5 21  1  0  0  0  0
  9 14  1  0  0  0  0
  9 20  1  0  0  0  0
  9 23  1  0  0  0  0
 10 15  1  0  0  0  0
 11 12  2  0  0  0  0
 11 16  1  0  0  0  0
 12 21  1  0  0  0  0
 13 25  2  0  0  0  0
 14 15  2  0  0  0  0
 14 18  1  0  0  0  0
 15 17  1  0  0  0  0
 16 17  2  0  0  0  0
 16 19  1  0  0  0  0
 18 19  2  0  0  0  0
 20 22  1  0  0  0  0
 21 24  2  0  0  0  0
 24 25  1  0  0  0  0
M  CHG  4   3  -1   6  -1  10   1  26   1
M  END
> <PUBCHEM_COMPOUND_ID_TYPE>
0

> <PUBCHEM_TOTAL_CHARGE>
0

> <PUBCHEM_SUBSTANCE_ID>
310930325

> <PUBCHEM_SUBSTANCE_VERSION>
1

> <PUBCHEM_EXT_DATASOURCE_NAME>
4488

> <PUBCHEM_EXT_DATASOURCE_REGID>
SCHEMBL16107608

> <PUBCHEM_SUBSTANCE_COMMENT>
InChI=1S/C12H13N5O7S/c1-16(6-7-23-25(20,21)22)10-3-2-9(8-11(10)17(18)19)14-15-12-4-5-13-24-12/h2-5,8H,6-7H2,1H3,(H,20,21,22)/b15-14+
InChIKey=NYAPXNZTIPVLBI-CCEZHUSRSA-N

> <PUBCHEM_SUBSTANCE_SYNONYM>
SCHEMBL16107608

> <PUBCHEM_XREF_EXT_ID>
SCHEMBL16107608

> <PUBCHEM_EXT_DATASOURCE_URL>
https://www.surechembl.org/

> <PUBCHEM_EXT_SUBSTANCE_URL>
https://www.surechembl.org/chemical/SCHEMBL16107608

> <PUBCHEM_CID_ASSOCIATIONS>
117599497  1
783  2
89559009  2

> <PUBCHEM_COORDINATE_TYPE>
1
3

> <PUBCHEM_BONDANNOTATIONS>
11  16  3

$$$$
