310928938
  -OEChem-07211613022D

 19 19  0     0  0  0  0  0  0999 V2000
    3.3256   -0.0000    0.0000 Cl  0  0  0  0  0  0  0  0  0  0  0  0
    0.9612   -1.0313    0.0000 F   0  0  0  0  0  0  0  0  0  0  0  0
    1.6756   -0.6188    0.0000 F   0  0  0  0  0  0  0  0  0  0  0  0
    1.6756    0.2062    0.0000 F   0  0  0  0  0  0  0  0  0  0  0  0
   -1.8967    0.6187    0.0000 O   0  0  0  0  0  0  0  0  0  0  0  0
   -3.3256   -1.0313    0.0000 N   0  0  0  0  0  0  0  0  0  0  0  0
   -1.8967   -0.2063    0.0000 C   0  0  0  0  0  0  0  0  0  0  0  0
   -1.1822    0.2062    0.0000 C   0  0  0  0  0  0  0  0  0  0  0  0
    0.2467    0.2062    0.0000 C   0  0  0  0  0  0  0  0  0  0  0  0
   -0.4678   -0.2063    0.0000 C   0  0  0  0  0  0  0  0  0  0  0  0
    0.9612   -0.2063    0.0000 C   0  0  0  0  0  0  0  0  0  0  0  0
   -1.1822    1.0312    0.0000 C   0  0  0  0  0  0  0  0  0  0  0  0
   -1.8967   -1.0313    0.0000 C   0  0  0  0  0  0  0  0  0  0  0  0
   -2.6112    0.2062    0.0000 C   0  0  0  0  0  0  0  0  0  0  0  0
    0.2467    1.0312    0.0000 C   0  0  0  0  0  0  0  0  0  0  0  0
   -0.4678    1.4437    0.0000 C   0  0  0  0  0  0  0  0  0  0  0  0
   -2.6112   -1.4437    0.0000 C   0  0  0  0  0  0  0  0  0  0  0  0
   -3.3256   -0.2063    0.0000 C   0  0  0  0  0  0  0  0  0  0  0  0
    2.5006   -0.0000    0.0000 H   0  0  0  0  0  0  0  0  0  0  0  0
  1 19  1  0  0  0  0
  2 11  1  0  0  0  0
  3 11  1  0  0  0  0
  4 11  1  0  0  0  0
  5  7  1  0  0  0  0
  6 17  1  0  0  0  0
  6 18  1  0  0  0  0
  7  8  1  0  0  0  0
  7 13  1  0  0  0  0
  7 14  1  0  0  0  0
  8 10  1  0  0  0  0
  8 12  2  0  0  0  0
  9 10  2  0  0  0  0
  9 11  1  0  0  0  0
  9 15  1  0  0  0  0
 12 16  1  0  0  0  0
 13 17  1  0  0  0  0
 14 18  1  0  0  0  0
 15 16  2  0  0  0  0
M  END
> <PUBCHEM_COMPOUND_ID_TYPE>
0

> <PUBCHEM_TOTAL_CHARGE>
0

> <PUBCHEM_SUBSTANCE_ID>
310928938

> <PUBCHEM_SUBSTANCE_VERSION>
2

> <PUBCHEM_EXT_DATASOURCE_NAME>
11752

> <PUBCHEM_EXT_DATASOURCE_REGID>
BD93228

> <PUBCHEM_SUBSTANCE_SYNONYM>
1683-49-4
4-(3-(Trifluoromethyl)phenyl)piperidin-4-ol hydrochloride

> <PUBCHEM_GENERIC_REGISTRY_NAME>
1683-49-4

> <PUBCHEM_XREF_EXT_ID>
BD93228

> <PUBCHEM_EXT_DATASOURCE_URL>
http://www.bidepharmatech.com/en/index.html

> <PUBCHEM_EXT_SUBSTANCE_URL>
http://www.bidepharmatech.com/en/goodsview_goodscode_BD93228.html

> <PUBCHEM_CID_ASSOCIATIONS>
197746  1
313  2
75255  2

> <PUBCHEM_COORDINATE_TYPE>
1
3

$$$$
