310937534
  -OEChem-07211613022D

 23 22  0     0  0  0  0  0  0999 V2000
    0.0000    0.0000    0.0000 S   0  0  0  0  0  0  0  0  0  0  0  0
   -1.0165   -0.7145    0.0000 F   0  0  0  0  0  0  0  0  0  0  0  0
   -1.8415   -0.7145    0.0000 F   0  0  0  0  0  0  0  0  0  0  0  0
   -1.1270    1.1270    0.0000 F   0  0  0  0  0  0  0  0  0  0  0  0
   -0.3020    1.1270    0.0000 F   0  0  0  0  0  0  0  0  0  0  0  0
   -2.5560    1.1270    0.0000 F   0  0  0  0  0  0  0  0  0  0  0  0
   -1.7309    1.1270    0.0000 F   0  0  0  0  0  0  0  0  0  0  0  0
   -2.8579   -0.8250    0.0000 F   0  0  0  0  0  0  0  0  0  0  0  0
   -3.5724   -0.4125    0.0000 F   0  0  0  0  0  0  0  0  0  0  0  0
   -3.5724    0.4125    0.0000 F   0  0  0  0  0  0  0  0  0  0  0  0
    0.7145   -0.4125    0.0000 O   0  5  0  0  0  0  0  0  0  0  0  0
    0.4125    0.7145    0.0000 O   0  0  0  0  0  0  0  0  0  0  0  0
   -0.4125   -0.7145    0.0000 O   0  0  0  0  0  0  0  0  0  0  0  0
    1.5395    0.5635    0.0000 O   0  0  0  0  0  0  0  0  0  0  0  0
    2.9685   -0.2615    0.0000 N   0  3  0  0  0  0  0  0  0  0  0  0
   -1.4290    0.0000    0.0000 C   0  0  0  0  0  0  0  0  0  0  0  0
   -0.7145    0.4125    0.0000 C   0  0  0  0  0  0  0  0  0  0  0  0
   -2.1435    0.4125    0.0000 C   0  0  0  0  0  0  0  0  0  0  0  0
   -2.8579    0.0000    0.0000 C   0  0  0  0  0  0  0  0  0  0  0  0
    1.5395   -0.2615    0.0000 C   0  0  0  0  0  0  0  0  0  0  0  0
    2.2540    0.9760    0.0000 C   0  0  0  0  0  0  0  0  0  0  0  0
    2.2540   -0.6740    0.0000 C   0  0  0  0  0  0  0  0  0  0  0  0
    2.9685    0.5635    0.0000 C   0  0  0  0  0  0  0  0  0  0  0  0
  1 11  1  0  0  0  0
  1 12  2  0  0  0  0
  1 13  2  0  0  0  0
  1 17  1  0  0  0  0
  2 16  1  0  0  0  0
  3 16  1  0  0  0  0
  4 17  1  0  0  0  0
  5 17  1  0  0  0  0
  6 18  1  0  0  0  0
  7 18  1  0  0  0  0
  8 19  1  0  0  0  0
  9 19  1  0  0  0  0
 10 19  1  0  0  0  0
 14 20  1  0  0  0  0
 14 21  1  0  0  0  0
 15 22  1  0  0  0  0
 15 23  1  0  0  0  0
 16 17  1  0  0  0  0
 16 18  1  0  0  0  0
 18 19  1  0  0  0  0
 20 22  1  0  0  0  0
 21 23  1  0  0  0  0
M  CHG  2  11  -1  15   1
M  END
> <PUBCHEM_COMPOUND_ID_TYPE>
0

> <PUBCHEM_TOTAL_CHARGE>
0

> <PUBCHEM_SUBSTANCE_ID>
310937534

> <PUBCHEM_SUBSTANCE_VERSION>
1

> <PUBCHEM_EXT_DATASOURCE_NAME>
4488

> <PUBCHEM_EXT_DATASOURCE_REGID>
SCHEMBL16115311

> <PUBCHEM_SUBSTANCE_COMMENT>
InChI=1S/C4HF9O3S.C4H9NO/c5-1(6,3(9,10)11)2(7,8)4(12,13)17(14,15)16;1-3-6-4-2-5-1/h(H,14,15,16);5H,1-4H2
InChIKey=JEKZMCMBPAIVEN-UHFFFAOYSA-N

> <PUBCHEM_SUBSTANCE_SYNONYM>
SCHEMBL16115311

> <PUBCHEM_XREF_EXT_ID>
SCHEMBL16115311

> <PUBCHEM_EXT_DATASOURCE_URL>
https://www.surechembl.org/

> <PUBCHEM_EXT_SUBSTANCE_URL>
https://www.surechembl.org/chemical/SCHEMBL16115311

> <PUBCHEM_CID_ASSOCIATIONS>
2778292  1
8083  2
67815  2

> <PUBCHEM_COORDINATE_TYPE>
1
3

$$$$
