310938524
  -OEChem-07211613022D

 22 22  0     1  0  0  0  0  0999 V2000
    6.3866   -0.5423    0.0000 Cl  0  0  0  0  0  0  0  0  0  0  0  0
    6.3866   -1.3673    0.0000 Cl  0  0  0  0  0  0  0  0  0  0  0  0
    2.5071    0.7144    0.0000 O   0  0  0  0  0  0  0  0  0  0  0  0
    0.7846    0.6674    0.0000 N   0  0  0  0  0  0  0  0  0  0  0  0
    2.5071   -0.7144    0.0000 N   0  0  0  0  0  0  0  0  0  0  0  0
    3.4090   -2.1826    0.0000 N   0  0  0  0  0  0  0  0  0  0  0  0
    4.5650   -1.5152    0.0000 N   0  0  0  0  0  0  0  0  0  0  0  0
    4.0221   -2.7346    0.0000 N   0  0  0  0  0  0  0  0  0  0  0  0
    4.7366   -2.3221    0.0000 N   0  0  0  0  0  0  0  0  0  0  0  0
    1.2696    0.0000    0.0000 C   0  0  3  0  0  0  0  0  0  0  0  0
    0.0000    0.4125    0.0000 C   0  0  0  0  0  0  0  0  0  0  0  0
    0.0000   -0.4125    0.0000 C   0  0  0  0  0  0  0  0  0  0  0  0
    0.7846   -0.6674    0.0000 C   0  0  0  0  0  0  0  0  0  0  0  0
    2.0946    0.0000    0.0000 C   0  0  0  0  0  0  0  0  0  0  0  0
   -0.7144    0.8250    0.0000 C   0  0  0  0  0  0  0  0  0  0  0  0
   -0.7144   -0.8250    0.0000 C   0  0  0  0  0  0  0  0  0  0  0  0
    3.7446   -1.4290    0.0000 C   0  0  0  0  0  0  0  0  0  0  0  0
    3.3321   -0.7144    0.0000 C   0  0  0  0  0  0  0  0  0  0  0  0
   -1.4290    0.4125    0.0000 C   0  0  0  0  0  0  0  0  0  0  0  0
   -1.4290   -0.4125    0.0000 C   0  0  0  0  0  0  0  0  0  0  0  0
    5.5616   -0.5423    0.0000 H   0  0  0  0  0  0  0  0  0  0  0  0
    5.5616   -1.3673    0.0000 H   0  0  0  0  0  0  0  0  0  0  0  0
  1 21  1  0  0  0  0
  2 22  1  0  0  0  0
  3 14  2  0  0  0  0
  4 10  1  0  0  0  0
  4 11  1  0  0  0  0
  5 14  1  0  0  0  0
  5 18  1  0  0  0  0
  6  8  2  0  0  0  0
  6 17  1  0  0  0  0
  7  9  1  0  0  0  0
  7 17  2  0  0  0  0
  8  9  1  0  0  0  0
 10 13  1  0  0  0  0
 10 14  1  0  0  0  0
 11 12  2  0  0  0  0
 11 15  1  0  0  0  0
 12 13  1  0  0  0  0
 12 16  1  0  0  0  0
 15 19  2  0  0  0  0
 16 20  2  0  0  0  0
 17 18  1  0  0  0  0
 19 20  1  0  0  0  0
M  END
> <PUBCHEM_COMPOUND_ID_TYPE>
0

> <PUBCHEM_TOTAL_CHARGE>
0

> <PUBCHEM_SUBSTANCE_ID>
310938524

> <PUBCHEM_SUBSTANCE_VERSION>
1

> <PUBCHEM_EXT_DATASOURCE_NAME>
4488

> <PUBCHEM_EXT_DATASOURCE_REGID>
SCHEMBL16116432

> <PUBCHEM_SUBSTANCE_COMMENT>
InChI=1S/C11H12N6O.2ClH/c18-11(12-6-10-14-16-17-15-10)9-5-7-3-1-2-4-8(7)13-9;;/h1-4,9,13H,5-6H2,(H,12,18)(H,14,15,16,17);2*1H
InChIKey=BLIYUOUYEBQKSO-UHFFFAOYSA-N

> <PUBCHEM_SUBSTANCE_SYNONYM>
SCHEMBL16116432

> <PUBCHEM_XREF_EXT_ID>
SCHEMBL16116432

> <PUBCHEM_EXT_DATASOURCE_URL>
https://www.surechembl.org/

> <PUBCHEM_EXT_SUBSTANCE_URL>
https://www.surechembl.org/chemical/SCHEMBL16116432

> <PUBCHEM_CID_ASSOCIATIONS>
117605975  1
313  2
76927167  2

> <PUBCHEM_COORDINATE_TYPE>
1
3

$$$$
