310930185
  -OEChem-07211613022D

 18 18  0     0  0  0  0  0  0999 V2000
    4.2092   -0.4061    0.0000 N   0  3  0  0  0  0  0  0  0  0  0  0
    3.7967   -1.6756    0.0000 N   0  0  0  0  0  0  0  0  0  0  0  0
    0.2475    0.4287    0.0000 N   0  0  0  0  0  0  0  0  0  0  0  0
    1.0725   -1.0003    0.0000 N   0  0  0  0  0  0  0  0  0  0  0  0
   -1.4025    0.4287    0.0000 N   0  0  0  0  0  0  0  0  0  0  0  0
    3.5418   -0.8910    0.0000 C   0  0  0  0  0  0  0  0  0  0  0  0
    4.2092    0.4189    0.0000 C   0  0  0  0  0  0  0  0  0  0  0  0
    4.9237    0.8314    0.0000 C   0  0  0  0  0  0  0  0  0  0  0  0
    4.8766   -0.8910    0.0000 C   0  0  0  0  0  0  0  0  0  0  0  0
    4.6217   -1.6756    0.0000 C   0  0  0  0  0  0  0  0  0  0  0  0
    5.6382    0.4189    0.0000 C   0  0  0  0  0  0  0  0  0  0  0  0
    4.9237    1.6564    0.0000 C   0  0  0  0  0  0  0  0  0  0  0  0
    3.3118   -2.3431    0.0000 C   0  0  0  0  0  0  0  0  0  0  0  0
    6.3526    0.8314    0.0000 C   0  0  0  0  0  0  0  0  0  0  0  0
    5.6382    2.0689    0.0000 C   0  0  0  0  0  0  0  0  0  0  0  0
    6.3526    1.6564    0.0000 C   0  0  0  0  0  0  0  0  0  0  0  0
    0.6600   -0.2858    0.0000 C   0  0  0  0  0  0  0  0  0  0  0  0
   -0.5775    0.4287    0.0000 C   0  0  0  0  0  0  0  0  0  0  0  0
  1  6  2  0  0  0  0
  1  7  1  0  0  0  0
  1  9  1  0  0  0  0
  2  6  1  0  0  0  0
  2 10  1  0  0  0  0
  2 13  1  0  0  0  0
  3 17  1  0  0  0  0
  3 18  1  0  0  0  0
  4 17  3  0  0  0  0
  5 18  3  0  0  0  0
  7  8  1  0  0  0  0
  8 11  2  0  0  0  0
  8 12  1  0  0  0  0
  9 10  2  0  0  0  0
 11 14  1  0  0  0  0
 12 15  2  0  0  0  0
 14 16  2  0  0  0  0
 15 16  1  0  0  0  0
M  CHG  1   1   1
M  END
> <PUBCHEM_COMPOUND_ID_TYPE>
0

> <PUBCHEM_TOTAL_CHARGE>
1

> <PUBCHEM_SUBSTANCE_ID>
310930185

> <PUBCHEM_SUBSTANCE_VERSION>
1

> <PUBCHEM_EXT_DATASOURCE_NAME>
4488

> <PUBCHEM_EXT_DATASOURCE_REGID>
SCHEMBL16107448

> <PUBCHEM_SUBSTANCE_COMMENT>
InChI=1S/C11H13N2.C2HN3/c1-12-7-8-13(10-12)9-11-5-3-2-4-6-11;3-1-5-2-4/h2-8,10H,9H2,1H3;5H/q+1;
InChIKey=BATJRWLDESPOTR-UHFFFAOYSA-N

> <PUBCHEM_SUBSTANCE_SYNONYM>
SCHEMBL16107448

> <PUBCHEM_XREF_EXT_ID>
SCHEMBL16107448

> <PUBCHEM_EXT_DATASOURCE_URL>
https://www.surechembl.org/

> <PUBCHEM_EXT_SUBSTANCE_URL>
https://www.surechembl.org/chemical/SCHEMBL16107448

> <PUBCHEM_CID_ASSOCIATIONS>
87323174  1
10443  2
10560336  2

> <PUBCHEM_COORDINATE_TYPE>
1
3

$$$$
