310936055
  -OEChem-07211613022D

 19 19  0     0  0  0  0  0  0999 V2000
    4.5129    0.0000    0.0000 Cl  0  0  0  0  0  0  0  0  0  0  0  0
    3.0807   -2.4862    0.0000 Cl  0  0  0  0  0  0  0  0  0  0  0  0
    7.4045   -3.2969    0.0000 Cl  0  0  0  0  0  0  0  0  0  0  0  0
    1.4323   -1.8646    0.0000 O   0  0  0  0  0  0  0  0  0  0  0  0
    5.9722   -2.4862    0.0000 N   0  0  0  0  0  0  0  0  0  0  0  0
    4.5129   -2.4862    0.0000 N   0  0  0  0  0  0  0  0  0  0  0  0
    5.2426   -1.2431    0.0000 N   0  0  0  0  0  0  0  0  0  0  0  0
    3.8103   -1.2431    0.0000 N   0  0  0  0  0  0  0  0  0  0  0  0
    5.2426   -2.0538    0.0000 C   0  0  0  0  0  0  0  0  0  0  0  0
    6.6748   -2.0538    0.0000 C   0  0  0  0  0  0  0  0  0  0  0  0
    4.5129   -0.8378    0.0000 C   0  0  0  0  0  0  0  0  0  0  0  0
    3.8103   -2.0808    0.0000 C   0  0  0  0  0  0  0  0  0  0  0  0
    7.4045   -2.4862    0.0000 C   0  0  0  0  0  0  0  0  0  0  0  0
    6.6748   -1.2431    0.0000 C   0  0  0  0  0  0  0  0  0  0  0  0
    8.1071   -2.0538    0.0000 C   0  0  0  0  0  0  0  0  0  0  0  0
    7.3774   -0.8378    0.0000 C   0  0  0  0  0  0  0  0  0  0  0  0
    8.1071   -1.2160    0.0000 C   0  0  0  0  0  0  0  0  0  0  0  0
    0.7026   -1.4323    0.0000 C   0  0  0  0  0  0  0  0  0  0  0  0
    0.0000   -1.8646    0.0000 C   0  0  0  0  0  0  0  0  0  0  0  0
  1 11  1  0  0  0  0
  2 12  1  0  0  0  0
  3 13  1  0  0  0  0
  4 18  1  0  0  0  0
  5  9  1  0  0  0  0
  5 10  1  0  0  0  0
  6  9  2  0  0  0  0
  6 12  1  0  0  0  0
  7  9  1  0  0  0  0
  7 11  2  0  0  0  0
  8 11  1  0  0  0  0
  8 12  2  0  0  0  0
 10 13  1  0  0  0  0
 10 14  2  0  0  0  0
 13 15  2  0  0  0  0
 14 16  1  0  0  0  0
 15 17  1  0  0  0  0
 16 17  2  0  0  0  0
 18 19  1  0  0  0  0
M  END
> <PUBCHEM_COMPOUND_ID_TYPE>
0

> <PUBCHEM_TOTAL_CHARGE>
0

> <PUBCHEM_SUBSTANCE_ID>
310936055

> <PUBCHEM_SUBSTANCE_VERSION>
1

> <PUBCHEM_EXT_DATASOURCE_NAME>
4488

> <PUBCHEM_EXT_DATASOURCE_REGID>
SCHEMBL16113661

> <PUBCHEM_SUBSTANCE_COMMENT>
InChI=1S/C9H5Cl3N4.C2H6O/c10-5-3-1-2-4-6(5)13-9-15-7(11)14-8(12)16-9;1-2-3/h1-4H,(H,13,14,15,16);3H,2H2,1H3
InChIKey=WBZDZWXYLGPRMF-UHFFFAOYSA-N

> <PUBCHEM_SUBSTANCE_SYNONYM>
SCHEMBL16113661

> <PUBCHEM_XREF_EXT_ID>
SCHEMBL16113661

> <PUBCHEM_EXT_DATASOURCE_URL>
https://www.surechembl.org/

> <PUBCHEM_EXT_SUBSTANCE_URL>
https://www.surechembl.org/chemical/SCHEMBL16113661

> <PUBCHEM_CID_ASSOCIATIONS>
117604020  1
702  2
7541  2

> <PUBCHEM_COORDINATE_TYPE>
1
3

$$$$
