310932132
  -OEChem-07211613022D

 18 17  0     0  0  0  0  0  0999 V2000
    6.1616    0.4270    0.0000 N   0  3  0  0  0  0  0  0  0  0  0  0
    5.7491   -0.8426    0.0000 N   0  0  0  0  0  0  0  0  0  0  0  0
    0.2475    0.4287    0.0000 N   0  0  0  0  0  0  0  0  0  0  0  0
    1.0725   -1.0003    0.0000 N   0  0  0  0  0  0  0  0  0  0  0  0
   -1.4025    0.4287    0.0000 N   0  0  0  0  0  0  0  0  0  0  0  0
    5.4941   -0.0579    0.0000 C   0  0  0  0  0  0  0  0  0  0  0  0
    6.8290   -0.0579    0.0000 C   0  0  0  0  0  0  0  0  0  0  0  0
    6.5741   -0.8426    0.0000 C   0  0  0  0  0  0  0  0  0  0  0  0
    4.7095    0.1970    0.0000 C   0  0  0  0  0  0  0  0  0  0  0  0
    6.1616    1.2520    0.0000 C   0  0  0  0  0  0  0  0  0  0  0  0
    5.2641   -1.5100    0.0000 C   0  0  0  0  0  0  0  0  0  0  0  0
    4.0964   -0.3550    0.0000 C   0  0  0  0  0  0  0  0  0  0  0  0
    6.8760    1.6645    0.0000 C   0  0  0  0  0  0  0  0  0  0  0  0
    5.5997   -2.2637    0.0000 C   0  0  0  0  0  0  0  0  0  0  0  0
    3.3118   -0.1001    0.0000 C   0  0  0  0  0  0  0  0  0  0  0  0
    6.8760    2.4895    0.0000 C   0  0  0  0  0  0  0  0  0  0  0  0
    0.6600   -0.2858    0.0000 C   0  0  0  0  0  0  0  0  0  0  0  0
   -0.5775    0.4287    0.0000 C   0  0  0  0  0  0  0  0  0  0  0  0
  1  6  2  0  0  0  0
  1  7  1  0  0  0  0
  1 10  1  0  0  0  0
  2  6  1  0  0  0  0
  2  8  1  0  0  0  0
  2 11  1  0  0  0  0
  3 17  1  0  0  0  0
  3 18  1  0  0  0  0
  4 17  3  0  0  0  0
  5 18  3  0  0  0  0
  6  9  1  0  0  0  0
  7  8  2  0  0  0  0
  9 12  1  0  0  0  0
 10 13  1  0  0  0  0
 11 14  2  0  0  0  0
 12 15  2  0  0  0  0
 13 16  2  0  0  0  0
M  CHG  1   1   1
M  END
> <PUBCHEM_COMPOUND_ID_TYPE>
0

> <PUBCHEM_TOTAL_CHARGE>
1

> <PUBCHEM_SUBSTANCE_ID>
310932132

> <PUBCHEM_SUBSTANCE_VERSION>
1

> <PUBCHEM_EXT_DATASOURCE_NAME>
4488

> <PUBCHEM_EXT_DATASOURCE_REGID>
SCHEMBL16109484

> <PUBCHEM_SUBSTANCE_COMMENT>
InChI=1S/C11H15N2.C2HN3/c1-4-7-11-12(6-3)9-10-13(11)8-5-2;3-1-5-2-4/h4-6,9-10H,1-3,7-8H2;5H/q+1;
InChIKey=RHBXBVNCVDFGIJ-UHFFFAOYSA-N

> <PUBCHEM_SUBSTANCE_SYNONYM>
SCHEMBL16109484

> <PUBCHEM_XREF_EXT_ID>
SCHEMBL16109484

> <PUBCHEM_EXT_DATASOURCE_URL>
https://www.surechembl.org/

> <PUBCHEM_EXT_SUBSTANCE_URL>
https://www.surechembl.org/chemical/SCHEMBL16109484

> <PUBCHEM_CID_ASSOCIATIONS>
117600743  1
10443  2
117600456  2

> <PUBCHEM_COORDINATE_TYPE>
1
3

$$$$
