310930022
  -OEChem-07211613022D

 30 28  0     0  0  0  0  0  0999 V2000
   -6.1445   -0.2475    0.0000 O   0  0  0  0  0  0  0  0  0  0  0  0
   -5.4300    0.9900    0.0000 O   0  0  0  0  0  0  0  0  0  0  0  0
    9.6698    0.9900    0.0000 N   0  0  0  0  0  0  0  0  0  0  0  0
    8.9553    1.4025    0.0000 N   0  0  0  0  0  0  0  0  0  0  0  0
   10.3843   -0.2475    0.0000 C   0  0  0  0  0  0  0  0  0  0  0  0
    9.6698    0.1650    0.0000 C   0  0  0  0  0  0  0  0  0  0  0  0
   10.3843   -1.0725    0.0000 C   0  0  0  0  0  0  0  0  0  0  0  0
   11.0987    0.1650    0.0000 C   0  0  0  0  0  0  0  0  0  0  0  0
   11.0987   -1.4850    0.0000 C   0  0  0  0  0  0  0  0  0  0  0  0
   11.0987    0.9900    0.0000 C   0  0  0  0  0  0  0  0  0  0  0  0
   -5.4300    0.1650    0.0000 C   0  0  0  0  0  0  0  0  0  0  0  0
   -4.7155   -0.2475    0.0000 C   0  0  0  0  0  0  0  0  0  0  0  0
   -4.0010    0.1650    0.0000 C   0  0  0  0  0  0  0  0  0  0  0  0
   -3.2866   -0.2475    0.0000 C   0  0  0  0  0  0  0  0  0  0  0  0
   -2.5721    0.1650    0.0000 C   0  0  0  0  0  0  0  0  0  0  0  0
   -1.8576   -0.2475    0.0000 C   0  0  0  0  0  0  0  0  0  0  0  0
   -1.1432    0.1650    0.0000 C   0  0  0  0  0  0  0  0  0  0  0  0
   -0.4287   -0.2475    0.0000 C   0  0  0  0  0  0  0  0  0  0  0  0
    0.2858    0.1650    0.0000 C   0  0  0  0  0  0  0  0  0  0  0  0
    1.0003   -0.2475    0.0000 C   0  0  0  0  0  0  0  0  0  0  0  0
    1.7147    0.1650    0.0000 C   0  0  0  0  0  0  0  0  0  0  0  0
    2.4292   -0.2475    0.0000 C   0  0  0  0  0  0  0  0  0  0  0  0
    3.1437    0.1650    0.0000 C   0  0  0  0  0  0  0  0  0  0  0  0
    3.8581   -0.2475    0.0000 C   0  0  0  0  0  0  0  0  0  0  0  0
   11.0987   -2.3100    0.0000 C   0  0  0  0  0  0  0  0  0  0  0  0
   11.8132    1.4025    0.0000 C   0  0  0  0  0  0  0  0  0  0  0  0
    4.5726    0.1650    0.0000 C   0  0  0  0  0  0  0  0  0  0  0  0
    5.2871   -0.2475    0.0000 C   0  0  0  0  0  0  0  0  0  0  0  0
    6.0016    0.1650    0.0000 C   0  0  0  0  0  0  0  0  0  0  0  0
    6.7160   -0.2475    0.0000 C   0  0  0  0  0  0  0  0  0  0  0  0
  1 11  2  0  0  0  0
  2 11  1  0  0  0  0
  3  4  1  0  0  0  0
  3  6  1  0  0  0  0
  5  6  1  0  0  0  0
  5  7  1  0  0  0  0
  5  8  1  0  0  0  0
  7  9  1  0  0  0  0
  8 10  1  0  0  0  0
  9 25  1  0  0  0  0
 10 26  1  0  0  0  0
 11 12  1  0  0  0  0
 12 13  1  0  0  0  0
 13 14  1  0  0  0  0
 14 15  1  0  0  0  0
 15 16  1  0  0  0  0
 16 17  1  0  0  0  0
 17 18  1  0  0  0  0
 18 19  1  0  0  0  0
 19 20  1  0  0  0  0
 20 21  1  0  0  0  0
 21 22  1  0  0  0  0
 22 23  1  0  0  0  0
 23 24  1  0  0  0  0
 24 27  1  0  0  0  0
 27 28  1  0  0  0  0
 28 29  1  0  0  0  0
 29 30  1  0  0  0  0
M  END
> <PUBCHEM_COMPOUND_ID_TYPE>
0

> <PUBCHEM_TOTAL_CHARGE>
0

> <PUBCHEM_SUBSTANCE_ID>
310930022

> <PUBCHEM_SUBSTANCE_VERSION>
1

> <PUBCHEM_EXT_DATASOURCE_NAME>
4488

> <PUBCHEM_EXT_DATASOURCE_REGID>
SCHEMBL16107261

> <PUBCHEM_SUBSTANCE_COMMENT>
InChI=1S/C18H36O2.C8H20N2/c1-2-3-4-5-6-7-8-9-10-11-12-13-14-15-16-17-18(19)20;1-3-5-8(6-4-2)7-10-9/h2-17H2,1H3,(H,19,20);8,10H,3-7,9H2,1-2H3
InChIKey=AURZINHZDCDGQQ-UHFFFAOYSA-N

> <PUBCHEM_SUBSTANCE_SYNONYM>
SCHEMBL16107261

> <PUBCHEM_XREF_EXT_ID>
SCHEMBL16107261

> <PUBCHEM_EXT_DATASOURCE_URL>
https://www.surechembl.org/

> <PUBCHEM_EXT_SUBSTANCE_URL>
https://www.surechembl.org/chemical/SCHEMBL16107261

> <PUBCHEM_CID_ASSOCIATIONS>
117599268  1
5281  2
53426986  2

> <PUBCHEM_COORDINATE_TYPE>
1
3

$$$$
