310930149
  -OEChem-07211613022D

 17 17  0     0  0  0  0  0  0999 V2000
    6.8631    0.0000    0.0000 Br  0  0  0  0  0  0  0  0  0  0  0  0
    5.2618   -1.5099    0.0000 N   0  0  0  0  0  0  0  0  0  0  0  0
    5.2618   -2.3563    0.0000 C   0  0  0  0  0  0  0  0  0  0  0  0
    4.6212   -0.9837    0.0000 C   0  0  0  0  0  0  0  0  0  0  0  0
    6.0167   -1.1667    0.0000 C   0  0  0  0  0  0  0  0  0  0  0  0
    4.6212   -2.8597    0.0000 C   0  0  0  0  0  0  0  0  0  0  0  0
    3.8205   -1.1438    0.0000 C   0  0  0  0  0  0  0  0  0  0  0  0
    3.8205   -2.6995    0.0000 C   0  0  0  0  0  0  0  0  0  0  0  0
    3.4545   -1.9217    0.0000 C   0  0  0  0  0  0  0  0  0  0  0  0
    6.1082   -0.3432    0.0000 C   0  0  0  0  0  0  0  0  0  0  0  0
    1.7844   -1.0295    0.0000 C   0  0  0  0  0  0  0  0  0  0  0  0
    1.7844   -1.8530    0.0000 C   0  0  0  0  0  0  0  0  0  0  0  0
    1.1667   -2.3563    0.0000 C   0  0  0  0  0  0  0  0  0  0  0  0
    0.3660   -2.1962    0.0000 C   0  0  0  0  0  0  0  0  0  0  0  0
    0.0000   -1.4184    0.0000 C   0  0  0  0  0  0  0  0  0  0  0  0
    0.3660   -0.6635    0.0000 C   0  0  0  0  0  0  0  0  0  0  0  0
    1.1667   -0.4804    0.0000 C   0  0  0  0  0  0  0  0  0  0  0  0
  1 10  1  0  0  0  0
  2  3  1  0  0  0  0
  2  4  1  0  0  0  0
  2  5  1  0  0  0  0
  3  6  2  0  0  0  0
  4  7  2  0  0  0  0
  5 10  1  0  0  0  0
  6  8  1  0  0  0  0
  7  9  1  0  0  0  0
  8  9  2  0  0  0  0
 11 12  1  0  0  0  0
 11 17  1  0  0  0  0
 12 13  1  0  0  0  0
 13 14  1  0  0  0  0
 14 15  1  0  0  0  0
 15 16  1  0  0  0  0
 16 17  1  0  0  0  0
M  END
> <PUBCHEM_COMPOUND_ID_TYPE>
0

> <PUBCHEM_TOTAL_CHARGE>
0

> <PUBCHEM_SUBSTANCE_ID>
310930149

> <PUBCHEM_SUBSTANCE_VERSION>
1

> <PUBCHEM_EXT_DATASOURCE_NAME>
4488

> <PUBCHEM_EXT_DATASOURCE_REGID>
SCHEMBL16107409

> <PUBCHEM_SUBSTANCE_COMMENT>
InChI=1S/C8H10BrN.C7H14/c9-5-8-10-6-3-1-2-4-7-10;1-2-4-6-7-5-3-1/h1-4,6-7H,5,8H2;1-7H2
InChIKey=ZBGIGYWEGPJJLQ-UHFFFAOYSA-N

> <PUBCHEM_SUBSTANCE_SYNONYM>
SCHEMBL16107409

> <PUBCHEM_XREF_EXT_ID>
SCHEMBL16107409

> <PUBCHEM_EXT_DATASOURCE_URL>
https://www.surechembl.org/

> <PUBCHEM_EXT_SUBSTANCE_URL>
https://www.surechembl.org/chemical/SCHEMBL16107409

> <PUBCHEM_CID_ASSOCIATIONS>
117599374  1
9265  2
117599375  2

> <PUBCHEM_COORDINATE_TYPE>
1
3

$$$$
