310933812
  -OEChem-07211613022D

  8  7  0     1  0  0  0  0  0999 V2000
    3.0238    0.0000    0.0000 Cl  0  0  0  0  0  0  0  0  0  0  0  0
   -0.3822   -0.3677    0.0000 N   0  0  3  0  0  0  0  0  0  0  0  0
   -1.2072   -0.3677    0.0000 N   0  0  0  0  0  0  0  0  0  0  0  0
    0.2012    0.2157    0.0000 C   0  0  0  0  0  0  0  0  0  0  0  0
    0.7846   -0.3677    0.0000 C   0  0  0  0  0  0  0  0  0  0  0  0
    0.2012   -0.9510    0.0000 C   0  0  0  0  0  0  0  0  0  0  0  0
    0.6323    0.9191    0.0000 C   0  0  0  0  0  0  0  0  0  0  0  0
   -0.2299    0.9191    0.0000 C   0  0  0  0  0  0  0  0  0  0  0  0
  2  3  1  0  0  0  0
  2  4  1  0  0  0  0
  2  6  1  0  0  0  0
  4  5  1  0  0  0  0
  4  7  1  0  0  0  0
  4  8  1  0  0  0  0
  5  6  1  0  0  0  0
M  END
> <PUBCHEM_COMPOUND_ID_TYPE>
0

> <PUBCHEM_TOTAL_CHARGE>
0

> <PUBCHEM_SUBSTANCE_ID>
310933812

> <PUBCHEM_SUBSTANCE_VERSION>
1

> <PUBCHEM_EXT_DATASOURCE_NAME>
4488

> <PUBCHEM_EXT_DATASOURCE_REGID>
SCHEMBL16111250

> <PUBCHEM_SUBSTANCE_COMMENT>
InChI=1S/C5H12N2.ClH/c1-5(2)3-4-7(5)6;/h3-4,6H2,1-2H3;1H
InChIKey=XPDAJOUBEJSRKS-UHFFFAOYSA-N

> <PUBCHEM_SUBSTANCE_SYNONYM>
SCHEMBL16111250

> <PUBCHEM_XREF_EXT_ID>
SCHEMBL16111250

> <PUBCHEM_EXT_DATASOURCE_URL>
https://www.surechembl.org/

> <PUBCHEM_EXT_SUBSTANCE_URL>
https://www.surechembl.org/chemical/SCHEMBL16111250

> <PUBCHEM_CID_ASSOCIATIONS>
117602160  1
313  2
117602161  2

> <PUBCHEM_COORDINATE_TYPE>
1
3

$$$$
