310932086
  -OEChem-07211613022D

 63 69  0     0  0  0  0  0  0999 V2000
    4.5155   -6.5347    0.0000 S   0  0  0  0  0  0  0  0  0  0  0  0
    7.3423   -0.8077    0.0000 S   0  0  0  0  0  0  0  0  0  0  0  0
    7.3790   -4.0750    0.0000 P   0  0  0  0  0  0  0  0  0  0  0  0
    4.4788   -3.2673    0.0000 P   0  0  0  0  0  0  0  0  0  0  0  0
    0.0000   -3.6711    0.0000 Na  0  4  0  0  0  0  0  0  0  0  0  0
    3.5978   -6.5347    0.0000 O   0  0  0  0  0  0  0  0  0  0  0  0
    5.3232   -6.5347    0.0000 O   0  0  0  0  0  0  0  0  0  0  0  0
    8.2234   -0.8077    0.0000 O   0  0  0  0  0  0  0  0  0  0  0  0
    6.5347   -0.8077    0.0000 O   0  0  0  0  0  0  0  0  0  0  0  0
    4.5155   -7.3423    0.0000 O   0  0  0  0  0  0  0  0  0  0  0  0
    7.3423    0.0000    0.0000 O   0  0  0  0  0  0  0  0  0  0  0  0
    5.9473   -4.0750    0.0000 C   0  0  0  0  0  0  0  0  0  0  0  0
    5.9106   -3.2673    0.0000 C   0  0  0  0  0  0  0  0  0  0  0  0
    6.6448   -4.4788    0.0000 C   0  0  0  0  0  0  0  0  0  0  0  0
    5.2131   -2.8635    0.0000 C   0  0  0  0  0  0  0  0  0  0  0  0
    5.2498   -4.4788    0.0000 C   0  0  0  0  0  0  0  0  0  0  0  0
    6.6081   -2.8635    0.0000 C   0  0  0  0  0  0  0  0  0  0  0  0
    5.2498   -5.3232    0.0000 C   0  0  0  0  0  0  0  0  0  0  0  0
    6.6081   -2.0191    0.0000 C   0  0  0  0  0  0  0  0  0  0  0  0
    4.5155   -5.7270    0.0000 C   0  0  0  0  0  0  0  0  0  0  0  0
    7.3423   -1.6153    0.0000 C   0  0  0  0  0  0  0  0  0  0  0  0
    6.6448   -5.3232    0.0000 C   0  0  0  0  0  0  0  0  0  0  0  0
    5.2131   -2.0191    0.0000 C   0  0  0  0  0  0  0  0  0  0  0  0
    5.9473   -5.7270    0.0000 C   0  0  0  0  0  0  0  0  0  0  0  0
    5.9106   -1.6153    0.0000 C   0  0  0  0  0  0  0  0  0  0  0  0
    4.5155   -4.0750    0.0000 C   0  0  0  0  0  0  0  0  0  0  0  0
    7.3423   -3.2673    0.0000 C   0  0  0  0  0  0  0  0  0  0  0  0
    8.0766   -4.4788    0.0000 C   0  0  0  0  0  0  0  0  0  0  0  0
    7.5259   -3.4141    0.0000 C   0  0  0  0  0  0  0  0  0  0  0  0
    3.7813   -2.8635    0.0000 C   0  0  0  0  0  0  0  0  0  0  0  0
    4.6624   -4.2585    0.0000 C   0  0  0  0  0  0  0  0  0  0  0  0
    3.7813   -5.3232    0.0000 C   0  0  0  0  0  0  0  0  0  0  0  0
    8.0398   -2.0191    0.0000 C   0  0  0  0  0  0  0  0  0  0  0  0
    3.7813   -4.4788    0.0000 C   0  0  0  0  0  0  0  0  0  0  0  0
    8.0398   -2.8635    0.0000 C   0  0  0  0  0  0  0  0  0  0  0  0
    8.8108   -4.0750    0.0000 C   0  0  0  0  0  0  0  0  0  0  0  0
    6.7917   -3.0104    0.0000 C   0  0  0  0  0  0  0  0  0  0  0  0
    3.0471   -3.2673    0.0000 C   0  0  0  0  0  0  0  0  0  0  0  0
    5.3599   -4.6624    0.0000 C   0  0  0  0  0  0  0  0  0  0  0  0
    8.0766   -5.3232    0.0000 C   0  0  0  0  0  0  0  0  0  0  0  0
    8.2234   -3.0104    0.0000 C   0  0  0  0  0  0  0  0  0  0  0  0
    3.7813   -2.0191    0.0000 C   0  0  0  0  0  0  0  0  0  0  0  0
    3.9281   -4.6624    0.0000 C   0  0  0  0  0  0  0  0  0  0  0  0
    9.5083   -4.4788    0.0000 C   0  0  0  0  0  0  0  0  0  0  0  0
    6.7917   -2.2027    0.0000 C   0  0  0  0  0  0  0  0  0  0  0  0
    2.3495   -2.8635    0.0000 C   0  0  0  0  0  0  0  0  0  0  0  0
    5.3599   -5.4701    0.0000 C   0  0  0  0  0  0  0  0  0  0  0  0
    8.7740   -5.7270    0.0000 C   0  0  0  0  0  0  0  0  0  0  0  0
    8.2234   -2.2027    0.0000 C   0  0  0  0  0  0  0  0  0  0  0  0
    3.0471   -1.6153    0.0000 C   0  0  0  0  0  0  0  0  0  0  0  0
    3.9281   -5.4701    0.0000 C   0  0  0  0  0  0  0  0  0  0  0  0
    9.5083   -5.3232    0.0000 C   0  0  0  0  0  0  0  0  0  0  0  0
    7.5259   -1.7621    0.0000 C   0  0  0  0  0  0  0  0  0  0  0  0
    2.3495   -2.0191    0.0000 C   0  0  0  0  0  0  0  0  0  0  0  0
    4.6624   -5.9106    0.0000 C   0  0  0  0  0  0  0  0  0  0  0  0
   10.2058   -4.0750    0.0000 C   0  0  0  0  0  0  0  0  0  0  0  0
    6.0941   -1.7621    0.0000 C   0  0  0  0  0  0  0  0  0  0  0  0
    1.6153   -3.2673    0.0000 C   0  0  0  0  0  0  0  0  0  0  0  0
    6.0941   -5.9106    0.0000 C   0  0  0  0  0  0  0  0  0  0  0  0
    8.7740   -6.5347    0.0000 C   0  0  0  0  0  0  0  0  0  0  0  0
    8.7740   -1.6153    0.0000 C   0  0  0  0  0  0  0  0  0  0  0  0
    3.0471   -0.8077    0.0000 C   0  0  0  0  0  0  0  0  0  0  0  0
    3.0471   -5.7270    0.0000 C   0  0  0  0  0  0  0  0  0  0  0  0
  1  6  2  0  0  0  0
  1  7  2  0  0  0  0
  1 10  1  0  0  0  0
  1 20  1  0  0  0  0
  2  8  2  0  0  0  0
  2  9  2  0  0  0  0
  2 11  1  0  0  0  0
  2 21  1  0  0  0  0
  3 14  1  0  0  0  0
  3 28  1  0  0  0  0
  3 29  1  0  0  0  0
  4 15  1  0  0  0  0
  4 30  1  0  0  0  0
  4 31  1  0  0  0  0
 12 13  1  0  0  0  0
 12 14  2  0  0  0  0
 12 16  1  0  0  0  0
 13 15  2  0  0  0  0
 13 17  1  0  0  0  0
 14 22  1  0  0  0  0
 15 23  1  0  0  0  0
 16 18  2  0  0  0  0
 16 26  1  0  0  0  0
 17 19  2  0  0  0  0
 17 27  1  0  0  0  0
 18 20  1  0  0  0  0
 18 24  1  0  0  0  0
 19 21  1  0  0  0  0
 19 25  1  0  0  0  0
 20 32  2  0  0  0  0
 21 33  2  0  0  0  0
 22 24  2  0  0  0  0
 23 25  2  0  0  0  0
 26 34  2  0  0  0  0
 27 35  2  0  0  0  0
 28 36  2  0  0  0  0
 28 40  1  0  0  0  0
 29 37  2  0  0  0  0
 29 41  1  0  0  0  0
 30 38  2  0  0  0  0
 30 42  1  0  0  0  0
 31 39  2  0  0  0  0
 31 43  1  0  0  0  0
 32 34  1  0  0  0  0
 33 35  1  0  0  0  0
 36 44  1  0  0  0  0
 37 45  1  0  0  0  0
 38 46  1  0  0  0  0
 39 47  1  0  0  0  0
 40 48  2  0  0  0  0
 41 49  2  0  0  0  0
 42 50  2  0  0  0  0
 43 51  2  0  0  0  0
 44 52  2  0  0  0  0
 44 56  1  0  0  0  0
 45 53  2  0  0  0  0
 45 57  1  0  0  0  0
 46 54  2  0  0  0  0
 46 58  1  0  0  0  0
 47 55  2  0  0  0  0
 47 59  1  0  0  0  0
 48 52  1  0  0  0  0
 48 60  1  0  0  0  0
 49 53  1  0  0  0  0
 49 61  1  0  0  0  0
 50 54  1  0  0  0  0
 50 62  1  0  0  0  0
 51 55  1  0  0  0  0
 51 63  1  0  0  0  0
M  RAD  1   5   2
M  END
> <PUBCHEM_COMPOUND_ID_TYPE>
0

> <PUBCHEM_TOTAL_CHARGE>
0

> <PUBCHEM_SUBSTANCE_ID>
310932086

> <PUBCHEM_SUBSTANCE_VERSION>
1

> <PUBCHEM_EXT_DATASOURCE_NAME>
4488

> <PUBCHEM_EXT_DATASOURCE_REGID>
SCHEMBL16109434

> <PUBCHEM_SUBSTANCE_COMMENT>
InChI=1S/C52H48O6P2S2.Na/c1-31-19-32(2)24-39(23-31)59(40-25-33(3)20-34(4)26-40)47-17-15-43-45(11-9-13-49(43)61(53,54)55)51(47)52-46-12-10-14-50(62(56,57)58)44(46)16-18-48(52)60(41-27-35(5)21-36(6)28-41)42-29-37(7)22-38(8)30-42;/h9-30H,1-8H3,(H,53,54,55)(H,56,57,58);
InChIKey=YIRMGYHFFIPOKM-UHFFFAOYSA-N

> <PUBCHEM_SUBSTANCE_SYNONYM>
SCHEMBL16109434

> <PUBCHEM_XREF_EXT_ID>
SCHEMBL16109434

> <PUBCHEM_EXT_DATASOURCE_URL>
https://www.surechembl.org/

> <PUBCHEM_EXT_SUBSTANCE_URL>
https://www.surechembl.org/chemical/SCHEMBL16109434

> <PUBCHEM_CID_ASSOCIATIONS>
117600712  1
5360545  2
89405135  2

> <PUBCHEM_COORDINATE_TYPE>
1
3

$$$$
