310931966
  -OEChem-07211613022D

 14 13  0     0  0  0  0  0  0999 V2000
    4.5419   -1.7754    0.0000 S   0  5  0  0  0  0  0  0  0  0  0  0
    0.4335   -2.1265    0.0000 N   0  3  0  0  0  0  0  0  0  0  0  0
    6.1935   -1.7754    0.0000 N   0  0  0  0  0  0  0  0  0  0  0  0
    1.6722   -1.4245    0.0000 C   0  0  0  0  0  0  0  0  0  0  0  0
    1.2387   -2.1265    0.0000 C   0  0  0  0  0  0  0  0  0  0  0  0
    1.2387   -0.7226    0.0000 C   0  0  0  0  0  0  0  0  0  0  0  0
    0.0000   -1.4245    0.0000 C   0  0  0  0  0  0  0  0  0  0  0  0
    0.4335   -0.7226    0.0000 C   0  0  0  0  0  0  0  0  0  0  0  0
    2.4980   -1.4245    0.0000 C   0  0  0  0  0  0  0  0  0  0  0  0
    0.0207   -2.8490    0.0000 C   0  0  0  0  0  0  0  0  0  0  0  0
    2.8903   -0.7226    0.0000 C   0  0  0  0  0  0  0  0  0  0  0  0
    0.4335   -3.5510    0.0000 C   0  0  0  0  0  0  0  0  0  0  0  0
    2.4980    0.0000    0.0000 C   0  0  0  0  0  0  0  0  0  0  0  0
    5.3471   -1.7754    0.0000 C   0  0  0  0  0  0  0  0  0  0  0  0
  1 14  1  0  0  0  0
  2  5  1  0  0  0  0
  2  7  2  0  0  0  0
  2 10  1  0  0  0  0
  3 14  3  0  0  0  0
  4  5  2  0  0  0  0
  4  6  1  0  0  0  0
  4  9  1  0  0  0  0
  6  8  2  0  0  0  0
  7  8  1  0  0  0  0
  9 11  1  0  0  0  0
 10 12  2  0  0  0  0
 11 13  2  0  0  0  0
M  CHG  2   1  -1   2   1
M  END
> <PUBCHEM_COMPOUND_ID_TYPE>
0

> <PUBCHEM_TOTAL_CHARGE>
0

> <PUBCHEM_SUBSTANCE_ID>
310931966

> <PUBCHEM_SUBSTANCE_VERSION>
1

> <PUBCHEM_EXT_DATASOURCE_NAME>
4488

> <PUBCHEM_EXT_DATASOURCE_REGID>
SCHEMBL16109304

> <PUBCHEM_SUBSTANCE_COMMENT>
InChI=1S/C10H12N.CHNS/c1-3-6-10-7-5-8-11(4-2)9-10;2-1-3/h3-5,7-9H,1-2,6H2;3H/q+1;/p-1
InChIKey=JNJUISFETONRAG-UHFFFAOYSA-M

> <PUBCHEM_SUBSTANCE_SYNONYM>
SCHEMBL16109304

> <PUBCHEM_XREF_EXT_ID>
SCHEMBL16109304

> <PUBCHEM_EXT_DATASOURCE_URL>
https://www.surechembl.org/

> <PUBCHEM_EXT_SUBSTANCE_URL>
https://www.surechembl.org/chemical/SCHEMBL16109304

> <PUBCHEM_CID_ASSOCIATIONS>
117600613  1
781  2
117599951  2

> <PUBCHEM_COORDINATE_TYPE>
1
3

$$$$
