310933095
  -OEChem-07211613022D

 13 12  0     1  0  0  0  0  0999 V2000
    2.3645   -0.4960    0.0000 P   0  0  0  0  0  0  0  0  0  0  0  0
   -1.4682   -0.0770    0.0000 O   0  0  0  0  0  0  0  0  0  0  0  0
    2.3645    0.3290    0.0000 O   0  0  0  0  0  0  0  0  0  0  0  0
    1.5395   -0.4960    0.0000 O   0  0  0  0  0  0  0  0  0  0  0  0
    2.3645   -1.3210    0.0000 O   0  0  0  0  0  0  0  0  0  0  0  0
    3.1895   -0.4960    0.0000 O   0  0  0  0  0  0  0  0  0  0  0  0
   -2.8407   -0.6038    0.0000 O   0  0  0  0  0  0  0  0  0  0  0  0
    0.7145    0.4125    0.0000 N   0  0  0  0  0  0  0  0  0  0  0  0
   -0.7145   -0.4125    0.0000 C   0  0  3  0  0  0  0  0  0  0  0  0
   -2.0202   -0.6901    0.0000 C   0  0  0  0  0  0  0  0  0  0  0  0
   -0.8007   -1.2330    0.0000 C   0  0  0  0  0  0  0  0  0  0  0  0
   -1.6077   -1.4045    0.0000 C   0  0  0  0  0  0  0  0  0  0  0  0
    0.0000    0.0000    0.0000 C   0  0  0  0  0  0  0  0  0  0  0  0
  1  3  2  0  0  0  0
  1  4  1  0  0  0  0
  1  5  1  0  0  0  0
  1  6  1  0  0  0  0
  2  9  1  0  0  0  0
  2 10  1  0  0  0  0
  7 10  2  0  0  0  0
  8 13  3  0  0  0  0
  9 11  1  0  0  0  0
  9 13  1  0  0  0  0
 10 12  1  0  0  0  0
 11 12  1  0  0  0  0
M  END
> <PUBCHEM_COMPOUND_ID_TYPE>
0

> <PUBCHEM_TOTAL_CHARGE>
0

> <PUBCHEM_SUBSTANCE_ID>
310933095

> <PUBCHEM_SUBSTANCE_VERSION>
1

> <PUBCHEM_EXT_DATASOURCE_NAME>
4488

> <PUBCHEM_EXT_DATASOURCE_REGID>
SCHEMBL16110497

> <PUBCHEM_SUBSTANCE_COMMENT>
InChI=1S/C5H5NO2.H3O4P/c6-3-4-1-2-5(7)8-4;1-5(2,3)4/h4H,1-2H2;(H3,1,2,3,4)
InChIKey=URNHUMPGWVKRKR-UHFFFAOYSA-N

> <PUBCHEM_SUBSTANCE_SYNONYM>
SCHEMBL16110497

> <PUBCHEM_XREF_EXT_ID>
SCHEMBL16110497

> <PUBCHEM_EXT_DATASOURCE_URL>
https://www.surechembl.org/

> <PUBCHEM_EXT_SUBSTANCE_URL>
https://www.surechembl.org/chemical/SCHEMBL16110497

> <PUBCHEM_CID_ASSOCIATIONS>
117601552  1
1004  2
21019405  2

> <PUBCHEM_COORDINATE_TYPE>
1
3

$$$$
