310931407
  -OEChem-07211613022D

 26 25  0     0  0  0  0  0  0999 V2000
    2.4751    0.4125    0.0000 S   0  0  0  0  0  0  0  0  0  0  0  0
    1.2375   -0.3020    0.0000 F   0  0  0  0  0  0  0  0  0  0  0  0
    0.8250    0.4125    0.0000 F   0  0  0  0  0  0  0  0  0  0  0  0
    1.2375    1.1270    0.0000 F   0  0  0  0  0  0  0  0  0  0  0  0
    3.3001    0.4125    0.0000 O   0  5  0  0  0  0  0  0  0  0  0  0
    2.4751    1.2375    0.0000 O   0  0  0  0  0  0  0  0  0  0  0  0
    2.4751   -0.4125    0.0000 O   0  0  0  0  0  0  0  0  0  0  0  0
   -6.4304    1.6500    0.0000 O   0  0  0  0  0  0  0  0  0  0  0  0
   -2.8579    0.4125    0.0000 N   0  3  0  0  0  0  0  0  0  0  0  0
   -5.7159    0.4125    0.0000 N   0  0  0  0  0  0  0  0  0  0  0  0
    1.6500    0.4125    0.0000 C   0  0  0  0  0  0  0  0  0  0  0  0
   -1.4290    0.4125    0.0000 C   0  0  0  0  0  0  0  0  0  0  0  0
   -2.1435    0.8250    0.0000 C   0  0  0  0  0  0  0  0  0  0  0  0
   -3.5724    0.8250    0.0000 C   0  0  0  0  0  0  0  0  0  0  0  0
   -0.7145    0.8250    0.0000 C   0  0  0  0  0  0  0  0  0  0  0  0
   -1.4290   -0.4125    0.0000 C   0  0  0  0  0  0  0  0  0  0  0  0
   -2.4454   -0.3020    0.0000 C   0  0  0  0  0  0  0  0  0  0  0  0
   -3.2704   -0.3020    0.0000 C   0  0  0  0  0  0  0  0  0  0  0  0
   -4.2869    0.4125    0.0000 C   0  0  0  0  0  0  0  0  0  0  0  0
    0.0000    0.4125    0.0000 C   0  0  0  0  0  0  0  0  0  0  0  0
   -0.7145   -0.8250    0.0000 C   0  0  0  0  0  0  0  0  0  0  0  0
    0.0000   -0.4125    0.0000 C   0  0  0  0  0  0  0  0  0  0  0  0
   -5.0014    0.8250    0.0000 C   0  0  0  0  0  0  0  0  0  0  0  0
   -6.4304    0.8250    0.0000 C   0  0  0  0  0  0  0  0  0  0  0  0
   -7.1449    0.4125    0.0000 C   0  0  0  0  0  0  0  0  0  0  0  0
   -7.8594    0.8250    0.0000 C   0  0  0  0  0  0  0  0  0  0  0  0
  1  5  1  0  0  0  0
  1  6  2  0  0  0  0
  1  7  2  0  0  0  0
  1 11  1  0  0  0  0
  2 11  1  0  0  0  0
  3 11  1  0  0  0  0
  4 11  1  0  0  0  0
  8 24  2  0  0  0  0
  9 13  1  0  0  0  0
  9 14  1  0  0  0  0
  9 17  1  0  0  0  0
  9 18  1  0  0  0  0
 10 23  1  0  0  0  0
 10 24  1  0  0  0  0
 12 13  1  0  0  0  0
 12 15  2  0  0  0  0
 12 16  1  0  0  0  0
 14 19  1  0  0  0  0
 15 20  1  0  0  0  0
 16 21  2  0  0  0  0
 19 23  1  0  0  0  0
 20 22  2  0  0  0  0
 21 22  1  0  0  0  0
 24 25  1  0  0  0  0
 25 26  2  0  0  0  0
M  CHG  2   5  -1   9   1
M  END
> <PUBCHEM_COMPOUND_ID_TYPE>
0

> <PUBCHEM_TOTAL_CHARGE>
0

> <PUBCHEM_SUBSTANCE_ID>
310931407

> <PUBCHEM_SUBSTANCE_VERSION>
1

> <PUBCHEM_EXT_DATASOURCE_NAME>
4488

> <PUBCHEM_EXT_DATASOURCE_REGID>
SCHEMBL16108731

> <PUBCHEM_SUBSTANCE_COMMENT>
InChI=1S/C15H22N2O.CHF3O3S/c1-4-15(18)16-11-8-12-17(2,3)13-14-9-6-5-7-10-14;2-1(3,4)8(5,6)7/h4-7,9-10H,1,8,11-13H2,2-3H3;(H,5,6,7)
InChIKey=DPLWAWOAJOLWGS-UHFFFAOYSA-N

> <PUBCHEM_SUBSTANCE_SYNONYM>
SCHEMBL16108731

> <PUBCHEM_XREF_EXT_ID>
SCHEMBL16108731

> <PUBCHEM_EXT_DATASOURCE_URL>
https://www.surechembl.org/

> <PUBCHEM_EXT_SUBSTANCE_URL>
https://www.surechembl.org/chemical/SCHEMBL16108731

> <PUBCHEM_CID_ASSOCIATIONS>
117600191  1
62406  2
21532726  2

> <PUBCHEM_COORDINATE_TYPE>
1
3

$$$$
