310936252
  -OEChem-07211613022D

 21 22  0     1  0  0  0  0  0999 V2000
    2.1984    1.9007    0.0000 Cl  0  0  0  0  0  0  0  0  0  0  0  0
    0.0000    0.0000    0.0000 Cl  0  0  0  0  0  0  0  0  0  0  0  0
    3.3409    0.9755    0.0000 S   0  0  0  0  0  0  0  0  0  0  0  0
    5.5705    1.3925    0.0000 O   0  0  0  0  0  0  0  0  0  0  0  0
    5.5705   -0.2575    0.0000 C   0  0  0  0  0  0  0  0  0  0  0  0
    4.8561    0.1550    0.0000 C   0  0  3  0  0  0  0  0  0  0  0  0
    6.9995   -0.2575    0.0000 C   0  0  0  0  0  0  0  0  0  0  0  0
    6.9995   -1.0825    0.0000 C   0  0  0  0  0  0  0  0  0  0  0  0
    6.2850    0.1550    0.0000 C   0  0  0  0  0  0  0  0  0  0  0  0
    3.4271    0.1550    0.0000 C   0  0  0  0  0  0  0  0  0  0  0  0
    4.1416   -0.2575    0.0000 C   0  0  0  0  0  0  0  0  0  0  0  0
    5.5705   -1.0825    0.0000 C   0  0  0  0  0  0  0  0  0  0  0  0
    6.2850   -1.4950    0.0000 C   0  0  0  0  0  0  0  0  0  0  0  0
    2.5339    1.1470    0.0000 C   0  0  0  0  0  0  0  0  0  0  0  0
    7.7140    0.1550    0.0000 C   0  0  0  0  0  0  0  0  0  0  0  0
    2.6735   -0.1806    0.0000 C   0  0  0  0  0  0  0  0  0  0  0  0
    7.7140   -1.4950    0.0000 C   0  0  0  0  0  0  0  0  0  0  0  0
    4.8561    0.9800    0.0000 C   0  0  0  0  0  0  0  0  0  0  0  0
    2.1214    0.4325    0.0000 C   0  0  0  0  0  0  0  0  0  0  0  0
    8.4284   -0.2575    0.0000 C   0  0  0  0  0  0  0  0  0  0  0  0
    8.4284   -1.0825    0.0000 C   0  0  0  0  0  0  0  0  0  0  0  0
  1 14  1  0  0  0  0
  3 10  1  0  0  0  0
  3 14  1  0  0  0  0
  4 18  1  0  0  0  0
  5  6  1  0  0  0  0
  5  9  2  0  0  0  0
  5 12  1  0  0  0  0
  6 11  1  0  0  0  0
  6 18  1  0  0  0  0
  7  8  1  0  0  0  0
  7  9  1  0  0  0  0
  7 15  2  0  0  0  0
  8 13  1  0  0  0  0
  8 17  2  0  0  0  0
 10 11  1  0  0  0  0
 10 16  2  0  0  0  0
 12 13  2  0  0  0  0
 14 19  2  0  0  0  0
 15 20  1  0  0  0  0
 16 19  1  0  0  0  0
 17 21  1  0  0  0  0
 20 21  2  0  0  0  0
M  END
> <PUBCHEM_COMPOUND_ID_TYPE>
0

> <PUBCHEM_TOTAL_CHARGE>
0

> <PUBCHEM_SUBSTANCE_ID>
310936252

> <PUBCHEM_SUBSTANCE_VERSION>
1

> <PUBCHEM_EXT_DATASOURCE_NAME>
4488

> <PUBCHEM_EXT_DATASOURCE_REGID>
SCHEMBL16113867

> <PUBCHEM_SUBSTANCE_COMMENT>
InChI=1S/C17H15ClOS.ClH/c18-17-8-7-16(20-17)10-15(11-19)14-6-5-12-3-1-2-4-13(12)9-14;/h1-9,15,19H,10-11H2;1H
InChIKey=MLVOGFXPFCLYJA-UHFFFAOYSA-N

> <PUBCHEM_SUBSTANCE_SYNONYM>
SCHEMBL16113867

> <PUBCHEM_XREF_EXT_ID>
SCHEMBL16113867

> <PUBCHEM_EXT_DATASOURCE_URL>
https://www.surechembl.org/

> <PUBCHEM_EXT_SUBSTANCE_URL>
https://www.surechembl.org/chemical/SCHEMBL16113867

> <PUBCHEM_CID_ASSOCIATIONS>
117604201  1
313  2
117604202  2

> <PUBCHEM_COORDINATE_TYPE>
1
3

$$$$
