310932760
  -OEChem-07211613022D

  9  8  0     0  0  0  0  0  0999 V2000
    0.0000   -1.1329    0.0000 Cl  0  0  0  0  0  0  0  0  0  0  0  0
    2.6206   -2.2659    0.0000 O   0  0  0  0  0  0  0  0  0  0  0  0
    3.0212   -1.4305    0.0000 N   0  0  0  0  0  0  0  0  0  0  0  0
    2.4490   -0.8468    0.0000 C   0  0  0  0  0  0  0  0  0  0  0  0
    1.6365   -0.8468    0.0000 C   0  0  0  0  0  0  0  0  0  0  0  0
    2.4604    0.0000    0.0000 C   0  0  0  0  0  0  0  0  0  0  0  0
    2.1171   -1.6021    0.0000 C   0  0  0  0  0  0  0  0  0  0  0  0
    1.6365    0.0000    0.0000 C   0  0  0  0  0  0  0  0  0  0  0  0
    3.4332   -2.1629    0.0000 C   0  0  0  0  0  0  0  0  0  0  0  0
  2  7  1  0  0  0  0
  2  9  1  0  0  0  0
  3  4  1  0  0  0  0
  4  5  1  0  0  0  0
  4  6  1  0  0  0  0
  4  7  1  0  0  0  0
  5  8  1  0  0  0  0
  6  8  1  0  0  0  0
M  END
> <PUBCHEM_COMPOUND_ID_TYPE>
0

> <PUBCHEM_TOTAL_CHARGE>
0

> <PUBCHEM_SUBSTANCE_ID>
310932760

> <PUBCHEM_SUBSTANCE_VERSION>
1

> <PUBCHEM_EXT_DATASOURCE_NAME>
4488

> <PUBCHEM_EXT_DATASOURCE_REGID>
SCHEMBL16110146

> <PUBCHEM_SUBSTANCE_COMMENT>
InChI=1S/C6H13NO.ClH/c1-8-5-6(7)3-2-4-6;/h2-5,7H2,1H3;1H
InChIKey=SLDBZWJJZAYBGS-UHFFFAOYSA-N

> <PUBCHEM_SUBSTANCE_SYNONYM>
SCHEMBL16110146

> <PUBCHEM_XREF_EXT_ID>
SCHEMBL16110146

> <PUBCHEM_EXT_DATASOURCE_URL>
https://www.surechembl.org/

> <PUBCHEM_EXT_SUBSTANCE_URL>
https://www.surechembl.org/chemical/SCHEMBL16110146

> <PUBCHEM_CID_ASSOCIATIONS>
53407228  1
313  2
53407227  2

> <PUBCHEM_COORDINATE_TYPE>
1
3

$$$$
