310929953
  -OEChem-07211613022D

 27 28  0     1  0  0  0  0  0999 V2000
    7.0414   -0.9389    0.0000 O   0  0  0  0  0  0  0  0  0  0  0  0
   10.1109   -0.5416    0.0000 O   0  0  0  0  0  0  0  0  0  0  0  0
   10.8331   -1.8055    0.0000 O   0  0  0  0  0  0  0  0  0  0  0  0
    9.4247   -2.6361    0.0000 O   0  0  0  0  0  0  0  0  0  0  0  0
    2.8527   -2.1666    0.0000 N   0  0  3  0  0  0  0  0  0  0  0  0
    4.2971   -0.7583    0.0000 C   0  0  3  0  0  0  0  0  0  0  0  0
    4.8749   -1.3722    0.0000 C   0  0  0  0  0  0  0  0  0  0  0  0
    3.3221   -1.5166    0.0000 C   0  0  3  0  0  0  0  0  0  0  0  0
    3.5027   -2.7444    0.0000 C   0  0  3  0  0  0  0  0  0  0  0  0
    4.8749   -2.1666    0.0000 C   0  0  0  0  0  0  0  0  0  0  0  0
    3.5027   -0.7583    0.0000 C   0  0  0  0  0  0  0  0  0  0  0  0
    4.2971   -2.7444    0.0000 C   0  0  0  0  0  0  0  0  0  0  0  0
    5.6332   -0.9389    0.0000 C   0  0  0  0  0  0  0  0  0  0  0  0
    2.8527   -1.3722    0.0000 C   0  0  0  0  0  0  0  0  0  0  0  0
    4.6221    0.0000    0.0000 C   0  0  0  0  0  0  0  0  0  0  0  0
    5.6332   -2.5999    0.0000 C   0  0  0  0  0  0  0  0  0  0  0  0
    6.3193   -1.3722    0.0000 C   0  0  0  0  0  0  0  0  0  0  0  0
    2.5638   -1.2277    0.0000 C   0  0  0  0  0  0  0  0  0  0  0  0
    2.0944   -2.4916    0.0000 C   0  0  0  0  0  0  0  0  0  0  0  0
    6.3193   -2.1666    0.0000 C   0  0  0  0  0  0  0  0  0  0  0  0
    1.4444   -2.0222    0.0000 C   0  0  0  0  0  0  0  0  0  0  0  0
    0.6861   -2.3471    0.0000 C   0  0  0  0  0  0  0  0  0  0  0  0
    0.0000   -1.8416    0.0000 C   0  0  0  0  0  0  0  0  0  0  0  0
    0.6139   -3.1777    0.0000 C   0  0  0  0  0  0  0  0  0  0  0  0
   10.1109   -1.3722    0.0000 C   0  0  0  0  0  0  0  0  0  0  0  0
    9.4247   -1.8055    0.0000 C   0  0  3  0  0  0  0  0  0  0  0  0
    8.7025   -1.3722    0.0000 C   0  0  0  0  0  0  0  0  0  0  0  0
  1 17  1  0  0  0  0
  2 25  2  0  0  0  0
  3 25  1  0  0  0  0
  4 26  1  0  0  0  0
  5  9  1  0  0  0  0
  5 14  1  0  0  0  0
  5 19  1  0  0  0  0
  6  7  1  0  0  0  0
  6  8  1  0  0  0  0
  6 11  1  0  0  0  0
  6 15  1  0  0  0  0
  7 10  2  0  0  0  0
  7 13  1  0  0  0  0
  8  9  1  0  0  0  0
  8 18  1  0  0  0  0
  9 12  1  0  0  0  0
 10 12  1  0  0  0  0
 10 16  1  0  0  0  0
 11 14  1  0  0  0  0
 13 17  2  0  0  0  0
 16 20  2  0  0  0  0
 17 20  1  0  0  0  0
 19 21  1  0  0  0  0
 21 22  2  0  0  0  0
 22 23  1  0  0  0  0
 22 24  1  0  0  0  0
 25 26  1  0  0  0  0
 26 27  1  0  0  0  0
M  END
> <PUBCHEM_COMPOUND_ID_TYPE>
0

> <PUBCHEM_TOTAL_CHARGE>
0

> <PUBCHEM_SUBSTANCE_ID>
310929953

> <PUBCHEM_SUBSTANCE_VERSION>
1

> <PUBCHEM_EXT_DATASOURCE_NAME>
4488

> <PUBCHEM_EXT_DATASOURCE_REGID>
SCHEMBL16107180

> <PUBCHEM_SUBSTANCE_COMMENT>
InChI=1S/C19H27NO.C3H6O3/c1-13(2)7-9-20-10-8-19(4)14(3)18(20)11-15-5-6-16(21)12-17(15)19;1-2(4)3(5)6/h5-7,12,14,18,21H,8-11H2,1-4H3;2,4H,1H3,(H,5,6)
InChIKey=QNLDTXPVZPRSAM-UHFFFAOYSA-N

> <PUBCHEM_SUBSTANCE_SYNONYM>
SCHEMBL16107180

> <PUBCHEM_XREF_EXT_ID>
SCHEMBL16107180

> <PUBCHEM_EXT_DATASOURCE_URL>
https://www.surechembl.org/

> <PUBCHEM_EXT_SUBSTANCE_URL>
https://www.surechembl.org/chemical/SCHEMBL16107180

> <PUBCHEM_CID_ASSOCIATIONS>
21863269  1
612  2
4736  2

> <PUBCHEM_COORDINATE_TYPE>
1
3

$$$$
