310931056
  -OEChem-07211613022D

 19 17  0     0  0  0  0  0  0999 V2000
    5.2621   -0.4014    0.0000 F   0  0  0  0  0  0  0  0  0  0  0  0
    4.5486   -1.6277    0.0000 F   0  0  0  0  0  0  0  0  0  0  0  0
    4.5486   -0.8027    0.0000 F   0  0  0  0  0  0  0  0  0  0  0  0
    6.6891   -1.2263    0.0000 O   0  5  0  0  0  0  0  0  0  0  0  0
    5.9756   -2.4527    0.0000 O   0  0  0  0  0  0  0  0  0  0  0  0
    1.2486   -1.4270    0.0000 N   0  3  0  0  0  0  0  0  0  0  0  0
    5.2621   -1.2263    0.0000 C   0  0  0  0  0  0  0  0  0  0  0  0
    5.9756   -1.6277    0.0000 C   0  0  0  0  0  0  0  0  0  0  0  0
    0.4236   -1.4270    0.0000 C   0  0  0  0  0  0  0  0  0  0  0  0
    1.6500   -0.7135    0.0000 C   0  0  0  0  0  0  0  0  0  0  0  0
    1.6500   -2.1405    0.0000 C   0  0  0  0  0  0  0  0  0  0  0  0
    0.8250   -2.1405    0.0000 C   0  0  0  0  0  0  0  0  0  0  0  0
    0.0000   -2.1405    0.0000 C   0  0  0  0  0  0  0  0  0  0  0  0
    1.2486    0.0000    0.0000 C   0  0  0  0  0  0  0  0  0  0  0  0
    2.4749   -2.1405    0.0000 C   0  0  0  0  0  0  0  0  0  0  0  0
    1.2486   -2.8540    0.0000 C   0  0  0  0  0  0  0  0  0  0  0  0
    0.4236   -2.8540    0.0000 C   0  0  0  0  0  0  0  0  0  0  0  0
    0.4236    0.0000    0.0000 C   0  0  0  0  0  0  0  0  0  0  0  0
    2.8986   -1.4270    0.0000 C   0  0  0  0  0  0  0  0  0  0  0  0
  1  7  1  0  0  0  0
  2  7  1  0  0  0  0
  3  7  1  0  0  0  0
  4  8  1  0  0  0  0
  5  8  2  0  0  0  0
  6  9  1  0  0  0  0
  6 10  1  0  0  0  0
  6 11  1  0  0  0  0
  6 12  1  0  0  0  0
  7  8  1  0  0  0  0
  9 13  1  0  0  0  0
 10 14  1  0  0  0  0
 11 15  1  0  0  0  0
 12 16  2  0  0  0  0
 13 17  2  0  0  0  0
 14 18  2  0  0  0  0
 15 19  2  0  0  0  0
M  CHG  2   4  -1   6   1
M  END
> <PUBCHEM_COMPOUND_ID_TYPE>
0

> <PUBCHEM_TOTAL_CHARGE>
0

> <PUBCHEM_SUBSTANCE_ID>
310931056

> <PUBCHEM_SUBSTANCE_VERSION>
1

> <PUBCHEM_EXT_DATASOURCE_NAME>
4488

> <PUBCHEM_EXT_DATASOURCE_REGID>
SCHEMBL16108358

> <PUBCHEM_SUBSTANCE_COMMENT>
InChI=1S/C11H18N.C2HF3O2/c1-5-9-12(8-4,10-6-2)11-7-3;3-2(4,5)1(6)7/h5-8H,1-4,9-11H2;(H,6,7)/q+1;/p-1
InChIKey=JGLHLLRTFBZCKL-UHFFFAOYSA-M

> <PUBCHEM_SUBSTANCE_SYNONYM>
SCHEMBL16108358

> <PUBCHEM_XREF_EXT_ID>
SCHEMBL16108358

> <PUBCHEM_EXT_DATASOURCE_URL>
https://www.surechembl.org/

> <PUBCHEM_EXT_SUBSTANCE_URL>
https://www.surechembl.org/chemical/SCHEMBL16108358

> <PUBCHEM_CID_ASSOCIATIONS>
117599964  1
6422  2
89288692  2

> <PUBCHEM_COORDINATE_TYPE>
1
3

$$$$
