310931616
  -OEChem-07211613022D

 13 12  0     1  0  0  0  0  0999 V2000
    3.6682    0.0000    0.0000 Cl  0  0  0  0  0  0  0  0  0  0  0  0
    0.0000   -3.3221    0.0000 Cl  0  0  0  0  0  0  0  0  0  0  0  0
    0.7145   -0.1326    0.0000 N   0  0  3  0  0  0  0  0  0  0  0  0
   -0.7145    1.5174    0.0000 N   0  0  0  0  0  0  0  0  0  0  0  0
    0.7145   -0.9576    0.0000 C   0  0  0  0  0  0  0  0  0  0  0  0
    0.0000    0.2799    0.0000 C   0  0  3  0  0  0  0  0  0  0  0  0
    1.1270   -1.6721    0.0000 C   0  0  0  0  0  0  0  0  0  0  0  0
    0.3020   -1.6721    0.0000 C   0  0  0  0  0  0  0  0  0  0  0  0
    0.0000    1.1049    0.0000 C   0  0  0  0  0  0  0  0  0  0  0  0
   -0.7145   -0.1326    0.0000 C   0  0  0  0  0  0  0  0  0  0  0  0
    1.4289    0.2799    0.0000 C   0  0  0  0  0  0  0  0  0  0  0  0
   -1.4289    0.2799    0.0000 C   0  0  0  0  0  0  0  0  0  0  0  0
   -1.4289    1.1049    0.0000 C   0  0  0  0  0  0  0  0  0  0  0  0
  3  5  1  0  0  0  0
  3  6  1  0  0  0  0
  3 11  1  0  0  0  0
  4  9  1  0  0  0  0
  4 13  1  0  0  0  0
  5  7  1  0  0  0  0
  5  8  1  0  0  0  0
  6  9  1  0  0  0  0
  6 10  1  0  0  0  0
  7  8  1  0  0  0  0
 10 12  1  0  0  0  0
 12 13  1  0  0  0  0
M  END
> <PUBCHEM_COMPOUND_ID_TYPE>
0

> <PUBCHEM_TOTAL_CHARGE>
0

> <PUBCHEM_SUBSTANCE_ID>
310931616

> <PUBCHEM_SUBSTANCE_VERSION>
1

> <PUBCHEM_EXT_DATASOURCE_NAME>
4488

> <PUBCHEM_EXT_DATASOURCE_REGID>
SCHEMBL16108942

> <PUBCHEM_SUBSTANCE_COMMENT>
InChI=1S/C9H18N2.2ClH/c1-11(8-4-5-8)9-3-2-6-10-7-9;;/h8-10H,2-7H2,1H3;2*1H
InChIKey=RWBYEGUKEHYNGJ-UHFFFAOYSA-N

> <PUBCHEM_SUBSTANCE_SYNONYM>
SCHEMBL16108942

> <PUBCHEM_XREF_EXT_ID>
SCHEMBL16108942

> <PUBCHEM_EXT_DATASOURCE_URL>
https://www.surechembl.org/

> <PUBCHEM_EXT_SUBSTANCE_URL>
https://www.surechembl.org/chemical/SCHEMBL16108942

> <PUBCHEM_CID_ASSOCIATIONS>
117600337  1
313  2
61684974  2

> <PUBCHEM_COORDINATE_TYPE>
1
3

$$$$
