310932535
  -OEChem-07211613022D

 12 10  0     1  0  0  0  0  0999 V2000
    2.8823    0.0000    0.0000 Cl  0  0  0  0  0  0  0  0  0  0  0  0
    0.0000   -3.3413    0.0000 Cl  0  0  0  0  0  0  0  0  0  0  0  0
   -0.0714    0.7838    0.0000 N   0  0  3  0  0  0  0  0  0  0  0  0
   -0.7859   -1.2788    0.0000 N   0  0  0  0  0  0  0  0  0  0  0  0
   -0.0714   -0.0412    0.0000 C   0  0  3  0  0  0  0  0  0  0  0  0
   -0.7859   -0.4537    0.0000 C   0  0  0  0  0  0  0  0  0  0  0  0
    0.6430   -0.4538    0.0000 C   0  0  0  0  0  0  0  0  0  0  0  0
    0.6430   -1.2788    0.0000 C   0  0  0  0  0  0  0  0  0  0  0  0
    0.6430    1.1962    0.0000 C   0  0  0  0  0  0  0  0  0  0  0  0
   -0.0714   -1.6913    0.0000 C   0  0  0  0  0  0  0  0  0  0  0  0
   -0.7859    1.1963    0.0000 C   0  0  0  0  0  0  0  0  0  0  0  0
    0.6430    2.0213    0.0000 C   0  0  0  0  0  0  0  0  0  0  0  0
  3  5  1  0  0  0  0
  3  9  1  0  0  0  0
  3 11  1  0  0  0  0
  4  6  1  0  0  0  0
  4 10  1  0  0  0  0
  5  6  1  0  0  0  0
  5  7  1  0  0  0  0
  7  8  1  0  0  0  0
  8 10  1  0  0  0  0
  9 12  1  0  0  0  0
M  END
> <PUBCHEM_COMPOUND_ID_TYPE>
0

> <PUBCHEM_TOTAL_CHARGE>
0

> <PUBCHEM_SUBSTANCE_ID>
310932535

> <PUBCHEM_SUBSTANCE_VERSION>
1

> <PUBCHEM_EXT_DATASOURCE_NAME>
4488

> <PUBCHEM_EXT_DATASOURCE_REGID>
SCHEMBL16109910

> <PUBCHEM_SUBSTANCE_COMMENT>
InChI=1S/C8H18N2.2ClH/c1-3-10(2)8-5-4-6-9-7-8;;/h8-9H,3-7H2,1-2H3;2*1H
InChIKey=QTRTYJZEKHVWOA-UHFFFAOYSA-N

> <PUBCHEM_SUBSTANCE_SYNONYM>
SCHEMBL16109910

> <PUBCHEM_XREF_EXT_ID>
SCHEMBL16109910

> <PUBCHEM_EXT_DATASOURCE_URL>
https://www.surechembl.org/

> <PUBCHEM_EXT_SUBSTANCE_URL>
https://www.surechembl.org/chemical/SCHEMBL16109910

> <PUBCHEM_CID_ASSOCIATIONS>
117601067  1
313  2
43317071  2

> <PUBCHEM_COORDINATE_TYPE>
1
3

$$$$
