310931653
  -OEChem-07211613022D

 17 16  0     0  0  0  0  0  0999 V2000
    4.7095   -0.4808    0.0000 N   0  3  0  0  0  0  0  0  0  0  0  0
    6.0444   -0.4808    0.0000 N   0  0  0  0  0  0  0  0  0  0  0  0
    0.2475    0.4287    0.0000 N   0  0  0  0  0  0  0  0  0  0  0  0
    1.0725   -1.0003    0.0000 N   0  0  0  0  0  0  0  0  0  0  0  0
   -1.4025    0.4287    0.0000 N   0  0  0  0  0  0  0  0  0  0  0  0
    5.3769    0.0041    0.0000 C   0  0  0  0  0  0  0  0  0  0  0  0
    4.9644   -1.2655    0.0000 C   0  0  0  0  0  0  0  0  0  0  0  0
    5.7894   -1.2655    0.0000 C   0  0  0  0  0  0  0  0  0  0  0  0
    5.3769    0.8291    0.0000 C   0  0  0  0  0  0  0  0  0  0  0  0
    3.9249   -0.2259    0.0000 C   0  0  0  0  0  0  0  0  0  0  0  0
    6.8290   -0.2259    0.0000 C   0  0  0  0  0  0  0  0  0  0  0  0
    4.6625    1.2416    0.0000 C   0  0  0  0  0  0  0  0  0  0  0  0
    3.3118   -0.7779    0.0000 C   0  0  0  0  0  0  0  0  0  0  0  0
    7.0005    0.5811    0.0000 C   0  0  0  0  0  0  0  0  0  0  0  0
    4.6625    2.0666    0.0000 C   0  0  0  0  0  0  0  0  0  0  0  0
    0.6600   -0.2858    0.0000 C   0  0  0  0  0  0  0  0  0  0  0  0
   -0.5775    0.4287    0.0000 C   0  0  0  0  0  0  0  0  0  0  0  0
  1  6  2  0  0  0  0
  1  7  1  0  0  0  0
  1 10  1  0  0  0  0
  2  6  1  0  0  0  0
  2  8  1  0  0  0  0
  2 11  1  0  0  0  0
  3 16  1  0  0  0  0
  3 17  1  0  0  0  0
  4 16  3  0  0  0  0
  5 17  3  0  0  0  0
  6  9  1  0  0  0  0
  7  8  2  0  0  0  0
  9 12  1  0  0  0  0
 10 13  2  0  0  0  0
 11 14  2  0  0  0  0
 12 15  2  0  0  0  0
M  CHG  1   1   1
M  END
> <PUBCHEM_COMPOUND_ID_TYPE>
0

> <PUBCHEM_TOTAL_CHARGE>
1

> <PUBCHEM_SUBSTANCE_ID>
310931653

> <PUBCHEM_SUBSTANCE_VERSION>
1

> <PUBCHEM_EXT_DATASOURCE_NAME>
4488

> <PUBCHEM_EXT_DATASOURCE_REGID>
SCHEMBL16108979

> <PUBCHEM_SUBSTANCE_COMMENT>
InChI=1S/C10H13N2.C2HN3/c1-4-7-10-11(5-2)8-9-12(10)6-3;3-1-5-2-4/h4-6,8-9H,1-3,7H2;5H/q+1;
InChIKey=CLKCDYOHEZQQEW-UHFFFAOYSA-N

> <PUBCHEM_SUBSTANCE_SYNONYM>
SCHEMBL16108979

> <PUBCHEM_XREF_EXT_ID>
SCHEMBL16108979

> <PUBCHEM_EXT_DATASOURCE_URL>
https://www.surechembl.org/

> <PUBCHEM_EXT_SUBSTANCE_URL>
https://www.surechembl.org/chemical/SCHEMBL16108979

> <PUBCHEM_CID_ASSOCIATIONS>
117600363  1
10443  2
117600128  2

> <PUBCHEM_COORDINATE_TYPE>
1
3

$$$$
