310932221
  -OEChem-07211613022D

 34 36  0     0  0  0  0  0  0999 V2000
    4.9121   -4.0934    0.0000 F   0  0  0  0  0  0  0  0  0  0  0  0
    4.2469   -5.3214    0.0000 F   0  0  0  0  0  0  0  0  0  0  0  0
    4.2469   -4.5027    0.0000 F   0  0  0  0  0  0  0  0  0  0  0  0
    2.1491   -3.9910    0.0000 O   0  0  0  0  0  0  0  0  0  0  0  0
    6.3448   -4.9121    0.0000 O   0  5  0  0  0  0  0  0  0  0  0  0
    5.6284   -6.1401    0.0000 O   0  0  0  0  0  0  0  0  0  0  0  0
    2.4560   -7.3169    0.0000 N   0  0  0  0  0  0  0  0  0  0  0  0
    2.6095   -6.4983    0.0000 N   0  0  0  0  0  0  0  0  0  0  0  0
    0.3070   -5.6284    0.0000 N   0  0  0  0  0  0  0  0  0  0  0  0
    0.7675   -4.2981    0.0000 N   0  0  0  0  0  0  0  0  0  0  0  0
    0.4094   -9.5172    0.0000 N   0  3  0  0  0  0  0  0  0  0  0  0
    1.2280   -2.9165    0.0000 N   0  0  0  0  0  0  0  0  0  0  0  0
    1.3303    0.0000    0.0000 N   0  0  0  0  0  0  0  0  0  0  0  0
    1.2792   -6.7029    0.0000 C   0  0  0  0  0  0  0  0  0  0  0  0
    1.6374   -7.4193    0.0000 C   0  0  0  0  0  0  0  0  0  0  0  0
    1.8932   -6.0889    0.0000 C   0  0  0  0  0  0  0  0  0  0  0  0
    1.2280   -8.1356    0.0000 C   0  0  0  0  0  0  0  0  0  0  0  0
    1.6885   -5.3214    0.0000 C   0  0  0  0  0  0  0  0  0  0  0  0
    0.5117   -6.3959    0.0000 C   0  0  0  0  0  0  0  0  0  0  0  0
    0.9722   -5.0656    0.0000 C   0  0  0  0  0  0  0  0  0  0  0  0
    1.6885   -8.8008    0.0000 C   0  0  0  0  0  0  0  0  0  0  0  0
    0.4094   -8.1356    0.0000 C   0  0  0  0  0  0  0  0  0  0  0  0
    1.2280   -9.5172    0.0000 C   0  0  0  0  0  0  0  0  0  0  0  0
    0.0000   -8.8008    0.0000 C   0  0  0  0  0  0  0  0  0  0  0  0
    1.3815   -3.7352    0.0000 C   0  0  0  0  0  0  0  0  0  0  0  0
    1.6374  -10.2335    0.0000 C   0  0  0  0  0  0  0  0  0  0  0  0
    4.9121   -4.9121    0.0000 C   0  0  0  0  0  0  0  0  0  0  0  0
    1.7909   -2.3537    0.0000 C   0  0  0  0  0  0  0  0  0  0  0  0
    1.6374   -1.5862    0.0000 C   0  0  0  0  0  0  0  0  0  0  0  0
    5.6284   -5.3214    0.0000 C   0  0  0  0  0  0  0  0  0  0  0  0
    2.2513   -1.0745    0.0000 C   0  0  0  0  0  0  0  0  0  0  0  0
    0.8187   -1.3815    0.0000 C   0  0  0  0  0  0  0  0  0  0  0  0
    2.0979   -0.2047    0.0000 C   0  0  0  0  0  0  0  0  0  0  0  0
    0.7164   -0.5117    0.0000 C   0  0  0  0  0  0  0  0  0  0  0  0
  1 27  1  0  0  0  0
  2 27  1  0  0  0  0
  3 27  1  0  0  0  0
  4 25  2  0  0  0  0
  5 30  1  0  0  0  0
  6 30  2  0  0  0  0
  7  8  1  0  0  0  0
  7 15  2  0  0  0  0
  8 16  1  0  0  0  0
  9 19  1  0  0  0  0
  9 20  2  0  0  0  0
 10 20  1  0  0  0  0
 10 25  1  0  0  0  0
 11 23  1  0  0  0  0
 11 24  2  0  0  0  0
 12 25  1  0  0  0  0
 12 28  1  0  0  0  0
 13 33  2  0  0  0  0
 13 34  1  0  0  0  0
 14 15  1  0  0  0  0
 14 16  1  0  0  0  0
 14 19  2  0  0  0  0
 15 17  1  0  0  0  0
 16 18  2  0  0  0  0
 17 21  1  0  0  0  0
 17 22  2  0  0  0  0
 18 20  1  0  0  0  0
 21 23  2  0  0  0  0
 22 24  1  0  0  0  0
 23 26  1  0  0  0  0
 27 30  1  0  0  0  0
 28 29  1  0  0  0  0
 29 31  2  0  0  0  0
 29 32  1  0  0  0  0
 31 33  1  0  0  0  0
 32 34  2  0  0  0  0
M  CHG  2   5  -1  11   1
M  END
> <PUBCHEM_COMPOUND_ID_TYPE>
0

> <PUBCHEM_TOTAL_CHARGE>
0

> <PUBCHEM_SUBSTANCE_ID>
310932221

> <PUBCHEM_SUBSTANCE_VERSION>
1

> <PUBCHEM_EXT_DATASOURCE_NAME>
4488

> <PUBCHEM_EXT_DATASOURCE_REGID>
SCHEMBL16109578

> <PUBCHEM_SUBSTANCE_COMMENT>
InChI=1S/C19H17N7O.C2HF3O2/c1-12-8-14(4-7-21-12)18-15-11-22-17(9-16(15)25-26-18)24-19(27)23-10-13-2-5-20-6-3-13;3-2(4,5)1(6)7/h2-9,11H,10H2,1H3,(H,25,26)(H2,22,23,24,27);(H,6,7)
InChIKey=MZRJQONJVGBUFK-UHFFFAOYSA-N

> <PUBCHEM_SUBSTANCE_SYNONYM>
SCHEMBL16109578

> <PUBCHEM_XREF_EXT_ID>
SCHEMBL16109578

> <PUBCHEM_EXT_DATASOURCE_URL>
https://www.surechembl.org/

> <PUBCHEM_EXT_SUBSTANCE_URL>
https://www.surechembl.org/chemical/SCHEMBL16109578

> <PUBCHEM_CID_ASSOCIATIONS>
117600805  1
6422  2
71555314  2

> <PUBCHEM_COORDINATE_TYPE>
1
3

$$$$
