310930604
  -OEChem-07211613022D

 21 21  0     0  0  0  0  0  0999 V2000
    0.0000   -0.8112    0.0000 Cl  0  0  0  0  0  0  0  0  0  0  0  0
    5.3481   -0.8112    0.0000 S   0  0  0  0  0  0  0  0  0  0  0  0
    5.3481   -1.6225    0.0000 O   0  0  0  0  0  0  0  0  0  0  0  0
    5.3481    0.0000    0.0000 O   0  0  0  0  0  0  0  0  0  0  0  0
    4.0862   -0.1202    0.0000 N   0  0  0  0  0  0  0  0  0  0  0  0
    3.3050   -1.5323    0.0000 N   0  0  0  0  0  0  0  0  0  0  0  0
    2.0431   -0.8112    0.0000 N   0  0  0  0  0  0  0  0  0  0  0  0
    9.0136   -0.1202    0.0000 N   0  0  0  0  0  0  0  0  0  0  0  0
    4.5369   -0.8112    0.0000 C   0  0  0  0  0  0  0  0  0  0  0  0
    6.1593   -0.8112    0.0000 C   0  0  0  0  0  0  0  0  0  0  0  0
    4.0862   -1.5323    0.0000 C   0  0  0  0  0  0  0  0  0  0  0  0
    6.5799   -0.0902    0.0000 C   0  0  0  0  0  0  0  0  0  0  0  0
    6.5799   -1.5323    0.0000 C   0  0  0  0  0  0  0  0  0  0  0  0
    2.8543   -0.8112    0.0000 C   0  0  0  0  0  0  0  0  0  0  0  0
    3.3050   -0.1202    0.0000 C   0  0  0  0  0  0  0  0  0  0  0  0
    7.7818   -0.8112    0.0000 C   0  0  0  0  0  0  0  0  0  0  0  0
    7.3611   -0.1202    0.0000 C   0  0  0  0  0  0  0  0  0  0  0  0
    7.3611   -1.5323    0.0000 C   0  0  0  0  0  0  0  0  0  0  0  0
    8.6230   -0.8112    0.0000 C   0  0  0  0  0  0  0  0  0  0  0  0
    1.6525   -0.1202    0.0000 C   0  0  0  0  0  0  0  0  0  0  0  0
    1.6525   -1.5323    0.0000 C   0  0  0  0  0  0  0  0  0  0  0  0
  2  3  2  0  0  0  0
  2  4  2  0  0  0  0
  2  9  1  0  0  0  0
  2 10  1  0  0  0  0
  5  9  1  0  0  0  0
  5 15  2  0  0  0  0
  6 11  1  0  0  0  0
  6 14  2  0  0  0  0
  7 14  1  0  0  0  0
  7 20  1  0  0  0  0
  7 21  1  0  0  0  0
  8 19  1  0  0  0  0
  9 11  2  0  0  0  0
 10 12  2  0  0  0  0
 10 13  1  0  0  0  0
 12 17  1  0  0  0  0
 13 18  2  0  0  0  0
 14 15  1  0  0  0  0
 16 17  2  0  0  0  0
 16 18  1  0  0  0  0
 16 19  1  0  0  0  0
M  END
> <PUBCHEM_COMPOUND_ID_TYPE>
0

> <PUBCHEM_TOTAL_CHARGE>
0

> <PUBCHEM_SUBSTANCE_ID>
310930604

> <PUBCHEM_SUBSTANCE_VERSION>
1

> <PUBCHEM_EXT_DATASOURCE_NAME>
4488

> <PUBCHEM_EXT_DATASOURCE_REGID>
SCHEMBL16107901

> <PUBCHEM_SUBSTANCE_COMMENT>
InChI=1S/C13H16N4O2S.ClH/c1-17(2)12-8-16-13(9-15-12)20(18,19)11-5-3-10(7-14)4-6-11;/h3-6,8-9H,7,14H2,1-2H3;1H
InChIKey=UYVJXKNOGWINQM-UHFFFAOYSA-N

> <PUBCHEM_SUBSTANCE_SYNONYM>
SCHEMBL16107901

> <PUBCHEM_XREF_EXT_ID>
SCHEMBL16107901

> <PUBCHEM_EXT_DATASOURCE_URL>
https://www.surechembl.org/

> <PUBCHEM_EXT_SUBSTANCE_URL>
https://www.surechembl.org/chemical/SCHEMBL16107901

> <PUBCHEM_CID_ASSOCIATIONS>
117599680  1
313  2
66634592  2

> <PUBCHEM_COORDINATE_TYPE>
1
3

$$$$
