310932734
  -OEChem-07211613022D

 11  9  0     1  0  0  0  0  0999 V2000
    0.0000   -1.2279    0.0000 Cl  0  0  0  0  0  0  0  0  0  0  0  0
    1.6577   -1.2279    0.0000 Cl  0  0  0  0  0  0  0  0  0  0  0  0
    5.4231   -1.6372    0.0000 N   0  0  0  0  0  0  0  0  0  0  0  0
    4.0111    0.0000    0.0000 N   0  0  0  0  0  0  0  0  0  0  0  0
    4.7273   -1.2279    0.0000 C   0  0  3  0  0  0  0  0  0  0  0  0
    4.7273   -0.3888    0.0000 C   0  0  0  0  0  0  0  0  0  0  0  0
    4.0111   -1.6372    0.0000 C   0  0  0  0  0  0  0  0  0  0  0  0
    3.2948   -1.2279    0.0000 C   0  0  0  0  0  0  0  0  0  0  0  0
    3.2948   -0.3888    0.0000 C   0  0  0  0  0  0  0  0  0  0  0  0
    5.4231   -2.4557    0.0000 C   0  0  0  0  0  0  0  0  0  0  0  0
    6.1394   -1.2279    0.0000 C   0  0  0  0  0  0  0  0  0  0  0  0
  5  3  1  1  0  0  0
  3 10  1  0  0  0  0
  3 11  1  0  0  0  0
  4  6  1  0  0  0  0
  4  9  1  0  0  0  0
  5  6  1  0  0  0  0
  5  7  1  0  0  0  0
  7  8  1  0  0  0  0
  8  9  1  0  0  0  0
M  END
> <PUBCHEM_COMPOUND_ID_TYPE>
0

> <PUBCHEM_TOTAL_CHARGE>
0

> <PUBCHEM_SUBSTANCE_ID>
310932734

> <PUBCHEM_SUBSTANCE_VERSION>
1

> <PUBCHEM_EXT_DATASOURCE_NAME>
4488

> <PUBCHEM_EXT_DATASOURCE_REGID>
SCHEMBL16110118

> <PUBCHEM_SUBSTANCE_COMMENT>
InChI=1S/C7H16N2.2ClH/c1-9(2)7-4-3-5-8-6-7;;/h7-8H,3-6H2,1-2H3;2*1H/t7-;;/m0../s1
InChIKey=DCCNBWACOPXKMO-KLXURFKVSA-N

> <PUBCHEM_SUBSTANCE_SYNONYM>
SCHEMBL16110118

> <PUBCHEM_XREF_EXT_ID>
SCHEMBL16110118

> <PUBCHEM_EXT_DATASOURCE_URL>
https://www.surechembl.org/

> <PUBCHEM_EXT_SUBSTANCE_URL>
https://www.surechembl.org/chemical/SCHEMBL16110118

> <PUBCHEM_CID_ASSOCIATIONS>
117601240  1
313  2
7330588  2

> <PUBCHEM_COORDINATE_TYPE>
1
3

> <PUBCHEM_BONDANNOTATIONS>
5  3  5

$$$$
