310938315
  -OEChem-07211613022D

 27 27  0     1  0  0  0  0  0999 V2000
    0.0000   -2.3335    0.0000 Cl  0  0  0  0  0  0  0  0  0  0  0  0
    5.6003   -1.3534    0.0000 O   0  0  0  0  0  0  0  0  0  0  0  0
    3.5702    0.0000    0.0000 O   0  0  0  0  0  0  0  0  0  0  0  0
    5.6003   -2.8001    0.0000 O   0  0  0  0  0  0  0  0  0  0  0  0
    4.4802   -2.0068    0.0000 O   0  0  0  0  0  0  0  0  0  0  0  0
    3.8735   -1.4001    0.0000 N   0  0  0  0  0  0  0  0  0  0  0  0
    5.4836   -1.0500    0.0000 N   0  0  0  0  0  0  0  0  0  0  0  0
    6.5570   -2.2401    0.0000 N   0  0  0  0  0  0  0  0  0  0  0  0
    3.0802   -1.6334    0.0000 C   0  0  0  0  0  0  0  0  0  0  0  0
    4.3636   -2.0768    0.0000 C   0  0  3  0  0  0  0  0  0  0  0  0
    3.0802   -2.4968    0.0000 C   0  0  0  0  0  0  0  0  0  0  0  0
    3.8735   -2.7301    0.0000 C   0  0  0  0  0  0  0  0  0  0  0  0
    4.1302   -0.6067    0.0000 C   0  0  0  0  0  0  0  0  0  0  0  0
    5.1803   -2.0768    0.0000 C   0  0  0  0  0  0  0  0  0  0  0  0
    2.3568   -1.2367    0.0000 C   0  0  0  0  0  0  0  0  0  0  0  0
    2.3568   -2.8935    0.0000 C   0  0  0  0  0  0  0  0  0  0  0  0
    4.9235   -0.4434    0.0000 C   0  0  0  0  0  0  0  0  0  0  0  0
    1.6567   -1.6334    0.0000 C   0  0  0  0  0  0  0  0  0  0  0  0
    1.6567   -2.4968    0.0000 C   0  0  0  0  0  0  0  0  0  0  0  0
    5.2503   -1.8434    0.0000 C   0  0  0  0  0  0  0  0  0  0  0  0
    5.7636   -2.4268    0.0000 C   0  0  3  0  0  0  0  0  0  0  0  0
    6.4170   -1.3534    0.0000 C   0  0  0  0  0  0  0  0  0  0  0  0
    5.5536   -3.1968    0.0000 C   0  0  3  0  0  0  0  0  0  0  0  0
    6.1603   -3.8035    0.0000 C   0  0  0  0  0  0  0  0  0  0  0  0
    6.8370   -0.6301    0.0000 C   0  0  0  0  0  0  0  0  0  0  0  0
    4.7369   -3.4068    0.0000 C   0  0  0  0  0  0  0  0  0  0  0  0
    5.7636   -4.6669    0.0000 C   0  0  0  0  0  0  0  0  0  0  0  0
  2 14  1  0  0  0  0
  2 22  1  0  0  0  0
  3 13  2  0  0  0  0
  4 14  2  0  0  0  0
  5 20  2  0  0  0  0
  6  9  1  0  0  0  0
  6 10  1  0  0  0  0
  6 13  1  0  0  0  0
  7 17  1  0  0  0  0
  7 20  1  0  0  0  0
 21  8  1  1  0  0  0
  9 11  2  0  0  0  0
  9 15  1  0  0  0  0
 10 12  1  0  0  0  0
 10 14  1  0  0  0  0
 11 12  1  0  0  0  0
 11 16  1  0  0  0  0
 13 17  1  0  0  0  0
 15 18  2  0  0  0  0
 16 19  2  0  0  0  0
 18 19  1  0  0  0  0
 20 21  1  0  0  0  0
 21 23  1  0  0  0  0
 22 25  1  0  0  0  0
 23 24  1  0  0  0  0
 23 26  1  6  0  0  0
 24 27  1  0  0  0  0
M  END
> <PUBCHEM_COMPOUND_ID_TYPE>
0

> <PUBCHEM_TOTAL_CHARGE>
0

> <PUBCHEM_SUBSTANCE_ID>
310938315

> <PUBCHEM_SUBSTANCE_VERSION>
1

> <PUBCHEM_EXT_DATASOURCE_NAME>
4488

> <PUBCHEM_EXT_DATASOURCE_REGID>
SCHEMBL16116190

> <PUBCHEM_SUBSTANCE_COMMENT>
InChI=1S/C19H27N3O4.ClH/c1-4-12(3)17(20)18(24)21-11-16(23)22-14-9-7-6-8-13(14)10-15(22)19(25)26-5-2;/h6-9,12,15,17H,4-5,10-11,20H2,1-3H3,(H,21,24);1H/t12-,15?,17-;/m0./s1
InChIKey=JKLQBIYNXGLZLC-GFUUQXOBSA-N

> <PUBCHEM_SUBSTANCE_SYNONYM>
SCHEMBL16116190

> <PUBCHEM_XREF_EXT_ID>
SCHEMBL16116190

> <PUBCHEM_EXT_DATASOURCE_URL>
https://www.surechembl.org/

> <PUBCHEM_EXT_SUBSTANCE_URL>
https://www.surechembl.org/chemical/SCHEMBL16116190

> <PUBCHEM_CID_ASSOCIATIONS>
117605813  1
313  2
117605814  2

> <PUBCHEM_COORDINATE_TYPE>
1
3

> <PUBCHEM_BONDANNOTATIONS>
23  26  6
21  8  5

$$$$
