310932107
  -OEChem-07211613022D

 20 18  0     0  0  0  0  0  0999 V2000
    0.0000   -0.4125    0.0000 S   0  0  0  0  0  0  0  0  0  0  0  0
    0.0000    1.2375    0.0000 F   0  0  0  0  0  0  0  0  0  0  0  0
    0.8250    0.4125    0.0000 F   0  0  0  0  0  0  0  0  0  0  0  0
   -0.8250    0.4125    0.0000 F   0  0  0  0  0  0  0  0  0  0  0  0
    0.8250   -0.4125    0.0000 O   0  0  0  0  0  0  0  0  0  0  0  0
   -0.8250   -0.4125    0.0000 O   0  0  0  0  0  0  0  0  0  0  0  0
    0.0000   -1.2375    0.0000 O   0  0  0  0  0  0  0  0  0  0  0  0
    7.3511    1.0312    0.0000 O   0  0  0  0  0  0  0  0  0  0  0  0
    3.7788   -0.2062    0.0000 N   0  3  0  0  0  0  0  0  0  0  0  0
    6.6366   -0.2063    0.0000 N   0  0  0  0  0  0  0  0  0  0  0  0
    0.0000    0.4125    0.0000 C   0  0  0  0  0  0  0  0  0  0  0  0
    4.4932    0.2063    0.0000 C   0  0  0  0  0  0  0  0  0  0  0  0
    5.2077   -0.2063    0.0000 C   0  0  0  0  0  0  0  0  0  0  0  0
    7.3511    0.2062    0.0000 C   0  0  0  0  0  0  0  0  0  0  0  0
    5.9222    0.2063    0.0000 C   0  0  0  0  0  0  0  0  0  0  0  0
    3.0643   -0.6187    0.0000 C   0  0  0  0  0  0  0  0  0  0  0  0
    4.1913   -0.9207    0.0000 C   0  0  0  0  0  0  0  0  0  0  0  0
    3.3663    0.5082    0.0000 C   0  0  0  0  0  0  0  0  0  0  0  0
    8.0656   -0.2063    0.0000 C   0  0  0  0  0  0  0  0  0  0  0  0
    8.7801    0.2062    0.0000 C   0  0  0  0  0  0  0  0  0  0  0  0
  1  5  2  0  0  0  0
  1  6  2  0  0  0  0
  1  7  1  0  0  0  0
  1 11  1  0  0  0  0
  2 11  1  0  0  0  0
  3 11  1  0  0  0  0
  4 11  1  0  0  0  0
  8 14  2  0  0  0  0
  9 12  1  0  0  0  0
  9 16  1  0  0  0  0
  9 17  1  0  0  0  0
  9 18  1  0  0  0  0
 10 14  1  0  0  0  0
 10 15  1  0  0  0  0
 12 13  1  0  0  0  0
 13 15  1  0  0  0  0
 14 19  1  0  0  0  0
 19 20  2  0  0  0  0
M  CHG  1   9   1
M  END
> <PUBCHEM_COMPOUND_ID_TYPE>
0

> <PUBCHEM_TOTAL_CHARGE>
1

> <PUBCHEM_SUBSTANCE_ID>
310932107

> <PUBCHEM_SUBSTANCE_VERSION>
1

> <PUBCHEM_EXT_DATASOURCE_NAME>
4488

> <PUBCHEM_EXT_DATASOURCE_REGID>
SCHEMBL16109456

> <PUBCHEM_SUBSTANCE_COMMENT>
InChI=1S/C9H18N2O.CHF3O3S/c1-5-9(12)10-7-6-8-11(2,3)4;2-1(3,4)8(5,6)7/h5H,1,6-8H2,2-4H3;(H,5,6,7)/p+1
InChIKey=RVDLDHPOVVFFOP-UHFFFAOYSA-O

> <PUBCHEM_SUBSTANCE_SYNONYM>
SCHEMBL16109456

> <PUBCHEM_XREF_EXT_ID>
SCHEMBL16109456

> <PUBCHEM_EXT_DATASOURCE_URL>
https://www.surechembl.org/

> <PUBCHEM_EXT_SUBSTANCE_URL>
https://www.surechembl.org/chemical/SCHEMBL16109456

> <PUBCHEM_CID_ASSOCIATIONS>
117600726  1
62406  2
156323  2

> <PUBCHEM_COORDINATE_TYPE>
1
3

$$$$
