310936436
  -OEChem-07211613022D

 15 14  0     0  0  0  0  0  0999 V2000
    0.0000   -2.0625    0.0000 Cl  0  0  0  0  0  0  0  0  0  0  0  0
    3.0937   -1.2375    0.0000 O   0  0  0  0  0  0  0  0  0  0  0  0
    3.7949   -1.6499    0.0000 O   0  0  0  0  0  0  0  0  0  0  0  0
    4.5167   -2.8874    0.0000 O   0  0  0  0  0  0  0  0  0  0  0  0
    1.6499   -1.2375    0.0000 N   0  0  0  0  0  0  0  0  0  0  0  0
    2.3718   -2.4749    0.0000 C   0  0  0  0  0  0  0  0  0  0  0  0
    3.0730   -2.8874    0.0000 C   0  0  0  0  0  0  0  0  0  0  0  0
    2.3718   -1.6499    0.0000 C   0  0  0  0  0  0  0  0  0  0  0  0
    3.7949   -2.4749    0.0000 C   0  0  0  0  0  0  0  0  0  0  0  0
    1.6499   -2.8874    0.0000 C   0  0  0  0  0  0  0  0  0  0  0  0
    3.0730   -3.7124    0.0000 C   0  0  0  0  0  0  0  0  0  0  0  0
    1.6499   -3.7124    0.0000 C   0  0  0  0  0  0  0  0  0  0  0  0
    2.3718   -4.1249    0.0000 C   0  0  0  0  0  0  0  0  0  0  0  0
    3.0937   -0.4125    0.0000 C   0  0  0  0  0  0  0  0  0  0  0  0
    2.3718    0.0000    0.0000 C   0  0  0  0  0  0  0  0  0  0  0  0
  2  8  1  0  0  0  0
  2 14  1  0  0  0  0
  3  9  2  0  0  0  0
  4  9  1  0  0  0  0
  5  8  2  3  0  0  0
  6  7  2  0  0  0  0
  6  8  1  0  0  0  0
  6 10  1  0  0  0  0
  7  9  1  0  0  0  0
  7 11  1  0  0  0  0
 10 12  2  0  0  0  0
 11 13  2  0  0  0  0
 12 13  1  0  0  0  0
 14 15  1  0  0  0  0
M  END
> <PUBCHEM_COMPOUND_ID_TYPE>
0

> <PUBCHEM_TOTAL_CHARGE>
0

> <PUBCHEM_SUBSTANCE_ID>
310936436

> <PUBCHEM_SUBSTANCE_VERSION>
1

> <PUBCHEM_EXT_DATASOURCE_NAME>
4488

> <PUBCHEM_EXT_DATASOURCE_REGID>
SCHEMBL16114077

> <PUBCHEM_SUBSTANCE_COMMENT>
InChI=1S/C10H11NO3.ClH/c1-2-14-9(11)7-5-3-4-6-8(7)10(12)13;/h3-6,11H,2H2,1H3,(H,12,13);1H
InChIKey=ZHEREIMHEXECTA-UHFFFAOYSA-N

> <PUBCHEM_SUBSTANCE_SYNONYM>
SCHEMBL16114077

> <PUBCHEM_XREF_EXT_ID>
SCHEMBL16114077

> <PUBCHEM_EXT_DATASOURCE_URL>
https://www.surechembl.org/

> <PUBCHEM_EXT_SUBSTANCE_URL>
https://www.surechembl.org/chemical/SCHEMBL16114077

> <PUBCHEM_CID_ASSOCIATIONS>
117604369  1
313  2
53403755  2

> <PUBCHEM_COORDINATE_TYPE>
1
3

$$$$
