310931423
  -OEChem-07211613022D

 14 13  0     1  0  0  0  0  0999 V2000
    0.0000   -2.0624    0.0000 Cl  0  0  0  0  0  0  0  0  0  0  0  0
    1.6499   -2.0624    0.0000 Cl  0  0  0  0  0  0  0  0  0  0  0  0
    4.0218   -2.4749    0.0000 N   0  0  0  0  0  0  0  0  0  0  0  0
    4.7230   -0.4125    0.0000 N   0  0  0  0  0  0  0  0  0  0  0  0
    4.0218   -1.6499    0.0000 C   0  0  3  0  0  0  0  0  0  0  0  0
    4.7230   -1.2375    0.0000 C   0  0  0  0  0  0  0  0  0  0  0  0
    3.2999   -1.2375    0.0000 C   0  0  0  0  0  0  0  0  0  0  0  0
    4.7436   -2.8874    0.0000 C   0  0  0  0  0  0  0  0  0  0  0  0
    3.2999   -2.8874    0.0000 C   0  0  0  0  0  0  0  0  0  0  0  0
    3.2999   -0.4125    0.0000 C   0  0  0  0  0  0  0  0  0  0  0  0
    4.7436   -3.7124    0.0000 C   0  0  0  0  0  0  0  0  0  0  0  0
    3.2999   -3.7124    0.0000 C   0  0  0  0  0  0  0  0  0  0  0  0
    4.0011    0.0000    0.0000 C   0  0  0  0  0  0  0  0  0  0  0  0
    4.0218   -4.1249    0.0000 C   0  0  0  0  0  0  0  0  0  0  0  0
  3  5  1  0  0  0  0
  3  8  1  0  0  0  0
  3  9  1  0  0  0  0
  4  6  1  0  0  0  0
  4 13  1  0  0  0  0
  5  6  1  0  0  0  0
  5  7  1  0  0  0  0
  7 10  1  0  0  0  0
  8 11  1  0  0  0  0
  9 12  1  0  0  0  0
 10 13  1  0  0  0  0
 11 14  1  0  0  0  0
 12 14  1  0  0  0  0
M  END
> <PUBCHEM_COMPOUND_ID_TYPE>
0

> <PUBCHEM_TOTAL_CHARGE>
0

> <PUBCHEM_SUBSTANCE_ID>
310931423

> <PUBCHEM_SUBSTANCE_VERSION>
1

> <PUBCHEM_EXT_DATASOURCE_NAME>
4488

> <PUBCHEM_EXT_DATASOURCE_REGID>
SCHEMBL16108748

> <PUBCHEM_SUBSTANCE_COMMENT>
InChI=1S/C10H20N2.2ClH/c1-2-7-12(8-3-1)10-5-4-6-11-9-10;;/h10-11H,1-9H2;2*1H
InChIKey=SASUWRULVYMOOF-UHFFFAOYSA-N

> <PUBCHEM_SUBSTANCE_SYNONYM>
SCHEMBL16108748

> <PUBCHEM_XREF_EXT_ID>
SCHEMBL16108748

> <PUBCHEM_EXT_DATASOURCE_URL>
https://www.surechembl.org/

> <PUBCHEM_EXT_SUBSTANCE_URL>
https://www.surechembl.org/chemical/SCHEMBL16108748

> <PUBCHEM_CID_ASSOCIATIONS>
53409166  1
313  2
21278309  2

> <PUBCHEM_COORDINATE_TYPE>
1
3

$$$$
