310931960
  -OEChem-07211613022D

 13 12  0     0  0  0  0  0  0999 V2000
    4.0689   -1.8529    0.0000 S   0  5  0  0  0  0  0  0  0  0  0  0
    0.7832   -2.7508    0.0000 N   0  3  0  0  0  0  0  0  0  0  0  0
    0.7832   -1.3945    0.0000 N   0  0  0  0  0  0  0  0  0  0  0  0
    5.7308   -1.8529    0.0000 N   0  0  0  0  0  0  0  0  0  0  0  0
    1.2608   -2.0631    0.0000 C   0  0  0  0  0  0  0  0  0  0  0  0
    0.0000   -2.4834    0.0000 C   0  0  0  0  0  0  0  0  0  0  0  0
    0.0000   -1.6619    0.0000 C   0  0  0  0  0  0  0  0  0  0  0  0
    1.0506   -3.5340    0.0000 C   0  0  0  0  0  0  0  0  0  0  0  0
    1.0506   -0.6113    0.0000 C   0  0  0  0  0  0  0  0  0  0  0  0
    1.8529   -3.7059    0.0000 C   0  0  0  0  0  0  0  0  0  0  0  0
    0.4776    0.0000    0.0000 C   0  0  0  0  0  0  0  0  0  0  0  0
    2.4070   -3.0947    0.0000 C   0  0  0  0  0  0  0  0  0  0  0  0
    4.8903   -1.8529    0.0000 C   0  0  0  0  0  0  0  0  0  0  0  0
  1 13  1  0  0  0  0
  2  5  2  0  0  0  0
  2  6  1  0  0  0  0
  2  8  1  0  0  0  0
  3  5  1  0  0  0  0
  3  7  1  0  0  0  0
  3  9  1  0  0  0  0
  4 13  3  0  0  0  0
  6  7  2  0  0  0  0
  8 10  1  0  0  0  0
  9 11  2  0  0  0  0
 10 12  2  0  0  0  0
M  CHG  2   1  -1   2   1
M  END
> <PUBCHEM_COMPOUND_ID_TYPE>
0

> <PUBCHEM_TOTAL_CHARGE>
0

> <PUBCHEM_SUBSTANCE_ID>
310931960

> <PUBCHEM_SUBSTANCE_VERSION>
1

> <PUBCHEM_EXT_DATASOURCE_NAME>
4488

> <PUBCHEM_EXT_DATASOURCE_REGID>
SCHEMBL16109297

> <PUBCHEM_SUBSTANCE_COMMENT>
InChI=1S/C8H11N2.CHNS/c1-3-5-10-7-6-9(4-2)8-10;2-1-3/h3-4,6-8H,1-2,5H2;3H/q+1;/p-1
InChIKey=ZBHSKONYSWELRX-UHFFFAOYSA-M

> <PUBCHEM_SUBSTANCE_SYNONYM>
SCHEMBL16109297

> <PUBCHEM_XREF_EXT_ID>
SCHEMBL16109297

> <PUBCHEM_EXT_DATASOURCE_URL>
https://www.surechembl.org/

> <PUBCHEM_EXT_SUBSTANCE_URL>
https://www.surechembl.org/chemical/SCHEMBL16109297

> <PUBCHEM_CID_ASSOCIATIONS>
117600609  1
781  2
59538260  2

> <PUBCHEM_COORDINATE_TYPE>
1
3

$$$$
