310930190
  -OEChem-07211613022D

 19 18  0     0  0  0  0  0  0999 V2000
    6.1023   -1.4738    0.0000 S   0  0  0  0  0  0  0  0  0  0  0  0
    7.3434   -2.1979    0.0000 F   0  0  0  0  0  0  0  0  0  0  0  0
    7.3434   -0.7757    0.0000 F   0  0  0  0  0  0  0  0  0  0  0  0
    7.7572   -1.4738    0.0000 F   0  0  0  0  0  0  0  0  0  0  0  0
    5.3007   -1.4738    0.0000 O   0  5  0  0  0  0  0  0  0  0  0  0
    6.1023   -0.5689    0.0000 O   0  0  0  0  0  0  0  0  0  0  0  0
    6.1023   -2.2754    0.0000 O   0  0  0  0  0  0  0  0  0  0  0  0
    2.4306   -1.3963    0.0000 N   0  3  0  0  0  0  0  0  0  0  0  0
    6.9297   -1.4738    0.0000 C   0  0  0  0  0  0  0  0  0  0  0  0
    3.2321   -1.3963    0.0000 C   0  0  0  0  0  0  0  0  0  0  0  0
    1.9910   -0.6981    0.0000 C   0  0  0  0  0  0  0  0  0  0  0  0
    3.6717   -0.6981    0.0000 C   0  0  0  0  0  0  0  0  0  0  0  0
    2.0427   -2.1203    0.0000 C   0  0  0  0  0  0  0  0  0  0  0  0
    2.4306    0.0000    0.0000 C   0  0  0  0  0  0  0  0  0  0  0  0
    3.2321    0.0000    0.0000 C   0  0  0  0  0  0  0  0  0  0  0  0
    3.6459   -2.1203    0.0000 C   0  0  0  0  0  0  0  0  0  0  0  0
    1.2153   -2.1203    0.0000 C   0  0  0  0  0  0  0  0  0  0  0  0
    0.8016   -2.8443    0.0000 C   0  0  0  0  0  0  0  0  0  0  0  0
    0.0000   -2.8701    0.0000 C   0  0  0  0  0  0  0  0  0  0  0  0
  1  5  1  0  0  0  0
  1  6  2  0  0  0  0
  1  7  2  0  0  0  0
  1  9  1  0  0  0  0
  2  9  1  0  0  0  0
  3  9  1  0  0  0  0
  4  9  1  0  0  0  0
  8 10  1  0  0  0  0
  8 11  2  0  0  0  0
  8 13  1  0  0  0  0
 10 12  2  0  0  0  0
 10 16  1  0  0  0  0
 11 14  1  0  0  0  0
 12 15  1  0  0  0  0
 13 17  1  0  0  0  0
 14 15  2  0  0  0  0
 17 18  1  0  0  0  0
 18 19  1  0  0  0  0
M  CHG  2   5  -1   8   1
M  END
> <PUBCHEM_COMPOUND_ID_TYPE>
0

> <PUBCHEM_TOTAL_CHARGE>
0

> <PUBCHEM_SUBSTANCE_ID>
310930190

> <PUBCHEM_SUBSTANCE_VERSION>
1

> <PUBCHEM_EXT_DATASOURCE_NAME>
4488

> <PUBCHEM_EXT_DATASOURCE_REGID>
SCHEMBL16107453

> <PUBCHEM_SUBSTANCE_COMMENT>
InChI=1S/C10H16N.CHF3O3S/c1-3-4-8-11-9-6-5-7-10(11)2;2-1(3,4)8(5,6)7/h5-7,9H,3-4,8H2,1-2H3;(H,5,6,7)/q+1;/p-1
InChIKey=MLOOVQAZYDNHIQ-UHFFFAOYSA-M

> <PUBCHEM_SUBSTANCE_SYNONYM>
SCHEMBL16107453

> <PUBCHEM_XREF_EXT_ID>
SCHEMBL16107453

> <PUBCHEM_EXT_DATASOURCE_URL>
https://www.surechembl.org/

> <PUBCHEM_EXT_SUBSTANCE_URL>
https://www.surechembl.org/chemical/SCHEMBL16107453

> <PUBCHEM_CID_ASSOCIATIONS>
60196390  1
62406  2
13240378  2

> <PUBCHEM_COORDINATE_TYPE>
1
3

$$$$
