310938513
  -OEChem-07211613022D

 34 35  0     0  0  0  0  0  0999 V2000
    5.6253    1.5000    0.0000 Cl  0  0  0  0  0  0  0  0  0  0  0  0
   -0.9009    0.9147    0.0000 O   0  0  0  0  0  0  0  0  0  0  0  0
   -0.9009    0.0897    0.0000 O   0  0  0  0  0  0  0  0  0  0  0  0
    0.5281   -2.3853    0.0000 O   0  0  0  0  0  0  0  0  0  0  0  0
   -0.9009    2.5647    0.0000 O   0  0  0  0  0  0  0  0  0  0  0  0
    4.1963    0.6750    0.0000 O   0  0  0  0  0  0  0  0  0  0  0  0
    4.1963   -0.9750    0.0000 O   0  0  0  0  0  0  0  0  0  0  0  0
   -0.1864   -1.1478    0.0000 N   0  0  0  0  0  0  0  0  0  0  0  0
    1.2426   -0.3228    0.0000 N   0  0  0  0  0  0  0  0  0  0  0  0
    1.2426   -1.1478    0.0000 N   0  0  0  0  0  0  0  0  0  0  0  0
    0.5281    2.5647    0.0000 N   0  0  0  0  0  0  0  0  0  0  0  0
    1.2426    2.1522    0.0000 N   0  0  0  0  0  0  0  0  0  0  0  0
    5.6253   -0.9750    0.0000 N   0  0  0  0  0  0  0  0  0  0  0  0
    6.3397   -0.5625    0.0000 N   0  0  0  0  0  0  0  0  0  0  0  0
    0.5281    0.0897    0.0000 C   0  0  0  0  0  0  0  0  0  0  0  0
    0.5281    0.9147    0.0000 C   0  0  0  0  0  0  0  0  0  0  0  0
   -0.1864   -0.3228    0.0000 C   0  0  0  0  0  0  0  0  0  0  0  0
   -0.1864    1.3272    0.0000 C   0  0  0  0  0  0  0  0  0  0  0  0
    0.5281   -1.5603    0.0000 C   0  0  0  0  0  0  0  0  0  0  0  0
   -0.1864    2.1522    0.0000 C   0  0  0  0  0  0  0  0  0  0  0  0
    1.2426    1.3272    0.0000 C   0  0  0  0  0  0  0  0  0  0  0  0
   -0.9009   -1.5603    0.0000 C   0  0  0  0  0  0  0  0  0  0  0  0
    1.9570   -1.5603    0.0000 C   0  0  0  0  0  0  0  0  0  0  0  0
    4.9108    0.2625    0.0000 C   0  0  0  0  0  0  0  0  0  0  0  0
    4.9108   -0.5625    0.0000 C   0  0  0  0  0  0  0  0  0  0  0  0
    5.6253    0.6750    0.0000 C   0  0  0  0  0  0  0  0  0  0  0  0
    0.5281    3.3897    0.0000 C   0  0  0  0  0  0  0  0  0  0  0  0
   -0.9009   -2.3853    0.0000 C   0  0  0  0  0  0  0  0  0  0  0  0
    6.3397    0.2625    0.0000 C   0  0  0  0  0  0  0  0  0  0  0  0
   -1.6153    1.3272    0.0000 C   0  0  0  0  0  0  0  0  0  0  0  0
   -1.6153   -2.7978    0.0000 C   0  0  0  0  0  0  0  0  0  0  0  0
    5.6253   -1.8000    0.0000 C   0  0  0  0  0  0  0  0  0  0  0  0
    4.1963    1.5000    0.0000 C   0  0  0  0  0  0  0  0  0  0  0  0
   -1.6153   -3.6228    0.0000 C   0  0  0  0  0  0  0  0  0  0  0  0
  1 26  1  0  0  0  0
  2 18  1  0  0  0  0
  2 30  1  0  0  0  0
  3 17  2  0  0  0  0
  4 19  2  0  0  0  0
  5 20  2  0  0  0  0
  6 24  1  0  0  0  0
  6 33  1  0  0  0  0
  7 25  2  0  0  0  0
  8 17  1  0  0  0  0
  8 19  1  0  0  0  0
  8 22  1  0  0  0  0
  9 10  1  0  0  0  0
  9 15  2  0  0  0  0
 10 19  1  0  0  0  0
 10 23  1  0  0  0  0
 11 12  1  0  0  0  0
 11 20  1  0  0  0  0
 11 27  1  0  0  0  0
 12 21  2  0  0  0  0
 13 14  1  0  0  0  0
 13 25  1  0  0  0  0
 13 32  1  0  0  0  0
 14 29  2  0  0  0  0
 15 16  1  0  0  0  0
 15 17  1  0  0  0  0
 16 18  2  0  0  0  0
 16 21  1  0  0  0  0
 18 20  1  0  0  0  0
 22 28  1  0  0  0  0
 24 25  1  0  0  0  0
 24 26  2  0  0  0  0
 26 29  1  0  0  0  0
 28 31  1  0  0  0  0
 31 34  1  0  0  0  0
M  END
> <PUBCHEM_COMPOUND_ID_TYPE>
0

> <PUBCHEM_TOTAL_CHARGE>
0

> <PUBCHEM_SUBSTANCE_ID>
310938513

> <PUBCHEM_SUBSTANCE_VERSION>
1

> <PUBCHEM_EXT_DATASOURCE_NAME>
4488

> <PUBCHEM_EXT_DATASOURCE_REGID>
SCHEMBL16116420

> <PUBCHEM_SUBSTANCE_COMMENT>
InChI=1S/C14H19N5O4.C6H7ClN2O2/c1-5-6-7-19-12(20)10(16-18(3)14(19)22)9-8-15-17(2)13(21)11(9)23-4;1-9-6(10)5(11-2)4(7)3-8-9/h8H,5-7H2,1-4H3;3H,1-2H3
InChIKey=BGEZCRJOYXUGNL-UHFFFAOYSA-N

> <PUBCHEM_SUBSTANCE_SYNONYM>
SCHEMBL16116420

> <PUBCHEM_XREF_EXT_ID>
SCHEMBL16116420

> <PUBCHEM_EXT_DATASOURCE_URL>
https://www.surechembl.org/

> <PUBCHEM_EXT_SUBSTANCE_URL>
https://www.surechembl.org/chemical/SCHEMBL16116420

> <PUBCHEM_CID_ASSOCIATIONS>
117605967  1
13526205  2
117605361  2

> <PUBCHEM_COORDINATE_TYPE>
1
3

$$$$
