310937711
  -OEChem-07211613022D

 33 36  0     1  0  0  0  0  0999 V2000
   -1.7200    2.8264    0.0000 S   0  0  0  0  0  0  0  0  0  0  0  0
    1.1379    2.0014    0.0000 O   0  0  0  0  0  0  0  0  0  0  0  0
   -0.2911   -2.1236    0.0000 O   0  0  0  0  0  0  0  0  0  0  0  0
    2.5668   -2.1236    0.0000 O   0  0  0  0  0  0  0  0  0  0  0  0
    1.1379    0.3514    0.0000 N   0  0  0  0  0  0  0  0  0  0  0  0
   -0.2911    2.0014    0.0000 N   0  0  0  0  0  0  0  0  0  0  0  0
    0.4234    0.7639    0.0000 C   0  0  3  0  0  0  0  0  0  0  0  0
    0.4234    1.5889    0.0000 C   0  0  0  0  0  0  0  0  0  0  0  0
   -0.2911    0.3514    0.0000 C   0  0  0  0  0  0  0  0  0  0  0  0
    5.4027    0.4125    0.0000 C   0  0  0  0  0  0  0  0  0  0  0  0
    5.4027   -0.4125    0.0000 C   0  0  0  0  0  0  0  0  0  0  0  0
    1.1379   -0.4736    0.0000 C   0  0  0  0  0  0  0  0  0  0  0  0
    4.6882    0.0000    0.0000 C   0  0  0  0  0  0  0  0  0  0  0  0
    1.8523   -0.8861    0.0000 C   0  0  0  0  0  0  0  0  0  0  0  0
    0.4234   -0.8861    0.0000 C   0  0  0  0  0  0  0  0  0  0  0  0
    0.4234   -1.7111    0.0000 C   0  0  0  0  0  0  0  0  0  0  0  0
    1.8523   -1.7111    0.0000 C   0  0  0  0  0  0  0  0  0  0  0  0
   -0.2911   -0.4736    0.0000 C   0  0  0  0  0  0  0  0  0  0  0  0
   -1.0056    0.7639    0.0000 C   0  0  0  0  0  0  0  0  0  0  0  0
    6.1873    0.6674    0.0000 C   0  0  0  0  0  0  0  0  0  0  0  0
    6.1873   -0.6674    0.0000 C   0  0  0  0  0  0  0  0  0  0  0  0
    1.1379   -2.1236    0.0000 C   0  0  0  0  0  0  0  0  0  0  0  0
    6.6722   -0.0000    0.0000 C   0  0  0  0  0  0  0  0  0  0  0  0
   -0.2911    2.8264    0.0000 C   0  0  0  0  0  0  0  0  0  0  0  0
   -1.0056    1.5889    0.0000 C   0  0  0  0  0  0  0  0  0  0  0  0
   -1.7200   -0.4736    0.0000 C   0  0  0  0  0  0  0  0  0  0  0  0
   -1.0056   -0.8861    0.0000 C   0  0  0  0  0  0  0  0  0  0  0  0
   -1.7200    0.3514    0.0000 C   0  0  0  0  0  0  0  0  0  0  0  0
   -1.0056    3.2389    0.0000 C   0  0  0  0  0  0  0  0  0  0  0  0
   -1.7200    2.0014    0.0000 C   0  0  0  0  0  0  0  0  0  0  0  0
   -2.4345   -0.8861    0.0000 C   0  0  0  0  0  0  0  0  0  0  0  0
   -0.2911   -2.9486    0.0000 C   0  0  0  0  0  0  0  0  0  0  0  0
    2.5668   -2.9486    0.0000 C   0  0  0  0  0  0  0  0  0  0  0  0
  1 29  1  0  0  0  0
  1 30  1  0  0  0  0
  2  8  2  0  0  0  0
  3 16  1  0  0  0  0
  3 32  1  0  0  0  0
  4 17  1  0  0  0  0
  4 33  1  0  0  0  0
  5  7  1  0  0  0  0
  5 12  1  0  0  0  0
  6  8  1  0  0  0  0
  6 24  1  0  0  0  0
  6 25  1  0  0  0  0
  7  8  1  0  0  0  0
  7  9  1  0  0  0  0
  9 18  2  0  0  0  0
  9 19  1  0  0  0  0
 10 11  1  0  0  0  0
 10 13  2  0  0  0  0
 10 20  1  0  0  0  0
 11 13  1  0  0  0  0
 11 21  2  0  0  0  0
 12 14  2  0  0  0  0
 12 15  1  0  0  0  0
 14 17  1  0  0  0  0
 15 16  2  0  0  0  0
 16 22  1  0  0  0  0
 17 22  2  0  0  0  0
 18 27  1  0  0  0  0
 19 28  2  0  0  0  0
 20 23  2  0  0  0  0
 21 23  1  0  0  0  0
 24 29  1  0  0  0  0
 25 30  1  0  0  0  0
 26 27  2  0  0  0  0
 26 28  1  0  0  0  0
 26 31  1  0  0  0  0
M  END
> <PUBCHEM_COMPOUND_ID_TYPE>
0

> <PUBCHEM_TOTAL_CHARGE>
0

> <PUBCHEM_SUBSTANCE_ID>
310937711

> <PUBCHEM_SUBSTANCE_VERSION>
1

> <PUBCHEM_EXT_DATASOURCE_NAME>
4488

> <PUBCHEM_EXT_DATASOURCE_REGID>
SCHEMBL16115505

> <PUBCHEM_SUBSTANCE_COMMENT>
InChI=1S/C21H26N2O3S.C6H4/c1-15-4-6-16(7-5-15)20(21(24)23-8-10-27-11-9-23)22-17-12-18(25-2)14-19(13-17)26-3;1-2-5-4-6(5)3-1/h4-7,12-14,20,22H,8-11H2,1-3H3;1-4H
InChIKey=FBVMERCSEYYSGJ-UHFFFAOYSA-N

> <PUBCHEM_SUBSTANCE_SYNONYM>
SCHEMBL16115505

> <PUBCHEM_XREF_EXT_ID>
SCHEMBL16115505

> <PUBCHEM_EXT_DATASOURCE_URL>
https://www.surechembl.org/

> <PUBCHEM_EXT_SUBSTANCE_URL>
https://www.surechembl.org/chemical/SCHEMBL16115505

> <PUBCHEM_CID_ASSOCIATIONS>
117605389  1
15637667  2
117605390  2

> <PUBCHEM_COORDINATE_TYPE>
1
3

$$$$
