310931771
  -OEChem-07211613022D

 16 15  0     0  0  0  0  0  0999 V2000
    4.1693   -1.8423    0.0000 S   0  5  0  0  0  0  0  0  0  0  0  0
    0.7951   -2.7343    0.0000 N   0  3  0  0  0  0  0  0  0  0  0  0
    0.7951   -1.3962    0.0000 N   0  0  0  0  0  0  0  0  0  0  0  0
    5.8176   -1.8423    0.0000 N   0  0  0  0  0  0  0  0  0  0  0  0
    1.2605   -2.0555    0.0000 C   0  0  0  0  0  0  0  0  0  0  0  0
    0.0000   -2.4628    0.0000 C   0  0  0  0  0  0  0  0  0  0  0  0
    0.0000   -1.6483    0.0000 C   0  0  0  0  0  0  0  0  0  0  0  0
    2.0944   -2.0555    0.0000 C   0  0  0  0  0  0  0  0  0  0  0  0
    1.0471   -3.5293    0.0000 C   0  0  0  0  0  0  0  0  0  0  0  0
    1.0471   -0.6012    0.0000 C   0  0  0  0  0  0  0  0  0  0  0  0
    2.5016   -1.3380    0.0000 C   0  0  0  0  0  0  0  0  0  0  0  0
    1.8423   -3.6845    0.0000 C   0  0  0  0  0  0  0  0  0  0  0  0
    0.4848    0.0000    0.0000 C   0  0  0  0  0  0  0  0  0  0  0  0
    2.0944   -0.6205    0.0000 C   0  0  0  0  0  0  0  0  0  0  0  0
    2.4046   -3.0639    0.0000 C   0  0  0  0  0  0  0  0  0  0  0  0
    4.9838   -1.8423    0.0000 C   0  0  0  0  0  0  0  0  0  0  0  0
  1 16  1  0  0  0  0
  2  5  2  0  0  0  0
  2  6  1  0  0  0  0
  2  9  1  0  0  0  0
  3  5  1  0  0  0  0
  3  7  1  0  0  0  0
  3 10  1  0  0  0  0
  4 16  3  0  0  0  0
  5  8  1  0  0  0  0
  6  7  2  0  0  0  0
  8 11  1  0  0  0  0
  9 12  1  0  0  0  0
 10 13  2  0  0  0  0
 11 14  2  0  0  0  0
 12 15  2  0  0  0  0
M  CHG  2   1  -1   2   1
M  END
> <PUBCHEM_COMPOUND_ID_TYPE>
0

> <PUBCHEM_TOTAL_CHARGE>
0

> <PUBCHEM_SUBSTANCE_ID>
310931771

> <PUBCHEM_SUBSTANCE_VERSION>
1

> <PUBCHEM_EXT_DATASOURCE_NAME>
4488

> <PUBCHEM_EXT_DATASOURCE_REGID>
SCHEMBL16109100

> <PUBCHEM_SUBSTANCE_COMMENT>
InChI=1S/C11H15N2.CHNS/c1-4-7-11-12(6-3)9-10-13(11)8-5-2;2-1-3/h4-6,9-10H,1-3,7-8H2;3H/q+1;/p-1
InChIKey=HPFQFOBQEQKQLP-UHFFFAOYSA-M

> <PUBCHEM_SUBSTANCE_SYNONYM>
SCHEMBL16109100

> <PUBCHEM_XREF_EXT_ID>
SCHEMBL16109100

> <PUBCHEM_EXT_DATASOURCE_URL>
https://www.surechembl.org/

> <PUBCHEM_EXT_SUBSTANCE_URL>
https://www.surechembl.org/chemical/SCHEMBL16109100

> <PUBCHEM_CID_ASSOCIATIONS>
117600455  1
781  2
117600456  2

> <PUBCHEM_COORDINATE_TYPE>
1
3

$$$$
