310930569
  -OEChem-07211613022D

 24 22  0     0  0  0  0  0  0999 V2000
    5.2425    0.7425    0.0000 S   0  0  0  0  0  0  0  0  0  0  0  0
   -0.5914    0.6161    0.0000 P   0  3  0  0  0  0  0  0  0  0  0  0
    4.4175   -0.0825    0.0000 F   0  0  0  0  0  0  0  0  0  0  0  0
    6.0675   -0.0825    0.0000 F   0  0  0  0  0  0  0  0  0  0  0  0
    4.5281   -1.3200    0.0000 F   0  0  0  0  0  0  0  0  0  0  0  0
    5.9570   -1.3200    0.0000 F   0  0  0  0  0  0  0  0  0  0  0  0
    4.4175    0.7425    0.0000 O   0  5  0  0  0  0  0  0  0  0  0  0
    5.2425    1.5675    0.0000 O   0  0  0  0  0  0  0  0  0  0  0  0
    6.0675    0.7425    0.0000 O   0  0  0  0  0  0  0  0  0  0  0  0
    5.2425   -0.0825    0.0000 C   0  0  0  0  0  0  0  0  0  0  0  0
    5.2425   -0.9075    0.0000 C   0  0  0  0  0  0  0  0  0  0  0  0
   -0.1789   -0.0984    0.0000 C   0  0  0  0  0  0  0  0  0  0  0  0
    0.2336   -0.8129    0.0000 C   0  0  0  0  0  0  0  0  0  0  0  0
    0.5356    0.3141    0.0000 C   0  0  0  0  0  0  0  0  0  0  0  0
   -0.8934   -0.5109    0.0000 C   0  0  0  0  0  0  0  0  0  0  0  0
    1.0586   -0.8129    0.0000 C   0  0  0  0  0  0  0  0  0  0  0  0
    0.5356    1.1391    0.0000 C   0  0  0  0  0  0  0  0  0  0  0  0
   -1.6078   -0.0984    0.0000 C   0  0  0  0  0  0  0  0  0  0  0  0
    1.4711   -1.5273    0.0000 C   0  0  0  0  0  0  0  0  0  0  0  0
    1.2500    1.5516    0.0000 C   0  0  0  0  0  0  0  0  0  0  0  0
   -2.3223   -0.5109    0.0000 C   0  0  0  0  0  0  0  0  0  0  0  0
    2.2961   -1.5273    0.0000 C   0  0  0  0  0  0  0  0  0  0  0  0
    1.2500    2.3766    0.0000 C   0  0  0  0  0  0  0  0  0  0  0  0
   -3.0368   -0.0984    0.0000 C   0  0  0  0  0  0  0  0  0  0  0  0
  1  7  1  0  0  0  0
  1  8  2  0  0  0  0
  1  9  2  0  0  0  0
  1 10  1  0  0  0  0
  2 12  1  0  0  0  0
  3 10  1  0  0  0  0
  4 10  1  0  0  0  0
  5 11  1  0  0  0  0
  6 11  1  0  0  0  0
 10 11  1  0  0  0  0
 12 13  1  0  0  0  0
 12 14  1  0  0  0  0
 12 15  1  0  0  0  0
 13 16  1  0  0  0  0
 14 17  1  0  0  0  0
 15 18  1  0  0  0  0
 16 19  1  0  0  0  0
 17 20  1  0  0  0  0
 18 21  1  0  0  0  0
 19 22  1  0  0  0  0
 20 23  1  0  0  0  0
 21 24  1  0  0  0  0
M  CHG  2   2   1   7  -1
M  END
> <PUBCHEM_COMPOUND_ID_TYPE>
0

> <PUBCHEM_TOTAL_CHARGE>
0

> <PUBCHEM_SUBSTANCE_ID>
310930569

> <PUBCHEM_SUBSTANCE_VERSION>
1

> <PUBCHEM_EXT_DATASOURCE_NAME>
4488

> <PUBCHEM_EXT_DATASOURCE_REGID>
SCHEMBL16107864

> <PUBCHEM_SUBSTANCE_COMMENT>
InChI=1S/C13H29P.C2H2F4O3S/c1-4-7-10-13(14,11-8-5-2)12-9-6-3;3-1(4)2(5,6)10(7,8)9/h4-12,14H2,1-3H3;1H,(H,7,8,9)
InChIKey=WYEOLXBBZGOKEO-UHFFFAOYSA-N

> <PUBCHEM_SUBSTANCE_SYNONYM>
SCHEMBL16107864

> <PUBCHEM_XREF_EXT_ID>
SCHEMBL16107864

> <PUBCHEM_EXT_DATASOURCE_URL>
https://www.surechembl.org/

> <PUBCHEM_EXT_SUBSTANCE_URL>
https://www.surechembl.org/chemical/SCHEMBL16107864

> <PUBCHEM_CID_ASSOCIATIONS>
117599657  1
10176391  2
19803314  2

> <PUBCHEM_COORDINATE_TYPE>
1
3

$$$$
