310934320
  -OEChem-07211613022D

 21 20  0     0  0  0  0  0  0999 V2000
    6.6916   -2.2000    0.0000 F   0  0  0  0  0  0  0  0  0  0  0  0
    5.7749   -2.3833    0.0000 F   0  0  0  0  0  0  0  0  0  0  0  0
    4.6979   -2.2000    0.0000 F   0  0  0  0  0  0  0  0  0  0  0  0
    4.5375   -1.3063    0.0000 F   0  0  0  0  0  0  0  0  0  0  0  0
    4.6979   -0.1833    0.0000 F   0  0  0  0  0  0  0  0  0  0  0  0
    5.6145    0.0000    0.0000 F   0  0  0  0  0  0  0  0  0  0  0  0
    6.7146   -0.1833    0.0000 F   0  0  0  0  0  0  0  0  0  0  0  0
    6.8750   -1.1000    0.0000 F   0  0  0  0  0  0  0  0  0  0  0  0
    2.8646   -1.3979    0.0000 F   0  0  0  0  0  0  0  0  0  0  0  0
    2.1541   -0.1604    0.0000 F   0  0  0  0  0  0  0  0  0  0  0  0
    2.8646   -0.5729    0.0000 F   0  0  0  0  0  0  0  0  0  0  0  0
    1.4438   -2.2229    0.0000 F   0  0  0  0  0  0  0  0  0  0  0  0
    0.7333   -0.1604    0.0000 F   0  0  0  0  0  0  0  0  0  0  0  0
    0.0000   -1.3979    0.0000 F   0  0  0  0  0  0  0  0  0  0  0  0
    6.0958   -1.6042    0.0000 C   0  0  0  0  0  0  0  0  0  0  0  0
    5.2937   -1.6042    0.0000 C   0  0  0  0  0  0  0  0  0  0  0  0
    5.2937   -0.7792    0.0000 C   0  0  0  0  0  0  0  0  0  0  0  0
    6.1187   -0.7792    0.0000 C   0  0  0  0  0  0  0  0  0  0  0  0
    2.1541   -0.9854    0.0000 C   0  0  0  0  0  0  0  0  0  0  0  0
    1.4438   -1.3979    0.0000 C   0  0  0  0  0  0  0  0  0  0  0  0
    0.7333   -0.9854    0.0000 C   0  0  0  0  0  0  0  0  0  0  0  0
  1 15  1  0  0  0  0
  2 15  1  0  0  0  0
  3 16  1  0  0  0  0
  4 16  1  0  0  0  0
  5 17  1  0  0  0  0
  6 17  1  0  0  0  0
  7 18  1  0  0  0  0
  8 18  1  0  0  0  0
  9 19  1  0  0  0  0
 10 19  1  0  0  0  0
 11 19  1  0  0  0  0
 12 20  1  0  0  0  0
 13 21  1  0  0  0  0
 14 21  1  0  0  0  0
 15 16  1  0  0  0  0
 15 18  1  0  0  0  0
 16 17  1  0  0  0  0
 17 18  1  0  0  0  0
 19 20  1  0  0  0  0
 20 21  2  0  0  0  0
M  END
> <PUBCHEM_COMPOUND_ID_TYPE>
0

> <PUBCHEM_TOTAL_CHARGE>
0

> <PUBCHEM_SUBSTANCE_ID>
310934320

> <PUBCHEM_SUBSTANCE_VERSION>
1

> <PUBCHEM_EXT_DATASOURCE_NAME>
4488

> <PUBCHEM_EXT_DATASOURCE_REGID>
SCHEMBL16111781

> <PUBCHEM_SUBSTANCE_COMMENT>
InChI=1S/C4F8.C3F6/c5-1(6)2(7,8)4(11,12)3(1,9)10;4-1(2(5)6)3(7,8)9
InChIKey=WSWKHAQFPIUYOQ-UHFFFAOYSA-N

> <PUBCHEM_SUBSTANCE_SYNONYM>
SCHEMBL16111781

> <PUBCHEM_XREF_EXT_ID>
SCHEMBL16111781

> <PUBCHEM_EXT_DATASOURCE_URL>
https://www.surechembl.org/

> <PUBCHEM_EXT_SUBSTANCE_URL>
https://www.surechembl.org/chemical/SCHEMBL16111781

> <PUBCHEM_CID_ASSOCIATIONS>
117602559  1
8263  2
8302  2

> <PUBCHEM_COORDINATE_TYPE>
1
3

$$$$
