310937003
  -OEChem-07211613022D

 15 13  0     0  0  0  0  0  0999 V2000
   -0.3572   -2.3645    0.0000 S   0  0  0  0  0  0  0  0  0  0  0  0
   -1.0718   -2.7770    0.0000 O   0  0  0  0  0  0  0  0  0  0  0  0
    0.0553   -3.0790    0.0000 O   0  0  0  0  0  0  0  0  0  0  0  0
   -0.7697   -1.6500    0.0000 O   0  0  0  0  0  0  0  0  0  0  0  0
    0.3572   -1.9520    0.0000 O   0  0  0  0  0  0  0  0  0  0  0  0
   -1.4290    1.2375    0.0000 O   0  0  0  0  0  0  0  0  0  0  0  0
   -0.7145    0.0000    0.0000 N   0  0  0  0  0  0  0  0  0  0  0  0
   -1.4290    0.4125    0.0000 C   0  0  0  0  0  0  0  0  0  0  0  0
   -2.1435    0.0000    0.0000 C   0  0  0  0  0  0  0  0  0  0  0  0
   -1.7862   -2.3645    0.0000 C   0  0  0  0  0  0  0  0  0  0  0  0
    0.0000    0.4125    0.0000 C   0  0  0  0  0  0  0  0  0  0  0  0
   -2.8579    0.4125    0.0000 C   0  0  0  0  0  0  0  0  0  0  0  0
   -2.1435   -0.8250    0.0000 C   0  0  0  0  0  0  0  0  0  0  0  0
    0.7145    0.0000    0.0000 C   0  0  0  0  0  0  0  0  0  0  0  0
    1.4290    0.4125    0.0000 C   0  0  0  0  0  0  0  0  0  0  0  0
  1  2  1  0  0  0  0
  1  3  2  0  0  0  0
  1  4  2  0  0  0  0
  1  5  1  0  0  0  0
  2 10  1  0  0  0  0
  6  8  2  0  0  0  0
  7  8  1  0  0  0  0
  7 11  1  0  0  0  0
  8  9  1  0  0  0  0
  9 12  2  0  0  0  0
  9 13  1  0  0  0  0
 11 14  1  0  0  0  0
 14 15  1  0  0  0  0
M  END
> <PUBCHEM_COMPOUND_ID_TYPE>
0

> <PUBCHEM_TOTAL_CHARGE>
0

> <PUBCHEM_SUBSTANCE_ID>
310937003

> <PUBCHEM_SUBSTANCE_VERSION>
1

> <PUBCHEM_EXT_DATASOURCE_NAME>
4488

> <PUBCHEM_EXT_DATASOURCE_REGID>
SCHEMBL16114711

> <PUBCHEM_SUBSTANCE_COMMENT>
InChI=1S/C7H13NO.CH4O4S/c1-4-5-8-7(9)6(2)3;1-5-6(2,3)4/h2,4-5H2,1,3H3,(H,8,9);1H3,(H,2,3,4)
InChIKey=PKANBWCSXXDETJ-UHFFFAOYSA-N

> <PUBCHEM_SUBSTANCE_SYNONYM>
SCHEMBL16114711

> <PUBCHEM_XREF_EXT_ID>
SCHEMBL16114711

> <PUBCHEM_EXT_DATASOURCE_URL>
https://www.surechembl.org/

> <PUBCHEM_EXT_SUBSTANCE_URL>
https://www.surechembl.org/chemical/SCHEMBL16114711

> <PUBCHEM_CID_ASSOCIATIONS>
117604859  1
6412  2
9793765  2

> <PUBCHEM_COORDINATE_TYPE>
1
3

$$$$
