310937331
  -OEChem-07211613022D

 37 41  0     0  0  0  0  0  0999 V2000
    7.0319   -3.4741    0.0000 F   0  0  0  0  0  0  0  0  0  0  0  0
   11.1339   -0.9627    0.0000 F   0  0  0  0  0  0  0  0  0  0  0  0
   10.4223   -2.2184    0.0000 F   0  0  0  0  0  0  0  0  0  0  0  0
   10.4223   -1.3812    0.0000 F   0  0  0  0  0  0  0  0  0  0  0  0
   11.8455   -3.0556    0.0000 O   0  0  0  0  0  0  0  0  0  0  0  0
   12.5570   -1.7998    0.0000 O   0  0  0  0  0  0  0  0  0  0  0  0
    7.4505   -1.2139    0.0000 N   0  0  0  0  0  0  0  0  0  0  0  0
    2.2184   -0.1674    0.0000 N   0  0  0  0  0  0  0  0  0  0  0  0
    5.0646   -2.5533    0.0000 N   0  0  0  0  0  0  0  0  0  0  0  0
    6.7390   -0.7116    0.0000 N   0  0  0  0  0  0  0  0  0  0  0  0
    3.7253   -3.0974    0.0000 N   0  0  0  0  0  0  0  0  0  0  0  0
    4.8973   -3.9345    0.0000 N   0  0  0  0  0  0  0  0  0  0  0  0
    0.0000   -1.2557    0.0000 N   0  0  0  0  0  0  0  0  0  0  0  0
    6.3204   -1.9673    0.0000 C   0  0  0  0  0  0  0  0  0  0  0  0
    2.2184   -1.4650    0.0000 C   0  0  0  0  0  0  0  0  0  0  0  0
    5.8599   -2.6370    0.0000 C   0  0  0  0  0  0  0  0  0  0  0  0
    1.4650   -1.2557    0.0000 C   0  0  0  0  0  0  0  0  0  0  0  0
    7.1993   -1.9673    0.0000 C   0  0  0  0  0  0  0  0  0  0  0  0
    2.7207   -0.8372    0.0000 C   0  0  0  0  0  0  0  0  0  0  0  0
    1.4650   -0.4186    0.0000 C   0  0  0  0  0  0  0  0  0  0  0  0
    3.3904   -2.3440    0.0000 C   0  0  0  0  0  0  0  0  0  0  0  0
    2.5951   -2.2184    0.0000 C   0  0  0  0  0  0  0  0  0  0  0  0
    6.1948   -3.3904    0.0000 C   0  0  0  0  0  0  0  0  0  0  0  0
    4.5205   -3.1811    0.0000 C   0  0  0  0  0  0  0  0  0  0  0  0
    6.1111   -1.1720    0.0000 C   0  0  0  0  0  0  0  0  0  0  0  0
    3.5160   -0.9208    0.0000 C   0  0  0  0  0  0  0  0  0  0  0  0
    7.7435   -2.5951    0.0000 C   0  0  0  0  0  0  0  0  0  0  0  0
    0.7116   -1.6743    0.0000 C   0  0  0  0  0  0  0  0  0  0  0  0
    3.8508   -1.6743    0.0000 C   0  0  0  0  0  0  0  0  0  0  0  0
    0.7116    0.0000    0.0000 C   0  0  0  0  0  0  0  0  0  0  0  0
    5.6925   -4.0601    0.0000 C   0  0  0  0  0  0  0  0  0  0  0  0
    8.2458   -1.0464    0.0000 C   0  0  0  0  0  0  0  0  0  0  0  0
    8.5388   -2.4277    0.0000 C   0  0  0  0  0  0  0  0  0  0  0  0
    0.0000   -0.4186    0.0000 C   0  0  0  0  0  0  0  0  0  0  0  0
    8.7899   -1.6324    0.0000 C   0  0  0  0  0  0  0  0  0  0  0  0
   11.1339   -1.7998    0.0000 C   0  0  0  0  0  0  0  0  0  0  0  0
   11.8455   -2.2184    0.0000 C   0  0  0  0  0  0  0  0  0  0  0  0
  1 23  1  0  0  0  0
  2 36  1  0  0  0  0
  3 36  1  0  0  0  0
  4 36  1  0  0  0  0
  5 37  2  0  0  0  0
  6 37  1  0  0  0  0
  7 10  1  0  0  0  0
  7 18  1  0  0  0  0
  7 32  1  0  0  0  0
  8 19  1  0  0  0  0
  8 20  1  0  0  0  0
  9 16  2  0  0  0  0
  9 24  1  0  0  0  0
 10 25  2  0  0  0  0
 11 21  1  0  0  0  0
 11 24  1  0  0  0  0
 12 24  2  0  0  0  0
 12 31  1  0  0  0  0
 13 28  1  0  0  0  0
 13 34  1  0  0  0  0
 14 16  1  0  0  0  0
 14 18  2  0  0  0  0
 14 25  1  0  0  0  0
 15 17  1  0  0  0  0
 15 19  2  0  0  0  0
 15 22  1  0  0  0  0
 16 23  1  0  0  0  0
 17 20  2  0  0  0  0
 17 28  1  0  0  0  0
 18 27  1  0  0  0  0
 19 26  1  0  0  0  0
 20 30  1  0  0  0  0
 21 22  2  0  0  0  0
 21 29  1  0  0  0  0
 23 31  2  0  0  0  0
 26 29  2  0  0  0  0
 27 33  2  0  0  0  0
 30 34  1  0  0  0  0
 32 35  2  0  0  0  0
 33 35  1  0  0  0  0
 36 37  1  0  0  0  0
M  END
> <PUBCHEM_COMPOUND_ID_TYPE>
0

> <PUBCHEM_TOTAL_CHARGE>
0

> <PUBCHEM_SUBSTANCE_ID>
310937331

> <PUBCHEM_SUBSTANCE_VERSION>
1

> <PUBCHEM_EXT_DATASOURCE_NAME>
4488

> <PUBCHEM_EXT_DATASOURCE_REGID>
SCHEMBL16115080

> <PUBCHEM_SUBSTANCE_COMMENT>
InChI=1S/C22H18FN7.C2HF3O2/c23-17-12-25-22(29-21(17)16-11-26-30-8-2-1-3-20(16)30)27-13-4-5-18-14(9-13)15-10-24-7-6-19(15)28-18;3-2(4,5)1(6)7/h1-5,8-9,11-12,24,28H,6-7,10H2,(H,25,27,29);(H,6,7)
InChIKey=RVESISZNQSUXSS-UHFFFAOYSA-N

> <PUBCHEM_SUBSTANCE_SYNONYM>
SCHEMBL16115080

> <PUBCHEM_XREF_EXT_ID>
SCHEMBL16115080

> <PUBCHEM_EXT_DATASOURCE_URL>
https://www.surechembl.org/

> <PUBCHEM_EXT_SUBSTANCE_URL>
https://www.surechembl.org/chemical/SCHEMBL16115080

> <PUBCHEM_CID_ASSOCIATIONS>
86301118  1
6422  2
86301119  2

> <PUBCHEM_COORDINATE_TYPE>
1
3

$$$$
