310937062
  -OEChem-07211613022D

  7  6  0     0  0  0  0  0  0999 V2000
    2.4553    0.0000    0.0000 F   0  0  0  0  0  0  0  0  0  0  0  0
    3.8437   -1.4269    0.0000 O   0  0  0  0  0  0  0  0  0  0  0  0
    0.0000   -0.7070    0.0000 O   0  0  0  0  0  0  0  0  0  0  0  0
    3.0467   -0.5785    0.0000 C   0  0  0  0  0  0  0  0  0  0  0  0
    3.0467   -1.4269    0.0000 C   0  0  0  0  0  0  0  0  0  0  0  0
    3.8566   -0.5785    0.0000 C   0  0  0  0  0  0  0  0  0  0  0  0
    0.8227   -0.7070    0.0000 C   0  0  0  0  0  0  0  0  0  0  0  0
  1  4  1  0  0  0  0
  2  5  1  0  0  0  0
  2  6  1  0  0  0  0
  3  7  1  0  0  0  0
  4  5  1  0  0  0  0
  4  6  1  0  0  0  0
M  END
> <PUBCHEM_COMPOUND_ID_TYPE>
0

> <PUBCHEM_TOTAL_CHARGE>
0

> <PUBCHEM_SUBSTANCE_ID>
310937062

> <PUBCHEM_SUBSTANCE_VERSION>
1

> <PUBCHEM_EXT_DATASOURCE_NAME>
4488

> <PUBCHEM_EXT_DATASOURCE_REGID>
SCHEMBL16114773

> <PUBCHEM_SUBSTANCE_COMMENT>
InChI=1S/C3H5FO.CH4O/c4-3-1-5-2-3;1-2/h3H,1-2H2;2H,1H3
InChIKey=LMERAVQQRCAULP-UHFFFAOYSA-N

> <PUBCHEM_SUBSTANCE_SYNONYM>
SCHEMBL16114773

> <PUBCHEM_XREF_EXT_ID>
SCHEMBL16114773

> <PUBCHEM_EXT_DATASOURCE_URL>
https://www.surechembl.org/

> <PUBCHEM_EXT_SUBSTANCE_URL>
https://www.surechembl.org/chemical/SCHEMBL16114773

> <PUBCHEM_CID_ASSOCIATIONS>
117604906  1
887  2
14364402  2

> <PUBCHEM_COORDINATE_TYPE>
1
3

$$$$
