310935652
  -OEChem-07211613022D

 13 13  0     0  0  0  0  0  0999 V2000
   -1.2503   -0.9281    0.0000 Br  0  0  0  0  0  0  0  0  0  0  0  0
    0.1786    1.5469    0.0000 Cl  0  0  0  0  0  0  0  0  0  0  0  0
    3.6820    0.7018    0.0000 S   0  0  0  0  0  0  0  0  0  0  0  0
   -0.5359   -0.5156    0.0000 C   0  0  0  0  0  0  0  0  0  0  0  0
    0.1786    0.7219    0.0000 C   0  0  0  0  0  0  0  0  0  0  0  0
   -0.5359    0.3094    0.0000 C   0  0  0  0  0  0  0  0  0  0  0  0
    0.1786   -0.9281    0.0000 C   0  0  0  0  0  0  0  0  0  0  0  0
    0.8931    0.3094    0.0000 C   0  0  0  0  0  0  0  0  0  0  0  0
    0.8931   -0.5156    0.0000 C   0  0  0  0  0  0  0  0  0  0  0  0
    4.3494    0.2169    0.0000 C   0  0  0  0  0  0  0  0  0  0  0  0
    3.0145    0.2169    0.0000 C   0  0  0  0  0  0  0  0  0  0  0  0
    4.0945   -0.5678    0.0000 C   0  0  0  0  0  0  0  0  0  0  0  0
    3.2695   -0.5678    0.0000 C   0  0  0  0  0  0  0  0  0  0  0  0
  1  4  1  0  0  0  0
  2  5  1  0  0  0  0
  3 10  1  0  0  0  0
  3 11  1  0  0  0  0
  4  6  1  0  0  0  0
  4  7  2  0  0  0  0
  5  6  2  0  0  0  0
  5  8  1  0  0  0  0
  7  9  1  0  0  0  0
  8  9  2  0  0  0  0
 10 12  2  0  0  0  0
 11 13  2  0  0  0  0
 12 13  1  0  0  0  0
M  END
> <PUBCHEM_COMPOUND_ID_TYPE>
0

> <PUBCHEM_TOTAL_CHARGE>
0

> <PUBCHEM_SUBSTANCE_ID>
310935652

> <PUBCHEM_SUBSTANCE_VERSION>
1

> <PUBCHEM_EXT_DATASOURCE_NAME>
4488

> <PUBCHEM_EXT_DATASOURCE_REGID>
SCHEMBL16113230

> <PUBCHEM_SUBSTANCE_COMMENT>
InChI=1S/C6H4BrCl.C4H4S/c7-5-2-1-3-6(8)4-5;1-2-4-5-3-1/h1-4H;1-4H
InChIKey=WBXJLFNGGSIPKN-UHFFFAOYSA-N

> <PUBCHEM_SUBSTANCE_SYNONYM>
SCHEMBL16113230

> <PUBCHEM_XREF_EXT_ID>
SCHEMBL16113230

> <PUBCHEM_EXT_DATASOURCE_URL>
https://www.surechembl.org/

> <PUBCHEM_EXT_SUBSTANCE_URL>
https://www.surechembl.org/chemical/SCHEMBL16113230

> <PUBCHEM_CID_ASSOCIATIONS>
117603663  1
7928  2
8030  2

> <PUBCHEM_COORDINATE_TYPE>
1
3

$$$$
