310930049
  -OEChem-07211613022D

 28 28  0     1  0  0  0  0  0999 V2000
    2.8286    3.7440    0.0000 S   0  0  0  0  0  0  0  0  0  0  0  0
    6.4009    0.0315    0.0000 O   0  5  0  0  0  0  0  0  0  0  0  0
    5.6865    1.2690    0.0000 O   0  0  0  0  0  0  0  0  0  0  0  0
    2.8286    2.9190    0.0000 O   0  0  0  0  0  0  0  0  0  0  0  0
    2.8286    4.5690    0.0000 O   0  5  0  0  0  0  0  0  0  0  0  0
    2.0036    3.7440    0.0000 O   0  0  0  0  0  0  0  0  0  0  0  0
    3.6536    3.7440    0.0000 O   0  0  0  0  0  0  0  0  0  0  0  0
    4.2575    1.2690    0.0000 N   0  0  3  0  0  0  0  0  0  0  0  0
    5.6865    0.4440    0.0000 N   0  3  0  0  0  0  0  0  0  0  0  0
    4.2575   -2.0310    0.0000 N   0  0  0  0  0  0  0  0  0  0  0  0
    4.9720   -2.4435    0.0000 N   0  0  0  0  0  0  0  0  0  0  0  0
    4.3045   -3.7534    0.0000 N   0  0  0  0  0  0  0  0  0  0  0  0
    5.6394   -3.7534    0.0000 N   0  0  0  0  0  0  0  0  0  0  0  0
    5.3845   -4.5380    0.0000 N   0  0  0  0  0  0  0  0  0  0  0  0
    4.2575    0.4440    0.0000 C   0  0  0  0  0  0  0  0  0  0  0  0
    4.9720    0.0315    0.0000 C   0  0  0  0  0  0  0  0  0  0  0  0
    4.2575   -1.2060    0.0000 C   0  0  0  0  0  0  0  0  0  0  0  0
    4.9720   -0.7935    0.0000 C   0  0  0  0  0  0  0  0  0  0  0  0
    3.5430    0.0315    0.0000 C   0  0  0  0  0  0  0  0  0  0  0  0
    3.5430   -0.7935    0.0000 C   0  0  0  0  0  0  0  0  0  0  0  0
    4.9720   -3.2685    0.0000 C   0  0  0  0  0  0  0  0  0  0  0  0
    3.5430    1.6815    0.0000 C   0  0  0  0  0  0  0  0  0  0  0  0
    4.9720    1.6815    0.0000 C   0  0  0  0  0  0  0  0  0  0  0  0
    3.5430    2.5065    0.0000 C   0  0  0  0  0  0  0  0  0  0  0  0
    4.5595   -4.5380    0.0000 C   0  0  0  0  0  0  0  0  0  0  0  0
    3.5199   -3.4984    0.0000 C   0  0  0  0  0  0  0  0  0  0  0  0
    4.9720    2.5065    0.0000 C   0  0  0  0  0  0  0  0  0  0  0  0
    0.0000    0.0000    0.0000 H   0  3  0  0  0  0  0  0  0  0  0  0
  1  4  1  0  0  0  0
  1  5  1  0  0  0  0
  1  6  2  0  0  0  0
  1  7  2  0  0  0  0
  2  9  1  0  0  0  0
  3  9  2  0  0  0  0
  4 24  1  0  0  0  0
  8 15  1  0  0  0  0
  8 22  1  0  0  0  0
  8 23  1  0  0  0  0
  9 16  1  0  0  0  0
 10 11  2  0  0  0  0
 10 17  1  0  0  0  0
 11 21  1  0  0  0  0
 12 21  1  0  0  0  0
 12 25  1  0  0  0  0
 12 26  1  0  0  0  0
 13 14  1  0  0  0  0
 13 21  2  0  0  0  0
 14 25  2  0  0  0  0
 15 16  2  0  0  0  0
 15 19  1  0  0  0  0
 16 18  1  0  0  0  0
 17 18  2  0  0  0  0
 17 20  1  0  0  0  0
 19 20  2  0  0  0  0
 22 24  1  0  0  0  0
 23 27  1  0  0  0  0
M  CHG  4   2  -1   5  -1   9   1  28   1
M  END
> <PUBCHEM_COMPOUND_ID_TYPE>
0

> <PUBCHEM_TOTAL_CHARGE>
0

> <PUBCHEM_SUBSTANCE_ID>
310930049

> <PUBCHEM_SUBSTANCE_VERSION>
1

> <PUBCHEM_EXT_DATASOURCE_NAME>
4488

> <PUBCHEM_EXT_DATASOURCE_REGID>
SCHEMBL16107289

> <PUBCHEM_SUBSTANCE_COMMENT>
InChI=1S/C13H17N7O6S/c1-3-19(6-7-26-27(23,24)25)11-5-4-10(8-12(11)20(21)22)15-17-13-16-14-9-18(13)2/h4-5,8-9H,3,6-7H2,1-2H3,(H,23,24,25)/b17-15+
InChIKey=GRSUGTOITUZMDW-BMRADRMJSA-N

> <PUBCHEM_SUBSTANCE_SYNONYM>
SCHEMBL16107289

> <PUBCHEM_XREF_EXT_ID>
SCHEMBL16107289

> <PUBCHEM_EXT_DATASOURCE_URL>
https://www.surechembl.org/

> <PUBCHEM_EXT_SUBSTANCE_URL>
https://www.surechembl.org/chemical/SCHEMBL16107289

> <PUBCHEM_CID_ASSOCIATIONS>
117599292  1
783  2
89559082  2

> <PUBCHEM_COORDINATE_TYPE>
1
3

> <PUBCHEM_BONDANNOTATIONS>
10  17  3

$$$$
