310933947
  -OEChem-07211613022D

 20 21  0     0  0  0  0  0  0999 V2000
    5.8062   -2.1665    0.0000 Br  0  0  0  0  0  0  0  0  0  0  0  0
    2.4915   -2.1665    0.0000 N   0  0  0  0  0  0  0  0  0  0  0  0
    1.6465   -2.1665    0.0000 C   0  0  0  0  0  0  0  0  0  0  0  0
    2.9031   -2.8814    0.0000 C   0  0  0  0  0  0  0  0  0  0  0  0
    2.9031   -1.4515    0.0000 C   0  0  0  0  0  0  0  0  0  0  0  0
    1.2349   -2.8814    0.0000 C   0  0  0  0  0  0  0  0  0  0  0  0
    3.7263   -2.9031    0.0000 C   0  0  0  0  0  0  0  0  0  0  0  0
    2.4915   -0.7149    0.0000 C   0  0  0  0  0  0  0  0  0  0  0  0
    1.2349   -1.4515    0.0000 C   0  0  0  0  0  0  0  0  0  0  0  0
    2.4915   -3.6180    0.0000 C   0  0  0  0  0  0  0  0  0  0  0  0
    3.7263   -1.4299    0.0000 C   0  0  0  0  0  0  0  0  0  0  0  0
    0.4116   -2.8814    0.0000 C   0  0  0  0  0  0  0  0  0  0  0  0
    4.1596   -3.6180    0.0000 C   0  0  0  0  0  0  0  0  0  0  0  0
    2.8814    0.0000    0.0000 C   0  0  0  0  0  0  0  0  0  0  0  0
    0.4116   -1.4515    0.0000 C   0  0  0  0  0  0  0  0  0  0  0  0
    2.9031   -4.3330    0.0000 C   0  0  0  0  0  0  0  0  0  0  0  0
    4.1380   -0.7149    0.0000 C   0  0  0  0  0  0  0  0  0  0  0  0
    0.0000   -2.1665    0.0000 C   0  0  0  0  0  0  0  0  0  0  0  0
    3.7263   -4.3330    0.0000 C   0  0  0  0  0  0  0  0  0  0  0  0
    3.7263    0.0000    0.0000 C   0  0  0  0  0  0  0  0  0  0  0  0
  2  3  1  0  0  0  0
  2  4  1  0  0  0  0
  2  5  1  0  0  0  0
  3  6  2  0  0  0  0
  3  9  1  0  0  0  0
  4  7  2  0  0  0  0
  4 10  1  0  0  0  0
  5  8  2  0  0  0  0
  5 11  1  0  0  0  0
  6 12  1  0  0  0  0
  7 13  1  0  0  0  0
  8 14  1  0  0  0  0
  9 15  2  0  0  0  0
 10 16  2  0  0  0  0
 11 17  2  0  0  0  0
 12 18  2  0  0  0  0
 13 19  2  0  0  0  0
 14 20  2  0  0  0  0
 15 18  1  0  0  0  0
 16 19  1  0  0  0  0
 17 20  1  0  0  0  0
M  END
> <PUBCHEM_COMPOUND_ID_TYPE>
0

> <PUBCHEM_TOTAL_CHARGE>
0

> <PUBCHEM_SUBSTANCE_ID>
310933947

> <PUBCHEM_SUBSTANCE_VERSION>
1

> <PUBCHEM_EXT_DATASOURCE_NAME>
4488

> <PUBCHEM_EXT_DATASOURCE_REGID>
SCHEMBL16111386

> <PUBCHEM_SUBSTANCE_COMMENT>
InChI=1S/C18H15N.BrH/c1-4-10-16(11-5-1)19(17-12-6-2-7-13-17)18-14-8-3-9-15-18;/h1-15H;1H
InChIKey=RTUAAGRQXIRDMJ-UHFFFAOYSA-N

> <PUBCHEM_SUBSTANCE_SYNONYM>
SCHEMBL16111386

> <PUBCHEM_XREF_EXT_ID>
SCHEMBL16111386

> <PUBCHEM_EXT_DATASOURCE_URL>
https://www.surechembl.org/

> <PUBCHEM_EXT_SUBSTANCE_URL>
https://www.surechembl.org/chemical/SCHEMBL16111386

> <PUBCHEM_CID_ASSOCIATIONS>
117602266  1
260  2
11775  2

> <PUBCHEM_COORDINATE_TYPE>
1
3

$$$$
