310929117
  -OEChem-07211613022D

 59 64  0     0  0  0  0  0  0999 V2000
    1.4837   -0.6651    0.0000 S   0  0  0  0  0  0  0  0  0  0  0  0
    3.7861   -2.0977    0.0000 O   0  0  0  0  0  0  0  0  0  0  0  0
    6.5489   -1.9442    0.0000 O   0  0  0  0  0  0  0  0  0  0  0  0
    2.9163   -4.9116    0.0000 O   0  0  0  0  0  0  0  0  0  0  0  0
    0.9721   -1.4837    0.0000 O   0  0  0  0  0  0  0  0  0  0  0  0
    1.8931    0.0000    0.0000 O   0  0  0  0  0  0  0  0  0  0  0  0
    9.5163   -6.9582    0.0000 O   0  0  0  0  0  0  0  0  0  0  0  0
   10.9489   -3.5814    0.0000 O   0  0  0  0  0  0  0  0  0  0  0  0
   15.3489   -1.8931    0.0000 O   0  0  0  0  0  0  0  0  0  0  0  0
    3.6326   -3.6326    0.0000 N   0  0  0  0  0  0  0  0  0  0  0  0
    2.2000   -1.1256    0.0000 N   0  0  0  0  0  0  0  0  0  0  0  0
    4.3488   -4.9116    0.0000 N   0  0  0  0  0  0  0  0  0  0  0  0
    8.0326   -4.4512    0.0000 N   0  0  0  0  0  0  0  0  0  0  0  0
    8.7489   -3.1721    0.0000 N   0  0  0  0  0  0  0  0  0  0  0  0
   11.7163   -4.8605    0.0000 N   0  0  0  0  0  0  0  0  0  0  0  0
   13.1489   -3.1721    0.0000 N   0  0  0  0  0  0  0  0  0  0  0  0
    2.9163   -3.2233    0.0000 C   0  0  0  0  0  0  0  0  0  0  0  0
    4.3488   -3.2233    0.0000 C   0  0  0  0  0  0  0  0  0  0  0  0
    4.4000   -2.4047    0.0000 C   0  0  0  0  0  0  0  0  0  0  0  0
    2.9163   -2.4047    0.0000 C   0  0  0  0  0  0  0  0  0  0  0  0
    5.1163   -1.9954    0.0000 C   0  0  0  0  0  0  0  0  0  0  0  0
    2.2000   -1.9442    0.0000 C   0  0  0  0  0  0  0  0  0  0  0  0
    1.4837   -3.2233    0.0000 C   0  0  0  0  0  0  0  0  0  0  0  0
    2.2000   -3.6326    0.0000 C   0  0  0  0  0  0  0  0  0  0  0  0
    5.8326   -2.3535    0.0000 C   0  0  0  0  0  0  0  0  0  0  0  0
    3.6326   -4.5024    0.0000 C   0  0  0  0  0  0  0  0  0  0  0  0
    5.1163   -3.6326    0.0000 C   0  0  0  0  0  0  0  0  0  0  0  0
    1.4837   -2.3535    0.0000 C   0  0  0  0  0  0  0  0  0  0  0  0
    0.7163   -3.6326    0.0000 C   0  0  0  0  0  0  0  0  0  0  0  0
    5.8326   -3.2233    0.0000 C   0  0  0  0  0  0  0  0  0  0  0  0
    3.6326   -1.9954    0.0000 C   0  0  0  0  0  0  0  0  0  0  0  0
    5.1163   -1.1256    0.0000 C   0  0  0  0  0  0  0  0  0  0  0  0
    3.6326   -1.1256    0.0000 C   0  0  0  0  0  0  0  0  0  0  0  0
    4.3488   -0.6651    0.0000 C   0  0  0  0  0  0  0  0  0  0  0  0
    7.3163   -2.3535    0.0000 C   0  0  0  0  0  0  0  0  0  0  0  0
    0.3070   -2.9163    0.0000 C   0  0  0  0  0  0  0  0  0  0  0  0
    0.0000   -4.0419    0.0000 C   0  0  0  0  0  0  0  0  0  0  0  0
    1.1256   -4.3488    0.0000 C   0  0  0  0  0  0  0  0  0  0  0  0
    7.3163   -3.1721    0.0000 C   0  0  0  0  0  0  0  0  0  0  0  0
    3.7861   -1.2791    0.0000 C   0  0  0  0  0  0  0  0  0  0  0  0
    8.0326   -3.5814    0.0000 C   0  0  0  0  0  0  0  0  0  0  0  0
    8.0326   -1.8931    0.0000 C   0  0  0  0  0  0  0  0  0  0  0  0
    0.7674   -0.2558    0.0000 C   0  0  0  0  0  0  0  0  0  0  0  0
    8.7489   -4.8605    0.0000 C   0  0  0  0  0  0  0  0  0  0  0  0
    8.7489   -2.3535    0.0000 C   0  0  0  0  0  0  0  0  0  0  0  0
   10.2326   -4.8605    0.0000 C   0  0  0  0  0  0  0  0  0  0  0  0
    9.5163   -4.4512    0.0000 C   0  0  0  0  0  0  0  0  0  0  0  0
    8.7489   -5.6791    0.0000 C   0  0  0  0  0  0  0  0  0  0  0  0
    9.5163   -6.1395    0.0000 C   0  0  0  0  0  0  0  0  0  0  0  0
   10.2326   -5.6791    0.0000 C   0  0  0  0  0  0  0  0  0  0  0  0
   10.9489   -4.4512    0.0000 C   0  0  0  0  0  0  0  0  0  0  0  0
   12.4326   -4.4512    0.0000 C   0  0  0  0  0  0  0  0  0  0  0  0
   10.2326   -7.3675    0.0000 C   0  0  0  0  0  0  0  0  0  0  0  0
   12.4326   -3.5814    0.0000 C   0  0  0  0  0  0  0  0  0  0  0  0
   13.1489   -2.3023    0.0000 C   0  0  0  0  0  0  0  0  0  0  0  0
   13.8652   -3.5814    0.0000 C   0  0  0  0  0  0  0  0  0  0  0  0
   14.6326   -2.3535    0.0000 C   0  0  0  0  0  0  0  0  0  0  0  0
   13.8652   -1.8931    0.0000 C   0  0  0  0  0  0  0  0  0  0  0  0
   14.6326   -3.1721    0.0000 C   0  0  0  0  0  0  0  0  0  0  0  0
  1  5  2  0  0  0  0
  1  6  2  0  0  0  0
  1 11  1  0  0  0  0
  1 43  1  0  0  0  0
  2 20  1  0  0  0  0
  2 40  1  0  0  0  0
  3 25  1  0  0  0  0
  3 35  1  0  0  0  0
  4 26  2  0  0  0  0
  7 49  1  0  0  0  0
  7 53  1  0  0  0  0
  8 51  2  0  0  0  0
  9 57  1  0  0  0  0
 10 17  1  0  0  0  0
 10 18  1  0  0  0  0
 10 26  1  0  0  0  0
 11 22  1  0  0  0  0
 12 26  1  0  0  0  0
 13 41  1  0  0  0  0
 13 44  1  0  0  0  0
 14 41  2  0  0  0  0
 14 45  1  0  0  0  0
 15 51  1  0  0  0  0
 15 52  1  0  0  0  0
 16 54  1  0  0  0  0
 16 55  1  0  0  0  0
 16 56  1  0  0  0  0
 17 20  1  0  0  0  0
 17 24  2  0  0  0  0
 18 19  1  0  0  0  0
 18 27  2  0  0  0  0
 19 21  2  0  0  0  0
 19 31  1  0  0  0  0
 20 22  2  0  0  0  0
 21 25  1  0  0  0  0
 21 32  1  0  0  0  0
 22 28  1  0  0  0  0
 23 24  1  0  0  0  0
 23 28  2  0  0  0  0
 23 29  1  0  0  0  0
 25 30  2  0  0  0  0
 27 30  1  0  0  0  0
 29 36  1  0  0  0  0
 29 37  1  0  0  0  0
 29 38  1  0  0  0  0
 31 33  2  0  0  0  0
 32 34  2  0  0  0  0
 33 34  1  0  0  0  0
 35 39  2  0  0  0  0
 35 42  1  0  0  0  0
 39 41  1  0  0  0  0
 42 45  2  0  0  0  0
 44 47  1  0  0  0  0
 44 48  2  0  0  0  0
 46 47  2  0  0  0  0
 46 50  1  0  0  0  0
 46 51  1  0  0  0  0
 48 49  1  0  0  0  0
 49 50  2  0  0  0  0
 52 54  1  0  0  0  0
 55 58  1  0  0  0  0
 56 59  1  0  0  0  0
 57 58  1  0  0  0  0
 57 59  1  0  0  0  0
M  END
> <PUBCHEM_COMPOUND_ID_TYPE>
0

> <PUBCHEM_TOTAL_CHARGE>
0

> <PUBCHEM_SUBSTANCE_ID>
310929117

> <PUBCHEM_SUBSTANCE_VERSION>
1

> <PUBCHEM_EXT_DATASOURCE_NAME>
4488

> <PUBCHEM_EXT_DATASOURCE_REGID>
SCHEMBL16106280

> <PUBCHEM_SUBSTANCE_COMMENT>
InChI=1S/C43H51N7O8S/c1-43(2,3)28-23-35(48-59(6,54)55)40(57-5)37(24-28)50(42(44)53)36-11-12-38(34-10-8-7-9-33(34)36)58-31-13-16-45-39(26-31)47-29-21-27(22-32(25-29)56-4)41(52)46-17-20-49-18-14-30(51)15-19-49/h7-13,16,21-26,30,48,51H,14-15,17-20H2,1-6H3,(H2,44,53)(H,45,47)(H,46,52)
InChIKey=DHOOAWPSAHDMJU-UHFFFAOYSA-N

> <PUBCHEM_SUBSTANCE_SYNONYM>
SCHEMBL16106280

> <PUBCHEM_XREF_EXT_ID>
SCHEMBL16106280

> <PUBCHEM_EXT_DATASOURCE_URL>
https://www.surechembl.org/

> <PUBCHEM_EXT_SUBSTANCE_URL>
https://www.surechembl.org/chemical/SCHEMBL16106280

> <PUBCHEM_CID_ASSOCIATIONS>
117598596  1

> <PUBCHEM_COORDINATE_TYPE>
1
3

$$$$
