310944886
  -OEChem-07211613022D

 24 27  0     1  0  0  0  0  0999 V2000
    1.7360   -2.2940    0.0000 Cl  0  0  0  0  0  0  0  0  0  0  0  0
   -3.0009    1.6492    0.0000 O   0  0  0  0  0  0  0  0  0  0  0  0
   -0.1860   -0.9672    0.0000 O   0  0  0  0  0  0  0  0  0  0  0  0
   -2.3313    2.9513    0.0000 O   0  0  0  0  0  0  0  0  0  0  0  0
    1.7360   -2.2940    0.0000 N   0  0  3  0  0  0  0  0  0  0  0  0
    1.4385   -0.5332    0.0000 N   0  0  3  0  0  0  0  0  0  0  0  0
    2.2197   -1.6244    0.0000 C   0  0  3  0  0  0  0  0  0  0  0  0
   -1.8972    0.8680    0.0000 C   0  0  0  0  0  0  0  0  0  0  0  0
   -1.6368    1.6492    0.0000 C   0  0  0  0  0  0  0  0  0  0  0  0
   -0.5456    0.4216    0.0000 C   0  0  0  0  0  0  0  0  0  0  0  0
   -1.3392    0.2604    0.0000 C   0  0  0  0  0  0  0  0  0  0  0  0
    1.4261   -1.3640    0.0000 C   0  0  0  0  0  0  0  0  0  0  0  0
    2.7033   -0.9548    0.0000 C   0  0  0  0  0  0  0  0  0  0  0  0
    0.0496   -0.1612    0.0000 C   0  0  3  0  0  0  0  0  0  0  0  0
    3.0009   -1.8848    0.0000 C   0  0  0  0  0  0  0  0  0  0  0  0
   -2.3189    2.1205    0.0000 C   0  0  0  0  0  0  0  0  0  0  0  0
    2.1949   -0.2852    0.0000 C   0  0  0  0  0  0  0  0  0  0  0  0
    0.8432    0.0496    0.0000 C   0  0  0  0  0  0  0  0  0  0  0  0
   -0.8432    1.8105    0.0000 C   0  0  0  0  0  0  0  0  0  0  0  0
   -0.2852    1.2028    0.0000 C   0  0  0  0  0  0  0  0  0  0  0  0
   -2.7281    0.8680    0.0000 C   0  0  0  0  0  0  0  0  0  0  0  0
    2.2445   -2.9513    0.0000 C   0  0  0  0  0  0  0  0  0  0  0  0
    3.0009   -2.7033    0.0000 C   0  0  0  0  0  0  0  0  0  0  0  0
   -1.5501   -0.5456    0.0000 C   0  0  0  0  0  0  0  0  0  0  0  0
  1  5  1  0  0  0  0
  2 16  1  0  0  0  0
  2 21  1  0  0  0  0
 14  3  1  6  0  0  0
  4 16  2  0  0  0  0
  5  7  1  0  0  0  0
  5 22  1  0  0  0  0
  6 12  1  0  0  0  0
  6 17  1  0  0  0  0
  6 18  1  0  0  0  0
  7 12  1  0  0  0  0
  7 13  1  0  0  0  0
  7 15  1  0  0  0  0
  8  9  1  0  0  0  0
  8 11  2  0  0  0  0
  8 21  1  0  0  0  0
  9 16  1  0  0  0  0
  9 19  2  0  0  0  0
 10 11  1  0  0  0  0
 10 14  1  0  0  0  0
 10 20  2  0  0  0  0
 11 24  1  0  0  0  0
 13 17  1  0  0  0  0
 14 18  1  0  0  0  0
 15 23  1  0  0  0  0
 19 20  1  0  0  0  0
 22 23  1  0  0  0  0
M  END
> <PUBCHEM_COMPOUND_ID_TYPE>
0

> <PUBCHEM_TOTAL_CHARGE>
0

> <PUBCHEM_SUBSTANCE_ID>
310944886

> <PUBCHEM_SUBSTANCE_VERSION>
1

> <PUBCHEM_EXT_DATASOURCE_NAME>
4488

> <PUBCHEM_EXT_DATASOURCE_REGID>
SCHEMBL16122970

> <PUBCHEM_SUBSTANCE_COMMENT>
InChI=1S/C18H23ClN2O3/c1-12-13(3-4-14-15(12)10-24-17(14)23)16(22)9-20-8-6-18(11-20)5-2-7-21(18)19/h3-4,16,22H,2,5-11H2,1H3/t16-,18?/m0/s1
InChIKey=SINPWTTYZILSHO-ATNAJCNCSA-N

> <PUBCHEM_SUBSTANCE_SYNONYM>
SCHEMBL16122970

> <PUBCHEM_XREF_EXT_ID>
SCHEMBL16122970

> <PUBCHEM_EXT_DATASOURCE_URL>
https://www.surechembl.org/

> <PUBCHEM_EXT_SUBSTANCE_URL>
https://www.surechembl.org/chemical/SCHEMBL16122970

> <PUBCHEM_CID_ASSOCIATIONS>
117611072  1

> <PUBCHEM_COORDINATE_TYPE>
1
3

> <PUBCHEM_BONDANNOTATIONS>
14  3  6

$$$$
