310948716
  -OEChem-07211613022D

 28 28  0     1  0  0  0  0  0999 V2000
   -0.3671    1.2668    0.0000 O   0  0  0  0  0  0  0  0  0  0  0  0
   -0.3671   -1.2812    0.0000 O   0  0  0  0  0  0  0  0  0  0  0  0
   -1.8210   -0.4319    0.0000 O   0  0  0  0  0  0  0  0  0  0  0  0
    1.0869   -0.4319    0.0000 O   0  0  0  0  0  0  0  0  0  0  0  0
    1.0869    1.2668    0.0000 O   0  0  0  0  0  0  0  0  0  0  0  0
   -2.5552    0.8494    0.0000 O   0  0  0  0  0  0  0  0  0  0  0  0
   -1.7778   -1.3244    0.0000 O   0  0  0  0  0  0  0  0  0  0  0  0
   -2.4688   -1.6986    0.0000 O   0  0  0  0  0  0  0  0  0  0  0  0
    1.8066    2.4904    0.0000 O   0  0  0  0  0  0  0  0  0  0  0  0
   -3.2750    2.0298    0.0000 O   0  0  0  0  0  0  0  0  0  0  0  0
   -0.3671   -0.4175    0.0000 C   0  0  3  0  0  0  0  0  0  0  0  0
   -1.1013    0.0000    0.0000 C   0  0  3  0  0  0  0  0  0  0  0  0
    0.3383    0.0000    0.0000 C   0  0  3  0  0  0  0  0  0  0  0  0
    0.3527    0.8494    0.0000 C   0  0  3  0  0  0  0  0  0  0  0  0
   -1.1013    0.8494    0.0000 C   0  0  3  0  0  0  0  0  0  0  0  0
   -1.8354    1.2668    0.0000 C   0  0  0  0  0  0  0  0  0  0  0  0
   -1.1013   -1.7130    0.0000 C   0  0  0  0  0  0  0  0  0  0  0  0
   -1.8066   -1.2956    0.0000 C   0  0  0  0  0  0  0  0  0  0  0  0
    1.1013    2.1161    0.0000 C   0  0  0  0  0  0  0  0  0  0  0  0
    1.7922   -0.0432    0.0000 C   0  0  0  0  0  0  0  0  0  0  0  0
   -3.2894    1.2668    0.0000 C   0  0  0  0  0  0  0  0  0  0  0  0
   -1.0725   -2.5192    0.0000 C   0  0  0  0  0  0  0  0  0  0  0  0
   -1.0869   -1.6555    0.0000 C   0  0  0  0  0  0  0  0  0  0  0  0
    2.5120   -0.4463    0.0000 C   0  0  0  0  0  0  0  0  0  0  0  0
    0.4102    2.5192    0.0000 C   0  0  0  0  0  0  0  0  0  0  0  0
    3.2318   -0.0288    0.0000 C   0  0  0  0  0  0  0  0  0  0  0  0
   -3.9515    0.8494    0.0000 C   0  0  0  0  0  0  0  0  0  0  0  0
    3.9515   -0.4319    0.0000 C   0  0  0  0  0  0  0  0  0  0  0  0
  1 14  1  0  0  0  0
  1 15  1  0  0  0  0
 11  2  1  1  0  0  0
  2 17  1  0  0  0  0
 12  3  1  6  0  0  0
  3 18  1  0  0  0  0
 13  4  1  1  0  0  0
  4 20  1  0  0  0  0
 14  5  1  6  0  0  0
  5 19  1  0  0  0  0
  6 16  1  0  0  0  0
  6 21  1  0  0  0  0
  7 17  2  0  0  0  0
  8 18  2  0  0  0  0
  9 19  2  0  0  0  0
 10 21  2  0  0  0  0
 11 12  1  0  0  0  0
 11 13  1  0  0  0  0
 12 15  1  0  0  0  0
 13 14  1  0  0  0  0
 15 16  1  1  0  0  0
 17 22  1  0  0  0  0
 18 23  1  0  0  0  0
 19 25  1  0  0  0  0
 20 24  1  0  0  0  0
 21 27  1  0  0  0  0
 24 26  1  0  0  0  0
 26 28  1  0  0  0  0
M  END
> <PUBCHEM_COMPOUND_ID_TYPE>
0

> <PUBCHEM_TOTAL_CHARGE>
0

> <PUBCHEM_SUBSTANCE_ID>
310948716

> <PUBCHEM_SUBSTANCE_VERSION>
1

> <PUBCHEM_EXT_DATASOURCE_NAME>
4488

> <PUBCHEM_EXT_DATASOURCE_REGID>
SCHEMBL16126900

> <PUBCHEM_SUBSTANCE_COMMENT>
InChI=1S/C18H28O10/c1-6-7-8-23-17-16(26-12(4)21)15(25-11(3)20)14(9-24-10(2)19)28-18(17)27-13(5)22/h14-18H,6-9H2,1-5H3/t14-,15-,16+,17+,18+/m1/s1
InChIKey=IFXGFXBLCGHICW-ZBRFXRBCSA-N

> <PUBCHEM_SUBSTANCE_SYNONYM>
SCHEMBL16126900

> <PUBCHEM_XREF_EXT_ID>
SCHEMBL16126900

> <PUBCHEM_EXT_DATASOURCE_URL>
https://www.surechembl.org/

> <PUBCHEM_EXT_SUBSTANCE_URL>
https://www.surechembl.org/chemical/SCHEMBL16126900

> <PUBCHEM_CID_ASSOCIATIONS>
117614257  1

> <PUBCHEM_COORDINATE_TYPE>
1
3

> <PUBCHEM_BONDANNOTATIONS>
15  16  5
11  2  5
12  3  6
13  4  5
14  5  6

$$$$
