310940131
  -OEChem-07211613022D

 40 44  0     1  0  0  0  0  0999 V2000
    2.3921   -2.9814    0.0000 S   0  0  0  0  0  0  0  0  0  0  0  0
   -2.5193   -4.0825    0.0000 O   0  0  0  0  0  0  0  0  0  0  0  0
   -1.0860    2.3495    0.0000 O   0  0  0  0  0  0  0  0  0  0  0  0
   -2.5193    2.3495    0.0000 O   0  0  0  0  0  0  0  0  0  0  0  0
    2.3921   -2.9814    0.0000 O   0  0  0  0  0  0  0  0  0  0  0  0
    2.3921   -2.9814    0.0000 O   0  0  0  0  0  0  0  0  0  0  0  0
   -0.6666    4.4643    0.0000 O   0  0  0  0  0  0  0  0  0  0  0  0
   -1.8026   -1.3908    0.0000 N   0  0  0  0  0  0  0  0  0  0  0  0
   -1.1385   -1.8802    0.0000 N   0  0  0  0  0  0  0  0  0  0  0  0
   -0.9113   -3.3484    0.0000 N   0  0  0  0  0  0  0  0  0  0  0  0
   -3.5854   -3.1212    0.0000 N   0  0  0  0  0  0  0  0  0  0  0  0
   -1.8026    1.1085    0.0000 N   0  0  0  0  0  0  0  0  0  0  0  0
    2.3921   -2.9814    0.0000 N   0  0  0  0  0  0  0  0  0  0  0  0
    0.3471   -0.1848    0.0000 N   0  0  0  0  0  0  0  0  0  0  0  0
   -1.7852   -0.5693    0.0000 C   0  0  0  0  0  0  0  0  0  0  0  0
   -2.4843   -1.8802    0.0000 C   0  0  0  0  0  0  0  0  0  0  0  0
   -2.2221   -2.6493    0.0000 C   0  0  0  0  0  0  0  0  0  0  0  0
   -1.4007   -2.6667    0.0000 C   0  0  0  0  0  0  0  0  0  0  0  0
   -2.7814   -3.2785    0.0000 C   0  0  0  0  0  0  0  0  0  0  0  0
   -2.5193   -0.1324    0.0000 C   0  0  0  0  0  0  0  0  0  0  0  0
   -1.1035   -0.1499    0.0000 C   0  0  0  0  0  0  0  0  0  0  0  0
   -3.2883   -1.7054    0.0000 C   0  0  0  0  0  0  0  0  0  0  0  0
   -1.0686   -0.9714    0.0000 C   0  0  0  0  0  0  0  0  0  0  0  0
   -2.5018    0.7065    0.0000 C   0  0  0  0  0  0  0  0  0  0  0  0
   -1.0860    0.6890    0.0000 C   0  0  0  0  0  0  0  0  0  0  0  0
   -3.8301   -2.3172    0.0000 C   0  0  0  0  0  0  0  0  0  0  0  0
   -0.0723   -3.2435    0.0000 C   0  0  0  0  0  0  0  0  0  0  0  0
   -1.7852    1.9475    0.0000 C   0  0  0  0  0  0  0  0  0  0  0  0
   -0.3695   -0.5693    0.0000 C   0  0  0  0  0  0  0  0  0  0  0  0
    1.5706   -3.0687    0.0000 C   0  0  0  0  0  0  0  0  0  0  0  0
    0.4171   -3.9077    0.0000 C   0  0  0  0  0  0  0  0  0  0  0  0
    0.2598   -2.4920    0.0000 C   0  0  0  0  0  0  0  0  0  0  0  0
    1.2385   -3.8203    0.0000 C   0  0  0  0  0  0  0  0  0  0  0  0
    1.0812   -2.4045    0.0000 C   0  0  0  0  0  0  0  0  0  0  0  0
   -1.1210    3.2059    0.0000 C   0  0  3  0  0  0  0  0  0  0  0  0
    3.8301   -4.4643    0.0000 C   0  0  0  0  0  0  0  0  0  0  0  0
    3.8301   -4.4643    0.0000 C   0  0  0  0  0  0  0  0  0  0  0  0
   -0.4219    3.6953    0.0000 C   0  0  0  0  0  0  0  0  0  0  0  0
   -1.7502    3.6603    0.0000 C   0  0  0  0  0  0  0  0  0  0  0  0
   -1.4881    4.4643    0.0000 C   0  0  0  0  0  0  0  0  0  0  0  0
  1  5  2  0  0  0  0
  1  6  2  0  0  0  0
  1 13  1  0  0  0  0
  1 30  1  0  0  0  0
  2 19  2  0  0  0  0
  3 28  1  0  0  0  0
 35  3  1  1  0  0  0
  4 28  2  0  0  0  0
  7 38  1  0  0  0  0
  7 40  1  0  0  0  0
  8  9  1  0  0  0  0
  8 15  1  0  0  0  0
  8 16  1  0  0  0  0
  9 18  2  0  0  0  0
 10 18  1  0  0  0  0
 10 27  1  0  0  0  0
 11 19  1  0  0  0  0
 11 26  1  0  0  0  0
 12 24  1  0  0  0  0
 12 25  1  0  0  0  0
 12 28  1  0  0  0  0
 13 36  1  0  0  0  0
 13 37  1  0  0  0  0
 14 29  3  0  0  0  0
 15 20  1  0  0  0  0
 15 21  1  0  0  0  0
 15 23  1  0  0  0  0
 16 17  2  0  0  0  0
 16 22  1  0  0  0  0
 17 18  1  0  0  0  0
 17 19  1  0  0  0  0
 20 24  1  0  0  0  0
 21 25  1  0  0  0  0
 22 26  2  0  0  0  0
 23 29  1  0  0  0  0
 27 31  2  0  0  0  0
 27 32  1  0  0  0  0
 30 33  2  0  0  0  0
 30 34  1  0  0  0  0
 31 33  1  0  0  0  0
 32 34  2  0  0  0  0
 35 38  1  0  0  0  0
 35 39  1  0  0  0  0
 39 40  1  0  0  0  0
M  END
> <PUBCHEM_COMPOUND_ID_TYPE>
0

> <PUBCHEM_TOTAL_CHARGE>
0

> <PUBCHEM_SUBSTANCE_ID>
310940131

> <PUBCHEM_SUBSTANCE_VERSION>
1

> <PUBCHEM_EXT_DATASOURCE_NAME>
4488

> <PUBCHEM_EXT_DATASOURCE_REGID>
SCHEMBL16118064

> <PUBCHEM_SUBSTANCE_COMMENT>
InChI=1S/C26H31N7O6S/c1-31(2)40(36,37)20-5-3-18(4-6-20)29-23-22-21(7-13-28-24(22)34)33(30-23)26(9-12-27)10-14-32(15-11-26)25(35)39-19-8-16-38-17-19/h3-7,13,19H,8-11,14-17H2,1-2H3,(H,28,34)(H,29,30)/t19-/m0/s1
InChIKey=ZOVFXZRZZQIOQN-IBGZPJMESA-N

> <PUBCHEM_SUBSTANCE_SYNONYM>
SCHEMBL16118064

> <PUBCHEM_XREF_EXT_ID>
SCHEMBL16118064

> <PUBCHEM_EXT_DATASOURCE_URL>
https://www.surechembl.org/

> <PUBCHEM_EXT_SUBSTANCE_URL>
https://www.surechembl.org/chemical/SCHEMBL16118064

> <PUBCHEM_CID_ASSOCIATIONS>
117607258  1

> <PUBCHEM_COORDINATE_TYPE>
1
3

> <PUBCHEM_BONDANNOTATIONS>
35  3  5

$$$$
