310932857
  -OEChem-07211613022D

 46 52  0     1  0  0  0  0  0999 V2000
    3.7380   -2.5419    0.0000 Cl  0  0  0  0  0  0  0  0  0  0  0  0
    2.7910   -3.8875    0.0000 F   0  0  0  0  0  0  0  0  0  0  0  0
    0.0000   -6.2300    0.0000 O   0  0  0  0  0  0  0  0  0  0  0  0
    2.8907   -4.5853    0.0000 O   0  0  0  0  0  0  0  0  0  0  0  0
    1.4454   -6.2300    0.0000 N   0  0  0  0  0  0  0  0  0  0  0  0
    1.1463   -3.7380    0.0000 N   0  0  0  0  0  0  0  0  0  0  0  0
    0.0498   -4.4856    0.0000 N   0  0  0  0  0  0  0  0  0  0  0  0
    1.4454   -4.5853    0.0000 N   0  0  0  0  0  0  0  0  0  0  0  0
    2.8409   -9.5194    0.0000 N   0  0  0  0  0  0  0  0  0  0  0  0
    4.2364   -9.5194    0.0000 N   0  0  0  0  0  0  0  0  0  0  0  0
    2.0933   -0.7974    0.0000 N   0  0  0  0  0  0  0  0  0  0  0  0
    0.7974   -0.7974    0.0000 N   0  0  0  0  0  0  0  0  0  0  0  0
    2.1431   -5.8313    0.0000 C   0  0  3  0  0  0  0  0  0  0  0  0
    2.8907   -6.2300    0.0000 C   0  0  0  0  0  0  0  0  0  0  0  0
    2.8907   -7.0274    0.0000 C   0  0  0  0  0  0  0  0  0  0  0  0
    0.7476   -5.8313    0.0000 C   0  0  0  0  0  0  0  0  0  0  0  0
    0.7476   -4.9840    0.0000 C   0  0  0  0  0  0  0  0  0  0  0  0
    1.5451   -4.6850    0.0000 C   0  0  0  0  0  0  0  0  0  0  0  0
    3.5885   -7.4760    0.0000 C   0  0  0  0  0  0  0  0  0  0  0  0
    2.1431   -4.9840    0.0000 C   0  0  0  0  0  0  0  0  0  0  0  0
    1.4454   -7.0274    0.0000 C   0  0  0  0  0  0  0  0  0  0  0  0
    2.1431   -7.4760    0.0000 C   0  0  0  0  0  0  0  0  0  0  0  0
    1.6447   -3.0402    0.0000 C   0  0  0  0  0  0  0  0  0  0  0  0
    3.5885   -5.8313    0.0000 C   0  0  0  0  0  0  0  0  0  0  0  0
    0.2990   -3.7380    0.0000 C   0  0  0  0  0  0  0  0  0  0  0  0
    3.5387   -8.2734    0.0000 C   0  0  0  0  0  0  0  0  0  0  0  0
    4.2862   -7.0274    0.0000 C   0  0  0  0  0  0  0  0  0  0  0  0
    2.4422   -3.1399    0.0000 C   0  0  0  0  0  0  0  0  0  0  0  0
    4.2862   -6.2300    0.0000 C   0  0  0  0  0  0  0  0  0  0  0  0
    1.2958   -2.2926    0.0000 C   0  0  0  0  0  0  0  0  0  0  0  0
    2.1431   -4.7846    0.0000 C   0  0  0  0  0  0  0  0  0  0  0  0
    2.9406   -2.4920    0.0000 C   0  0  0  0  0  0  0  0  0  0  0  0
    1.4454   -3.7380    0.0000 C   0  0  0  0  0  0  0  0  0  0  0  0
    2.8409   -8.7220    0.0000 C   0  0  0  0  0  0  0  0  0  0  0  0
    4.2862   -8.7220    0.0000 C   0  0  0  0  0  0  0  0  0  0  0  0
    1.7942   -1.6447    0.0000 C   0  0  0  0  0  0  0  0  0  0  0  0
    2.5917   -1.7444    0.0000 C   0  0  0  0  0  0  0  0  0  0  0  0
    0.7476   -3.3392    0.0000 C   0  0  0  0  0  0  0  0  0  0  0  0
    2.1431   -3.3392    0.0000 C   0  0  0  0  0  0  0  0  0  0  0  0
    1.4454   -2.0933    0.0000 C   0  0  0  0  0  0  0  0  0  0  0  0
    0.7476   -2.4920    0.0000 C   0  0  0  0  0  0  0  0  0  0  0  0
    2.1431   -2.4920    0.0000 C   0  0  0  0  0  0  0  0  0  0  0  0
    3.5387   -9.9680    0.0000 C   0  0  0  0  0  0  0  0  0  0  0  0
    1.4454   -1.2460    0.0000 C   0  0  0  0  0  0  0  0  0  0  0  0
    1.8441    0.0000    0.0000 C   0  0  0  0  0  0  0  0  0  0  0  0
    1.0466    0.0000    0.0000 C   0  0  0  0  0  0  0  0  0  0  0  0
  1 32  1  0  0  0  0
  2 28  1  0  0  0  0
  3 16  2  0  0  0  0
  4 20  2  0  0  0  0
  5 13  1  0  0  0  0
  5 16  1  0  0  0  0
  5 21  1  0  0  0  0
  6 18  1  0  0  0  0
  6 23  1  0  0  0  0
  6 25  1  0  0  0  0
  7 17  1  0  0  0  0
  7 25  2  0  0  0  0
  8 20  1  0  0  0  0
  8 33  1  0  0  0  0
  9 34  2  0  0  0  0
  9 43  1  0  0  0  0
 10 35  1  0  0  0  0
 10 43  2  0  0  0  0
 11 44  2  0  0  0  0
 11 45  1  0  0  0  0
 12 44  1  0  0  0  0
 12 46  1  0  0  0  0
 13 14  1  0  0  0  0
 13 20  1  0  0  0  0
 14 15  2  0  0  0  0
 14 24  1  0  0  0  0
 15 19  1  0  0  0  0
 15 22  1  0  0  0  0
 16 17  1  0  0  0  0
 17 18  2  0  0  0  0
 18 31  1  0  0  0  0
 19 26  1  0  0  0  0
 19 27  2  0  0  0  0
 21 22  1  0  0  0  0
 23 28  1  0  0  0  0
 23 30  2  0  0  0  0
 24 29  2  0  0  0  0
 26 34  1  0  0  0  0
 26 35  2  0  0  0  0
 27 29  1  0  0  0  0
 28 32  2  0  0  0  0
 30 36  1  0  0  0  0
 32 37  1  0  0  0  0
 33 38  2  0  0  0  0
 33 39  1  0  0  0  0
 36 37  2  0  0  0  0
 38 41  1  0  0  0  0
 39 42  2  0  0  0  0
 40 41  2  0  0  0  0
 40 42  1  0  0  0  0
 40 44  1  0  0  0  0
 45 46  2  0  0  0  0
M  END
> <PUBCHEM_COMPOUND_ID_TYPE>
0

> <PUBCHEM_TOTAL_CHARGE>
0

> <PUBCHEM_SUBSTANCE_ID>
310932857

> <PUBCHEM_SUBSTANCE_VERSION>
1

> <PUBCHEM_EXT_DATASOURCE_NAME>
4488

> <PUBCHEM_EXT_DATASOURCE_REGID>
SCHEMBL16110249

> <PUBCHEM_SUBSTANCE_COMMENT>
InChI=1S/C34H26ClFN8O2/c1-20-30(41-19-44(20)28-7-3-6-27(35)29(28)36)34(46)43-15-12-25-24(22-16-37-18-38-17-22)4-2-5-26(25)31(43)33(45)42-23-10-8-21(9-11-23)32-39-13-14-40-32/h2-11,13-14,16-19,31H,12,15H2,1H3,(H,39,40)(H,42,45)
InChIKey=ONWUTQDTDXXYOW-UHFFFAOYSA-N

> <PUBCHEM_SUBSTANCE_SYNONYM>
SCHEMBL16110249

> <PUBCHEM_XREF_EXT_ID>
SCHEMBL16110249

> <PUBCHEM_EXT_DATASOURCE_URL>
https://www.surechembl.org/

> <PUBCHEM_EXT_SUBSTANCE_URL>
https://www.surechembl.org/chemical/SCHEMBL16110249

> <PUBCHEM_CID_ASSOCIATIONS>
117601342  1

> <PUBCHEM_COORDINATE_TYPE>
1
3

$$$$
