310948837
  -OEChem-07211613022D

 89 94  0     1  0  0  0  0  0999 V2000
    5.1365   -5.9239    0.0000 S   0  0  0  0  0  0  0  0  0  0  0  0
    6.0514    5.1740    0.0000 S   0  0  0  0  0  0  0  0  0  0  0  0
    0.6674   -4.8291    0.0000 S   0  0  0  0  0  0  0  0  0  0  0  0
    2.6170    0.4499    0.0000 S   0  0  0  0  0  0  0  0  0  0  0  0
    5.1365   -5.9239    0.0000 O   0  0  0  0  0  0  0  0  0  0  0  0
    5.1365   -5.9239    0.0000 O   0  0  0  0  0  0  0  0  0  0  0  0
    5.1365   -5.9239    0.0000 O   0  0  0  0  0  0  0  0  0  0  0  0
    5.3015    5.3690    0.0000 O   0  0  0  0  0  0  0  0  0  0  0  0
    6.8312    4.9490    0.0000 O   0  0  0  0  0  0  0  0  0  0  0  0
    6.2763    5.9239    0.0000 O   0  0  0  0  0  0  0  0  0  0  0  0
   -3.7568   -0.3449    0.0000 O   0  0  0  0  0  0  0  0  0  0  0  0
   -4.4767   -1.5747    0.0000 O   0  0  0  0  0  0  0  0  0  0  0  0
   -5.1815    1.3047    0.0000 O   0  0  0  0  0  0  0  0  0  0  0  0
   -2.3470   -2.8195    0.0000 O   0  0  0  0  0  0  0  0  0  0  0  0
   -3.7568    1.3047    0.0000 O   0  0  0  0  0  0  0  0  0  0  0  0
   -2.3470   -1.1698    0.0000 O   0  0  0  0  0  0  0  0  0  0  0  0
   -5.1815   -1.1698    0.0000 O   0  0  0  0  0  0  0  0  0  0  0  0
    1.3272   -5.3240    0.0000 O   0  0  0  0  0  0  0  0  0  0  0  0
    0.2175   -5.4890    0.0000 O   0  0  0  0  0  0  0  0  0  0  0  0
    0.0225   -4.3791    0.0000 O   0  0  0  0  0  0  0  0  0  0  0  0
   -3.7568   -3.6443    0.0000 O   0  0  0  0  0  0  0  0  0  0  0  0
   -6.5913   -0.3449    0.0000 O   0  0  0  0  0  0  0  0  0  0  0  0
    1.8971    0.0600    0.0000 O   0  0  0  0  0  0  0  0  0  0  0  0
    2.2271    1.1398    0.0000 O   0  0  0  0  0  0  0  0  0  0  0  0
    3.3219    0.8399    0.0000 O   0  0  0  0  0  0  0  0  0  0  0  0
   -5.1815   -3.6443    0.0000 O   0  0  0  0  0  0  0  0  0  0  0  0
   -7.3111    0.8848    0.0000 O   0  0  0  0  0  0  0  0  0  0  0  0
   -2.3470   -2.8195    0.0000 O   0  0  0  0  0  0  0  0  0  0  0  0
    1.1323    2.6695    0.0000 O   0  0  0  0  0  0  0  0  0  0  0  0
   -1.6272    0.8848    0.0000 O   0  0  0  0  0  0  0  0  0  0  0  0
    4.2067   -2.2646    0.0000 N   0  3  0  0  0  0  0  0  0  0  0  0
    5.3615    1.8896    0.0000 N   0  0  0  0  0  0  0  0  0  0  0  0
   -2.3470   -2.8195    0.0000 N   0  0  0  0  0  0  0  0  0  0  0  0
    0.5024    1.3047    0.0000 N   0  0  0  0  0  0  0  0  0  0  0  0
    3.8168   -3.1494    0.0000 C   0  0  3  0  0  0  0  0  0  0  0  0
    4.4317   -3.7493    0.0000 C   0  0  0  0  0  0  0  0  0  0  0  0
    5.1665   -3.3743    0.0000 C   0  0  0  0  0  0  0  0  0  0  0  0
    5.0316   -2.5345    0.0000 C   0  0  0  0  0  0  0  0  0  0  0  0
    6.6812    2.2646    0.0000 C   0  0  0  0  0  0  0  0  0  0  0  0
    6.2163    2.9695    0.0000 C   0  0  0  0  0  0  0  0  0  0  0  0
    6.1413    1.5897    0.0000 C   0  0  0  0  0  0  0  0  0  0  0  0
    5.3914    2.7595    0.0000 C   0  0  0  0  0  0  0  0  0  0  0  0
    4.4317   -4.6191    0.0000 C   0  0  0  0  0  0  0  0  0  0  0  0
    3.3069   -3.7943    0.0000 C   0  0  0  0  0  0  0  0  0  0  0  0
    5.1665   -5.0840    0.0000 C   0  0  0  0  0  0  0  0  0  0  0  0
    5.9164   -3.8393    0.0000 C   0  0  0  0  0  0  0  0  0  0  0  0
    3.8318   -1.6647    0.0000 C   0  0  0  0  0  0  0  0  0  0  0  0
    3.1269   -2.7295    0.0000 C   0  0  0  0  0  0  0  0  0  0  0  0
    5.6164   -1.9346    0.0000 C   0  0  0  0  0  0  0  0  0  0  0  0
    6.4263    3.8092    0.0000 C   0  0  0  0  0  0  0  0  0  0  0  0
    5.9164   -4.6941    0.0000 C   0  0  0  0  0  0  0  0  0  0  0  0
    5.8114    4.4092    0.0000 C   0  0  0  0  0  0  0  0  0  0  0  0
    4.8066    3.3593    0.0000 C   0  0  0  0  0  0  0  0  0  0  0  0
    6.3513    0.8099    0.0000 C   0  0  0  0  0  0  0  0  0  0  0  0
    4.6716    1.4547    0.0000 C   0  0  0  0  0  0  0  0  0  0  0  0
    7.3111    2.7745    0.0000 C   0  0  0  0  0  0  0  0  0  0  0  0
    7.2661    1.6647    0.0000 C   0  0  0  0  0  0  0  0  0  0  0  0
    5.0166    4.1842    0.0000 C   0  0  0  0  0  0  0  0  0  0  0  0
    2.4970   -3.6743    0.0000 C   0  0  0  0  0  0  0  0  0  0  0  0
    5.4215   -1.1548    0.0000 C   0  0  0  0  0  0  0  0  0  0  0  0
    4.2367   -0.9448    0.0000 C   0  0  0  0  0  0  0  0  0  0  0  0
    5.7964    0.2400    0.0000 C   0  0  0  0  0  0  0  0  0  0  0  0
    5.9914   -0.5849    0.0000 C   0  0  0  0  0  0  0  0  0  0  0  0
    3.9367    1.8597    0.0000 C   0  0  0  0  0  0  0  0  0  0  0  0
    1.9871   -4.3042    0.0000 C   0  0  0  0  0  0  0  0  0  0  0  0
    3.8468   -0.2550    0.0000 C   0  0  0  0  0  0  0  0  0  0  0  0
    3.2319    1.4547    0.0000 C   0  0  0  0  0  0  0  0  0  0  0  0
    1.1773   -4.1842    0.0000 C   0  0  0  0  0  0  0  0  0  0  0  0
    3.0069   -0.2250    0.0000 C   0  0  0  0  0  0  0  0  0  0  0  0
   -4.4916    0.0750    0.0000 C   0  0  3  0  0  0  0  0  0  0  0  0
   -3.7718   -1.1548    0.0000 C   0  0  3  0  0  0  0  0  0  0  0  0
   -3.0519   -1.5597    0.0000 C   0  0  3  0  0  0  0  0  0  0  0  0
   -3.0669   -2.3845    0.0000 C   0  0  3  0  0  0  0  0  0  0  0  0
   -5.1815   -0.3299    0.0000 C   0  0  3  0  0  0  0  0  0  0  0  0
   -4.4767    0.8998    0.0000 C   0  0  3  0  0  0  0  0  0  0  0  0
   -3.7418   -2.7894    0.0000 C   0  0  3  0  0  0  0  0  0  0  0  0
   -4.4916   -2.3845    0.0000 C   0  0  3  0  0  0  0  0  0  0  0  0
   -5.8864    0.0900    0.0000 C   0  0  3  0  0  0  0  0  0  0  0  0
   -5.8864    0.9148    0.0000 C   0  0  3  0  0  0  0  0  0  0  0  0
    2.5270    1.8597    0.0000 C   0  0  0  0  0  0  0  0  0  0  0  0
   -5.1815   -2.8044    0.0000 C   0  0  0  0  0  0  0  0  0  0  0  0
   -6.5913    1.3347    0.0000 C   0  0  0  0  0  0  0  0  0  0  0  0
    1.8522    1.4547    0.0000 C   0  0  0  0  0  0  0  0  0  0  0  0
   -2.3470   -2.8195    0.0000 C   0  0  0  0  0  0  0  0  0  0  0  0
   -3.0369    0.9148    0.0000 C   0  0  0  0  0  0  0  0  0  0  0  0
    1.1173    1.8447    0.0000 C   0  0  0  0  0  0  0  0  0  0  0  0
   -2.3470    1.3197    0.0000 C   0  0  0  0  0  0  0  0  0  0  0  0
   -0.2024    0.9148    0.0000 C   0  0  0  0  0  0  0  0  0  0  0  0
   -0.9373    1.3197    0.0000 C   0  0  0  0  0  0  0  0  0  0  0  0
  1  5  2  0  0  0  0
  1  6  2  0  0  0  0
  1  7  1  0  0  0  0
  1 45  1  0  0  0  0
  2  8  2  0  0  0  0
  2  9  2  0  0  0  0
  2 10  1  0  0  0  0
  2 52  1  0  0  0  0
  3 18  2  0  0  0  0
  3 19  2  0  0  0  0
  3 20  1  0  0  0  0
  3 68  1  0  0  0  0
  4 23  2  0  0  0  0
  4 24  2  0  0  0  0
  4 25  1  0  0  0  0
  4 69  1  0  0  0  0
 70 11  1  1  0  0  0
 71 11  1  6  0  0  0
 12 71  1  0  0  0  0
 12 77  1  0  0  0  0
 13 75  1  0  0  0  0
 13 79  1  0  0  0  0
 73 14  1  1  0  0  0
 14 84  1  0  0  0  0
 75 15  1  6  0  0  0
 15 85  1  0  0  0  0
 72 16  1  1  0  0  0
 74 17  1  1  0  0  0
 76 21  1  6  0  0  0
 78 22  1  6  0  0  0
 26 81  1  0  0  0  0
 27 82  1  0  0  0  0
 28 84  2  0  0  0  0
 29 86  2  0  0  0  0
 30 87  1  0  0  0  0
 30 89  1  0  0  0  0
 31 35  1  0  0  0  0
 31 38  2  0  0  0  0
 31 47  1  0  0  0  0
 32 41  1  0  0  0  0
 32 42  1  0  0  0  0
 32 55  1  0  0  0  0
 33 84  1  0  0  0  0
 34 86  1  0  0  0  0
 34 88  1  0  0  0  0
 35 36  1  0  0  0  0
 35 44  1  0  0  0  0
 35 48  1  0  0  0  0
 36 37  2  0  0  0  0
 36 43  1  0  0  0  0
 37 38  1  0  0  0  0
 37 46  1  0  0  0  0
 38 49  1  0  0  0  0
 39 40  1  0  0  0  0
 39 41  1  0  0  0  0
 39 56  1  0  0  0  0
 39 57  1  0  0  0  0
 40 42  2  0  0  0  0
 40 50  1  0  0  0  0
 41 54  2  0  0  0  0
 42 53  1  0  0  0  0
 43 45  2  0  0  0  0
 44 59  1  0  0  0  0
 45 51  1  0  0  0  0
 46 51  2  0  0  0  0
 47 61  1  0  0  0  0
 49 60  2  0  0  0  0
 50 52  2  0  0  0  0
 52 58  1  0  0  0  0
 53 58  2  0  0  0  0
 54 62  1  0  0  0  0
 55 64  1  0  0  0  0
 59 65  1  0  0  0  0
 60 63  1  0  0  0  0
 61 66  1  0  0  0  0
 62 63  2  0  0  0  0
 64 67  1  0  0  0  0
 65 68  1  0  0  0  0
 66 69  1  0  0  0  0
 67 80  1  0  0  0  0
 70 74  1  0  0  0  0
 70 75  1  0  0  0  0
 71 72  1  0  0  0  0
 72 73  1  0  0  0  0
 73 76  1  0  0  0  0
 74 78  1  0  0  0  0
 76 77  1  0  0  0  0
 77 81  1  1  0  0  0
 78 79  1  0  0  0  0
 79 82  1  6  0  0  0
 80 83  1  0  0  0  0
 83 86  1  0  0  0  0
 85 87  1  0  0  0  0
 88 89  1  0  0  0  0
M  CHG  1  31   1
M  END
> <PUBCHEM_COMPOUND_ID_TYPE>
0

> <PUBCHEM_TOTAL_CHARGE>
1

> <PUBCHEM_SUBSTANCE_ID>
310948837

> <PUBCHEM_SUBSTANCE_VERSION>
1

> <PUBCHEM_EXT_DATASOURCE_NAME>
4488

> <PUBCHEM_EXT_DATASOURCE_REGID>
SCHEMBL16127021

> <PUBCHEM_SUBSTANCE_COMMENT>
InChI=1S/C55H80N4O26S4/c1-54(2)38-31-35(89(77,78)79)18-20-40(38)58(43(54)15-7-4-6-14-39-36-19-17-34(88(74,75)76)30-37(36)55(3,21-9-12-28-86(68,69)70)59(39)24-11-13-29-87(71,72)73)23-10-5-8-16-44(62)57-22-25-80-26-27-81-52-50(47(65)45(63)41(32-60)83-52)84-51-48(66)49(85-53(56)67)46(64)42(33-61)82-51/h4,6-7,14-15,17-20,30-31,41-42,45-52,60-61,63-66H,5,8-13,16,21-29,32-33H2,1-3H3,(H6-,56,57,62,67,68,69,70,71,72,73,74,75,76,77,78,79)/p+1/t41-,42+,45+,46+,47-,48-,49-,50-,51+,52-,55?/m0/s1
InChIKey=LPDNJHYYAGDYJJ-KJMZMGLDSA-O

> <PUBCHEM_SUBSTANCE_SYNONYM>
SCHEMBL16127021

> <PUBCHEM_XREF_EXT_ID>
SCHEMBL16127021

> <PUBCHEM_EXT_DATASOURCE_URL>
https://www.surechembl.org/

> <PUBCHEM_EXT_SUBSTANCE_URL>
https://www.surechembl.org/chemical/SCHEMBL16127021

> <PUBCHEM_CID_ASSOCIATIONS>
117614374  1

> <PUBCHEM_COORDINATE_TYPE>
1
3

> <PUBCHEM_BONDANNOTATIONS>
70  11  5
71  11  6
73  14  5
75  15  6
72  16  5
74  17  5
76  21  6
78  22  6
77  81  5
79  82  6

$$$$
