310944492
  -OEChem-07211613022D

 14 14  0     0  0  0  0  0  0999 V2000
   -0.3585   -1.6451    0.0000 I   0  0  0  0  0  0  0  0  0  0  0  0
    1.7925    0.3781    0.0000 Cl  0  0  0  0  0  0  0  0  0  0  0  0
   -1.7925    0.8202    0.0000 Cl  0  0  0  0  0  0  0  0  0  0  0  0
   -0.3486    1.6451    0.0000 F   0  0  0  0  0  0  0  0  0  0  0  0
    1.0951    1.6353    0.0000 O   0  0  0  0  0  0  0  0  0  0  0  0
   -1.7925    0.8202    0.0000 O   0  0  0  0  0  0  0  0  0  0  0  0
   -0.3683    0.8496    0.0000 C   0  0  0  0  0  0  0  0  0  0  0  0
    0.3585    0.4468    0.0000 C   0  0  0  0  0  0  0  0  0  0  0  0
   -1.0657    0.4468    0.0000 C   0  0  0  0  0  0  0  0  0  0  0  0
   -0.3585   -0.7907    0.0000 C   0  0  0  0  0  0  0  0  0  0  0  0
    0.3585   -0.3781    0.0000 C   0  0  0  0  0  0  0  0  0  0  0  0
   -1.0755   -0.3781    0.0000 C   0  0  0  0  0  0  0  0  0  0  0  0
    1.0755    0.8300    0.0000 C   0  0  0  0  0  0  0  0  0  0  0  0
   -1.7925    0.8202    0.0000 C   0  0  0  0  0  0  0  0  0  0  0  0
  1 10  1  0  0  0  0
  2 13  1  0  0  0  0
  3 14  1  0  0  0  0
  4  7  1  0  0  0  0
  5 13  2  0  0  0  0
  6 14  2  0  0  0  0
  7  8  2  0  0  0  0
  7  9  1  0  0  0  0
  8 11  1  0  0  0  0
  8 13  1  0  0  0  0
  9 12  2  0  0  0  0
  9 14  1  0  0  0  0
 10 11  2  0  0  0  0
 10 12  1  0  0  0  0
M  END
> <PUBCHEM_COMPOUND_ID_TYPE>
0

> <PUBCHEM_TOTAL_CHARGE>
0

> <PUBCHEM_SUBSTANCE_ID>
310944492

> <PUBCHEM_SUBSTANCE_VERSION>
1

> <PUBCHEM_EXT_DATASOURCE_NAME>
4488

> <PUBCHEM_EXT_DATASOURCE_REGID>
SCHEMBL16122567

> <PUBCHEM_SUBSTANCE_COMMENT>
InChI=1S/C8H2Cl2FIO2/c9-7(13)4-1-3(12)2-5(6(4)11)8(10)14/h1-2H
InChIKey=WCUOVZJTTGGVKX-UHFFFAOYSA-N

> <PUBCHEM_SUBSTANCE_SYNONYM>
SCHEMBL16122567

> <PUBCHEM_XREF_EXT_ID>
SCHEMBL16122567

> <PUBCHEM_EXT_DATASOURCE_URL>
https://www.surechembl.org/

> <PUBCHEM_EXT_SUBSTANCE_URL>
https://www.surechembl.org/chemical/SCHEMBL16122567

> <PUBCHEM_CID_ASSOCIATIONS>
117610732  1

> <PUBCHEM_COORDINATE_TYPE>
1
3

$$$$
