310940768
  -OEChem-07211613022D

 37 39  0     1  0  0  0  0  0999 V2000
    0.7623    1.5642    0.0000 S   0  0  0  0  0  0  0  0  0  0  0  0
    2.9905    0.4752    0.0000 S   0  0  0  0  0  0  0  0  0  0  0  0
   -4.5318    0.3580    0.0000 S   0  0  0  0  0  0  0  0  0  0  0  0
    2.2198   -0.9321    0.0000 P   0  0  0  0  0  0  0  0  0  0  0  0
   -1.3654   -0.2787    0.0000 O   0  0  0  0  0  0  0  0  0  0  0  0
    2.2198   -0.9321    0.0000 O   0  0  0  0  0  0  0  0  0  0  0  0
    2.2198   -0.9321    0.0000 O   0  0  0  0  0  0  0  0  0  0  0  0
   -2.3204    0.6093    0.0000 O   0  0  0  0  0  0  0  0  0  0  0  0
   -2.3036    3.0887    0.0000 O   0  0  0  0  0  0  0  0  0  0  0  0
    5.8385    0.4752    0.0000 O   0  0  0  0  0  0  0  0  0  0  0  0
    5.8385   -1.1833    0.0000 O   0  0  0  0  0  0  0  0  0  0  0  0
    0.0419    0.3077    0.0000 N   0  0  0  0  0  0  0  0  0  0  0  0
   -1.3486    1.8657    0.0000 N   0  0  0  0  0  0  0  0  0  0  0  0
   -3.0240    2.6699    0.0000 N   0  0  0  0  0  0  0  0  0  0  0  0
   -4.5150    1.6982    0.0000 N   0  0  0  0  0  0  0  0  0  0  0  0
    2.2198   -0.9321    0.0000 N   0  0  0  0  0  0  0  0  0  0  0  0
   -5.8385    1.0448    0.0000 N   0  0  0  0  0  0  0  0  0  0  0  0
    4.4145    0.4752    0.0000 N   0  0  0  0  0  0  0  0  0  0  0  0
    4.4145   -1.2001    0.0000 N   0  0  0  0  0  0  0  0  0  0  0  0
    0.0419    1.1454    0.0000 C   0  0  3  0  0  0  0  0  0  0  0  0
   -0.7790    1.1621    0.0000 C   0  0  3  0  0  0  0  0  0  0  0  0
   -0.7623    0.3412    0.0000 C   0  0  0  0  0  0  0  0  0  0  0  0
    0.7623   -0.0944    0.0000 C   0  0  0  0  0  0  0  0  0  0  0  0
    1.4492    0.3077    0.0000 C   0  0  0  0  0  0  0  0  0  0  0  0
    2.2198   -0.9321    0.0000 C   0  0  0  0  0  0  0  0  0  0  0  0
    1.4827    1.1454    0.0000 C   0  0  0  0  0  0  0  0  0  0  0  0
   -2.3036    1.4804    0.0000 C   0  0  0  0  0  0  0  0  0  0  0  0
    2.1193   -0.0107    0.0000 C   0  0  0  0  0  0  0  0  0  0  0  0
   -3.0407    1.8657    0.0000 C   0  0  0  0  0  0  0  0  0  0  0  0
   -3.7276    1.4637    0.0000 C   0  0  0  0  0  0  0  0  0  0  0  0
   -3.7611    0.6093    0.0000 C   0  0  0  0  0  0  0  0  0  0  0  0
   -5.0008    1.0280    0.0000 C   0  0  0  0  0  0  0  0  0  0  0  0
    3.7109    0.0732    0.0000 C   0  0  0  0  0  0  0  0  0  0  0  0
    5.1396   -3.9432    0.0000 C   0  0  0  0  0  0  0  0  0  0  0  0
    5.1182    0.0564    0.0000 C   0  0  0  0  0  0  0  0  0  0  0  0
   -2.3204    3.9432    0.0000 C   0  0  0  0  0  0  0  0  0  0  0  0
    5.1014   -0.7478    0.0000 C   0  0  0  0  0  0  0  0  0  0  0  0
  1 20  1  0  0  0  0
  1 26  1  0  0  0  0
  2 28  1  0  0  0  0
  2 33  1  0  0  0  0
  3 31  1  0  0  0  0
  3 32  1  0  0  0  0
  4  6  1  0  0  0  0
  4 16  3  0  0  0  0
  4 34  1  0  0  0  0
  5 22  2  0  0  0  0
  6 25  1  0  0  0  0
  7 25  2  0  0  0  0
  8 27  2  0  0  0  0
  9 14  1  0  0  0  0
  9 36  1  0  0  0  0
 10 35  2  0  0  0  0
 11 37  2  0  0  0  0
 20 12  1  1  0  0  0
 12 22  1  0  0  0  0
 12 23  1  0  0  0  0
 21 13  1  1  0  0  0
 13 27  1  0  0  0  0
 14 29  2  0  0  0  0
 15 30  1  0  0  0  0
 15 32  2  0  0  0  0
 17 32  1  0  0  0  0
 18 33  2  0  0  0  0
 18 35  1  0  0  0  0
 19 37  1  0  0  0  0
 20 21  1  0  0  0  0
 21 22  1  0  0  0  0
 23 24  2  0  0  0  0
 23 25  1  0  0  0  0
 24 26  1  0  0  0  0
 24 28  1  0  0  0  0
 27 29  1  0  0  0  0
 29 30  1  0  0  0  0
 30 31  2  0  0  0  0
 35 37  1  0  0  0  0
M  END
> <PUBCHEM_COMPOUND_ID_TYPE>
0

> <PUBCHEM_TOTAL_CHARGE>
0

> <PUBCHEM_SUBSTANCE_ID>
310940768

> <PUBCHEM_SUBSTANCE_VERSION>
1

> <PUBCHEM_EXT_DATASOURCE_NAME>
4488

> <PUBCHEM_EXT_DATASOURCE_REGID>
SCHEMBL16118727

> <PUBCHEM_SUBSTANCE_COMMENT>
InChI=1S/C18H19N8O7PS3/c1-32-25-9(8-5-37-18(20)23-8)13(28)24-10-15(30)26-11(17(31)33-34(2)21)7(4-36-16(10)26)3-35-6-22-14(29)12(19)27/h5-6,10,16H,3-4H2,1-2H3,(H2,19,27)(H2,20,23)(H,24,28)/b22-6+,25-9-/t10-,16-/m1/s1
InChIKey=QYVJOYLUTLBDGK-KWWJPGLPSA-N

> <PUBCHEM_SUBSTANCE_SYNONYM>
SCHEMBL16118727

> <PUBCHEM_XREF_EXT_ID>
SCHEMBL16118727

> <PUBCHEM_EXT_DATASOURCE_URL>
https://www.surechembl.org/

> <PUBCHEM_EXT_SUBSTANCE_URL>
https://www.surechembl.org/chemical/SCHEMBL16118727

> <PUBCHEM_CID_ASSOCIATIONS>
117607720  1

> <PUBCHEM_COORDINATE_TYPE>
1
3

> <PUBCHEM_BONDANNOTATIONS>
20  12  5
21  13  5

$$$$
