310949150
  -OEChem-07211613022D

 32 36  0     1  0  0  0  0  0999 V2000
   -0.5693    1.3353    0.0000 F   0  0  0  0  0  0  0  0  0  0  0  0
   -0.8177    2.4325    0.0000 F   0  0  0  0  0  0  0  0  0  0  0  0
    0.2588    2.6603    0.0000 F   0  0  0  0  0  0  0  0  0  0  0  0
   -2.3083   -2.6603    0.0000 O   0  0  0  0  0  0  0  0  0  0  0  0
    2.8052   -2.4739    0.0000 O   0  0  0  0  0  0  0  0  0  0  0  0
   -1.5837   -1.4181    0.0000 N   0  0  0  0  0  0  0  0  0  0  0  0
   -0.8177   -3.5297    0.0000 N   0  0  0  0  0  0  0  0  0  0  0  0
   -0.0311   -3.7161    0.0000 N   0  0  0  0  0  0  0  0  0  0  0  0
    1.4595   -2.0185    0.0000 N   0  0  0  0  0  0  0  0  0  0  0  0
   -1.9977   -0.0931    0.0000 C   0  0  3  0  0  0  0  0  0  0  0  0
   -1.1904   -0.1346    0.0000 C   0  0  3  0  0  0  0  0  0  0  0  0
   -0.9006   -2.7017    0.0000 C   0  0  0  0  0  0  0  0  0  0  0  0
   -1.5837   -2.2462    0.0000 C   0  0  0  0  0  0  0  0  0  0  0  0
   -0.1760   -2.3497    0.0000 C   0  0  0  0  0  0  0  0  0  0  0  0
   -1.5630    1.2111    0.0000 C   0  0  0  0  0  0  0  0  0  0  0  0
    0.3623   -2.9708    0.0000 C   0  0  0  0  0  0  0  0  0  0  0  0
   -1.5630    2.0806    0.0000 C   0  0  0  0  0  0  0  0  0  0  0  0
   -2.2462   -0.9213    0.0000 C   0  0  0  0  0  0  0  0  0  0  0  0
   -0.9420   -0.9213    0.0000 C   0  0  0  0  0  0  0  0  0  0  0  0
   -2.2255    0.7142    0.0000 C   0  0  0  0  0  0  0  0  0  0  0  0
   -0.9213    0.6728    0.0000 C   0  0  0  0  0  0  0  0  0  0  0  0
   -0.8591    2.4739    0.0000 C   0  0  0  0  0  0  0  0  0  0  0  0
    0.1138   -1.5630    0.0000 C   0  0  0  0  0  0  0  0  0  0  0  0
    1.1697   -2.8259    0.0000 C   0  0  0  0  0  0  0  0  0  0  0  0
   -0.1553    2.0185    0.0000 C   0  0  0  0  0  0  0  0  0  0  0  0
   -2.2462    2.4532    0.0000 C   0  0  0  0  0  0  0  0  0  0  0  0
    0.9006   -1.3767    0.0000 C   0  0  0  0  0  0  0  0  0  0  0  0
   -0.8591    3.2813    0.0000 C   0  0  0  0  0  0  0  0  0  0  0  0
    2.2255   -1.8322    0.0000 C   0  0  0  0  0  0  0  0  0  0  0  0
   -2.2462    3.3021    0.0000 C   0  0  0  0  0  0  0  0  0  0  0  0
   -1.5424    3.7161    0.0000 C   0  0  0  0  0  0  0  0  0  0  0  0
    2.5153   -1.0455    0.0000 C   0  0  0  0  0  0  0  0  0  0  0  0
  1 25  1  0  0  0  0
  2 25  1  0  0  0  0
  3 25  1  0  0  0  0
  4 13  2  0  0  0  0
  5 29  2  0  0  0  0
  6 13  1  0  0  0  0
  6 18  1  0  0  0  0
  6 19  1  0  0  0  0
  7  8  1  0  0  0  0
  7 12  2  0  0  0  0
  8 16  1  0  0  0  0
  9 24  1  0  0  0  0
  9 27  1  0  0  0  0
  9 29  1  0  0  0  0
 10 11  1  0  0  0  0
 10 18  1  0  0  0  0
 10 20  1  1  0  0  0
 11 19  1  0  0  0  0
 11 21  1  0  0  0  0
 12 13  1  0  0  0  0
 12 14  1  0  0  0  0
 14 16  2  0  0  0  0
 14 23  1  0  0  0  0
 15 17  1  0  0  0  0
 15 20  1  1  0  0  0
 15 21  1  0  0  0  0
 16 24  1  0  0  0  0
 17 22  1  0  0  0  0
 17 26  2  0  0  0  0
 22 25  1  0  0  0  0
 22 28  2  0  0  0  0
 23 27  1  0  0  0  0
 26 30  1  0  0  0  0
 28 31  1  0  0  0  0
 29 32  1  0  0  0  0
 30 31  2  0  0  0  0
M  END
> <PUBCHEM_COMPOUND_ID_TYPE>
0

> <PUBCHEM_TOTAL_CHARGE>
0

> <PUBCHEM_SUBSTANCE_ID>
310949150

> <PUBCHEM_SUBSTANCE_VERSION>
1

> <PUBCHEM_EXT_DATASOURCE_NAME>
4488

> <PUBCHEM_EXT_DATASOURCE_REGID>
SCHEMBL16127340

> <PUBCHEM_SUBSTANCE_COMMENT>
InChI=1S/C23H25F3N4O2/c1-13(31)29-7-6-18-20(12-29)27-28-21(18)22(32)30-10-15-8-14(9-16(15)11-30)17-4-2-3-5-19(17)23(24,25)26/h2-5,14-16H,6-12H2,1H3,(H,27,28)/t14-,15-,16?/m1/s1
InChIKey=MATJKRPOHILPIO-YGFGXBMJSA-N

> <PUBCHEM_SUBSTANCE_SYNONYM>
SCHEMBL16127340

> <PUBCHEM_XREF_EXT_ID>
SCHEMBL16127340

> <PUBCHEM_EXT_DATASOURCE_URL>
https://www.surechembl.org/

> <PUBCHEM_EXT_SUBSTANCE_URL>
https://www.surechembl.org/chemical/SCHEMBL16127340

> <PUBCHEM_CID_ASSOCIATIONS>
117614645  1

> <PUBCHEM_COORDINATE_TYPE>
1
3

> <PUBCHEM_BONDANNOTATIONS>
10  20  5
15  20  5

$$$$
