310941576
  -OEChem-07211613022D

 58 59  0     1  0  0  0  0  0999 V2000
   -0.8987    0.6917    0.0000 O   0  0  0  0  0  0  0  0  0  0  0  0
    0.0705   -0.6828    0.0000 O   0  0  0  0  0  0  0  0  0  0  0  0
    2.3172    0.0132    0.0000 O   0  0  0  0  0  0  0  0  0  0  0  0
   -0.1762   -2.1630    0.0000 O   0  0  0  0  0  0  0  0  0  0  0  0
    0.8987   -1.4671    0.0000 O   0  0  0  0  0  0  0  0  0  0  0  0
    1.4009    1.3436    0.0000 O   0  0  0  0  0  0  0  0  0  0  0  0
   -1.2599   -2.1277    0.0000 O   0  0  0  0  0  0  0  0  0  0  0  0
   -0.0617   -2.8063    0.0000 O   0  0  0  0  0  0  0  0  0  0  0  0
    4.1852   -0.0044    0.0000 O   0  0  0  0  0  0  0  0  0  0  0  0
    3.1718   -0.5948    0.0000 O   0  0  0  0  0  0  0  0  0  0  0  0
   -2.3084    0.7181    0.0000 O   0  0  0  0  0  0  0  0  0  0  0  0
   -2.1498   -0.3039    0.0000 N   0  0  3  0  0  0  0  0  0  0  0  0
    1.4362    0.3744    0.0000 N   0  0  0  0  0  0  0  0  0  0  0  0
    0.7137    0.0308    0.0000 N   0  0  0  0  0  0  0  0  0  0  0  0
    1.5419    0.0220    0.0000 N   0  0  0  0  0  0  0  0  0  0  0  0
   -1.0044   -0.7005    0.0000 N   0  0  0  0  0  0  0  0  0  0  0  0
    1.2775    1.6168    0.0000 N   0  0  0  0  0  0  0  0  0  0  0  0
    0.5463    2.5684    0.0000 N   0  0  0  0  0  0  0  0  0  0  0  0
   -3.6917   -0.3392    0.0000 N   0  0  0  0  0  0  0  0  0  0  0  0
    2.0529    0.0308    0.0000 N   0  0  0  0  0  0  0  0  0  0  0  0
   -1.4009   -0.6300    0.0000 C   0  0  3  0  0  0  0  0  0  0  0  0
   -0.7577    0.0220    0.0000 C   0  0  0  0  0  0  0  0  0  0  0  0
   -0.0617    0.0220    0.0000 C   0  0  0  0  0  0  0  0  0  0  0  0
    0.5727    0.6564    0.0000 C   0  0  3  0  0  0  0  0  0  0  0  0
   -1.4714   -1.4494    0.0000 C   0  0  0  0  0  0  0  0  0  0  0  0
   -2.6961   -0.9120    0.0000 C   0  0  0  0  0  0  0  0  0  0  0  0
   -1.3216   -2.9031    0.0000 C   0  0  0  0  0  0  0  0  0  0  0  0
   -2.2820   -1.6256    0.0000 C   0  0  0  0  0  0  0  0  0  0  0  0
    1.9648   -0.6564    0.0000 C   0  0  0  0  0  0  0  0  0  0  0  0
   -0.9515   -2.1895    0.0000 C   0  0  0  0  0  0  0  0  0  0  0  0
    0.3877    1.4847    0.0000 C   0  0  0  0  0  0  0  0  0  0  0  0
    1.1366   -0.6917    0.0000 C   0  0  3  0  0  0  0  0  0  0  0  0
   -1.3744   -1.4494    0.0000 C   0  0  3  0  0  0  0  0  0  0  0  0
    0.7577   -0.0925    0.0000 C   0  0  3  0  0  0  0  0  0  0  0  0
    1.0749    2.1277    0.0000 C   0  0  0  0  0  0  0  0  0  0  0  0
    0.4141   -0.8767    0.0000 C   0  0  0  0  0  0  0  0  0  0  0  0
   -0.3612   -1.0177    0.0000 C   0  0  0  0  0  0  0  0  0  0  0  0
    0.7666   -1.3966    0.0000 C   0  0  0  0  0  0  0  0  0  0  0  0
    0.2643    0.5507    0.0000 C   0  0  0  0  0  0  0  0  0  0  0  0
    0.5727    1.3613    0.0000 C   0  0  0  0  0  0  0  0  0  0  0  0
    2.0705    1.3348    0.0000 C   0  0  0  0  0  0  0  0  0  0  0  0
    2.4318    0.6741    0.0000 C   0  0  3  0  0  0  0  0  0  0  0  0
   -2.2379   -1.4847    0.0000 C   0  0  0  0  0  0  0  0  0  0  0  0
   -0.0969   -1.3966    0.0000 C   0  0  0  0  0  0  0  0  0  0  0  0
    0.1233    1.9516    0.0000 C   0  0  0  0  0  0  0  0  0  0  0  0
    1.9207    1.8723    0.0000 C   0  0  0  0  0  0  0  0  0  0  0  0
    0.8811    2.9031    0.0000 C   0  0  0  0  0  0  0  0  0  0  0  0
   -1.4274    0.0220    0.0000 C   0  0  0  0  0  0  0  0  0  0  0  0
    1.2599    2.3658    0.0000 C   0  0  0  0  0  0  0  0  0  0  0  0
    3.1366    0.6741    0.0000 C   0  0  0  0  0  0  0  0  0  0  0  0
   -0.4758   -2.1102    0.0000 C   0  0  0  0  0  0  0  0  0  0  0  0
    3.5155    0.0044    0.0000 C   0  0  0  0  0  0  0  0  0  0  0  0
   -2.8194   -0.6300    0.0000 C   0  0  3  0  0  0  0  0  0  0  0  0
   -2.6345   -1.4671    0.0000 C   0  0  0  0  0  0  0  0  0  0  0  0
   -2.1851    0.0220    0.0000 C   0  0  0  0  0  0  0  0  0  0  0  0
   -3.3306   -2.1102    0.0000 C   0  0  0  0  0  0  0  0  0  0  0  0
   -4.1852   -1.8546    0.0000 C   0  0  0  0  0  0  0  0  0  0  0  0
   -3.1454   -2.9031    0.0000 C   0  0  0  0  0  0  0  0  0  0  0  0
  1 22  2  0  0  0  0
  2 23  2  0  0  0  0
  3 29  2  0  0  0  0
  4 30  2  0  0  0  0
  5 36  2  0  0  0  0
  6 41  2  0  0  0  0
  7 51  2  0  0  0  0
  8 51  1  0  0  0  0
  9 52  2  0  0  0  0
 10 52  1  0  0  0  0
 11 55  2  0  0  0  0
 12 21  1  0  0  0  0
 12 26  1  0  0  0  0
 12 27  1  0  0  0  0
 24 13  1  6  0  0  0
 13 29  1  0  0  0  0
 32 14  1  6  0  0  0
 14 37  1  0  0  0  0
 34 15  1  6  0  0  0
 15 41  1  0  0  0  0
 16 33  1  0  0  0  0
 16 48  1  0  0  0  0
 17 40  1  0  0  0  0
 17 49  2  0  0  0  0
 18 45  1  0  0  0  0
 18 49  1  0  0  0  0
 19 48  1  0  0  0  0
 53 19  1  6  0  0  0
 42 20  1  6  0  0  0
 21 22  1  6  0  0  0
 21 25  1  0  0  0  0
 22 23  1  0  0  0  0
 23 24  1  0  0  0  0
 24 31  1  0  0  0  0
 25 28  1  0  0  0  0
 26 28  1  0  0  0  0
 27 30  1  0  0  0  0
 29 32  1  0  0  0  0
 30 33  1  0  0  0  0
 31 35  1  0  0  0  0
 32 38  1  0  0  0  0
 33 43  1  6  0  0  0
 34 36  1  0  0  0  0
 34 39  1  0  0  0  0
 35 46  1  0  0  0  0
 35 47  1  0  0  0  0
 36 37  1  0  0  0  0
 38 44  1  0  0  0  0
 39 40  1  0  0  0  0
 40 45  2  0  0  0  0
 41 42  1  0  0  0  0
 42 50  1  0  0  0  0
 44 51  1  0  0  0  0
 50 52  1  0  0  0  0
 53 54  1  0  0  0  0
 53 55  1  0  0  0  0
 54 56  1  0  0  0  0
 56 57  1  0  0  0  0
 56 58  1  0  0  0  0
M  END
> <PUBCHEM_COMPOUND_ID_TYPE>
0

> <PUBCHEM_TOTAL_CHARGE>
0

> <PUBCHEM_SUBSTANCE_ID>
310941576

> <PUBCHEM_SUBSTANCE_VERSION>
1

> <PUBCHEM_EXT_DATASOURCE_NAME>
4488

> <PUBCHEM_EXT_DATASOURCE_REGID>
SCHEMBL16119607

> <PUBCHEM_SUBSTANCE_COMMENT>
InChI=1S/C38H61N9O11/c1-21(2)11-25(18-48)44-20-42-23(5)32(50)17-47-10-6-7-30(47)36(56)35(55)29(12-22(3)4)46-38(58)27(8-9-33(51)52)41-16-31(49)28(13-24-15-40-19-43-24)45-37(57)26(39)14-34(53)54/h15,18-19,21-23,25-30,41-42,44H,6-14,16-17,20,39H2,1-5H3,(H,40,43)(H,45,57)(H,46,58)(H,51,52)(H,53,54)/t23-,25-,26-,27-,28-,29-,30-/m0/s1
InChIKey=ZBUBLFIODOAZQB-RQKKIUEJSA-N

> <PUBCHEM_SUBSTANCE_SYNONYM>
SCHEMBL16119607

> <PUBCHEM_XREF_EXT_ID>
SCHEMBL16119607

> <PUBCHEM_EXT_DATASOURCE_URL>
https://www.surechembl.org/

> <PUBCHEM_EXT_SUBSTANCE_URL>
https://www.surechembl.org/chemical/SCHEMBL16119607

> <PUBCHEM_CID_ASSOCIATIONS>
117608378  1

> <PUBCHEM_COORDINATE_TYPE>
1
3

> <PUBCHEM_BONDANNOTATIONS>
24  13  6
32  14  6
34  15  6
53  19  6
42  20  6
21  22  6
33  43  6

$$$$
