310941469
  -OEChem-07211613022D

 25 26  0     1  0  0  0  0  0999 V2000
   -0.7809    1.2394    0.0000 P   0  0  3  0  0  0  0  0  0  0  0  0
   -0.0028    1.2276    0.0000 O   0  0  0  0  0  0  0  0  0  0  0  0
   -0.3800   -0.8119    0.0000 O   0  0  0  0  0  0  0  0  0  0  0  0
   -0.3800   -0.8119    0.0000 O   0  0  0  0  0  0  0  0  0  0  0  0
   -0.7926    2.0174    0.0000 O   0  0  0  0  0  0  0  0  0  0  0  0
   -0.2622    0.5556    0.0000 N   0  0  0  0  0  0  0  0  0  0  0  0
   -0.7809   -0.1281    0.0000 C   0  0  3  0  0  0  0  0  0  0  0  0
   -0.3800   -0.8119    0.0000 C   0  0  0  0  0  0  0  0  0  0  0  0
   -1.7829   -0.1281    0.0000 C   0  0  0  0  0  0  0  0  0  0  0  0
   -2.2192   -0.9416    0.0000 C   0  0  0  0  0  0  0  0  0  0  0  0
    0.4334    1.9585    0.0000 C   0  0  0  0  0  0  0  0  0  0  0  0
   -1.7829   -1.6371    0.0000 C   0  0  0  0  0  0  0  0  0  0  0  0
   -3.0326   -0.9770    0.0000 C   0  0  0  0  0  0  0  0  0  0  0  0
    0.0326    2.6658    0.0000 C   0  0  0  0  0  0  0  0  0  0  0  0
    1.2586    1.9349    0.0000 C   0  0  0  0  0  0  0  0  0  0  0  0
   -2.1484   -2.3799    0.0000 C   0  0  0  0  0  0  0  0  0  0  0  0
   -3.4098   -1.7078    0.0000 C   0  0  0  0  0  0  0  0  0  0  0  0
    0.4570    3.3614    0.0000 C   0  0  0  0  0  0  0  0  0  0  0  0
    1.6830    2.6423    0.0000 C   0  0  0  0  0  0  0  0  0  0  0  0
    1.3082   -2.6551    0.0000 C   0  0  0  0  0  0  0  0  0  0  0  0
   -2.9736   -2.4034    0.0000 C   0  0  0  0  0  0  0  0  0  0  0  0
    1.2823    3.3497    0.0000 C   0  0  0  0  0  0  0  0  0  0  0  0
    2.1695   -2.6551    0.0000 C   0  0  0  0  0  0  0  0  0  0  0  0
    2.5830   -3.3614    0.0000 C   0  0  0  0  0  0  0  0  0  0  0  0
    3.4098   -3.3442    0.0000 C   0  0  0  0  0  0  0  0  0  0  0  0
  1  2  1  0  0  0  0
  1  5  2  0  0  0  0
  1  6  1  0  0  0  0
  2 11  1  0  0  0  0
  3  8  1  0  0  0  0
  3 20  1  0  0  0  0
  4  8  2  0  0  0  0
  6  7  1  0  0  0  0
  7  8  1  0  0  0  0
  7  9  1  0  0  0  0
  9 10  1  0  0  0  0
 10 12  2  0  0  0  0
 10 13  1  0  0  0  0
 11 14  2  0  0  0  0
 11 15  1  0  0  0  0
 12 16  1  0  0  0  0
 13 17  2  0  0  0  0
 14 18  1  0  0  0  0
 15 19  2  0  0  0  0
 16 21  2  0  0  0  0
 17 21  1  0  0  0  0
 18 22  2  0  0  0  0
 19 22  1  0  0  0  0
 20 23  1  0  0  0  0
 23 24  1  0  0  0  0
 24 25  1  0  0  0  0
M  END
> <PUBCHEM_COMPOUND_ID_TYPE>
0

> <PUBCHEM_TOTAL_CHARGE>
0

> <PUBCHEM_SUBSTANCE_ID>
310941469

> <PUBCHEM_SUBSTANCE_VERSION>
1

> <PUBCHEM_EXT_DATASOURCE_NAME>
4488

> <PUBCHEM_EXT_DATASOURCE_REGID>
SCHEMBL16119500

> <PUBCHEM_SUBSTANCE_COMMENT>
InChI=1S/C19H24NO4P/c1-2-3-14-23-19(21)18(15-16-10-6-4-7-11-16)20-25(22)24-17-12-8-5-9-13-17/h4-13,18,25H,2-3,14-15H2,1H3,(H,20,22)
InChIKey=QZOAGOGGEXVLNE-UHFFFAOYSA-N

> <PUBCHEM_SUBSTANCE_SYNONYM>
SCHEMBL16119500

> <PUBCHEM_XREF_EXT_ID>
SCHEMBL16119500

> <PUBCHEM_EXT_DATASOURCE_URL>
https://www.surechembl.org/

> <PUBCHEM_EXT_SUBSTANCE_URL>
https://www.surechembl.org/chemical/SCHEMBL16119500

> <PUBCHEM_CID_ASSOCIATIONS>
117608291  1

> <PUBCHEM_COORDINATE_TYPE>
1
3

$$$$
