310948557
  -OEChem-07211613022D

 45 50  0     0  0  0  0  0  0999 V2000
    3.2726   -2.1603    0.0000 S   0  0  0  0  0  0  0  0  0  0  0  0
    3.0620    3.9311    0.0000 F   0  0  0  0  0  0  0  0  0  0  0  0
    3.5966    3.2992    0.0000 F   0  0  0  0  0  0  0  0  0  0  0  0
    3.3860    0.7072    0.0000 F   0  0  0  0  0  0  0  0  0  0  0  0
   -1.5390    0.9502    0.0000 O   0  0  0  0  0  0  0  0  0  0  0  0
    1.9766    3.3479    0.0000 O   0  0  0  0  0  0  0  0  0  0  0  0
    2.8352    2.3273    0.0000 O   0  0  0  0  0  0  0  0  0  0  0  0
    3.2726   -2.1603    0.0000 O   0  0  0  0  0  0  0  0  0  0  0  0
    3.2726   -2.1603    0.0000 O   0  0  0  0  0  0  0  0  0  0  0  0
    4.6010   -0.0705    0.0000 O   0  0  0  0  0  0  0  0  0  0  0  0
   -0.9558    2.1653    0.0000 N   0  0  0  0  0  0  0  0  0  0  0  0
   -2.1060   -1.2045    0.0000 N   0  0  0  0  0  0  0  0  0  0  0  0
   -2.8674   -0.9291    0.0000 N   0  0  0  0  0  0  0  0  0  0  0  0
   -4.9897   -0.2163    0.0000 N   0  0  0  0  0  0  0  0  0  0  0  0
   -0.3401    0.1239    0.0000 C   0  0  0  0  0  0  0  0  0  0  0  0
   -0.7290    0.8530    0.0000 C   0  0  0  0  0  0  0  0  0  0  0  0
   -0.3239    1.5982    0.0000 C   0  0  0  0  0  0  0  0  0  0  0  0
   -0.7614   -0.5727    0.0000 C   0  0  0  0  0  0  0  0  0  0  0  0
    0.4699    1.7278    0.0000 C   0  0  0  0  0  0  0  0  0  0  0  0
   -1.6038   -0.5403    0.0000 C   0  0  0  0  0  0  0  0  0  0  0  0
    0.8749   -0.6213    0.0000 C   0  0  0  0  0  0  0  0  0  0  0  0
    0.4861    0.0753    0.0000 C   0  0  0  0  0  0  0  0  0  0  0  0
    1.5391    2.6513    0.0000 C   0  0  0  0  0  0  0  0  0  0  0  0
    2.0738    2.0195    0.0000 C   0  0  0  0  0  0  0  0  0  0  0  0
    1.7012   -0.6537    0.0000 C   0  0  0  0  0  0  0  0  0  0  0  0
    0.7453    2.5055    0.0000 C   0  0  0  0  0  0  0  0  0  0  0  0
   -1.6686    1.7602    0.0000 C   0  0  0  0  0  0  0  0  0  0  0  0
   -0.3725   -1.3017    0.0000 C   0  0  0  0  0  0  0  0  0  0  0  0
    2.7866    3.1697    0.0000 C   0  0  0  0  0  0  0  0  0  0  0  0
    2.9000   -1.4313    0.0000 C   0  0  0  0  0  0  0  0  0  0  0  0
    0.4375   -1.3341    0.0000 C   0  0  0  0  0  0  0  0  0  0  0  0
    0.9884    1.1122    0.0000 C   0  0  0  0  0  0  0  0  0  0  0  0
    2.0899   -1.3827    0.0000 C   0  0  0  0  0  0  0  0  0  0  0  0
    3.3374   -0.7185    0.0000 C   0  0  0  0  0  0  0  0  0  0  0  0
    1.7821    1.2580    0.0000 C   0  0  0  0  0  0  0  0  0  0  0  0
   -2.0412    0.1239    0.0000 C   0  0  0  0  0  0  0  0  0  0  0  0
    2.1386    0.0268    0.0000 C   0  0  0  0  0  0  0  0  0  0  0  0
    2.9486   -0.0056    0.0000 C   0  0  0  0  0  0  0  0  0  0  0  0
   -2.8188   -0.0867    0.0000 C   0  0  0  0  0  0  0  0  0  0  0  0
   -2.4139    2.1166    0.0000 C   0  0  0  0  0  0  0  0  0  0  0  0
    4.1637   -0.7671    0.0000 C   0  0  0  0  0  0  0  0  0  0  0  0
   -1.8468   -2.0145    0.0000 C   0  0  0  0  0  0  0  0  0  0  0  0
   -3.4993    0.4156    0.0000 C   0  0  0  0  0  0  0  0  0  0  0  0
    4.9897   -3.9311    0.0000 C   0  0  0  0  0  0  0  0  0  0  0  0
   -4.2607    0.0915    0.0000 C   0  0  0  0  0  0  0  0  0  0  0  0
  1  8  2  0  0  0  0
  1  9  2  0  0  0  0
  1 30  1  0  0  0  0
  1 44  1  0  0  0  0
  2 29  1  0  0  0  0
  3 29  1  0  0  0  0
  4 38  1  0  0  0  0
  5 16  1  0  0  0  0
  5 27  1  0  0  0  0
  6 23  1  0  0  0  0
  6 29  1  0  0  0  0
  7 24  1  0  0  0  0
  7 29  1  0  0  0  0
 10 41  1  0  0  0  0
 11 17  1  0  0  0  0
 11 27  2  0  0  0  0
 12 13  1  0  0  0  0
 12 20  1  0  0  0  0
 12 42  1  0  0  0  0
 13 39  2  0  0  0  0
 14 45  3  0  0  0  0
 15 16  1  0  0  0  0
 15 18  1  0  0  0  0
 15 22  2  0  0  0  0
 16 17  2  0  0  0  0
 17 19  1  0  0  0  0
 18 20  1  0  0  0  0
 18 28  2  0  0  0  0
 19 26  1  0  0  0  0
 19 32  2  0  0  0  0
 20 36  2  0  0  0  0
 21 22  1  0  0  0  0
 21 25  1  0  0  0  0
 21 31  2  0  0  0  0
 23 24  1  0  0  0  0
 23 26  2  0  0  0  0
 24 35  2  0  0  0  0
 25 33  1  0  0  0  0
 25 37  2  0  0  0  0
 27 40  1  0  0  0  0
 28 31  1  0  0  0  0
 30 33  2  0  0  0  0
 30 34  1  0  0  0  0
 32 35  1  0  0  0  0
 34 38  2  0  0  0  0
 34 41  1  0  0  0  0
 36 39  1  0  0  0  0
 37 38  1  0  0  0  0
 39 43  1  0  0  0  0
 43 45  1  0  0  0  0
M  END
> <PUBCHEM_COMPOUND_ID_TYPE>
0

> <PUBCHEM_TOTAL_CHARGE>
0

> <PUBCHEM_SUBSTANCE_ID>
310948557

> <PUBCHEM_SUBSTANCE_VERSION>
1

> <PUBCHEM_EXT_DATASOURCE_NAME>
4488

> <PUBCHEM_EXT_DATASOURCE_REGID>
SCHEMBL16126739

> <PUBCHEM_SUBSTANCE_COMMENT>
InChI=1S/C31H23F3N4O6S/c1-16-36-29(18-5-7-26-27(12-18)44-31(33,34)43-26)30(42-16)22-10-17(4-6-21(22)25-14-20(8-9-35)37-38(25)2)19-11-24(32)23(15-39)28(13-19)45(3,40)41/h4-7,10-14,39H,8,15H2,1-3H3
InChIKey=LWOFTPKQSASBJF-UHFFFAOYSA-N

> <PUBCHEM_SUBSTANCE_SYNONYM>
SCHEMBL16126739

> <PUBCHEM_XREF_EXT_ID>
SCHEMBL16126739

> <PUBCHEM_EXT_DATASOURCE_URL>
https://www.surechembl.org/

> <PUBCHEM_EXT_SUBSTANCE_URL>
https://www.surechembl.org/chemical/SCHEMBL16126739

> <PUBCHEM_CID_ASSOCIATIONS>
86275935  1

> <PUBCHEM_COORDINATE_TYPE>
1
3

$$$$
