310929972
  -OEChem-07211613022D

 26 28  0     1  0  0  0  0  0999 V2000
    0.0000   -1.6815    0.0000 Cl  0  0  0  0  0  0  0  0  0  0  0  0
    2.1972   -3.9011    0.0000 F   0  0  0  0  0  0  0  0  0  0  0  0
    3.4527   -3.2285    0.0000 F   0  0  0  0  0  0  0  0  0  0  0  0
    1.8161   -3.1837    0.0000 F   0  0  0  0  0  0  0  0  0  0  0  0
    0.6278   -4.4841    0.0000 F   0  0  0  0  0  0  0  0  0  0  0  0
    3.3855   -2.8025    0.0000 O   0  0  0  0  0  0  0  0  0  0  0  0
    4.8204   -3.6097    0.0000 O   0  0  0  0  0  0  0  0  0  0  0  0
    5.5379   -2.3765    0.0000 O   0  0  0  0  0  0  0  0  0  0  0  0
    2.6680   -2.3765    0.0000 C   0  0  3  0  0  0  0  0  0  0  0  0
    1.9506   -2.7129    0.0000 C   0  0  0  0  0  0  0  0  0  0  0  0
    2.6007   -1.5470    0.0000 C   0  0  0  0  0  0  0  0  0  0  0  0
    1.3901   -2.1075    0.0000 C   0  0  0  0  0  0  0  0  0  0  0  0
    1.7936   -1.4125    0.0000 C   0  0  0  0  0  0  0  0  0  0  0  0
    2.6456   -3.2061    0.0000 C   0  0  0  0  0  0  0  0  0  0  0  0
    0.5605   -2.2869    0.0000 C   0  0  0  0  0  0  0  0  0  0  0  0
    1.7039   -3.5424    0.0000 C   0  0  0  0  0  0  0  0  0  0  0  0
    3.1389   -0.9417    0.0000 C   0  0  0  0  0  0  0  0  0  0  0  0
    1.5470   -0.6053    0.0000 C   0  0  0  0  0  0  0  0  0  0  0  0
    0.8968   -3.6993    0.0000 C   0  0  0  0  0  0  0  0  0  0  0  0
    4.1029   -2.3765    0.0000 C   0  0  3  0  0  0  0  0  0  0  0  0
    0.3139   -3.0940    0.0000 C   0  0  0  0  0  0  0  0  0  0  0  0
    2.8474   -0.1793    0.0000 C   0  0  0  0  0  0  0  0  0  0  0  0
    2.0627    0.0000    0.0000 C   0  0  0  0  0  0  0  0  0  0  0  0
    4.8204   -2.8025    0.0000 C   0  0  0  0  0  0  0  0  0  0  0  0
    4.1029   -1.5470    0.0000 C   0  0  0  0  0  0  0  0  0  0  0  0
    3.3855   -1.1435    0.0000 C   0  0  0  0  0  0  0  0  0  0  0  0
  1 15  1  0  0  0  0
  2 14  1  0  0  0  0
  3 14  1  0  0  0  0
  4 14  1  0  0  0  0
  5 19  1  0  0  0  0
  6  9  1  0  0  0  0
  6 20  1  0  0  0  0
  7 24  2  0  0  0  0
  8 24  1  0  0  0  0
  9 10  1  0  0  0  0
  9 11  1  0  0  0  0
  9 14  1  0  0  0  0
 10 12  2  0  0  0  0
 10 16  1  0  0  0  0
 11 13  2  0  0  0  0
 11 17  1  0  0  0  0
 12 13  1  0  0  0  0
 12 15  1  0  0  0  0
 13 18  1  0  0  0  0
 15 21  2  0  0  0  0
 16 19  2  0  0  0  0
 17 22  2  0  0  0  0
 18 23  2  0  0  0  0
 19 21  1  0  0  0  0
 20 24  1  0  0  0  0
 20 25  1  0  0  0  0
 22 23  1  0  0  0  0
 25 26  1  0  0  0  0
M  END
> <PUBCHEM_COMPOUND_ID_TYPE>
0

> <PUBCHEM_TOTAL_CHARGE>
0

> <PUBCHEM_SUBSTANCE_ID>
310929972

> <PUBCHEM_SUBSTANCE_VERSION>
1

> <PUBCHEM_EXT_DATASOURCE_NAME>
4488

> <PUBCHEM_EXT_DATASOURCE_REGID>
SCHEMBL16107205

> <PUBCHEM_SUBSTANCE_COMMENT>
InChI=1S/C18H13ClF4O3/c1-2-14(16(24)25)26-17(18(21,22)23)11-6-4-3-5-10(11)15-12(17)7-9(20)8-13(15)19/h3-8,14H,2H2,1H3,(H,24,25)
InChIKey=VOECBJCPJQIQSG-UHFFFAOYSA-N

> <PUBCHEM_SUBSTANCE_SYNONYM>
SCHEMBL16107205

> <PUBCHEM_XREF_EXT_ID>
SCHEMBL16107205

> <PUBCHEM_EXT_DATASOURCE_URL>
https://www.surechembl.org/

> <PUBCHEM_EXT_SUBSTANCE_URL>
https://www.surechembl.org/chemical/SCHEMBL16107205

> <PUBCHEM_CID_ASSOCIATIONS>
117599229  1

> <PUBCHEM_COORDINATE_TYPE>
1
3

$$$$
