310948688
  -OEChem-07211613022D

 26 26  0     1  0  0  0  0  0999 V2000
    1.2158    1.1320    0.0000 P   0  0  0  0  0  0  0  0  0  0  0  0
   -0.3564    1.4464    0.0000 O   0  0  0  0  0  0  0  0  0  0  0  0
   -0.3564   -1.0691    0.0000 O   0  0  0  0  0  0  0  0  0  0  0  0
   -1.8028   -0.2306    0.0000 O   0  0  0  0  0  0  0  0  0  0  0  0
    1.0901   -0.2306    0.0000 O   0  0  0  0  0  0  0  0  0  0  0  0
    1.2158    1.1320    0.0000 O   0  0  0  0  0  0  0  0  0  0  0  0
   -2.5365    1.0272    0.0000 O   0  0  0  0  0  0  0  0  0  0  0  0
    0.3564   -2.2221    0.0000 O   0  0  0  0  0  0  0  0  0  0  0  0
   -2.4527   -1.4674    0.0000 O   0  0  0  0  0  0  0  0  0  0  0  0
   -3.2283    2.2221    0.0000 O   0  0  0  0  0  0  0  0  0  0  0  0
   -0.3564   -0.2096    0.0000 C   0  0  3  0  0  0  0  0  0  0  0  0
   -1.0691    0.2096    0.0000 C   0  0  3  0  0  0  0  0  0  0  0  0
    0.3564    0.2096    0.0000 C   0  0  3  0  0  0  0  0  0  0  0  0
   -1.0691    1.0481    0.0000 C   0  0  3  0  0  0  0  0  0  0  0  0
    0.3773    1.0272    0.0000 C   0  0  3  0  0  0  0  0  0  0  0  0
   -1.8028    1.4464    0.0000 C   0  0  0  0  0  0  0  0  0  0  0  0
    0.3564   -1.4674    0.0000 C   0  0  0  0  0  0  0  0  0  0  0  0
   -1.8028   -1.0691    0.0000 C   0  0  0  0  0  0  0  0  0  0  0  0
    1.8028    0.1467    0.0000 C   0  0  0  0  0  0  0  0  0  0  0  0
   -3.2492    1.4464    0.0000 C   0  0  0  0  0  0  0  0  0  0  0  0
    1.0272   -1.0691    0.0000 C   0  0  0  0  0  0  0  0  0  0  0  0
   -1.0901   -1.4674    0.0000 C   0  0  0  0  0  0  0  0  0  0  0  0
    2.5156   -0.2725    0.0000 C   0  0  0  0  0  0  0  0  0  0  0  0
    3.2492    0.1048    0.0000 C   0  0  0  0  0  0  0  0  0  0  0  0
   -3.9410    1.0272    0.0000 C   0  0  0  0  0  0  0  0  0  0  0  0
    3.9410   -0.2935    0.0000 C   0  0  0  0  0  0  0  0  0  0  0  0
  1  6  1  0  0  0  0
  2 14  1  0  0  0  0
  2 15  1  0  0  0  0
 11  3  1  1  0  0  0
  3 17  1  0  0  0  0
 12  4  1  6  0  0  0
  4 18  1  0  0  0  0
 13  5  1  1  0  0  0
  5 19  1  0  0  0  0
 15  6  1  6  0  0  0
  7 16  1  0  0  0  0
  7 20  1  0  0  0  0
  8 17  2  0  0  0  0
  9 18  2  0  0  0  0
 10 20  2  0  0  0  0
 11 12  1  0  0  0  0
 11 13  1  0  0  0  0
 12 14  1  0  0  0  0
 13 15  1  0  0  0  0
 14 16  1  1  0  0  0
 17 21  1  0  0  0  0
 18 22  1  0  0  0  0
 19 23  1  0  0  0  0
 20 25  1  0  0  0  0
 23 24  1  0  0  0  0
 24 26  1  0  0  0  0
M  END
> <PUBCHEM_COMPOUND_ID_TYPE>
0

> <PUBCHEM_TOTAL_CHARGE>
0

> <PUBCHEM_SUBSTANCE_ID>
310948688

> <PUBCHEM_SUBSTANCE_VERSION>
1

> <PUBCHEM_EXT_DATASOURCE_NAME>
4488

> <PUBCHEM_EXT_DATASOURCE_REGID>
SCHEMBL16126872

> <PUBCHEM_SUBSTANCE_COMMENT>
InChI=1S/C16H27O9P/c1-5-6-7-20-15-14(23-11(4)19)13(22-10(3)18)12(8-21-9(2)17)24-16(15)25-26/h12-16H,5-8,26H2,1-4H3/t12-,13-,14+,15+,16-/m1/s1
InChIKey=YJHPEOGPEFOHKR-RBGFHDKUSA-N

> <PUBCHEM_SUBSTANCE_SYNONYM>
SCHEMBL16126872

> <PUBCHEM_XREF_EXT_ID>
SCHEMBL16126872

> <PUBCHEM_EXT_DATASOURCE_URL>
https://www.surechembl.org/

> <PUBCHEM_EXT_SUBSTANCE_URL>
https://www.surechembl.org/chemical/SCHEMBL16126872

> <PUBCHEM_CID_ASSOCIATIONS>
117614229  1

> <PUBCHEM_COORDINATE_TYPE>
1
3

> <PUBCHEM_BONDANNOTATIONS>
14  16  5
11  3  5
12  4  6
13  5  5
15  6  6

$$$$
