310948325
  -OEChem-07211613022D

 46 50  0     0  0  0  0  0  0999 V2000
   -4.0690    0.8726    0.0000 Cl  0  0  0  0  0  0  0  0  0  0  0  0
    1.9197   -3.0402    0.0000 S   0  0  0  0  0  0  0  0  0  0  0  0
   -3.6097    2.0850    0.0000 F   0  0  0  0  0  0  0  0  0  0  0  0
   -3.2423    3.1320    0.0000 F   0  0  0  0  0  0  0  0  0  0  0  0
   -2.1768    2.7647    0.0000 F   0  0  0  0  0  0  0  0  0  0  0  0
    3.3525   -0.5419    0.0000 F   0  0  0  0  0  0  0  0  0  0  0  0
    3.2423    2.5993    0.0000 F   0  0  0  0  0  0  0  0  0  0  0  0
    3.5913    0.9645    0.0000 F   0  0  0  0  0  0  0  0  0  0  0  0
    3.5913    0.9645    0.0000 F   0  0  0  0  0  0  0  0  0  0  0  0
   -0.8909    1.9932    0.0000 O   0  0  0  0  0  0  0  0  0  0  0  0
    2.7647   -3.0402    0.0000 O   0  0  0  0  0  0  0  0  0  0  0  0
    1.1665   -3.0402    0.0000 O   0  0  0  0  0  0  0  0  0  0  0  0
    3.5913    0.9645    0.0000 O   0  0  0  0  0  0  0  0  0  0  0  0
    4.0690   -1.7911    0.0000 O   0  0  0  0  0  0  0  0  0  0  0  0
   -1.6625    0.6888    0.0000 N   0  0  0  0  0  0  0  0  0  0  0  0
   -1.7544    1.5155    0.0000 N   0  0  0  0  0  0  0  0  0  0  0  0
    0.1745    2.7831    0.0000 N   0  0  0  0  0  0  0  0  0  0  0  0
   -0.2296    0.6888    0.0000 C   0  0  0  0  0  0  0  0  0  0  0  0
   -0.9460    0.2847    0.0000 C   0  0  0  0  0  0  0  0  0  0  0  0
   -0.2296    1.5339    0.0000 C   0  0  0  0  0  0  0  0  0  0  0  0
    0.4317    2.0115    0.0000 C   0  0  0  0  0  0  0  0  0  0  0  0
    0.4685   -0.5235    0.0000 C   0  0  0  0  0  0  0  0  0  0  0  0
    0.4868    0.2664    0.0000 C   0  0  0  0  0  0  0  0  0  0  0  0
   -2.5442    1.6992    0.0000 C   0  0  0  0  0  0  0  0  0  0  0  0
    1.2216   -0.9460    0.0000 C   0  0  0  0  0  0  0  0  0  0  0  0
   -0.9277   -0.5419    0.0000 C   0  0  0  0  0  0  0  0  0  0  0  0
    1.2400    1.7544    0.0000 C   0  0  0  0  0  0  0  0  0  0  0  0
   -2.9667    0.9645    0.0000 C   0  0  0  0  0  0  0  0  0  0  0  0
   -2.4157    0.3582    0.0000 C   0  0  0  0  0  0  0  0  0  0  0  0
   -0.1929   -0.9460    0.0000 C   0  0  0  0  0  0  0  0  0  0  0  0
    1.9197   -2.1768    0.0000 C   0  0  0  0  0  0  0  0  0  0  0  0
   -0.6521    2.7831    0.0000 C   0  0  0  0  0  0  0  0  0  0  0  0
   -2.8933    2.4340    0.0000 C   0  0  0  0  0  0  0  0  0  0  0  0
    1.2216   -1.7911    0.0000 C   0  0  0  0  0  0  0  0  0  0  0  0
    2.6361   -1.7727    0.0000 C   0  0  0  0  0  0  0  0  0  0  0  0
    1.9013   -0.5603    0.0000 C   0  0  0  0  0  0  0  0  0  0  0  0
    2.6361   -0.9460    0.0000 C   0  0  0  0  0  0  0  0  0  0  0  0
    1.8461    2.2871    0.0000 C   0  0  0  0  0  0  0  0  0  0  0  0
    1.4053    0.9460    0.0000 C   0  0  0  0  0  0  0  0  0  0  0  0
    2.6177    2.0482    0.0000 C   0  0  0  0  0  0  0  0  0  0  0  0
    2.7831    1.2400    0.0000 C   0  0  0  0  0  0  0  0  0  0  0  0
    2.1952    0.6888    0.0000 C   0  0  0  0  0  0  0  0  0  0  0  0
    3.3709   -2.1952    0.0000 C   0  0  0  0  0  0  0  0  0  0  0  0
   -1.0930    3.4627    0.0000 C   0  0  0  0  0  0  0  0  0  0  0  0
    2.6545   -3.4627    0.0000 C   0  0  0  0  0  0  0  0  0  0  0  0
    3.5913    0.9645    0.0000 C   0  0  0  0  0  0  0  0  0  0  0  0
  1 28  1  0  0  0  0
  2 11  2  0  0  0  0
  2 12  2  0  0  0  0
  2 31  1  0  0  0  0
  2 45  1  0  0  0  0
  3 33  1  0  0  0  0
  4 33  1  0  0  0  0
  5 33  1  0  0  0  0
  6 37  1  0  0  0  0
  7 40  1  0  0  0  0
  8 46  1  0  0  0  0
  9 46  1  0  0  0  0
 10 20  1  0  0  0  0
 10 32  1  0  0  0  0
 13 41  1  0  0  0  0
 13 46  1  0  0  0  0
 14 43  1  0  0  0  0
 15 16  1  0  0  0  0
 15 19  1  0  0  0  0
 15 29  1  0  0  0  0
 16 24  2  0  0  0  0
 17 21  1  0  0  0  0
 17 32  2  0  0  0  0
 18 19  1  0  0  0  0
 18 20  1  0  0  0  0
 18 23  2  0  0  0  0
 19 26  2  0  0  0  0
 20 21  2  0  0  0  0
 21 27  1  0  0  0  0
 22 23  1  0  0  0  0
 22 25  1  0  0  0  0
 22 30  2  0  0  0  0
 24 28  1  0  0  0  0
 24 33  1  0  0  0  0
 25 34  2  0  0  0  0
 25 36  1  0  0  0  0
 26 30  1  0  0  0  0
 27 38  2  0  0  0  0
 27 39  1  0  0  0  0
 28 29  2  0  0  0  0
 31 34  1  0  0  0  0
 31 35  2  0  0  0  0
 32 44  1  0  0  0  0
 35 37  1  0  0  0  0
 35 43  1  0  0  0  0
 36 37  2  0  0  0  0
 38 40  1  0  0  0  0
 39 42  2  0  0  0  0
 40 41  2  0  0  0  0
 41 42  1  0  0  0  0
M  END
> <PUBCHEM_COMPOUND_ID_TYPE>
0

> <PUBCHEM_TOTAL_CHARGE>
0

> <PUBCHEM_SUBSTANCE_ID>
310948325

> <PUBCHEM_SUBSTANCE_VERSION>
1

> <PUBCHEM_EXT_DATASOURCE_NAME>
4488

> <PUBCHEM_EXT_DATASOURCE_REGID>
SCHEMBL16126503

> <PUBCHEM_SUBSTANCE_COMMENT>
InChI=1S/C29H19ClF7N3O5S/c1-13-38-25(15-4-6-23(21(32)8-15)45-28(33)34)26(44-13)17-7-14(16-9-20(31)18(12-41)24(10-16)46(2,42)43)3-5-22(17)40-11-19(30)27(39-40)29(35,36)37/h3-11,28,41H,12H2,1-2H3
InChIKey=PCMLGSUWHDNCAH-UHFFFAOYSA-N

> <PUBCHEM_SUBSTANCE_SYNONYM>
SCHEMBL16126503

> <PUBCHEM_XREF_EXT_ID>
SCHEMBL16126503

> <PUBCHEM_EXT_DATASOURCE_URL>
https://www.surechembl.org/

> <PUBCHEM_EXT_SUBSTANCE_URL>
https://www.surechembl.org/chemical/SCHEMBL16126503

> <PUBCHEM_CID_ASSOCIATIONS>
117613890  1

> <PUBCHEM_COORDINATE_TYPE>
1
3

$$$$
