310948083
  -OEChem-07211613022D

 40 44  0     0  0  0  0  0  0999 V2000
    2.9245   -1.6335    0.0000 S   0  0  0  0  0  0  0  0  0  0  0  0
    3.3369    3.4050    0.0000 F   0  0  0  0  0  0  0  0  0  0  0  0
    2.2252    3.0823    0.0000 F   0  0  0  0  0  0  0  0  0  0  0  0
    3.6058    2.2754    0.0000 F   0  0  0  0  0  0  0  0  0  0  0  0
   -2.0244    1.4327    0.0000 O   0  0  0  0  0  0  0  0  0  0  0  0
    2.5121    1.9885    0.0000 O   0  0  0  0  0  0  0  0  0  0  0  0
    2.9245   -1.6335    0.0000 O   0  0  0  0  0  0  0  0  0  0  0  0
    2.9245   -1.6335    0.0000 O   0  0  0  0  0  0  0  0  0  0  0  0
   -2.0424   -0.1811    0.0000 N   0  0  0  0  0  0  0  0  0  0  0  0
   -1.3610    2.5982    0.0000 N   0  0  0  0  0  0  0  0  0  0  0  0
   -2.5265    0.5002    0.0000 N   0  0  0  0  0  0  0  0  0  0  0  0
   -4.6423    1.1458    0.0000 N   0  0  0  0  0  0  0  0  0  0  0  0
   -0.8051    0.5540    0.0000 C   0  0  0  0  0  0  0  0  0  0  0  0
   -1.2175    1.2713    0.0000 C   0  0  0  0  0  0  0  0  0  0  0  0
   -1.2175   -0.1811    0.0000 C   0  0  0  0  0  0  0  0  0  0  0  0
   -0.8051    2.0064    0.0000 C   0  0  0  0  0  0  0  0  0  0  0  0
    0.0376    0.5182    0.0000 C   0  0  0  0  0  0  0  0  0  0  0  0
    0.4321   -0.1632    0.0000 C   0  0  0  0  0  0  0  0  0  0  0  0
    0.0197    1.9885    0.0000 C   0  0  0  0  0  0  0  0  0  0  0  0
   -2.0961    2.2754    0.0000 C   0  0  0  0  0  0  0  0  0  0  0  0
   -0.7872   -0.8805    0.0000 C   0  0  0  0  0  0  0  0  0  0  0  0
    1.2749   -0.1632    0.0000 C   0  0  0  0  0  0  0  0  0  0  0  0
    0.0376   -0.8805    0.0000 C   0  0  0  0  0  0  0  0  0  0  0  0
   -2.5265   -0.8446    0.0000 C   0  0  0  0  0  0  0  0  0  0  0  0
    0.4501    1.2713    0.0000 C   0  0  0  0  0  0  0  0  0  0  0  0
    0.4321    2.6878    0.0000 C   0  0  0  0  0  0  0  0  0  0  0  0
    1.6872   -0.8805    0.0000 C   0  0  0  0  0  0  0  0  0  0  0  0
   -3.2975    0.2313    0.0000 C   0  0  0  0  0  0  0  0  0  0  0  0
    2.5121   -0.8983    0.0000 C   0  0  0  0  0  0  0  0  0  0  0  0
    1.6872    0.5182    0.0000 C   0  0  0  0  0  0  0  0  0  0  0  0
   -3.3154   -0.5935    0.0000 C   0  0  0  0  0  0  0  0  0  0  0  0
    1.6694    1.9885    0.0000 C   0  0  0  0  0  0  0  0  0  0  0  0
    1.2749    1.2713    0.0000 C   0  0  0  0  0  0  0  0  0  0  0  0
    1.2749    2.7057    0.0000 C   0  0  0  0  0  0  0  0  0  0  0  0
   -2.8313    2.6699    0.0000 C   0  0  0  0  0  0  0  0  0  0  0  0
    2.9065   -0.1632    0.0000 C   0  0  0  0  0  0  0  0  0  0  0  0
    2.5121    0.5182    0.0000 C   0  0  0  0  0  0  0  0  0  0  0  0
   -3.9968    0.7154    0.0000 C   0  0  0  0  0  0  0  0  0  0  0  0
    2.9245    2.6878    0.0000 C   0  0  0  0  0  0  0  0  0  0  0  0
    4.6423   -3.4050    0.0000 C   0  0  0  0  0  0  0  0  0  0  0  0
  1  7  2  0  0  0  0
  1  8  2  0  0  0  0
  1 29  1  0  0  0  0
  1 40  1  0  0  0  0
  2 39  1  0  0  0  0
  3 39  1  0  0  0  0
  4 39  1  0  0  0  0
  5 14  1  0  0  0  0
  5 20  1  0  0  0  0
  6 32  1  0  0  0  0
  6 39  1  0  0  0  0
  9 11  1  0  0  0  0
  9 15  1  0  0  0  0
  9 24  1  0  0  0  0
 10 16  1  0  0  0  0
 10 20  2  0  0  0  0
 11 28  2  0  0  0  0
 12 38  3  0  0  0  0
 13 14  1  0  0  0  0
 13 15  1  0  0  0  0
 13 17  2  0  0  0  0
 14 16  2  0  0  0  0
 15 21  2  0  0  0  0
 16 19  1  0  0  0  0
 17 18  1  0  0  0  0
 18 22  1  0  0  0  0
 18 23  2  0  0  0  0
 19 25  2  0  0  0  0
 19 26  1  0  0  0  0
 20 35  1  0  0  0  0
 21 23  1  0  0  0  0
 22 27  2  0  0  0  0
 22 30  1  0  0  0  0
 24 31  2  0  0  0  0
 25 33  1  0  0  0  0
 26 34  2  0  0  0  0
 27 29  1  0  0  0  0
 28 31  1  0  0  0  0
 28 38  1  0  0  0  0
 29 36  2  0  0  0  0
 30 37  2  0  0  0  0
 32 33  2  0  0  0  0
 32 34  1  0  0  0  0
 36 37  1  0  0  0  0
M  END
> <PUBCHEM_COMPOUND_ID_TYPE>
0

> <PUBCHEM_TOTAL_CHARGE>
0

> <PUBCHEM_SUBSTANCE_ID>
310948083

> <PUBCHEM_SUBSTANCE_VERSION>
1

> <PUBCHEM_EXT_DATASOURCE_NAME>
4488

> <PUBCHEM_EXT_DATASOURCE_REGID>
SCHEMBL16126259

> <PUBCHEM_SUBSTANCE_COMMENT>
InChI=1S/C28H19F3N4O4S/c1-17-33-26(18-6-9-22(10-7-18)39-28(29,30)31)27(38-17)24-15-20(19-4-3-5-23(14-19)40(2,36)37)8-11-25(24)35-13-12-21(16-32)34-35/h3-15H,1-2H3
InChIKey=LETJAYKZEIALDT-UHFFFAOYSA-N

> <PUBCHEM_SUBSTANCE_SYNONYM>
SCHEMBL16126259

> <PUBCHEM_XREF_EXT_ID>
SCHEMBL16126259

> <PUBCHEM_EXT_DATASOURCE_URL>
https://www.surechembl.org/

> <PUBCHEM_EXT_SUBSTANCE_URL>
https://www.surechembl.org/chemical/SCHEMBL16126259

> <PUBCHEM_CID_ASSOCIATIONS>
117613702  1

> <PUBCHEM_COORDINATE_TYPE>
1
3

$$$$
