310948297
  -OEChem-07211613022D

 48 53  0     0  0  0  0  0  0999 V2000
    3.2126   -2.1992    0.0000 S   0  0  0  0  0  0  0  0  0  0  0  0
    2.8407    3.9789    0.0000 F   0  0  0  0  0  0  0  0  0  0  0  0
    3.5523    3.1217    0.0000 F   0  0  0  0  0  0  0  0  0  0  0  0
    3.3421    0.6796    0.0000 F   0  0  0  0  0  0  0  0  0  0  0  0
   -1.0408    2.1514    0.0000 O   0  0  0  0  0  0  0  0  0  0  0  0
    1.9027    3.3482    0.0000 O   0  0  0  0  0  0  0  0  0  0  0  0
    2.7760    2.3292    0.0000 O   0  0  0  0  0  0  0  0  0  0  0  0
    3.2126   -2.1992    0.0000 O   0  0  0  0  0  0  0  0  0  0  0  0
    3.2126   -2.1992    0.0000 O   0  0  0  0  0  0  0  0  0  0  0  0
   -4.9385    0.6150    0.0000 O   0  0  0  0  0  0  0  0  0  0  0  0
    4.5389   -0.0805    0.0000 O   0  0  0  0  0  0  0  0  0  0  0  0
   -2.1891   -1.2288    0.0000 N   0  0  0  0  0  0  0  0  0  0  0  0
   -1.6230    0.9545    0.0000 N   0  0  0  0  0  0  0  0  0  0  0  0
   -2.9654   -0.9538    0.0000 N   0  0  0  0  0  0  0  0  0  0  0  0
   -4.5988   -0.7274    0.0000 N   0  0  0  0  0  0  0  0  0  0  0  0
   -0.4101    0.1136    0.0000 C   0  0  0  0  0  0  0  0  0  0  0  0
   -0.7982    0.8414    0.0000 C   0  0  0  0  0  0  0  0  0  0  0  0
   -0.8467   -0.5980    0.0000 C   0  0  0  0  0  0  0  0  0  0  0  0
   -0.4424    1.6015    0.0000 C   0  0  0  0  0  0  0  0  0  0  0  0
   -1.6716   -0.5496    0.0000 C   0  0  0  0  0  0  0  0  0  0  0  0
    0.3824    1.7309    0.0000 C   0  0  0  0  0  0  0  0  0  0  0  0
    0.8029   -0.6466    0.0000 C   0  0  0  0  0  0  0  0  0  0  0  0
    0.4147    0.0651    0.0000 C   0  0  0  0  0  0  0  0  0  0  0  0
   -2.9330   -0.0805    0.0000 C   0  0  0  0  0  0  0  0  0  0  0  0
    1.4821    2.6527    0.0000 C   0  0  0  0  0  0  0  0  0  0  0  0
    1.6439   -0.6951    0.0000 C   0  0  0  0  0  0  0  0  0  0  0  0
   -2.1406    0.1136    0.0000 C   0  0  0  0  0  0  0  0  0  0  0  0
   -0.4424   -1.3258    0.0000 C   0  0  0  0  0  0  0  0  0  0  0  0
    2.0159    2.0544    0.0000 C   0  0  0  0  0  0  0  0  0  0  0  0
   -1.7524    1.7632    0.0000 C   0  0  0  0  0  0  0  0  0  0  0  0
    0.6735    2.5072    0.0000 C   0  0  0  0  0  0  0  0  0  0  0  0
   -3.5638    0.4370    0.0000 C   0  0  0  0  0  0  0  0  0  0  0  0
    0.3824   -1.3420    0.0000 C   0  0  0  0  0  0  0  0  0  0  0  0
    2.7275    3.1864    0.0000 C   0  0  0  0  0  0  0  0  0  0  0  0
    2.8568   -1.4552    0.0000 C   0  0  0  0  0  0  0  0  0  0  0  0
    0.9161    1.1163    0.0000 C   0  0  0  0  0  0  0  0  0  0  0  0
    2.0321   -1.4067    0.0000 C   0  0  0  0  0  0  0  0  0  0  0  0
    3.2774   -0.7274    0.0000 C   0  0  0  0  0  0  0  0  0  0  0  0
    1.7248    1.2619    0.0000 C   0  0  0  0  0  0  0  0  0  0  0  0
    2.0806    0.0165    0.0000 C   0  0  0  0  0  0  0  0  0  0  0  0
    2.8892   -0.0158    0.0000 C   0  0  0  0  0  0  0  0  0  0  0  0
   -4.3077    0.0651    0.0000 C   0  0  0  0  0  0  0  0  0  0  0  0
   -1.9303   -2.0374    0.0000 C   0  0  0  0  0  0  0  0  0  0  0  0
   -2.5125    2.1190    0.0000 C   0  0  0  0  0  0  0  0  0  0  0  0
   -3.9843    1.1325    0.0000 C   0  0  0  0  0  0  0  0  0  0  0  0
   -2.9169    0.9222    0.0000 C   0  0  0  0  0  0  0  0  0  0  0  0
    4.1022   -0.7760    0.0000 C   0  0  0  0  0  0  0  0  0  0  0  0
    4.9385   -3.9789    0.0000 C   0  0  0  0  0  0  0  0  0  0  0  0
  1  8  2  0  0  0  0
  1  9  2  0  0  0  0
  1 35  1  0  0  0  0
  1 48  1  0  0  0  0
  2 34  1  0  0  0  0
  3 34  1  0  0  0  0
  4 41  1  0  0  0  0
  5 19  1  0  0  0  0
  5 30  1  0  0  0  0
  6 25  1  0  0  0  0
  6 34  1  0  0  0  0
  7 29  1  0  0  0  0
  7 34  1  0  0  0  0
 10 42  2  0  0  0  0
 11 47  1  0  0  0  0
 12 14  1  0  0  0  0
 12 20  1  0  0  0  0
 12 43  1  0  0  0  0
 13 17  1  0  0  0  0
 13 30  2  0  0  0  0
 14 24  2  0  0  0  0
 15 42  1  0  0  0  0
 16 17  1  0  0  0  0
 16 18  1  0  0  0  0
 16 23  2  0  0  0  0
 17 19  2  0  0  0  0
 18 20  1  0  0  0  0
 18 28  2  0  0  0  0
 19 21  1  0  0  0  0
 20 27  2  0  0  0  0
 21 31  1  0  0  0  0
 21 36  2  0  0  0  0
 22 23  1  0  0  0  0
 22 26  1  0  0  0  0
 22 33  2  0  0  0  0
 24 27  1  0  0  0  0
 24 32  1  0  0  0  0
 25 29  1  0  0  0  0
 25 31  2  0  0  0  0
 26 37  2  0  0  0  0
 26 40  1  0  0  0  0
 28 33  1  0  0  0  0
 29 39  2  0  0  0  0
 30 44  1  0  0  0  0
 32 42  1  0  0  0  0
 32 45  1  0  0  0  0
 32 46  1  0  0  0  0
 35 37  1  0  0  0  0
 35 38  2  0  0  0  0
 36 39  1  0  0  0  0
 38 41  1  0  0  0  0
 38 47  1  0  0  0  0
 40 41  2  0  0  0  0
M  END
> <PUBCHEM_COMPOUND_ID_TYPE>
0

> <PUBCHEM_TOTAL_CHARGE>
0

> <PUBCHEM_SUBSTANCE_ID>
310948297

> <PUBCHEM_SUBSTANCE_VERSION>
1

> <PUBCHEM_EXT_DATASOURCE_NAME>
4488

> <PUBCHEM_EXT_DATASOURCE_REGID>
SCHEMBL16126474

> <PUBCHEM_SUBSTANCE_COMMENT>
InChI=1S/C33H29F3N4O7S/c1-16-38-29(30(45-16)18-7-9-25-26(12-18)47-33(35,36)46-25)21-10-17(19-11-23(34)22(15-41)27(13-19)48(5,43)44)6-8-20(21)24-14-28(39-40(24)4)32(2,3)31(37)42/h6-14,41H,15H2,1-5H3,(H2,37,42)
InChIKey=PSLHBORSFRFMFD-UHFFFAOYSA-N

> <PUBCHEM_SUBSTANCE_SYNONYM>
SCHEMBL16126474

> <PUBCHEM_XREF_EXT_ID>
SCHEMBL16126474

> <PUBCHEM_EXT_DATASOURCE_URL>
https://www.surechembl.org/

> <PUBCHEM_EXT_SUBSTANCE_URL>
https://www.surechembl.org/chemical/SCHEMBL16126474

> <PUBCHEM_CID_ASSOCIATIONS>
86275922  1

> <PUBCHEM_COORDINATE_TYPE>
1
3

$$$$
