310945575
  -OEChem-07211613022D

 12 12  0     1  0  0  0  0  0999 V2000
    0.4597   -0.7871    0.0000 O   0  0  0  0  0  0  0  0  0  0  0  0
   -0.9886   -0.7871    0.0000 O   0  0  0  0  0  0  0  0  0  0  0  0
   -0.6611    1.2026    0.0000 O   0  0  0  0  0  0  0  0  0  0  0  0
   -0.6611    1.2026    0.0000 O   0  0  0  0  0  0  0  0  0  0  0  0
   -0.2582    0.4848    0.0000 C   0  0  0  0  0  0  0  0  0  0  0  0
   -0.6611    1.2026    0.0000 C   0  0  3  0  0  0  0  0  0  0  0  0
   -0.9634    0.0567    0.0000 C   0  0  0  0  0  0  0  0  0  0  0  0
    0.4722    0.0567    0.0000 C   0  0  0  0  0  0  0  0  0  0  0  0
    0.1700    1.2026    0.0000 C   0  0  0  0  0  0  0  0  0  0  0  0
   -0.6611    1.2026    0.0000 C   0  0  0  0  0  0  0  0  0  0  0  0
   -0.2330   -1.2026    0.0000 C   0  0  0  0  0  0  0  0  0  0  0  0
    0.9886    1.1900    0.0000 C   0  0  0  0  0  0  0  0  0  0  0  0
  1  8  1  0  0  0  0
  1 11  1  0  0  0  0
  2  7  1  0  0  0  0
  2 11  1  0  0  0  0
  3  6  1  0  0  0  0
  4 10  1  0  0  0  0
  5  6  1  0  0  0  0
  5  7  1  0  0  0  0
  5  8  1  0  0  0  0
  5  9  1  0  0  0  0
  6 10  1  0  0  0  0
  9 12  1  0  0  0  0
M  END
> <PUBCHEM_COMPOUND_ID_TYPE>
0

> <PUBCHEM_TOTAL_CHARGE>
0

> <PUBCHEM_SUBSTANCE_ID>
310945575

> <PUBCHEM_SUBSTANCE_VERSION>
1

> <PUBCHEM_EXT_DATASOURCE_NAME>
4488

> <PUBCHEM_EXT_DATASOURCE_REGID>
SCHEMBL16123673

> <PUBCHEM_SUBSTANCE_COMMENT>
InChI=1S/C8H16O4/c1-2-8(7(10)3-9)4-11-6-12-5-8/h7,9-10H,2-6H2,1H3
InChIKey=SYVCYVLESKMCAJ-UHFFFAOYSA-N

> <PUBCHEM_SUBSTANCE_SYNONYM>
SCHEMBL16123673

> <PUBCHEM_XREF_EXT_ID>
SCHEMBL16123673

> <PUBCHEM_EXT_DATASOURCE_URL>
https://www.surechembl.org/

> <PUBCHEM_EXT_SUBSTANCE_URL>
https://www.surechembl.org/chemical/SCHEMBL16123673

> <PUBCHEM_CID_ASSOCIATIONS>
117611604  1

> <PUBCHEM_COORDINATE_TYPE>
1
3

$$$$
