310932138
  -OEChem-07211613022D

 34 39  0     1  0  0  0  0  0999 V2000
    4.9943   -1.9610    0.0000 O   0  0  0  0  0  0  0  0  0  0  0  0
    4.9943   -3.6155    0.0000 O   0  0  0  0  0  0  0  0  0  0  0  0
    2.1448   -5.0250    0.0000 N   0  0  0  0  0  0  0  0  0  0  0  0
    2.1448   -4.4428    0.0000 N   0  0  0  0  0  0  0  0  0  0  0  0
    1.4094   -3.1865    0.0000 N   0  0  0  0  0  0  0  0  0  0  0  0
    2.1448   -1.9610    0.0000 N   0  0  0  0  0  0  0  0  0  0  0  0
    2.8495   -3.7381    0.0000 N   0  0  0  0  0  0  0  0  0  0  0  0
    1.4401   -3.7381    0.0000 N   0  0  0  0  0  0  0  0  0  0  0  0
    1.2869   -5.5152    0.0000 C   0  0  3  0  0  0  0  0  0  0  0  0
    3.0027   -5.5152    0.0000 C   0  0  3  0  0  0  0  0  0  0  0  0
    2.1448   -3.6155    0.0000 C   0  0  0  0  0  0  0  0  0  0  0  0
    2.8495   -3.1865    0.0000 C   0  0  0  0  0  0  0  0  0  0  0  0
    1.4401   -4.7798    0.0000 C   0  0  0  0  0  0  0  0  0  0  0  0
    2.8495   -4.7492    0.0000 C   0  0  0  0  0  0  0  0  0  0  0  0
    2.1448   -4.1671    0.0000 C   0  0  0  0  0  0  0  0  0  0  0  0
    2.8495   -2.3593    0.0000 C   0  0  0  0  0  0  0  0  0  0  0  0
    2.5431   -6.1280    0.0000 C   0  0  0  0  0  0  0  0  0  0  0  0
    1.7465   -6.1280    0.0000 C   0  0  0  0  0  0  0  0  0  0  0  0
    3.5542   -3.6155    0.0000 C   0  0  0  0  0  0  0  0  0  0  0  0
    4.2896   -3.1865    0.0000 C   0  0  0  0  0  0  0  0  0  0  0  0
    3.5542   -1.9610    0.0000 C   0  0  0  0  0  0  0  0  0  0  0  0
    4.2896   -2.3593    0.0000 C   0  0  0  0  0  0  0  0  0  0  0  0
    1.4094   -2.3593    0.0000 C   0  0  0  0  0  0  0  0  0  0  0  0
    2.1448   -2.4818    0.0000 C   0  0  0  0  0  0  0  0  0  0  0  0
    2.8495   -2.9415    0.0000 C   0  0  0  0  0  0  0  0  0  0  0  0
    1.4401   -2.9415    0.0000 C   0  0  0  0  0  0  0  0  0  0  0  0
    2.1448   -1.6546    0.0000 C   0  0  0  0  0  0  0  0  0  0  0  0
    1.4094   -1.2562    0.0000 C   0  0  0  0  0  0  0  0  0  0  0  0
    4.9943   -1.1337    0.0000 C   0  0  0  0  0  0  0  0  0  0  0  0
    1.4401   -0.4290    0.0000 C   0  0  0  0  0  0  0  0  0  0  0  0
    0.7047   -1.6546    0.0000 C   0  0  0  0  0  0  0  0  0  0  0  0
    0.7047    0.0000    0.0000 C   0  0  0  0  0  0  0  0  0  0  0  0
    0.0000   -1.2562    0.0000 C   0  0  0  0  0  0  0  0  0  0  0  0
    0.0000   -0.4290    0.0000 C   0  0  0  0  0  0  0  0  0  0  0  0
  1 22  1  0  0  0  0
  1 29  1  0  0  0  0
  2 20  1  0  0  0  0
  9  3  1  1  0  0  0
 10  3  1  1  0  0  0
  3 15  1  0  0  0  0
  4 11  1  0  0  0  0
  4 13  1  0  0  0  0
  4 14  1  0  0  0  0
  5 11  1  0  0  0  0
  5 23  2  0  0  0  0
  6 16  2  0  0  0  0
  6 23  1  0  0  0  0
  7 15  2  0  0  0  0
  7 25  1  0  0  0  0
  8 15  1  0  0  0  0
  8 26  2  0  0  0  0
  9 13  1  0  0  0  0
  9 18  1  0  0  0  0
 10 14  1  0  0  0  0
 10 17  1  0  0  0  0
 11 12  2  0  0  0  0
 12 16  1  0  0  0  0
 12 19  1  0  0  0  0
 16 21  1  0  0  0  0
 17 18  1  0  0  0  0
 19 20  2  0  0  0  0
 20 22  1  0  0  0  0
 21 22  2  0  0  0  0
 24 25  2  0  0  0  0
 24 26  1  0  0  0  0
 24 27  1  0  0  0  0
 27 28  1  0  0  0  0
 28 30  2  0  0  0  0
 28 31  1  0  0  0  0
 30 32  1  0  0  0  0
 31 33  2  0  0  0  0
 32 34  2  0  0  0  0
 33 34  1  0  0  0  0
M  END
> <PUBCHEM_COMPOUND_ID_TYPE>
0

> <PUBCHEM_TOTAL_CHARGE>
0

> <PUBCHEM_SUBSTANCE_ID>
310932138

> <PUBCHEM_SUBSTANCE_VERSION>
1

> <PUBCHEM_EXT_DATASOURCE_NAME>
4488

> <PUBCHEM_EXT_DATASOURCE_REGID>
SCHEMBL16109490

> <PUBCHEM_SUBSTANCE_COMMENT>
InChI=1S/C26H26N6O2/c1-34-24-11-22-21(10-23(24)33)25(30-16-29-22)31-14-19-7-8-20(15-31)32(19)26-27-12-18(13-28-26)9-17-5-3-2-4-6-17/h2-6,10-13,16,19-20,33H,7-9,14-15H2,1H3/t19-,20+
InChIKey=FRSSZTQQIBHXHM-BGYRXZFFSA-N

> <PUBCHEM_SUBSTANCE_SYNONYM>
SCHEMBL16109490

> <PUBCHEM_XREF_EXT_ID>
SCHEMBL16109490

> <PUBCHEM_EXT_DATASOURCE_URL>
https://www.surechembl.org/

> <PUBCHEM_EXT_SUBSTANCE_URL>
https://www.surechembl.org/chemical/SCHEMBL16109490

> <PUBCHEM_CID_ASSOCIATIONS>
117600748  1

> <PUBCHEM_COORDINATE_TYPE>
1
3

> <PUBCHEM_BONDANNOTATIONS>
10  3  5
9  3  5

$$$$
