310947082
  -OEChem-07211613022D

 16 15  0     0  0  0  0  0  0999 V2000
   -2.6005   -6.5264    0.0000 O   0  0  0  0  0  0  0  0  0  0  0  0
   -2.6005   -7.3514    0.0000 C   0  0  0  0  0  0  0  0  0  0  0  0
   -3.3150   -7.7639    0.0000 C   0  0  0  0  0  0  0  0  0  0  0  0
   -1.8861   -7.7639    0.0000 C   0  0  0  0  0  0  0  0  0  0  0  0
   -0.2731   -7.3514    0.0000 C   0  0  0  0  0  0  0  0  0  0  0  0
    0.5519   -7.3514    0.0000 C   0  0  0  0  0  0  0  0  0  0  0  0
    1.2664   -7.7639    0.0000 C   0  0  0  0  0  0  0  0  0  0  0  0
   -3.7275   -7.0494    0.0000 C   0  0  0  0  0  0  0  0  0  0  0  0
   -2.9025   -8.4783    0.0000 C   0  0  0  0  0  0  0  0  0  0  0  0
    0.1947   -7.1451    0.0000 C   0  0  0  0  0  0  0  0  0  0  0  0
    0.9092   -7.5576    0.0000 C   0  0  0  0  0  0  0  0  0  0  0  0
    1.6237   -7.1451    0.0000 C   0  0  0  0  0  0  0  0  0  0  0  0
    2.3381   -7.5576    0.0000 C   0  0  0  0  0  0  0  0  0  0  0  0
    3.0526   -7.1451    0.0000 C   0  0  0  0  0  0  0  0  0  0  0  0
    3.7671   -7.5576    0.0000 C   0  0  0  0  0  0  0  0  0  0  0  0
    2.8059   -7.3514    0.0000 C   0  0  0  0  0  0  0  0  0  0  0  0
  1  2  2  0  0  0  0
  2  3  1  0  0  0  0
  2  4  1  0  0  0  0
  3  8  1  0  0  0  0
  3  9  1  0  0  0  0
  4  5  1  0  0  0  0
  5  6  2  0  0  0  0
  6  7  1  0  0  0  0
  7 10  1  0  0  0  0
 10 11  1  0  0  0  0
 11 12  1  0  0  0  0
 12 13  1  0  0  0  0
 13 14  1  0  0  0  0
 14 15  1  0  0  0  0
 15 16  1  0  0  0  0
M  END
> <PUBCHEM_COMPOUND_ID_TYPE>
0

> <PUBCHEM_TOTAL_CHARGE>
0

> <PUBCHEM_SUBSTANCE_ID>
310947082

> <PUBCHEM_SUBSTANCE_VERSION>
1

> <PUBCHEM_EXT_DATASOURCE_NAME>
4488

> <PUBCHEM_EXT_DATASOURCE_REGID>
SCHEMBL16125236

> <PUBCHEM_SUBSTANCE_COMMENT>
InChI=1S/C15H28O/c1-4-5-6-7-8-9-10-11-12-13-15(16)14(2)3/h11-12,14H,4-10,13H2,1-3H3/b12-11-
InChIKey=RKBFFESFMRHDMA-QXMHVHEDSA-N

> <PUBCHEM_SUBSTANCE_SYNONYM>
SCHEMBL16125236

> <PUBCHEM_XREF_EXT_ID>
SCHEMBL16125236

> <PUBCHEM_EXT_DATASOURCE_URL>
https://www.surechembl.org/

> <PUBCHEM_EXT_SUBSTANCE_URL>
https://www.surechembl.org/chemical/SCHEMBL16125236

> <PUBCHEM_CID_ASSOCIATIONS>
117612934  1

> <PUBCHEM_COORDINATE_TYPE>
1
3

> <PUBCHEM_BONDANNOTATIONS>
3  8  3
3  9  3

$$$$
