310937794
  -OEChem-07211613022D

 22 24  0     1  0  0  0  0  0999 V2000
    2.4158   -1.8731    0.0000 N   0  0  0  0  0  0  0  0  0  0  0  0
    2.8185   -0.2451    0.0000 N   0  0  0  0  0  0  0  0  0  0  0  0
    3.5363   -3.5012    0.0000 N   0  0  0  0  0  0  0  0  0  0  0  0
    2.5559   -2.4333    0.0000 C   0  0  0  0  0  0  0  0  0  0  0  0
    3.1686   -1.1729    0.0000 C   0  0  3  0  0  0  0  0  0  0  0  0
    1.4530   -1.5756    0.0000 C   0  0  3  0  0  0  0  0  0  0  0  0
    3.1686   -1.9432    0.0000 C   0  0  0  0  0  0  0  0  0  0  0  0
    1.8031   -2.2583    0.0000 C   0  0  0  0  0  0  0  0  0  0  0  0
    2.3633   -1.6280    0.0000 C   0  0  0  0  0  0  0  0  0  0  0  0
    1.8031   -0.8578    0.0000 C   0  0  0  0  0  0  0  0  0  0  0  0
    2.5559   -0.6827    0.0000 C   0  0  0  0  0  0  0  0  0  0  0  0
    2.6084   -2.6784    0.0000 C   0  0  3  0  0  0  0  0  0  0  0  0
    2.7310   -3.2561    0.0000 C   0  0  0  0  0  0  0  0  0  0  0  0
    1.5930   -1.3830    0.0000 C   0  0  0  0  0  0  0  0  0  0  0  0
    2.9936   -1.0504    0.0000 C   0  0  0  0  0  0  0  0  0  0  0  0
    1.4005   -0.5777    0.0000 C   0  0  0  0  0  0  0  0  0  0  0  0
    3.3962   -2.9235    0.0000 C   0  0  0  0  0  0  0  0  0  0  0  0
    2.0132    0.0000    0.0000 C   0  0  0  0  0  0  0  0  0  0  0  0
    1.9957   -3.2561    0.0000 C   0  0  0  0  0  0  0  0  0  0  0  0
    0.6127   -0.3326    0.0000 C   0  0  0  0  0  0  0  0  0  0  0  0
    4.0089   -2.3633    0.0000 C   0  0  0  0  0  0  0  0  0  0  0  0
    0.0000   -0.9103    0.0000 C   0  0  0  0  0  0  0  0  0  0  0  0
  1  5  1  0  0  0  0
  1  6  1  0  0  0  0
  1 12  1  0  0  0  0
  2 15  2  0  0  0  0
  2 18  1  0  0  0  0
  3 13  3  0  0  0  0
  4  7  1  0  0  0  0
  4  8  1  0  0  0  0
  4  9  1  0  0  0  0
  4 13  1  0  0  0  0
  5  7  1  0  0  0  0
  5 11  1  0  0  0  0
  6  8  1  0  0  0  0
  6 10  1  0  0  0  0
  9 14  2  0  0  0  0
  9 15  1  0  0  0  0
 10 11  2  0  0  0  0
 12 17  1  0  0  0  0
 12 19  1  0  0  0  0
 14 16  1  0  0  0  0
 16 18  2  0  0  0  0
 16 20  1  0  0  0  0
 17 21  3  0  0  0  0
 20 22  3  0  0  0  0
M  END
> <PUBCHEM_COMPOUND_ID_TYPE>
0

> <PUBCHEM_TOTAL_CHARGE>
0

> <PUBCHEM_SUBSTANCE_ID>
310937794

> <PUBCHEM_SUBSTANCE_VERSION>
1

> <PUBCHEM_EXT_DATASOURCE_NAME>
4488

> <PUBCHEM_EXT_DATASOURCE_REGID>
SCHEMBL16115607

> <PUBCHEM_SUBSTANCE_COMMENT>
InChI=1S/C19H17N3/c1-4-14(3)22-17-6-7-18(22)10-19(9-17,13-20)16-8-15(5-2)11-21-12-16/h1-2,6-8,11-12,14,17-18H,9-10H2,3H3
InChIKey=DUWNGBQBMQOEAJ-UHFFFAOYSA-N

> <PUBCHEM_SUBSTANCE_SYNONYM>
SCHEMBL16115607

> <PUBCHEM_XREF_EXT_ID>
SCHEMBL16115607

> <PUBCHEM_EXT_DATASOURCE_URL>
https://www.surechembl.org/

> <PUBCHEM_EXT_SUBSTANCE_URL>
https://www.surechembl.org/chemical/SCHEMBL16115607

> <PUBCHEM_CID_ASSOCIATIONS>
117605444  1

> <PUBCHEM_COORDINATE_TYPE>
1
3

$$$$
