310946392
  -OEChem-07211613022D

 31 32  0     1  0  0  0  0  0999 V2000
   -0.7145   -1.4438    0.0000 I   0  0  0  0  0  0  0  0  0  0  0  0
    0.7145    1.0312    0.0000 I   0  0  0  0  0  0  0  0  0  0  0  0
   -0.7145    0.2062    0.0000 O   0  0  0  0  0  0  0  0  0  0  0  0
    2.1434    1.0313    0.0000 O   0  0  0  0  0  0  0  0  0  0  0  0
   -3.5724   -1.4438    0.0000 O   0  0  0  0  0  0  0  0  0  0  0  0
    3.5724   -2.2687    0.0000 O   0  0  0  0  0  0  0  0  0  0  0  0
    4.2868   -1.0313    0.0000 O   0  0  0  0  0  0  0  0  0  0  0  0
    1.4289   -0.2062    0.0000 O   0  0  0  0  0  0  0  0  0  0  0  0
    2.8579   -0.2063    0.0000 N   0  0  0  0  0  0  0  0  0  0  0  0
    0.0000   -0.2063    0.0000 C   0  0  0  0  0  0  0  0  0  0  0  0
    0.0000   -1.0313    0.0000 C   0  0  0  0  0  0  0  0  0  0  0  0
    0.7145    0.2062    0.0000 C   0  0  0  0  0  0  0  0  0  0  0  0
    1.4289   -1.0313    0.0000 C   0  0  0  0  0  0  0  0  0  0  0  0
    0.7145   -1.4438    0.0000 C   0  0  0  0  0  0  0  0  0  0  0  0
    1.4289   -0.2063    0.0000 C   0  0  0  0  0  0  0  0  0  0  0  0
   -1.4289   -0.2063    0.0000 C   0  0  0  0  0  0  0  0  0  0  0  0
    2.1434   -1.4438    0.0000 C   0  0  0  0  0  0  0  0  0  0  0  0
    2.8579   -1.0313    0.0000 C   0  0  3  0  0  0  0  0  0  0  0  0
   -2.1434    0.2062    0.0000 C   0  0  0  0  0  0  0  0  0  0  0  0
   -2.8579   -0.2063    0.0000 C   0  0  0  0  0  0  0  0  0  0  0  0
   -2.8579   -1.0313    0.0000 C   0  0  0  0  0  0  0  0  0  0  0  0
   -1.4289   -1.0313    0.0000 C   0  0  0  0  0  0  0  0  0  0  0  0
    3.5724   -1.4438    0.0000 C   0  0  0  0  0  0  0  0  0  0  0  0
   -2.1434   -1.4438    0.0000 C   0  0  0  0  0  0  0  0  0  0  0  0
    2.1434    0.2062    0.0000 C   0  0  0  0  0  0  0  0  0  0  0  0
    1.4289    1.4437    0.0000 C   0  0  0  0  0  0  0  0  0  0  0  0
   -3.5724    0.2062    0.0000 C   0  0  0  0  0  0  0  0  0  0  0  0
    1.4289    2.2687    0.0000 C   0  0  0  0  0  0  0  0  0  0  0  0
    0.7145    1.8563    0.0000 C   0  0  0  0  0  0  0  0  0  0  0  0
    0.7145    1.0313    0.0000 C   0  0  0  0  0  0  0  0  0  0  0  0
   -4.2868   -1.0313    0.0000 C   0  0  0  0  0  0  0  0  0  0  0  0
  1 11  1  0  0  0  0
  2 12  1  0  0  0  0
  3 10  1  0  0  0  0
  3 16  1  0  0  0  0
  4 25  1  0  0  0  0
  4 26  1  0  0  0  0
  5 21  1  0  0  0  0
  5 31  1  0  0  0  0
  6 23  2  0  0  0  0
  7 23  1  0  0  0  0
  8 25  2  0  0  0  0
 18  9  1  6  0  0  0
  9 25  1  0  0  0  0
 10 11  2  0  0  0  0
 10 12  1  0  0  0  0
 11 14  1  0  0  0  0
 12 15  2  0  0  0  0
 13 14  2  0  0  0  0
 13 15  1  0  0  0  0
 13 17  1  0  0  0  0
 16 19  2  0  0  0  0
 16 22  1  0  0  0  0
 17 18  1  0  0  0  0
 18 23  1  0  0  0  0
 19 20  1  0  0  0  0
 20 21  2  0  0  0  0
 20 27  1  0  0  0  0
 21 24  1  0  0  0  0
 22 24  2  0  0  0  0
 26 28  1  0  0  0  0
 26 29  1  0  0  0  0
 26 30  1  0  0  0  0
M  END
> <PUBCHEM_COMPOUND_ID_TYPE>
0

> <PUBCHEM_TOTAL_CHARGE>
0

> <PUBCHEM_SUBSTANCE_ID>
310946392

> <PUBCHEM_SUBSTANCE_VERSION>
1

> <PUBCHEM_EXT_DATASOURCE_NAME>
4488

> <PUBCHEM_EXT_DATASOURCE_REGID>
SCHEMBL16124513

> <PUBCHEM_SUBSTANCE_COMMENT>
InChI=1S/C22H25I2NO6/c1-12-8-14(6-7-18(12)29-5)30-19-15(23)9-13(10-16(19)24)11-17(20(26)27)25-21(28)31-22(2,3)4/h6-10,17H,11H2,1-5H3,(H,25,28)(H,26,27)/t17-/m0/s1
InChIKey=GCGHTTFOPQSOBI-KRWDZBQOSA-N

> <PUBCHEM_SUBSTANCE_SYNONYM>
SCHEMBL16124513

> <PUBCHEM_XREF_EXT_ID>
SCHEMBL16124513

> <PUBCHEM_EXT_DATASOURCE_URL>
https://www.surechembl.org/

> <PUBCHEM_EXT_SUBSTANCE_URL>
https://www.surechembl.org/chemical/SCHEMBL16124513

> <PUBCHEM_CID_ASSOCIATIONS>
117612313  1

> <PUBCHEM_COORDINATE_TYPE>
1
3

> <PUBCHEM_BONDANNOTATIONS>
18  9  6

$$$$
