310948831
  -OEChem-07211613022D

 30 31  0     1  0  0  0  0  0999 V2000
   -0.3582    0.8187    0.0000 O   0  0  0  0  0  0  0  0  0  0  0  0
   -1.0746   -0.4349    0.0000 O   0  0  0  0  0  0  0  0  0  0  0  0
   -1.7909    2.4561    0.0000 O   0  0  0  0  0  0  0  0  0  0  0  0
   -0.3582    2.4561    0.0000 O   0  0  0  0  0  0  0  0  0  0  0  0
    1.0746   -0.0256    0.0000 O   0  0  0  0  0  0  0  0  0  0  0  0
   -1.7909   -0.0256    0.0000 O   0  0  0  0  0  0  0  0  0  0  0  0
    1.0746   -1.6630    0.0000 O   0  0  0  0  0  0  0  0  0  0  0  0
   -3.2236    0.8187    0.0000 O   0  0  0  0  0  0  0  0  0  0  0  0
   -0.3582   -2.4817    0.0000 O   0  0  0  0  0  0  0  0  0  0  0  0
   -1.7909   -2.4817    0.0000 O   0  0  0  0  0  0  0  0  0  0  0  0
   -3.9399    2.0468    0.0000 O   0  0  0  0  0  0  0  0  0  0  0  0
    1.7909    2.0468    0.0000 O   0  0  0  0  0  0  0  0  0  0  0  0
    3.9399    2.4561    0.0000 N   0  0  0  0  0  0  0  0  0  0  0  0
   -1.1001    1.2536    0.0000 C   0  0  3  0  0  0  0  0  0  0  0  0
   -0.3582    0.0000    0.0000 C   0  0  3  0  0  0  0  0  0  0  0  0
    0.3582   -0.3838    0.0000 C   0  0  3  0  0  0  0  0  0  0  0  0
   -1.7909    0.8443    0.0000 C   0  0  3  0  0  0  0  0  0  0  0  0
   -1.0234    2.0979    0.0000 C   0  0  3  0  0  0  0  0  0  0  0  0
    0.3326   -1.2025    0.0000 C   0  0  3  0  0  0  0  0  0  0  0  0
   -2.5073    1.2536    0.0000 C   0  0  3  0  0  0  0  0  0  0  0  0
   -0.3838   -1.6118    0.0000 C   0  0  3  0  0  0  0  0  0  0  0  0
   -1.1001   -1.2025    0.0000 C   0  0  3  0  0  0  0  0  0  0  0  0
   -2.4817    2.0979    0.0000 C   0  0  3  0  0  0  0  0  0  0  0  0
   -1.7653   -1.6118    0.0000 C   0  0  0  0  0  0  0  0  0  0  0  0
   -3.1980    2.4817    0.0000 C   0  0  0  0  0  0  0  0  0  0  0  0
    0.3838    2.0724    0.0000 C   0  0  0  0  0  0  0  0  0  0  0  0
    1.0746   -0.0256    0.0000 C   0  0  0  0  0  0  0  0  0  0  0  0
    1.0490    2.4817    0.0000 C   0  0  0  0  0  0  0  0  0  0  0  0
    2.5073    2.4817    0.0000 C   0  0  0  0  0  0  0  0  0  0  0  0
    3.2492    2.0724    0.0000 C   0  0  0  0  0  0  0  0  0  0  0  0
 14  1  1  1  0  0  0
 15  1  1  6  0  0  0
  2 15  1  0  0  0  0
  2 22  1  0  0  0  0
  3 18  1  0  0  0  0
  3 23  1  0  0  0  0
  4 18  1  0  0  0  0
  4 26  1  0  0  0  0
 16  5  1  1  0  0  0
  5 27  1  0  0  0  0
 17  6  1  1  0  0  0
 19  7  1  1  0  0  0
 20  8  1  6  0  0  0
 21  9  1  6  0  0  0
 10 24  1  0  0  0  0
 11 25  1  0  0  0  0
 12 28  1  0  0  0  0
 12 29  1  0  0  0  0
 13 30  1  0  0  0  0
 14 17  1  0  0  0  0
 14 18  1  0  0  0  0
 15 16  1  0  0  0  0
 16 19  1  0  0  0  0
 17 20  1  0  0  0  0
 19 21  1  0  0  0  0
 20 23  1  0  0  0  0
 21 22  1  0  0  0  0
 22 24  1  1  0  0  0
 23 25  1  6  0  0  0
 26 28  1  0  0  0  0
 29 30  1  0  0  0  0
M  END
> <PUBCHEM_COMPOUND_ID_TYPE>
0

> <PUBCHEM_TOTAL_CHARGE>
0

> <PUBCHEM_SUBSTANCE_ID>
310948831

> <PUBCHEM_SUBSTANCE_VERSION>
1

> <PUBCHEM_EXT_DATASOURCE_NAME>
4488

> <PUBCHEM_EXT_DATASOURCE_REGID>
SCHEMBL16127015

> <PUBCHEM_SUBSTANCE_COMMENT>
InChI=1S/C17H33NO12/c1-25-14-12(23)10(21)9(7-20)29-17(14)30-15-13(24)11(22)8(6-19)28-16(15)27-5-4-26-3-2-18/h8-17,19-24H,2-7,18H2,1H3/t8-,9+,10+,11+,12-,13-,14-,15-,16?,17+/m0/s1
InChIKey=XFFPETJOXVEBDO-MGLQSGMVSA-N

> <PUBCHEM_SUBSTANCE_SYNONYM>
SCHEMBL16127015

> <PUBCHEM_XREF_EXT_ID>
SCHEMBL16127015

> <PUBCHEM_EXT_DATASOURCE_URL>
https://www.surechembl.org/

> <PUBCHEM_EXT_SUBSTANCE_URL>
https://www.surechembl.org/chemical/SCHEMBL16127015

> <PUBCHEM_CID_ASSOCIATIONS>
117614368  1

> <PUBCHEM_COORDINATE_TYPE>
1
3

> <PUBCHEM_BONDANNOTATIONS>
14  1  5
15  1  6
22  24  5
23  25  6
16  5  5
17  6  5
19  7  5
20  8  6
21  9  6

$$$$
