310940149
  -OEChem-07211613022D

 42 46  0     0  0  0  0  0  0999 V2000
    2.4084   -3.1725    0.0000 S   0  0  0  0  0  0  0  0  0  0  0  0
   -2.5268   -4.2633    0.0000 O   0  0  0  0  0  0  0  0  0  0  0  0
   -2.5268    2.1738    0.0000 O   0  0  0  0  0  0  0  0  0  0  0  0
    2.4084   -3.1725    0.0000 O   0  0  0  0  0  0  0  0  0  0  0  0
    2.4084   -3.1725    0.0000 O   0  0  0  0  0  0  0  0  0  0  0  0
   -1.8116   -1.5633    0.0000 N   0  0  0  0  0  0  0  0  0  0  0  0
   -1.1320   -2.0639    0.0000 N   0  0  0  0  0  0  0  0  0  0  0  0
   -0.8996   -3.5302    0.0000 N   0  0  0  0  0  0  0  0  0  0  0  0
   -3.5996   -3.2977    0.0000 N   0  0  0  0  0  0  0  0  0  0  0  0
   -1.8116    0.9400    0.0000 N   0  0  0  0  0  0  0  0  0  0  0  0
    2.4084   -3.1725    0.0000 N   0  0  0  0  0  0  0  0  0  0  0  0
    0.3521   -0.3474    0.0000 N   0  0  0  0  0  0  0  0  0  0  0  0
   -1.7937   -0.7587    0.0000 C   0  0  0  0  0  0  0  0  0  0  0  0
   -2.4910   -2.0639    0.0000 C   0  0  0  0  0  0  0  0  0  0  0  0
   -2.2228   -2.8508    0.0000 C   0  0  0  0  0  0  0  0  0  0  0  0
   -1.4003   -2.8686    0.0000 C   0  0  0  0  0  0  0  0  0  0  0  0
   -2.7950   -3.4766    0.0000 C   0  0  0  0  0  0  0  0  0  0  0  0
   -2.5268   -0.3295    0.0000 C   0  0  0  0  0  0  0  0  0  0  0  0
   -1.0963   -0.3295    0.0000 C   0  0  0  0  0  0  0  0  0  0  0  0
   -3.2957   -1.9030    0.0000 C   0  0  0  0  0  0  0  0  0  0  0  0
   -1.0606   -1.1521    0.0000 C   0  0  0  0  0  0  0  0  0  0  0  0
   -3.8500   -2.5110    0.0000 C   0  0  0  0  0  0  0  0  0  0  0  0
   -2.5089    0.5109    0.0000 C   0  0  0  0  0  0  0  0  0  0  0  0
   -1.0784    0.4930    0.0000 C   0  0  0  0  0  0  0  0  0  0  0  0
   -0.0771   -3.4587    0.0000 C   0  0  0  0  0  0  0  0  0  0  0  0
   -0.3632   -0.7408    0.0000 C   0  0  0  0  0  0  0  0  0  0  0  0
   -1.7937    1.7447    0.0000 C   0  0  0  0  0  0  0  0  0  0  0  0
    1.5858   -3.2620    0.0000 C   0  0  0  0  0  0  0  0  0  0  0  0
    0.4235   -4.1024    0.0000 C   0  0  0  0  0  0  0  0  0  0  0  0
    0.2626   -2.6898    0.0000 C   0  0  0  0  0  0  0  0  0  0  0  0
    1.2461   -4.0130    0.0000 C   0  0  0  0  0  0  0  0  0  0  0  0
    1.1030   -2.6004    0.0000 C   0  0  0  0  0  0  0  0  0  0  0  0
   -1.0963    2.1559    0.0000 C   0  0  0  0  0  0  0  0  0  0  0  0
   -1.0606    3.0142    0.0000 C   0  0  0  0  0  0  0  0  0  0  0  0
    3.8500   -4.6593    0.0000 C   0  0  0  0  0  0  0  0  0  0  0  0
    3.8500   -4.6593    0.0000 C   0  0  0  0  0  0  0  0  0  0  0  0
   -0.3811    3.4255    0.0000 C   0  0  0  0  0  0  0  0  0  0  0  0
    0.3521    3.0142    0.0000 C   0  0  0  0  0  0  0  0  0  0  0  0
   -0.3453    4.2659    0.0000 C   0  0  0  0  0  0  0  0  0  0  0  0
    1.0673    3.4255    0.0000 C   0  0  0  0  0  0  0  0  0  0  0  0
    0.3521    4.6593    0.0000 C   0  0  0  0  0  0  0  0  0  0  0  0
    1.0673    4.2480    0.0000 C   0  0  0  0  0  0  0  0  0  0  0  0
  1  4  2  0  0  0  0
  1  5  2  0  0  0  0
  1 11  1  0  0  0  0
  1 28  1  0  0  0  0
  2 17  2  0  0  0  0
  3 27  2  0  0  0  0
  6  7  1  0  0  0  0
  6 13  1  0  0  0  0
  6 14  1  0  0  0  0
  7 16  2  0  0  0  0
  8 16  1  0  0  0  0
  8 25  1  0  0  0  0
  9 17  1  0  0  0  0
  9 22  1  0  0  0  0
 10 23  1  0  0  0  0
 10 24  1  0  0  0  0
 10 27  1  0  0  0  0
 11 35  1  0  0  0  0
 11 36  1  0  0  0  0
 12 26  3  0  0  0  0
 13 18  1  0  0  0  0
 13 19  1  0  0  0  0
 13 21  1  0  0  0  0
 14 15  2  0  0  0  0
 14 20  1  0  0  0  0
 15 16  1  0  0  0  0
 15 17  1  0  0  0  0
 18 23  1  0  0  0  0
 19 24  1  0  0  0  0
 20 22  2  0  0  0  0
 21 26  1  0  0  0  0
 25 29  2  0  0  0  0
 25 30  1  0  0  0  0
 27 33  1  0  0  0  0
 28 31  2  0  0  0  0
 28 32  1  0  0  0  0
 29 31  1  0  0  0  0
 30 32  2  0  0  0  0
 33 34  1  0  0  0  0
 34 37  1  0  0  0  0
 37 38  2  0  0  0  0
 37 39  1  0  0  0  0
 38 40  1  0  0  0  0
 39 41  2  0  0  0  0
 40 42  2  0  0  0  0
 41 42  1  0  0  0  0
M  END
> <PUBCHEM_COMPOUND_ID_TYPE>
0

> <PUBCHEM_TOTAL_CHARGE>
0

> <PUBCHEM_SUBSTANCE_ID>
310940149

> <PUBCHEM_SUBSTANCE_VERSION>
1

> <PUBCHEM_EXT_DATASOURCE_NAME>
4488

> <PUBCHEM_EXT_DATASOURCE_REGID>
SCHEMBL16118082

> <PUBCHEM_SUBSTANCE_COMMENT>
InChI=1S/C30H33N7O4S/c1-35(2)42(40,41)24-11-9-23(10-12-24)33-28-27-25(14-19-32-29(27)39)37(34-28)30(15-18-31)16-20-36(21-17-30)26(38)13-8-22-6-4-3-5-7-22/h3-7,9-12,14,19H,8,13,15-17,20-21H2,1-2H3,(H,32,39)(H,33,34)
InChIKey=LETPRHNYVPZTMX-UHFFFAOYSA-N

> <PUBCHEM_SUBSTANCE_SYNONYM>
SCHEMBL16118082

> <PUBCHEM_XREF_EXT_ID>
SCHEMBL16118082

> <PUBCHEM_EXT_DATASOURCE_URL>
https://www.surechembl.org/

> <PUBCHEM_EXT_SUBSTANCE_URL>
https://www.surechembl.org/chemical/SCHEMBL16118082

> <PUBCHEM_CID_ASSOCIATIONS>
117607273  1

> <PUBCHEM_COORDINATE_TYPE>
1
3

$$$$
