310948678
  -OEChem-07211613022D

 25 25  0     1  0  0  0  0  0999 V2000
    1.4261    0.4194    0.0000 P   0  0  0  0  0  0  0  0  0  0  0  0
    0.0000    0.4754    0.0000 O   0  0  0  0  0  0  0  0  0  0  0  0
    0.0000   -2.0274    0.0000 O   0  0  0  0  0  0  0  0  0  0  0  0
   -1.4401   -1.2024    0.0000 O   0  0  0  0  0  0  0  0  0  0  0  0
    1.4261   -1.2024    0.0000 O   0  0  0  0  0  0  0  0  0  0  0  0
    1.4261    0.4194    0.0000 O   0  0  0  0  0  0  0  0  0  0  0  0
   -1.4401    1.3003    0.0000 O   0  0  0  0  0  0  0  0  0  0  0  0
    0.0000   -2.0274    0.0000 O   0  0  0  0  0  0  0  0  0  0  0  0
    2.8244   -1.1744    0.0000 O   0  0  0  0  0  0  0  0  0  0  0  0
   -2.0973   -2.4608    0.0000 O   0  0  0  0  0  0  0  0  0  0  0  0
   -2.1671    2.4608    0.0000 O   0  0  0  0  0  0  0  0  0  0  0  0
    0.0000   -2.0274    0.0000 N   0  0  0  0  0  0  0  0  0  0  0  0
    0.0000   -1.1884    0.0000 C   0  0  3  0  0  0  0  0  0  0  0  0
   -0.7271   -0.7830    0.0000 C   0  0  3  0  0  0  0  0  0  0  0  0
    0.6991   -0.7690    0.0000 C   0  0  3  0  0  0  0  0  0  0  0  0
   -0.7131    0.0699    0.0000 C   0  0  3  0  0  0  0  0  0  0  0  0
    0.7131    0.0559    0.0000 C   0  0  3  0  0  0  0  0  0  0  0  0
   -1.4401    0.4754    0.0000 C   0  0  0  0  0  0  0  0  0  0  0  0
    0.0000   -2.0274    0.0000 C   0  0  0  0  0  0  0  0  0  0  0  0
   -1.4401   -2.0693    0.0000 C   0  0  0  0  0  0  0  0  0  0  0  0
    2.1532   -0.7830    0.0000 C   0  0  0  0  0  0  0  0  0  0  0  0
   -2.1671    1.7058    0.0000 C   0  0  0  0  0  0  0  0  0  0  0  0
    2.1392    0.0000    0.0000 C   0  0  0  0  0  0  0  0  0  0  0  0
   -0.7131   -2.4468    0.0000 C   0  0  0  0  0  0  0  0  0  0  0  0
   -2.8244    1.3003    0.0000 C   0  0  0  0  0  0  0  0  0  0  0  0
  1  6  1  0  0  0  0
  2 16  1  0  0  0  0
  2 17  1  0  0  0  0
 13  3  1  1  0  0  0
  3 19  1  0  0  0  0
 14  4  1  6  0  0  0
  4 20  1  0  0  0  0
 15  5  1  1  0  0  0
  5 21  1  0  0  0  0
 17  6  1  6  0  0  0
  7 18  1  0  0  0  0
  7 22  1  0  0  0  0
  8 19  2  0  0  0  0
  9 21  2  0  0  0  0
 10 20  2  0  0  0  0
 11 22  2  0  0  0  0
 12 19  1  0  0  0  0
 13 14  1  0  0  0  0
 13 15  1  0  0  0  0
 14 16  1  0  0  0  0
 15 17  1  0  0  0  0
 16 18  1  1  0  0  0
 20 24  1  0  0  0  0
 21 23  1  0  0  0  0
 22 25  1  0  0  0  0
M  END
> <PUBCHEM_COMPOUND_ID_TYPE>
0

> <PUBCHEM_TOTAL_CHARGE>
0

> <PUBCHEM_SUBSTANCE_ID>
310948678

> <PUBCHEM_SUBSTANCE_VERSION>
1

> <PUBCHEM_EXT_DATASOURCE_NAME>
4488

> <PUBCHEM_EXT_DATASOURCE_REGID>
SCHEMBL16126862

> <PUBCHEM_SUBSTANCE_COMMENT>
InChI=1S/C13H20NO10P/c1-5(15)19-4-8-9(20-6(2)16)10(23-13(14)18)11(21-7(3)17)12(22-8)24-25/h8-12H,4,25H2,1-3H3,(H2,14,18)/t8-,9-,10+,11+,12-/m1/s1
InChIKey=ZCTUYKOTWPVHOY-LDMBFOFVSA-N

> <PUBCHEM_SUBSTANCE_SYNONYM>
SCHEMBL16126862

> <PUBCHEM_XREF_EXT_ID>
SCHEMBL16126862

> <PUBCHEM_EXT_DATASOURCE_URL>
https://www.surechembl.org/

> <PUBCHEM_EXT_SUBSTANCE_URL>
https://www.surechembl.org/chemical/SCHEMBL16126862

> <PUBCHEM_CID_ASSOCIATIONS>
117614219  1

> <PUBCHEM_COORDINATE_TYPE>
1
3

> <PUBCHEM_BONDANNOTATIONS>
16  18  5
13  3  5
14  4  6
15  5  5
17  6  6

$$$$
