310948022
  -OEChem-07211613022D

 29 28  0     0  0  0  0  0  0999 V2000
   -3.7018    1.4850    0.0000 O   0  0  0  0  0  0  0  0  0  0  0  0
   -0.0737    2.7302    0.0000 O   0  0  0  0  0  0  0  0  0  0  0  0
   -0.8036   -0.1894    0.0000 O   0  0  0  0  0  0  0  0  0  0  0  0
   -3.7018    1.4850    0.0000 O   0  0  0  0  0  0  0  0  0  0  0  0
   -0.0737    2.7302    0.0000 O   0  0  0  0  0  0  0  0  0  0  0  0
   -0.8036   -0.1894    0.0000 O   0  0  0  0  0  0  0  0  0  0  0  0
   -1.5335    2.7302    0.0000 N   0  0  0  0  0  0  0  0  0  0  0  0
   -1.5335    1.8929    0.0000 C   0  0  0  0  0  0  0  0  0  0  0  0
   -1.5335    1.0772    0.0000 C   0  0  0  0  0  0  0  0  0  0  0  0
   -2.2419    1.4850    0.0000 C   0  0  0  0  0  0  0  0  0  0  0  0
   -0.8036    1.4850    0.0000 C   0  0  0  0  0  0  0  0  0  0  0  0
   -0.8036    0.6478    0.0000 C   0  0  0  0  0  0  0  0  0  0  0  0
   -2.9933    1.8929    0.0000 C   0  0  0  0  0  0  0  0  0  0  0  0
   -0.0951    1.8929    0.0000 C   0  0  0  0  0  0  0  0  0  0  0  0
   -3.7018    1.4850    0.0000 C   0  0  0  0  0  0  0  0  0  0  0  0
   -0.0737    2.7302    0.0000 C   0  0  0  0  0  0  0  0  0  0  0  0
   -0.8036   -0.1894    0.0000 C   0  0  0  0  0  0  0  0  0  0  0  0
   -2.0178   -0.3535    0.0000 C   0  0  0  0  0  0  0  0  0  0  0  0
    1.6081    0.8940    0.0000 C   0  0  0  0  0  0  0  0  0  0  0  0
    0.8788   -2.0263    0.0000 C   0  0  0  0  0  0  0  0  0  0  0  0
   -1.1587   -0.3535    0.0000 C   0  0  0  0  0  0  0  0  0  0  0  0
    2.4661    0.8940    0.0000 C   0  0  0  0  0  0  0  0  0  0  0  0
    1.7372   -2.0263    0.0000 C   0  0  0  0  0  0  0  0  0  0  0  0
   -0.7463   -1.0580    0.0000 C   0  0  0  0  0  0  0  0  0  0  0  0
    2.8780    0.1903    0.0000 C   0  0  0  0  0  0  0  0  0  0  0  0
    2.1491   -2.7302    0.0000 C   0  0  0  0  0  0  0  0  0  0  0  0
    0.0785   -1.0408    0.0000 C   0  0  0  0  0  0  0  0  0  0  0  0
    3.7018    0.2075    0.0000 C   0  0  0  0  0  0  0  0  0  0  0  0
    2.9732   -2.7130    0.0000 C   0  0  0  0  0  0  0  0  0  0  0  0
  1 15  1  0  0  0  0
  1 18  1  0  0  0  0
  2 16  1  0  0  0  0
  2 19  1  0  0  0  0
  3 17  1  0  0  0  0
  3 20  1  0  0  0  0
  4 15  2  0  0  0  0
  5 16  2  0  0  0  0
  6 17  2  0  0  0  0
  7  8  1  0  0  0  0
  8  9  1  0  0  0  0
  8 10  1  0  0  0  0
  8 11  1  0  0  0  0
  9 12  1  0  0  0  0
 10 13  1  0  0  0  0
 11 14  1  0  0  0  0
 12 17  1  0  0  0  0
 13 15  1  0  0  0  0
 14 16  1  0  0  0  0
 18 21  1  0  0  0  0
 19 22  1  0  0  0  0
 20 23  1  0  0  0  0
 21 24  1  0  0  0  0
 22 25  1  0  0  0  0
 23 26  1  0  0  0  0
 24 27  1  0  0  0  0
 25 28  1  0  0  0  0
 26 29  1  0  0  0  0
M  END
> <PUBCHEM_COMPOUND_ID_TYPE>
0

> <PUBCHEM_TOTAL_CHARGE>
0

> <PUBCHEM_SUBSTANCE_ID>
310948022

> <PUBCHEM_SUBSTANCE_VERSION>
1

> <PUBCHEM_EXT_DATASOURCE_NAME>
4488

> <PUBCHEM_EXT_DATASOURCE_REGID>
SCHEMBL16126196

> <PUBCHEM_SUBSTANCE_COMMENT>
InChI=1S/C22H41NO6/c1-4-7-16-27-19(24)10-13-22(23,14-11-20(25)28-17-8-5-2)15-12-21(26)29-18-9-6-3/h4-18,23H2,1-3H3
InChIKey=FGZREIUCTHBDRO-UHFFFAOYSA-N

> <PUBCHEM_SUBSTANCE_SYNONYM>
SCHEMBL16126196

> <PUBCHEM_XREF_EXT_ID>
SCHEMBL16126196

> <PUBCHEM_EXT_DATASOURCE_URL>
https://www.surechembl.org/

> <PUBCHEM_EXT_SUBSTANCE_URL>
https://www.surechembl.org/chemical/SCHEMBL16126196

> <PUBCHEM_CID_ASSOCIATIONS>
117613660  1

> <PUBCHEM_COORDINATE_TYPE>
1
3

$$$$
