310948075
  -OEChem-07211613022D

 48 54  0     0  0  0  0  0  0999 V2000
    3.6676   -2.1751    0.0000 S   0  0  0  0  0  0  0  0  0  0  0  0
    3.4421    3.9537    0.0000 F   0  0  0  0  0  0  0  0  0  0  0  0
    3.9751    3.3183    0.0000 F   0  0  0  0  0  0  0  0  0  0  0  0
    3.7701    0.6946    0.0000 F   0  0  0  0  0  0  0  0  0  0  0  0
   -1.2109    0.9611    0.0000 O   0  0  0  0  0  0  0  0  0  0  0  0
    2.3352    3.3593    0.0000 O   0  0  0  0  0  0  0  0  0  0  0  0
    3.2166    2.3344    0.0000 O   0  0  0  0  0  0  0  0  0  0  0  0
    3.6676   -2.1751    0.0000 O   0  0  0  0  0  0  0  0  0  0  0  0
    3.6676   -2.1751    0.0000 O   0  0  0  0  0  0  0  0  0  0  0  0
   -3.0761    1.2275    0.0000 O   0  0  0  0  0  0  0  0  0  0  0  0
    5.0000   -0.0638    0.0000 O   0  0  0  0  0  0  0  0  0  0  0  0
   -0.6164    2.1704    0.0000 N   0  0  0  0  0  0  0  0  0  0  0  0
   -1.7847   -1.2117    0.0000 N   0  0  0  0  0  0  0  0  0  0  0  0
   -2.5637   -0.9247    0.0000 N   0  0  0  0  0  0  0  0  0  0  0  0
   -3.9575    0.1001    0.0000 N   0  0  0  0  0  0  0  0  0  0  0  0
   -0.0015    0.1411    0.0000 C   0  0  0  0  0  0  0  0  0  0  0  0
   -0.3909    0.8586    0.0000 C   0  0  0  0  0  0  0  0  0  0  0  0
   -0.0219    1.6170    0.0000 C   0  0  0  0  0  0  0  0  0  0  0  0
   -0.4319   -0.5762    0.0000 C   0  0  0  0  0  0  0  0  0  0  0  0
   -1.2723   -0.5558    0.0000 C   0  0  0  0  0  0  0  0  0  0  0  0
    0.8185    1.7605    0.0000 C   0  0  0  0  0  0  0  0  0  0  0  0
    1.2284   -0.6378    0.0000 C   0  0  0  0  0  0  0  0  0  0  0  0
    0.8389    0.0797    0.0000 C   0  0  0  0  0  0  0  0  0  0  0  0
    1.9048    2.6623    0.0000 C   0  0  0  0  0  0  0  0  0  0  0  0
    2.0688   -0.6582    0.0000 C   0  0  0  0  0  0  0  0  0  0  0  0
    2.4378    2.0679    0.0000 C   0  0  0  0  0  0  0  0  0  0  0  0
   -0.0219   -1.3141    0.0000 C   0  0  0  0  0  0  0  0  0  0  0  0
   -1.3338    1.8015    0.0000 C   0  0  0  0  0  0  0  0  0  0  0  0
    1.1054    2.5189    0.0000 C   0  0  0  0  0  0  0  0  0  0  0  0
    3.1551    3.1748    0.0000 C   0  0  0  0  0  0  0  0  0  0  0  0
    0.7775   -1.3347    0.0000 C   0  0  0  0  0  0  0  0  0  0  0  0
   -1.7028    0.1207    0.0000 C   0  0  0  0  0  0  0  0  0  0  0  0
    3.2782   -1.4372    0.0000 C   0  0  0  0  0  0  0  0  0  0  0  0
   -2.5022   -0.0843    0.0000 C   0  0  0  0  0  0  0  0  0  0  0  0
    1.3514    1.1250    0.0000 C   0  0  0  0  0  0  0  0  0  0  0  0
    2.4582   -1.3757    0.0000 C   0  0  0  0  0  0  0  0  0  0  0  0
    3.7086   -0.7197    0.0000 C   0  0  0  0  0  0  0  0  0  0  0  0
    2.1508    1.2685    0.0000 C   0  0  0  0  0  0  0  0  0  0  0  0
    2.5197    0.0182    0.0000 C   0  0  0  0  0  0  0  0  0  0  0  0
    3.3191   -0.0024    0.0000 C   0  0  0  0  0  0  0  0  0  0  0  0
   -3.1991    0.4077    0.0000 C   0  0  0  0  0  0  0  0  0  0  0  0
   -2.0717    2.1704    0.0000 C   0  0  0  0  0  0  0  0  0  0  0  0
   -1.5183   -2.0316    0.0000 C   0  0  0  0  0  0  0  0  0  0  0  0
    4.5490   -0.7607    0.0000 C   0  0  0  0  0  0  0  0  0  0  0  0
   -4.6339    0.6331    0.0000 C   0  0  0  0  0  0  0  0  0  0  0  0
    5.3924   -3.9537    0.0000 C   0  0  0  0  0  0  0  0  0  0  0  0
   -5.3924    0.7356    0.0000 C   0  0  0  0  0  0  0  0  0  0  0  0
   -4.9209    1.3710    0.0000 C   0  0  0  0  0  0  0  0  0  0  0  0
  1  8  2  0  0  0  0
  1  9  2  0  0  0  0
  1 33  1  0  0  0  0
  1 46  1  0  0  0  0
  2 30  1  0  0  0  0
  3 30  1  0  0  0  0
  4 40  1  0  0  0  0
  5 17  1  0  0  0  0
  5 28  1  0  0  0  0
  6 24  1  0  0  0  0
  6 30  1  0  0  0  0
  7 26  1  0  0  0  0
  7 30  1  0  0  0  0
 10 41  2  0  0  0  0
 11 44  1  0  0  0  0
 12 18  1  0  0  0  0
 12 28  2  0  0  0  0
 13 14  1  0  0  0  0
 13 20  1  0  0  0  0
 13 43  1  0  0  0  0
 14 34  2  0  0  0  0
 15 41  1  0  0  0  0
 15 45  1  0  0  0  0
 16 17  1  0  0  0  0
 16 19  1  0  0  0  0
 16 23  2  0  0  0  0
 17 18  2  0  0  0  0
 18 21  1  0  0  0  0
 19 20  1  0  0  0  0
 19 27  2  0  0  0  0
 20 32  2  0  0  0  0
 21 29  1  0  0  0  0
 21 35  2  0  0  0  0
 22 23  1  0  0  0  0
 22 25  1  0  0  0  0
 22 31  2  0  0  0  0
 24 26  1  0  0  0  0
 24 29  2  0  0  0  0
 25 36  1  0  0  0  0
 25 39  2  0  0  0  0
 26 38  2  0  0  0  0
 27 31  1  0  0  0  0
 28 42  1  0  0  0  0
 32 34  1  0  0  0  0
 33 36  2  0  0  0  0
 33 37  1  0  0  0  0
 34 41  1  0  0  0  0
 35 38  1  0  0  0  0
 37 40  2  0  0  0  0
 37 44  1  0  0  0  0
 39 40  1  0  0  0  0
 45 47  1  0  0  0  0
 45 48  1  0  0  0  0
 47 48  1  0  0  0  0
M  END
> <PUBCHEM_COMPOUND_ID_TYPE>
0

> <PUBCHEM_TOTAL_CHARGE>
0

> <PUBCHEM_SUBSTANCE_ID>
310948075

> <PUBCHEM_SUBSTANCE_VERSION>
1

> <PUBCHEM_EXT_DATASOURCE_NAME>
4488

> <PUBCHEM_EXT_DATASOURCE_REGID>
SCHEMBL16126251

> <PUBCHEM_SUBSTANCE_COMMENT>
InChI=1S/C33H27F3N4O7S/c1-16-37-30(18-5-9-27-28(12-18)47-33(35,36)46-27)31(45-16)22-10-17(19-11-24(34)23(15-41)29(13-19)48(3,43)44)4-8-21(22)26-14-25(39-40(26)2)32(42)38-20-6-7-20/h4-5,8-14,20,41H,6-7,15H2,1-3H3,(H,38,42)
InChIKey=FCNPYJJRRDARAA-UHFFFAOYSA-N

> <PUBCHEM_SUBSTANCE_SYNONYM>
SCHEMBL16126251

> <PUBCHEM_XREF_EXT_ID>
SCHEMBL16126251

> <PUBCHEM_EXT_DATASOURCE_URL>
https://www.surechembl.org/

> <PUBCHEM_EXT_SUBSTANCE_URL>
https://www.surechembl.org/chemical/SCHEMBL16126251

> <PUBCHEM_CID_ASSOCIATIONS>
86275953  1

> <PUBCHEM_COORDINATE_TYPE>
1
3

$$$$
