310948655
  -OEChem-07211613022D

 27 27  0     1  0  0  0  0  0999 V2000
   -0.0071    0.8649    0.0000 O   0  0  0  0  0  0  0  0  0  0  0  0
   -0.0071   -1.6243    0.0000 O   0  0  0  0  0  0  0  0  0  0  0  0
    1.4415   -0.7946    0.0000 O   0  0  0  0  0  0  0  0  0  0  0  0
   -1.4555   -0.7946    0.0000 O   0  0  0  0  0  0  0  0  0  0  0  0
    1.4415    0.8649    0.0000 O   0  0  0  0  0  0  0  0  0  0  0  0
   -1.4555    1.6945    0.0000 O   0  0  0  0  0  0  0  0  0  0  0  0
   -1.3992   -1.6945    0.0000 O   0  0  0  0  0  0  0  0  0  0  0  0
    0.7946   -2.0321    0.0000 O   0  0  0  0  0  0  0  0  0  0  0  0
   -1.4555   -0.7946    0.0000 O   0  0  0  0  0  0  0  0  0  0  0  0
    2.1586   -0.3445    0.0000 O   0  0  0  0  0  0  0  0  0  0  0  0
   -2.1868    2.8618    0.0000 O   0  0  0  0  0  0  0  0  0  0  0  0
   -1.4555   -0.7946    0.0000 N   0  0  0  0  0  0  0  0  0  0  0  0
   -0.0211   -0.7946    0.0000 C   0  0  3  0  0  0  0  0  0  0  0  0
    0.6960   -0.3726    0.0000 C   0  0  3  0  0  0  0  0  0  0  0  0
   -0.7383   -0.3867    0.0000 C   0  0  3  0  0  0  0  0  0  0  0  0
    0.7101    0.4430    0.0000 C   0  0  3  0  0  0  0  0  0  0  0  0
   -0.7242    0.4570    0.0000 C   0  0  3  0  0  0  0  0  0  0  0  0
   -1.4555    0.8649    0.0000 C   0  0  0  0  0  0  0  0  0  0  0  0
   -0.7242   -2.0742    0.0000 C   0  0  0  0  0  0  0  0  0  0  0  0
    1.4555   -1.6524    0.0000 C   0  0  0  0  0  0  0  0  0  0  0  0
   -1.4555   -0.7946    0.0000 C   0  0  0  0  0  0  0  0  0  0  0  0
    2.1727    0.4289    0.0000 C   0  0  0  0  0  0  0  0  0  0  0  0
   -2.1868    2.1024    0.0000 C   0  0  0  0  0  0  0  0  0  0  0  0
   -0.6820   -2.8618    0.0000 C   0  0  0  0  0  0  0  0  0  0  0  0
    2.1586   -2.0180    0.0000 C   0  0  0  0  0  0  0  0  0  0  0  0
    2.8618    0.8368    0.0000 C   0  0  0  0  0  0  0  0  0  0  0  0
   -2.8618    1.6945    0.0000 C   0  0  0  0  0  0  0  0  0  0  0  0
  1 16  1  0  0  0  0
  1 17  1  0  0  0  0
 13  2  1  1  0  0  0
  2 19  1  0  0  0  0
 14  3  1  1  0  0  0
  3 20  1  0  0  0  0
 15  4  1  6  0  0  0
  4 21  1  0  0  0  0
 16  5  1  6  0  0  0
  5 22  1  0  0  0  0
  6 18  1  0  0  0  0
  6 23  1  0  0  0  0
  7 19  2  0  0  0  0
  8 20  2  0  0  0  0
  9 21  2  0  0  0  0
 10 22  2  0  0  0  0
 11 23  2  0  0  0  0
 12 21  1  0  0  0  0
 13 14  1  0  0  0  0
 13 15  1  0  0  0  0
 14 16  1  0  0  0  0
 15 17  1  0  0  0  0
 17 18  1  1  0  0  0
 19 24  1  0  0  0  0
 20 25  1  0  0  0  0
 22 26  1  0  0  0  0
 23 27  1  0  0  0  0
M  END
> <PUBCHEM_COMPOUND_ID_TYPE>
0

> <PUBCHEM_TOTAL_CHARGE>
0

> <PUBCHEM_SUBSTANCE_ID>
310948655

> <PUBCHEM_SUBSTANCE_VERSION>
1

> <PUBCHEM_EXT_DATASOURCE_NAME>
4488

> <PUBCHEM_EXT_DATASOURCE_REGID>
SCHEMBL16126839

> <PUBCHEM_SUBSTANCE_COMMENT>
InChI=1S/C15H21NO11/c1-6(17)22-5-10-11(27-15(16)21)12(23-7(2)18)13(24-8(3)19)14(26-10)25-9(4)20/h10-14H,5H2,1-4H3,(H2,16,21)/t10-,11-,12+,13+,14+/m1/s1
InChIKey=WZNKMJPWWWKADP-DGTMBMJNSA-N

> <PUBCHEM_SUBSTANCE_SYNONYM>
SCHEMBL16126839

> <PUBCHEM_XREF_EXT_ID>
SCHEMBL16126839

> <PUBCHEM_EXT_DATASOURCE_URL>
https://www.surechembl.org/

> <PUBCHEM_EXT_SUBSTANCE_URL>
https://www.surechembl.org/chemical/SCHEMBL16126839

> <PUBCHEM_CID_ASSOCIATIONS>
117614199  1

> <PUBCHEM_COORDINATE_TYPE>
1
3

> <PUBCHEM_BONDANNOTATIONS>
17  18  5
13  2  5
14  3  5
15  4  6
16  5  6

$$$$
