310936204
  -OEChem-07211613022D

 35 38  0     1  0  0  0  0  0999 V2000
    0.7146   -4.2601    0.0000 O   0  0  0  0  0  0  0  0  0  0  0  0
    5.3319   -4.2326    0.0000 O   0  0  0  0  0  0  0  0  0  0  0  0
    2.1438   -5.0846    0.0000 O   0  0  0  0  0  0  0  0  0  0  0  0
    2.8309   -3.8478    0.0000 O   0  0  0  0  0  0  0  0  0  0  0  0
    2.1438   -1.8414    0.0000 N   0  0  0  0  0  0  0  0  0  0  0  0
    2.4461   -3.4355    0.0000 N   0  0  0  0  0  0  0  0  0  0  0  0
    0.6871   -1.8414    0.0000 N   0  0  0  0  0  0  0  0  0  0  0  0
    2.4461   -1.0444    0.0000 N   0  0  0  0  0  0  0  0  0  0  0  0
    3.7378   -0.0824    0.0000 N   0  0  0  0  0  0  0  0  0  0  0  0
    2.1438   -2.6385    0.0000 C   0  0  0  0  0  0  0  0  0  0  0  0
    1.4292   -3.0233    0.0000 C   0  0  0  0  0  0  0  0  0  0  0  0
    1.4292   -1.4292    0.0000 C   0  0  0  0  0  0  0  0  0  0  0  0
    0.6871   -2.6385    0.0000 C   0  0  0  0  0  0  0  0  0  0  0  0
    1.4292   -3.8478    0.0000 C   0  0  3  0  0  0  0  0  0  0  0  0
    2.9408   -0.4672    0.0000 C   0  0  0  0  0  0  0  0  0  0  0  0
    2.4461   -1.4017    0.0000 C   0  0  0  0  0  0  0  0  0  0  0  0
    2.9408   -3.9852    0.0000 C   0  0  0  0  0  0  0  0  0  0  0  0
    3.0782   -4.0676    0.0000 C   0  0  0  0  0  0  0  0  0  0  0  0
    2.1438   -4.2601    0.0000 C   0  0  0  0  0  0  0  0  0  0  0  0
    4.5349   -4.4800    0.0000 C   0  0  0  0  0  0  0  0  0  0  0  0
    3.7378   -4.3975    0.0000 C   0  0  0  0  0  0  0  0  0  0  0  0
    3.9303   -3.8478    0.0000 C   0  0  0  0  0  0  0  0  0  0  0  0
    0.0000   -3.0508    0.0000 C   0  0  0  0  0  0  0  0  0  0  0  0
    0.7146   -5.0846    0.0000 C   0  0  0  0  0  0  0  0  0  0  0  0
    4.6174   -5.3044    0.0000 C   0  0  0  0  0  0  0  0  0  0  0  0
    4.5349    0.0000    0.0000 C   0  0  0  0  0  0  0  0  0  0  0  0
    1.4292   -5.4969    0.0000 C   0  0  0  0  0  0  0  0  0  0  0  0
    0.0000   -5.4969    0.0000 C   0  0  0  0  0  0  0  0  0  0  0  0
    1.4292   -4.6723    0.0000 C   0  0  0  0  0  0  0  0  0  0  0  0
    5.9641   -3.7653    0.0000 C   0  0  0  0  0  0  0  0  0  0  0  0
    5.3319   -0.2474    0.0000 C   0  0  0  0  0  0  0  0  0  0  0  0
    6.1290   -2.9408    0.0000 C   0  0  0  0  0  0  0  0  0  0  0  0
    5.9641   -0.7146    0.0000 C   0  0  0  0  0  0  0  0  0  0  0  0
    6.5412   -2.2262    0.0000 C   0  0  0  0  0  0  0  0  0  0  0  0
    6.3764   -1.4292    0.0000 C   0  0  0  0  0  0  0  0  0  0  0  0
 14  1  1  1  0  0  0
  1 24  1  0  0  0  0
  2 20  1  0  0  0  0
  2 30  1  0  0  0  0
  3 19  2  0  0  0  0
  4 19  1  0  0  0  0
  5  8  1  0  0  0  0
  5 10  1  0  0  0  0
  5 12  1  0  0  0  0
  6 10  1  0  0  0  0
  6 17  1  0  0  0  0
  6 18  1  0  0  0  0
  7 12  1  0  0  0  0
  7 13  2  0  0  0  0
  8 15  2  0  0  0  0
  9 15  1  0  0  0  0
  9 26  1  0  0  0  0
 10 11  2  0  0  0  0
 11 13  1  0  0  0  0
 11 14  1  0  0  0  0
 12 16  2  0  0  0  0
 13 23  1  0  0  0  0
 14 19  1  0  0  0  0
 15 16  1  0  0  0  0
 17 21  1  0  0  0  0
 18 22  1  0  0  0  0
 20 21  1  0  0  0  0
 20 22  1  0  0  0  0
 20 25  1  0  0  0  0
 24 27  1  0  0  0  0
 24 28  1  0  0  0  0
 24 29  1  0  0  0  0
 26 31  1  0  0  0  0
 30 32  1  0  0  0  0
 31 33  1  0  0  0  0
 32 34  2  0  0  0  0
 33 35  1  0  0  0  0
 34 35  1  0  0  0  0
M  END
> <PUBCHEM_COMPOUND_ID_TYPE>
0

> <PUBCHEM_TOTAL_CHARGE>
0

> <PUBCHEM_SUBSTANCE_ID>
310936204

> <PUBCHEM_SUBSTANCE_VERSION>
1

> <PUBCHEM_EXT_DATASOURCE_NAME>
4488

> <PUBCHEM_EXT_DATASOURCE_REGID>
SCHEMBL16113816

> <PUBCHEM_SUBSTANCE_COMMENT>
InChI=1S/C26H39N5O4/c1-18-21(22(24(32)33)35-25(2,3)4)23-30-14-11-26(5,12-15-30)34-16-10-8-6-7-9-13-27-19-17-20(28-18)31(23)29-19/h8,10,17,22H,6-7,9,11-16H2,1-5H3,(H,27,29)(H,32,33)/b10-8+/t22-/m0/s1
InChIKey=LHHCUEIZRPJCIB-RCHCNPRSSA-N

> <PUBCHEM_SUBSTANCE_SYNONYM>
SCHEMBL16113816

> <PUBCHEM_XREF_EXT_ID>
SCHEMBL16113816

> <PUBCHEM_EXT_DATASOURCE_URL>
https://www.surechembl.org/

> <PUBCHEM_EXT_SUBSTANCE_URL>
https://www.surechembl.org/chemical/SCHEMBL16113816

> <PUBCHEM_CID_ASSOCIATIONS>
86300652  1

> <PUBCHEM_COORDINATE_TYPE>
1
3

> <PUBCHEM_BONDANNOTATIONS>
14  1  5

$$$$
