310946724
  -OEChem-07211613022D

 36 38  0     1  0  0  0  0  0999 V2000
    0.0264    0.7900    0.0000 F   0  0  0  0  0  0  0  0  0  0  0  0
   -1.4202    3.3038    0.0000 F   0  0  0  0  0  0  0  0  0  0  0  0
    1.4526    3.3038    0.0000 O   0  0  0  0  0  0  0  0  0  0  0  0
    0.2727   -1.0876    0.0000 N   0  0  0  0  0  0  0  0  0  0  0  0
   -0.8765   -1.9084    0.0000 N   0  0  0  0  0  0  0  0  0  0  0  0
   -1.4305    0.7900    0.0000 N   0  0  0  0  0  0  0  0  0  0  0  0
   -0.7636    0.2975    0.0000 N   0  0  0  0  0  0  0  0  0  0  0  0
    1.5757   -1.6519    0.0000 N   0  0  0  0  0  0  0  0  0  0  0  0
   -0.7533   -3.3243    0.0000 N   0  0  0  0  0  0  0  0  0  0  0  0
    1.5757   -1.6519    0.0000 N   0  0  0  0  0  0  0  0  0  0  0  0
   -0.7533   -3.3243    0.0000 N   0  0  0  0  0  0  0  0  0  0  0  0
    1.5757   -1.6519    0.0000 N   0  0  0  0  0  0  0  0  0  0  0  0
   -0.7533   -3.3243    0.0000 N   0  0  0  0  0  0  0  0  0  0  0  0
    3.4415    3.0723    0.0000 N   0  0  0  0  0  0  0  0  0  0  0  0
    3.4135    2.2743    0.0000 N   0  3  0  0  0  0  0  0  0  0  0  0
    3.3855    1.4764    0.0000 N   0  5  0  0  0  0  0  0  0  0  0  0
   -1.8717   -0.4719    0.0000 C   0  0  0  0  0  0  0  0  0  0  0  0
   -1.0201   -0.4823    0.0000 C   0  0  3  0  0  0  0  0  0  0  0  0
   -0.5379   -1.1286    0.0000 C   0  0  3  0  0  0  0  0  0  0  0  0
   -2.1180    0.3283    0.0000 C   0  0  0  0  0  0  0  0  0  0  0  0
   -0.7225    2.0623    0.0000 C   0  0  0  0  0  0  0  0  0  0  0  0
    0.0264    1.6621    0.0000 C   0  0  0  0  0  0  0  0  0  0  0  0
   -0.7225    2.9036    0.0000 C   0  0  0  0  0  0  0  0  0  0  0  0
    0.7344   -1.7032    0.0000 C   0  0  3  0  0  0  0  0  0  0  0  0
   -0.3840   -2.5343    0.0000 C   0  0  0  0  0  0  0  0  0  0  0  0
   -1.4305    1.6724    0.0000 C   0  0  0  0  0  0  0  0  0  0  0  0
   -2.4258   -1.0876    0.0000 C   0  0  0  0  0  0  0  0  0  0  0  0
    0.7241    2.9036    0.0000 C   0  0  0  0  0  0  0  0  0  0  0  0
    0.3958   -2.4522    0.0000 C   0  0  0  0  0  0  0  0  0  0  0  0
   -2.9285    0.4823    0.0000 C   0  0  0  0  0  0  0  0  0  0  0  0
    0.7138    2.0520    0.0000 C   0  0  0  0  0  0  0  0  0  0  0  0
    0.0059    3.2935    0.0000 C   0  0  0  0  0  0  0  0  0  0  0  0
   -3.2260   -0.9234    0.0000 C   0  0  0  0  0  0  0  0  0  0  0  0
   -3.4415   -0.1128    0.0000 C   0  0  0  0  0  0  0  0  0  0  0  0
    2.1708    2.9344    0.0000 C   0  0  0  0  0  0  0  0  0  0  0  0
    2.9095    3.3243    0.0000 C   0  0  0  0  0  0  0  0  0  0  0  0
  1 22  1  0  0  0  0
  2 23  1  0  0  0  0
  3 28  1  0  0  0  0
  3 35  1  0  0  0  0
  4 19  1  0  0  0  0
  4 24  1  0  0  0  0
  5 19  1  0  0  0  0
  5 25  1  0  0  0  0
  6 20  1  0  0  0  0
  6 26  1  0  0  0  0
  7 18  1  0  0  0  0
  8 10  2  3  0  0  0
  8 24  1  0  0  0  0
  9 11  1  0  0  0  0
  9 25  1  0  0  0  0
 10 12  1  0  0  0  0
 11 13  2  3  0  0  0
 14 15  2  0  0  0  0
 14 36  1  0  0  0  0
 15 16  2  0  0  0  0
 17 18  1  0  0  0  0
 17 20  2  0  0  0  0
 17 27  1  0  0  0  0
 18 19  1  0  0  0  0
 20 30  1  0  0  0  0
 21 22  2  0  0  0  0
 21 23  1  0  0  0  0
 21 26  1  0  0  0  0
 22 31  1  0  0  0  0
 23 32  2  0  0  0  0
 24 29  1  0  0  0  0
 25 29  2  0  0  0  0
 27 33  2  0  0  0  0
 28 31  2  0  0  0  0
 28 32  1  0  0  0  0
 30 34  2  0  0  0  0
 33 34  1  0  0  0  0
 35 36  1  0  0  0  0
M  CHG  2  15   1  16  -1
M  END
> <PUBCHEM_COMPOUND_ID_TYPE>
0

> <PUBCHEM_TOTAL_CHARGE>
0

> <PUBCHEM_SUBSTANCE_ID>
310946724

> <PUBCHEM_SUBSTANCE_VERSION>
1

> <PUBCHEM_EXT_DATASOURCE_NAME>
4488

> <PUBCHEM_EXT_DATASOURCE_REGID>
SCHEMBL16124848

> <PUBCHEM_SUBSTANCE_COMMENT>
InChI=1S/C20H25F2N13O/c21-14-7-11(36-6-5-28-33-24)8-15(22)13(14)10-27-16-4-2-1-3-12(16)19(23)20-29-17(31-34-25)9-18(30-20)32-35-26/h1-4,7-9,17,19-20,27,29-30H,5-6,10,23H2,(H2,25,31)(H2,26,32)
InChIKey=CIUBRHANNQMVMY-UHFFFAOYSA-N

> <PUBCHEM_SUBSTANCE_SYNONYM>
SCHEMBL16124848

> <PUBCHEM_XREF_EXT_ID>
SCHEMBL16124848

> <PUBCHEM_EXT_DATASOURCE_URL>
https://www.surechembl.org/

> <PUBCHEM_EXT_SUBSTANCE_URL>
https://www.surechembl.org/chemical/SCHEMBL16124848

> <PUBCHEM_CID_ASSOCIATIONS>
117612614  1

> <PUBCHEM_COORDINATE_TYPE>
1
3

$$$$
