310940492
  -OEChem-07211613022D

 27 29  0     0  0  0  0  0  0999 V2000
    0.6246    2.1810    0.0000 F   0  0  0  0  0  0  0  0  0  0  0  0
    0.9727    1.1161    0.0000 F   0  0  0  0  0  0  0  0  0  0  0  0
   -0.1331    0.7885    0.0000 F   0  0  0  0  0  0  0  0  0  0  0  0
   -1.8943   -2.2629    0.0000 O   0  0  0  0  0  0  0  0  0  0  0  0
   -1.1775   -1.0137    0.0000 N   0  0  0  0  0  0  0  0  0  0  0  0
    0.2560   -3.1230    0.0000 N   0  0  0  0  0  0  0  0  0  0  0  0
    0.2560   -3.1230    0.0000 N   0  0  0  0  0  0  0  0  0  0  0  0
   -1.2185    1.4847    0.0000 C   0  0  0  0  0  0  0  0  0  0  0  0
   -0.5017    1.8943    0.0000 C   0  0  0  0  0  0  0  0  0  0  0  0
   -1.1980    0.6451    0.0000 C   0  0  0  0  0  0  0  0  0  0  0  0
    0.2355    1.4847    0.0000 C   0  0  0  0  0  0  0  0  0  0  0  0
   -1.1775   -1.8328    0.0000 C   0  0  0  0  0  0  0  0  0  0  0  0
   -0.4608   -2.2219    0.0000 C   0  0  0  0  0  0  0  0  0  0  0  0
   -0.4813    0.2355    0.0000 C   0  0  0  0  0  0  0  0  0  0  0  0
   -1.9147    0.1945    0.0000 C   0  0  0  0  0  0  0  0  0  0  0  0
   -1.9147    1.8738    0.0000 C   0  0  0  0  0  0  0  0  0  0  0  0
   -0.4813    2.6724    0.0000 C   0  0  0  0  0  0  0  0  0  0  0  0
   -0.4608   -0.5837    0.0000 C   0  0  0  0  0  0  0  0  0  0  0  0
   -1.8943   -0.6041    0.0000 C   0  0  0  0  0  0  0  0  0  0  0  0
    0.2969   -1.8943    0.0000 C   0  0  0  0  0  0  0  0  0  0  0  0
   -1.9352    2.6724    0.0000 C   0  0  0  0  0  0  0  0  0  0  0  0
   -1.2185    3.1230    0.0000 C   0  0  0  0  0  0  0  0  0  0  0  0
    0.8908   -2.5086    0.0000 C   0  0  0  0  0  0  0  0  0  0  0  0
    0.5632   -1.1366    0.0000 C   0  0  0  0  0  0  0  0  0  0  0  0
    1.6895   -2.3244    0.0000 C   0  0  0  0  0  0  0  0  0  0  0  0
    1.3618   -0.9318    0.0000 C   0  0  0  0  0  0  0  0  0  0  0  0
    1.9352   -1.5666    0.0000 C   0  0  0  0  0  0  0  0  0  0  0  0
  1 11  1  0  0  0  0
  2 11  1  0  0  0  0
  3 11  1  0  0  0  0
  4 12  2  0  0  0  0
  5 12  1  0  0  0  0
  5 18  1  0  0  0  0
  5 19  1  0  0  0  0
  6  7  1  0  0  0  0
  6 13  2  3  0  0  0
  8  9  2  0  0  0  0
  8 10  1  0  0  0  0
  8 16  1  0  0  0  0
  9 11  1  0  0  0  0
  9 17  1  0  0  0  0
 10 14  1  0  0  0  0
 10 15  1  0  0  0  0
 12 13  1  0  0  0  0
 13 20  1  0  0  0  0
 14 18  1  0  0  0  0
 15 19  1  0  0  0  0
 16 21  2  0  0  0  0
 17 22  2  0  0  0  0
 20 23  2  0  0  0  0
 20 24  1  0  0  0  0
 21 22  1  0  0  0  0
 23 25  1  0  0  0  0
 24 26  2  0  0  0  0
 25 27  2  0  0  0  0
 26 27  1  0  0  0  0
M  END
> <PUBCHEM_COMPOUND_ID_TYPE>
0

> <PUBCHEM_TOTAL_CHARGE>
0

> <PUBCHEM_SUBSTANCE_ID>
310940492

> <PUBCHEM_SUBSTANCE_VERSION>
1

> <PUBCHEM_EXT_DATASOURCE_NAME>
4488

> <PUBCHEM_EXT_DATASOURCE_REGID>
SCHEMBL16118445

> <PUBCHEM_SUBSTANCE_COMMENT>
InChI=1S/C20H20F3N3O/c21-20(22,23)17-9-5-4-8-16(17)14-10-12-26(13-11-14)19(27)18(25-24)15-6-2-1-3-7-15/h1-9,14H,10-13,24H2/b25-18-
InChIKey=RCXYXFUIJVYJBP-BWAHOGKJSA-N

> <PUBCHEM_SUBSTANCE_SYNONYM>
SCHEMBL16118445

> <PUBCHEM_XREF_EXT_ID>
SCHEMBL16118445

> <PUBCHEM_EXT_DATASOURCE_URL>
https://www.surechembl.org/

> <PUBCHEM_EXT_SUBSTANCE_URL>
https://www.surechembl.org/chemical/SCHEMBL16118445

> <PUBCHEM_CID_ASSOCIATIONS>
117607507  1

> <PUBCHEM_COORDINATE_TYPE>
1
3

$$$$
