310947825
  -OEChem-07211613022D

 48 50  0     1  0  0  0  0  0999 V2000
    0.7876   -0.2731    0.0000 S   0  0  0  0  0  0  0  0  0  0  0  0
    0.7876   -0.2731    0.0000 O   0  0  0  0  0  0  0  0  0  0  0  0
    0.7876   -0.2731    0.0000 O   0  0  0  0  0  0  0  0  0  0  0  0
   -1.3801   -0.2731    0.0000 O   0  0  0  0  0  0  0  0  0  0  0  0
    0.7876   -0.2731    0.0000 O   0  0  0  0  0  0  0  0  0  0  0  0
    0.7876   -0.2731    0.0000 O   0  0  0  0  0  0  0  0  0  0  0  0
   -1.6644    3.1739    0.0000 O   0  0  0  0  0  0  0  0  0  0  0  0
   -3.0385    2.3802    0.0000 O   0  0  0  0  0  0  0  0  0  0  0  0
   -3.6900   -0.4863    0.0000 O   0  0  0  0  0  0  0  0  0  0  0  0
   -5.0996   -0.3323    0.0000 O   0  0  0  0  0  0  0  0  0  0  0  0
    0.4085    0.4140    0.0000 N   0  0  0  0  0  0  0  0  0  0  0  0
   -0.9655    1.1957    0.0000 N   0  0  0  0  0  0  0  0  0  0  0  0
    0.7876   -0.2731    0.0000 N   0  0  0  0  0  0  0  0  0  0  0  0
   -2.3278    1.9894    0.0000 N   0  0  0  0  0  0  0  0  0  0  0  0
   -4.3770    0.8049    0.0000 N   0  0  0  0  0  0  0  0  0  0  0  0
    2.7084   -2.3703    0.0000 C   0  0  3  0  0  0  0  0  0  0  0  0
   -0.9418    0.4258    0.0000 C   0  0  0  0  0  0  0  0  0  0  0  0
    2.7084   -2.3703    0.0000 C   0  0  3  0  0  0  0  0  0  0  0  0
    0.4440    1.2194    0.0000 C   0  0  3  0  0  0  0  0  0  0  0  0
   -0.9537    1.9894    0.0000 C   0  0  3  0  0  0  0  0  0  0  0  0
   -0.2785    0.8049    0.0000 C   0  0  0  0  0  0  0  0  0  0  0  0
    0.3966    1.9894    0.0000 C   0  0  0  0  0  0  0  0  0  0  0  0
   -0.2904    2.3802    0.0000 C   0  0  0  0  0  0  0  0  0  0  0  0
    2.7084   -2.3703    0.0000 C   0  0  0  0  0  0  0  0  0  0  0  0
    3.6884   -2.3703    0.0000 C   0  0  0  0  0  0  0  0  0  0  0  0
   -1.6881    2.3566    0.0000 C   0  0  0  0  0  0  0  0  0  0  0  0
    2.7084   -2.3703    0.0000 C   0  0  0  0  0  0  0  0  0  0  0  0
    3.6884   -2.3703    0.0000 C   0  0  0  0  0  0  0  0  0  0  0  0
    3.6884   -2.3703    0.0000 C   0  0  0  0  0  0  0  0  0  0  0  0
    4.1588   -3.1739    0.0000 C   0  0  0  0  0  0  0  0  0  0  0  0
    3.6884   -2.3703    0.0000 C   0  0  0  0  0  0  0  0  0  0  0  0
    4.1588   -3.1739    0.0000 C   0  0  0  0  0  0  0  0  0  0  0  0
   -3.7018    1.9894    0.0000 C   0  0  3  0  0  0  0  0  0  0  0  0
    4.1588   -3.1739    0.0000 C   0  0  0  0  0  0  0  0  0  0  0  0
    4.1588   -3.1739    0.0000 C   0  0  0  0  0  0  0  0  0  0  0  0
    5.0996   -3.1543    0.0000 C   0  0  0  0  0  0  0  0  0  0  0  0
   -3.7018    1.1957    0.0000 C   0  0  0  0  0  0  0  0  0  0  0  0
    5.0996   -3.1543    0.0000 C   0  0  0  0  0  0  0  0  0  0  0  0
   -4.4007    2.3802    0.0000 C   0  0  0  0  0  0  0  0  0  0  0  0
   -4.4007    0.0112    0.0000 C   0  0  0  0  0  0  0  0  0  0  0  0
   -5.0759    1.2076    0.0000 C   0  0  0  0  0  0  0  0  0  0  0  0
   -5.0640    1.9894    0.0000 C   0  0  0  0  0  0  0  0  0  0  0  0
    5.0996   -3.1543    0.0000 C   0  0  0  0  0  0  0  0  0  0  0  0
    5.0996   -3.1543    0.0000 C   0  0  0  0  0  0  0  0  0  0  0  0
   -2.9200   -0.1428    0.0000 C   0  0  0  0  0  0  0  0  0  0  0  0
   -2.5647   -0.8061    0.0000 C   0  0  0  0  0  0  0  0  0  0  0  0
   -3.2517    0.5442    0.0000 C   0  0  0  0  0  0  0  0  0  0  0  0
   -2.1975    0.2126    0.0000 C   0  0  0  0  0  0  0  0  0  0  0  0
  1  2  1  0  0  0  0
  1  3  1  0  0  0  0
  1  5  2  0  0  0  0
  1  6  2  0  0  0  0
  2 16  1  0  0  0  0
  3 11  1  0  0  0  0
  4 17  2  0  0  0  0
  7 26  2  0  0  0  0
  8 14  1  0  0  0  0
 33  8  1  1  0  0  0
  9 40  1  0  0  0  0
  9 45  1  0  0  0  0
 10 40  2  0  0  0  0
 11 17  1  0  0  0  0
 11 19  1  0  0  0  0
 12 17  1  0  0  0  0
 12 20  1  0  0  0  0
 12 21  1  0  0  0  0
 13 18  1  0  0  0  0
 14 26  1  0  0  0  0
 15 37  1  0  0  0  0
 15 40  1  0  0  0  0
 15 41  1  0  0  0  0
 16 18  1  0  0  0  0
 16 24  1  0  0  0  0
 16 25  1  0  0  0  0
 18 27  1  0  0  0  0
 18 28  1  0  0  0  0
 19 21  1  0  0  0  0
 19 22  1  0  0  0  0
 20 23  1  0  0  0  0
 20 26  1  6  0  0  0
 22 23  1  0  0  0  0
 24 29  1  0  0  0  0
 25 30  1  0  0  0  0
 27 31  1  0  0  0  0
 28 32  1  0  0  0  0
 29 34  1  0  0  0  0
 30 36  1  0  0  0  0
 31 35  1  0  0  0  0
 32 38  1  0  0  0  0
 33 37  1  0  0  0  0
 33 39  1  0  0  0  0
 34 43  1  0  0  0  0
 35 44  1  0  0  0  0
 39 42  1  0  0  0  0
 41 42  1  0  0  0  0
 45 46  1  0  0  0  0
 45 47  1  0  0  0  0
 45 48  1  0  0  0  0
M  END
> <PUBCHEM_COMPOUND_ID_TYPE>
0

> <PUBCHEM_TOTAL_CHARGE>
0

> <PUBCHEM_SUBSTANCE_ID>
310947825

> <PUBCHEM_SUBSTANCE_VERSION>
1

> <PUBCHEM_EXT_DATASOURCE_NAME>
4488

> <PUBCHEM_EXT_DATASOURCE_REGID>
SCHEMBL16125997

> <PUBCHEM_SUBSTANCE_COMMENT>
InChI=1S/C33H61N5O9S/c1-8-12-20-32(34,18-10-3)33(19-11-4,21-13-9-2)46-48(42,43)47-38-25-16-17-27(37(23-25)29(38)40)28(39)35-45-26-15-14-22-36(24-26)30(41)44-31(5,6)7/h25-27H,8-24,34H2,1-7H3,(H,35,39)/t25?,26-,27+,32?,33?/m1/s1
InChIKey=WWKGCQMYMJYXNR-MYEKUOLASA-N

> <PUBCHEM_SUBSTANCE_SYNONYM>
SCHEMBL16125997

> <PUBCHEM_XREF_EXT_ID>
SCHEMBL16125997

> <PUBCHEM_EXT_DATASOURCE_URL>
https://www.surechembl.org/

> <PUBCHEM_EXT_SUBSTANCE_URL>
https://www.surechembl.org/chemical/SCHEMBL16125997

> <PUBCHEM_CID_ASSOCIATIONS>
117613492  1

> <PUBCHEM_COORDINATE_TYPE>
1
3

> <PUBCHEM_BONDANNOTATIONS>
20  26  6
33  8  5

$$$$
