310944811
  -OEChem-07211613022D

 60 64  0     0  0  0  0  0  0999 V2000
    5.3291    3.2217    0.0000 S   0  0  0  0  0  0  0  0  0  0  0  0
   -5.3937    2.9794    0.0000 S   0  0  0  0  0  0  0  0  0  0  0  0
    3.3105   -3.2540    0.0000 S   0  0  0  0  0  0  0  0  0  0  0  0
    2.8260    3.2540    0.0000 S   0  0  0  0  0  0  0  0  0  0  0  0
    5.3291    3.2217    0.0000 O   0  0  0  0  0  0  0  0  0  0  0  0
    5.3291    3.2217    0.0000 O   0  0  0  0  0  0  0  0  0  0  0  0
    5.3291    3.2217    0.0000 O   0  0  0  0  0  0  0  0  0  0  0  0
    0.0323    1.4453    0.0000 O   0  0  0  0  0  0  0  0  0  0  0  0
   -5.3937    2.9794    0.0000 O   0  0  0  0  0  0  0  0  0  0  0  0
   -5.3937    2.9794    0.0000 O   0  0  0  0  0  0  0  0  0  0  0  0
   -5.3937    2.9794    0.0000 O   0  0  0  0  0  0  0  0  0  0  0  0
    3.3105   -3.2540    0.0000 O   0  0  0  0  0  0  0  0  0  0  0  0
    3.3105   -3.2540    0.0000 O   0  0  0  0  0  0  0  0  0  0  0  0
    3.3105   -3.2540    0.0000 O   0  0  0  0  0  0  0  0  0  0  0  0
    2.8260    3.2540    0.0000 O   0  0  0  0  0  0  0  0  0  0  0  0
    2.8260    3.2540    0.0000 O   0  0  0  0  0  0  0  0  0  0  0  0
    2.8260    3.2540    0.0000 O   0  0  0  0  0  0  0  0  0  0  0  0
    3.6819    0.3634    0.0000 N   0  0  0  0  0  0  0  0  0  0  0  0
    2.9391    1.4938    0.0000 C   0  0  0  0  0  0  0  0  0  0  0  0
    3.7465    1.7037    0.0000 C   0  0  0  0  0  0  0  0  0  0  0  0
    2.9068    0.6702    0.0000 C   0  0  0  0  0  0  0  0  0  0  0  0
    4.1987    1.0093    0.0000 C   0  0  0  0  0  0  0  0  0  0  0  0
    4.1341    2.4304    0.0000 C   0  0  0  0  0  0  0  0  0  0  0  0
    4.9415    2.4789    0.0000 C   0  0  0  0  0  0  0  0  0  0  0  0
    5.0223    1.0577    0.0000 C   0  0  0  0  0  0  0  0  0  0  0  0
    2.2286    0.2180    0.0000 C   0  0  0  0  0  0  0  0  0  0  0  0
    3.9080   -0.4279    0.0000 C   0  0  0  0  0  0  0  0  0  0  0  0
    2.1155    1.4453    0.0000 C   0  0  0  0  0  0  0  0  0  0  0  0
    2.8099    2.3173    0.0000 C   0  0  0  0  0  0  0  0  0  0  0  0
    5.3937    1.8167    0.0000 C   0  0  0  0  0  0  0  0  0  0  0  0
    1.4857    0.6217    0.0000 C   0  0  0  0  0  0  0  0  0  0  0  0
    0.7751    0.2180    0.0000 C   0  0  0  0  0  0  0  0  0  0  0  0
    3.3589   -1.0739    0.0000 C   0  0  0  0  0  0  0  0  0  0  0  0
    0.0484    0.6056    0.0000 C   0  0  0  0  0  0  0  0  0  0  0  0
   -2.9229    1.3969    0.0000 C   0  0  0  0  0  0  0  0  0  0  0  0
   -0.6621    0.2018    0.0000 C   0  0  0  0  0  0  0  0  0  0  0  0
   -3.7304    1.5584    0.0000 C   0  0  0  0  0  0  0  0  0  0  0  0
    0.7590   -0.6217    0.0000 C   0  0  0  0  0  0  0  0  0  0  0  0
   -2.8422    0.5572    0.0000 C   0  0  0  0  0  0  0  0  0  0  0  0
    3.6174   -1.8491    0.0000 C   0  0  0  0  0  0  0  0  0  0  0  0
   -4.1341    0.8316    0.0000 C   0  0  0  0  0  0  0  0  0  0  0  0
   -4.9738    2.2689    0.0000 C   0  0  0  0  0  0  0  0  0  0  0  0
   -4.1341    2.2528    0.0000 C   0  0  0  0  0  0  0  0  0  0  0  0
   -0.6460   -0.6379    0.0000 C   0  0  0  0  0  0  0  0  0  0  0  0
   -1.4049    0.6056    0.0000 C   0  0  0  0  0  0  0  0  0  0  0  0
    0.0646   -1.0254    0.0000 C   0  0  0  0  0  0  0  0  0  0  0  0
   -2.0670    0.1696    0.0000 C   0  0  0  0  0  0  0  0  0  0  0  0
    0.7429    1.8975    0.0000 C   0  0  0  0  0  0  0  0  0  0  0  0
   -4.9738    0.8478    0.0000 C   0  0  0  0  0  0  0  0  0  0  0  0
   -5.3775    1.5422    0.0000 C   0  0  0  0  0  0  0  0  0  0  0  0
   -2.8260    2.2204    0.0000 C   0  0  0  0  0  0  0  0  0  0  0  0
   -2.0670    1.3969    0.0000 C   0  0  0  0  0  0  0  0  0  0  0  0
    3.0844   -2.4304    0.0000 C   0  0  0  0  0  0  0  0  0  0  0  0
    1.5018    1.5261    0.0000 C   0  0  0  0  0  0  0  0  0  0  0  0
    0.7106    2.7211    0.0000 C   0  0  0  0  0  0  0  0  0  0  0  0
   -3.3105    0.4118    0.0000 C   0  0  0  0  0  0  0  0  0  0  0  0
    2.1478    2.8018    0.0000 C   0  0  0  0  0  0  0  0  0  0  0  0
   -3.8273    0.4603    0.0000 C   0  0  0  0  0  0  0  0  0  0  0  0
    2.1639    1.9621    0.0000 C   0  0  0  0  0  0  0  0  0  0  0  0
    1.3888    3.1571    0.0000 C   0  0  0  0  0  0  0  0  0  0  0  0
  1  5  2  0  0  0  0
  1  6  2  0  0  0  0
  1  7  1  0  0  0  0
  1 24  1  0  0  0  0
  2  9  2  0  0  0  0
  2 10  2  0  0  0  0
  2 11  1  0  0  0  0
  2 42  1  0  0  0  0
  3 12  2  0  0  0  0
  3 13  2  0  0  0  0
  3 14  1  0  0  0  0
  3 53  1  0  0  0  0
  4 15  2  0  0  0  0
  4 16  2  0  0  0  0
  4 17  1  0  0  0  0
  4 57  1  0  0  0  0
  8 34  1  0  0  0  0
  8 48  1  0  0  0  0
 18 21  1  0  0  0  0
 18 22  1  0  0  0  0
 18 27  1  0  0  0  0
 19 20  1  0  0  0  0
 19 21  1  0  0  0  0
 19 28  1  0  0  0  0
 19 29  1  0  0  0  0
 20 22  2  0  0  0  0
 20 23  1  0  0  0  0
 21 26  2  0  0  0  0
 22 25  1  0  0  0  0
 23 24  2  0  0  0  0
 24 30  1  0  0  0  0
 25 30  2  0  0  0  0
 26 31  1  0  0  0  0
 27 33  1  0  0  0  0
 31 32  2  0  0  0  0
 32 34  1  0  0  0  0
 32 38  1  0  0  0  0
 33 40  1  0  0  0  0
 34 36  2  0  0  0  0
 35 37  1  0  0  0  0
 35 39  1  0  0  0  0
 35 51  1  0  0  0  0
 35 52  1  0  0  0  0
 36 44  1  0  0  0  0
 36 45  1  0  0  0  0
 37 41  2  0  0  0  0
 37 43  1  0  0  0  0
 38 46  1  0  0  0  0
 39 47  1  0  0  0  0
 39 56  2  0  0  0  0
 40 53  1  0  0  0  0
 41 49  1  0  0  0  0
 41 58  1  0  0  0  0
 42 43  2  0  0  0  0
 42 50  1  0  0  0  0
 44 46  1  0  0  0  0
 45 47  2  0  0  0  0
 48 54  2  0  0  0  0
 48 55  1  0  0  0  0
 49 50  2  0  0  0  0
 54 59  1  0  0  0  0
 55 60  2  0  0  0  0
 57 59  2  0  0  0  0
 57 60  1  0  0  0  0
M  END
> <PUBCHEM_COMPOUND_ID_TYPE>
0

> <PUBCHEM_TOTAL_CHARGE>
0

> <PUBCHEM_SUBSTANCE_ID>
310944811

> <PUBCHEM_SUBSTANCE_VERSION>
1

> <PUBCHEM_EXT_DATASOURCE_NAME>
4488

> <PUBCHEM_EXT_DATASOURCE_REGID>
SCHEMBL16122890

> <PUBCHEM_SUBSTANCE_COMMENT>
InChI=1S/C42H49NO13S4/c1-28-12-18-34(59(50,51)52)26-36(28)41(3,4)29(2)13-14-30-10-9-11-31(40(30)56-32-16-19-33(20-17-32)58(47,48)49)15-23-39-42(5,6)37-27-35(60(53,54)55)21-22-38(37)43(39)24-7-8-25-57(44,45)46/h12-23,26-27H,2,7-11,24-25H2,1,3-6H3,(H,44,45,46)(H,47,48,49)(H,50,51,52)(H,53,54,55)/b14-13+,31-15+,39-23+
InChIKey=DNQIMQVIKCLBKJ-PTPXZDLNSA-N

> <PUBCHEM_SUBSTANCE_SYNONYM>
SCHEMBL16122890

> <PUBCHEM_XREF_EXT_ID>
SCHEMBL16122890

> <PUBCHEM_EXT_DATASOURCE_URL>
https://www.surechembl.org/

> <PUBCHEM_EXT_SUBSTANCE_URL>
https://www.surechembl.org/chemical/SCHEMBL16122890

> <PUBCHEM_CID_ASSOCIATIONS>
117611022  1

> <PUBCHEM_COORDINATE_TYPE>
1
3

$$$$
