310940446
  -OEChem-07211613022D

 22 22  0     0  0  0  0  0  0999 V2000
    3.0644   -0.4846    0.0000 O   0  0  0  0  0  0  0  0  0  0  0  0
   -1.4130    2.0563    0.0000 O   0  0  0  0  0  0  0  0  0  0  0  0
    2.5482   -1.3333    0.0000 O   0  0  0  0  0  0  0  0  0  0  0  0
   -2.7941   -1.1202    0.0000 N   0  0  0  0  0  0  0  0  0  0  0  0
   -3.5920   -0.8439    0.0000 N   0  0  0  0  0  0  0  0  0  0  0  0
   -2.5179    1.0895    0.0000 N   0  0  0  0  0  0  0  0  0  0  0  0
   -1.4437   -0.4143    0.0000 N   0  0  0  0  0  0  0  0  0  0  0  0
   -1.1368    0.6138    0.0000 N   0  0  0  0  0  0  0  0  0  0  0  0
    0.9655    1.3964    0.0000 N   0  0  0  0  0  0  0  0  0  0  0  0
   -2.3030   -0.4143    0.0000 C   0  0  0  0  0  0  0  0  0  0  0  0
   -2.8094    0.2762    0.0000 C   0  0  0  0  0  0  0  0  0  0  0  0
   -3.5767    0.0154    0.0000 C   0  0  0  0  0  0  0  0  0  0  0  0
   -1.7045    1.2276    0.0000 C   0  0  0  0  0  0  0  0  0  0  0  0
   -2.5485   -2.0563    0.0000 C   0  0  0  0  0  0  0  0  0  0  0  0
    3.0759    0.0889    0.0000 C   0  0  0  0  0  0  0  0  0  0  0  0
    2.5482   -0.7828    0.0000 C   0  0  0  0  0  0  0  0  0  0  0  0
   -0.2774    0.6445    0.0000 C   0  0  0  0  0  0  0  0  0  0  0  0
   -1.4437   -0.4143    0.0000 C   0  0  0  0  0  0  0  0  0  0  0  0
    0.1368    1.3964    0.0000 C   0  0  0  0  0  0  0  0  0  0  0  0
    3.5920    0.1118    0.0000 C   0  0  0  0  0  0  0  0  0  0  0  0
    2.5482    0.0889    0.0000 C   0  0  0  0  0  0  0  0  0  0  0  0
    3.0644    0.6509    0.0000 C   0  0  0  0  0  0  0  0  0  0  0  0
  1 15  1  0  0  0  0
  1 16  1  0  0  0  0
  2 13  2  0  0  0  0
  3 16  2  0  0  0  0
  4  5  1  0  0  0  0
  4 10  1  0  0  0  0
  4 14  1  0  0  0  0
  5 12  2  0  0  0  0
  6 11  1  0  0  0  0
  6 13  1  0  0  0  0
  7 10  1  0  0  0  0
  7 18  1  0  0  0  0
  8 13  1  0  0  0  0
  8 17  1  0  0  0  0
  9 16  1  0  0  0  0
  9 19  1  0  0  0  0
 10 11  2  0  0  0  0
 11 12  1  0  0  0  0
 15 20  1  0  0  0  0
 15 21  1  0  0  0  0
 15 22  1  0  0  0  0
 17 19  1  0  0  0  0
M  END
> <PUBCHEM_COMPOUND_ID_TYPE>
0

> <PUBCHEM_TOTAL_CHARGE>
0

> <PUBCHEM_SUBSTANCE_ID>
310940446

> <PUBCHEM_SUBSTANCE_VERSION>
1

> <PUBCHEM_EXT_DATASOURCE_NAME>
4488

> <PUBCHEM_EXT_DATASOURCE_REGID>
SCHEMBL16118399

> <PUBCHEM_SUBSTANCE_COMMENT>
InChI=1S/C13H24N6O3/c1-13(2,3)22-12(21)16-7-6-15-11(20)18-9-8-17-19(5)10(9)14-4/h8,14H,6-7H2,1-5H3,(H,16,21)(H2,15,18,20)
InChIKey=VLSPUJUJAPVHIX-UHFFFAOYSA-N

> <PUBCHEM_SUBSTANCE_SYNONYM>
SCHEMBL16118399

> <PUBCHEM_XREF_EXT_ID>
SCHEMBL16118399

> <PUBCHEM_EXT_DATASOURCE_URL>
https://www.surechembl.org/

> <PUBCHEM_EXT_SUBSTANCE_URL>
https://www.surechembl.org/chemical/SCHEMBL16118399

> <PUBCHEM_CID_ASSOCIATIONS>
117607466  1

> <PUBCHEM_COORDINATE_TYPE>
1
3

$$$$
