310948130
  -OEChem-07211613022D

 58 63  0     0  0  0  0  0  0999 V2000
    1.4383   -2.4906    0.0000 S   0  0  0  0  0  0  0  0  0  0  0  0
   -0.0063    0.0000    0.0000 O   0  0  0  0  0  0  0  0  0  0  0  0
    1.4383   -2.4906    0.0000 O   0  0  0  0  0  0  0  0  0  0  0  0
    1.4383   -2.4906    0.0000 O   0  0  0  0  0  0  0  0  0  0  0  0
    1.4383   -2.4906    0.0000 O   0  0  0  0  0  0  0  0  0  0  0  0
    5.7469    2.4906    0.0000 O   0  0  0  0  0  0  0  0  0  0  0  0
   -5.7593    2.4906    0.0000 O   0  0  0  0  0  0  0  0  0  0  0  0
    3.0197    0.0000    0.0000 N   0  0  0  0  0  0  0  0  0  0  0  0
   -2.7334    0.0000    0.0000 N   0  0  0  0  0  0  0  0  0  0  0  0
    4.3273    2.4906    0.0000 N   0  0  0  0  0  0  0  0  0  0  0  0
   -4.1653    2.4906    0.0000 N   0  0  0  0  0  0  0  0  0  0  0  0
    0.0187   -1.6562    0.0000 C   0  0  0  0  0  0  0  0  0  0  0  0
    0.7160   -1.2453    0.0000 C   0  0  0  0  0  0  0  0  0  0  0  0
   -0.7160   -1.2453    0.0000 C   0  0  0  0  0  0  0  0  0  0  0  0
    0.0063   -2.4906    0.0000 C   0  0  0  0  0  0  0  0  0  0  0  0
    0.7284   -0.4234    0.0000 C   0  0  0  0  0  0  0  0  0  0  0  0
   -0.7036   -0.4110    0.0000 C   0  0  0  0  0  0  0  0  0  0  0  0
    0.7284   -2.9014    0.0000 C   0  0  0  0  0  0  0  0  0  0  0  0
    1.4632   -1.6562    0.0000 C   0  0  0  0  0  0  0  0  0  0  0  0
   -1.4134   -1.6562    0.0000 C   0  0  0  0  0  0  0  0  0  0  0  0
    1.4507   -0.0124    0.0000 C   0  0  0  0  0  0  0  0  0  0  0  0
   -1.4259   -0.0124    0.0000 C   0  0  0  0  0  0  0  0  0  0  0  0
    2.1730   -0.4110    0.0000 C   0  0  0  0  0  0  0  0  0  0  0  0
   -2.1480   -0.4234    0.0000 C   0  0  0  0  0  0  0  0  0  0  0  0
   -0.7036   -2.9139    0.0000 C   0  0  0  0  0  0  0  0  0  0  0  0
    2.1606   -1.2453    0.0000 C   0  0  0  0  0  0  0  0  0  0  0  0
   -2.1356   -1.2453    0.0000 C   0  0  0  0  0  0  0  0  0  0  0  0
    3.6050    0.4234    0.0000 C   0  0  0  0  0  0  0  0  0  0  0  0
   -3.5926    0.4234    0.0000 C   0  0  0  0  0  0  0  0  0  0  0  0
    0.7284   -3.7358    0.0000 C   0  0  0  0  0  0  0  0  0  0  0  0
    3.6050    1.2453    0.0000 C   0  0  0  0  0  0  0  0  0  0  0  0
   -3.5802    1.2453    0.0000 C   0  0  0  0  0  0  0  0  0  0  0  0
    4.3273    0.0124    0.0000 C   0  0  0  0  0  0  0  0  0  0  0  0
   -4.3023    0.0124    0.0000 C   0  0  0  0  0  0  0  0  0  0  0  0
    4.3148    1.6562    0.0000 C   0  0  0  0  0  0  0  0  0  0  0  0
   -4.3148    1.6562    0.0000 C   0  0  0  0  0  0  0  0  0  0  0  0
    5.0371    0.4234    0.0000 C   0  0  0  0  0  0  0  0  0  0  0  0
   -5.0247    0.4110    0.0000 C   0  0  0  0  0  0  0  0  0  0  0  0
    5.0371    1.2453    0.0000 C   0  0  0  0  0  0  0  0  0  0  0  0
   -5.0247    1.2453    0.0000 C   0  0  0  0  0  0  0  0  0  0  0  0
   -0.7036   -3.7358    0.0000 C   0  0  0  0  0  0  0  0  0  0  0  0
    0.0063   -4.1467    0.0000 C   0  0  0  0  0  0  0  0  0  0  0  0
    2.8827    1.6562    0.0000 C   0  0  0  0  0  0  0  0  0  0  0  0
   -2.8703    1.6562    0.0000 C   0  0  0  0  0  0  0  0  0  0  0  0
    4.3273   -0.8343    0.0000 C   0  0  0  0  0  0  0  0  0  0  0  0
   -4.3023   -0.8343    0.0000 C   0  0  0  0  0  0  0  0  0  0  0  0
    5.7593    0.0000    0.0000 C   0  0  0  0  0  0  0  0  0  0  0  0
   -5.7344    0.0000    0.0000 C   0  0  0  0  0  0  0  0  0  0  0  0
    5.7593    1.6562    0.0000 C   0  0  0  0  0  0  0  0  0  0  0  0
   -5.7344    1.6562    0.0000 C   0  0  0  0  0  0  0  0  0  0  0  0
    5.0247    2.9139    0.0000 C   0  0  0  0  0  0  0  0  0  0  0  0
   -5.0122    2.9139    0.0000 C   0  0  0  0  0  0  0  0  0  0  0  0
    5.0247    3.7233    0.0000 C   0  0  0  0  0  0  0  0  0  0  0  0
   -5.0371    3.7233    0.0000 C   0  0  0  0  0  0  0  0  0  0  0  0
    5.7593    4.1467    0.0000 C   0  0  0  0  0  0  0  0  0  0  0  0
    4.3273    4.1467    0.0000 C   0  0  0  0  0  0  0  0  0  0  0  0
   -4.3023    4.1467    0.0000 C   0  0  0  0  0  0  0  0  0  0  0  0
   -5.7344    4.1467    0.0000 C   0  0  0  0  0  0  0  0  0  0  0  0
  1  3  2  0  0  0  0
  1  4  2  0  0  0  0
  1  5  1  0  0  0  0
  1 18  1  0  0  0  0
  2 16  1  0  0  0  0
  2 17  1  0  0  0  0
  6 51  2  0  0  0  0
  7 52  2  0  0  0  0
  8 23  2  0  0  0  0
  8 28  1  0  0  0  0
  9 24  1  0  0  0  0
  9 29  1  0  0  0  0
 10 35  1  0  0  0  0
 10 51  1  0  0  0  0
 11 36  1  0  0  0  0
 11 52  1  0  0  0  0
 12 13  2  0  0  0  0
 12 14  1  0  0  0  0
 12 15  1  0  0  0  0
 13 16  1  0  0  0  0
 13 19  1  0  0  0  0
 14 17  2  0  0  0  0
 14 20  1  0  0  0  0
 15 18  1  0  0  0  0
 15 25  2  0  0  0  0
 16 21  2  0  0  0  0
 17 22  1  0  0  0  0
 18 30  2  0  0  0  0
 19 26  2  0  0  0  0
 20 27  2  0  0  0  0
 21 23  1  0  0  0  0
 22 24  2  0  0  0  0
 23 26  1  0  0  0  0
 24 27  1  0  0  0  0
 25 41  1  0  0  0  0
 28 31  1  0  0  0  0
 28 33  2  0  0  0  0
 29 32  2  0  0  0  0
 29 34  1  0  0  0  0
 30 42  1  0  0  0  0
 31 35  2  0  0  0  0
 31 43  1  0  0  0  0
 32 36  1  0  0  0  0
 32 44  1  0  0  0  0
 33 37  1  0  0  0  0
 33 45  1  0  0  0  0
 34 38  2  0  0  0  0
 34 46  1  0  0  0  0
 35 39  1  0  0  0  0
 36 40  2  0  0  0  0
 37 39  2  0  0  0  0
 37 47  1  0  0  0  0
 38 40  1  0  0  0  0
 38 48  1  0  0  0  0
 39 49  1  0  0  0  0
 40 50  1  0  0  0  0
 41 42  2  0  0  0  0
 51 53  1  0  0  0  0
 52 54  1  0  0  0  0
 53 55  1  0  0  0  0
 53 56  1  0  0  0  0
 54 57  1  0  0  0  0
 54 58  1  0  0  0  0
M  END
> <PUBCHEM_COMPOUND_ID_TYPE>
0

> <PUBCHEM_TOTAL_CHARGE>
0

> <PUBCHEM_SUBSTANCE_ID>
310948130

> <PUBCHEM_SUBSTANCE_VERSION>
1

> <PUBCHEM_EXT_DATASOURCE_NAME>
4488

> <PUBCHEM_EXT_DATASOURCE_REGID>
SCHEMBL16126306

> <PUBCHEM_SUBSTANCE_COMMENT>
InChI=1S/C47H52N4O6S/c1-23(2)46(52)50-44-29(9)25(5)27(7)42(31(44)11)48-33-17-19-35-38(21-33)57-39-22-34(18-20-36(39)41(35)37-15-13-14-16-40(37)58(54,55)56)49-43-28(8)26(6)30(10)45(32(43)12)51-47(53)24(3)4/h13-24,48H,1-12H3,(H,50,52)(H,51,53)(H,54,55,56)/b49-34-
InChIKey=MTJQWHKSLFHLJJ-UGZLRZPTSA-N

> <PUBCHEM_SUBSTANCE_SYNONYM>
SCHEMBL16126306

> <PUBCHEM_XREF_EXT_ID>
SCHEMBL16126306

> <PUBCHEM_EXT_DATASOURCE_URL>
https://www.surechembl.org/

> <PUBCHEM_EXT_SUBSTANCE_URL>
https://www.surechembl.org/chemical/SCHEMBL16126306

> <PUBCHEM_CID_ASSOCIATIONS>
117613746  1

> <PUBCHEM_COORDINATE_TYPE>
1
3

$$$$
