310929659
  -OEChem-07211613022D

 71 80  0     1  0  0  0  0  0999 V2000
    1.0317   -5.3295    0.0000 S   0  0  0  0  0  0  0  0  0  0  0  0
    1.1468   -3.6835    0.0000 O   0  0  0  0  0  0  0  0  0  0  0  0
   -1.2485   -2.2489    0.0000 O   0  0  0  0  0  0  0  0  0  0  0  0
    0.0000    0.8250    0.0000 O   0  0  0  0  0  0  0  0  0  0  0  0
    4.2868   -1.6500    0.0000 O   0  0  0  0  0  0  0  0  0  0  0  0
    0.5703   -6.0134    0.0000 O   0  0  0  0  0  0  0  0  0  0  0  0
    1.4930   -4.6455    0.0000 O   0  0  0  0  0  0  0  0  0  0  0  0
    0.9440   -2.3174    0.0000 O   0  0  0  0  0  0  0  0  0  0  0  0
    3.5724   -0.4125    0.0000 O   0  0  0  0  0  0  0  0  0  0  0  0
    2.8579   -0.0000    0.0000 O   0  0  0  0  0  0  0  0  0  0  0  0
    0.0569   -2.8301    0.0000 N   0  0  0  0  0  0  0  0  0  0  0  0
    0.7145   -1.2375    0.0000 N   0  0  0  0  0  0  0  0  0  0  0  0
    0.3477   -4.8681    0.0000 N   0  0  0  0  0  0  0  0  0  0  0  0
    2.8579   -1.6500    0.0000 N   0  0  0  0  0  0  0  0  0  0  0  0
    2.8579    0.8250    0.0000 N   0  0  3  0  0  0  0  0  0  0  0  0
    0.5162   -1.8684    0.0000 N   0  0  0  0  0  0  0  0  0  0  0  0
   -0.2787   -3.5838    0.0000 C   0  0  3  0  0  0  0  0  0  0  0  0
   -1.0792   -3.3842    0.0000 C   0  0  3  0  0  0  0  0  0  0  0  0
   -0.8518   -4.1773    0.0000 C   0  0  0  0  0  0  0  0  0  0  0  0
    0.4053   -4.0452    0.0000 C   0  0  0  0  0  0  0  0  0  0  0  0
   -0.0925   -1.4090    0.0000 C   0  0  3  0  0  0  0  0  0  0  0  0
   -0.4281   -2.1627    0.0000 C   0  0  0  0  0  0  0  0  0  0  0  0
   -1.6726   -2.8111    0.0000 C   0  0  0  0  0  0  0  0  0  0  0  0
    0.0000    0.0000    0.0000 C   0  0  3  0  0  0  0  0  0  0  0  0
   -0.5050   -0.6946    0.0000 C   0  0  0  0  0  0  0  0  0  0  0  0
    1.7156   -5.7908    0.0000 C   0  0  0  0  0  0  0  0  0  0  0  0
    1.4289   -1.6500    0.0000 C   0  0  0  0  0  0  0  0  0  0  0  0
    0.7145   -0.4125    0.0000 C   0  0  0  0  0  0  0  0  0  0  0  0
    5.0013   -1.2375    0.0000 C   0  0  3  0  0  0  0  0  0  0  0  0
    5.0013   -0.4125    0.0000 C   0  0  3  0  0  0  0  0  0  0  0  0
    2.1434   -1.2375    0.0000 C   0  0  3  0  0  0  0  0  0  0  0  0
    5.7158   -0.8250    0.0000 C   0  0  0  0  0  0  0  0  0  0  0  0
    1.3801   -6.5445    0.0000 C   0  0  0  0  0  0  0  0  0  0  0  0
    2.2005   -6.4582    0.0000 C   0  0  0  0  0  0  0  0  0  0  0  0
   -2.4657   -3.0385    0.0000 C   0  0  0  0  0  0  0  0  0  0  0  0
    2.1434   -2.0625    0.0000 C   0  0  0  0  0  0  0  0  0  0  0  0
    3.5724   -1.2375    0.0000 C   0  0  0  0  0  0  0  0  0  0  0  0
    0.7145    1.2375    0.0000 C   0  0  0  0  0  0  0  0  0  0  0  0
    4.2868    0.0000    0.0000 C   0  0  0  0  0  0  0  0  0  0  0  0
    2.2887   -5.1974    0.0000 C   0  0  0  0  0  0  0  0  0  0  0  0
    1.4289    0.8250    0.0000 C   0  0  0  0  0  0  0  0  0  0  0  0
    2.1434    1.2375    0.0000 C   0  0  0  0  0  0  0  0  0  0  0  0
    1.4289   -2.4750    0.0000 C   0  0  0  0  0  0  0  0  0  0  0  0
    2.8579   -2.4750    0.0000 C   0  0  0  0  0  0  0  0  0  0  0  0
    0.7145    2.0625    0.0000 C   0  0  0  0  0  0  0  0  0  0  0  0
    4.2868    0.8250    0.0000 C   0  0  0  0  0  0  0  0  0  0  0  0
    2.1434    2.0625    0.0000 C   0  0  0  0  0  0  0  0  0  0  0  0
    1.8959    1.4850    0.0000 C   0  0  0  0  0  0  0  0  0  0  0  0
    1.4289    2.4750    0.0000 C   0  0  0  0  0  0  0  0  0  0  0  0
    1.4289   -3.3000    0.0000 C   0  0  0  0  0  0  0  0  0  0  0  0
    2.8579   -3.3000    0.0000 C   0  0  0  0  0  0  0  0  0  0  0  0
    3.3249    1.4850    0.0000 C   0  0  0  0  0  0  0  0  0  0  0  0
    2.6104    1.0725    0.0000 C   0  0  0  0  0  0  0  0  0  0  0  0
    2.8579    2.4750    0.0000 C   0  0  0  0  0  0  0  0  0  0  0  0
    2.1434   -3.7125    0.0000 C   0  0  0  0  0  0  0  0  0  0  0  0
    3.5724    1.2375    0.0000 C   0  0  0  0  0  0  0  0  0  0  0  0
    3.5724    2.0625    0.0000 C   0  0  0  0  0  0  0  0  0  0  0  0
    2.1434   -0.4125    0.0000 C   0  0  0  0  0  0  0  0  0  0  0  0
    1.3301   -0.5508    0.0000 C   0  0  0  0  0  0  0  0  0  0  0  0
    1.6012   -1.0204    0.0000 C   0  0  0  0  0  0  0  0  0  0  0  0
    1.0921   -1.4488    0.0000 C   0  0  3  0  0  0  0  0  0  0  0  0
    1.3366   -1.9554    0.0000 C   0  0  3  0  0  0  0  0  0  0  0  0
    1.6867   -1.9501    0.0000 C   0  0  0  0  0  0  0  0  0  0  0  0
    1.8805   -2.6496    0.0000 C   0  0  0  0  0  0  0  0  0  0  0  0
   -0.1981   -1.9996    0.0000 C   0  0  0  0  0  0  0  0  0  0  0  0
   -0.6792   -2.6627    0.0000 H   0  0  0  0  0  0  0  0  0  0  0  0
   -0.9164   -1.4522    0.0000 H   0  0  0  0  0  0  0  0  0  0  0  0
   -0.7846    0.2551    0.0000 H   0  0  0  0  0  0  0  0  0  0  0  0
    5.4138   -1.9520    0.0000 H   0  0  0  0  0  0  0  0  0  0  0  0
    5.4138    0.3020    0.0000 H   0  0  0  0  0  0  0  0  0  0  0  0
    1.7309   -1.9520    0.0000 H   0  0  0  0  0  0  0  0  0  0  0  0
  1  6  2  0  0  0  0
  1  7  2  0  0  0  0
  1 13  1  0  0  0  0
  1 26  1  0  0  0  0
  2 20  2  0  0  0  0
  3 22  2  0  0  0  0
  4 24  1  0  0  0  0
  4 38  1  0  0  0  0
  5 29  1  0  0  0  0
  5 37  1  0  0  0  0
  8 27  2  0  0  0  0
  9 37  2  0  0  0  0
 10 15  1  0  0  0  0
 10 58  1  0  0  0  0
 17 11  1  6  0  0  0
 11 22  1  0  0  0  0
 12 21  1  0  0  0  0
 12 27  1  0  0  0  0
 12 28  1  0  0  0  0
 13 20  1  0  0  0  0
 14 31  1  0  0  0  0
 14 37  1  0  0  0  0
 15 42  1  0  0  0  0
 15 56  1  0  0  0  0
 16 61  1  0  0  0  0
 16 62  1  0  0  0  0
 16 65  1  0  0  0  0
 17 18  1  0  0  0  0
 17 19  1  0  0  0  0
 17 20  1  1  0  0  0
 18 19  1  0  0  0  0
 18 23  1  0  0  0  0
 18 66  1  6  0  0  0
 21 22  1  0  0  0  0
 21 25  1  0  0  0  0
 21 67  1  1  0  0  0
 23 35  2  0  0  0  0
 24 25  1  0  0  0  0
 24 28  1  0  0  0  0
 24 68  1  6  0  0  0
 26 33  1  0  0  0  0
 26 34  1  0  0  0  0
 26 40  1  0  0  0  0
 27 31  1  0  0  0  0
 29 30  1  0  0  0  0
 29 32  1  0  0  0  0
 29 69  1  6  0  0  0
 30 32  1  0  0  0  0
 30 39  1  0  0  0  0
 30 70  1  1  0  0  0
 31 36  1  0  0  0  0
 31 71  1  6  0  0  0
 33 34  1  0  0  0  0
 36 43  1  0  0  0  0
 36 44  1  0  0  0  0
 38 41  2  0  0  0  0
 38 45  1  0  0  0  0
 39 46  1  0  0  0  0
 41 42  1  0  0  0  0
 41 48  1  0  0  0  0
 42 47  2  0  0  0  0
 43 50  1  0  0  0  0
 44 51  1  0  0  0  0
 45 49  2  0  0  0  0
 46 52  1  0  0  0  0
 47 49  1  0  0  0  0
 47 54  1  0  0  0  0
 48 53  1  0  0  0  0
 50 55  1  0  0  0  0
 51 55  1  0  0  0  0
 52 53  1  0  0  0  0
 54 57  2  0  0  0  0
 56 57  1  0  0  0  0
 58 59  1  0  0  0  0
 58 60  1  0  0  0  0
 59 61  1  0  0  0  0
 60 62  1  0  0  0  0
 61 63  1  0  0  0  0
 62 64  1  0  0  0  0
 63 64  1  0  0  0  0
M  END
> <PUBCHEM_COMPOUND_ID_TYPE>
0

> <PUBCHEM_TOTAL_CHARGE>
0

> <PUBCHEM_SUBSTANCE_ID>
310929659

> <PUBCHEM_SUBSTANCE_VERSION>
1

> <PUBCHEM_EXT_DATASOURCE_NAME>
4488

> <PUBCHEM_EXT_DATASOURCE_REGID>
SCHEMBL16106850

> <PUBCHEM_SUBSTANCE_COMMENT>
InChI=1S/C49H68N6O9S/c1-4-33-28-49(33,46(58)52-65(60,61)48(2)21-22-48)51-44(56)39-27-37-29-54(39)45(57)42(30-12-7-5-8-13-30)50-47(59)63-41-24-32(41)14-9-6-10-16-38-40(62-37)20-17-31-15-11-23-55(43(31)38)64-36-25-34-18-19-35(26-36)53(34)3/h4,11,15,17,20,30,32-37,39,41-42H,1,5-10,12-14,16,18-19,21-29H2,2-3H3,(H,50,59)(H,51,56)(H,52,58)/t32-,33-,34?,35?,36?,37-,39+,41-,42+,49-/m1/s1
InChIKey=JUUKMCRDZYRZCF-VRQHFCOASA-N

> <PUBCHEM_SUBSTANCE_SYNONYM>
SCHEMBL16106850

> <PUBCHEM_XREF_EXT_ID>
SCHEMBL16106850

> <PUBCHEM_EXT_DATASOURCE_URL>
https://www.surechembl.org/

> <PUBCHEM_EXT_SUBSTANCE_URL>
https://www.surechembl.org/chemical/SCHEMBL16106850

> <PUBCHEM_CID_ASSOCIATIONS>
117598958  1

> <PUBCHEM_COORDINATE_TYPE>
1
3

> <PUBCHEM_BONDANNOTATIONS>
17  11  6
17  20  5
18  66  6
21  67  5
24  68  6
29  69  6
30  70  5
31  71  6

$$$$
