310949778
  -OEChem-07211613022D

 14 15  0     1  0  0  0  0  0999 V2000
   -2.2131   -1.3353    0.0000 O   0  0  0  0  0  0  0  0  0  0  0  0
   -2.2131   -1.3353    0.0000 N   0  0  0  0  0  0  0  0  0  0  0  0
   -0.0865   -0.0989    0.0000 C   0  0  3  0  0  0  0  0  0  0  0  0
   -0.0865   -0.9025    0.0000 C   0  0  0  0  0  0  0  0  0  0  0  0
    0.6305    0.3215    0.0000 C   0  0  3  0  0  0  0  0  0  0  0  0
   -0.7913   -1.3229    0.0000 C   0  0  0  0  0  0  0  0  0  0  0  0
   -1.5083   -0.9149    0.0000 C   0  0  3  0  0  0  0  0  0  0  0  0
    1.3477   -0.0865    0.0000 C   0  0  3  0  0  0  0  0  0  0  0  0
   -0.7913    0.3091    0.0000 C   0  0  0  0  0  0  0  0  0  0  0  0
    0.6429   -1.3229    0.0000 C   0  0  0  0  0  0  0  0  0  0  0  0
   -1.4960   -0.0989    0.0000 C   0  0  0  0  0  0  0  0  0  0  0  0
    1.3477   -0.9149    0.0000 C   0  0  0  0  0  0  0  0  0  0  0  0
    0.6429    1.3353    0.0000 C   0  0  0  0  0  0  0  0  0  0  0  0
    2.2131    0.3091    0.0000 C   0  0  0  0  0  0  0  0  0  0  0  0
  1  2  1  0  0  0  0
  2  7  1  0  0  0  0
  3  4  1  0  0  0  0
  3  5  1  0  0  0  0
  3  9  1  0  0  0  0
  4  6  2  0  0  0  0
  4 10  1  0  0  0  0
  5  8  1  0  0  0  0
  5 13  1  0  0  0  0
  6  7  1  0  0  0  0
  7 11  1  0  0  0  0
  8 12  1  0  0  0  0
  8 14  1  0  0  0  0
  9 11  2  0  0  0  0
 10 12  1  0  0  0  0
M  END
> <PUBCHEM_COMPOUND_ID_TYPE>
0

> <PUBCHEM_TOTAL_CHARGE>
0

> <PUBCHEM_SUBSTANCE_ID>
310949778

> <PUBCHEM_SUBSTANCE_VERSION>
1

> <PUBCHEM_EXT_DATASOURCE_NAME>
4488

> <PUBCHEM_EXT_DATASOURCE_REGID>
SCHEMBL16127976

> <PUBCHEM_SUBSTANCE_COMMENT>
InChI=1S/C12H19NO/c1-8-3-4-10-7-11(13-14)5-6-12(10)9(8)2/h5-9,11-14H,3-4H2,1-2H3
InChIKey=HRJQRYUWUAMGHQ-UHFFFAOYSA-N

> <PUBCHEM_SUBSTANCE_SYNONYM>
SCHEMBL16127976

> <PUBCHEM_XREF_EXT_ID>
SCHEMBL16127976

> <PUBCHEM_EXT_DATASOURCE_URL>
https://www.surechembl.org/

> <PUBCHEM_EXT_SUBSTANCE_URL>
https://www.surechembl.org/chemical/SCHEMBL16127976

> <PUBCHEM_CID_ASSOCIATIONS>
117615102  1

> <PUBCHEM_COORDINATE_TYPE>
1
3

$$$$
