310949469
  -OEChem-07211613022D

 13 13  0     0  0  0  0  0  0999 V2000
   -2.7937   -1.2026    0.0000 I   0  0  0  0  0  0  0  0  0  0  0  0
    1.0804    0.9120    0.0000 S   0  0  0  0  0  0  0  0  0  0  0  0
    1.0804    0.9120    0.0000 O   0  0  0  0  0  0  0  0  0  0  0  0
    1.0804    0.9120    0.0000 O   0  0  0  0  0  0  0  0  0  0  0  0
   -2.1157   -1.0089    0.0000 O   0  0  0  0  0  0  0  0  0  0  0  0
    0.5639    0.7667    0.0000 N   0  0  0  0  0  0  0  0  0  0  0  0
   -0.1625    1.2026    0.0000 C   0  0  0  0  0  0  0  0  0  0  0  0
    0.5639   -0.0404    0.0000 C   0  0  0  0  0  0  0  0  0  0  0  0
   -0.9212   -0.0404    0.0000 C   0  0  0  0  0  0  0  0  0  0  0  0
   -0.8727    0.7991    0.0000 C   0  0  0  0  0  0  0  0  0  0  0  0
   -0.1464   -0.4600    0.0000 C   0  0  0  0  0  0  0  0  0  0  0  0
    2.7937   -0.8548    0.0000 C   0  0  0  0  0  0  0  0  0  0  0  0
   -1.6960   -0.2663    0.0000 C   0  0  0  0  0  0  0  0  0  0  0  0
  1  5  1  0  0  0  0
  2  3  2  0  0  0  0
  2  4  2  0  0  0  0
  2  6  1  0  0  0  0
  2 12  1  0  0  0  0
  5 13  1  0  0  0  0
  6  7  1  0  0  0  0
  6  8  1  0  0  0  0
  7 10  1  0  0  0  0
  8 11  1  0  0  0  0
  9 10  1  0  0  0  0
  9 11  1  0  0  0  0
  9 13  1  0  0  0  0
M  END
> <PUBCHEM_COMPOUND_ID_TYPE>
0

> <PUBCHEM_TOTAL_CHARGE>
0

> <PUBCHEM_SUBSTANCE_ID>
310949469

> <PUBCHEM_SUBSTANCE_VERSION>
1

> <PUBCHEM_EXT_DATASOURCE_NAME>
4488

> <PUBCHEM_EXT_DATASOURCE_REGID>
SCHEMBL16127663

> <PUBCHEM_SUBSTANCE_COMMENT>
InChI=1S/C7H14INO3S/c1-13(10,11)9-4-2-7(3-5-9)6-12-8/h7H,2-6H2,1H3
InChIKey=ZIYZFBRBVARENE-UHFFFAOYSA-N

> <PUBCHEM_SUBSTANCE_SYNONYM>
SCHEMBL16127663

> <PUBCHEM_XREF_EXT_ID>
SCHEMBL16127663

> <PUBCHEM_EXT_DATASOURCE_URL>
https://www.surechembl.org/

> <PUBCHEM_EXT_SUBSTANCE_URL>
https://www.surechembl.org/chemical/SCHEMBL16127663

> <PUBCHEM_CID_ASSOCIATIONS>
117614912  1

> <PUBCHEM_COORDINATE_TYPE>
1
3

$$$$
