310948086
  -OEChem-07211613022D

 45 49  0     0  0  0  0  0  0999 V2000
    2.9900   -1.6140    0.0000 S   0  0  0  0  0  0  0  0  0  0  0  0
    3.1623    1.1414    0.0000 F   0  0  0  0  0  0  0  0  0  0  0  0
    3.4110    3.3992    0.0000 F   0  0  0  0  0  0  0  0  0  0  0  0
    2.2629    3.0740    0.0000 F   0  0  0  0  0  0  0  0  0  0  0  0
    3.6789    2.2511    0.0000 F   0  0  0  0  0  0  0  0  0  0  0  0
   -2.0232    1.4284    0.0000 O   0  0  0  0  0  0  0  0  0  0  0  0
    2.9900   -1.6140    0.0000 O   0  0  0  0  0  0  0  0  0  0  0  0
    2.9900   -1.6140    0.0000 O   0  0  0  0  0  0  0  0  0  0  0  0
   -4.7212    1.1223    0.0000 O   0  0  0  0  0  0  0  0  0  0  0  0
    2.5691    1.9641    0.0000 O   0  0  0  0  0  0  0  0  0  0  0  0
    4.2338    0.5291    0.0000 O   0  0  0  0  0  0  0  0  0  0  0  0
   -2.0424   -0.1789    0.0000 N   0  0  0  0  0  0  0  0  0  0  0  0
   -1.3344    2.5956    0.0000 N   0  0  0  0  0  0  0  0  0  0  0  0
   -2.5207    0.4908    0.0000 N   0  0  0  0  0  0  0  0  0  0  0  0
   -0.7795    0.5482    0.0000 C   0  0  0  0  0  0  0  0  0  0  0  0
   -1.2004    1.2562    0.0000 C   0  0  0  0  0  0  0  0  0  0  0  0
   -1.2004   -0.1789    0.0000 C   0  0  0  0  0  0  0  0  0  0  0  0
   -0.7795    1.9833    0.0000 C   0  0  0  0  0  0  0  0  0  0  0  0
    0.4834   -0.1598    0.0000 C   0  0  0  0  0  0  0  0  0  0  0  0
    0.0625    0.5291    0.0000 C   0  0  0  0  0  0  0  0  0  0  0  0
    1.3062   -0.1789    0.0000 C   0  0  0  0  0  0  0  0  0  0  0  0
    2.5691   -0.8869    0.0000 C   0  0  0  0  0  0  0  0  0  0  0  0
   -0.7795   -0.8869    0.0000 C   0  0  0  0  0  0  0  0  0  0  0  0
    0.0625    1.9833    0.0000 C   0  0  0  0  0  0  0  0  0  0  0  0
    0.0625   -0.8869    0.0000 C   0  0  0  0  0  0  0  0  0  0  0  0
   -2.0998    2.2511    0.0000 C   0  0  0  0  0  0  0  0  0  0  0  0
    2.9709   -0.1789    0.0000 C   0  0  0  0  0  0  0  0  0  0  0  0
    1.7271   -0.8678    0.0000 C   0  0  0  0  0  0  0  0  0  0  0  0
    2.5500    0.5291    0.0000 C   0  0  0  0  0  0  0  0  0  0  0  0
   -3.3052    0.2420    0.0000 C   0  0  0  0  0  0  0  0  0  0  0  0
    1.7463    0.5291    0.0000 C   0  0  0  0  0  0  0  0  0  0  0  0
   -2.5207   -0.8486    0.0000 C   0  0  0  0  0  0  0  0  0  0  0  0
   -3.3244   -0.5807    0.0000 C   0  0  0  0  0  0  0  0  0  0  0  0
   -4.0132    0.7395    0.0000 C   0  0  0  0  0  0  0  0  0  0  0  0
    0.4834    1.2753    0.0000 C   0  0  0  0  0  0  0  0  0  0  0  0
    0.4834    2.6721    0.0000 C   0  0  0  0  0  0  0  0  0  0  0  0
    3.8320   -0.1789    0.0000 C   0  0  0  0  0  0  0  0  0  0  0  0
    1.7271    2.0024    0.0000 C   0  0  0  0  0  0  0  0  0  0  0  0
    1.3254    1.2753    0.0000 C   0  0  0  0  0  0  0  0  0  0  0  0
    1.3062    2.6721    0.0000 C   0  0  0  0  0  0  0  0  0  0  0  0
   -2.8269    2.6530    0.0000 C   0  0  0  0  0  0  0  0  0  0  0  0
    4.7212   -3.3992    0.0000 C   0  0  0  0  0  0  0  0  0  0  0  0
   -4.5873    0.1655    0.0000 C   0  0  0  0  0  0  0  0  0  0  0  0
   -4.0132    1.5623    0.0000 C   0  0  0  0  0  0  0  0  0  0  0  0
    2.9900    2.6721    0.0000 C   0  0  0  0  0  0  0  0  0  0  0  0
  1  7  2  0  0  0  0
  1  8  2  0  0  0  0
  1 22  1  0  0  0  0
  1 42  1  0  0  0  0
  2 29  1  0  0  0  0
  3 45  1  0  0  0  0
  4 45  1  0  0  0  0
  5 45  1  0  0  0  0
  6 16  1  0  0  0  0
  6 26  1  0  0  0  0
  9 34  1  0  0  0  0
 10 38  1  0  0  0  0
 10 45  1  0  0  0  0
 11 37  1  0  0  0  0
 12 14  1  0  0  0  0
 12 17  1  0  0  0  0
 12 32  1  0  0  0  0
 13 18  1  0  0  0  0
 13 26  2  0  0  0  0
 14 30  2  0  0  0  0
 15 16  1  0  0  0  0
 15 17  1  0  0  0  0
 15 20  2  0  0  0  0
 16 18  2  0  0  0  0
 17 23  2  0  0  0  0
 18 24  1  0  0  0  0
 19 20  1  0  0  0  0
 19 21  1  0  0  0  0
 19 25  2  0  0  0  0
 21 28  2  0  0  0  0
 21 31  1  0  0  0  0
 22 27  2  0  0  0  0
 22 28  1  0  0  0  0
 23 25  1  0  0  0  0
 24 35  2  0  0  0  0
 24 36  1  0  0  0  0
 26 41  1  0  0  0  0
 27 29  1  0  0  0  0
 27 37  1  0  0  0  0
 29 31  2  0  0  0  0
 30 33  1  0  0  0  0
 30 34  1  0  0  0  0
 32 33  2  0  0  0  0
 34 43  1  0  0  0  0
 34 44  1  0  0  0  0
 35 39  1  0  0  0  0
 36 40  2  0  0  0  0
 38 39  2  0  0  0  0
 38 40  1  0  0  0  0
M  END
> <PUBCHEM_COMPOUND_ID_TYPE>
0

> <PUBCHEM_TOTAL_CHARGE>
0

> <PUBCHEM_SUBSTANCE_ID>
310948086

> <PUBCHEM_SUBSTANCE_VERSION>
1

> <PUBCHEM_EXT_DATASOURCE_NAME>
4488

> <PUBCHEM_EXT_DATASOURCE_REGID>
SCHEMBL16126262

> <PUBCHEM_SUBSTANCE_COMMENT>
InChI=1S/C31H27F4N3O6S/c1-17-36-28(18-5-8-21(9-6-18)44-31(33,34)35)29(43-17)22-13-19(7-10-25(22)38-12-11-27(37-38)30(2,3)40)20-14-24(32)23(16-39)26(15-20)45(4,41)42/h5-15,39-40H,16H2,1-4H3
InChIKey=YVKXRQWAJMSABA-UHFFFAOYSA-N

> <PUBCHEM_SUBSTANCE_SYNONYM>
SCHEMBL16126262

> <PUBCHEM_XREF_EXT_ID>
SCHEMBL16126262

> <PUBCHEM_EXT_DATASOURCE_URL>
https://www.surechembl.org/

> <PUBCHEM_EXT_SUBSTANCE_URL>
https://www.surechembl.org/chemical/SCHEMBL16126262

> <PUBCHEM_CID_ASSOCIATIONS>
117613705  1

> <PUBCHEM_COORDINATE_TYPE>
1
3

$$$$
