310948224
  -OEChem-07211613022D

 45 49  0     0  0  0  0  0  0999 V2000
    1.8636   -2.5818    0.0000 Cl  0  0  0  0  0  0  0  0  0  0  0  0
   -2.4465   -3.1441    0.0000 S   0  0  0  0  0  0  0  0  0  0  0  0
    0.4269   -3.1232    0.0000 F   0  0  0  0  0  0  0  0  0  0  0  0
   -0.7391    4.2268    0.0000 F   0  0  0  0  0  0  0  0  0  0  0  0
    0.3644    4.3934    0.0000 F   0  0  0  0  0  0  0  0  0  0  0  0
    0.5101    3.2898    0.0000 F   0  0  0  0  0  0  0  0  0  0  0  0
    3.0920   -1.4783    0.0000 F   0  0  0  0  0  0  0  0  0  0  0  0
    3.0920   -1.4783    0.0000 F   0  0  0  0  0  0  0  0  0  0  0  0
    1.7386    1.2701    0.0000 O   0  0  0  0  0  0  0  0  0  0  0  0
   -2.8421   -2.4986    0.0000 O   0  0  0  0  0  0  0  0  0  0  0  0
   -2.0301   -3.8312    0.0000 O   0  0  0  0  0  0  0  0  0  0  0  0
    3.0920   -1.4783    0.0000 O   0  0  0  0  0  0  0  0  0  0  0  0
   -1.7178   -4.3934    0.0000 O   0  0  0  0  0  0  0  0  0  0  0  0
   -1.0098    1.8323    0.0000 N   0  0  0  0  0  0  0  0  0  0  0  0
    0.5101    1.8323    0.0000 N   0  0  0  0  0  0  0  0  0  0  0  0
   -0.3436    2.3112    0.0000 N   0  0  0  0  0  0  0  0  0  0  0  0
   -0.3019    0.6038    0.0000 C   0  0  0  0  0  0  0  0  0  0  0  0
    0.4060    1.0202    0.0000 C   0  0  0  0  0  0  0  0  0  0  0  0
   -1.0098    1.0202    0.0000 C   0  0  0  0  0  0  0  0  0  0  0  0
    1.1764    0.6871    0.0000 C   0  0  0  0  0  0  0  0  0  0  0  0
   -0.9890   -0.6247    0.0000 C   0  0  0  0  0  0  0  0  0  0  0  0
   -0.3019   -0.2291    0.0000 C   0  0  0  0  0  0  0  0  0  0  0  0
   -1.0307   -1.4575    0.0000 C   0  0  0  0  0  0  0  0  0  0  0  0
    1.3430   -0.1249    0.0000 C   0  0  0  0  0  0  0  0  0  0  0  0
   -1.6969    0.6038    0.0000 C   0  0  0  0  0  0  0  0  0  0  0  0
   -1.7178   -2.7068    0.0000 C   0  0  0  0  0  0  0  0  0  0  0  0
    1.3222    1.9989    0.0000 C   0  0  0  0  0  0  0  0  0  0  0  0
   -1.7178   -0.2082    0.0000 C   0  0  0  0  0  0  0  0  0  0  0  0
   -1.0098   -3.1024    0.0000 C   0  0  0  0  0  0  0  0  0  0  0  0
   -1.6969   -1.8740    0.0000 C   0  0  0  0  0  0  0  0  0  0  0  0
   -0.6142    3.1024    0.0000 C   0  0  0  0  0  0  0  0  0  0  0  0
   -0.3227   -2.6860    0.0000 C   0  0  0  0  0  0  0  0  0  0  0  0
   -0.3019   -1.8947    0.0000 C   0  0  0  0  0  0  0  0  0  0  0  0
   -1.6553    2.3320    0.0000 C   0  0  0  0  0  0  0  0  0  0  0  0
    2.1342   -0.3956    0.0000 C   0  0  0  0  0  0  0  0  0  0  0  0
   -0.1145    3.7687    0.0000 C   0  0  0  0  0  0  0  0  0  0  0  0
   -1.4054    3.1232    0.0000 C   0  0  0  0  0  0  0  0  0  0  0  0
    0.7600   -0.6663    0.0000 C   0  0  0  0  0  0  0  0  0  0  0  0
    2.3007   -1.1660    0.0000 C   0  0  0  0  0  0  0  0  0  0  0  0
    1.6969   -1.7490    0.0000 C   0  0  0  0  0  0  0  0  0  0  0  0
    0.9058   -1.4783    0.0000 C   0  0  0  0  0  0  0  0  0  0  0  0
   -1.0307   -3.9561    0.0000 C   0  0  0  0  0  0  0  0  0  0  0  0
    1.6345    2.7692    0.0000 C   0  0  0  0  0  0  0  0  0  0  0  0
   -3.0920   -3.5605    0.0000 C   0  0  0  0  0  0  0  0  0  0  0  0
    3.0920   -1.4783    0.0000 C   0  0  0  0  0  0  0  0  0  0  0  0
  1 40  1  0  0  0  0
  2 10  2  0  0  0  0
  2 11  2  0  0  0  0
  2 26  1  0  0  0  0
  2 44  1  0  0  0  0
  3 32  1  0  0  0  0
  4 36  1  0  0  0  0
  5 36  1  0  0  0  0
  6 36  1  0  0  0  0
  7 45  1  0  0  0  0
  8 45  1  0  0  0  0
  9 20  1  0  0  0  0
  9 27  1  0  0  0  0
 12 39  1  0  0  0  0
 12 45  1  0  0  0  0
 13 42  1  0  0  0  0
 14 16  1  0  0  0  0
 14 19  1  0  0  0  0
 14 34  1  0  0  0  0
 15 18  1  0  0  0  0
 15 27  2  0  0  0  0
 16 31  2  0  0  0  0
 17 18  1  0  0  0  0
 17 19  2  0  0  0  0
 17 22  1  0  0  0  0
 18 20  2  0  0  0  0
 19 25  1  0  0  0  0
 20 24  1  0  0  0  0
 21 22  2  0  0  0  0
 21 23  1  0  0  0  0
 21 28  1  0  0  0  0
 23 30  2  0  0  0  0
 23 33  1  0  0  0  0
 24 35  1  0  0  0  0
 24 38  2  0  0  0  0
 25 28  2  0  0  0  0
 26 29  2  0  0  0  0
 26 30  1  0  0  0  0
 27 43  1  0  0  0  0
 29 32  1  0  0  0  0
 29 42  1  0  0  0  0
 31 36  1  0  0  0  0
 31 37  1  0  0  0  0
 32 33  2  0  0  0  0
 34 37  2  0  0  0  0
 35 39  2  0  0  0  0
 38 41  1  0  0  0  0
 39 40  1  0  0  0  0
 40 41  2  0  0  0  0
M  END
> <PUBCHEM_COMPOUND_ID_TYPE>
0

> <PUBCHEM_TOTAL_CHARGE>
0

> <PUBCHEM_SUBSTANCE_ID>
310948224

> <PUBCHEM_SUBSTANCE_VERSION>
1

> <PUBCHEM_EXT_DATASOURCE_NAME>
4488

> <PUBCHEM_EXT_DATASOURCE_REGID>
SCHEMBL16126401

> <PUBCHEM_SUBSTANCE_COMMENT>
InChI=1S/C29H20ClF6N3O5S/c1-14-37-26(27(43-14)16-3-5-20(30)23(11-16)44-28(32)33)18-9-15(4-6-22(18)39-8-7-25(38-39)29(34,35)36)17-10-21(31)19(13-40)24(12-17)45(2,41)42/h3-12,28,40H,13H2,1-2H3
InChIKey=RDMQWPYETPBFLZ-UHFFFAOYSA-N

> <PUBCHEM_SUBSTANCE_SYNONYM>
SCHEMBL16126401

> <PUBCHEM_XREF_EXT_ID>
SCHEMBL16126401

> <PUBCHEM_EXT_DATASOURCE_URL>
https://www.surechembl.org/

> <PUBCHEM_EXT_SUBSTANCE_URL>
https://www.surechembl.org/chemical/SCHEMBL16126401

> <PUBCHEM_CID_ASSOCIATIONS>
117613804  1

> <PUBCHEM_COORDINATE_TYPE>
1
3

$$$$
