310938412
  -OEChem-07211613022D

 22 24  0     1  0  0  0  0  0999 V2000
    2.4483   -1.8887    0.0000 N   0  0  0  0  0  0  0  0  0  0  0  0
    2.8213   -0.2332    0.0000 N   0  0  0  0  0  0  0  0  0  0  0  0
    3.5441   -3.5209    0.0000 N   0  0  0  0  0  0  0  0  0  0  0  0
    2.5648   -2.4483    0.0000 C   0  0  0  0  0  0  0  0  0  0  0  0
    3.1944   -1.1891    0.0000 C   0  0  3  0  0  0  0  0  0  0  0  0
    1.4690   -1.5856    0.0000 C   0  0  3  0  0  0  0  0  0  0  0  0
    2.3783   -1.6322    0.0000 C   0  0  0  0  0  0  0  0  0  0  0  0
    3.1944   -1.9586    0.0000 C   0  0  0  0  0  0  0  0  0  0  0  0
    1.8187   -2.2851    0.0000 C   0  0  0  0  0  0  0  0  0  0  0  0
    1.8187   -0.8627    0.0000 C   0  0  0  0  0  0  0  0  0  0  0  0
    2.5648   -0.6762    0.0000 C   0  0  0  0  0  0  0  0  0  0  0  0
    2.7514   -3.2877    0.0000 C   0  0  0  0  0  0  0  0  0  0  0  0
    1.6089   -1.3757    0.0000 C   0  0  0  0  0  0  0  0  0  0  0  0
    3.0079   -1.0492    0.0000 C   0  0  0  0  0  0  0  0  0  0  0  0
    2.6115   -2.7047    0.0000 C   0  0  0  0  0  0  0  0  0  0  0  0
    1.3990   -0.5829    0.0000 C   0  0  0  0  0  0  0  0  0  0  0  0
    2.0286    0.0000    0.0000 C   0  0  0  0  0  0  0  0  0  0  0  0
    2.0053   -3.2643    0.0000 C   0  0  0  0  0  0  0  0  0  0  0  0
    0.6062   -0.3264    0.0000 C   0  0  0  0  0  0  0  0  0  0  0  0
    2.1918   -4.0805    0.0000 C   0  0  0  0  0  0  0  0  0  0  0  0
    0.0000   -0.9093    0.0000 C   0  0  0  0  0  0  0  0  0  0  0  0
    1.5856   -4.6634    0.0000 C   0  0  0  0  0  0  0  0  0  0  0  0
  1  5  1  0  0  0  0
  1  6  1  0  0  0  0
  1 15  1  0  0  0  0
  2 14  2  0  0  0  0
  2 17  1  0  0  0  0
  3 12  3  0  0  0  0
  4  7  1  0  0  0  0
  4  8  1  0  0  0  0
  4  9  1  0  0  0  0
  4 12  1  0  0  0  0
  5  8  1  0  0  0  0
  5 11  1  0  0  0  0
  6  9  1  0  0  0  0
  6 10  1  0  0  0  0
  7 13  2  0  0  0  0
  7 14  1  0  0  0  0
 10 11  2  0  0  0  0
 13 16  1  0  0  0  0
 15 18  1  0  0  0  0
 16 17  2  0  0  0  0
 16 19  1  0  0  0  0
 18 20  3  0  0  0  0
 19 21  3  0  0  0  0
 20 22  1  0  0  0  0
M  END
> <PUBCHEM_COMPOUND_ID_TYPE>
0

> <PUBCHEM_TOTAL_CHARGE>
0

> <PUBCHEM_SUBSTANCE_ID>
310938412

> <PUBCHEM_SUBSTANCE_VERSION>
1

> <PUBCHEM_EXT_DATASOURCE_NAME>
4488

> <PUBCHEM_EXT_DATASOURCE_REGID>
SCHEMBL16116305

> <PUBCHEM_SUBSTANCE_COMMENT>
InChI=1S/C19H17N3/c1-3-5-8-22-17-6-7-18(22)11-19(10-17,14-20)16-9-15(4-2)12-21-13-16/h2,6-7,9,12-13,17-18H,8,10-11H2,1H3
InChIKey=PXCPJLGNDXIUEK-UHFFFAOYSA-N

> <PUBCHEM_SUBSTANCE_SYNONYM>
SCHEMBL16116305

> <PUBCHEM_XREF_EXT_ID>
SCHEMBL16116305

> <PUBCHEM_EXT_DATASOURCE_URL>
https://www.surechembl.org/

> <PUBCHEM_EXT_SUBSTANCE_URL>
https://www.surechembl.org/chemical/SCHEMBL16116305

> <PUBCHEM_CID_ASSOCIATIONS>
117605886  1

> <PUBCHEM_COORDINATE_TYPE>
1
3

$$$$
