310941458
  -OEChem-07211613022D

 30 32  0     1  0  0  0  0  0999 V2000
    0.9615    3.1146    0.0000 O   0  0  0  0  0  0  0  0  0  0  0  0
    0.2417    1.9555    0.0000 O   0  0  0  0  0  0  0  0  0  0  0  0
    0.2417   -0.4844    0.0000 O   0  0  0  0  0  0  0  0  0  0  0  0
    0.2417   -0.4844    0.0000 O   0  0  0  0  0  0  0  0  0  0  0  0
   -1.1614    1.9555    0.0000 N   0  0  0  0  0  0  0  0  0  0  0  0
   -1.8690    1.5530    0.0000 C   0  0  0  0  0  0  0  0  0  0  0  0
   -2.7718    1.9434    0.0000 C   0  0  0  0  0  0  0  0  0  0  0  0
   -1.8812    0.7234    0.0000 C   0  0  0  0  0  0  0  0  0  0  0  0
   -0.4537    1.5530    0.0000 C   0  0  3  0  0  0  0  0  0  0  0  0
   -2.5888    0.3086    0.0000 C   0  0  0  0  0  0  0  0  0  0  0  0
   -2.8572    2.7486    0.0000 C   0  0  0  0  0  0  0  0  0  0  0  0
   -1.1614    0.3086    0.0000 C   0  0  0  0  0  0  0  0  0  0  0  0
   -3.4183    1.4554    0.0000 C   0  0  0  0  0  0  0  0  0  0  0  0
    0.2539    2.7608    0.0000 C   0  0  0  0  0  0  0  0  0  0  0  0
   -0.4537    0.7234    0.0000 C   0  0  0  0  0  0  0  0  0  0  0  0
   -2.5888   -0.5332    0.0000 C   0  0  0  0  0  0  0  0  0  0  0  0
   -3.6136    3.0780    0.0000 C   0  0  0  0  0  0  0  0  0  0  0  0
   -1.1614   -0.5332    0.0000 C   0  0  0  0  0  0  0  0  0  0  0  0
   -4.1869    1.7847    0.0000 C   0  0  0  0  0  0  0  0  0  0  0  0
    0.2417    0.3330    0.0000 C   0  0  0  0  0  0  0  0  0  0  0  0
   -1.8812   -0.9603    0.0000 C   0  0  0  0  0  0  0  0  0  0  0  0
   -4.2846    2.5900    0.0000 C   0  0  0  0  0  0  0  0  0  0  0  0
    0.2417   -0.4844    0.0000 C   0  0  0  0  0  0  0  0  0  0  0  0
    3.0221   -2.7088    0.0000 C   0  0  0  0  0  0  0  0  0  0  0  0
    2.3007   -3.1146    0.0000 C   0  0  0  0  0  0  0  0  0  0  0  0
    3.0221   -1.9723    0.0000 C   0  0  0  0  0  0  0  0  0  0  0  0
    3.6533   -3.0695    0.0000 C   0  0  0  0  0  0  0  0  0  0  0  0
    3.6533   -1.5966    0.0000 C   0  0  0  0  0  0  0  0  0  0  0  0
    4.2846   -2.6938    0.0000 C   0  0  0  0  0  0  0  0  0  0  0  0
    4.2846   -1.9573    0.0000 C   0  0  0  0  0  0  0  0  0  0  0  0
  1 14  2  0  0  0  0
  2 14  1  0  0  0  0
  3 23  1  0  0  0  0
  3 25  1  0  0  0  0
  4 23  2  0  0  0  0
  5  6  2  0  0  0  0
  9  5  1  6  0  0  0
  6  7  1  0  0  0  0
  6  8  1  0  0  0  0
  7 11  2  0  0  0  0
  7 13  1  0  0  0  0
  8 10  2  0  0  0  0
  8 12  1  0  0  0  0
  9 14  1  0  0  0  0
  9 15  1  0  0  0  0
 10 16  1  0  0  0  0
 11 17  1  0  0  0  0
 12 18  2  0  0  0  0
 13 19  2  0  0  0  0
 15 20  1  0  0  0  0
 16 21  2  0  0  0  0
 17 22  2  0  0  0  0
 18 21  1  0  0  0  0
 19 22  1  0  0  0  0
 20 23  1  0  0  0  0
 24 25  1  0  0  0  0
 24 26  2  0  0  0  0
 24 27  1  0  0  0  0
 26 28  1  0  0  0  0
 27 29  2  0  0  0  0
 28 30  2  0  0  0  0
 29 30  1  0  0  0  0
M  END
> <PUBCHEM_COMPOUND_ID_TYPE>
0

> <PUBCHEM_TOTAL_CHARGE>
0

> <PUBCHEM_SUBSTANCE_ID>
310941458

> <PUBCHEM_SUBSTANCE_VERSION>
1

> <PUBCHEM_EXT_DATASOURCE_NAME>
4488

> <PUBCHEM_EXT_DATASOURCE_REGID>
SCHEMBL16119457

> <PUBCHEM_SUBSTANCE_COMMENT>
InChI=1S/C25H23NO4/c27-23(30-18-19-10-4-1-5-11-19)17-16-22(25(28)29)26-24(20-12-6-2-7-13-20)21-14-8-3-9-15-21/h1-15,22H,16-18H2,(H,28,29)/t22-/m0/s1
InChIKey=XSVMDOLIPVQCPB-QFIPXVFZSA-N

> <PUBCHEM_SUBSTANCE_SYNONYM>
SCHEMBL16119457

> <PUBCHEM_XREF_EXT_ID>
SCHEMBL16119457

> <PUBCHEM_EXT_DATASOURCE_URL>
https://www.surechembl.org/

> <PUBCHEM_EXT_SUBSTANCE_URL>
https://www.surechembl.org/chemical/SCHEMBL16119457

> <PUBCHEM_CID_ASSOCIATIONS>
117608281  1

> <PUBCHEM_COORDINATE_TYPE>
1
3

> <PUBCHEM_BONDANNOTATIONS>
9  5  6

$$$$
