310948121
  -OEChem-07211613022D

 42 46  0     0  0  0  0  0  0999 V2000
    0.0778   -2.9602    0.0000 S   0  0  0  0  0  0  0  0  0  0  0  0
    3.1127   -2.8980    0.0000 F   0  0  0  0  0  0  0  0  0  0  0  0
    2.5680   -1.8707    0.0000 F   0  0  0  0  0  0  0  0  0  0  0  0
    2.0544   -3.3960    0.0000 F   0  0  0  0  0  0  0  0  0  0  0  0
    1.4163    1.4754    0.0000 O   0  0  0  0  0  0  0  0  0  0  0  0
   -3.1127    3.8877    0.0000 O   0  0  0  0  0  0  0  0  0  0  0  0
    1.5408   -2.3844    0.0000 O   0  0  0  0  0  0  0  0  0  0  0  0
    0.0778   -2.9602    0.0000 O   0  0  0  0  0  0  0  0  0  0  0  0
    0.0778   -2.9602    0.0000 O   0  0  0  0  0  0  0  0  0  0  0  0
   -1.3696    2.0357    0.0000 N   0  0  0  0  0  0  0  0  0  0  0  0
    0.1712    2.0201    0.0000 N   0  0  0  0  0  0  0  0  0  0  0  0
   -2.0388    2.5181    0.0000 N   0  0  0  0  0  0  0  0  0  0  0  0
   -0.6381    0.8061    0.0000 C   0  0  0  0  0  0  0  0  0  0  0  0
    0.0778    1.2108    0.0000 C   0  0  0  0  0  0  0  0  0  0  0  0
   -1.3540    1.1952    0.0000 C   0  0  0  0  0  0  0  0  0  0  0  0
    0.8560    0.8528    0.0000 C   0  0  0  0  0  0  0  0  0  0  0  0
   -0.6536   -0.0343    0.0000 C   0  0  0  0  0  0  0  0  0  0  0  0
   -1.3540   -0.4389    0.0000 C   0  0  0  0  0  0  0  0  0  0  0  0
    1.0272    0.0747    0.0000 C   0  0  0  0  0  0  0  0  0  0  0  0
   -2.0855    0.7906    0.0000 C   0  0  0  0  0  0  0  0  0  0  0  0
    0.9805    2.2068    0.0000 C   0  0  0  0  0  0  0  0  0  0  0  0
   -1.3696   -1.2949    0.0000 C   0  0  0  0  0  0  0  0  0  0  0  0
   -1.7742    3.3274    0.0000 C   0  0  0  0  0  0  0  0  0  0  0  0
   -2.0699   -0.0499    0.0000 C   0  0  0  0  0  0  0  0  0  0  0  0
   -0.7004    2.5337    0.0000 C   0  0  0  0  0  0  0  0  0  0  0  0
   -2.2567    3.9966    0.0000 C   0  0  0  0  0  0  0  0  0  0  0  0
   -0.9338    3.2963    0.0000 C   0  0  0  0  0  0  0  0  0  0  0  0
    1.8209   -0.2055    0.0000 C   0  0  0  0  0  0  0  0  0  0  0  0
    0.4202   -0.5012    0.0000 C   0  0  0  0  0  0  0  0  0  0  0  0
   -0.6536   -1.6996    0.0000 C   0  0  0  0  0  0  0  0  0  0  0  0
   -0.6536   -2.5245    0.0000 C   0  0  0  0  0  0  0  0  0  0  0  0
   -2.0855   -1.7151    0.0000 C   0  0  0  0  0  0  0  0  0  0  0  0
    1.3696   -1.5595    0.0000 C   0  0  0  0  0  0  0  0  0  0  0  0
    1.9921   -1.0148    0.0000 C   0  0  0  0  0  0  0  0  0  0  0  0
    0.5914   -1.3105    0.0000 C   0  0  0  0  0  0  0  0  0  0  0  0
    1.3229    2.9539    0.0000 C   0  0  0  0  0  0  0  0  0  0  0  0
   -1.3540   -2.9447    0.0000 C   0  0  0  0  0  0  0  0  0  0  0  0
   -2.0855   -2.5400    0.0000 C   0  0  0  0  0  0  0  0  0  0  0  0
   -1.9454    4.7437    0.0000 C   0  0  0  0  0  0  0  0  0  0  0  0
   -1.4474    4.0589    0.0000 C   0  0  0  0  0  0  0  0  0  0  0  0
    2.3190   -2.6489    0.0000 C   0  0  0  0  0  0  0  0  0  0  0  0
    1.8072   -4.7437    0.0000 C   0  0  0  0  0  0  0  0  0  0  0  0
  1  8  2  0  0  0  0
  1  9  2  0  0  0  0
  1 31  1  0  0  0  0
  1 42  1  0  0  0  0
  2 41  1  0  0  0  0
  3 41  1  0  0  0  0
  4 41  1  0  0  0  0
  5 16  1  0  0  0  0
  5 21  1  0  0  0  0
  6 26  1  0  0  0  0
  7 33  1  0  0  0  0
  7 41  1  0  0  0  0
 10 12  1  0  0  0  0
 10 15  1  0  0  0  0
 10 25  1  0  0  0  0
 11 14  1  0  0  0  0
 11 21  2  0  0  0  0
 12 23  2  0  0  0  0
 13 14  1  0  0  0  0
 13 15  1  0  0  0  0
 13 17  2  0  0  0  0
 14 16  2  0  0  0  0
 15 20  2  0  0  0  0
 16 19  1  0  0  0  0
 17 18  1  0  0  0  0
 18 22  1  0  0  0  0
 18 24  2  0  0  0  0
 19 28  2  0  0  0  0
 19 29  1  0  0  0  0
 20 24  1  0  0  0  0
 21 36  1  0  0  0  0
 22 30  2  0  0  0  0
 22 32  1  0  0  0  0
 23 26  1  0  0  0  0
 23 27  1  0  0  0  0
 25 27  2  0  0  0  0
 26 39  1  0  0  0  0
 26 40  1  0  0  0  0
 28 34  1  0  0  0  0
 29 35  2  0  0  0  0
 30 31  1  0  0  0  0
 31 37  2  0  0  0  0
 32 38  2  0  0  0  0
 33 34  2  0  0  0  0
 33 35  1  0  0  0  0
 37 38  1  0  0  0  0
M  END
> <PUBCHEM_COMPOUND_ID_TYPE>
0

> <PUBCHEM_TOTAL_CHARGE>
0

> <PUBCHEM_SUBSTANCE_ID>
310948121

> <PUBCHEM_SUBSTANCE_VERSION>
1

> <PUBCHEM_EXT_DATASOURCE_NAME>
4488

> <PUBCHEM_EXT_DATASOURCE_REGID>
SCHEMBL16126297

> <PUBCHEM_SUBSTANCE_COMMENT>
InChI=1S/C30H26F3N3O5S/c1-18-34-27(28(40-18)19-8-11-22(12-9-19)41-30(31,32)33)24-17-21(20-6-5-7-23(16-20)42(4,38)39)10-13-25(24)36-15-14-26(35-36)29(2,3)37/h5-17,37H,1-4H3
InChIKey=CVPLTJOKICHBEB-UHFFFAOYSA-N

> <PUBCHEM_SUBSTANCE_SYNONYM>
SCHEMBL16126297

> <PUBCHEM_XREF_EXT_ID>
SCHEMBL16126297

> <PUBCHEM_EXT_DATASOURCE_URL>
https://www.surechembl.org/

> <PUBCHEM_EXT_SUBSTANCE_URL>
https://www.surechembl.org/chemical/SCHEMBL16126297

> <PUBCHEM_CID_ASSOCIATIONS>
117613738  1

> <PUBCHEM_COORDINATE_TYPE>
1
3

$$$$
