310940626
  -OEChem-07211613022D

 11 11  0     0  0  0  0  0  0999 V2000
   -1.0775   -0.8228    0.0000 O   0  0  0  0  0  0  0  0  0  0  0  0
   -1.0775   -0.8228    0.0000 O   0  0  0  0  0  0  0  0  0  0  0  0
    0.3450    0.8228    0.0000 N   0  0  0  0  0  0  0  0  0  0  0  0
   -1.0775   -0.8228    0.0000 N   0  0  0  0  0  0  0  0  0  0  0  0
   -0.3769   -0.4193    0.0000 C   0  0  0  0  0  0  0  0  0  0  0  0
   -0.3663    0.4087    0.0000 C   0  0  0  0  0  0  0  0  0  0  0  0
   -1.0775   -0.8228    0.0000 C   0  0  0  0  0  0  0  0  0  0  0  0
    0.3450   -0.8228    0.0000 C   0  0  0  0  0  0  0  0  0  0  0  0
    1.0669   -0.4087    0.0000 C   0  0  0  0  0  0  0  0  0  0  0  0
    1.0775    0.3981    0.0000 C   0  0  0  0  0  0  0  0  0  0  0  0
   -0.9820    0.7484    0.0000 C   0  0  0  0  0  0  0  0  0  0  0  0
  1  4  1  0  0  0  0
  1  7  1  0  0  0  0
  2  7  2  0  0  0  0
  3  6  1  0  0  0  0
  3 10  2  0  0  0  0
  5  6  2  0  0  0  0
  5  7  1  0  0  0  0
  5  8  1  0  0  0  0
  6 11  1  0  0  0  0
  8  9  2  0  0  0  0
  9 10  1  0  0  0  0
M  END
> <PUBCHEM_COMPOUND_ID_TYPE>
0

> <PUBCHEM_TOTAL_CHARGE>
0

> <PUBCHEM_SUBSTANCE_ID>
310940626

> <PUBCHEM_SUBSTANCE_VERSION>
1

> <PUBCHEM_EXT_DATASOURCE_NAME>
4488

> <PUBCHEM_EXT_DATASOURCE_REGID>
SCHEMBL16118581

> <PUBCHEM_SUBSTANCE_COMMENT>
InChI=1S/C7H8N2O2/c1-5-6(7(10)11-8)3-2-4-9-5/h2-4H,8H2,1H3
InChIKey=PTBQCBMHXFAJQH-UHFFFAOYSA-N

> <PUBCHEM_SUBSTANCE_SYNONYM>
SCHEMBL16118581

> <PUBCHEM_XREF_EXT_ID>
SCHEMBL16118581

> <PUBCHEM_EXT_DATASOURCE_URL>
https://www.surechembl.org/

> <PUBCHEM_EXT_SUBSTANCE_URL>
https://www.surechembl.org/chemical/SCHEMBL16118581

> <PUBCHEM_CID_ASSOCIATIONS>
117607608  1

> <PUBCHEM_COORDINATE_TYPE>
1
3

$$$$
