310948171
  -OEChem-07211613022D

 49 54  0     0  0  0  0  0  0999 V2000
    3.3186   -2.1933    0.0000 S   0  0  0  0  0  0  0  0  0  0  0  0
    2.9310    3.9761    0.0000 F   0  0  0  0  0  0  0  0  0  0  0  0
    3.6415    3.1201    0.0000 F   0  0  0  0  0  0  0  0  0  0  0  0
    3.4316    0.6815    0.0000 F   0  0  0  0  0  0  0  0  0  0  0  0
   -0.9452    2.1511    0.0000 O   0  0  0  0  0  0  0  0  0  0  0  0
    2.0104    3.3462    0.0000 O   0  0  0  0  0  0  0  0  0  0  0  0
    2.8664    2.3126    0.0000 O   0  0  0  0  0  0  0  0  0  0  0  0
   -4.5143   -0.7237    0.0000 O   0  0  0  0  0  0  0  0  0  0  0  0
    3.3186   -2.1933    0.0000 O   0  0  0  0  0  0  0  0  0  0  0  0
    3.3186   -2.1933    0.0000 O   0  0  0  0  0  0  0  0  0  0  0  0
    4.6429   -0.0777    0.0000 O   0  0  0  0  0  0  0  0  0  0  0  0
   -2.0918   -1.2243    0.0000 N   0  0  0  0  0  0  0  0  0  0  0  0
   -1.5265    0.9399    0.0000 N   0  0  0  0  0  0  0  0  0  0  0  0
   -2.8671   -0.9497    0.0000 N   0  0  0  0  0  0  0  0  0  0  0  0
   -0.3153    0.1162    0.0000 C   0  0  0  0  0  0  0  0  0  0  0  0
   -0.7514   -0.5945    0.0000 C   0  0  0  0  0  0  0  0  0  0  0  0
   -0.7029    0.8430    0.0000 C   0  0  0  0  0  0  0  0  0  0  0  0
   -1.5911   -0.5459    0.0000 C   0  0  0  0  0  0  0  0  0  0  0  0
   -0.3475    1.6020    0.0000 C   0  0  0  0  0  0  0  0  0  0  0  0
   -2.8023   -0.0938    0.0000 C   0  0  0  0  0  0  0  0  0  0  0  0
   -3.4646    0.4230    0.0000 C   0  0  0  0  0  0  0  0  0  0  0  0
    0.4922    1.7312    0.0000 C   0  0  0  0  0  0  0  0  0  0  0  0
    0.8960   -0.6429    0.0000 C   0  0  0  0  0  0  0  0  0  0  0  0
    0.5245    0.0677    0.0000 C   0  0  0  0  0  0  0  0  0  0  0  0
   -2.0433    0.1162    0.0000 C   0  0  0  0  0  0  0  0  0  0  0  0
   -0.3637   -1.3212    0.0000 C   0  0  0  0  0  0  0  0  0  0  0  0
    1.5742    2.6518    0.0000 C   0  0  0  0  0  0  0  0  0  0  0  0
    1.7359   -0.6752    0.0000 C   0  0  0  0  0  0  0  0  0  0  0  0
   -1.6718    1.7797    0.0000 C   0  0  0  0  0  0  0  0  0  0  0  0
    2.1073    2.0220    0.0000 C   0  0  0  0  0  0  0  0  0  0  0  0
   -4.2398    0.0677    0.0000 C   0  0  0  0  0  0  0  0  0  0  0  0
    0.7668    2.5064    0.0000 C   0  0  0  0  0  0  0  0  0  0  0  0
    0.4599   -1.3535    0.0000 C   0  0  0  0  0  0  0  0  0  0  0  0
    2.8179    3.1686    0.0000 C   0  0  0  0  0  0  0  0  0  0  0  0
    2.9471   -1.4504    0.0000 C   0  0  0  0  0  0  0  0  0  0  0  0
    1.0091    1.1175    0.0000 C   0  0  0  0  0  0  0  0  0  0  0  0
    2.1234   -1.4019    0.0000 C   0  0  0  0  0  0  0  0  0  0  0  0
    3.3831   -0.7237    0.0000 C   0  0  0  0  0  0  0  0  0  0  0  0
    1.8328    1.2629    0.0000 C   0  0  0  0  0  0  0  0  0  0  0  0
    2.1719    0.0192    0.0000 C   0  0  0  0  0  0  0  0  0  0  0  0
    2.9794   -0.0130    0.0000 C   0  0  0  0  0  0  0  0  0  0  0  0
   -3.9006    1.1498    0.0000 C   0  0  0  0  0  0  0  0  0  0  0  0
   -2.8185    0.9399    0.0000 C   0  0  0  0  0  0  0  0  0  0  0  0
   -1.8334   -2.0480    0.0000 C   0  0  0  0  0  0  0  0  0  0  0  0
   -2.4148    2.1189    0.0000 C   0  0  0  0  0  0  0  0  0  0  0  0
   -5.0472   -0.0938    0.0000 C   0  0  0  0  0  0  0  0  0  0  0  0
   -4.5467    0.8268    0.0000 C   0  0  0  0  0  0  0  0  0  0  0  0
    4.2069   -0.7721    0.0000 C   0  0  0  0  0  0  0  0  0  0  0  0
    5.0472   -3.9761    0.0000 C   0  0  0  0  0  0  0  0  0  0  0  0
  1  9  2  0  0  0  0
  1 10  2  0  0  0  0
  1 35  1  0  0  0  0
  1 49  1  0  0  0  0
  2 34  1  0  0  0  0
  3 34  1  0  0  0  0
  4 41  1  0  0  0  0
  5 19  1  0  0  0  0
  5 29  1  0  0  0  0
  6 27  1  0  0  0  0
  6 34  1  0  0  0  0
  7 30  1  0  0  0  0
  7 34  1  0  0  0  0
  8 31  1  0  0  0  0
 11 48  1  0  0  0  0
 12 14  1  0  0  0  0
 12 18  1  0  0  0  0
 12 44  1  0  0  0  0
 13 17  1  0  0  0  0
 13 29  2  0  0  0  0
 14 20  2  0  0  0  0
 15 16  1  0  0  0  0
 15 17  1  0  0  0  0
 15 24  2  0  0  0  0
 16 18  1  0  0  0  0
 16 26  2  0  0  0  0
 17 19  2  0  0  0  0
 18 25  2  0  0  0  0
 19 22  1  0  0  0  0
 20 21  1  0  0  0  0
 20 25  1  0  0  0  0
 21 31  1  0  0  0  0
 21 42  1  0  0  0  0
 21 43  1  0  0  0  0
 22 32  1  0  0  0  0
 22 36  2  0  0  0  0
 23 24  1  0  0  0  0
 23 28  1  0  0  0  0
 23 33  2  0  0  0  0
 26 33  1  0  0  0  0
 27 30  1  0  0  0  0
 27 32  2  0  0  0  0
 28 37  2  0  0  0  0
 28 40  1  0  0  0  0
 29 45  1  0  0  0  0
 30 39  2  0  0  0  0
 31 46  1  0  0  0  0
 31 47  1  0  0  0  0
 35 37  1  0  0  0  0
 35 38  2  0  0  0  0
 36 39  1  0  0  0  0
 38 41  1  0  0  0  0
 38 48  1  0  0  0  0
 40 41  2  0  0  0  0
M  END
> <PUBCHEM_COMPOUND_ID_TYPE>
0

> <PUBCHEM_TOTAL_CHARGE>
0

> <PUBCHEM_SUBSTANCE_ID>
310948171

> <PUBCHEM_SUBSTANCE_VERSION>
1

> <PUBCHEM_EXT_DATASOURCE_NAME>
4488

> <PUBCHEM_EXT_DATASOURCE_REGID>
SCHEMBL16126348

> <PUBCHEM_SUBSTANCE_COMMENT>
InChI=1S/C35H34F3N3O7S/c1-18-39-31(32(46-18)20-9-11-27-28(14-20)48-35(37,38)47-27)23-12-19(21-13-25(36)24(17-42)29(15-21)49(7,44)45)8-10-22(23)26-16-30(40-41(26)6)33(2,3)34(4,5)43/h8-16,42-43H,17H2,1-7H3
InChIKey=JUMLUYMMYPUDKH-UHFFFAOYSA-N

> <PUBCHEM_SUBSTANCE_SYNONYM>
SCHEMBL16126348

> <PUBCHEM_XREF_EXT_ID>
SCHEMBL16126348

> <PUBCHEM_EXT_DATASOURCE_URL>
https://www.surechembl.org/

> <PUBCHEM_EXT_SUBSTANCE_URL>
https://www.surechembl.org/chemical/SCHEMBL16126348

> <PUBCHEM_CID_ASSOCIATIONS>
86275904  1

> <PUBCHEM_COORDINATE_TYPE>
1
3

$$$$
