310944853
  -OEChem-07211613022D

146158  0     1  0  0  0  0  0999 V2000
   -7.4855    2.8499    0.0000 S   0  0  0  0  0  0  0  0  0  0  0  0
   12.0920   -7.7480    0.0000 S   0  0  0  0  0  0  0  0  0  0  0  0
    2.8790   -9.7013    0.0000 S   0  0  0  0  0  0  0  0  0  0  0  0
    9.7596    6.9899    0.0000 S   0  0  0  0  0  0  0  0  0  0  0  0
   -8.9141    5.3281    0.0000 O   0  0  0  0  0  0  0  0  0  0  0  0
   -6.6400    2.8499    0.0000 O   0  0  0  0  0  0  0  0  0  0  0  0
   -8.2582    2.8644    0.0000 O   0  0  0  0  0  0  0  0  0  0  0  0
   12.7189   -7.2232    0.0000 O   0  0  0  0  0  0  0  0  0  0  0  0
   12.6460   -8.3456    0.0000 O   0  0  0  0  0  0  0  0  0  0  0  0
   11.5090   -8.3019    0.0000 O   0  0  0  0  0  0  0  0  0  0  0  0
    2.8790   -9.7013    0.0000 O   0  0  0  0  0  0  0  0  0  0  0  0
    2.8790   -9.7013    0.0000 O   0  0  0  0  0  0  0  0  0  0  0  0
    2.8790   -9.7013    0.0000 O   0  0  0  0  0  0  0  0  0  0  0  0
   -8.1998   -0.8674    0.0000 O   0  0  0  0  0  0  0  0  0  0  0  0
    8.3311   -2.1065    0.0000 O   0  0  0  0  0  0  0  0  0  0  0  0
   -2.4418   -1.6983    0.0000 O   0  0  0  0  0  0  0  0  0  0  0  0
    4.7304    0.7799    0.0000 O   0  0  0  0  0  0  0  0  0  0  0  0
    4.0161    0.3717    0.0000 O   0  0  0  0  0  0  0  0  0  0  0  0
   -0.2989    0.3717    0.0000 O   0  0  0  0  0  0  0  0  0  0  0  0
    1.8586   -1.6983    0.0000 O   0  0  0  0  0  0  0  0  0  0  0  0
    6.8879    2.8499    0.0000 O   0  0  0  0  0  0  0  0  0  0  0  0
    8.3311    4.5117    0.0000 O   0  0  0  0  0  0  0  0  0  0  0  0
    9.0453    6.5672    0.0000 O   0  0  0  0  0  0  0  0  0  0  0  0
   11.2028    4.5117    0.0000 O   0  0  0  0  0  0  0  0  0  0  0  0
    9.7596   -5.4155    0.0000 N   0  0  0  0  0  0  0  0  0  0  0  0
    4.0599   -6.6255    0.0000 N   0  3  0  0  0  0  0  0  0  0  0  0
   -7.4709    2.0190    0.0000 N   0  0  0  0  0  0  0  0  0  0  0  0
   -7.4709    7.8208    0.0000 N   0  3  0  0  0  0  0  0  0  0  0  0
  -10.3427    2.8499    0.0000 N   0  0  0  0  0  0  0  0  0  0  0  0
   -6.7566   -0.8674    0.0000 N   0  0  0  0  0  0  0  0  0  0  0  0
    9.0453   -0.8674    0.0000 N   0  0  0  0  0  0  0  0  0  0  0  0
   -1.7275   -0.4592    0.0000 N   0  0  0  0  0  0  0  0  0  0  0  0
    4.7304   -0.8674    0.0000 N   0  0  0  0  0  0  0  0  0  0  0  0
    6.1736    0.7799    0.0000 N   0  0  0  0  0  0  0  0  0  0  0  0
    0.4300   -0.8674    0.0000 N   0  0  0  0  0  0  0  0  0  0  0  0
    2.5875   -0.4592    0.0000 N   0  0  0  0  0  0  0  0  0  0  0  0
    4.7304   -3.3601    0.0000 N   0  0  0  0  0  0  0  0  0  0  0  0
    4.0161   -4.5992    0.0000 N   0  0  0  0  0  0  0  0  0  0  0  0
    5.4593   -4.5992    0.0000 N   0  0  0  0  0  0  0  0  0  0  0  0
    9.7596    5.3281    0.0000 N   0  0  0  0  0  0  0  0  0  0  0  0
   11.9171    5.7508    0.0000 N   0  0  0  0  0  0  0  0  0  0  0  0
    9.3515   -6.6838    0.0000 C   0  0  0  0  0  0  0  0  0  0  0  0
   10.1970   -6.6692    0.0000 C   0  0  0  0  0  0  0  0  0  0  0  0
    4.9636   -7.6022    0.0000 C   0  0  0  0  0  0  0  0  0  0  0  0
    9.1036   -5.8966    0.0000 C   0  0  0  0  0  0  0  0  0  0  0  0
   10.4594   -5.8966    0.0000 C   0  0  0  0  0  0  0  0  0  0  0  0
    4.2202   -7.9229    0.0000 C   0  0  0  0  0  0  0  0  0  0  0  0
    4.8908   -6.7712    0.0000 C   0  0  0  0  0  0  0  0  0  0  0  0
    3.6517   -7.3252    0.0000 C   0  0  0  0  0  0  0  0  0  0  0  0
   -7.4855    4.5263    0.0000 C   0  0  0  0  0  0  0  0  0  0  0  0
   -7.4564    5.3572    0.0000 C   0  0  0  0  0  0  0  0  0  0  0  0
   -8.1852    4.1181    0.0000 C   0  0  0  0  0  0  0  0  0  0  0  0
   -6.7421    4.1181    0.0000 C   0  0  0  0  0  0  0  0  0  0  0  0
   -8.1998    5.7654    0.0000 C   0  0  0  0  0  0  0  0  0  0  0  0
   -8.8995    4.5263    0.0000 C   0  0  0  0  0  0  0  0  0  0  0  0
   10.7363   -7.2814    0.0000 C   0  0  0  0  0  0  0  0  0  0  0  0
   -6.7566    3.2872    0.0000 C   0  0  0  0  0  0  0  0  0  0  0  0
    3.9578   -8.7100    0.0000 C   0  0  0  0  0  0  0  0  0  0  0  0
   11.5381   -7.1065    0.0000 C   0  0  0  0  0  0  0  0  0  0  0  0
   11.2611   -5.7362    0.0000 C   0  0  0  0  0  0  0  0  0  0  0  0
    3.1415   -8.8850    0.0000 C   0  0  0  0  0  0  0  0  0  0  0  0
    2.8499   -7.5001    0.0000 C   0  0  0  0  0  0  0  0  0  0  0  0
    8.3019   -5.6342    0.0000 C   0  0  0  0  0  0  0  0  0  0  0  0
    5.4884   -6.2318    0.0000 C   0  0  0  0  0  0  0  0  0  0  0  0
    9.7596   -4.5701    0.0000 C   0  0  0  0  0  0  0  0  0  0  0  0
    9.3807   -7.5147    0.0000 C   0  0  0  0  0  0  0  0  0  0  0  0
    8.7684   -7.2378    0.0000 C   0  0  0  0  0  0  0  0  0  0  0  0
   11.8005   -6.3339    0.0000 C   0  0  0  0  0  0  0  0  0  0  0  0
   -7.4709    6.9753    0.0000 C   0  0  0  0  0  0  0  0  0  0  0  0
   -9.6284    3.2872    0.0000 C   0  0  0  0  0  0  0  0  0  0  0  0
   -6.7566    5.7654    0.0000 C   0  0  0  0  0  0  0  0  0  0  0  0
   -8.1998    3.2872    0.0000 C   0  0  0  0  0  0  0  0  0  0  0  0
   -8.1707    6.5963    0.0000 C   0  0  0  0  0  0  0  0  0  0  0  0
   -9.5992    4.1181    0.0000 C   0  0  0  0  0  0  0  0  0  0  0  0
    5.8237   -7.5876    0.0000 C   0  0  0  0  0  0  0  0  0  0  0  0
    5.4010   -8.3165    0.0000 C   0  0  0  0  0  0  0  0  0  0  0  0
    2.6021   -8.3019    0.0000 C   0  0  0  0  0  0  0  0  0  0  0  0
    3.7391   -5.8529    0.0000 C   0  0  0  0  0  0  0  0  0  0  0  0
   -6.0133    4.5117    0.0000 C   0  0  0  0  0  0  0  0  0  0  0  0
   -6.7566    6.5817    0.0000 C   0  0  0  0  0  0  0  0  0  0  0  0
   -8.9141    2.8790    0.0000 C   0  0  0  0  0  0  0  0  0  0  0  0
   -6.0424    2.8790    0.0000 C   0  0  0  0  0  0  0  0  0  0  0  0
   -8.1416    8.3311    0.0000 C   0  0  0  0  0  0  0  0  0  0  0  0
  -11.1008    3.2143    0.0000 C   0  0  0  0  0  0  0  0  0  0  0  0
    7.7042   -6.1882    0.0000 C   0  0  0  0  0  0  0  0  0  0  0  0
    6.2902   -6.4797    0.0000 C   0  0  0  0  0  0  0  0  0  0  0  0
   -5.3135    4.1035    0.0000 C   0  0  0  0  0  0  0  0  0  0  0  0
   -5.3135    3.2872    0.0000 C   0  0  0  0  0  0  0  0  0  0  0  0
    9.0599   -4.1619    0.0000 C   0  0  0  0  0  0  0  0  0  0  0  0
   -7.8791    9.1182    0.0000 C   0  0  0  0  0  0  0  0  0  0  0  0
  -11.6547    2.6021    0.0000 C   0  0  0  0  0  0  0  0  0  0  0  0
    6.9025   -5.9403    0.0000 C   0  0  0  0  0  0  0  0  0  0  0  0
   -6.8150    8.3165    0.0000 C   0  0  0  0  0  0  0  0  0  0  0  0
  -10.4302    2.0481    0.0000 C   0  0  0  0  0  0  0  0  0  0  0  0
   -8.1852    1.6399    0.0000 C   0  0  0  0  0  0  0  0  0  0  0  0
   -6.7421    1.6254    0.0000 C   0  0  0  0  0  0  0  0  0  0  0  0
   -7.0482    9.1036    0.0000 C   0  0  0  0  0  0  0  0  0  0  0  0
  -11.2319    1.8732    0.0000 C   0  0  0  0  0  0  0  0  0  0  0  0
    2.9082   -5.7800    0.0000 C   0  0  0  0  0  0  0  0  0  0  0  0
   -8.9433    8.1561    0.0000 C   0  0  0  0  0  0  0  0  0  0  0  0
  -11.3631    3.9869    0.0000 C   0  0  0  0  0  0  0  0  0  0  0  0
   -7.4564    0.3863    0.0000 C   0  0  0  0  0  0  0  0  0  0  0  0
   -8.1852    0.8091    0.0000 C   0  0  0  0  0  0  0  0  0  0  0  0
   -6.7566    0.8091    0.0000 C   0  0  0  0  0  0  0  0  0  0  0  0
   -8.4331    9.7013    0.0000 C   0  0  0  0  0  0  0  0  0  0  0  0
  -12.4564    2.7624    0.0000 C   0  0  0  0  0  0  0  0  0  0  0  0
    9.0599   -3.3164    0.0000 C   0  0  0  0  0  0  0  0  0  0  0  0
   -9.4972    8.7538    0.0000 C   0  0  0  0  0  0  0  0  0  0  0  0
  -12.1649    4.1619    0.0000 C   0  0  0  0  0  0  0  0  0  0  0  0
   -9.2348    9.5410    0.0000 C   0  0  0  0  0  0  0  0  0  0  0  0
  -12.7189    3.5496    0.0000 C   0  0  0  0  0  0  0  0  0  0  0  0
   -7.4564   -0.4154    0.0000 C   0  0  0  0  0  0  0  0  0  0  0  0
    9.7596   -2.9228    0.0000 C   0  0  0  0  0  0  0  0  0  0  0  0
    9.7742   -2.0919    0.0000 C   0  0  0  0  0  0  0  0  0  0  0  0
   -6.0424   -0.4446    0.0000 C   0  0  0  0  0  0  0  0  0  0  0  0
    9.0599   -1.6545    0.0000 C   0  0  0  0  0  0  0  0  0  0  0  0
   -5.2844   -0.8382    0.0000 C   0  0  0  0  0  0  0  0  0  0  0  0
   -4.6138   -0.4446    0.0000 C   0  0  0  0  0  0  0  0  0  0  0  0
    8.3165   -0.4446    0.0000 C   0  0  0  0  0  0  0  0  0  0  0  0
   -3.8704   -0.8528    0.0000 C   0  0  0  0  0  0  0  0  0  0  0  0
    7.6459   -0.8382    0.0000 C   0  0  0  0  0  0  0  0  0  0  0  0
   -3.1706   -0.4446    0.0000 C   0  0  0  0  0  0  0  0  0  0  0  0
    6.8879   -0.4446    0.0000 C   0  0  0  0  0  0  0  0  0  0  0  0
   -2.4418   -0.8236    0.0000 C   0  0  0  0  0  0  0  0  0  0  0  0
    6.1882   -0.8528    0.0000 C   0  0  0  0  0  0  0  0  0  0  0  0
    5.4447   -0.4446    0.0000 C   0  0  3  0  0  0  0  0  0  0  0  0
    5.5175    0.4154    0.0000 C   0  0  0  0  0  0  0  0  0  0  0  0
   -0.9986   -0.8528    0.0000 C   0  0  0  0  0  0  0  0  0  0  0  0
    4.0161   -0.4446    0.0000 C   0  0  0  0  0  0  0  0  0  0  0  0
   -0.2989   -0.4592    0.0000 C   0  0  0  0  0  0  0  0  0  0  0  0
    3.3164   -0.8528    0.0000 C   0  0  3  0  0  0  0  0  0  0  0  0
    6.1882    1.6399    0.0000 C   0  0  0  0  0  0  0  0  0  0  0  0
    3.3018   -1.6983    0.0000 C   0  0  0  0  0  0  0  0  0  0  0  0
    1.8732   -0.8236    0.0000 C   0  0  0  0  0  0  0  0  0  0  0  0
    1.1443   -0.4446    0.0000 C   0  0  0  0  0  0  0  0  0  0  0  0
    6.8879    2.0481    0.0000 C   0  0  0  0  0  0  0  0  0  0  0  0
    4.0307   -2.0919    0.0000 C   0  0  0  0  0  0  0  0  0  0  0  0
    4.0307   -2.9228    0.0000 C   0  0  0  0  0  0  0  0  0  0  0  0
    7.6168    3.2872    0.0000 C   0  0  0  0  0  0  0  0  0  0  0  0
    4.7450   -4.1473    0.0000 C   0  0  0  0  0  0  0  0  0  0  0  0
    7.6459    4.1181    0.0000 C   0  0  0  0  0  0  0  0  0  0  0  0
    8.3456    5.3572    0.0000 C   0  0  0  0  0  0  0  0  0  0  0  0
    9.0453    5.7508    0.0000 C   0  0  0  0  0  0  0  0  0  0  0  0
   10.4739    5.7654    0.0000 C   0  0  3  0  0  0  0  0  0  0  0  0
   11.2174    5.3864    0.0000 C   0  0  0  0  0  0  0  0  0  0  0  0
   10.4885    6.5963    0.0000 C   0  0  0  0  0  0  0  0  0  0  0  0
  1  6  2  0  0  0  0
  1  7  2  0  0  0  0
  1 27  1  0  0  0  0
  1 57  1  0  0  0  0
  2  8  2  0  0  0  0
  2  9  2  0  0  0  0
  2 10  1  0  0  0  0
  2 59  1  0  0  0  0
  3 11  2  0  0  0  0
  3 12  2  0  0  0  0
  3 13  1  0  0  0  0
  3 61  1  0  0  0  0
  4146  1  0  0  0  0
  5 54  1  0  0  0  0
  5 55  1  0  0  0  0
 14112  2  0  0  0  0
 15116  2  0  0  0  0
 16124  2  0  0  0  0
 17127  2  0  0  0  0
 18129  2  0  0  0  0
 19130  2  0  0  0  0
 20134  2  0  0  0  0
 21136  1  0  0  0  0
 21139  1  0  0  0  0
 22141  1  0  0  0  0
 22142  1  0  0  0  0
 23143  2  0  0  0  0
 24145  2  0  0  0  0
 25 45  1  0  0  0  0
 25 46  1  0  0  0  0
 25 65  1  0  0  0  0
 26 48  2  0  0  0  0
 26 49  1  0  0  0  0
 26 78  1  0  0  0  0
 27 95  1  0  0  0  0
 27 96  1  0  0  0  0
 28 69  2  0  0  0  0
 28 83  1  0  0  0  0
 28 93  1  0  0  0  0
 29 70  1  0  0  0  0
 29 84  1  0  0  0  0
 29 94  1  0  0  0  0
 30112  1  0  0  0  0
 30115  1  0  0  0  0
 31116  1  0  0  0  0
 31119  1  0  0  0  0
 32124  1  0  0  0  0
 32128  1  0  0  0  0
126 33  1  6  0  0  0
 33129  1  0  0  0  0
 34127  1  0  0  0  0
 34132  1  0  0  0  0
 35130  1  0  0  0  0
 35135  1  0  0  0  0
131 36  1  6  0  0  0
 36134  1  0  0  0  0
 37138  1  0  0  0  0
 37140  1  0  0  0  0
 38140  2  3  0  0  0
 39140  1  0  0  0  0
 40143  1  0  0  0  0
144 40  1  1  0  0  0
 41145  1  0  0  0  0
 42 43  1  0  0  0  0
 42 45  1  0  0  0  0
 42 66  1  0  0  0  0
 42 67  1  0  0  0  0
 43 46  2  0  0  0  0
 43 56  1  0  0  0  0
 44 47  1  0  0  0  0
 44 48  1  0  0  0  0
 44 75  1  0  0  0  0
 44 76  1  0  0  0  0
 45 63  2  0  0  0  0
 46 60  1  0  0  0  0
 47 49  2  0  0  0  0
 47 58  1  0  0  0  0
 48 64  1  0  0  0  0
 49 62  1  0  0  0  0
 50 51  2  0  0  0  0
 50 52  1  0  0  0  0
 50 53  1  0  0  0  0
 51 54  1  0  0  0  0
 51 71  1  0  0  0  0
 52 55  2  0  0  0  0
 52 72  1  0  0  0  0
 53 57  2  0  0  0  0
 53 79  1  0  0  0  0
 54 73  2  0  0  0  0
 55 74  1  0  0  0  0
 56 59  2  0  0  0  0
 57 82  1  0  0  0  0
 58 61  2  0  0  0  0
 59 68  1  0  0  0  0
 60 68  2  0  0  0  0
 61 77  1  0  0  0  0
 62 77  2  0  0  0  0
 63 85  1  0  0  0  0
 64 86  2  0  0  0  0
 65 89  1  0  0  0  0
 69 73  1  0  0  0  0
 69 80  1  0  0  0  0
 70 74  2  0  0  0  0
 70 81  1  0  0  0  0
 71 80  2  0  0  0  0
 72 81  2  0  0  0  0
 78 99  1  0  0  0  0
 79 87  2  0  0  0  0
 82 88  2  0  0  0  0
 83 90  2  0  0  0  0
 83100  1  0  0  0  0
 84 91  2  0  0  0  0
 84101  1  0  0  0  0
 85 92  2  0  0  0  0
 86 92  1  0  0  0  0
 87 88  1  0  0  0  0
 89107  1  0  0  0  0
 90 97  1  0  0  0  0
 90105  1  0  0  0  0
 91 98  1  0  0  0  0
 91106  1  0  0  0  0
 93 97  1  0  0  0  0
 94 98  1  0  0  0  0
 95103  1  0  0  0  0
 96104  1  0  0  0  0
100108  2  0  0  0  0
101109  2  0  0  0  0
102103  1  0  0  0  0
102104  1  0  0  0  0
102112  1  0  0  0  0
105110  2  0  0  0  0
106111  2  0  0  0  0
107113  1  0  0  0  0
108110  1  0  0  0  0
109111  1  0  0  0  0
113114  1  0  0  0  0
114116  1  0  0  0  0
115117  1  0  0  0  0
117118  1  0  0  0  0
118120  1  0  0  0  0
119121  1  0  0  0  0
120122  1  0  0  0  0
121123  1  0  0  0  0
122124  1  0  0  0  0
123125  1  0  0  0  0
125126  1  0  0  0  0
126127  1  0  0  0  0
128130  1  0  0  0  0
129131  1  0  0  0  0
131133  1  0  0  0  0
132136  1  0  0  0  0
133137  1  0  0  0  0
134135  1  0  0  0  0
137138  1  0  0  0  0
139141  1  0  0  0  0
142143  1  0  0  0  0
144145  1  0  0  0  0
144146  1  0  0  0  0
M  CHG  2  26   1  28   1
M  END
> <PUBCHEM_COMPOUND_ID_TYPE>
0

> <PUBCHEM_TOTAL_CHARGE>
2

> <PUBCHEM_SUBSTANCE_ID>
310944853

> <PUBCHEM_SUBSTANCE_VERSION>
1

> <PUBCHEM_EXT_DATASOURCE_NAME>
4488

> <PUBCHEM_EXT_DATASOURCE_REGID>
SCHEMBL16122935

> <PUBCHEM_SUBSTANCE_COMMENT>
InChI=1S/C105H131N17O20S4/c1-6-119-86-43-39-74(145(134,135)136)63-79(86)104(2,3)91(119)33-10-7-11-34-92-105(4,5)80-64-75(146(137,138)139)40-44-87(80)122(92)53-23-9-13-35-93(123)109-49-22-20-28-81(101(130)111-52-58-140-59-60-141-67-97(127)116-83(68-143)99(106)128)117-102(131)82(29-24-51-112-103(107)108)115-96(126)66-114-95(125)65-113-94(124)36-12-8-21-50-110-100(129)71-45-54-118(55-46-71)144(132,133)90-32-19-16-27-78(90)98-76-41-37-72(120-56-47-69-25-14-17-30-84(69)120)61-88(76)142-89-62-73(38-42-77(89)98)121-57-48-70-26-15-18-31-85(70)121/h7,10-11,14-19,25-27,30-34,37-44,61-64,71,81-83H,6,8-9,12-13,20-24,28-29,35-36,45-60,65-68H2,1-5H3,(H15-2,106,107,108,109,110,111,112,113,114,115,116,117,123,124,125,126,127,128,129,130,131,134,135,136,137,138,139,143)/p+2/t81-,82-,83-/m0/s1
InChIKey=UTEVTICIJTUJKP-ROUGFKMUSA-P

> <PUBCHEM_SUBSTANCE_SYNONYM>
SCHEMBL16122935

> <PUBCHEM_XREF_EXT_ID>
SCHEMBL16122935

> <PUBCHEM_EXT_DATASOURCE_URL>
https://www.surechembl.org/

> <PUBCHEM_EXT_SUBSTANCE_URL>
https://www.surechembl.org/chemical/SCHEMBL16122935

> <PUBCHEM_CID_ASSOCIATIONS>
117611051  1

> <PUBCHEM_COORDINATE_TYPE>
1
3

> <PUBCHEM_BONDANNOTATIONS>
126  33  6
131  36  6
144  40  5

$$$$
