310948564
  -OEChem-07211613022D

 44 49  0     0  0  0  0  0  0999 V2000
   -0.4440   -2.9547    0.0000 S   0  0  0  0  0  0  0  0  0  0  0  0
   -1.5815    4.5239    0.0000 F   0  0  0  0  0  0  0  0  0  0  0  0
   -0.4752    4.7266    0.0000 F   0  0  0  0  0  0  0  0  0  0  0  0
   -0.3038    3.6047    0.0000 F   0  0  0  0  0  0  0  0  0  0  0  0
    2.5786   -2.8456    0.0000 F   0  0  0  0  0  0  0  0  0  0  0  0
    2.0333   -1.8173    0.0000 F   0  0  0  0  0  0  0  0  0  0  0  0
    1.5347   -3.3442    0.0000 F   0  0  0  0  0  0  0  0  0  0  0  0
    0.8803    1.5013    0.0000 O   0  0  0  0  0  0  0  0  0  0  0  0
    1.0049   -2.3315    0.0000 O   0  0  0  0  0  0  0  0  0  0  0  0
   -0.4440   -2.9547    0.0000 O   0  0  0  0  0  0  0  0  0  0  0  0
   -0.4440   -2.9547    0.0000 O   0  0  0  0  0  0  0  0  0  0  0  0
   -0.3194    2.0623    0.0000 N   0  0  0  0  0  0  0  0  0  0  0  0
   -1.8463    2.0779    0.0000 N   0  0  0  0  0  0  0  0  0  0  0  0
   -1.1608    2.5920    0.0000 N   0  0  0  0  0  0  0  0  0  0  0  0
   -0.4129    1.2521    0.0000 C   0  0  0  0  0  0  0  0  0  0  0  0
   -1.1140    0.8314    0.0000 C   0  0  0  0  0  0  0  0  0  0  0  0
    0.3350    0.8937    0.0000 C   0  0  0  0  0  0  0  0  0  0  0  0
   -1.8463    1.2521    0.0000 C   0  0  0  0  0  0  0  0  0  0  0  0
    0.4596    2.2336    0.0000 C   0  0  0  0  0  0  0  0  0  0  0  0
    0.8024    2.9970    0.0000 C   0  0  0  0  0  0  0  0  0  0  0  0
    0.5064    0.0991    0.0000 C   0  0  0  0  0  0  0  0  0  0  0  0
   -1.1140   -0.0412    0.0000 C   0  0  0  0  0  0  0  0  0  0  0  0
   -1.8463   -0.4618    0.0000 C   0  0  0  0  0  0  0  0  0  0  0  0
   -2.5786    0.8158    0.0000 C   0  0  0  0  0  0  0  0  0  0  0  0
   -1.8463   -1.2876    0.0000 C   0  0  0  0  0  0  0  0  0  0  0  0
   -2.5786   -0.0412    0.0000 C   0  0  0  0  0  0  0  0  0  0  0  0
   -1.4256    3.4022    0.0000 C   0  0  0  0  0  0  0  0  0  0  0  0
    0.7401    3.7917    0.0000 C   0  0  0  0  0  0  0  0  0  0  0  0
    1.4412    3.4645    0.0000 C   0  0  0  0  0  0  0  0  0  0  0  0
   -2.5318    2.5920    0.0000 C   0  0  0  0  0  0  0  0  0  0  0  0
   -0.0857   -0.4462    0.0000 C   0  0  0  0  0  0  0  0  0  0  0  0
    1.2698   -0.1658    0.0000 C   0  0  0  0  0  0  0  0  0  0  0  0
   -2.2670    3.4022    0.0000 C   0  0  0  0  0  0  0  0  0  0  0  0
   -0.9426    4.0721    0.0000 C   0  0  0  0  0  0  0  0  0  0  0  0
   -1.1452   -1.7083    0.0000 C   0  0  0  0  0  0  0  0  0  0  0  0
   -1.1608   -2.5184    0.0000 C   0  0  0  0  0  0  0  0  0  0  0  0
   -2.5474   -1.7083    0.0000 C   0  0  0  0  0  0  0  0  0  0  0  0
    0.8336   -1.5213    0.0000 C   0  0  0  0  0  0  0  0  0  0  0  0
    0.0701   -1.2564    0.0000 C   0  0  0  0  0  0  0  0  0  0  0  0
    1.4256   -0.9915    0.0000 C   0  0  0  0  0  0  0  0  0  0  0  0
   -1.8307   -2.9391    0.0000 C   0  0  0  0  0  0  0  0  0  0  0  0
   -2.5474   -2.5340    0.0000 C   0  0  0  0  0  0  0  0  0  0  0  0
    1.7840   -2.5808    0.0000 C   0  0  0  0  0  0  0  0  0  0  0  0
    1.2741   -4.7266    0.0000 C   0  0  0  0  0  0  0  0  0  0  0  0
  1 10  2  0  0  0  0
  1 11  2  0  0  0  0
  1 36  1  0  0  0  0
  1 44  1  0  0  0  0
  2 34  1  0  0  0  0
  3 34  1  0  0  0  0
  4 34  1  0  0  0  0
  5 43  1  0  0  0  0
  6 43  1  0  0  0  0
  7 43  1  0  0  0  0
  8 17  1  0  0  0  0
  8 19  1  0  0  0  0
  9 38  1  0  0  0  0
  9 43  1  0  0  0  0
 12 15  1  0  0  0  0
 12 19  2  0  0  0  0
 13 14  1  0  0  0  0
 13 18  1  0  0  0  0
 13 30  1  0  0  0  0
 14 27  2  0  0  0  0
 15 16  1  0  0  0  0
 15 17  2  0  0  0  0
 16 18  1  0  0  0  0
 16 22  2  0  0  0  0
 17 21  1  0  0  0  0
 18 24  2  0  0  0  0
 19 20  1  0  0  0  0
 20 28  1  0  0  0  0
 20 29  1  0  0  0  0
 21 31  2  0  0  0  0
 21 32  1  0  0  0  0
 22 23  1  0  0  0  0
 23 25  1  0  0  0  0
 23 26  2  0  0  0  0
 24 26  1  0  0  0  0
 25 35  2  0  0  0  0
 25 37  1  0  0  0  0
 27 33  1  0  0  0  0
 27 34  1  0  0  0  0
 28 29  1  0  0  0  0
 30 33  2  0  0  0  0
 31 39  1  0  0  0  0
 32 40  2  0  0  0  0
 35 36  1  0  0  0  0
 36 41  2  0  0  0  0
 37 42  2  0  0  0  0
 38 39  2  0  0  0  0
 38 40  1  0  0  0  0
 41 42  1  0  0  0  0
M  END
> <PUBCHEM_COMPOUND_ID_TYPE>
0

> <PUBCHEM_TOTAL_CHARGE>
0

> <PUBCHEM_SUBSTANCE_ID>
310948564

> <PUBCHEM_SUBSTANCE_VERSION>
1

> <PUBCHEM_EXT_DATASOURCE_NAME>
4488

> <PUBCHEM_EXT_DATASOURCE_REGID>
SCHEMBL16126746

> <PUBCHEM_SUBSTANCE_COMMENT>
InChI=1S/C30H21F6N3O4S/c1-44(40,41)22-4-2-3-19(15-22)20-9-12-24(39-14-13-25(38-39)29(31,32)33)23(16-20)26-27(42-28(37-26)18-5-6-18)17-7-10-21(11-8-17)43-30(34,35)36/h2-4,7-16,18H,5-6H2,1H3
InChIKey=CGJVNUKNMNJBJF-UHFFFAOYSA-N

> <PUBCHEM_SUBSTANCE_SYNONYM>
SCHEMBL16126746

> <PUBCHEM_XREF_EXT_ID>
SCHEMBL16126746

> <PUBCHEM_EXT_DATASOURCE_URL>
https://www.surechembl.org/

> <PUBCHEM_EXT_SUBSTANCE_URL>
https://www.surechembl.org/chemical/SCHEMBL16126746

> <PUBCHEM_CID_ASSOCIATIONS>
117614114  1

> <PUBCHEM_COORDINATE_TYPE>
1
3

$$$$
