310929044
  -OEChem-07211613022D

 51 56  0     0  0  0  0  0  0999 V2000
    5.8197   -7.9576    0.0000 O   0  0  0  0  0  0  0  0  0  0  0  0
    4.2757   -5.3447    0.0000 O   0  0  0  0  0  0  0  0  0  0  0  0
    2.8505   -8.6108    0.0000 O   0  0  0  0  0  0  0  0  0  0  0  0
    7.0668   -7.7794    0.0000 O   0  0  0  0  0  0  0  0  0  0  0  0
    7.7794  -10.9862    0.0000 O   0  0  0  0  0  0  0  0  0  0  0  0
    1.5440   -0.4157    0.0000 O   0  0  0  0  0  0  0  0  0  0  0  0
    0.0000   -3.6819    0.0000 O   0  0  0  0  0  0  0  0  0  0  0  0
    4.2163   -8.6108    0.0000 N   0  0  0  0  0  0  0  0  0  0  0  0
    7.7794   -9.0265    0.0000 N   0  0  0  0  0  0  0  0  0  0  0  0
    3.5631   -9.8579    0.0000 N   0  0  0  0  0  0  0  0  0  0  0  0
    2.1378   -4.0976    0.0000 N   0  0  0  0  0  0  0  0  0  0  0  0
    2.9098   -2.9098    0.0000 N   0  0  0  0  0  0  0  0  0  0  0  0
    4.9290   -9.0265    0.0000 C   0  0  0  0  0  0  0  0  0  0  0  0
    4.2163   -7.8388    0.0000 C   0  0  0  0  0  0  0  0  0  0  0  0
    5.6416   -8.6108    0.0000 C   0  0  0  0  0  0  0  0  0  0  0  0
    4.9290   -7.4232    0.0000 C   0  0  0  0  0  0  0  0  0  0  0  0
    6.3542   -9.0265    0.0000 C   0  0  0  0  0  0  0  0  0  0  0  0
    4.9290   -6.5917    0.0000 C   0  0  0  0  0  0  0  0  0  0  0  0
    5.6416  -10.2736    0.0000 C   0  0  0  0  0  0  0  0  0  0  0  0
    4.9290   -9.8579    0.0000 C   0  0  0  0  0  0  0  0  0  0  0  0
    4.2163   -6.1761    0.0000 C   0  0  0  0  0  0  0  0  0  0  0  0
    6.3542   -9.8579    0.0000 C   0  0  0  0  0  0  0  0  0  0  0  0
    3.5631   -9.0265    0.0000 C   0  0  0  0  0  0  0  0  0  0  0  0
    3.5631   -7.4232    0.0000 C   0  0  0  0  0  0  0  0  0  0  0  0
    5.6416  -11.0457    0.0000 C   0  0  0  0  0  0  0  0  0  0  0  0
    7.0668   -8.6108    0.0000 C   0  0  0  0  0  0  0  0  0  0  0  0
    3.5631   -6.5917    0.0000 C   0  0  0  0  0  0  0  0  0  0  0  0
    5.6416   -7.8388    0.0000 C   0  0  0  0  0  0  0  0  0  0  0  0
    5.6416   -6.1761    0.0000 C   0  0  0  0  0  0  0  0  0  0  0  0
    6.3542   -7.4232    0.0000 C   0  0  0  0  0  0  0  0  0  0  0  0
    6.3542   -6.5917    0.0000 C   0  0  0  0  0  0  0  0  0  0  0  0
    3.5631   -4.9290    0.0000 C   0  0  0  0  0  0  0  0  0  0  0  0
    4.8102  -11.0457    0.0000 C   0  0  0  0  0  0  0  0  0  0  0  0
    5.6416  -11.8770    0.0000 C   0  0  0  0  0  0  0  0  0  0  0  0
    6.4730  -11.0457    0.0000 C   0  0  0  0  0  0  0  0  0  0  0  0
    7.7794   -9.8579    0.0000 C   0  0  0  0  0  0  0  0  0  0  0  0
    5.1071   -7.5419    0.0000 C   0  0  0  0  0  0  0  0  0  0  0  0
    3.5631   -4.1569    0.0000 C   0  0  0  0  0  0  0  0  0  0  0  0
    2.8505   -5.3447    0.0000 C   0  0  0  0  0  0  0  0  0  0  0  0
    2.8505   -3.7413    0.0000 C   0  0  0  0  0  0  0  0  0  0  0  0
    7.1856  -10.4518    0.0000 C   0  0  0  0  0  0  0  0  0  0  0  0
    8.3733  -10.4518    0.0000 C   0  0  0  0  0  0  0  0  0  0  0  0
    2.1378   -4.9290    0.0000 C   0  0  0  0  0  0  0  0  0  0  0  0
    2.1972   -2.4942    0.0000 C   0  0  0  0  0  0  0  0  0  0  0  0
    2.1972   -1.6628    0.0000 C   0  0  0  0  0  0  0  0  0  0  0  0
    1.4847   -2.8505    0.0000 C   0  0  0  0  0  0  0  0  0  0  0  0
    1.4847   -1.2471    0.0000 C   0  0  0  0  0  0  0  0  0  0  0  0
    0.7720   -2.4348    0.0000 C   0  0  0  0  0  0  0  0  0  0  0  0
    0.7720   -1.6034    0.0000 C   0  0  0  0  0  0  0  0  0  0  0  0
    0.0594   -2.8505    0.0000 C   0  0  0  0  0  0  0  0  0  0  0  0
    0.8314    0.0000    0.0000 C   0  0  0  0  0  0  0  0  0  0  0  0
  1 15  1  0  0  0  0
  1 37  1  0  0  0  0
  2 21  1  0  0  0  0
  2 32  1  0  0  0  0
  3 23  2  0  0  0  0
  4 26  2  0  0  0  0
  5 41  1  0  0  0  0
  5 42  1  0  0  0  0
  6 47  1  0  0  0  0
  6 51  1  0  0  0  0
  7 50  1  0  0  0  0
  8 13  1  0  0  0  0
  8 14  1  0  0  0  0
  8 23  1  0  0  0  0
  9 26  1  0  0  0  0
  9 36  1  0  0  0  0
 10 23  1  0  0  0  0
 11 40  2  0  0  0  0
 11 43  1  0  0  0  0
 12 40  1  0  0  0  0
 12 44  1  0  0  0  0
 13 15  1  0  0  0  0
 13 20  2  0  0  0  0
 14 16  1  0  0  0  0
 14 24  2  0  0  0  0
 15 17  2  0  0  0  0
 16 18  2  0  0  0  0
 16 28  1  0  0  0  0
 17 22  1  0  0  0  0
 17 26  1  0  0  0  0
 18 21  1  0  0  0  0
 18 29  1  0  0  0  0
 19 20  1  0  0  0  0
 19 22  2  0  0  0  0
 19 25  1  0  0  0  0
 21 27  2  0  0  0  0
 24 27  1  0  0  0  0
 25 33  1  0  0  0  0
 25 34  1  0  0  0  0
 25 35  1  0  0  0  0
 28 30  2  0  0  0  0
 29 31  2  0  0  0  0
 30 31  1  0  0  0  0
 32 38  2  0  0  0  0
 32 39  1  0  0  0  0
 36 41  1  0  0  0  0
 36 42  1  0  0  0  0
 38 40  1  0  0  0  0
 39 43  2  0  0  0  0
 44 45  2  0  0  0  0
 44 46  1  0  0  0  0
 45 47  1  0  0  0  0
 46 48  2  0  0  0  0
 47 49  2  0  0  0  0
 48 49  1  0  0  0  0
 48 50  1  0  0  0  0
M  END
> <PUBCHEM_COMPOUND_ID_TYPE>
0

> <PUBCHEM_TOTAL_CHARGE>
0

> <PUBCHEM_SUBSTANCE_ID>
310929044

> <PUBCHEM_SUBSTANCE_VERSION>
1

> <PUBCHEM_EXT_DATASOURCE_NAME>
4488

> <PUBCHEM_EXT_DATASOURCE_REGID>
SCHEMBL16106206

> <PUBCHEM_SUBSTANCE_COMMENT>
InChI=1S/C39H41N5O7/c1-39(2,3)24-16-31(37(46)43-26-21-50-22-26)36(49-5)33(17-24)44(38(40)47)32-10-11-34(30-9-7-6-8-29(30)32)51-27-12-13-41-35(19-27)42-25-14-23(20-45)15-28(18-25)48-4/h6-19,26,45H,20-22H2,1-5H3,(H2,40,47)(H,41,42)(H,43,46)
InChIKey=KYMAFBPWUHLVII-UHFFFAOYSA-N

> <PUBCHEM_SUBSTANCE_SYNONYM>
SCHEMBL16106206

> <PUBCHEM_XREF_EXT_ID>
SCHEMBL16106206

> <PUBCHEM_EXT_DATASOURCE_URL>
https://www.surechembl.org/

> <PUBCHEM_EXT_SUBSTANCE_URL>
https://www.surechembl.org/chemical/SCHEMBL16106206

> <PUBCHEM_CID_ASSOCIATIONS>
117598558  1

> <PUBCHEM_COORDINATE_TYPE>
1
3

$$$$
