310946688
  -OEChem-07211613022D

 32 34  0     0  0  0  0  0  0999 V2000
    0.2826    0.7898    0.0000 F   0  0  0  0  0  0  0  0  0  0  0  0
   -1.1665    3.3111    0.0000 F   0  0  0  0  0  0  0  0  0  0  0  0
    1.7171    3.3111    0.0000 O   0  0  0  0  0  0  0  0  0  0  0  0
   -0.6014   -1.9200    0.0000 N   0  0  0  0  0  0  0  0  0  0  0  0
    0.5434   -1.0940    0.0000 N   0  0  0  0  0  0  0  0  0  0  0  0
   -1.1665    0.7898    0.0000 N   0  0  0  0  0  0  0  0  0  0  0  0
   -0.4854   -3.3400    0.0000 N   0  0  0  0  0  0  0  0  0  0  0  0
   -0.4854    0.2970    0.0000 N   0  0  0  0  0  0  0  0  0  0  0  0
    1.1665   -3.1806    0.0000 N   0  0  0  0  0  0  0  0  0  0  0  0
    1.8620   -1.6591    0.0000 N   0  0  0  0  0  0  0  0  0  0  0  0
   -0.4854   -3.3400    0.0000 N   0  0  0  0  0  0  0  0  0  0  0  0
   -0.4854   -3.3400    0.0000 N   0  0  0  0  0  0  0  0  0  0  0  0
   -0.2826   -1.1230    0.0000 C   0  0  0  0  0  0  0  0  0  0  0  0
   -0.7608   -0.4854    0.0000 C   0  0  0  0  0  0  0  0  0  0  0  0
   -1.6157   -0.4710    0.0000 C   0  0  0  0  0  0  0  0  0  0  0  0
   -0.1376   -2.5286    0.0000 C   0  0  0  0  0  0  0  0  0  0  0  0
   -1.8475    0.3116    0.0000 C   0  0  0  0  0  0  0  0  0  0  0  0
    0.6593   -2.4707    0.0000 C   0  0  0  0  0  0  0  0  0  0  0  0
    1.0071   -1.7026    0.0000 C   0  0  0  0  0  0  0  0  0  0  0  0
   -0.4564    2.0794    0.0000 C   0  0  0  0  0  0  0  0  0  0  0  0
    0.2826    1.6447    0.0000 C   0  0  0  0  0  0  0  0  0  0  0  0
   -0.4564    2.9054    0.0000 C   0  0  0  0  0  0  0  0  0  0  0  0
   -2.1519   -1.0940    0.0000 C   0  0  0  0  0  0  0  0  0  0  0  0
   -1.1520    1.6737    0.0000 C   0  0  0  0  0  0  0  0  0  0  0  0
   -2.6590    0.4854    0.0000 C   0  0  0  0  0  0  0  0  0  0  0  0
    1.0071    2.9198    0.0000 C   0  0  0  0  0  0  0  0  0  0  0  0
    0.9926    2.0649    0.0000 C   0  0  0  0  0  0  0  0  0  0  0  0
    0.2681    3.2966    0.0000 C   0  0  0  0  0  0  0  0  0  0  0  0
   -2.9923   -0.9201    0.0000 C   0  0  0  0  0  0  0  0  0  0  0  0
   -3.1952   -0.1232    0.0000 C   0  0  0  0  0  0  0  0  0  0  0  0
    2.4851    2.9489    0.0000 C   0  0  0  0  0  0  0  0  0  0  0  0
    3.1952    3.3400    0.0000 C   0  0  0  0  0  0  0  0  0  0  0  0
  1 21  1  0  0  0  0
  2 22  1  0  0  0  0
  3 26  1  0  0  0  0
  3 31  1  0  0  0  0
  4 13  2  0  0  0  0
  4 16  1  0  0  0  0
  5 13  1  0  0  0  0
  5 19  2  0  0  0  0
  6 17  1  0  0  0  0
  6 24  1  0  0  0  0
  7 11  2  3  0  0  0
  7 16  1  0  0  0  0
  8 14  2  3  0  0  0
  9 18  1  0  0  0  0
 10 19  1  0  0  0  0
 11 12  1  0  0  0  0
 13 14  1  0  0  0  0
 14 15  1  0  0  0  0
 15 17  2  0  0  0  0
 15 23  1  0  0  0  0
 16 18  2  0  0  0  0
 17 25  1  0  0  0  0
 18 19  1  0  0  0  0
 20 21  2  0  0  0  0
 20 22  1  0  0  0  0
 20 24  1  0  0  0  0
 21 27  1  0  0  0  0
 22 28  2  0  0  0  0
 23 29  2  0  0  0  0
 25 30  2  0  0  0  0
 26 27  2  0  0  0  0
 26 28  1  0  0  0  0
 29 30  1  0  0  0  0
 31 32  1  0  0  0  0
M  END
> <PUBCHEM_COMPOUND_ID_TYPE>
0

> <PUBCHEM_TOTAL_CHARGE>
0

> <PUBCHEM_SUBSTANCE_ID>
310946688

> <PUBCHEM_SUBSTANCE_VERSION>
1

> <PUBCHEM_EXT_DATASOURCE_NAME>
4488

> <PUBCHEM_EXT_DATASOURCE_REGID>
SCHEMBL16124811

> <PUBCHEM_SUBSTANCE_COMMENT>
InChI=1S/C20H21F2N9O/c1-2-32-10-7-13(21)12(14(22)8-10)9-27-15-6-4-3-5-11(15)16(23)19-28-18(25)17(24)20(29-19)30-31-26/h3-8,23,27H,2,9,24H2,1H3,(H4,25,26,28,29,30)
InChIKey=KDLOWQVKEKXDRA-UHFFFAOYSA-N

> <PUBCHEM_SUBSTANCE_SYNONYM>
SCHEMBL16124811

> <PUBCHEM_XREF_EXT_ID>
SCHEMBL16124811

> <PUBCHEM_EXT_DATASOURCE_URL>
https://www.surechembl.org/

> <PUBCHEM_EXT_SUBSTANCE_URL>
https://www.surechembl.org/chemical/SCHEMBL16124811

> <PUBCHEM_CID_ASSOCIATIONS>
117612585  1

> <PUBCHEM_COORDINATE_TYPE>
1
3

$$$$
