310948431
  -OEChem-07211613022D

 43 47  0     0  0  0  0  0  0999 V2000
    2.5938   -1.6045    0.0000 S   0  0  0  0  0  0  0  0  0  0  0  0
    3.0200    3.3728    0.0000 F   0  0  0  0  0  0  0  0  0  0  0  0
    1.8926    3.0429    0.0000 F   0  0  0  0  0  0  0  0  0  0  0  0
    3.2813    2.2454    0.0000 F   0  0  0  0  0  0  0  0  0  0  0  0
   -2.3423    1.4204    0.0000 O   0  0  0  0  0  0  0  0  0  0  0  0
    2.1813    1.9567    0.0000 O   0  0  0  0  0  0  0  0  0  0  0  0
   -4.3085    0.7192    0.0000 O   0  0  0  0  0  0  0  0  0  0  0  0
   -4.3085    0.7192    0.0000 O   0  0  0  0  0  0  0  0  0  0  0  0
    2.5938   -1.6045    0.0000 O   0  0  0  0  0  0  0  0  0  0  0  0
    2.5938   -1.6045    0.0000 O   0  0  0  0  0  0  0  0  0  0  0  0
   -2.3698   -0.1746    0.0000 N   0  0  0  0  0  0  0  0  0  0  0  0
   -1.6823    2.5754    0.0000 N   0  0  0  0  0  0  0  0  0  0  0  0
   -2.8510    0.4992    0.0000 N   0  0  0  0  0  0  0  0  0  0  0  0
   -1.1186    0.5542    0.0000 C   0  0  0  0  0  0  0  0  0  0  0  0
   -1.5449    1.2554    0.0000 C   0  0  0  0  0  0  0  0  0  0  0  0
   -1.5311   -0.1608    0.0000 C   0  0  0  0  0  0  0  0  0  0  0  0
   -1.1324    1.9703    0.0000 C   0  0  0  0  0  0  0  0  0  0  0  0
   -0.2936    0.5404    0.0000 C   0  0  0  0  0  0  0  0  0  0  0  0
    0.1051   -0.1608    0.0000 C   0  0  0  0  0  0  0  0  0  0  0  0
   -0.2936    1.9703    0.0000 C   0  0  0  0  0  0  0  0  0  0  0  0
   -2.4249    2.2316    0.0000 C   0  0  0  0  0  0  0  0  0  0  0  0
   -1.1186   -0.8758    0.0000 C   0  0  0  0  0  0  0  0  0  0  0  0
    0.9438   -0.1746    0.0000 C   0  0  0  0  0  0  0  0  0  0  0  0
   -0.2936   -0.8758    0.0000 C   0  0  0  0  0  0  0  0  0  0  0  0
   -2.8510   -0.8345    0.0000 C   0  0  0  0  0  0  0  0  0  0  0  0
   -3.6211    0.2517    0.0000 C   0  0  0  0  0  0  0  0  0  0  0  0
    0.1188    1.2691    0.0000 C   0  0  0  0  0  0  0  0  0  0  0  0
    0.1188    2.6716    0.0000 C   0  0  0  0  0  0  0  0  0  0  0  0
    1.3563   -0.8621    0.0000 C   0  0  0  0  0  0  0  0  0  0  0  0
   -3.6348   -0.5733    0.0000 C   0  0  0  0  0  0  0  0  0  0  0  0
    2.1813   -0.8758    0.0000 C   0  0  0  0  0  0  0  0  0  0  0  0
    1.3563    0.5404    0.0000 C   0  0  0  0  0  0  0  0  0  0  0  0
   -4.3085    0.7192    0.0000 C   0  0  0  0  0  0  0  0  0  0  0  0
    1.3426    1.9703    0.0000 C   0  0  0  0  0  0  0  0  0  0  0  0
    0.9438    1.2691    0.0000 C   0  0  0  0  0  0  0  0  0  0  0  0
    0.9438    2.6716    0.0000 C   0  0  0  0  0  0  0  0  0  0  0  0
   -3.1536    2.6441    0.0000 C   0  0  0  0  0  0  0  0  0  0  0  0
    2.5938   -0.1608    0.0000 C   0  0  0  0  0  0  0  0  0  0  0  0
    2.1813    0.5404    0.0000 C   0  0  0  0  0  0  0  0  0  0  0  0
    2.6075    2.6716    0.0000 C   0  0  0  0  0  0  0  0  0  0  0  0
    4.3085   -3.3728    0.0000 C   0  0  0  0  0  0  0  0  0  0  0  0
   -2.5565   -1.3343    0.0000 C   0  0  0  0  0  0  0  0  0  0  0  0
   -1.9725   -1.3343    0.0000 C   0  0  0  0  0  0  0  0  0  0  0  0
  1  9  2  0  0  0  0
  1 10  2  0  0  0  0
  1 31  1  0  0  0  0
  1 41  1  0  0  0  0
  2 40  1  0  0  0  0
  3 40  1  0  0  0  0
  4 40  1  0  0  0  0
  5 15  1  0  0  0  0
  5 21  1  0  0  0  0
  6 34  1  0  0  0  0
  6 40  1  0  0  0  0
  7 33  1  0  0  0  0
  7 42  1  0  0  0  0
  8 33  2  0  0  0  0
 11 13  1  0  0  0  0
 11 16  1  0  0  0  0
 11 25  1  0  0  0  0
 12 17  1  0  0  0  0
 12 21  2  0  0  0  0
 13 26  2  0  0  0  0
 14 15  1  0  0  0  0
 14 16  1  0  0  0  0
 14 18  2  0  0  0  0
 15 17  2  0  0  0  0
 16 22  2  0  0  0  0
 17 20  1  0  0  0  0
 18 19  1  0  0  0  0
 19 23  1  0  0  0  0
 19 24  2  0  0  0  0
 20 27  2  0  0  0  0
 20 28  1  0  0  0  0
 21 37  1  0  0  0  0
 22 24  1  0  0  0  0
 23 29  2  0  0  0  0
 23 32  1  0  0  0  0
 25 30  2  0  0  0  0
 26 30  1  0  0  0  0
 26 33  1  0  0  0  0
 27 35  1  0  0  0  0
 28 36  2  0  0  0  0
 29 31  1  0  0  0  0
 31 38  2  0  0  0  0
 32 39  2  0  0  0  0
 34 35  2  0  0  0  0
 34 36  1  0  0  0  0
 38 39  1  0  0  0  0
 42 43  1  0  0  0  0
M  END
> <PUBCHEM_COMPOUND_ID_TYPE>
0

> <PUBCHEM_TOTAL_CHARGE>
0

> <PUBCHEM_SUBSTANCE_ID>
310948431

> <PUBCHEM_SUBSTANCE_VERSION>
1

> <PUBCHEM_EXT_DATASOURCE_NAME>
4488

> <PUBCHEM_EXT_DATASOURCE_REGID>
SCHEMBL16126612

> <PUBCHEM_SUBSTANCE_COMMENT>
InChI=1S/C30H24F3N3O6S/c1-4-40-29(37)25-14-15-36(35-25)26-13-10-21(20-6-5-7-23(16-20)43(3,38)39)17-24(26)28-27(34-18(2)41-28)19-8-11-22(12-9-19)42-30(31,32)33/h5-17H,4H2,1-3H3
InChIKey=OUOVORXACNMLRM-UHFFFAOYSA-N

> <PUBCHEM_SUBSTANCE_SYNONYM>
SCHEMBL16126612

> <PUBCHEM_XREF_EXT_ID>
SCHEMBL16126612

> <PUBCHEM_EXT_DATASOURCE_URL>
https://www.surechembl.org/

> <PUBCHEM_EXT_SUBSTANCE_URL>
https://www.surechembl.org/chemical/SCHEMBL16126612

> <PUBCHEM_CID_ASSOCIATIONS>
117613989  1

> <PUBCHEM_COORDINATE_TYPE>
1
3

$$$$
