310948110
  -OEChem-07211613022D

 41 45  0     1  0  0  0  0  0999 V2000
    0.0639   -2.9708    0.0000 S   0  0  0  0  0  0  0  0  0  0  0  0
    3.0843   -2.9229    0.0000 F   0  0  0  0  0  0  0  0  0  0  0  0
    2.5409   -1.8841    0.0000 F   0  0  0  0  0  0  0  0  0  0  0  0
    2.0295   -3.4183    0.0000 F   0  0  0  0  0  0  0  0  0  0  0  0
    0.1438    2.0151    0.0000 O   0  0  0  0  0  0  0  0  0  0  0  0
    1.5022   -2.4115    0.0000 O   0  0  0  0  0  0  0  0  0  0  0  0
    0.0639   -2.9708    0.0000 O   0  0  0  0  0  0  0  0  0  0  0  0
    0.0639   -2.9708    0.0000 O   0  0  0  0  0  0  0  0  0  0  0  0
   -3.0843    3.8848    0.0000 O   0  0  0  0  0  0  0  0  0  0  0  0
   -1.3743    2.0311    0.0000 N   0  0  0  0  0  0  0  0  0  0  0  0
    1.3584    1.4718    0.0000 N   0  0  0  0  0  0  0  0  0  0  0  0
   -2.0295    2.5265    0.0000 N   0  0  0  0  0  0  0  0  0  0  0  0
   -0.6552    0.7846    0.0000 C   0  0  0  0  0  0  0  0  0  0  0  0
    0.0639    1.2001    0.0000 C   0  0  0  0  0  0  0  0  0  0  0  0
   -1.3743    1.1841    0.0000 C   0  0  0  0  0  0  0  0  0  0  0  0
    0.8150    0.8486    0.0000 C   0  0  0  0  0  0  0  0  0  0  0  0
   -0.6552   -0.0464    0.0000 C   0  0  0  0  0  0  0  0  0  0  0  0
   -1.3584   -0.4618    0.0000 C   0  0  0  0  0  0  0  0  0  0  0  0
    0.9908    0.0495    0.0000 C   0  0  0  0  0  0  0  0  0  0  0  0
    0.9588    2.1909    0.0000 C   0  0  0  0  0  0  0  0  0  0  0  0
   -2.0775    0.7846    0.0000 C   0  0  0  0  0  0  0  0  0  0  0  0
   -1.3743   -1.2929    0.0000 C   0  0  0  0  0  0  0  0  0  0  0  0
   -2.0615   -0.0624    0.0000 C   0  0  0  0  0  0  0  0  0  0  0  0
   -0.7032    2.5265    0.0000 C   0  0  0  0  0  0  0  0  0  0  0  0
   -1.7738    3.3256    0.0000 C   0  0  0  0  0  0  0  0  0  0  0  0
    1.7578   -0.2221    0.0000 C   0  0  0  0  0  0  0  0  0  0  0  0
    0.3835   -0.5098    0.0000 C   0  0  0  0  0  0  0  0  0  0  0  0
   -0.6552   -1.7403    0.0000 C   0  0  0  0  0  0  0  0  0  0  0  0
   -0.6712   -2.5393    0.0000 C   0  0  0  0  0  0  0  0  0  0  0  0
   -0.9429    3.2935    0.0000 C   0  0  0  0  0  0  0  0  0  0  0  0
   -2.0775   -1.7243    0.0000 C   0  0  0  0  0  0  0  0  0  0  0  0
    1.3264   -1.5805    0.0000 C   0  0  0  0  0  0  0  0  0  0  0  0
    1.9337   -1.0371    0.0000 C   0  0  0  0  0  0  0  0  0  0  0  0
    0.5433   -1.3088    0.0000 C   0  0  0  0  0  0  0  0  0  0  0  0
    1.2944    2.9580    0.0000 C   0  0  0  0  0  0  0  0  0  0  0  0
   -2.2692    3.9967    0.0000 C   0  0  3  0  0  0  0  0  0  0  0  0
   -1.3743   -2.9549    0.0000 C   0  0  0  0  0  0  0  0  0  0  0  0
   -2.0775   -2.5553    0.0000 C   0  0  0  0  0  0  0  0  0  0  0  0
    2.2853   -2.6672    0.0000 C   0  0  0  0  0  0  0  0  0  0  0  0
    1.7870   -4.7478    0.0000 C   0  0  0  0  0  0  0  0  0  0  0  0
   -1.9337    4.7478    0.0000 C   0  0  0  0  0  0  0  0  0  0  0  0
  1  7  2  0  0  0  0
  1  8  2  0  0  0  0
  1 29  1  0  0  0  0
  1 40  1  0  0  0  0
  2 39  1  0  0  0  0
  3 39  1  0  0  0  0
  4 39  1  0  0  0  0
  5 14  1  0  0  0  0
  5 20  1  0  0  0  0
  6 32  1  0  0  0  0
  6 39  1  0  0  0  0
  9 36  1  0  0  0  0
 10 12  1  0  0  0  0
 10 15  1  0  0  0  0
 10 24  1  0  0  0  0
 11 16  1  0  0  0  0
 11 20  2  0  0  0  0
 12 25  2  0  0  0  0
 13 14  1  0  0  0  0
 13 15  1  0  0  0  0
 13 17  2  0  0  0  0
 14 16  2  0  0  0  0
 15 21  2  0  0  0  0
 16 19  1  0  0  0  0
 17 18  1  0  0  0  0
 18 22  1  0  0  0  0
 18 23  2  0  0  0  0
 19 26  2  0  0  0  0
 19 27  1  0  0  0  0
 20 35  1  0  0  0  0
 21 23  1  0  0  0  0
 22 28  2  0  0  0  0
 22 31  1  0  0  0  0
 24 30  2  0  0  0  0
 25 30  1  0  0  0  0
 25 36  1  0  0  0  0
 26 33  1  0  0  0  0
 27 34  2  0  0  0  0
 28 29  1  0  0  0  0
 29 37  2  0  0  0  0
 31 38  2  0  0  0  0
 32 33  2  0  0  0  0
 32 34  1  0  0  0  0
 36 41  1  0  0  0  0
 37 38  1  0  0  0  0
M  END
> <PUBCHEM_COMPOUND_ID_TYPE>
0

> <PUBCHEM_TOTAL_CHARGE>
0

> <PUBCHEM_SUBSTANCE_ID>
310948110

> <PUBCHEM_SUBSTANCE_VERSION>
1

> <PUBCHEM_EXT_DATASOURCE_NAME>
4488

> <PUBCHEM_EXT_DATASOURCE_REGID>
SCHEMBL16126286

> <PUBCHEM_SUBSTANCE_COMMENT>
InChI=1S/C29H24F3N3O5S/c1-17(36)25-13-14-35(34-25)26-12-9-21(20-5-4-6-23(15-20)41(3,37)38)16-24(26)28-27(33-18(2)39-28)19-7-10-22(11-8-19)40-29(30,31)32/h4-17,36H,1-3H3
InChIKey=FMRKRNLXXNXWJJ-UHFFFAOYSA-N

> <PUBCHEM_SUBSTANCE_SYNONYM>
SCHEMBL16126286

> <PUBCHEM_XREF_EXT_ID>
SCHEMBL16126286

> <PUBCHEM_EXT_DATASOURCE_URL>
https://www.surechembl.org/

> <PUBCHEM_EXT_SUBSTANCE_URL>
https://www.surechembl.org/chemical/SCHEMBL16126286

> <PUBCHEM_CID_ASSOCIATIONS>
117613727  1

> <PUBCHEM_COORDINATE_TYPE>
1
3

$$$$
