310940721
  -OEChem-07211613022D

 37 41  0     1  0  0  0  0  0999 V2000
    0.0480    2.2982    0.0000 S   0  0  0  0  0  0  0  0  0  0  0  0
   -2.1226    0.4459    0.0000 O   0  0  0  0  0  0  0  0  0  0  0  0
    0.0480   -0.2052    0.0000 O   0  0  0  0  0  0  0  0  0  0  0  0
    0.0480   -0.2052    0.0000 O   0  0  0  0  0  0  0  0  0  0  0  0
   -4.7853    2.2982    0.0000 O   0  0  0  0  0  0  0  0  0  0  0  0
    2.5348   -1.7919    0.0000 O   0  0  0  0  0  0  0  0  0  0  0  0
   -0.6756    1.0393    0.0000 N   0  0  0  0  0  0  0  0  0  0  0  0
   -2.2529    2.2982    0.0000 N   0  0  0  0  0  0  0  0  0  0  0  0
   -0.6900    1.8786    0.0000 C   0  0  3  0  0  0  0  0  0  0  0  0
   -1.5149    1.8930    0.0000 C   0  0  3  0  0  0  0  0  0  0  0  0
   -1.5004    1.0682    0.0000 C   0  0  0  0  0  0  0  0  0  0  0  0
    0.0625    0.6341    0.0000 C   0  0  0  0  0  0  0  0  0  0  0  0
    0.7715    1.0538    0.0000 C   0  0  0  0  0  0  0  0  0  0  0  0
    0.0480   -0.2052    0.0000 C   0  0  0  0  0  0  0  0  0  0  0  0
    0.7860    1.8786    0.0000 C   0  0  0  0  0  0  0  0  0  0  0  0
    1.5240    0.6341    0.0000 C   0  0  0  0  0  0  0  0  0  0  0  0
    2.3055    1.0682    0.0000 C   0  0  0  0  0  0  0  0  0  0  0  0
   -3.0922    2.2982    0.0000 C   0  0  0  0  0  0  0  0  0  0  0  0
    3.0724    0.7209    0.0000 C   0  0  0  0  0  0  0  0  0  0  0  0
    2.4213    1.8930    0.0000 C   0  0  0  0  0  0  0  0  0  0  0  0
   -3.5264    1.5746    0.0000 C   0  0  0  0  0  0  0  0  0  0  0  0
    4.7853   -1.7806    0.0000 C   0  0  0  0  0  0  0  0  0  0  0  0
    1.8714    1.8062    0.0000 C   0  0  0  0  0  0  0  0  0  0  0  0
    3.6368    1.3142    0.0000 C   0  0  0  0  0  0  0  0  0  0  0  0
    3.2461    2.0378    0.0000 C   0  0  0  0  0  0  0  0  0  0  0  0
   -4.3657    1.5746    0.0000 C   0  0  0  0  0  0  0  0  0  0  0  0
    4.2227   -1.8031    0.0000 C   0  0  0  0  0  0  0  0  0  0  0  0
   -3.1067    0.8366    0.0000 C   0  0  0  0  0  0  0  0  0  0  0  0
   -4.7709    0.8511    0.0000 C   0  0  0  0  0  0  0  0  0  0  0  0
    3.9414   -1.3193    0.0000 C   0  0  0  0  0  0  0  0  0  0  0  0
    3.9527   -2.2982    0.0000 C   0  0  0  0  0  0  0  0  0  0  0  0
   -3.5264    0.1276    0.0000 C   0  0  0  0  0  0  0  0  0  0  0  0
   -4.3512    0.1276    0.0000 C   0  0  0  0  0  0  0  0  0  0  0  0
    3.1087   -1.8031    0.0000 C   0  0  0  0  0  0  0  0  0  0  0  0
    3.3787   -1.3193    0.0000 C   0  0  0  0  0  0  0  0  0  0  0  0
    3.3900   -2.2982    0.0000 C   0  0  0  0  0  0  0  0  0  0  0  0
    2.2422   -2.2870    0.0000 C   0  0  0  0  0  0  0  0  0  0  0  0
  1  9  1  0  0  0  0
  1 15  1  0  0  0  0
  2 11  2  0  0  0  0
  3 14  1  0  0  0  0
  3 22  1  0  0  0  0
  4 14  2  0  0  0  0
  5 26  1  0  0  0  0
  6 34  1  0  0  0  0
  6 37  1  0  0  0  0
  9  7  1  1  0  0  0
  7 11  1  0  0  0  0
  7 12  1  0  0  0  0
 10  8  1  1  0  0  0
  8 18  2  0  0  0  0
  9 10  1  0  0  0  0
 10 11  1  0  0  0  0
 12 13  2  0  0  0  0
 12 14  1  0  0  0  0
 13 15  1  0  0  0  0
 13 16  1  0  0  0  0
 16 17  1  0  0  0  0
 17 19  1  0  0  0  0
 17 20  1  0  0  0  0
 17 23  1  0  0  0  0
 18 21  1  0  0  0  0
 19 24  1  0  0  0  0
 20 25  1  0  0  0  0
 21 26  2  0  0  0  0
 21 28  1  0  0  0  0
 22 27  1  0  0  0  0
 24 25  1  0  0  0  0
 26 29  1  0  0  0  0
 27 30  2  0  0  0  0
 27 31  1  0  0  0  0
 28 32  2  0  0  0  0
 29 33  2  0  0  0  0
 30 35  1  0  0  0  0
 31 36  2  0  0  0  0
 32 33  1  0  0  0  0
 34 35  2  0  0  0  0
 34 36  1  0  0  0  0
M  END
> <PUBCHEM_COMPOUND_ID_TYPE>
0

> <PUBCHEM_TOTAL_CHARGE>
0

> <PUBCHEM_SUBSTANCE_ID>
310940721

> <PUBCHEM_SUBSTANCE_VERSION>
1

> <PUBCHEM_EXT_DATASOURCE_NAME>
4488

> <PUBCHEM_EXT_DATASOURCE_REGID>
SCHEMBL16118678

> <PUBCHEM_SUBSTANCE_COMMENT>
InChI=1S/C29H32N2O5S/c1-29(13-5-6-14-29)15-21-18-37-27-24(30-16-20-7-3-4-8-23(20)32)26(33)31(27)25(21)28(34)36-17-19-9-11-22(35-2)12-10-19/h3-4,7-12,16,24,27,32H,5-6,13-15,17-18H2,1-2H3/b30-16-/t24-,27-/m1/s1
InChIKey=LULNARBZXKEYKJ-MTMJVECISA-N

> <PUBCHEM_SUBSTANCE_SYNONYM>
SCHEMBL16118678

> <PUBCHEM_XREF_EXT_ID>
SCHEMBL16118678

> <PUBCHEM_EXT_DATASOURCE_URL>
https://www.surechembl.org/

> <PUBCHEM_EXT_SUBSTANCE_URL>
https://www.surechembl.org/chemical/SCHEMBL16118678

> <PUBCHEM_CID_ASSOCIATIONS>
117607678  1

> <PUBCHEM_COORDINATE_TYPE>
1
3

> <PUBCHEM_BONDANNOTATIONS>
9  7  5
10  8  5

$$$$
