310946386
  -OEChem-07211613022D

 21 21  0     1  0  0  0  0  0999 V2000
   -3.1892   -4.0497    0.0000 I   0  0  0  0  0  0  0  0  0  0  0  0
   -1.7604   -1.5748    0.0000 I   0  0  0  0  0  0  0  0  0  0  0  0
   -0.3546   -1.5349    0.0000 O   0  0  0  0  0  0  0  0  0  0  0  0
   -3.1892   -2.3998    0.0000 O   0  0  0  0  0  0  0  0  0  0  0  0
   -1.0921   -2.8122    0.0000 O   0  0  0  0  0  0  0  0  0  0  0  0
    1.8118   -3.6373    0.0000 O   0  0  0  0  0  0  0  0  0  0  0  0
    0.3829   -2.8122    0.0000 N   0  0  0  0  0  0  0  0  0  0  0  0
   -1.0459   -3.6373    0.0000 C   0  0  0  0  0  0  0  0  0  0  0  0
   -2.4748   -2.8122    0.0000 C   0  0  0  0  0  0  0  0  0  0  0  0
   -2.4748   -3.6373    0.0000 C   0  0  0  0  0  0  0  0  0  0  0  0
   -1.7604   -2.3998    0.0000 C   0  0  0  0  0  0  0  0  0  0  0  0
   -1.7604   -4.0497    0.0000 C   0  0  0  0  0  0  0  0  0  0  0  0
   -1.0459   -2.8122    0.0000 C   0  0  0  0  0  0  0  0  0  0  0  0
   -0.3315   -4.0497    0.0000 C   0  0  0  0  0  0  0  0  0  0  0  0
    0.3829   -3.6373    0.0000 C   0  0  3  0  0  0  0  0  0  0  0  0
   -0.3546   -2.3864    0.0000 C   0  0  0  0  0  0  0  0  0  0  0  0
   -1.0921   -1.1091    0.0000 C   0  0  0  0  0  0  0  0  0  0  0  0
    1.0973   -4.0497    0.0000 C   0  0  0  0  0  0  0  0  0  0  0  0
   -1.0921   -0.2575    0.0000 C   0  0  0  0  0  0  0  0  0  0  0  0
   -1.8295   -0.6833    0.0000 C   0  0  0  0  0  0  0  0  0  0  0  0
   -1.8295   -1.5349    0.0000 C   0  0  0  0  0  0  0  0  0  0  0  0
  1 10  1  0  0  0  0
  2 11  1  0  0  0  0
  3 16  1  0  0  0  0
  3 17  1  0  0  0  0
  4  9  1  0  0  0  0
  5 16  2  0  0  0  0
  6 18  1  0  0  0  0
 15  7  1  1  0  0  0
  7 16  1  0  0  0  0
  8 12  2  0  0  0  0
  8 13  1  0  0  0  0
  8 14  1  0  0  0  0
  9 10  2  0  0  0  0
  9 11  1  0  0  0  0
 10 12  1  0  0  0  0
 11 13  2  0  0  0  0
 14 15  1  0  0  0  0
 15 18  1  0  0  0  0
 17 19  1  0  0  0  0
 17 20  1  0  0  0  0
 17 21  1  0  0  0  0
M  END
> <PUBCHEM_COMPOUND_ID_TYPE>
0

> <PUBCHEM_TOTAL_CHARGE>
0

> <PUBCHEM_SUBSTANCE_ID>
310946386

> <PUBCHEM_SUBSTANCE_VERSION>
1

> <PUBCHEM_EXT_DATASOURCE_NAME>
4488

> <PUBCHEM_EXT_DATASOURCE_REGID>
SCHEMBL16124505

> <PUBCHEM_SUBSTANCE_COMMENT>
InChI=1S/C14H19I2NO4/c1-14(2,3)21-13(20)17-9(7-18)4-8-5-10(15)12(19)11(16)6-8/h5-6,9,18-19H,4,7H2,1-3H3,(H,17,20)/t9-/m1/s1
InChIKey=OZXGCUFDWBSZBN-SECBINFHSA-N

> <PUBCHEM_SUBSTANCE_SYNONYM>
SCHEMBL16124505

> <PUBCHEM_XREF_EXT_ID>
SCHEMBL16124505

> <PUBCHEM_EXT_DATASOURCE_URL>
https://www.surechembl.org/

> <PUBCHEM_EXT_SUBSTANCE_URL>
https://www.surechembl.org/chemical/SCHEMBL16124505

> <PUBCHEM_CID_ASSOCIATIONS>
117612308  1

> <PUBCHEM_COORDINATE_TYPE>
1
3

> <PUBCHEM_BONDANNOTATIONS>
15  7  5

$$$$
