310932277
  -OEChem-07211613022D

 64 71  0     1  0  0  0  0  0999 V2000
    2.6379   -3.0067    0.0000 P   0  0  0  0  0  0  0  0  0  0  0  0
    3.4038   -2.9783    0.0000 P   0  0  0  0  0  0  0  0  0  0  0  0
    4.4816   -4.9638    0.0000 O   0  0  0  0  0  0  0  0  0  0  0  0
    1.2197   -0.7091    0.0000 O   0  0  0  0  0  0  0  0  0  0  0  0
    4.4816   -3.5456    0.0000 O   0  0  0  0  0  0  0  0  0  0  0  0
    1.2197   -2.1274    0.0000 O   0  0  0  0  0  0  0  0  0  0  0  0
    3.2619   -4.2547    0.0000 C   0  0  3  0  0  0  0  0  0  0  0  0
    2.4394   -1.4182    0.0000 C   0  0  3  0  0  0  0  0  0  0  0  0
    2.0423   -2.1274    0.0000 C   0  0  0  0  0  0  0  0  0  0  0  0
    3.6874   -3.5456    0.0000 C   0  0  0  0  0  0  0  0  0  0  0  0
    2.4677   -2.8365    0.0000 C   0  0  0  0  0  0  0  0  0  0  0  0
    3.2619   -2.8365    0.0000 C   0  0  0  0  0  0  0  0  0  0  0  0
    2.8365   -3.5456    0.0000 C   0  0  3  0  0  0  0  0  0  0  0  0
    2.8648   -2.1274    0.0000 C   0  0  3  0  0  0  0  0  0  0  0  0
    4.0845   -4.2547    0.0000 C   0  0  0  0  0  0  0  0  0  0  0  0
    1.6168   -1.4182    0.0000 C   0  0  0  0  0  0  0  0  0  0  0  0
    2.8365   -4.9354    0.0000 C   0  0  0  0  0  0  0  0  0  0  0  0
    2.8648   -0.7091    0.0000 C   0  0  0  0  0  0  0  0  0  0  0  0
    1.3899   -2.2975    0.0000 C   0  0  0  0  0  0  0  0  0  0  0  0
    4.6518   -3.6874    0.0000 C   0  0  0  0  0  0  0  0  0  0  0  0
    2.0423   -3.5456    0.0000 C   0  0  0  0  0  0  0  0  0  0  0  0
    3.6874   -2.1274    0.0000 C   0  0  0  0  0  0  0  0  0  0  0  0
    2.2125   -3.7158    0.0000 C   0  0  0  0  0  0  0  0  0  0  0  0
    3.8292   -2.2692    0.0000 C   0  0  0  0  0  0  0  0  0  0  0  0
    1.6452   -2.8365    0.0000 C   0  0  0  0  0  0  0  0  0  0  0  0
    3.0634   -3.7158    0.0000 C   0  0  0  0  0  0  0  0  0  0  0  0
    4.0561   -2.8081    0.0000 C   0  0  0  0  0  0  0  0  0  0  0  0
    2.9783   -2.2975    0.0000 C   0  0  0  0  0  0  0  0  0  0  0  0
    2.0423   -4.9354    0.0000 C   0  0  0  0  0  0  0  0  0  0  0  0
    3.6874   -0.7091    0.0000 C   0  0  0  0  0  0  0  0  0  0  0  0
    1.6168   -4.2547    0.0000 C   0  0  0  0  0  0  0  0  0  0  0  0
    4.1129   -1.4182    0.0000 C   0  0  0  0  0  0  0  0  0  0  0  0
    0.8226   -2.8365    0.0000 C   0  0  0  0  0  0  0  0  0  0  0  0
    4.9071   -2.8081    0.0000 C   0  0  0  0  0  0  0  0  0  0  0  0
    4.4816   -2.0990    0.0000 C   0  0  0  0  0  0  0  0  0  0  0  0
    1.2197   -3.5456    0.0000 C   0  0  0  0  0  0  0  0  0  0  0  0
    1.4182   -3.7158    0.0000 C   0  0  0  0  0  0  0  0  0  0  0  0
    3.8860   -3.6874    0.0000 C   0  0  0  0  0  0  0  0  0  0  0  0
    4.6234   -2.2692    0.0000 C   0  0  0  0  0  0  0  0  0  0  0  0
    2.1557   -2.2975    0.0000 C   0  0  0  0  0  0  0  0  0  0  0  0
    1.5601   -2.4677    0.0000 C   0  0  0  0  0  0  0  0  0  0  0  0
    2.4961   -4.2547    0.0000 C   0  0  0  0  0  0  0  0  0  0  0  0
    4.8220   -3.8292    0.0000 C   0  0  0  0  0  0  0  0  0  0  0  0
    3.2052   -1.3899    0.0000 C   0  0  0  0  0  0  0  0  0  0  0  0
    0.4255   -3.5740    0.0000 C   0  0  0  0  0  0  0  0  0  0  0  0
    4.3114   -4.3965    0.0000 C   0  0  0  0  0  0  0  0  0  0  0  0
    5.2758   -2.0706    0.0000 C   0  0  0  0  0  0  0  0  0  0  0  0
    1.7303   -1.5884    0.0000 C   0  0  0  0  0  0  0  0  0  0  0  0
    0.4255   -2.1557    0.0000 C   0  0  0  0  0  0  0  0  0  0  0  0
    3.0918   -5.1340    0.0000 C   0  0  0  0  0  0  0  0  0  0  0  0
    5.3042   -3.4889    0.0000 C   0  0  0  0  0  0  0  0  0  0  0  0
    2.9499   -0.8793    0.0000 C   0  0  0  0  0  0  0  0  0  0  0  0
    0.0000   -2.8648    0.0000 C   0  0  0  0  0  0  0  0  0  0  0  0
    3.7158   -4.9354    0.0000 C   0  0  0  0  0  0  0  0  0  0  0  0
    5.7013   -2.8081    0.0000 C   0  0  0  0  0  0  0  0  0  0  0  0
    1.9855   -0.7091    0.0000 C   0  0  0  0  0  0  0  0  0  0  0  0
    0.0284   -4.2831    0.0000 C   0  0  0  0  0  0  0  0  0  0  0  0
    4.9638   -4.2263    0.0000 C   0  0  0  0  0  0  0  0  0  0  0  0
    5.6729   -1.3615    0.0000 C   0  0  0  0  0  0  0  0  0  0  0  0
    0.7658   -1.4466    0.0000 C   0  0  0  0  0  0  0  0  0  0  0  0
    0.0000   -1.4466    0.0000 C   0  0  0  0  0  0  0  0  0  0  0  0
    2.5245   -5.6729    0.0000 C   0  0  0  0  0  0  0  0  0  0  0  0
    5.7296   -4.1980    0.0000 C   0  0  0  0  0  0  0  0  0  0  0  0
    3.2052    0.0000    0.0000 C   0  0  0  0  0  0  0  0  0  0  0  0
  1 14  1  0  0  0  0
  1 25  1  0  0  0  0
  1 26  1  0  0  0  0
  2 13  1  0  0  0  0
  2 27  1  0  0  0  0
  2 28  1  0  0  0  0
  3 15  2  0  0  0  0
  4 16  2  0  0  0  0
  5 15  1  0  0  0  0
  6 16  1  0  0  0  0
  7 10  1  0  0  0  0
  7 13  1  0  0  0  0
  7 15  1  0  0  0  0
  7 17  1  0  0  0  0
  8  9  1  0  0  0  0
  8 14  1  0  0  0  0
  8 16  1  0  0  0  0
  8 18  1  0  0  0  0
  9 11  2  0  0  0  0
  9 19  1  0  0  0  0
 10 12  2  0  0  0  0
 10 20  1  0  0  0  0
 11 12  1  0  0  0  0
 11 23  1  0  0  0  0
 12 24  1  0  0  0  0
 13 21  1  0  0  0  0
 14 22  1  0  0  0  0
 17 29  1  0  0  0  0
 18 30  1  0  0  0  0
 19 33  2  0  0  0  0
 20 34  2  0  0  0  0
 21 31  1  0  0  0  0
 22 32  1  0  0  0  0
 23 36  2  0  0  0  0
 24 35  2  0  0  0  0
 25 37  2  0  0  0  0
 25 41  1  0  0  0  0
 26 38  2  0  0  0  0
 26 42  1  0  0  0  0
 27 39  2  0  0  0  0
 27 43  1  0  0  0  0
 28 40  2  0  0  0  0
 28 44  1  0  0  0  0
 29 31  1  0  0  0  0
 30 32  1  0  0  0  0
 33 36  1  0  0  0  0
 34 35  1  0  0  0  0
 37 45  1  0  0  0  0
 38 46  1  0  0  0  0
 39 47  1  0  0  0  0
 40 48  1  0  0  0  0
 41 49  2  0  0  0  0
 42 50  2  0  0  0  0
 43 51  2  0  0  0  0
 44 52  2  0  0  0  0
 45 53  2  0  0  0  0
 45 57  1  0  0  0  0
 46 54  2  0  0  0  0
 46 58  1  0  0  0  0
 47 55  2  0  0  0  0
 47 59  1  0  0  0  0
 48 56  2  0  0  0  0
 48 60  1  0  0  0  0
 49 53  1  0  0  0  0
 49 61  1  0  0  0  0
 50 54  1  0  0  0  0
 50 62  1  0  0  0  0
 51 55  1  0  0  0  0
 51 63  1  0  0  0  0
 52 56  1  0  0  0  0
 52 64  1  0  0  0  0
M  END
> <PUBCHEM_COMPOUND_ID_TYPE>
0

> <PUBCHEM_TOTAL_CHARGE>
0

> <PUBCHEM_SUBSTANCE_ID>
310932277

> <PUBCHEM_SUBSTANCE_VERSION>
1

> <PUBCHEM_EXT_DATASOURCE_NAME>
4488

> <PUBCHEM_EXT_DATASOURCE_REGID>
SCHEMBL16109637

> <PUBCHEM_SUBSTANCE_COMMENT>
InChI=1S/C58H64O4P2/c1-37-25-38(2)30-45(29-37)63(46-31-39(3)26-40(4)32-46)53-21-13-15-23-57(53,55(59)60)51-19-11-9-17-49(51)50-18-10-12-20-52(50)58(56(61)62)24-16-14-22-54(58)64(47-33-41(5)27-42(6)34-47)48-35-43(7)28-44(8)36-48/h9-12,17-20,25-36,53-54H,13-16,21-24H2,1-8H3,(H,59,60)(H,61,62)
InChIKey=VKGYQXPTYJSNHE-UHFFFAOYSA-N

> <PUBCHEM_SUBSTANCE_SYNONYM>
SCHEMBL16109637

> <PUBCHEM_XREF_EXT_ID>
SCHEMBL16109637

> <PUBCHEM_EXT_DATASOURCE_URL>
https://www.surechembl.org/

> <PUBCHEM_EXT_SUBSTANCE_URL>
https://www.surechembl.org/chemical/SCHEMBL16109637

> <PUBCHEM_CID_ASSOCIATIONS>
117600841  1

> <PUBCHEM_COORDINATE_TYPE>
1
3

$$$$
