310948049
  -OEChem-07211613022D

 46 50  0     0  0  0  0  0  0999 V2000
    3.1949   -1.5995    0.0000 S   0  0  0  0  0  0  0  0  0  0  0  0
   -3.9856   -1.9553    0.0000 F   0  0  0  0  0  0  0  0  0  0  0  0
   -2.8050   -1.9553    0.0000 F   0  0  0  0  0  0  0  0  0  0  0  0
    3.6154    3.3655    0.0000 F   0  0  0  0  0  0  0  0  0  0  0  0
    2.4995    3.0744    0.0000 F   0  0  0  0  0  0  0  0  0  0  0  0
    3.8742    2.2657    0.0000 F   0  0  0  0  0  0  0  0  0  0  0  0
   -1.7376    1.6188    0.0000 O   0  0  0  0  0  0  0  0  0  0  0  0
   -4.9074   -1.5833    0.0000 O   0  0  0  0  0  0  0  0  0  0  0  0
    2.7907    1.9747    0.0000 O   0  0  0  0  0  0  0  0  0  0  0  0
    3.1949   -1.5995    0.0000 O   0  0  0  0  0  0  0  0  0  0  0  0
    3.1949   -1.5995    0.0000 O   0  0  0  0  0  0  0  0  0  0  0  0
   -2.3684    0.4867    0.0000 N   0  0  0  0  0  0  0  0  0  0  0  0
   -3.0638    0.0502    0.0000 N   0  0  0  0  0  0  0  0  0  0  0  0
   -0.9776    2.6377    0.0000 N   0  0  0  0  0  0  0  0  0  0  0  0
   -0.9129   -0.0631    0.0000 C   0  0  0  0  0  0  0  0  0  0  0  0
   -0.5085    0.5838    0.0000 C   0  0  0  0  0  0  0  0  0  0  0  0
   -1.7376   -0.0308    0.0000 C   0  0  0  0  0  0  0  0  0  0  0  0
   -0.9776    1.3763    0.0000 C   0  0  0  0  0  0  0  0  0  0  0  0
   -2.8697   -0.7100    0.0000 C   0  0  0  0  0  0  0  0  0  0  0  0
   -3.4034   -1.3731    0.0000 C   0  0  0  0  0  0  0  0  0  0  0  0
   -0.5085    2.0070    0.0000 C   0  0  0  0  0  0  0  0  0  0  0  0
   -2.0449   -0.8070    0.0000 C   0  0  0  0  0  0  0  0  0  0  0  0
   -4.1958   -1.1304    0.0000 C   0  0  0  0  0  0  0  0  0  0  0  0
    0.3163    0.5514    0.0000 C   0  0  0  0  0  0  0  0  0  0  0  0
    0.7206   -0.1440    0.0000 C   0  0  0  0  0  0  0  0  0  0  0  0
   -0.4924   -0.8555    0.0000 C   0  0  0  0  0  0  0  0  0  0  0  0
    0.3325    1.9747    0.0000 C   0  0  0  0  0  0  0  0  0  0  0  0
   -1.7215    2.4275    0.0000 C   0  0  0  0  0  0  0  0  0  0  0  0
    0.3163   -0.8555    0.0000 C   0  0  0  0  0  0  0  0  0  0  0  0
    1.5616   -0.1440    0.0000 C   0  0  0  0  0  0  0  0  0  0  0  0
   -2.3037    1.3278    0.0000 C   0  0  0  0  0  0  0  0  0  0  0  0
    0.7206    1.2793    0.0000 C   0  0  0  0  0  0  0  0  0  0  0  0
    0.7206    2.6862    0.0000 C   0  0  0  0  0  0  0  0  0  0  0  0
    1.9658   -0.8555    0.0000 C   0  0  0  0  0  0  0  0  0  0  0  0
   -4.7619   -0.5644    0.0000 C   0  0  0  0  0  0  0  0  0  0  0  0
   -3.7915   -0.4350    0.0000 C   0  0  0  0  0  0  0  0  0  0  0  0
    2.7907   -0.8717    0.0000 C   0  0  0  0  0  0  0  0  0  0  0  0
    1.9658    0.5514    0.0000 C   0  0  0  0  0  0  0  0  0  0  0  0
    1.9497    1.9747    0.0000 C   0  0  0  0  0  0  0  0  0  0  0  0
   -2.4007    2.9126    0.0000 C   0  0  0  0  0  0  0  0  0  0  0  0
    1.5454    1.2793    0.0000 C   0  0  0  0  0  0  0  0  0  0  0  0
    1.5454    2.7024    0.0000 C   0  0  0  0  0  0  0  0  0  0  0  0
    3.1949   -0.1440    0.0000 C   0  0  0  0  0  0  0  0  0  0  0  0
    2.7907    0.5676    0.0000 C   0  0  0  0  0  0  0  0  0  0  0  0
    3.2111    2.6701    0.0000 C   0  0  0  0  0  0  0  0  0  0  0  0
    4.9074   -3.3655    0.0000 C   0  0  0  0  0  0  0  0  0  0  0  0
  1 10  2  0  0  0  0
  1 11  2  0  0  0  0
  1 37  1  0  0  0  0
  1 46  1  0  0  0  0
  2 20  1  0  0  0  0
  3 20  1  0  0  0  0
  4 45  1  0  0  0  0
  5 45  1  0  0  0  0
  6 45  1  0  0  0  0
  7 18  1  0  0  0  0
  7 28  1  0  0  0  0
  8 23  1  0  0  0  0
  9 39  1  0  0  0  0
  9 45  1  0  0  0  0
 12 13  1  0  0  0  0
 12 17  1  0  0  0  0
 12 31  1  0  0  0  0
 13 19  2  0  0  0  0
 14 21  1  0  0  0  0
 14 28  2  0  0  0  0
 15 16  1  0  0  0  0
 15 17  1  0  0  0  0
 15 26  2  0  0  0  0
 16 18  1  0  0  0  0
 16 24  2  0  0  0  0
 17 22  2  0  0  0  0
 18 21  2  0  0  0  0
 19 20  1  0  0  0  0
 19 22  1  0  0  0  0
 20 23  1  0  0  0  0
 21 27  1  0  0  0  0
 23 35  1  0  0  0  0
 23 36  1  0  0  0  0
 24 25  1  0  0  0  0
 25 29  2  0  0  0  0
 25 30  1  0  0  0  0
 26 29  1  0  0  0  0
 27 32  2  0  0  0  0
 27 33  1  0  0  0  0
 28 40  1  0  0  0  0
 30 34  2  0  0  0  0
 30 38  1  0  0  0  0
 32 41  1  0  0  0  0
 33 42  2  0  0  0  0
 34 37  1  0  0  0  0
 37 43  2  0  0  0  0
 38 44  2  0  0  0  0
 39 41  2  0  0  0  0
 39 42  1  0  0  0  0
 43 44  1  0  0  0  0
M  END
> <PUBCHEM_COMPOUND_ID_TYPE>
0

> <PUBCHEM_TOTAL_CHARGE>
0

> <PUBCHEM_SUBSTANCE_ID>
310948049

> <PUBCHEM_SUBSTANCE_VERSION>
1

> <PUBCHEM_EXT_DATASOURCE_NAME>
4488

> <PUBCHEM_EXT_DATASOURCE_REGID>
SCHEMBL16126224

> <PUBCHEM_SUBSTANCE_COMMENT>
InChI=1S/C32H28F5N3O5S/c1-18-38-28(19-9-12-22(13-10-19)45-32(35,36)37)29(44-18)25-16-21(20-7-6-8-23(15-20)46(5,42)43)11-14-24(25)26-17-27(39-40(26)4)31(33,34)30(2,3)41/h6-17,41H,1-5H3
InChIKey=YWWYGOZXEGXLSS-UHFFFAOYSA-N

> <PUBCHEM_SUBSTANCE_SYNONYM>
SCHEMBL16126224

> <PUBCHEM_XREF_EXT_ID>
SCHEMBL16126224

> <PUBCHEM_EXT_DATASOURCE_URL>
https://www.surechembl.org/

> <PUBCHEM_EXT_SUBSTANCE_URL>
https://www.surechembl.org/chemical/SCHEMBL16126224

> <PUBCHEM_CID_ASSOCIATIONS>
86275859  1

> <PUBCHEM_COORDINATE_TYPE>
1
3

$$$$
