310945228
  -OEChem-07211613022D

 35 38  0     1  0  0  0  0  0999 V2000
   -4.0947    1.0564    0.0000 Cl  0  0  0  0  0  0  0  0  0  0  0  0
   -0.1710   -1.7204    0.0000 S   0  0  0  0  0  0  0  0  0  0  0  0
    1.4991   -1.8009    0.0000 O   0  0  0  0  0  0  0  0  0  0  0  0
   -2.0222    0.5734    0.0000 O   0  0  0  0  0  0  0  0  0  0  0  0
    3.2899   -0.2112    0.0000 O   0  0  0  0  0  0  0  0  0  0  0  0
   -1.2375    1.8411    0.0000 O   0  0  0  0  0  0  0  0  0  0  0  0
    2.4850   -1.4789    0.0000 O   0  0  0  0  0  0  0  0  0  0  0  0
    0.0503    0.4728    0.0000 N   0  0  0  0  0  0  0  0  0  0  0  0
    1.7003   -0.4125    0.0000 N   0  0  0  0  0  0  0  0  0  0  0  0
   -3.1087   -0.1912    0.0000 N   0  0  0  0  0  0  0  0  0  0  0  0
   -0.1912   -0.3722    0.0000 C   0  0  0  0  0  0  0  0  0  0  0  0
   -0.9356   -0.6137    0.0000 C   0  0  0  0  0  0  0  0  0  0  0  0
    0.3119   -1.0162    0.0000 C   0  0  0  0  0  0  0  0  0  0  0  0
   -0.9759   -1.4186    0.0000 C   0  0  0  0  0  0  0  0  0  0  0  0
   -1.6802   -0.2112    0.0000 C   0  0  0  0  0  0  0  0  0  0  0  0
    1.1369   -1.0362    0.0000 C   0  0  0  0  0  0  0  0  0  0  0  0
   -2.3844   -0.6137    0.0000 C   0  0  0  0  0  0  0  0  0  0  0  0
    1.5594    0.4125    0.0000 C   0  0  3  0  0  0  0  0  0  0  0  0
    0.8150    0.7948    0.0000 C   0  0  0  0  0  0  0  0  0  0  0  0
   -1.6600   -1.8411    0.0000 C   0  0  0  0  0  0  0  0  0  0  0  0
   -1.2375    1.0162    0.0000 C   0  0  0  0  0  0  0  0  0  0  0  0
   -2.3643   -1.4387    0.0000 C   0  0  0  0  0  0  0  0  0  0  0  0
   -1.6600    0.6137    0.0000 C   0  0  0  0  0  0  0  0  0  0  0  0
    2.4850   -0.6338    0.0000 C   0  0  0  0  0  0  0  0  0  0  0  0
   -3.1087    0.6338    0.0000 C   0  0  0  0  0  0  0  0  0  0  0  0
   -2.4045    1.0362    0.0000 C   0  0  0  0  0  0  0  0  0  0  0  0
    2.2234    0.8954    0.0000 C   0  0  0  0  0  0  0  0  0  0  0  0
   -2.0423   -0.3119    0.0000 C   0  0  0  0  0  0  0  0  0  0  0  0
    3.3100    0.6741    0.0000 C   0  0  0  0  0  0  0  0  0  0  0  0
   -2.8271   -0.3320    0.0000 C   0  0  0  0  0  0  0  0  0  0  0  0
   -1.2375   -0.3119    0.0000 C   0  0  0  0  0  0  0  0  0  0  0  0
   -2.0222   -1.1771    0.0000 C   0  0  0  0  0  0  0  0  0  0  0  0
    4.0947    0.6942    0.0000 C   0  0  0  0  0  0  0  0  0  0  0  0
    2.4850    0.6741    0.0000 C   0  0  0  0  0  0  0  0  0  0  0  0
    3.2899    1.5393    0.0000 C   0  0  0  0  0  0  0  0  0  0  0  0
  1 25  1  0  0  0  0
  2 13  1  0  0  0  0
  2 14  1  0  0  0  0
  3 16  2  0  0  0  0
  4 21  1  0  0  0  0
  4 28  1  0  0  0  0
  5 24  1  0  0  0  0
  5 29  1  0  0  0  0
  6 21  2  0  0  0  0
  7 24  2  0  0  0  0
  8 11  1  0  0  0  0
  8 19  1  0  0  0  0
  8 21  1  0  0  0  0
  9 16  1  0  0  0  0
  9 18  1  0  0  0  0
  9 24  1  0  0  0  0
 10 17  2  0  0  0  0
 10 25  1  0  0  0  0
 11 12  1  0  0  0  0
 11 13  2  0  0  0  0
 12 14  2  0  0  0  0
 12 15  1  0  0  0  0
 13 16  1  0  0  0  0
 14 20  1  0  0  0  0
 15 17  1  0  0  0  0
 15 23  2  0  0  0  0
 17 22  1  0  0  0  0
 18 19  1  0  0  0  0
 18 27  1  1  0  0  0
 20 22  2  0  0  0  0
 23 26  1  0  0  0  0
 25 26  2  0  0  0  0
 28 30  1  0  0  0  0
 28 31  1  0  0  0  0
 28 32  1  0  0  0  0
 29 33  1  0  0  0  0
 29 34  1  0  0  0  0
 29 35  1  0  0  0  0
M  END
> <PUBCHEM_COMPOUND_ID_TYPE>
0

> <PUBCHEM_TOTAL_CHARGE>
0

> <PUBCHEM_SUBSTANCE_ID>
310945228

> <PUBCHEM_SUBSTANCE_VERSION>
1

> <PUBCHEM_EXT_DATASOURCE_NAME>
4488

> <PUBCHEM_EXT_DATASOURCE_REGID>
SCHEMBL16123318

> <PUBCHEM_SUBSTANCE_COMMENT>
InChI=1S/C25H28ClN3O5S/c1-13-12-28(22(31)33-24(2,3)4)19-18-14-8-11-17(26)27-15(14)9-10-16(18)35-20(19)21(30)29(13)23(32)34-25(5,6)7/h8-11,13H,12H2,1-7H3/t13-/m1/s1
InChIKey=HKDWTXUAODBCMJ-CYBMUJFWSA-N

> <PUBCHEM_SUBSTANCE_SYNONYM>
SCHEMBL16123318

> <PUBCHEM_XREF_EXT_ID>
SCHEMBL16123318

> <PUBCHEM_EXT_DATASOURCE_URL>
https://www.surechembl.org/

> <PUBCHEM_EXT_SUBSTANCE_URL>
https://www.surechembl.org/chemical/SCHEMBL16123318

> <PUBCHEM_CID_ASSOCIATIONS>
117611301  1

> <PUBCHEM_COORDINATE_TYPE>
1
3

> <PUBCHEM_BONDANNOTATIONS>
18  27  5

$$$$
