310936400
  -OEChem-07211613022D

 38 41  0     1  0  0  0  0  0999 V2000
    1.5392   -3.0233    0.0000 Cl  0  0  0  0  0  0  0  0  0  0  0  0
    1.7316   -3.1608    0.0000 O   0  0  0  0  0  0  0  0  0  0  0  0
    2.7760   -0.4123    0.0000 O   0  0  0  0  0  0  0  0  0  0  0  0
    0.6871   -4.8923    0.0000 O   0  0  0  0  0  0  0  0  0  0  0  0
    0.0000   -3.6555    0.0000 O   0  0  0  0  0  0  0  0  0  0  0  0
    6.0192   -5.2221    0.0000 O   0  0  0  0  0  0  0  0  0  0  0  0
    6.0192   -3.7929    0.0000 O   0  0  0  0  0  0  0  0  0  0  0  0
    3.5180   -4.0677    0.0000 N   0  0  0  0  0  0  0  0  0  0  0  0
    4.3151   -3.8479    0.0000 N   0  0  0  0  0  0  0  0  0  0  0  0
    2.8035   -5.3321    0.0000 N   0  0  0  0  0  0  0  0  0  0  0  0
    1.3743   -1.2368    0.0000 N   0  0  3  0  0  0  0  0  0  0  0  0
    2.8035   -3.6830    0.0000 C   0  0  0  0  0  0  0  0  0  0  0  0
    2.1163   -4.0677    0.0000 C   0  0  0  0  0  0  0  0  0  0  0  0
    2.8035   -2.8584    0.0000 C   0  0  0  0  0  0  0  0  0  0  0  0
    3.5180   -4.9198    0.0000 C   0  0  0  0  0  0  0  0  0  0  0  0
    2.1163   -4.9198    0.0000 C   0  0  0  0  0  0  0  0  0  0  0  0
    2.0889   -2.4462    0.0000 C   0  0  0  0  0  0  0  0  0  0  0  0
    1.4017   -3.6555    0.0000 C   0  0  3  0  0  0  0  0  0  0  0  0
    2.0889   -1.6491    0.0000 C   0  0  0  0  0  0  0  0  0  0  0  0
    4.8099   -4.5075    0.0000 C   0  0  0  0  0  0  0  0  0  0  0  0
    4.3151   -5.1672    0.0000 C   0  0  0  0  0  0  0  0  0  0  0  0
    2.8035   -1.2368    0.0000 C   0  0  0  0  0  0  0  0  0  0  0  0
    3.4906   -2.4462    0.0000 C   0  0  0  0  0  0  0  0  0  0  0  0
    3.4906   -1.6216    0.0000 C   0  0  0  0  0  0  0  0  0  0  0  0
    0.6871   -4.0677    0.0000 C   0  0  0  0  0  0  0  0  0  0  0  0
    5.6069   -4.5075    0.0000 C   0  0  0  0  0  0  0  0  0  0  0  0
    1.5666   -5.4970    0.0000 C   0  0  0  0  0  0  0  0  0  0  0  0
    0.8795   -2.5836    0.0000 C   0  0  0  0  0  0  0  0  0  0  0  0
    1.3467   -0.4123    0.0000 C   0  0  0  0  0  0  0  0  0  0  0  0
    2.0614    0.0000    0.0000 C   0  0  0  0  0  0  0  0  0  0  0  0
    0.6596   -1.6766    0.0000 C   0  0  0  0  0  0  0  0  0  0  0  0
    0.0000   -1.9789    0.0000 C   0  0  0  0  0  0  0  0  0  0  0  0
    1.1269   -1.7040    0.0000 C   0  0  0  0  0  0  0  0  0  0  0  0
    0.2748   -3.1058    0.0000 C   0  0  0  0  0  0  0  0  0  0  0  0
    0.6596   -2.4736    0.0000 C   0  0  0  0  0  0  0  0  0  0  0  0
    1.4017   -5.3046    0.0000 C   0  0  0  0  0  0  0  0  0  0  0  0
    1.3743   -2.8859    0.0000 C   0  0  0  0  0  0  0  0  0  0  0  0
    2.2538   -5.0572    0.0000 C   0  0  0  0  0  0  0  0  0  0  0  0
  1 17  1  0  0  0  0
 18  2  1  1  0  0  0
  2 28  1  0  0  0  0
  3 22  1  0  0  0  0
  3 30  1  0  0  0  0
  4 25  1  0  0  0  0
  4 36  1  0  0  0  0
  5 25  2  0  0  0  0
  6 26  2  0  0  0  0
  7 26  1  0  0  0  0
  8  9  1  0  0  0  0
  8 12  1  0  0  0  0
  8 15  1  0  0  0  0
  9 20  2  0  0  0  0
 10 15  1  0  0  0  0
 10 16  2  0  0  0  0
 11 19  1  0  0  0  0
 11 29  1  0  0  0  0
 11 31  1  0  0  0  0
 12 13  2  0  0  0  0
 12 14  1  0  0  0  0
 13 16  1  0  0  0  0
 13 18  1  0  0  0  0
 14 17  2  0  0  0  0
 14 23  1  0  0  0  0
 15 21  2  0  0  0  0
 16 27  1  0  0  0  0
 17 19  1  0  0  0  0
 18 25  1  0  0  0  0
 19 22  2  0  0  0  0
 20 21  1  0  0  0  0
 20 26  1  0  0  0  0
 22 24  1  0  0  0  0
 23 24  2  0  0  0  0
 28 32  1  0  0  0  0
 28 33  1  0  0  0  0
 28 34  1  0  0  0  0
 29 30  1  0  0  0  0
 31 35  1  0  0  0  0
 35 37  2  0  0  0  0
 36 38  1  0  0  0  0
M  END
> <PUBCHEM_COMPOUND_ID_TYPE>
0

> <PUBCHEM_TOTAL_CHARGE>
0

> <PUBCHEM_SUBSTANCE_ID>
310936400

> <PUBCHEM_SUBSTANCE_VERSION>
1

> <PUBCHEM_EXT_DATASOURCE_NAME>
4488

> <PUBCHEM_EXT_DATASOURCE_REGID>
SCHEMBL16114038

> <PUBCHEM_SUBSTANCE_COMMENT>
InChI=1S/C27H31ClN4O6/c1-7-11-31-12-13-37-18-10-9-16(21(28)23(18)31)22-20(24(26(35)36-8-2)38-27(4,5)6)15(3)29-19-14-17(25(33)34)30-32(19)22/h7,9-10,14,24H,1,8,11-13H2,2-6H3,(H,33,34)/t24-/m0/s1
InChIKey=ITSGXSINAUIBRH-DEOSSOPVSA-N

> <PUBCHEM_SUBSTANCE_SYNONYM>
SCHEMBL16114038

> <PUBCHEM_XREF_EXT_ID>
SCHEMBL16114038

> <PUBCHEM_EXT_DATASOURCE_URL>
https://www.surechembl.org/

> <PUBCHEM_EXT_SUBSTANCE_URL>
https://www.surechembl.org/chemical/SCHEMBL16114038

> <PUBCHEM_CID_ASSOCIATIONS>
117604338  1

> <PUBCHEM_COORDINATE_TYPE>
1
3

> <PUBCHEM_BONDANNOTATIONS>
18  2  5

$$$$
