310933899
  -OEChem-07211613022D

 22 24  0     0  0  0  0  0  0999 V2000
    4.1204   -2.6883    0.0000 F   0  0  0  0  0  0  0  0  0  0  0  0
    3.0422   -0.0416    0.0000 F   0  0  0  0  0  0  0  0  0  0  0  0
    0.6079   -1.8067    0.0000 O   0  0  0  0  0  0  0  0  0  0  0  0
    0.1159   -3.3173    0.0000 O   0  0  0  0  0  0  0  0  0  0  0  0
    1.5572   -3.2669    0.0000 O   0  0  0  0  0  0  0  0  0  0  0  0
    0.9294   -3.4113    0.0000 O   0  0  0  0  0  0  0  0  0  0  0  0
    0.9228   -1.0102    0.0000 C   0  0  0  0  0  0  0  0  0  0  0  0
    1.1480   -1.6761    0.0000 C   0  0  0  0  0  0  0  0  0  0  0  0
    1.6614   -1.3425    0.0000 C   0  0  0  0  0  0  0  0  0  0  0  0
    0.1190   -1.3621    0.0000 C   0  0  0  0  0  0  0  0  0  0  0  0
    0.9605   -0.1141    0.0000 C   0  0  0  0  0  0  0  0  0  0  0  0
    1.7315   -2.1880    0.0000 C   0  0  0  0  0  0  0  0  0  0  0  0
    0.2262   -2.1175    0.0000 C   0  0  0  0  0  0  0  0  0  0  0  0
    1.2052   -0.7200    0.0000 C   0  0  0  0  0  0  0  0  0  0  0  0
    0.7803   -2.6807    0.0000 C   0  0  0  0  0  0  0  0  0  0  0  0
    1.2533   -2.5017    0.0000 C   0  0  0  0  0  0  0  0  0  0  0  0
    2.0532   -1.9875    0.0000 C   0  0  0  0  0  0  0  0  0  0  0  0
    2.1657   -1.1702    0.0000 C   0  0  0  0  0  0  0  0  0  0  0  0
    2.7048   -2.4935    0.0000 C   0  0  0  0  0  0  0  0  0  0  0  0
    3.4688   -2.1823    0.0000 C   0  0  0  0  0  0  0  0  0  0  0  0
    2.9297   -0.8589    0.0000 C   0  0  0  0  0  0  0  0  0  0  0  0
    3.5813   -1.3650    0.0000 C   0  0  0  0  0  0  0  0  0  0  0  0
  1 20  1  0  0  0  0
  2 21  1  0  0  0  0
  3  7  1  0  0  0  0
  3 16  1  0  0  0  0
  4 15  2  0  0  0  0
  5 15  1  0  0  0  0
  6 16  2  0  0  0  0
  7  9  1  0  0  0  0
  7 10  1  0  0  0  0
  7 11  1  0  0  0  0
  8 12  1  0  0  0  0
  8 13  1  0  0  0  0
  8 14  1  0  0  0  0
  8 15  1  0  0  0  0
  9 12  1  0  0  0  0
 10 13  1  0  0  0  0
 11 14  1  0  0  0  0
 16 17  1  0  0  0  0
 17 18  2  0  0  0  0
 17 19  1  0  0  0  0
 18 21  1  0  0  0  0
 19 20  2  0  0  0  0
 20 22  1  0  0  0  0
 21 22  2  0  0  0  0
M  END
> <PUBCHEM_COMPOUND_ID_TYPE>
0

> <PUBCHEM_TOTAL_CHARGE>
0

> <PUBCHEM_SUBSTANCE_ID>
310933899

> <PUBCHEM_SUBSTANCE_VERSION>
1

> <PUBCHEM_EXT_DATASOURCE_NAME>
4488

> <PUBCHEM_EXT_DATASOURCE_REGID>
SCHEMBL16111338

> <PUBCHEM_SUBSTANCE_COMMENT>
InChI=1S/C16H16F2O4/c17-11-7-10(8-12(18)9-11)13(19)22-16-4-1-15(2-5-16,3-6-16)14(20)21/h7-9H,1-6H2,(H,20,21)
InChIKey=GJPIPLPHQGHOOY-UHFFFAOYSA-N

> <PUBCHEM_SUBSTANCE_SYNONYM>
SCHEMBL16111338

> <PUBCHEM_XREF_EXT_ID>
SCHEMBL16111338

> <PUBCHEM_EXT_DATASOURCE_URL>
https://www.surechembl.org/

> <PUBCHEM_EXT_SUBSTANCE_URL>
https://www.surechembl.org/chemical/SCHEMBL16111338

> <PUBCHEM_CID_ASSOCIATIONS>
117602229  1

> <PUBCHEM_COORDINATE_TYPE>
1
3

$$$$
