310941380
  -OEChem-07211613022D

 27 28  0     1  0  0  0  0  0999 V2000
   -0.1698   -0.1330    0.0000 O   0  0  0  0  0  0  0  0  0  0  0  0
    0.4894   -2.2497    0.0000 O   0  0  0  0  0  0  0  0  0  0  0  0
   -0.1698   -0.1330    0.0000 O   0  0  0  0  0  0  0  0  0  0  0  0
   -0.0865   -3.1968    0.0000 O   0  0  0  0  0  0  0  0  0  0  0  0
   -4.3589    3.1968    0.0000 O   0  0  0  0  0  0  0  0  0  0  0  0
   -1.8526   -0.1509    0.0000 N   0  0  0  0  0  0  0  0  0  0  0  0
   -3.5175    2.7134    0.0000 N   0  3  0  0  0  0  0  0  0  0  0  0
   -1.0291    0.3324    0.0000 C   0  0  3  0  0  0  0  0  0  0  0  0
   -0.1698   -0.1330    0.0000 C   0  0  0  0  0  0  0  0  0  0  0  0
   -1.8526    1.7825    0.0000 C   0  0  0  0  0  0  0  0  0  0  0  0
   -1.0111    1.2812    0.0000 C   0  0  0  0  0  0  0  0  0  0  0  0
   -0.0865   -2.5825    0.0000 C   0  0  0  0  0  0  0  0  0  0  0  0
    0.5022   -1.6099    0.0000 C   0  0  0  0  0  0  0  0  0  0  0  0
   -1.8347    2.7134    0.0000 C   0  0  0  0  0  0  0  0  0  0  0  0
   -2.6581    1.2991    0.0000 C   0  0  0  0  0  0  0  0  0  0  0  0
   -2.6940    3.1968    0.0000 C   0  0  0  0  0  0  0  0  0  0  0  0
   -3.5175    1.7646    0.0000 C   0  0  0  0  0  0  0  0  0  0  0  0
    2.1366   -3.0791    0.0000 C   0  0  0  0  0  0  0  0  0  0  0  0
    2.9447   -2.6247    0.0000 C   0  0  0  0  0  0  0  0  0  0  0  0
    2.9447   -1.7997    0.0000 C   0  0  0  0  0  0  0  0  0  0  0  0
    3.6518   -3.0287    0.0000 C   0  0  0  0  0  0  0  0  0  0  0  0
    1.0781   -1.5843    0.0000 C   0  0  0  0  0  0  0  0  0  0  0  0
   -0.0865   -1.6099    0.0000 C   0  0  0  0  0  0  0  0  0  0  0  0
    0.4894   -0.9828    0.0000 C   0  0  0  0  0  0  0  0  0  0  0  0
    3.6518   -1.3788    0.0000 C   0  0  0  0  0  0  0  0  0  0  0  0
    4.3589   -2.6077    0.0000 C   0  0  0  0  0  0  0  0  0  0  0  0
    4.3589   -1.7828    0.0000 C   0  0  0  0  0  0  0  0  0  0  0  0
  1  9  1  0  0  0  0
  1 18  1  0  0  0  0
  2 12  1  0  0  0  0
  2 13  1  0  0  0  0
  3  9  2  0  0  0  0
  4 12  2  0  0  0  0
  5  7  1  0  0  0  0
  8  6  1  1  0  0  0
  6 12  1  0  0  0  0
  7 16  2  0  0  0  0
  7 17  1  0  0  0  0
  8  9  1  0  0  0  0
  8 11  1  0  0  0  0
 10 11  1  0  0  0  0
 10 14  2  0  0  0  0
 10 15  1  0  0  0  0
 13 22  1  0  0  0  0
 13 23  1  0  0  0  0
 13 24  1  0  0  0  0
 14 16  1  0  0  0  0
 15 17  2  0  0  0  0
 18 19  1  0  0  0  0
 19 20  2  0  0  0  0
 19 21  1  0  0  0  0
 20 25  1  0  0  0  0
 21 26  2  0  0  0  0
 25 27  2  0  0  0  0
 26 27  1  0  0  0  0
M  CHG  1   7   1
M  END
> <PUBCHEM_COMPOUND_ID_TYPE>
0

> <PUBCHEM_TOTAL_CHARGE>
1

> <PUBCHEM_SUBSTANCE_ID>
310941380

> <PUBCHEM_SUBSTANCE_VERSION>
1

> <PUBCHEM_EXT_DATASOURCE_NAME>
4488

> <PUBCHEM_EXT_DATASOURCE_REGID>
SCHEMBL16119340

> <PUBCHEM_SUBSTANCE_COMMENT>
InChI=1S/C20H24N2O5/c1-20(2,3)27-19(24)21-17(13-15-9-11-22(25)12-10-15)18(23)26-14-16-7-5-4-6-8-16/h4-12,17H,13-14H2,1-3H3,(H-,21,24,25)/p+1/t17-/m0/s1
InChIKey=CFYZIQVGOPUTFD-KRWDZBQOSA-O

> <PUBCHEM_SUBSTANCE_SYNONYM>
SCHEMBL16119340

> <PUBCHEM_XREF_EXT_ID>
SCHEMBL16119340

> <PUBCHEM_EXT_DATASOURCE_URL>
https://www.surechembl.org/

> <PUBCHEM_EXT_SUBSTANCE_URL>
https://www.surechembl.org/chemical/SCHEMBL16119340

> <PUBCHEM_CID_ASSOCIATIONS>
117608220  1

> <PUBCHEM_COORDINATE_TYPE>
1
3

> <PUBCHEM_BONDANNOTATIONS>
8  6  5

$$$$
