310940089
  -OEChem-07211613022D

 13 12  0     0  0  0  0  0  0999 V2000
    0.2143    0.7697    0.0000 O   0  0  0  0  0  0  0  0  0  0  0  0
   -2.8738    0.7697    0.0000 O   0  0  0  0  0  0  0  0  0  0  0  0
    1.8643   -0.0553    0.0000 O   0  0  0  0  0  0  0  0  0  0  0  0
    0.2143   -0.0553    0.0000 C   0  0  0  0  0  0  0  0  0  0  0  0
   -0.8040   -0.0553    0.0000 C   0  0  0  0  0  0  0  0  0  0  0  0
   -0.1982    0.6592    0.0000 C   0  0  0  0  0  0  0  0  0  0  0  0
   -1.6290   -0.0553    0.0000 C   0  0  0  0  0  0  0  0  0  0  0  0
   -2.8738   -0.0553    0.0000 C   0  0  0  0  0  0  0  0  0  0  0  0
    0.2143   -0.0553    0.0000 C   0  0  0  0  0  0  0  0  0  0  0  0
    1.0393   -0.0553    0.0000 C   0  0  0  0  0  0  0  0  0  0  0  0
    1.4518   -0.7697    0.0000 C   0  0  0  0  0  0  0  0  0  0  0  0
   -3.6988   -0.0553    0.0000 C   0  0  0  0  0  0  0  0  0  0  0  0
    2.2768   -0.7697    0.0000 C   0  0  0  0  0  0  0  0  0  0  0  0
  1  4  2  0  0  0  0
  2  8  2  0  0  0  0
  3 13  1  0  0  0  0
  4  5  1  0  0  0  0
  4  6  1  0  0  0  0
  5  7  1  0  0  0  0
  6  9  1  0  0  0  0
  7  8  1  0  0  0  0
  8 12  1  0  0  0  0
  9 10  1  0  0  0  0
 10 11  1  0  0  0  0
 11 13  1  0  0  0  0
M  END
> <PUBCHEM_COMPOUND_ID_TYPE>
0

> <PUBCHEM_TOTAL_CHARGE>
0

> <PUBCHEM_SUBSTANCE_ID>
310940089

> <PUBCHEM_SUBSTANCE_VERSION>
1

> <PUBCHEM_EXT_DATASOURCE_NAME>
4488

> <PUBCHEM_EXT_DATASOURCE_REGID>
SCHEMBL16118020

> <PUBCHEM_SUBSTANCE_COMMENT>
InChI=1S/C10H18O3/c1-9(12)6-7-10(13)5-3-2-4-8-11/h11H,2-8H2,1H3
InChIKey=FXJLCIDLHQTJIM-UHFFFAOYSA-N

> <PUBCHEM_SUBSTANCE_SYNONYM>
SCHEMBL16118020

> <PUBCHEM_XREF_EXT_ID>
SCHEMBL16118020

> <PUBCHEM_EXT_DATASOURCE_URL>
https://www.surechembl.org/

> <PUBCHEM_EXT_SUBSTANCE_URL>
https://www.surechembl.org/chemical/SCHEMBL16118020

> <PUBCHEM_CID_ASSOCIATIONS>
58108030  1

> <PUBCHEM_COORDINATE_TYPE>
1
3

$$$$
