310948874
  -OEChem-07211613022D

 25 25  0     1  0  0  0  0  0999 V2000
    1.4343    0.8226    0.0000 P   0  0  0  0  0  0  0  0  0  0  0  0
    0.0000    0.8649    0.0000 O   0  0  0  0  0  0  0  0  0  0  0  0
    0.0000   -1.6523    0.0000 O   0  0  0  0  0  0  0  0  0  0  0  0
   -1.4343   -0.8086    0.0000 O   0  0  0  0  0  0  0  0  0  0  0  0
    1.4343   -0.8086    0.0000 O   0  0  0  0  0  0  0  0  0  0  0  0
    1.4343    0.8226    0.0000 O   0  0  0  0  0  0  0  0  0  0  0  0
   -1.4343    1.7086    0.0000 O   0  0  0  0  0  0  0  0  0  0  0  0
   -1.3922   -1.6945    0.0000 O   0  0  0  0  0  0  0  0  0  0  0  0
   -1.4343   -0.8086    0.0000 O   0  0  0  0  0  0  0  0  0  0  0  0
    2.8406   -0.7805    0.0000 O   0  0  0  0  0  0  0  0  0  0  0  0
   -2.1656    2.8758    0.0000 O   0  0  0  0  0  0  0  0  0  0  0  0
   -1.4343   -0.8086    0.0000 N   0  0  0  0  0  0  0  0  0  0  0  0
    0.0000   -0.8086    0.0000 C   0  0  3  0  0  0  0  0  0  0  0  0
   -0.7312   -0.3867    0.0000 C   0  0  3  0  0  0  0  0  0  0  0  0
    0.7031   -0.3867    0.0000 C   0  0  3  0  0  0  0  0  0  0  0  0
   -0.7172    0.4570    0.0000 C   0  0  3  0  0  0  0  0  0  0  0  0
    0.7172    0.4429    0.0000 C   0  0  3  0  0  0  0  0  0  0  0  0
   -1.4343    0.8649    0.0000 C   0  0  0  0  0  0  0  0  0  0  0  0
   -0.7172   -2.0883    0.0000 C   0  0  0  0  0  0  0  0  0  0  0  0
   -1.4343   -0.8086    0.0000 C   0  0  0  0  0  0  0  0  0  0  0  0
    2.1656   -0.3867    0.0000 C   0  0  0  0  0  0  0  0  0  0  0  0
   -2.1656    2.1164    0.0000 C   0  0  0  0  0  0  0  0  0  0  0  0
   -0.7031   -2.8758    0.0000 C   0  0  0  0  0  0  0  0  0  0  0  0
    2.1515    0.4008    0.0000 C   0  0  0  0  0  0  0  0  0  0  0  0
   -2.8406    1.7086    0.0000 C   0  0  0  0  0  0  0  0  0  0  0  0
  1  6  1  0  0  0  0
  2 16  1  0  0  0  0
  2 17  1  0  0  0  0
 13  3  1  1  0  0  0
  3 19  1  0  0  0  0
 14  4  1  6  0  0  0
  4 20  1  0  0  0  0
 15  5  1  1  0  0  0
  5 21  1  0  0  0  0
 17  6  1  6  0  0  0
  7 18  1  0  0  0  0
  7 22  1  0  0  0  0
  8 19  2  0  0  0  0
  9 20  2  0  0  0  0
 10 21  2  0  0  0  0
 11 22  2  0  0  0  0
 12 20  1  0  0  0  0
 13 14  1  0  0  0  0
 13 15  1  0  0  0  0
 14 16  1  0  0  0  0
 15 17  1  0  0  0  0
 16 18  1  1  0  0  0
 19 23  1  0  0  0  0
 21 24  1  0  0  0  0
 22 25  1  0  0  0  0
M  END
> <PUBCHEM_COMPOUND_ID_TYPE>
0

> <PUBCHEM_TOTAL_CHARGE>
0

> <PUBCHEM_SUBSTANCE_ID>
310948874

> <PUBCHEM_SUBSTANCE_VERSION>
1

> <PUBCHEM_EXT_DATASOURCE_NAME>
4488

> <PUBCHEM_EXT_DATASOURCE_REGID>
SCHEMBL16127059

> <PUBCHEM_SUBSTANCE_COMMENT>
InChI=1S/C13H20NO10P/c1-5(15)19-4-8-9(23-13(14)18)10(20-6(2)16)11(21-7(3)17)12(22-8)24-25/h8-12H,4,25H2,1-3H3,(H2,14,18)/t8-,9-,10+,11+,12-/m1/s1
InChIKey=OZSHWVDDJLAYSP-LDMBFOFVSA-N

> <PUBCHEM_SUBSTANCE_SYNONYM>
SCHEMBL16127059

> <PUBCHEM_XREF_EXT_ID>
SCHEMBL16127059

> <PUBCHEM_EXT_DATASOURCE_URL>
https://www.surechembl.org/

> <PUBCHEM_EXT_SUBSTANCE_URL>
https://www.surechembl.org/chemical/SCHEMBL16127059

> <PUBCHEM_CID_ASSOCIATIONS>
117614404  1

> <PUBCHEM_COORDINATE_TYPE>
1
3

> <PUBCHEM_BONDANNOTATIONS>
16  18  5
13  3  5
14  4  6
15  5  5
17  6  6

$$$$
