310948104
  -OEChem-07211613022D

 44 49  0     0  0  0  0  0  0999 V2000
    3.0270   -0.0837    0.0000 S   0  0  0  0  0  0  0  0  0  0  0  0
    3.0270   -2.9282    0.0000 F   0  0  0  0  0  0  0  0  0  0  0  0
    3.0131    2.9282    0.0000 F   0  0  0  0  0  0  0  0  0  0  0  0
    1.9534    2.4123    0.0000 F   0  0  0  0  0  0  0  0  0  0  0  0
    3.4872    1.8545    0.0000 F   0  0  0  0  0  0  0  0  0  0  0  0
   -1.9787    0.0000    0.0000 O   0  0  0  0  0  0  0  0  0  0  0  0
    3.0270   -0.0837    0.0000 O   0  0  0  0  0  0  0  0  0  0  0  0
    3.0270   -0.0837    0.0000 O   0  0  0  0  0  0  0  0  0  0  0  0
    2.4554    1.3665    0.0000 O   0  0  0  0  0  0  0  0  0  0  0  0
    4.2820   -2.2310    0.0000 O   0  0  0  0  0  0  0  0  0  0  0  0
   -1.9787   -1.5060    0.0000 N   0  0  0  0  0  0  0  0  0  0  0  0
   -1.4210    1.2410    0.0000 N   0  0  0  0  0  0  0  0  0  0  0  0
   -2.4668   -0.8366    0.0000 N   0  0  0  0  0  0  0  0  0  0  0  0
   -0.7238   -0.7808    0.0000 C   0  0  0  0  0  0  0  0  0  0  0  0
   -1.1561   -0.0698    0.0000 C   0  0  0  0  0  0  0  0  0  0  0  0
   -1.1421   -1.5060    0.0000 C   0  0  0  0  0  0  0  0  0  0  0  0
   -0.7935    0.6832    0.0000 C   0  0  0  0  0  0  0  0  0  0  0  0
    0.5172   -1.5060    0.0000 C   0  0  0  0  0  0  0  0  0  0  0  0
    0.1128   -0.8087    0.0000 C   0  0  0  0  0  0  0  0  0  0  0  0
    1.3677   -1.5060    0.0000 C   0  0  0  0  0  0  0  0  0  0  0  0
    2.6087   -0.7948    0.0000 C   0  0  0  0  0  0  0  0  0  0  0  0
    0.0152    0.8506    0.0000 C   0  0  0  0  0  0  0  0  0  0  0  0
   -0.7238   -2.2171    0.0000 C   0  0  0  0  0  0  0  0  0  0  0  0
    0.1128   -2.2171    0.0000 C   0  0  0  0  0  0  0  0  0  0  0  0
   -2.1461    0.8227    0.0000 C   0  0  0  0  0  0  0  0  0  0  0  0
    3.0131   -1.5060    0.0000 C   0  0  0  0  0  0  0  0  0  0  0  0
    1.7861   -0.7948    0.0000 C   0  0  0  0  0  0  0  0  0  0  0  0
   -3.2616   -1.0876    0.0000 C   0  0  0  0  0  0  0  0  0  0  0  0
    2.6087   -2.2171    0.0000 C   0  0  0  0  0  0  0  0  0  0  0  0
    1.7721   -2.2031    0.0000 C   0  0  0  0  0  0  0  0  0  0  0  0
   -2.4807   -2.1752    0.0000 C   0  0  0  0  0  0  0  0  0  0  0  0
   -3.9588   -0.5857    0.0000 C   0  0  0  0  0  0  0  0  0  0  0  0
   -3.2616   -1.9103    0.0000 C   0  0  0  0  0  0  0  0  0  0  0  0
    0.5590    0.2510    0.0000 C   0  0  0  0  0  0  0  0  0  0  0  0
    0.2801    1.6315    0.0000 C   0  0  0  0  0  0  0  0  0  0  0  0
   -4.7536   -0.5159    0.0000 C   0  0  0  0  0  0  0  0  0  0  0  0
   -4.2795    0.1255    0.0000 C   0  0  0  0  0  0  0  0  0  0  0  0
    3.8776   -1.5199    0.0000 C   0  0  0  0  0  0  0  0  0  0  0  0
    1.6466    1.1991    0.0000 C   0  0  0  0  0  0  0  0  0  0  0  0
    1.3817    0.4183    0.0000 C   0  0  0  0  0  0  0  0  0  0  0  0
    1.0888    1.7988    0.0000 C   0  0  0  0  0  0  0  0  0  0  0  0
   -2.9270    1.1434    0.0000 C   0  0  0  0  0  0  0  0  0  0  0  0
    4.7536   -1.8641    0.0000 C   0  0  0  0  0  0  0  0  0  0  0  0
    2.7342    2.1613    0.0000 C   0  0  0  0  0  0  0  0  0  0  0  0
  1  7  2  0  0  0  0
  1  8  2  0  0  0  0
  1 21  1  0  0  0  0
  1 43  1  0  0  0  0
  2 29  1  0  0  0  0
  3 44  1  0  0  0  0
  4 44  1  0  0  0  0
  5 44  1  0  0  0  0
  6 15  1  0  0  0  0
  6 25  1  0  0  0  0
  9 39  1  0  0  0  0
  9 44  1  0  0  0  0
 10 38  1  0  0  0  0
 11 13  1  0  0  0  0
 11 16  1  0  0  0  0
 11 31  1  0  0  0  0
 12 17  1  0  0  0  0
 12 25  2  0  0  0  0
 13 28  2  0  0  0  0
 14 15  1  0  0  0  0
 14 16  2  0  0  0  0
 14 19  1  0  0  0  0
 15 17  2  0  0  0  0
 16 23  1  0  0  0  0
 17 22  1  0  0  0  0
 18 19  2  0  0  0  0
 18 20  1  0  0  0  0
 18 24  1  0  0  0  0
 20 27  1  0  0  0  0
 20 30  2  0  0  0  0
 21 26  1  0  0  0  0
 21 27  2  0  0  0  0
 22 34  2  0  0  0  0
 22 35  1  0  0  0  0
 23 24  2  0  0  0  0
 25 42  1  0  0  0  0
 26 29  2  0  0  0  0
 26 38  1  0  0  0  0
 28 32  1  0  0  0  0
 28 33  1  0  0  0  0
 29 30  1  0  0  0  0
 31 33  2  0  0  0  0
 32 36  1  0  0  0  0
 32 37  1  0  0  0  0
 34 40  1  0  0  0  0
 35 41  2  0  0  0  0
 36 37  1  0  0  0  0
 39 40  2  0  0  0  0
 39 41  1  0  0  0  0
M  END
> <PUBCHEM_COMPOUND_ID_TYPE>
0

> <PUBCHEM_TOTAL_CHARGE>
0

> <PUBCHEM_SUBSTANCE_ID>
310948104

> <PUBCHEM_SUBSTANCE_VERSION>
1

> <PUBCHEM_EXT_DATASOURCE_NAME>
4488

> <PUBCHEM_EXT_DATASOURCE_REGID>
SCHEMBL16126280

> <PUBCHEM_SUBSTANCE_COMMENT>
InChI=1S/C31H25F4N3O5S/c1-17-36-29(19-5-8-22(9-6-19)43-31(33,34)35)30(42-17)23-13-20(7-10-27(23)38-12-11-26(37-38)18-3-4-18)21-14-25(32)24(16-39)28(15-21)44(2,40)41/h5-15,18,39H,3-4,16H2,1-2H3
InChIKey=SCAXVTHVVLVDMM-UHFFFAOYSA-N

> <PUBCHEM_SUBSTANCE_SYNONYM>
SCHEMBL16126280

> <PUBCHEM_XREF_EXT_ID>
SCHEMBL16126280

> <PUBCHEM_EXT_DATASOURCE_URL>
https://www.surechembl.org/

> <PUBCHEM_EXT_SUBSTANCE_URL>
https://www.surechembl.org/chemical/SCHEMBL16126280

> <PUBCHEM_CID_ASSOCIATIONS>
117613722  1

> <PUBCHEM_COORDINATE_TYPE>
1
3

$$$$
