310948827
  -OEChem-07211613022D

 95 98  0     1  0  0  0  0  0999 V2000
    4.6400    2.0597    0.0000 S   0  0  0  0  0  0  0  0  0  0  0  0
    8.3247   -0.5062    0.0000 S   0  0  0  0  0  0  0  0  0  0  0  0
   -6.1686    0.3562    0.0000 O   0  0  0  0  0  0  0  0  0  0  0  0
   -2.5124   -3.9562    0.0000 O   0  0  0  0  0  0  0  0  0  0  0  0
   -5.4186    5.3811    0.0000 O   0  0  0  0  0  0  0  0  0  0  0  0
   -6.1686   -2.1374    0.0000 O   0  0  0  0  0  0  0  0  0  0  0  0
   -3.7499   -6.1123    0.0000 O   0  0  0  0  0  0  0  0  0  0  0  0
   -6.6561    3.2249    0.0000 O   0  0  0  0  0  0  0  0  0  0  0  0
   -1.2562   -4.6874    0.0000 O   0  0  0  0  0  0  0  0  0  0  0  0
   -4.7249    0.3562    0.0000 O   0  0  0  0  0  0  0  0  0  0  0  0
   -4.1812    4.6686    0.0000 O   0  0  0  0  0  0  0  0  0  0  0  0
   -4.7249   -1.2937    0.0000 O   0  0  0  0  0  0  0  0  0  0  0  0
   -2.0812   -6.1123    0.0000 O   0  0  0  0  0  0  0  0  0  0  0  0
   -7.5935   -1.3125    0.0000 O   0  0  0  0  0  0  0  0  0  0  0  0
   -4.5936   -4.6874    0.0000 O   0  0  0  0  0  0  0  0  0  0  0  0
   -5.0061    3.2436    0.0000 O   0  0  0  0  0  0  0  0  0  0  0  0
   -7.4998    4.6686    0.0000 O   0  0  0  0  0  0  0  0  0  0  0  0
   -8.3247   -0.0562    0.0000 O   0  0  0  0  0  0  0  0  0  0  0  0
   -4.5749   -3.2249    0.0000 O   0  0  0  0  0  0  0  0  0  0  0  0
   -7.4998    6.1123    0.0000 O   0  0  0  0  0  0  0  0  0  0  0  0
   -6.1686   -2.1374    0.0000 O   0  0  0  0  0  0  0  0  0  0  0  0
   -3.7499   -6.1123    0.0000 O   0  0  0  0  0  0  0  0  0  0  0  0
   -6.6561    3.2249    0.0000 O   0  0  0  0  0  0  0  0  0  0  0  0
    6.8623    1.9687    0.0000 O   0  0  0  0  0  0  0  0  0  0  0  0
    0.3937   -3.2436    0.0000 O   0  0  0  0  0  0  0  0  0  0  0  0
   -2.5687   -0.0562    0.0000 O   0  0  0  0  0  0  0  0  0  0  0  0
    3.9187   -0.4688    0.0000 O   0  0  0  0  0  0  0  0  0  0  0  0
   -1.6874    3.2249    0.0000 O   0  0  0  0  0  0  0  0  0  0  0  0
    0.3187   -0.8999    0.0000 O   0  0  0  0  0  0  0  0  0  0  0  0
    3.7311   -1.8000    0.0000 O   0  0  0  0  0  0  0  0  0  0  0  0
    1.2375    2.5124    0.0000 O   0  0  0  0  0  0  0  0  0  0  0  0
    6.0749    0.7875    0.0000 N   0  0  0  0  0  0  0  0  0  0  0  0
   -6.1686   -2.1374    0.0000 N   0  0  0  0  0  0  0  0  0  0  0  0
   -3.7499   -6.1123    0.0000 N   0  0  0  0  0  0  0  0  0  0  0  0
   -6.6561    3.2249    0.0000 N   0  0  0  0  0  0  0  0  0  0  0  0
    3.2062    0.7875    0.0000 N   0  0  0  0  0  0  0  0  0  0  0  0
    2.4749   -2.5124    0.0000 N   0  0  0  0  0  0  0  0  0  0  0  0
   -0.3937    0.3750    0.0000 N   0  0  0  0  0  0  0  0  0  0  0  0
   -0.0187    1.8000    0.0000 N   0  0  0  0  0  0  0  0  0  0  0  0
   -6.1498   -1.2750    0.0000 C   0  0  3  0  0  0  0  0  0  0  0  0
   -3.3374   -5.3623    0.0000 C   0  0  3  0  0  0  0  0  0  0  0  0
   -6.2623    3.9936    0.0000 C   0  0  3  0  0  0  0  0  0  0  0  0
   -5.4561   -0.8625    0.0000 C   0  0  3  0  0  0  0  0  0  0  0  0
   -2.5124   -5.3811    0.0000 C   0  0  3  0  0  0  0  0  0  0  0  0
   -6.8811   -0.8625    0.0000 C   0  0  3  0  0  0  0  0  0  0  0  0
   -3.7499   -4.6686    0.0000 C   0  0  3  0  0  0  0  0  0  0  0  0
   -5.4186    3.9562    0.0000 C   0  0  3  0  0  0  0  0  0  0  0  0
   -6.6561    4.6686    0.0000 C   0  0  3  0  0  0  0  0  0  0  0  0
   -5.4373   -0.0375    0.0000 C   0  0  3  0  0  0  0  0  0  0  0  0
   -2.1000   -4.6498    0.0000 C   0  0  3  0  0  0  0  0  0  0  0  0
   -5.0061    4.6874    0.0000 C   0  0  3  0  0  0  0  0  0  0  0  0
   -6.8811   -0.0375    0.0000 C   0  0  3  0  0  0  0  0  0  0  0  0
   -3.3374   -3.9374    0.0000 C   0  0  3  0  0  0  0  0  0  0  0  0
   -6.2623    5.4186    0.0000 C   0  0  3  0  0  0  0  0  0  0  0  0
    6.5195    0.8793    0.0000 C   0  0  0  0  0  0  0  0  0  0  0  0
   -7.5935    0.3750    0.0000 C   0  0  0  0  0  0  0  0  0  0  0  0
   -3.7499   -3.2249    0.0000 C   0  0  0  0  0  0  0  0  0  0  0  0
   -6.6561    6.1123    0.0000 C   0  0  0  0  0  0  0  0  0  0  0  0
    7.5560    0.7313    0.0000 C   0  0  3  0  0  0  0  0  0  0  0  0
   -6.1686   -2.1374    0.0000 C   0  0  0  0  0  0  0  0  0  0  0  0
   -3.7499   -6.1123    0.0000 C   0  0  0  0  0  0  0  0  0  0  0  0
   -6.6561    3.2249    0.0000 C   0  0  0  0  0  0  0  0  0  0  0  0
    7.5185    1.5937    0.0000 C   0  0  0  0  0  0  0  0  0  0  0  0
    6.8061    0.3750    0.0000 C   0  0  0  0  0  0  0  0  0  0  0  0
    6.7946    1.3720    0.0000 C   0  0  0  0  0  0  0  0  0  0  0  0
   -0.8437   -3.9562    0.0000 C   0  0  0  0  0  0  0  0  0  0  0  0
   -3.9749   -0.0375    0.0000 C   0  0  0  0  0  0  0  0  0  0  0  0
   -3.7686    3.9749    0.0000 C   0  0  0  0  0  0  0  0  0  0  0  0
    2.4936    0.3937    0.0000 C   0  0  0  0  0  0  0  0  0  0  0  0
    8.2685    0.3187    0.0000 C   0  0  0  0  0  0  0  0  0  0  0  0
    7.3791    0.3750    0.0000 C   0  0  0  0  0  0  0  0  0  0  0  0
    7.3676    1.3720    0.0000 C   0  0  0  0  0  0  0  0  0  0  0  0
    7.6541    0.8793    0.0000 C   0  0  0  0  0  0  0  0  0  0  0  0
   -0.0187   -3.9562    0.0000 C   0  0  0  0  0  0  0  0  0  0  0  0
   -3.2999    0.3562    0.0000 C   0  0  0  0  0  0  0  0  0  0  0  0
   -2.9062    3.9374    0.0000 C   0  0  0  0  0  0  0  0  0  0  0  0
    2.9062   -0.3375    0.0000 C   0  0  0  0  0  0  0  0  0  0  0  0
    1.7625   -0.0375    0.0000 C   0  0  0  0  0  0  0  0  0  0  0  0
    3.9374    0.3937    0.0000 C   0  0  0  0  0  0  0  0  0  0  0  0
    2.0812    1.0687    0.0000 C   0  0  0  0  0  0  0  0  0  0  0  0
    5.3436    0.3750    0.0000 C   0  0  0  0  0  0  0  0  0  0  0  0
    4.6123    0.7687    0.0000 C   0  0  0  0  0  0  0  0  0  0  0  0
    2.4936   -1.0875    0.0000 C   0  0  0  0  0  0  0  0  0  0  0  0
    1.0125    0.3562    0.0000 C   0  0  0  0  0  0  0  0  0  0  0  0
    1.2187    1.1062    0.0000 C   0  0  0  0  0  0  0  0  0  0  0  0
   -2.5124    3.2624    0.0000 C   0  0  0  0  0  0  0  0  0  0  0  0
    2.8687   -1.7812    0.0000 C   0  0  0  0  0  0  0  0  0  0  0  0
    0.3187   -0.0187    0.0000 C   0  0  0  0  0  0  0  0  0  0  0  0
    0.8062    1.8000    0.0000 C   0  0  0  0  0  0  0  0  0  0  0  0
    1.2375   -3.2062    0.0000 C   0  0  0  0  0  0  0  0  0  0  0  0
   -1.8562    0.3562    0.0000 C   0  0  0  0  0  0  0  0  0  0  0  0
    1.6499   -2.5124    0.0000 C   0  0  0  0  0  0  0  0  0  0  0  0
   -1.1062   -0.0375    0.0000 C   0  0  0  0  0  0  0  0  0  0  0  0
   -1.2562    2.5312    0.0000 C   0  0  0  0  0  0  0  0  0  0  0  0
   -0.4125    2.5124    0.0000 C   0  0  0  0  0  0  0  0  0  0  0  0
  1 55  1  0  0  0  0
  2 70  1  0  0  0  0
  3 49  1  0  0  0  0
  3 52  1  0  0  0  0
  4 50  1  0  0  0  0
  4 53  1  0  0  0  0
  5 51  1  0  0  0  0
  5 54  1  0  0  0  0
 40  6  1  1  0  0  0
  6 60  1  0  0  0  0
 41  7  1  1  0  0  0
  7 61  1  0  0  0  0
 42  8  1  1  0  0  0
  8 62  1  0  0  0  0
  9 50  1  0  0  0  0
  9 66  1  0  0  0  0
 10 49  1  0  0  0  0
 10 67  1  0  0  0  0
 11 51  1  0  0  0  0
 11 68  1  0  0  0  0
 43 12  1  1  0  0  0
 44 13  1  1  0  0  0
 45 14  1  6  0  0  0
 46 15  1  6  0  0  0
 47 16  1  1  0  0  0
 48 17  1  6  0  0  0
 18 56  1  0  0  0  0
 19 57  1  0  0  0  0
 20 58  1  0  0  0  0
 21 60  2  0  0  0  0
 22 61  2  0  0  0  0
 23 62  2  0  0  0  0
 24 63  2  0  0  0  0
 25 74  1  0  0  0  0
 25 90  1  0  0  0  0
 26 75  1  0  0  0  0
 26 91  1  0  0  0  0
 27 79  2  0  0  0  0
 28 86  1  0  0  0  0
 28 94  1  0  0  0  0
 29 88  2  0  0  0  0
 30 87  2  0  0  0  0
 31 89  2  0  0  0  0
 32 63  1  0  0  0  0
 32 81  1  0  0  0  0
 33 60  1  0  0  0  0
 34 61  1  0  0  0  0
 35 62  1  0  0  0  0
 36 69  1  0  0  0  0
 36 79  1  0  0  0  0
 37 87  1  0  0  0  0
 37 92  1  0  0  0  0
 38 88  1  0  0  0  0
 38 93  1  0  0  0  0
 39 89  1  0  0  0  0
 39 95  1  0  0  0  0
 40 43  1  0  0  0  0
 40 45  1  0  0  0  0
 41 44  1  0  0  0  0
 41 46  1  0  0  0  0
 42 47  1  0  0  0  0
 42 48  1  0  0  0  0
 43 49  1  0  0  0  0
 44 50  1  0  0  0  0
 45 52  1  0  0  0  0
 46 53  1  0  0  0  0
 47 51  1  0  0  0  0
 48 54  1  0  0  0  0
 52 56  1  1  0  0  0
 53 57  1  1  0  0  0
 54 58  1  1  0  0  0
 55 59  1  0  0  0  0
 55 64  1  0  0  0  0
 55 65  1  0  0  0  0
 59 63  1  6  0  0  0
 59 70  1  0  0  0  0
 64 71  1  0  0  0  0
 65 72  1  0  0  0  0
 66 74  1  0  0  0  0
 67 75  1  0  0  0  0
 68 76  1  0  0  0  0
 69 77  1  0  0  0  0
 69 78  1  0  0  0  0
 69 80  1  0  0  0  0
 71 73  1  0  0  0  0
 72 73  1  0  0  0  0
 76 86  1  0  0  0  0
 77 83  1  0  0  0  0
 78 84  1  0  0  0  0
 79 82  1  0  0  0  0
 80 85  1  0  0  0  0
 81 82  1  0  0  0  0
 83 87  1  0  0  0  0
 84 88  1  0  0  0  0
 85 89  1  0  0  0  0
 90 92  1  0  0  0  0
 91 93  1  0  0  0  0
 94 95  1  0  0  0  0
M  END
> <PUBCHEM_COMPOUND_ID_TYPE>
0

> <PUBCHEM_TOTAL_CHARGE>
0

> <PUBCHEM_SUBSTANCE_ID>
310948827

> <PUBCHEM_SUBSTANCE_VERSION>
1

> <PUBCHEM_EXT_DATASOURCE_NAME>
4488

> <PUBCHEM_EXT_DATASOURCE_REGID>
SCHEMBL16127011

> <PUBCHEM_SUBSTANCE_COMMENT>
InChI=1S/C56H98N8O29S2/c57-52(79)91-45-39(72)32(27-65)88-49(42(45)75)85-19-4-18-82-20-15-60-35(68)5-11-55(64-38(71)8-14-63-48(78)31(30-94)56(95)9-2-1-3-10-56,12-6-36(69)61-16-21-83-23-25-86-50-43(76)46(92-53(58)80)40(73)33(28-66)89-50)13-7-37(70)62-17-22-84-24-26-87-51-44(77)47(93-54(59)81)41(74)34(29-67)90-51/h31-34,39-47,49-51,65-67,72-77,94-95H,1-30H2,(H2,57,79)(H2,58,80)(H2,59,81)(H,60,68)(H,61,69)(H,62,70)(H,63,78)(H,64,71)/t31-,32+,33+,34+,39+,40+,41+,42-,43-,44-,45-,46-,47-,49?,50?,51?,55?/m0/s1
InChIKey=RRYRLUHRXHZLII-QECIACRLSA-N

> <PUBCHEM_SUBSTANCE_SYNONYM>
SCHEMBL16127011

> <PUBCHEM_XREF_EXT_ID>
SCHEMBL16127011

> <PUBCHEM_EXT_DATASOURCE_URL>
https://www.surechembl.org/

> <PUBCHEM_EXT_SUBSTANCE_URL>
https://www.surechembl.org/chemical/SCHEMBL16127011

> <PUBCHEM_CID_ASSOCIATIONS>
117614364  1

> <PUBCHEM_COORDINATE_TYPE>
1
3

> <PUBCHEM_BONDANNOTATIONS>
43  12  5
44  13  5
45  14  6
46  15  6
47  16  5
48  17  6
52  56  5
53  57  5
54  58  5
59  63  6
40  6  5
41  7  5
42  8  5

$$$$
