310949065
  -OEChem-07211613022D

 56 65  0     0  0  0  0  0  0999 V2000
   -0.5106    0.1905    0.0000 N   0  0  0  0  0  0  0  0  0  0  0  0
    1.6079   -0.2667    0.0000 N   0  0  0  0  0  0  0  0  0  0  0  0
   -0.5106   -3.9549    0.0000 N   0  0  0  0  0  0  0  0  0  0  0  0
    1.6231   -1.8822    0.0000 C   0  0  0  0  0  0  0  0  0  0  0  0
   -0.5106   -0.6325    0.0000 C   0  0  0  0  0  0  0  0  0  0  0  0
    1.7756   -1.0744    0.0000 C   0  0  0  0  0  0  0  0  0  0  0  0
    0.1753   -1.8974    0.0000 C   0  0  0  0  0  0  0  0  0  0  0  0
    0.9068   -2.2937    0.0000 C   0  0  0  0  0  0  0  0  0  0  0  0
    0.1905   -1.0592    0.0000 C   0  0  0  0  0  0  0  0  0  0  0  0
    2.3242   -2.3242    0.0000 C   0  0  0  0  0  0  0  0  0  0  0  0
    0.1600    0.7087    0.0000 C   0  0  0  0  0  0  0  0  0  0  0  0
   -1.2269    0.6934    0.0000 C   0  0  0  0  0  0  0  0  0  0  0  0
    2.5985   -0.9830    0.0000 C   0  0  0  0  0  0  0  0  0  0  0  0
   -0.9526    1.5012    0.0000 C   0  0  0  0  0  0  0  0  0  0  0  0
   -0.1143    1.4859    0.0000 C   0  0  0  0  0  0  0  0  0  0  0  0
    2.9338   -1.7298    0.0000 C   0  0  0  0  0  0  0  0  0  0  0  0
   -1.2269   -1.0440    0.0000 C   0  0  0  0  0  0  0  0  0  0  0  0
   -0.5411   -2.2785    0.0000 C   0  0  0  0  0  0  0  0  0  0  0  0
   -1.2269   -1.8822    0.0000 C   0  0  0  0  0  0  0  0  0  0  0  0
    0.9068   -3.1319    0.0000 C   0  0  0  0  0  0  0  0  0  0  0  0
    2.3394   -3.1319    0.0000 C   0  0  0  0  0  0  0  0  0  0  0  0
   -1.9585   -0.6172    0.0000 C   0  0  0  0  0  0  0  0  0  0  0  0
    0.9830    0.5563    0.0000 C   0  0  0  0  0  0  0  0  0  0  0  0
   -2.0042    0.5411    0.0000 C   0  0  0  0  0  0  0  0  0  0  0  0
   -1.5012    2.0803    0.0000 C   0  0  0  0  0  0  0  0  0  0  0  0
    0.4343    2.0803    0.0000 C   0  0  0  0  0  0  0  0  0  0  0  0
    3.0710   -0.3277    0.0000 C   0  0  0  0  0  0  0  0  0  0  0  0
    0.9068   -0.6477    0.0000 C   0  0  0  0  0  0  0  0  0  0  0  0
    3.7568   -1.8213    0.0000 C   0  0  0  0  0  0  0  0  0  0  0  0
    1.0592   -1.5012    0.0000 C   0  0  0  0  0  0  0  0  0  0  0  0
    1.5622   -0.2667    0.0000 C   0  0  0  0  0  0  0  0  0  0  0  0
   -2.3242    1.9432    0.0000 C   0  0  0  0  0  0  0  0  0  0  0  0
    1.2421    1.9127    0.0000 C   0  0  0  0  0  0  0  0  0  0  0  0
    1.6384   -3.5434    0.0000 C   0  0  0  0  0  0  0  0  0  0  0  0
   -2.5681    1.1201    0.0000 C   0  0  0  0  0  0  0  0  0  0  0  0
    1.5012    1.1355    0.0000 C   0  0  0  0  0  0  0  0  0  0  0  0
   -0.5258   -3.1472    0.0000 C   0  0  0  0  0  0  0  0  0  0  0  0
    3.8787   -0.4039    0.0000 C   0  0  0  0  0  0  0  0  0  0  0  0
    4.2293   -1.1507    0.0000 C   0  0  0  0  0  0  0  0  0  0  0  0
   -2.8881    2.5681    0.0000 C   0  0  0  0  0  0  0  0  0  0  0  0
    1.7908    2.5833    0.0000 C   0  0  0  0  0  0  0  0  0  0  0  0
   -1.9585    0.1905    0.0000 C   0  0  0  0  0  0  0  0  0  0  0  0
   -2.6900   -1.0287    0.0000 C   0  0  0  0  0  0  0  0  0  0  0  0
   -2.6595    0.6172    0.0000 C   0  0  0  0  0  0  0  0  0  0  0  0
   -3.3911   -0.6172    0.0000 C   0  0  0  0  0  0  0  0  0  0  0  0
   -2.6138    3.3148    0.0000 C   0  0  0  0  0  0  0  0  0  0  0  0
    2.5833    2.4004    0.0000 C   0  0  0  0  0  0  0  0  0  0  0  0
   -3.6958    2.3852    0.0000 C   0  0  0  0  0  0  0  0  0  0  0  0
    1.5622    3.3605    0.0000 C   0  0  0  0  0  0  0  0  0  0  0  0
   -3.3758    0.2057    0.0000 C   0  0  0  0  0  0  0  0  0  0  0  0
   -3.1777    3.9244    0.0000 C   0  0  0  0  0  0  0  0  0  0  0  0
    3.1624    3.0100    0.0000 C   0  0  0  0  0  0  0  0  0  0  0  0
   -4.2293    2.9948    0.0000 C   0  0  0  0  0  0  0  0  0  0  0  0
    2.0651    3.9549    0.0000 C   0  0  0  0  0  0  0  0  0  0  0  0
   -4.0007    3.7568    0.0000 C   0  0  0  0  0  0  0  0  0  0  0  0
    2.8728    3.7873    0.0000 C   0  0  0  0  0  0  0  0  0  0  0  0
  1  5  1  0  0  0  0
  1 11  1  0  0  0  0
  1 12  1  0  0  0  0
  2 28  3  0  0  0  0
  3 37  3  0  0  0  0
  4  6  1  0  0  0  0
  4  8  1  0  0  0  0
  4 10  2  0  0  0  0
  5  9  2  0  0  0  0
  5 17  1  0  0  0  0
  6 13  1  0  0  0  0
  6 30  1  0  0  0  0
  6 31  1  0  0  0  0
  7  8  1  0  0  0  0
  7  9  1  0  0  0  0
  7 18  2  0  0  0  0
  8 20  2  0  0  0  0
  9 28  1  0  0  0  0
 10 16  1  0  0  0  0
 10 21  1  0  0  0  0
 11 15  2  0  0  0  0
 11 23  1  0  0  0  0
 12 14  2  0  0  0  0
 12 24  1  0  0  0  0
 13 16  2  0  0  0  0
 13 27  1  0  0  0  0
 14 15  1  0  0  0  0
 14 25  1  0  0  0  0
 15 26  1  0  0  0  0
 16 29  1  0  0  0  0
 17 19  2  0  0  0  0
 17 22  1  0  0  0  0
 18 19  1  0  0  0  0
 18 37  1  0  0  0  0
 20 34  1  0  0  0  0
 21 34  2  0  0  0  0
 22 42  2  0  0  0  0
 22 43  1  0  0  0  0
 23 36  2  0  0  0  0
 24 35  2  0  0  0  0
 25 32  2  0  0  0  0
 26 33  2  0  0  0  0
 27 38  2  0  0  0  0
 29 39  2  0  0  0  0
 32 35  1  0  0  0  0
 32 40  1  0  0  0  0
 33 36  1  0  0  0  0
 33 41  1  0  0  0  0
 38 39  1  0  0  0  0
 40 46  2  0  0  0  0
 40 48  1  0  0  0  0
 41 47  2  0  0  0  0
 41 49  1  0  0  0  0
 42 44  1  0  0  0  0
 43 45  2  0  0  0  0
 44 50  2  0  0  0  0
 45 50  1  0  0  0  0
 46 51  1  0  0  0  0
 47 52  1  0  0  0  0
 48 53  2  0  0  0  0
 49 54  2  0  0  0  0
 51 55  2  0  0  0  0
 52 56  2  0  0  0  0
 53 55  1  0  0  0  0
 54 56  1  0  0  0  0
M  END
> <PUBCHEM_COMPOUND_ID_TYPE>
0

> <PUBCHEM_TOTAL_CHARGE>
0

> <PUBCHEM_SUBSTANCE_ID>
310949065

> <PUBCHEM_SUBSTANCE_VERSION>
1

> <PUBCHEM_EXT_DATASOURCE_NAME>
4488

> <PUBCHEM_EXT_DATASOURCE_REGID>
SCHEMBL16127255

> <PUBCHEM_SUBSTANCE_COMMENT>
InChI=1S/C53H35N3/c1-53(2)47-24-13-12-21-40(47)41-22-14-23-42(51(41)53)50-39(32-54)31-43(36-19-10-5-11-20-36)52(46(50)33-55)56-48-27-25-37(34-15-6-3-7-16-34)29-44(48)45-30-38(26-28-49(45)56)35-17-8-4-9-18-35/h3-31H,1-2H3
InChIKey=JOQSXWNDNGJPHH-UHFFFAOYSA-N

> <PUBCHEM_SUBSTANCE_SYNONYM>
SCHEMBL16127255

> <PUBCHEM_XREF_EXT_ID>
SCHEMBL16127255

> <PUBCHEM_EXT_DATASOURCE_URL>
https://www.surechembl.org/

> <PUBCHEM_EXT_SUBSTANCE_URL>
https://www.surechembl.org/chemical/SCHEMBL16127255

> <PUBCHEM_CID_ASSOCIATIONS>
117614570  1

> <PUBCHEM_COORDINATE_TYPE>
1
3

$$$$
