310929798
  -OEChem-07211613022D

 56 63  0     1  0  0  0  0  0999 V2000
    2.5171   -2.3340    0.0000 O   0  0  0  0  0  0  0  0  0  0  0  0
    3.8901   -1.9222    0.0000 O   0  0  0  0  0  0  0  0  0  0  0  0
    7.4598   -3.3409    0.0000 O   0  0  0  0  0  0  0  0  0  0  0  0
    4.5766    0.0000    0.0000 O   0  0  0  0  0  0  0  0  0  0  0  0
    1.2814   -2.0595    0.0000 O   0  0  0  0  0  0  0  0  0  0  0  0
    8.4208   -6.2241    0.0000 O   0  0  0  0  0  0  0  0  0  0  0  0
    2.8832   -8.2377    0.0000 O   0  0  0  0  0  0  0  0  0  0  0  0
    1.6934   -8.6039    0.0000 O   0  0  0  0  0  0  0  0  0  0  0  0
    3.6613   -0.8238    0.0000 N   0  0  0  0  0  0  0  0  0  0  0  0
    6.0410   -1.4187    0.0000 N   0  0  0  0  0  0  0  0  0  0  0  0
    8.3750   -3.7985    0.0000 N   0  0  0  0  0  0  0  0  0  0  0  0
    1.4187   -7.4598    0.0000 N   0  0  0  0  0  0  0  0  0  0  0  0
    7.0936   -7.8716    0.0000 N   0  0  0  0  0  0  0  0  0  0  0  0
    2.8832   -0.9610    0.0000 C   0  0  3  0  0  0  0  0  0  0  0  0
    2.0595   -1.2814    0.0000 C   0  0  3  0  0  0  0  0  0  0  0  0
    2.2425   -0.5034    0.0000 C   0  0  0  0  0  0  0  0  0  0  0  0
    3.1121   -1.7391    0.0000 C   0  0  0  0  0  0  0  0  0  0  0  0
    4.4392   -0.8238    0.0000 C   0  0  0  0  0  0  0  0  0  0  0  0
    5.2172   -1.1441    0.0000 C   0  0  3  0  0  0  0  0  0  0  0  0
    1.4187   -1.7391    0.0000 C   0  0  0  0  0  0  0  0  0  0  0  0
    7.1394   -2.7001    0.0000 C   0  0  3  0  0  0  0  0  0  0  0  0
    6.6359   -1.3730    0.0000 C   0  0  0  0  0  0  0  0  0  0  0  0
    6.6359   -1.9222    0.0000 C   0  0  0  0  0  0  0  0  0  0  0  0
    1.8306   -2.6086    0.0000 C   0  0  0  0  0  0  0  0  0  0  0  0
    7.5971   -4.1189    0.0000 C   0  0  0  0  0  0  0  0  0  0  0  0
    7.5971   -5.0800    0.0000 C   0  0  0  0  0  0  0  0  0  0  0  0
    0.8238   -2.2425    0.0000 C   0  0  0  0  0  0  0  0  0  0  0  0
    8.3750   -5.4003    0.0000 C   0  0  0  0  0  0  0  0  0  0  0  0
    9.0158   -5.0800    0.0000 C   0  0  0  0  0  0  0  0  0  0  0  0
    9.0158   -4.1189    0.0000 C   0  0  0  0  0  0  0  0  0  0  0  0
    0.8238   -6.8190    0.0000 C   0  0  3  0  0  0  0  0  0  0  0  0
    7.4598   -5.8580    0.0000 C   0  0  0  0  0  0  0  0  0  0  0  0
    9.7938   -5.4003    0.0000 C   0  0  0  0  0  0  0  0  0  0  0  0
    0.3204   -3.0205    0.0000 C   0  0  0  0  0  0  0  0  0  0  0  0
    9.7938   -3.7985    0.0000 C   0  0  0  0  0  0  0  0  0  0  0  0
    0.3204   -6.1783    0.0000 C   0  0  0  0  0  0  0  0  0  0  0  0
    3.6613   -8.3750    0.0000 C   0  0  3  0  0  0  0  0  0  0  0  0
    2.0595   -7.9174    0.0000 C   0  0  0  0  0  0  0  0  0  0  0  0
    4.4392   -8.3750    0.0000 C   0  0  3  0  0  0  0  0  0  0  0  0
   10.4345   -5.0800    0.0000 C   0  0  0  0  0  0  0  0  0  0  0  0
   10.4345   -4.1189    0.0000 C   0  0  0  0  0  0  0  0  0  0  0  0
    4.1189   -9.0158    0.0000 C   0  0  0  0  0  0  0  0  0  0  0  0
    7.0021   -6.4071    0.0000 C   0  0  0  0  0  0  0  0  0  0  0  0
    0.1831   -3.7985    0.0000 C   0  0  0  0  0  0  0  0  0  0  0  0
    7.7344   -6.6359    0.0000 C   0  0  0  0  0  0  0  0  0  0  0  0
    0.1831   -5.4003    0.0000 C   0  0  0  0  0  0  0  0  0  0  0  0
    5.2172   -8.1005    0.0000 C   0  0  0  0  0  0  0  0  0  0  0  0
    0.0000   -4.6223    0.0000 C   0  0  0  0  0  0  0  0  0  0  0  0
    6.6359   -7.1394    0.0000 C   0  0  0  0  0  0  0  0  0  0  0  0
    6.0410   -7.7344    0.0000 C   0  0  0  0  0  0  0  0  0  0  0  0
    7.7801   -7.4598    0.0000 C   0  0  0  0  0  0  0  0  0  0  0  0
    7.1394   -8.6954    0.0000 C   0  0  0  0  0  0  0  0  0  0  0  0
    6.3614   -7.5055    0.0000 C   0  0  0  0  0  0  0  0  0  0  0  0
    6.4529   -9.1531    0.0000 C   0  0  0  0  0  0  0  0  0  0  0  0
    5.6749   -7.9632    0.0000 C   0  0  0  0  0  0  0  0  0  0  0  0
    5.7207   -8.7869    0.0000 C   0  0  0  0  0  0  0  0  0  0  0  0
  1 17  2  0  0  0  0
  2 17  1  0  0  0  0
  3 21  1  0  0  0  0
  3 25  1  0  0  0  0
  4 18  2  0  0  0  0
  5 24  2  0  0  0  0
  6 28  1  0  0  0  0
  6 45  1  0  0  0  0
  7 37  1  0  0  0  0
  7 38  1  0  0  0  0
  8 38  2  0  0  0  0
  9 14  1  0  0  0  0
  9 18  1  0  0  0  0
 10 19  1  0  0  0  0
 10 23  1  0  0  0  0
 10 24  1  0  0  0  0
 11 25  1  0  0  0  0
 11 30  2  0  0  0  0
 12 31  1  0  0  0  0
 12 38  1  0  0  0  0
 13 51  1  0  0  0  0
 13 52  1  0  0  0  0
 13 53  1  0  0  0  0
 14 15  1  0  0  0  0
 14 16  1  0  0  0  0
 14 17  1  6  0  0  0
 15 16  1  6  0  0  0
 15 20  1  0  0  0  0
 18 19  1  0  0  0  0
 19 22  1  1  0  0  0
 20 27  2  3  0  0  0
 21 22  1  1  0  0  0
 21 23  1  0  0  0  0
 24 31  1  0  0  0  0
 25 26  2  0  0  0  0
 26 28  1  0  0  0  0
 26 32  1  0  0  0  0
 27 34  1  0  0  0  0
 28 29  2  0  0  0  0
 29 30  1  0  0  0  0
 29 33  1  0  0  0  0
 30 35  1  0  0  0  0
 31 36  1  1  0  0  0
 32 43  2  0  0  0  0
 33 40  2  0  0  0  0
 34 44  1  0  0  0  0
 35 41  2  0  0  0  0
 36 46  1  0  0  0  0
 37 39  1  0  0  0  0
 37 42  1  1  0  0  0
 39 42  1  6  0  0  0
 39 47  1  0  0  0  0
 40 41  1  0  0  0  0
 43 49  1  0  0  0  0
 44 48  1  0  0  0  0
 45 51  1  0  0  0  0
 46 48  1  0  0  0  0
 47 50  1  0  0  0  0
 49 50  1  0  0  0  0
 52 54  1  0  0  0  0
 53 55  1  0  0  0  0
 54 56  1  0  0  0  0
 55 56  1  0  0  0  0
M  END
> <PUBCHEM_COMPOUND_ID_TYPE>
0

> <PUBCHEM_TOTAL_CHARGE>
0

> <PUBCHEM_SUBSTANCE_ID>
310929798

> <PUBCHEM_SUBSTANCE_VERSION>
1

> <PUBCHEM_EXT_DATASOURCE_NAME>
4488

> <PUBCHEM_EXT_DATASOURCE_REGID>
SCHEMBL16107001

> <PUBCHEM_SUBSTANCE_COMMENT>
InChI=1S/C43H55N5O8/c49-38-35-25-30-27-48(35)40(50)34(19-9-3-1-2-7-15-29-26-43(29,46-38)41(51)52)45-42(53)56-36-24-28(36)14-6-4-8-17-32-37(54-23-22-47-20-12-5-13-21-47)31-16-10-11-18-33(31)44-39(32)55-30/h7-8,10-11,15-18,28-30,34-36H,1-6,9,12-14,19-27H2,(H,45,53)(H,46,49)(H,51,52)/b15-7-,17-8+/t28-,29-,30-,34+,35+,36-,43-/m1/s1
InChIKey=RAFLRVUODIZCPP-UFIKQZTISA-N

> <PUBCHEM_SUBSTANCE_SYNONYM>
SCHEMBL16107001

> <PUBCHEM_XREF_EXT_ID>
SCHEMBL16107001

> <PUBCHEM_EXT_DATASOURCE_URL>
https://www.surechembl.org/

> <PUBCHEM_EXT_SUBSTANCE_URL>
https://www.surechembl.org/chemical/SCHEMBL16107001

> <PUBCHEM_CID_ASSOCIATIONS>
117599080  1

> <PUBCHEM_COORDINATE_TYPE>
1
3

> <PUBCHEM_BONDANNOTATIONS>
14  17  6
15  16  6
19  22  5
21  22  5
31  36  5
37  42  5
39  42  6

$$$$
