310929091
  -OEChem-07211613022D

 55 59  0     0  0  0  0  0  0999 V2000
    4.0665   -6.3402    0.0000 S   0  0  0  0  0  0  0  0  0  0  0  0
    6.5588   -2.1425    0.0000 O   0  0  0  0  0  0  0  0  0  0  0  0
    4.0665   -4.9409    0.0000 O   0  0  0  0  0  0  0  0  0  0  0  0
    2.0551   -2.7984    0.0000 O   0  0  0  0  0  0  0  0  0  0  0  0
    4.0665   -5.4657    0.0000 O   0  0  0  0  0  0  0  0  0  0  0  0
    4.0665   -7.1710    0.0000 O   0  0  0  0  0  0  0  0  0  0  0  0
   11.4998   -2.2737    0.0000 O   0  0  0  0  0  0  0  0  0  0  0  0
    9.0074   -3.6292    0.0000 O   0  0  0  0  0  0  0  0  0  0  0  0
   13.1176   -3.7604    0.0000 O   0  0  0  0  0  0  0  0  0  0  0  0
   12.6367   -5.9029    0.0000 O   0  0  0  0  0  0  0  0  0  0  0  0
    3.2794   -3.4980    0.0000 N   0  0  0  0  0  0  0  0  0  0  0  0
    3.2794   -2.0988    0.0000 N   0  0  0  0  0  0  0  0  0  0  0  0
    3.2794   -6.3402    0.0000 N   0  0  0  0  0  0  0  0  0  0  0  0
    7.8268   -1.4430    0.0000 N   0  0  0  0  0  0  0  0  0  0  0  0
    9.0949   -0.7871    0.0000 N   0  0  0  0  0  0  0  0  0  0  0  0
    7.8705   -0.0437    0.0000 N   0  0  0  0  0  0  0  0  0  0  0  0
    4.5037   -2.7984    0.0000 C   0  0  0  0  0  0  0  0  0  0  0  0
    2.8421   -4.1977    0.0000 C   0  0  0  0  0  0  0  0  0  0  0  0
    3.2794   -4.9409    0.0000 C   0  0  0  0  0  0  0  0  0  0  0  0
    5.3345   -2.7984    0.0000 C   0  0  0  0  0  0  0  0  0  0  0  0
    2.8421   -5.6406    0.0000 C   0  0  0  0  0  0  0  0  0  0  0  0
    1.6178   -4.9409    0.0000 C   0  0  0  0  0  0  0  0  0  0  0  0
    4.1102   -2.0988    0.0000 C   0  0  0  0  0  0  0  0  0  0  0  0
    5.7280   -2.0988    0.0000 C   0  0  0  0  0  0  0  0  0  0  0  0
    2.0551   -4.1977    0.0000 C   0  0  0  0  0  0  0  0  0  0  0  0
    2.0113   -5.6406    0.0000 C   0  0  0  0  0  0  0  0  0  0  0  0
    0.7871   -4.9409    0.0000 C   0  0  0  0  0  0  0  0  0  0  0  0
    2.8859   -2.7984    0.0000 C   0  0  0  0  0  0  0  0  0  0  0  0
    4.5475   -1.3992    0.0000 C   0  0  0  0  0  0  0  0  0  0  0  0
    5.3345   -1.3992    0.0000 C   0  0  0  0  0  0  0  0  0  0  0  0
    4.0665   -3.4980    0.0000 C   0  0  0  0  0  0  0  0  0  0  0  0
    5.7280   -3.4980    0.0000 C   0  0  0  0  0  0  0  0  0  0  0  0
    6.9961   -1.4430    0.0000 C   0  0  0  0  0  0  0  0  0  0  0  0
    4.6349   -4.3726    0.0000 C   0  0  0  0  0  0  0  0  0  0  0  0
    5.2908   -4.2414    0.0000 C   0  0  0  0  0  0  0  0  0  0  0  0
    8.2641   -0.7433    0.0000 C   0  0  0  0  0  0  0  0  0  0  0  0
    0.7871   -4.0665    0.0000 C   0  0  0  0  0  0  0  0  0  0  0  0
    0.0000   -4.8972    0.0000 C   0  0  0  0  0  0  0  0  0  0  0  0
    0.7871   -5.7280    0.0000 C   0  0  0  0  0  0  0  0  0  0  0  0
    6.6025   -0.6996    0.0000 C   0  0  0  0  0  0  0  0  0  0  0  0
    9.4884   -1.5304    0.0000 C   0  0  0  0  0  0  0  0  0  0  0  0
    7.0398    0.0000    0.0000 C   0  0  0  0  0  0  0  0  0  0  0  0
    4.5037   -4.1977    0.0000 C   0  0  0  0  0  0  0  0  0  0  0  0
    4.8972   -6.3402    0.0000 C   0  0  0  0  0  0  0  0  0  0  0  0
   10.6690   -2.2737    0.0000 C   0  0  0  0  0  0  0  0  0  0  0  0
   10.3192   -1.5304    0.0000 C   0  0  0  0  0  0  0  0  0  0  0  0
    9.0512   -2.2300    0.0000 C   0  0  0  0  0  0  0  0  0  0  0  0
    9.4447   -2.9296    0.0000 C   0  0  0  0  0  0  0  0  0  0  0  0
   10.2318   -2.9296    0.0000 C   0  0  0  0  0  0  0  0  0  0  0  0
   11.8933   -2.9733    0.0000 C   0  0  0  0  0  0  0  0  0  0  0  0
    9.4010   -4.3726    0.0000 C   0  0  0  0  0  0  0  0  0  0  0  0
   12.7241   -3.0171    0.0000 C   0  0  0  0  0  0  0  0  0  0  0  0
   12.6804   -4.4600    0.0000 C   0  0  0  0  0  0  0  0  0  0  0  0
   13.0739   -5.1596    0.0000 C   0  0  0  0  0  0  0  0  0  0  0  0
   13.0302   -6.6025    0.0000 C   0  0  0  0  0  0  0  0  0  0  0  0
  1  5  2  0  0  0  0
  1  6  2  0  0  0  0
  1 13  1  0  0  0  0
  1 44  1  0  0  0  0
  2 24  1  0  0  0  0
  2 33  1  0  0  0  0
  3 19  1  0  0  0  0
  3 43  1  0  0  0  0
  4 28  2  0  0  0  0
  7 45  1  0  0  0  0
  7 50  1  0  0  0  0
  8 48  1  0  0  0  0
  8 51  1  0  0  0  0
  9 52  1  0  0  0  0
  9 53  1  0  0  0  0
 10 54  1  0  0  0  0
 10 55  1  0  0  0  0
 11 18  1  0  0  0  0
 11 28  1  0  0  0  0
 12 23  1  0  0  0  0
 12 28  1  0  0  0  0
 13 21  1  0  0  0  0
 14 33  2  0  0  0  0
 14 36  1  0  0  0  0
 15 36  1  0  0  0  0
 15 41  1  0  0  0  0
 16 36  2  0  0  0  0
 16 42  1  0  0  0  0
 17 20  2  0  0  0  0
 17 23  1  0  0  0  0
 17 31  1  0  0  0  0
 18 19  2  0  0  0  0
 18 25  1  0  0  0  0
 19 21  1  0  0  0  0
 20 24  1  0  0  0  0
 20 32  1  0  0  0  0
 21 26  2  0  0  0  0
 22 25  2  0  0  0  0
 22 26  1  0  0  0  0
 22 27  1  0  0  0  0
 23 29  2  0  0  0  0
 24 30  2  0  0  0  0
 27 37  1  0  0  0  0
 27 38  1  0  0  0  0
 27 39  1  0  0  0  0
 29 30  1  0  0  0  0
 31 34  2  0  0  0  0
 32 35  2  0  0  0  0
 33 40  1  0  0  0  0
 34 35  1  0  0  0  0
 40 42  2  0  0  0  0
 41 46  2  0  0  0  0
 41 47  1  0  0  0  0
 45 46  1  0  0  0  0
 45 49  2  0  0  0  0
 47 48  2  0  0  0  0
 48 49  1  0  0  0  0
 50 52  1  0  0  0  0
 53 54  1  0  0  0  0
M  END
> <PUBCHEM_COMPOUND_ID_TYPE>
0

> <PUBCHEM_TOTAL_CHARGE>
0

> <PUBCHEM_SUBSTANCE_ID>
310929091

> <PUBCHEM_SUBSTANCE_VERSION>
1

> <PUBCHEM_EXT_DATASOURCE_NAME>
4488

> <PUBCHEM_EXT_DATASOURCE_REGID>
SCHEMBL16106253

> <PUBCHEM_SUBSTANCE_COMMENT>
InChI=1S/C39H46N6O9S/c1-39(2,3)25-20-32(36(51-6)33(21-25)45-55(7,47)48)43-38(46)42-31-12-13-34(30-11-9-8-10-29(30)31)54-35-14-15-40-37(44-35)41-26-22-27(50-5)24-28(23-26)53-19-18-52-17-16-49-4/h8-15,20-24,45H,16-19H2,1-7H3,(H,40,41,44)(H2,42,43,46)
InChIKey=VSXCXKDGHBAKDZ-UHFFFAOYSA-N

> <PUBCHEM_SUBSTANCE_SYNONYM>
SCHEMBL16106253

> <PUBCHEM_XREF_EXT_ID>
SCHEMBL16106253

> <PUBCHEM_EXT_DATASOURCE_URL>
https://www.surechembl.org/

> <PUBCHEM_EXT_SUBSTANCE_URL>
https://www.surechembl.org/chemical/SCHEMBL16106253

> <PUBCHEM_CID_ASSOCIATIONS>
86272829  1

> <PUBCHEM_COORDINATE_TYPE>
1
3

$$$$
