310931896
  -OEChem-07211613022D

 41 47  0     1  0  0  0  0  0999 V2000
    2.8724   -2.5363    0.0000 O   0  0  0  0  0  0  0  0  0  0  0  0
    2.8724   -4.1864    0.0000 O   0  0  0  0  0  0  0  0  0  0  0  0
    0.7028   -2.9335    0.0000 O   0  0  0  0  0  0  0  0  0  0  0  0
    5.6838   -1.1306    0.0000 N   0  0  0  0  0  0  0  0  0  0  0  0
    5.6838   -1.7112    0.0000 N   0  0  0  0  0  0  0  0  0  0  0  0
    6.4171   -2.9335    0.0000 N   0  0  0  0  0  0  0  0  0  0  0  0
    5.6838   -4.1864    0.0000 N   0  0  0  0  0  0  0  0  0  0  0  0
    4.9809   -2.3835    0.0000 N   0  0  0  0  0  0  0  0  0  0  0  0
    6.3866   -2.3835    0.0000 N   0  0  0  0  0  0  0  0  0  0  0  0
    0.7028   -1.2834    0.0000 N   0  0  0  0  0  0  0  0  0  0  0  0
    6.5699   -0.6112    0.0000 C   0  0  3  0  0  0  0  0  0  0  0  0
    4.8281   -0.6112    0.0000 C   0  0  3  0  0  0  0  0  0  0  0  0
    5.6838   -2.5363    0.0000 C   0  0  0  0  0  0  0  0  0  0  0  0
    4.9809   -2.9335    0.0000 C   0  0  0  0  0  0  0  0  0  0  0  0
    6.3866   -1.3751    0.0000 C   0  0  0  0  0  0  0  0  0  0  0  0
    5.0115   -1.3751    0.0000 C   0  0  0  0  0  0  0  0  0  0  0  0
    5.6838   -1.9557    0.0000 C   0  0  0  0  0  0  0  0  0  0  0  0
    4.9809   -3.7586    0.0000 C   0  0  0  0  0  0  0  0  0  0  0  0
    5.3170    0.0000    0.0000 C   0  0  0  0  0  0  0  0  0  0  0  0
    6.0810    0.0000    0.0000 C   0  0  0  0  0  0  0  0  0  0  0  0
    4.3086   -2.5363    0.0000 C   0  0  0  0  0  0  0  0  0  0  0  0
    3.5752   -2.9335    0.0000 C   0  0  0  0  0  0  0  0  0  0  0  0
    3.5752   -3.7586    0.0000 C   0  0  0  0  0  0  0  0  0  0  0  0
    4.3086   -4.1864    0.0000 C   0  0  0  0  0  0  0  0  0  0  0  0
    6.4171   -3.7586    0.0000 C   0  0  0  0  0  0  0  0  0  0  0  0
    5.6838   -3.6364    0.0000 C   0  0  0  0  0  0  0  0  0  0  0  0
    4.9809   -3.1780    0.0000 C   0  0  0  0  0  0  0  0  0  0  0  0
    6.4171   -3.1780    0.0000 C   0  0  0  0  0  0  0  0  0  0  0  0
    2.1390   -2.9335    0.0000 C   0  0  0  0  0  0  0  0  0  0  0  0
    5.6838   -4.4614    0.0000 C   0  0  0  0  0  0  0  0  0  0  0  0
    1.4362   -2.5363    0.0000 C   0  0  3  0  0  0  0  0  0  0  0  0
    6.4171   -4.8587    0.0000 C   0  0  0  0  0  0  0  0  0  0  0  0
    2.8724   -5.0115    0.0000 C   0  0  0  0  0  0  0  0  0  0  0  0
    1.4362   -1.7112    0.0000 C   0  0  0  0  0  0  0  0  0  0  0  0
    6.3866   -5.6838    0.0000 C   0  0  0  0  0  0  0  0  0  0  0  0
    7.1200   -4.4614    0.0000 C   0  0  0  0  0  0  0  0  0  0  0  0
    0.0000   -2.5363    0.0000 C   0  0  0  0  0  0  0  0  0  0  0  0
    7.1200   -6.1115    0.0000 C   0  0  0  0  0  0  0  0  0  0  0  0
    7.8228   -4.8587    0.0000 C   0  0  0  0  0  0  0  0  0  0  0  0
    0.0000   -1.7112    0.0000 C   0  0  0  0  0  0  0  0  0  0  0  0
    7.8228   -5.7143    0.0000 C   0  0  0  0  0  0  0  0  0  0  0  0
  1 22  1  0  0  0  0
  1 29  1  0  0  0  0
  2 23  1  0  0  0  0
  2 33  1  0  0  0  0
  3 31  1  0  0  0  0
  3 37  1  0  0  0  0
 11  4  1  1  0  0  0
 12  4  1  1  0  0  0
  4 17  1  0  0  0  0
  5 13  1  0  0  0  0
  5 15  1  0  0  0  0
  5 16  1  0  0  0  0
  6 13  1  0  0  0  0
  6 25  2  0  0  0  0
  7 18  2  0  0  0  0
  7 25  1  0  0  0  0
  8 17  2  0  0  0  0
  8 27  1  0  0  0  0
  9 17  1  0  0  0  0
  9 28  2  0  0  0  0
 10 34  1  0  0  0  0
 10 40  1  0  0  0  0
 11 15  1  0  0  0  0
 11 20  1  0  0  0  0
 12 16  1  0  0  0  0
 12 19  1  0  0  0  0
 13 14  2  0  0  0  0
 14 18  1  0  0  0  0
 14 21  1  0  0  0  0
 18 24  1  0  0  0  0
 19 20  1  0  0  0  0
 21 22  2  0  0  0  0
 22 23  1  0  0  0  0
 23 24  2  0  0  0  0
 26 27  2  0  0  0  0
 26 28  1  0  0  0  0
 26 30  1  0  0  0  0
 29 31  1  0  0  0  0
 30 32  1  0  0  0  0
 31 34  1  0  0  0  0
 32 35  2  0  0  0  0
 32 36  1  0  0  0  0
 35 38  1  0  0  0  0
 36 39  2  0  0  0  0
 37 40  1  0  0  0  0
 38 41  2  0  0  0  0
 39 41  1  0  0  0  0
M  END
> <PUBCHEM_COMPOUND_ID_TYPE>
0

> <PUBCHEM_TOTAL_CHARGE>
0

> <PUBCHEM_SUBSTANCE_ID>
310931896

> <PUBCHEM_SUBSTANCE_VERSION>
1

> <PUBCHEM_EXT_DATASOURCE_NAME>
4488

> <PUBCHEM_EXT_DATASOURCE_REGID>
SCHEMBL16109231

> <PUBCHEM_SUBSTANCE_COMMENT>
InChI=1S/C31H35N7O3/c1-39-28-13-27-26(12-29(28)41-19-25-16-32-9-10-40-25)30(36-20-35-27)37-17-23-7-8-24(18-37)38(23)31-33-14-22(15-34-31)11-21-5-3-2-4-6-21/h2-6,12-15,20,23-25,32H,7-11,16-19H2,1H3/t23-,24+,25?
InChIKey=OGOOWNKVLNCOOC-XMGLRAKGSA-N

> <PUBCHEM_SUBSTANCE_SYNONYM>
SCHEMBL16109231

> <PUBCHEM_XREF_EXT_ID>
SCHEMBL16109231

> <PUBCHEM_EXT_DATASOURCE_URL>
https://www.surechembl.org/

> <PUBCHEM_EXT_SUBSTANCE_URL>
https://www.surechembl.org/chemical/SCHEMBL16109231

> <PUBCHEM_CID_ASSOCIATIONS>
117600553  1

> <PUBCHEM_COORDINATE_TYPE>
1
3

> <PUBCHEM_BONDANNOTATIONS>
11  4  5
12  4  5

$$$$
