310948814
  -OEChem-07211613022D

139145  0     1  0  0  0  0  0999 V2000
    5.9993   -6.8327    0.0000 S   0  0  0  0  0  0  0  0  0  0  0  0
   11.0521    2.3181    0.0000 S   0  0  0  0  0  0  0  0  0  0  0  0
    1.6236   -2.8737    0.0000 S   0  0  0  0  0  0  0  0  0  0  0  0
   10.6701   -3.3078    0.0000 S   0  0  0  0  0  0  0  0  0  0  0  0
    6.7806   -7.1278    0.0000 O   0  0  0  0  0  0  0  0  0  0  0  0
    5.7388   -7.5967    0.0000 O   0  0  0  0  0  0  0  0  0  0  0  0
    5.2525   -6.5722    0.0000 O   0  0  0  0  0  0  0  0  0  0  0  0
   10.9479    3.0994    0.0000 O   0  0  0  0  0  0  0  0  0  0  0  0
   11.1737    1.5368    0.0000 O   0  0  0  0  0  0  0  0  0  0  0  0
   11.8334    2.4396    0.0000 O   0  0  0  0  0  0  0  0  0  0  0  0
    1.3457   -3.6377    0.0000 O   0  0  0  0  0  0  0  0  0  0  0  0
    1.9187   -2.1444    0.0000 O   0  0  0  0  0  0  0  0  0  0  0  0
    0.8942   -2.6133    0.0000 O   0  0  0  0  0  0  0  0  0  0  0  0
   10.2881   -2.6133    0.0000 O   0  0  0  0  0  0  0  0  0  0  0  0
   11.0521   -4.0024    0.0000 O   0  0  0  0  0  0  0  0  0  0  0  0
   11.3647   -2.9258    0.0000 O   0  0  0  0  0  0  0  0  0  0  0  0
    3.4294    2.2833    0.0000 O   0  0  0  0  0  0  0  0  0  0  0  0
   -6.8327    7.2668    0.0000 O   0  0  0  0  0  0  0  0  0  0  0  0
   -9.6803    1.4846    0.0000 O   0  0  0  0  0  0  0  0  0  0  0  0
   -4.3670   -5.9471    0.0000 O   0  0  0  0  0  0  0  0  0  0  0  0
   -8.1176    5.1483    0.0000 O   0  0  0  0  0  0  0  0  0  0  0  0
   -9.6803   -0.9984    0.0000 O   0  0  0  0  0  0  0  0  0  0  0  0
   -2.2660   -7.2841    0.0000 O   0  0  0  0  0  0  0  0  0  0  0  0
   -5.5999    6.5201    0.0000 O   0  0  0  0  0  0  0  0  0  0  0  0
   -8.1697    1.4325    0.0000 O   0  0  0  0  0  0  0  0  0  0  0  0
   -3.5683   -4.7490    0.0000 O   0  0  0  0  0  0  0  0  0  0  0  0
   -6.4680    5.1136    0.0000 O   0  0  0  0  0  0  0  0  0  0  0  0
   -8.2391   -0.1824    0.0000 O   0  0  0  0  0  0  0  0  0  0  0  0
   -2.2139   -5.6172    0.0000 O   0  0  0  0  0  0  0  0  0  0  0  0
   -8.9163    6.6069    0.0000 O   0  0  0  0  0  0  0  0  0  0  0  0
  -11.1042   -0.1824    0.0000 O   0  0  0  0  0  0  0  0  0  0  0  0
   -3.7246   -8.0482    0.0000 O   0  0  0  0  0  0  0  0  0  0  0  0
    0.5469    2.2833    0.0000 O   0  0  0  0  0  0  0  0  0  0  0  0
   -8.8816    8.0482    0.0000 O   0  0  0  0  0  0  0  0  0  0  0  0
  -11.8334    1.0679    0.0000 O   0  0  0  0  0  0  0  0  0  0  0  0
   -5.1309   -8.0134    0.0000 O   0  0  0  0  0  0  0  0  0  0  0  0
   -8.1176    5.1483    0.0000 O   0  0  0  0  0  0  0  0  0  0  0  0
   -9.6803   -0.9984    0.0000 O   0  0  0  0  0  0  0  0  0  0  0  0
   -2.2660   -7.2841    0.0000 O   0  0  0  0  0  0  0  0  0  0  0  0
   -2.0229   -3.2036    0.0000 O   0  0  0  0  0  0  0  0  0  0  0  0
   -3.9850    5.0442    0.0000 O   0  0  0  0  0  0  0  0  0  0  0  0
   -6.0165    1.0158    0.0000 O   0  0  0  0  0  0  0  0  0  0  0  0
   -3.1515    0.1824    0.0000 O   0  0  0  0  0  0  0  0  0  0  0  0
   -0.7032    3.5336    0.0000 O   0  0  0  0  0  0  0  0  0  0  0  0
    0.2692   -1.2763    0.0000 O   0  0  0  0  0  0  0  0  0  0  0  0
    6.9716   -3.7072    0.0000 N   0  3  0  0  0  0  0  0  0  0  0  0
    7.8571    1.5194    0.0000 N   0  0  0  0  0  0  0  0  0  0  0  0
    2.7175    1.0505    0.0000 N   0  0  0  0  0  0  0  0  0  0  0  0
   -0.1650    1.0505    0.0000 N   0  0  0  0  0  0  0  0  0  0  0  0
   -8.1176    5.1483    0.0000 N   0  0  0  0  0  0  0  0  0  0  0  0
   -9.6803   -0.9984    0.0000 N   0  0  0  0  0  0  0  0  0  0  0  0
   -2.2660   -7.2841    0.0000 N   0  0  0  0  0  0  0  0  0  0  0  0
   -1.1547   -1.1720    0.0000 N   0  0  0  0  0  0  0  0  0  0  0  0
   -1.9187    4.2975    0.0000 N   0  0  0  0  0  0  0  0  0  0  0  0
   -3.8634    1.4325    0.0000 N   0  0  0  0  0  0  0  0  0  0  0  0
    5.7388   -3.8808    0.0000 C   0  0  3  0  0  0  0  0  0  0  0  0
    6.1033   -4.5927    0.0000 C   0  0  0  0  0  0  0  0  0  0  0  0
    6.3464   -3.2905    0.0000 C   0  0  0  0  0  0  0  0  0  0  0  0
    6.9195   -4.5059    0.0000 C   0  0  0  0  0  0  0  0  0  0  0  0
    8.7253    0.5296    0.0000 C   0  0  0  0  0  0  0  0  0  0  0  0
    5.8256   -5.3914    0.0000 C   0  0  0  0  0  0  0  0  0  0  0  0
    9.1595    1.2589    0.0000 C   0  0  0  0  0  0  0  0  0  0  0  0
    7.9093    0.7380    0.0000 C   0  0  0  0  0  0  0  0  0  0  0  0
    5.1136   -3.3425    0.0000 C   0  0  0  0  0  0  0  0  0  0  0  0
    8.6038    1.8666    0.0000 C   0  0  0  0  0  0  0  0  0  0  0  0
    6.3118   -6.0165    0.0000 C   0  0  0  0  0  0  0  0  0  0  0  0
    7.4403   -5.1657    0.0000 C   0  0  0  0  0  0  0  0  0  0  0  0
    6.2423   -2.4744    0.0000 C   0  0  0  0  0  0  0  0  0  0  0  0
    4.9573   -4.1759    0.0000 C   0  0  0  0  0  0  0  0  0  0  0  0
    7.8051   -3.2905    0.0000 C   0  0  0  0  0  0  0  0  0  0  0  0
    7.1278   -5.9124    0.0000 C   0  0  0  0  0  0  0  0  0  0  0  0
    9.9756    1.4152    0.0000 C   0  0  0  0  0  0  0  0  0  0  0  0
   10.2360    2.1965    0.0000 C   0  0  0  0  0  0  0  0  0  0  0  0
    8.8990    2.6480    0.0000 C   0  0  0  0  0  0  0  0  0  0  0  0
    7.3188    0.1824    0.0000 C   0  0  0  0  0  0  0  0  0  0  0  0
    4.3149   -3.6204    0.0000 C   0  0  0  0  0  0  0  0  0  0  0  0
    7.0410    1.0679    0.0000 C   0  0  0  0  0  0  0  0  0  0  0  0
    9.4199    0.0434    0.0000 C   0  0  0  0  0  0  0  0  0  0  0  0
    8.6558   -0.3039    0.0000 C   0  0  0  0  0  0  0  0  0  0  0  0
    6.8848   -1.9534    0.0000 C   0  0  0  0  0  0  0  0  0  0  0  0
    9.6977    2.7869    0.0000 C   0  0  0  0  0  0  0  0  0  0  0  0
    8.5169   -3.6899    0.0000 C   0  0  0  0  0  0  0  0  0  0  0  0
    7.4230   -0.6337    0.0000 C   0  0  0  0  0  0  0  0  0  0  0  0
    6.7806   -1.1374    0.0000 C   0  0  0  0  0  0  0  0  0  0  0  0
    3.6899   -3.0994    0.0000 C   0  0  0  0  0  0  0  0  0  0  0  0
    6.2770    1.4673    0.0000 C   0  0  0  0  0  0  0  0  0  0  0  0
    9.2115   -3.2905    0.0000 C   0  0  0  0  0  0  0  0  0  0  0  0
    2.9258   -3.3773    0.0000 C   0  0  0  0  0  0  0  0  0  0  0  0
    5.5999    1.0679    0.0000 C   0  0  0  0  0  0  0  0  0  0  0  0
    9.9756   -3.6899    0.0000 C   0  0  0  0  0  0  0  0  0  0  0  0
    4.8532    1.4673    0.0000 C   0  0  0  0  0  0  0  0  0  0  0  0
    4.1239    1.0679    0.0000 C   0  0  0  0  0  0  0  0  0  0  0  0
    3.4120    1.4673    0.0000 C   0  0  0  0  0  0  0  0  0  0  0  0
    1.9708    1.4673    0.0000 C   0  0  0  0  0  0  0  0  0  0  0  0
   -7.7008    5.8951    0.0000 C   0  0  3  0  0  0  0  0  0  0  0  0
   -9.6630   -0.1476    0.0000 C   0  0  3  0  0  0  0  0  0  0  0  0
   -2.9952   -6.8501    0.0000 C   0  0  3  0  0  0  0  0  0  0  0  0
   -6.8674    5.8603    0.0000 C   0  0  3  0  0  0  0  0  0  0  0  0
   -8.9684    0.2518    0.0000 C   0  0  3  0  0  0  0  0  0  0  0  0
   -2.9258   -6.0165    0.0000 C   0  0  3  0  0  0  0  0  0  0  0  0
   -8.0829    6.5722    0.0000 C   0  0  3  0  0  0  0  0  0  0  0  0
  -10.3922    0.2692    0.0000 C   0  0  3  0  0  0  0  0  0  0  0  0
   -3.6899   -7.1973    0.0000 C   0  0  3  0  0  0  0  0  0  0  0  0
   -6.4333    6.5722    0.0000 C   0  0  3  0  0  0  0  0  0  0  0  0
   -8.9510    1.0852    0.0000 C   0  0  3  0  0  0  0  0  0  0  0  0
   -3.6377   -5.5651    0.0000 C   0  0  3  0  0  0  0  0  0  0  0  0
   -7.6662    7.3188    0.0000 C   0  0  3  0  0  0  0  0  0  0  0  0
  -10.3922    1.0852    0.0000 C   0  0  3  0  0  0  0  0  0  0  0  0
   -4.4191   -6.7458    0.0000 C   0  0  3  0  0  0  0  0  0  0  0  0
    1.2936    1.0679    0.0000 C   0  0  0  0  0  0  0  0  0  0  0  0
    0.5469    1.4673    0.0000 C   0  0  0  0  0  0  0  0  0  0  0  0
   -8.0482    8.0308    0.0000 C   0  0  0  0  0  0  0  0  0  0  0  0
  -11.1042    1.5020    0.0000 C   0  0  0  0  0  0  0  0  0  0  0  0
   -5.1309   -7.1625    0.0000 C   0  0  0  0  0  0  0  0  0  0  0  0
   -8.1176    5.1483    0.0000 C   0  0  0  0  0  0  0  0  0  0  0  0
   -9.6803   -0.9984    0.0000 C   0  0  0  0  0  0  0  0  0  0  0  0
   -2.2660   -7.2841    0.0000 C   0  0  0  0  0  0  0  0  0  0  0  0
   -0.9811    1.4325    0.0000 C   0  0  0  0  0  0  0  0  0  0  0  0
   -5.2005    5.8256    0.0000 C   0  0  0  0  0  0  0  0  0  0  0  0
   -7.4403    1.0331    0.0000 C   0  0  0  0  0  0  0  0  0  0  0  0
   -2.8216   -4.3670    0.0000 C   0  0  0  0  0  0  0  0  0  0  0  0
   -1.0505    0.4949    0.0000 C   0  0  0  0  0  0  0  0  0  0  0  0
   -1.7103    1.0331    0.0000 C   0  0  0  0  0  0  0  0  0  0  0  0
   -0.9811    2.2660    0.0000 C   0  0  0  0  0  0  0  0  0  0  0  0
   -4.3670    5.7909    0.0000 C   0  0  0  0  0  0  0  0  0  0  0  0
   -6.7632    1.4325    0.0000 C   0  0  0  0  0  0  0  0  0  0  0  0
   -2.7521   -3.5336    0.0000 C   0  0  0  0  0  0  0  0  0  0  0  0
   -0.3733    0.0261    0.0000 C   0  0  0  0  0  0  0  0  0  0  0  0
   -2.4396    1.4325    0.0000 C   0  0  0  0  0  0  0  0  0  0  0  0
   -1.7103    2.6827    0.0000 C   0  0  0  0  0  0  0  0  0  0  0  0
   -0.4602   -0.7900    0.0000 C   0  0  0  0  0  0  0  0  0  0  0  0
   -3.1515    1.0505    0.0000 C   0  0  0  0  0  0  0  0  0  0  0  0
   -1.5368    3.5857    0.0000 C   0  0  0  0  0  0  0  0  0  0  0  0
   -1.9534   -2.3528    0.0000 C   0  0  0  0  0  0  0  0  0  0  0  0
   -3.1342    5.0268    0.0000 C   0  0  0  0  0  0  0  0  0  0  0  0
   -5.3220    1.4325    0.0000 C   0  0  0  0  0  0  0  0  0  0  0  0
   -1.2242   -1.9881    0.0000 C   0  0  0  0  0  0  0  0  0  0  0  0
   -2.7521    4.3323    0.0000 C   0  0  0  0  0  0  0  0  0  0  0  0
   -4.5754    1.0331    0.0000 C   0  0  0  0  0  0  0  0  0  0  0  0
  1  5  2  0  0  0  0
  1  6  2  0  0  0  0
  1  7  1  0  0  0  0
  1 66  1  0  0  0  0
  2  8  2  0  0  0  0
  2  9  2  0  0  0  0
  2 10  1  0  0  0  0
  2 73  1  0  0  0  0
  3 11  2  0  0  0  0
  3 12  2  0  0  0  0
  3 13  1  0  0  0  0
  3 88  1  0  0  0  0
  4 14  2  0  0  0  0
  4 15  2  0  0  0  0
  4 16  1  0  0  0  0
  4 90  1  0  0  0  0
 17 93  2  0  0  0  0
 18104  1  0  0  0  0
 18107  1  0  0  0  0
 19105  1  0  0  0  0
 19108  1  0  0  0  0
 20106  1  0  0  0  0
 20109  1  0  0  0  0
 95 21  1  1  0  0  0
 21115  1  0  0  0  0
 96 22  1  1  0  0  0
 22116  1  0  0  0  0
 97 23  1  1  0  0  0
 23117  1  0  0  0  0
104 24  1  6  0  0  0
 24119  1  0  0  0  0
105 25  1  6  0  0  0
 25120  1  0  0  0  0
106 26  1  6  0  0  0
 26121  1  0  0  0  0
 98 27  1  1  0  0  0
 99 28  1  1  0  0  0
100 29  1  1  0  0  0
101 30  1  6  0  0  0
102 31  1  6  0  0  0
103 32  1  6  0  0  0
 33111  2  0  0  0  0
 34112  1  0  0  0  0
 35113  1  0  0  0  0
 36114  1  0  0  0  0
 37115  2  0  0  0  0
 38116  2  0  0  0  0
 39117  2  0  0  0  0
 40127  1  0  0  0  0
 40134  1  0  0  0  0
 41125  1  0  0  0  0
 41135  1  0  0  0  0
 42126  1  0  0  0  0
 42136  1  0  0  0  0
 43132  2  0  0  0  0
 44133  2  0  0  0  0
 45131  2  0  0  0  0
 46 58  2  0  0  0  0
 46 59  1  0  0  0  0
 46 70  1  0  0  0  0
 47 63  1  0  0  0  0
 47 65  1  0  0  0  0
 47 77  1  0  0  0  0
 48 93  1  0  0  0  0
 48 94  1  0  0  0  0
 49111  1  0  0  0  0
 49118  1  0  0  0  0
 50115  1  0  0  0  0
 51116  1  0  0  0  0
 52117  1  0  0  0  0
 53131  1  0  0  0  0
 53137  1  0  0  0  0
 54133  1  0  0  0  0
 54138  1  0  0  0  0
 55132  1  0  0  0  0
 55139  1  0  0  0  0
 56 57  1  0  0  0  0
 56 58  1  0  0  0  0
 56 64  1  0  0  0  0
 56 69  1  0  0  0  0
 57 59  1  0  0  0  0
 57 61  2  0  0  0  0
 58 68  1  0  0  0  0
 59 67  2  0  0  0  0
 60 62  1  0  0  0  0
 60 63  1  0  0  0  0
 60 78  1  0  0  0  0
 60 79  1  0  0  0  0
 61 66  1  0  0  0  0
 62 65  2  0  0  0  0
 62 72  1  0  0  0  0
 63 75  2  0  0  0  0
 64 76  1  0  0  0  0
 65 74  1  0  0  0  0
 66 71  2  0  0  0  0
 67 71  1  0  0  0  0
 68 80  2  0  0  0  0
 70 82  1  0  0  0  0
 72 73  2  0  0  0  0
 73 81  1  0  0  0  0
 74 81  2  0  0  0  0
 75 83  1  0  0  0  0
 76 85  1  0  0  0  0
 77 86  1  0  0  0  0
 80 84  1  0  0  0  0
 82 87  1  0  0  0  0
 83 84  2  0  0  0  0
 85 88  1  0  0  0  0
 86 89  1  0  0  0  0
 87 90  1  0  0  0  0
 89 91  1  0  0  0  0
 91 92  1  0  0  0  0
 92 93  1  0  0  0  0
 94110  1  0  0  0  0
 95 98  1  0  0  0  0
 95101  1  0  0  0  0
 96 99  1  0  0  0  0
 96102  1  0  0  0  0
 97100  1  0  0  0  0
 97103  1  0  0  0  0
 98104  1  0  0  0  0
 99105  1  0  0  0  0
100106  1  0  0  0  0
101107  1  0  0  0  0
102108  1  0  0  0  0
103109  1  0  0  0  0
107112  1  1  0  0  0
108113  1  1  0  0  0
109114  1  1  0  0  0
110111  1  0  0  0  0
118122  1  0  0  0  0
118123  1  0  0  0  0
118124  1  0  0  0  0
119125  1  0  0  0  0
120126  1  0  0  0  0
121127  1  0  0  0  0
122128  1  0  0  0  0
123129  1  0  0  0  0
124130  1  0  0  0  0
128131  1  0  0  0  0
129132  1  0  0  0  0
130133  1  0  0  0  0
134137  1  0  0  0  0
135138  1  0  0  0  0
136139  1  0  0  0  0
M  CHG  1  46   1
M  END
> <PUBCHEM_COMPOUND_ID_TYPE>
0

> <PUBCHEM_TOTAL_CHARGE>
1

> <PUBCHEM_SUBSTANCE_ID>
310948814

> <PUBCHEM_SUBSTANCE_VERSION>
1

> <PUBCHEM_EXT_DATASOURCE_NAME>
4488

> <PUBCHEM_EXT_DATASOURCE_REGID>
SCHEMBL16126998

> <PUBCHEM_SUBSTANCE_COMMENT>
InChI=1S/C84H130N10O41S4/c1-82(2)53-46-51(138(118,119)120)17-19-55(53)93(60(82)14-6-4-7-15-61-83(3,25-9-12-44-136(112,113)114)54-47-52(139(121,122)123)18-20-56(54)94(61)34-11-13-45-137(115,116)117)33-10-5-8-16-62(98)88-29-24-66(102)92-84(26-21-63(99)89-30-35-124-38-41-127-76-70(106)73(133-79(85)109)67(103)57(48-95)130-76,27-22-64(100)90-31-36-125-39-42-128-77-71(107)74(134-80(86)110)68(104)58(49-96)131-77)28-23-65(101)91-32-37-126-40-43-129-78-72(108)75(135-81(87)111)69(105)59(50-97)132-78/h4,6-7,14-15,17-20,46-47,57-59,67-78,95-97,103-108H,5,8-13,16,21-45,48-50H2,1-3H3,(H14-,85,86,87,88,89,90,91,92,98,99,100,101,102,109,110,111,112,113,114,115,116,117,118,119,120,121,122,123)/p+1/t57-,58-,59-,67-,68-,69-,70+,71+,72+,73+,74+,75+,76+,77+,78+,83?/m1/s1
InChIKey=VWERQKBIGBFFCH-REQNHVKNSA-O

> <PUBCHEM_SUBSTANCE_SYNONYM>
SCHEMBL16126998

> <PUBCHEM_XREF_EXT_ID>
SCHEMBL16126998

> <PUBCHEM_EXT_DATASOURCE_URL>
https://www.surechembl.org/

> <PUBCHEM_EXT_SUBSTANCE_URL>
https://www.surechembl.org/chemical/SCHEMBL16126998

> <PUBCHEM_CID_ASSOCIATIONS>
117614353  1

> <PUBCHEM_COORDINATE_TYPE>
1
3

> <PUBCHEM_BONDANNOTATIONS>
107  112  5
108  113  5
109  114  5
95  21  5
96  22  5
97  23  5
104  24  6
105  25  6
106  26  6
98  27  5
99  28  5
100  29  5
101  30  6
102  31  6
103  32  6

$$$$
