310945210
  -OEChem-07211613022D

 27 30  0     1  0  0  0  0  0999 V2000
   -3.7273   -1.7061    0.0000 Cl  0  0  0  0  0  0  0  0  0  0  0  0
    3.7273    2.4460    0.0000 F   0  0  0  0  0  0  0  0  0  0  0  0
   -2.6858    1.2538    0.0000 O   0  0  0  0  0  0  0  0  0  0  0  0
    1.5621    2.0486    0.0000 N   0  0  0  0  0  0  0  0  0  0  0  0
   -1.2881    1.2402    0.0000 N   0  0  0  0  0  0  0  0  0  0  0  0
   -0.5618   -0.0206    0.0000 N   0  0  0  0  0  0  0  0  0  0  0  0
   -2.0281   -2.5282    0.0000 N   0  0  0  0  0  0  0  0  0  0  0  0
   -2.0281   -2.5282    0.0000 N   0  0  0  0  0  0  0  0  0  0  0  0
   -2.0281   -2.5282    0.0000 N   0  0  0  0  0  0  0  0  0  0  0  0
    0.1644    2.0760    0.0000 C   0  0  3  0  0  0  0  0  0  0  0  0
    0.8359    0.8975    0.0000 C   0  0  3  0  0  0  0  0  0  0  0  0
    0.1644    1.2675    0.0000 C   0  0  0  0  0  0  0  0  0  0  0  0
    0.8633    2.5282    0.0000 C   0  0  0  0  0  0  0  0  0  0  0  0
    1.5484    1.2538    0.0000 C   0  0  0  0  0  0  0  0  0  0  0  0
   -1.3155   -0.4179    0.0000 C   0  0  0  0  0  0  0  0  0  0  0  0
   -2.0281    0.0206    0.0000 C   0  0  0  0  0  0  0  0  0  0  0  0
   -1.3292   -1.2538    0.0000 C   0  0  0  0  0  0  0  0  0  0  0  0
   -0.5618    0.8427    0.0000 C   0  0  0  0  0  0  0  0  0  0  0  0
   -2.0281   -1.6650    0.0000 C   0  0  0  0  0  0  0  0  0  0  0  0
   -1.9732    0.8564    0.0000 C   0  0  0  0  0  0  0  0  0  0  0  0
   -2.7269   -1.2265    0.0000 C   0  0  0  0  0  0  0  0  0  0  0  0
   -2.6995   -0.4042    0.0000 C   0  0  0  0  0  0  0  0  0  0  0  0
   -0.5892   -1.6787    0.0000 C   0  0  0  0  0  0  0  0  0  0  0  0
    2.2747    2.4871    0.0000 C   0  0  0  0  0  0  0  0  0  0  0  0
    0.1233   -0.4453    0.0000 C   0  0  0  0  0  0  0  0  0  0  0  0
    0.0959   -1.2812    0.0000 C   0  0  0  0  0  0  0  0  0  0  0  0
    2.9873    2.0760    0.0000 C   0  0  0  0  0  0  0  0  0  0  0  0
  1 21  1  0  0  0  0
  2 27  1  0  0  0  0
  3 20  2  0  0  0  0
  4 13  1  0  0  0  0
  4 14  1  0  0  0  0
  4 24  1  0  0  0  0
  5 18  1  0  0  0  0
  5 20  1  0  0  0  0
  6 15  1  0  0  0  0
  6 25  2  0  0  0  0
  7  8  2  3  0  0  0
  7 19  1  0  0  0  0
  8  9  1  0  0  0  0
 10 11  1  0  0  0  0
 10 12  1  0  0  0  0
 10 13  1  0  0  0  0
 11 12  1  0  0  0  0
 11 14  1  0  0  0  0
 12 18  1  6  0  0  0
 15 16  1  0  0  0  0
 15 17  2  0  0  0  0
 16 20  1  0  0  0  0
 16 22  2  0  0  0  0
 17 19  1  0  0  0  0
 17 23  1  0  0  0  0
 19 21  2  0  0  0  0
 21 22  1  0  0  0  0
 23 26  2  0  0  0  0
 24 27  1  0  0  0  0
 25 26  1  0  0  0  0
M  END
> <PUBCHEM_COMPOUND_ID_TYPE>
0

> <PUBCHEM_TOTAL_CHARGE>
0

> <PUBCHEM_SUBSTANCE_ID>
310945210

> <PUBCHEM_SUBSTANCE_VERSION>
1

> <PUBCHEM_EXT_DATASOURCE_NAME>
4488

> <PUBCHEM_EXT_DATASOURCE_REGID>
SCHEMBL16123300

> <PUBCHEM_SUBSTANCE_COMMENT>
InChI=1S/C18H20ClFN6O/c19-15-6-11(16-10(2-1-4-22-16)17(15)24-25-21)18(27)23-7-12-13-8-26(5-3-20)9-14(12)13/h1-2,4,6,12-14H,3,5,7-9H2,(H2,21,24)(H,23,27)
InChIKey=XMGYLXYYLOYOST-UHFFFAOYSA-N

> <PUBCHEM_SUBSTANCE_SYNONYM>
SCHEMBL16123300

> <PUBCHEM_XREF_EXT_ID>
SCHEMBL16123300

> <PUBCHEM_EXT_DATASOURCE_URL>
https://www.surechembl.org/

> <PUBCHEM_EXT_SUBSTANCE_URL>
https://www.surechembl.org/chemical/SCHEMBL16123300

> <PUBCHEM_CID_ASSOCIATIONS>
117611286  1

> <PUBCHEM_COORDINATE_TYPE>
1
3

> <PUBCHEM_BONDANNOTATIONS>
12  18  6

$$$$
