310948303
  -OEChem-07211613022D

 46 51  0     0  0  0  0  0  0999 V2000
    3.6122   -1.5259    0.0000 S   0  0  0  0  0  0  0  0  0  0  0  0
    4.2850    1.9199    0.0000 F   0  0  0  0  0  0  0  0  0  0  0  0
    3.9792    1.2063    0.0000 F   0  0  0  0  0  0  0  0  0  0  0  0
   -1.2405    1.5937    0.0000 O   0  0  0  0  0  0  0  0  0  0  0  0
    2.7558    1.3694    0.0000 O   0  0  0  0  0  0  0  0  0  0  0  0
    3.2248    2.6336    0.0000 O   0  0  0  0  0  0  0  0  0  0  0  0
   -3.0756    1.8588    0.0000 O   0  0  0  0  0  0  0  0  0  0  0  0
    3.6122   -1.5259    0.0000 O   0  0  0  0  0  0  0  0  0  0  0  0
    3.6122   -1.5259    0.0000 O   0  0  0  0  0  0  0  0  0  0  0  0
   -0.6492    2.8170    0.0000 N   0  0  0  0  0  0  0  0  0  0  0  0
   -1.8114   -0.5676    0.0000 N   0  0  0  0  0  0  0  0  0  0  0  0
   -2.5862   -0.2821    0.0000 N   0  0  0  0  0  0  0  0  0  0  0  0
   -3.9727    0.7373    0.0000 N   0  0  0  0  0  0  0  0  0  0  0  0
   -0.4045    1.5121    0.0000 C   0  0  0  0  0  0  0  0  0  0  0  0
   -0.0171    0.7782    0.0000 C   0  0  0  0  0  0  0  0  0  0  0  0
   -0.0375    2.2665    0.0000 C   0  0  0  0  0  0  0  0  0  0  0  0
   -0.4453    0.0645    0.0000 C   0  0  0  0  0  0  0  0  0  0  0  0
    0.7373    2.4093    0.0000 C   0  0  0  0  0  0  0  0  0  0  0  0
   -1.2813    0.1256    0.0000 C   0  0  0  0  0  0  0  0  0  0  0  0
    2.1034    1.9199    0.0000 C   0  0  0  0  0  0  0  0  0  0  0  0
    0.8189    0.7169    0.0000 C   0  0  0  0  0  0  0  0  0  0  0  0
    2.3888    2.6744    0.0000 C   0  0  0  0  0  0  0  0  0  0  0  0
    1.1655    0.0033    0.0000 C   0  0  0  0  0  0  0  0  0  0  0  0
    1.2878    1.7772    0.0000 C   0  0  0  0  0  0  0  0  0  0  0  0
   -1.3628    2.4501    0.0000 C   0  0  0  0  0  0  0  0  0  0  0  0
    3.4491    1.8791    0.0000 C   0  0  0  0  0  0  0  0  0  0  0  0
   -0.0579   -0.6491    0.0000 C   0  0  0  0  0  0  0  0  0  0  0  0
   -1.7503    0.7782    0.0000 C   0  0  0  0  0  0  0  0  0  0  0  0
    1.0636    3.1637    0.0000 C   0  0  0  0  0  0  0  0  0  0  0  0
   -2.5454    0.5742    0.0000 C   0  0  0  0  0  0  0  0  0  0  0  0
    0.7577   -0.6695    0.0000 C   0  0  0  0  0  0  0  0  0  0  0  0
    2.0218    0.0033    0.0000 C   0  0  0  0  0  0  0  0  0  0  0  0
    1.8791    3.3064    0.0000 C   0  0  0  0  0  0  0  0  0  0  0  0
   -3.2182    1.0636    0.0000 C   0  0  0  0  0  0  0  0  0  0  0  0
    2.4092   -0.7307    0.0000 C   0  0  0  0  0  0  0  0  0  0  0  0
    3.2248   -0.7715    0.0000 C   0  0  0  0  0  0  0  0  0  0  0  0
    2.4704    0.6762    0.0000 C   0  0  0  0  0  0  0  0  0  0  0  0
   -2.1173    2.7763    0.0000 C   0  0  0  0  0  0  0  0  0  0  0  0
   -1.5463   -1.3628    0.0000 C   0  0  0  0  0  0  0  0  0  0  0  0
    3.6530   -0.0782    0.0000 C   0  0  0  0  0  0  0  0  0  0  0  0
    3.2860    0.6558    0.0000 C   0  0  0  0  0  0  0  0  0  0  0  0
   -4.6048    1.2675    0.0000 C   0  0  0  0  0  0  0  0  0  0  0  0
    5.3388   -3.3064    0.0000 C   0  0  0  0  0  0  0  0  0  0  0  0
   -4.6048    2.1035    0.0000 C   0  0  0  0  0  0  0  0  0  0  0  0
   -5.3388    0.8801    0.0000 C   0  0  0  0  0  0  0  0  0  0  0  0
   -3.8503    1.6141    0.0000 C   0  0  0  0  0  0  0  0  0  0  0  0
  1  8  2  0  0  0  0
  1  9  2  0  0  0  0
  1 36  1  0  0  0  0
  1 43  1  0  0  0  0
  2 26  1  0  0  0  0
  3 26  1  0  0  0  0
  4 14  1  0  0  0  0
  4 25  1  0  0  0  0
  5 20  1  0  0  0  0
  5 26  1  0  0  0  0
  6 22  1  0  0  0  0
  6 26  1  0  0  0  0
  7 34  2  0  0  0  0
 10 16  1  0  0  0  0
 10 25  2  0  0  0  0
 11 12  1  0  0  0  0
 11 19  1  0  0  0  0
 11 39  1  0  0  0  0
 12 30  2  0  0  0  0
 13 34  1  0  0  0  0
 13 42  1  0  0  0  0
 14 15  1  0  0  0  0
 14 16  2  0  0  0  0
 15 17  1  0  0  0  0
 15 21  2  0  0  0  0
 16 18  1  0  0  0  0
 17 19  1  0  0  0  0
 17 27  2  0  0  0  0
 18 24  1  0  0  0  0
 18 29  2  0  0  0  0
 19 28  2  0  0  0  0
 20 22  1  0  0  0  0
 20 24  2  0  0  0  0
 21 23  1  0  0  0  0
 22 33  2  0  0  0  0
 23 31  2  0  0  0  0
 23 32  1  0  0  0  0
 25 38  1  0  0  0  0
 27 31  1  0  0  0  0
 28 30  1  0  0  0  0
 29 33  1  0  0  0  0
 30 34  1  0  0  0  0
 32 35  1  0  0  0  0
 32 37  2  0  0  0  0
 35 36  2  0  0  0  0
 36 40  1  0  0  0  0
 37 41  1  0  0  0  0
 40 41  2  0  0  0  0
 42 44  1  0  0  0  0
 42 45  1  0  0  0  0
 42 46  1  0  0  0  0
M  END
> <PUBCHEM_COMPOUND_ID_TYPE>
0

> <PUBCHEM_TOTAL_CHARGE>
0

> <PUBCHEM_SUBSTANCE_ID>
310948303

> <PUBCHEM_SUBSTANCE_VERSION>
1

> <PUBCHEM_EXT_DATASOURCE_NAME>
4488

> <PUBCHEM_EXT_DATASOURCE_REGID>
SCHEMBL16126481

> <PUBCHEM_SUBSTANCE_COMMENT>
InChI=1S/C33H30F2N4O6S/c1-18-36-29(21-11-13-27-28(16-21)45-33(34,35)44-27)30(43-18)24-15-20(19-8-7-9-22(14-19)46(6,41)42)10-12-23(24)26-17-25(38-39(26)5)31(40)37-32(2,3)4/h7-17H,1-6H3,(H,37,40)
InChIKey=URVCIDMPEBKIBM-UHFFFAOYSA-N

> <PUBCHEM_SUBSTANCE_SYNONYM>
SCHEMBL16126481

> <PUBCHEM_XREF_EXT_ID>
SCHEMBL16126481

> <PUBCHEM_EXT_DATASOURCE_URL>
https://www.surechembl.org/

> <PUBCHEM_EXT_SUBSTANCE_URL>
https://www.surechembl.org/chemical/SCHEMBL16126481

> <PUBCHEM_CID_ASSOCIATIONS>
117613869  1

> <PUBCHEM_COORDINATE_TYPE>
1
3

$$$$
