310947817
  -OEChem-07211613022D

 26 27  0     1  0  0  0  0  0999 V2000
    3.6016   -1.5577    0.0000 S   0  0  0  0  0  0  0  0  0  0  0  0
    3.6016   -1.5577    0.0000 O   0  0  0  0  0  0  0  0  0  0  0  0
    0.8804   -1.7300    0.0000 O   0  0  0  0  0  0  0  0  0  0  0  0
    0.7573    1.7300    0.0000 O   0  0  0  0  0  0  0  0  0  0  0  0
    3.6016   -1.5577    0.0000 O   0  0  0  0  0  0  0  0  0  0  0  0
    3.6016   -1.5577    0.0000 O   0  0  0  0  0  0  0  0  0  0  0  0
    3.6016   -1.5577    0.0000 O   0  0  0  0  0  0  0  0  0  0  0  0
   -0.6711    0.9050    0.0000 O   0  0  0  0  0  0  0  0  0  0  0  0
   -2.8013    0.4987    0.0000 O   0  0  0  0  0  0  0  0  0  0  0  0
   -2.0871    1.7300    0.0000 O   0  0  0  0  0  0  0  0  0  0  0  0
    1.4838   -0.3263    0.0000 N   0  0  0  0  0  0  0  0  0  0  0  0
    2.8998   -1.1513    0.0000 N   0  0  0  0  0  0  0  0  0  0  0  0
    0.0677    0.4987    0.0000 N   0  0  0  0  0  0  0  0  0  0  0  0
    1.4838   -1.1266    0.0000 C   0  0  0  0  0  0  0  0  0  0  0  0
    2.9491   -0.3016    0.0000 C   0  0  3  0  0  0  0  0  0  0  0  0
    1.4838    0.4987    0.0000 C   0  0  3  0  0  0  0  0  0  0  0  0
    2.1856   -0.7327    0.0000 C   0  0  0  0  0  0  0  0  0  0  0  0
    2.8998    0.4987    0.0000 C   0  0  0  0  0  0  0  0  0  0  0  0
    2.1733    0.9050    0.0000 C   0  0  0  0  0  0  0  0  0  0  0  0
    0.7203    0.8804    0.0000 C   0  0  0  0  0  0  0  0  0  0  0  0
   -1.3606    0.4987    0.0000 C   0  0  0  0  0  0  0  0  0  0  0  0
   -2.0871    0.8927    0.0000 C   0  0  0  0  0  0  0  0  0  0  0  0
   -2.7890   -0.3263    0.0000 C   0  0  0  0  0  0  0  0  0  0  0  0
   -3.6016   -0.3386    0.0000 C   0  0  0  0  0  0  0  0  0  0  0  0
   -1.9640   -0.3263    0.0000 C   0  0  0  0  0  0  0  0  0  0  0  0
   -2.7766   -1.1390    0.0000 C   0  0  0  0  0  0  0  0  0  0  0  0
  1  2  1  0  0  0  0
  1  5  2  0  0  0  0
  1  6  2  0  0  0  0
  1  7  1  0  0  0  0
  2 12  1  0  0  0  0
  3 14  2  0  0  0  0
  4 20  2  0  0  0  0
  8 13  1  0  0  0  0
  8 21  1  0  0  0  0
  9 22  1  0  0  0  0
  9 23  1  0  0  0  0
 10 22  2  0  0  0  0
 11 14  1  0  0  0  0
 11 16  1  0  0  0  0
 11 17  1  0  0  0  0
 12 14  1  0  0  0  0
 12 15  1  0  0  0  0
 13 20  1  0  0  0  0
 15 17  1  0  0  0  0
 15 18  1  0  0  0  0
 16 19  1  0  0  0  0
 16 20  1  6  0  0  0
 18 19  1  0  0  0  0
 21 22  1  0  0  0  0
 23 24  1  0  0  0  0
 23 25  1  0  0  0  0
 23 26  1  0  0  0  0
M  END
> <PUBCHEM_COMPOUND_ID_TYPE>
0

> <PUBCHEM_TOTAL_CHARGE>
0

> <PUBCHEM_SUBSTANCE_ID>
310947817

> <PUBCHEM_SUBSTANCE_VERSION>
1

> <PUBCHEM_EXT_DATASOURCE_NAME>
4488

> <PUBCHEM_EXT_DATASOURCE_REGID>
SCHEMBL16125989

> <PUBCHEM_SUBSTANCE_COMMENT>
InChI=1S/C13H21N3O9S/c1-13(2,3)24-10(17)7-23-14-11(18)9-5-4-8-6-15(9)12(19)16(8)25-26(20,21)22/h8-9H,4-7H2,1-3H3,(H,14,18)(H,20,21,22)/t8?,9-/m0/s1
InChIKey=AMVZNJMXUPKMAD-GKAPJAKFSA-N

> <PUBCHEM_SUBSTANCE_SYNONYM>
SCHEMBL16125989

> <PUBCHEM_XREF_EXT_ID>
SCHEMBL16125989

> <PUBCHEM_EXT_DATASOURCE_URL>
https://www.surechembl.org/

> <PUBCHEM_EXT_SUBSTANCE_URL>
https://www.surechembl.org/chemical/SCHEMBL16125989

> <PUBCHEM_CID_ASSOCIATIONS>
117613485  1

> <PUBCHEM_COORDINATE_TYPE>
1
3

> <PUBCHEM_BONDANNOTATIONS>
16  20  6

$$$$
