310943310
  -OEChem-07211613022D

 37 40  0     0  0  0  0  0  0999 V2000
    4.5169    0.2133    0.0000 S   0  0  0  0  0  0  0  0  0  0  0  0
    4.5169    0.2133    0.0000 O   0  0  0  0  0  0  0  0  0  0  0  0
    4.5169    0.2133    0.0000 O   0  0  0  0  0  0  0  0  0  0  0  0
   -4.8096   -1.0371    0.0000 O   0  0  0  0  0  0  0  0  0  0  0  0
    0.9275    1.4637    0.0000 O   0  0  0  0  0  0  0  0  0  0  0  0
   -6.2512    1.4784    0.0000 O   0  0  0  0  0  0  0  0  0  0  0  0
   -3.3827   -1.0518    0.0000 N   0  0  0  0  0  0  0  0  0  0  0  0
   -4.8096    0.6252    0.0000 N   0  0  0  0  0  0  0  0  0  0  0  0
    0.2067    0.2133    0.0000 N   0  0  0  0  0  0  0  0  0  0  0  0
    3.8108    0.6546    0.0000 C   0  0  0  0  0  0  0  0  0  0  0  0
   -2.6471    0.2133    0.0000 C   0  0  0  0  0  0  0  0  0  0  0  0
    3.0900    0.2280    0.0000 C   0  0  0  0  0  0  0  0  0  0  0  0
   -1.9411    0.6399    0.0000 C   0  0  0  0  0  0  0  0  0  0  0  0
   -4.0888    0.2280    0.0000 C   0  0  0  0  0  0  0  0  0  0  0  0
   -4.0888   -0.6105    0.0000 C   0  0  0  0  0  0  0  0  0  0  0  0
   -3.3827    0.6399    0.0000 C   0  0  0  0  0  0  0  0  0  0  0  0
   -2.6619   -0.6252    0.0000 C   0  0  0  0  0  0  0  0  0  0  0  0
    1.6630    0.2133    0.0000 C   0  0  0  0  0  0  0  0  0  0  0  0
   -1.9411    1.4784    0.0000 C   0  0  0  0  0  0  0  0  0  0  0  0
    2.3691    0.6252    0.0000 C   0  0  0  0  0  0  0  0  0  0  0  0
   -0.5141    0.6546    0.0000 C   0  0  0  0  0  0  0  0  0  0  0  0
   -1.2202    0.2280    0.0000 C   0  0  0  0  0  0  0  0  0  0  0  0
    0.9275    0.6252    0.0000 C   0  0  0  0  0  0  0  0  0  0  0  0
    3.0753   -0.6252    0.0000 C   0  0  0  0  0  0  0  0  0  0  0  0
    3.3842    1.3607    0.0000 C   0  0  0  0  0  0  0  0  0  0  0  0
    4.2080    1.3755    0.0000 C   0  0  0  0  0  0  0  0  0  0  0  0
   -1.2202    1.8756    0.0000 C   0  0  0  0  0  0  0  0  0  0  0  0
   -0.5141    1.4784    0.0000 C   0  0  0  0  0  0  0  0  0  0  0  0
    1.6630   -0.6105    0.0000 C   0  0  0  0  0  0  0  0  0  0  0  0
    2.3691   -1.0371    0.0000 C   0  0  0  0  0  0  0  0  0  0  0  0
    6.2512   -1.5753    0.0000 C   0  0  0  0  0  0  0  0  0  0  0  0
   -4.8243    1.4784    0.0000 C   0  0  0  0  0  0  0  0  0  0  0  0
   -5.5157    0.2280    0.0000 C   0  0  0  0  0  0  0  0  0  0  0  0
   -3.3532   -1.8903    0.0000 C   0  0  0  0  0  0  0  0  0  0  0  0
   -2.6619    1.8756    0.0000 C   0  0  0  0  0  0  0  0  0  0  0  0
   -5.5451    1.8903    0.0000 C   0  0  0  0  0  0  0  0  0  0  0  0
   -6.2366    0.6399    0.0000 C   0  0  0  0  0  0  0  0  0  0  0  0
  1  2  2  0  0  0  0
  1  3  2  0  0  0  0
  1 10  1  0  0  0  0
  1 31  1  0  0  0  0
  4 15  2  0  0  0  0
  5 23  2  0  0  0  0
  6 36  1  0  0  0  0
  6 37  1  0  0  0  0
  7 15  1  0  0  0  0
  7 17  1  0  0  0  0
  7 34  1  0  0  0  0
  8 14  1  0  0  0  0
  8 32  1  0  0  0  0
  8 33  1  0  0  0  0
  9 21  1  0  0  0  0
  9 23  1  0  0  0  0
 10 12  1  0  0  0  0
 10 25  1  0  0  0  0
 10 26  1  0  0  0  0
 11 13  1  0  0  0  0
 11 16  1  0  0  0  0
 11 17  2  0  0  0  0
 12 20  2  0  0  0  0
 12 24  1  0  0  0  0
 13 19  1  0  0  0  0
 13 22  2  0  0  0  0
 14 15  1  0  0  0  0
 14 16  2  0  0  0  0
 18 20  1  0  0  0  0
 18 23  1  0  0  0  0
 18 29  2  0  0  0  0
 19 27  2  0  0  0  0
 19 35  1  0  0  0  0
 21 22  1  0  0  0  0
 21 28  2  0  0  0  0
 24 30  2  0  0  0  0
 27 28  1  0  0  0  0
 29 30  1  0  0  0  0
 32 36  1  0  0  0  0
 33 37  1  0  0  0  0
M  END
> <PUBCHEM_COMPOUND_ID_TYPE>
0

> <PUBCHEM_TOTAL_CHARGE>
0

> <PUBCHEM_SUBSTANCE_ID>
310943310

> <PUBCHEM_SUBSTANCE_VERSION>
1

> <PUBCHEM_EXT_DATASOURCE_NAME>
4488

> <PUBCHEM_EXT_DATASOURCE_REGID>
SCHEMBL16121372

> <PUBCHEM_SUBSTANCE_COMMENT>
InChI=1S/C28H33N3O5S/c1-19-9-10-23(29-26(32)20-7-6-8-22(15-20)28(2,3)37(5,34)35)17-24(19)21-16-25(27(33)30(4)18-21)31-11-13-36-14-12-31/h6-10,15-18H,11-14H2,1-5H3,(H,29,32)
InChIKey=XXXBUJVNZCURBM-UHFFFAOYSA-N

> <PUBCHEM_SUBSTANCE_SYNONYM>
SCHEMBL16121372

> <PUBCHEM_XREF_EXT_ID>
SCHEMBL16121372

> <PUBCHEM_EXT_DATASOURCE_URL>
https://www.surechembl.org/

> <PUBCHEM_EXT_SUBSTANCE_URL>
https://www.surechembl.org/chemical/SCHEMBL16121372

> <PUBCHEM_CID_ASSOCIATIONS>
117609735  1

> <PUBCHEM_COORDINATE_TYPE>
1
3

$$$$
