310948115
  -OEChem-07211613022D

 45 49  0     0  0  0  0  0  0999 V2000
    1.8651   -2.6243    0.0000 Cl  0  0  0  0  0  0  0  0  0  0  0  0
   -2.4462   -3.1867    0.0000 S   0  0  0  0  0  0  0  0  0  0  0  0
    0.4218   -3.1867    0.0000 F   0  0  0  0  0  0  0  0  0  0  0  0
   -0.7592    4.2176    0.0000 F   0  0  0  0  0  0  0  0  0  0  0  0
    0.3280    4.4426    0.0000 F   0  0  0  0  0  0  0  0  0  0  0  0
    0.5342    3.3554    0.0000 F   0  0  0  0  0  0  0  0  0  0  0  0
    3.1023   -1.4996    0.0000 F   0  0  0  0  0  0  0  0  0  0  0  0
    3.1023   -1.4996    0.0000 F   0  0  0  0  0  0  0  0  0  0  0  0
    0.5155    1.8370    0.0000 O   0  0  0  0  0  0  0  0  0  0  0  0
   -2.8398   -2.5306    0.0000 O   0  0  0  0  0  0  0  0  0  0  0  0
   -2.0338   -3.8802    0.0000 O   0  0  0  0  0  0  0  0  0  0  0  0
    3.1023   -1.4996    0.0000 O   0  0  0  0  0  0  0  0  0  0  0  0
   -1.7339   -4.4426    0.0000 O   0  0  0  0  0  0  0  0  0  0  0  0
   -1.0216    1.8370    0.0000 N   0  0  0  0  0  0  0  0  0  0  0  0
    1.7339    1.2934    0.0000 N   0  0  0  0  0  0  0  0  0  0  0  0
   -0.3468    2.3432    0.0000 N   0  0  0  0  0  0  0  0  0  0  0  0
   -0.2906    0.5998    0.0000 C   0  0  0  0  0  0  0  0  0  0  0  0
    0.4218    1.0122    0.0000 C   0  0  0  0  0  0  0  0  0  0  0  0
   -1.0216    1.0122    0.0000 C   0  0  0  0  0  0  0  0  0  0  0  0
    1.1715    0.6749    0.0000 C   0  0  0  0  0  0  0  0  0  0  0  0
   -1.0029   -0.6561    0.0000 C   0  0  0  0  0  0  0  0  0  0  0  0
   -0.3093   -0.2437    0.0000 C   0  0  0  0  0  0  0  0  0  0  0  0
   -1.0216   -1.4996    0.0000 C   0  0  0  0  0  0  0  0  0  0  0  0
    1.3403   -0.1499    0.0000 C   0  0  0  0  0  0  0  0  0  0  0  0
   -1.7152    0.5998    0.0000 C   0  0  0  0  0  0  0  0  0  0  0  0
   -1.7339   -2.7555    0.0000 C   0  0  0  0  0  0  0  0  0  0  0  0
    1.3027    2.0057    0.0000 C   0  0  0  0  0  0  0  0  0  0  0  0
   -1.7152   -0.2437    0.0000 C   0  0  0  0  0  0  0  0  0  0  0  0
   -1.0029   -3.1679    0.0000 C   0  0  0  0  0  0  0  0  0  0  0  0
   -1.7152   -1.9307    0.0000 C   0  0  0  0  0  0  0  0  0  0  0  0
   -0.5905    3.1117    0.0000 C   0  0  0  0  0  0  0  0  0  0  0  0
   -0.3093   -2.7555    0.0000 C   0  0  0  0  0  0  0  0  0  0  0  0
   -0.2906   -1.9307    0.0000 C   0  0  0  0  0  0  0  0  0  0  0  0
   -1.6777    2.3432    0.0000 C   0  0  0  0  0  0  0  0  0  0  0  0
    2.1275   -0.4124    0.0000 C   0  0  0  0  0  0  0  0  0  0  0  0
   -0.1218    3.8053    0.0000 C   0  0  0  0  0  0  0  0  0  0  0  0
   -1.4152    3.1304    0.0000 C   0  0  0  0  0  0  0  0  0  0  0  0
    0.7405   -0.7123    0.0000 C   0  0  0  0  0  0  0  0  0  0  0  0
    2.2963   -1.2184    0.0000 C   0  0  0  0  0  0  0  0  0  0  0  0
    1.7152   -1.7808    0.0000 C   0  0  0  0  0  0  0  0  0  0  0  0
    0.9091   -1.5184    0.0000 C   0  0  0  0  0  0  0  0  0  0  0  0
   -1.0216   -4.0302    0.0000 C   0  0  0  0  0  0  0  0  0  0  0  0
    1.6402    2.7930    0.0000 C   0  0  0  0  0  0  0  0  0  0  0  0
   -3.1023   -3.5990    0.0000 C   0  0  0  0  0  0  0  0  0  0  0  0
    3.1023   -1.4996    0.0000 C   0  0  0  0  0  0  0  0  0  0  0  0
  1 40  1  0  0  0  0
  2 10  2  0  0  0  0
  2 11  2  0  0  0  0
  2 26  1  0  0  0  0
  2 44  1  0  0  0  0
  3 32  1  0  0  0  0
  4 36  1  0  0  0  0
  5 36  1  0  0  0  0
  6 36  1  0  0  0  0
  7 45  1  0  0  0  0
  8 45  1  0  0  0  0
  9 18  1  0  0  0  0
  9 27  1  0  0  0  0
 12 39  1  0  0  0  0
 12 45  1  0  0  0  0
 13 42  1  0  0  0  0
 14 16  1  0  0  0  0
 14 19  1  0  0  0  0
 14 34  1  0  0  0  0
 15 20  1  0  0  0  0
 15 27  2  0  0  0  0
 16 31  2  0  0  0  0
 17 18  1  0  0  0  0
 17 19  2  0  0  0  0
 17 22  1  0  0  0  0
 18 20  2  0  0  0  0
 19 25  1  0  0  0  0
 20 24  1  0  0  0  0
 21 22  2  0  0  0  0
 21 23  1  0  0  0  0
 21 28  1  0  0  0  0
 23 30  2  0  0  0  0
 23 33  1  0  0  0  0
 24 35  1  0  0  0  0
 24 38  2  0  0  0  0
 25 28  2  0  0  0  0
 26 29  2  0  0  0  0
 26 30  1  0  0  0  0
 27 43  1  0  0  0  0
 29 32  1  0  0  0  0
 29 42  1  0  0  0  0
 31 36  1  0  0  0  0
 31 37  1  0  0  0  0
 32 33  2  0  0  0  0
 34 37  2  0  0  0  0
 35 39  2  0  0  0  0
 38 41  1  0  0  0  0
 39 40  1  0  0  0  0
 40 41  2  0  0  0  0
M  END
> <PUBCHEM_COMPOUND_ID_TYPE>
0

> <PUBCHEM_TOTAL_CHARGE>
0

> <PUBCHEM_SUBSTANCE_ID>
310948115

> <PUBCHEM_SUBSTANCE_VERSION>
1

> <PUBCHEM_EXT_DATASOURCE_NAME>
4488

> <PUBCHEM_EXT_DATASOURCE_REGID>
SCHEMBL16126291

> <PUBCHEM_SUBSTANCE_COMMENT>
InChI=1S/C29H20ClF6N3O5S/c1-14-37-26(16-3-5-20(30)23(11-16)44-28(32)33)27(43-14)18-9-15(4-6-22(18)39-8-7-25(38-39)29(34,35)36)17-10-21(31)19(13-40)24(12-17)45(2,41)42/h3-12,28,40H,13H2,1-2H3
InChIKey=CFKZUXSWTFEVPS-UHFFFAOYSA-N

> <PUBCHEM_SUBSTANCE_SYNONYM>
SCHEMBL16126291

> <PUBCHEM_XREF_EXT_ID>
SCHEMBL16126291

> <PUBCHEM_EXT_DATASOURCE_URL>
https://www.surechembl.org/

> <PUBCHEM_EXT_SUBSTANCE_URL>
https://www.surechembl.org/chemical/SCHEMBL16126291

> <PUBCHEM_CID_ASSOCIATIONS>
117613732  1

> <PUBCHEM_COORDINATE_TYPE>
1
3

$$$$
