310941690
  -OEChem-07211613022D

 34 35  0     1  0  0  0  0  0999 V2000
   -1.1032    1.1260    0.0000 O   0  0  0  0  0  0  0  0  0  0  0  0
   -0.3419    2.6009    0.0000 O   0  0  0  0  0  0  0  0  0  0  0  0
    1.2280    0.4520    0.0000 O   0  0  0  0  0  0  0  0  0  0  0  0
   -3.6645   -1.0784    0.0000 O   0  0  0  0  0  0  0  0  0  0  0  0
   -2.7050    1.0308    0.0000 O   0  0  0  0  0  0  0  0  0  0  0  0
   -2.3244    0.1744    0.0000 N   0  0  3  0  0  0  0  0  0  0  0  0
   -0.3579    0.4837    0.0000 N   0  0  0  0  0  0  0  0  0  0  0  0
   -1.1667    1.1894    0.0000 N   0  0  0  0  0  0  0  0  0  0  0  0
   -3.3870   -0.6106    0.0000 N   0  0  0  0  0  0  0  0  0  0  0  0
   -1.5949   -0.1507    0.0000 C   0  0  3  0  0  0  0  0  0  0  0  0
   -0.9763    0.4837    0.0000 C   0  0  0  0  0  0  0  0  0  0  0  0
   -1.6662   -0.9436    0.0000 C   0  0  0  0  0  0  0  0  0  0  0  0
   -2.8557   -0.4123    0.0000 C   0  0  0  0  0  0  0  0  0  0  0  0
   -1.5790    0.4837    0.0000 C   0  0  0  0  0  0  0  0  0  0  0  0
   -2.4591   -1.1023    0.0000 C   0  0  0  0  0  0  0  0  0  0  0  0
    0.0465   -0.2220    0.0000 C   0  0  3  0  0  0  0  0  0  0  0  0
   -0.3341   -0.9198    0.0000 C   0  0  0  0  0  0  0  0  0  0  0  0
   -1.1588   -1.0071    0.0000 C   0  0  0  0  0  0  0  0  0  0  0  0
   -0.3658    1.2370    0.0000 C   0  0  3  0  0  0  0  0  0  0  0  0
    0.0624    1.9665    0.0000 C   0  0  0  0  0  0  0  0  0  0  0  0
    0.8792   -0.1904    0.0000 C   0  0  0  0  0  0  0  0  0  0  0  0
   -1.5869   -0.3014    0.0000 C   0  0  0  0  0  0  0  0  0  0  0  0
   -1.5552   -1.7286    0.0000 C   0  0  0  0  0  0  0  0  0  0  0  0
   -2.8001   -1.0467    0.0000 C   0  0  0  0  0  0  0  0  0  0  0  0
    0.8395    1.9983    0.0000 C   0  0  0  0  0  0  0  0  0  0  0  0
   -2.4116   -0.3251    0.0000 C   0  0  0  0  0  0  0  0  0  0  0  0
   -2.3799   -1.7524    0.0000 C   0  0  0  0  0  0  0  0  0  0  0  0
    0.0863    0.5234    0.0000 C   0  0  0  0  0  0  0  0  0  0  0  0
   -2.4751   -0.4203    0.0000 C   0  0  3  0  0  0  0  0  0  0  0  0
   -1.8962   -1.0625    0.0000 C   0  0  0  0  0  0  0  0  0  0  0  0
   -2.2450    0.4837    0.0000 C   0  0  0  0  0  0  0  0  0  0  0  0
   -2.1737   -1.9983    0.0000 C   0  0  0  0  0  0  0  0  0  0  0  0
   -3.0459   -2.2044    0.0000 C   0  0  0  0  0  0  0  0  0  0  0  0
   -1.6106   -2.6009    0.0000 C   0  0  0  0  0  0  0  0  0  0  0  0
  1 11  2  0  0  0  0
  2 20  2  0  0  0  0
  3 21  2  0  0  0  0
  4 24  1  0  0  0  0
  5 31  2  0  0  0  0
  6 10  1  0  0  0  0
  6 13  1  0  0  0  0
  6 14  1  0  0  0  0
  7 11  1  0  0  0  0
 16  7  1  6  0  0  0
  8 14  1  0  0  0  0
  8 19  1  0  0  0  0
  9 25  1  0  0  0  0
 29  9  1  6  0  0  0
 10 11  1  6  0  0  0
 10 12  1  0  0  0  0
 12 15  1  0  0  0  0
 13 15  1  0  0  0  0
 16 17  1  0  0  0  0
 16 21  1  0  0  0  0
 17 18  1  0  0  0  0
 18 22  2  0  0  0  0
 18 23  1  0  0  0  0
 19 20  1  0  0  0  0
 19 28  1  6  0  0  0
 20 25  1  0  0  0  0
 22 26  1  0  0  0  0
 23 27  2  0  0  0  0
 24 26  2  0  0  0  0
 24 27  1  0  0  0  0
 29 30  1  0  0  0  0
 29 31  1  0  0  0  0
 30 32  1  0  0  0  0
 32 33  1  0  0  0  0
 32 34  1  0  0  0  0
M  END
> <PUBCHEM_COMPOUND_ID_TYPE>
0

> <PUBCHEM_TOTAL_CHARGE>
0

> <PUBCHEM_SUBSTANCE_ID>
310941690

> <PUBCHEM_SUBSTANCE_VERSION>
1

> <PUBCHEM_EXT_DATASOURCE_NAME>
4488

> <PUBCHEM_EXT_DATASOURCE_REGID>
SCHEMBL16119721

> <PUBCHEM_SUBSTANCE_COMMENT>
InChI=1S/C25H38N4O5/c1-17(2)11-20(14-30)26-13-24(33)18(3)27-16-29-10-4-5-23(29)25(34)28-21(15-31)12-19-6-8-22(32)9-7-19/h6-9,14-15,17-18,20-21,23,26-27,32H,4-5,10-13,16H2,1-3H3,(H,28,34)/t18-,20-,21-,23-/m0/s1
InChIKey=BALTXMXSQQLXMV-ROQCDXFCSA-N

> <PUBCHEM_SUBSTANCE_SYNONYM>
SCHEMBL16119721

> <PUBCHEM_XREF_EXT_ID>
SCHEMBL16119721

> <PUBCHEM_EXT_DATASOURCE_URL>
https://www.surechembl.org/

> <PUBCHEM_EXT_SUBSTANCE_URL>
https://www.surechembl.org/chemical/SCHEMBL16119721

> <PUBCHEM_CID_ASSOCIATIONS>
117608464  1

> <PUBCHEM_COORDINATE_TYPE>
1
3

> <PUBCHEM_BONDANNOTATIONS>
10  11  6
19  28  6
16  7  6
29  9  6

$$$$
