310948123
  -OEChem-07211613022D

 42 46  0     0  0  0  0  0  0999 V2000
   -1.9903   -3.1121    0.0000 S   0  0  0  0  0  0  0  0  0  0  0  0
   -1.7732    1.3209    0.0000 F   0  0  0  0  0  0  0  0  0  0  0  0
   -2.7683    1.8456    0.0000 F   0  0  0  0  0  0  0  0  0  0  0  0
   -2.2256    2.8407    0.0000 F   0  0  0  0  0  0  0  0  0  0  0  0
    2.3341   -2.5512    0.0000 F   0  0  0  0  0  0  0  0  0  0  0  0
    2.3341   -2.5512    0.0000 F   0  0  0  0  0  0  0  0  0  0  0  0
    2.1894    1.3028    0.0000 O   0  0  0  0  0  0  0  0  0  0  0  0
    2.3341   -2.5512    0.0000 O   0  0  0  0  0  0  0  0  0  0  0  0
   -2.3703   -2.4427    0.0000 O   0  0  0  0  0  0  0  0  0  0  0  0
   -1.5923   -3.8178    0.0000 O   0  0  0  0  0  0  0  0  0  0  0  0
   -0.5609    1.8637    0.0000 N   0  0  0  0  0  0  0  0  0  0  0  0
    0.1086    2.3522    0.0000 N   0  0  0  0  0  0  0  0  0  0  0  0
    0.9771    1.8456    0.0000 N   0  0  0  0  0  0  0  0  0  0  0  0
    0.1810    0.6333    0.0000 C   0  0  0  0  0  0  0  0  0  0  0  0
   -0.5428    1.0314    0.0000 C   0  0  0  0  0  0  0  0  0  0  0  0
    0.8866    1.0495    0.0000 C   0  0  0  0  0  0  0  0  0  0  0  0
   -1.2304    2.3522    0.0000 C   0  0  0  0  0  0  0  0  0  0  0  0
    1.6465    0.6876    0.0000 C   0  0  0  0  0  0  0  0  0  0  0  0
    0.1628   -0.1990    0.0000 C   0  0  0  0  0  0  0  0  0  0  0  0
   -0.5428   -0.6152    0.0000 C   0  0  0  0  0  0  0  0  0  0  0  0
   -2.0084    2.0989    0.0000 C   0  0  0  0  0  0  0  0  0  0  0  0
   -1.2485    0.6333    0.0000 C   0  0  0  0  0  0  0  0  0  0  0  0
   -0.9409    3.1303    0.0000 C   0  0  0  0  0  0  0  0  0  0  0  0
    1.8094   -0.1086    0.0000 C   0  0  0  0  0  0  0  0  0  0  0  0
   -0.1267    3.1121    0.0000 C   0  0  0  0  0  0  0  0  0  0  0  0
    1.7732    2.0266    0.0000 C   0  0  0  0  0  0  0  0  0  0  0  0
   -1.2485   -0.2171    0.0000 C   0  0  0  0  0  0  0  0  0  0  0  0
   -0.5609   -1.4475    0.0000 C   0  0  0  0  0  0  0  0  0  0  0  0
   -1.2485   -1.8637    0.0000 C   0  0  0  0  0  0  0  0  0  0  0  0
    1.2123   -0.6695    0.0000 C   0  0  0  0  0  0  0  0  0  0  0  0
    2.6055   -0.3799    0.0000 C   0  0  0  0  0  0  0  0  0  0  0  0
   -1.2666   -2.6960    0.0000 C   0  0  0  0  0  0  0  0  0  0  0  0
    0.1628   -1.8637    0.0000 C   0  0  0  0  0  0  0  0  0  0  0  0
    0.3438    3.8178    0.0000 C   0  0  0  0  0  0  0  0  0  0  0  0
    2.1351    2.8046    0.0000 C   0  0  0  0  0  0  0  0  0  0  0  0
    1.3752   -1.4656    0.0000 C   0  0  0  0  0  0  0  0  0  0  0  0
    2.7683   -1.1942    0.0000 C   0  0  0  0  0  0  0  0  0  0  0  0
    2.1532   -1.7371    0.0000 C   0  0  0  0  0  0  0  0  0  0  0  0
   -0.5247   -3.0941    0.0000 C   0  0  0  0  0  0  0  0  0  0  0  0
    0.1628   -2.6960    0.0000 C   0  0  0  0  0  0  0  0  0  0  0  0
   -2.6598   -3.5102    0.0000 C   0  0  0  0  0  0  0  0  0  0  0  0
    2.3341   -2.5512    0.0000 C   0  0  0  0  0  0  0  0  0  0  0  0
  1  9  2  0  0  0  0
  1 10  2  0  0  0  0
  1 32  1  0  0  0  0
  1 41  1  0  0  0  0
  2 21  1  0  0  0  0
  3 21  1  0  0  0  0
  4 21  1  0  0  0  0
  5 42  1  0  0  0  0
  6 42  1  0  0  0  0
  7 18  1  0  0  0  0
  7 26  1  0  0  0  0
  8 38  1  0  0  0  0
  8 42  1  0  0  0  0
 11 12  1  0  0  0  0
 11 15  1  0  0  0  0
 11 17  1  0  0  0  0
 12 25  2  0  0  0  0
 13 16  1  0  0  0  0
 13 26  2  0  0  0  0
 14 15  2  0  0  0  0
 14 16  1  0  0  0  0
 14 19  1  0  0  0  0
 15 22  1  0  0  0  0
 16 18  2  0  0  0  0
 17 21  1  0  0  0  0
 17 23  2  0  0  0  0
 18 24  1  0  0  0  0
 19 20  2  0  0  0  0
 20 27  1  0  0  0  0
 20 28  1  0  0  0  0
 22 27  2  0  0  0  0
 23 25  1  0  0  0  0
 24 30  2  0  0  0  0
 24 31  1  0  0  0  0
 25 34  1  0  0  0  0
 26 35  1  0  0  0  0
 28 29  2  0  0  0  0
 28 33  1  0  0  0  0
 29 32  1  0  0  0  0
 30 36  1  0  0  0  0
 31 37  2  0  0  0  0
 32 39  2  0  0  0  0
 33 40  2  0  0  0  0
 36 38  2  0  0  0  0
 37 38  1  0  0  0  0
 39 40  1  0  0  0  0
M  END
> <PUBCHEM_COMPOUND_ID_TYPE>
0

> <PUBCHEM_TOTAL_CHARGE>
0

> <PUBCHEM_SUBSTANCE_ID>
310948123

> <PUBCHEM_SUBSTANCE_VERSION>
1

> <PUBCHEM_EXT_DATASOURCE_NAME>
4488

> <PUBCHEM_EXT_DATASOURCE_REGID>
SCHEMBL16126299

> <PUBCHEM_SUBSTANCE_COMMENT>
InChI=1S/C29H22F5N3O4S/c1-16-13-25(29(32,33)34)37(36-16)24-12-9-20(19-5-4-6-22(14-19)42(3,38)39)15-23(24)26-27(40-17(2)35-26)18-7-10-21(11-8-18)41-28(30)31/h4-15,28H,1-3H3
InChIKey=MSGUSXIULIYPLO-UHFFFAOYSA-N

> <PUBCHEM_SUBSTANCE_SYNONYM>
SCHEMBL16126299

> <PUBCHEM_XREF_EXT_ID>
SCHEMBL16126299

> <PUBCHEM_EXT_DATASOURCE_URL>
https://www.surechembl.org/

> <PUBCHEM_EXT_SUBSTANCE_URL>
https://www.surechembl.org/chemical/SCHEMBL16126299

> <PUBCHEM_CID_ASSOCIATIONS>
117613740  1

> <PUBCHEM_COORDINATE_TYPE>
1
3

$$$$
