310949228
  -OEChem-07211613022D

 47 53  0     0  0  0  0  0  0999 V2000
    0.7611    0.1726    0.0000 F   0  0  0  0  0  0  0  0  0  0  0  0
   -0.3390    0.5180    0.0000 F   0  0  0  0  0  0  0  0  0  0  0  0
    0.0064    1.6309    0.0000 F   0  0  0  0  0  0  0  0  0  0  0  0
   -2.9996    0.1343    0.0000 F   0  0  0  0  0  0  0  0  0  0  0  0
   -3.4856    1.1832    0.0000 F   0  0  0  0  0  0  0  0  0  0  0  0
   -2.4367    1.6693    0.0000 F   0  0  0  0  0  0  0  0  0  0  0  0
    0.3901   -1.5925    0.0000 F   0  0  0  0  0  0  0  0  0  0  0  0
   -2.4495   -1.5797    0.0000 F   0  0  0  0  0  0  0  0  0  0  0  0
   -2.4751   -3.2553    0.0000 F   0  0  0  0  0  0  0  0  0  0  0  0
    0.3773   -3.2681    0.0000 F   0  0  0  0  0  0  0  0  0  0  0  0
   -1.0425   -4.0996    0.0000 F   0  0  0  0  0  0  0  0  0  0  0  0
   -1.0425    1.7460    0.0000 N   0  0  0  0  0  0  0  0  0  0  0  0
   -0.3390    2.1809    0.0000 C   0  0  0  0  0  0  0  0  0  0  0  0
   -0.3262    2.9996    0.0000 C   0  0  0  0  0  0  0  0  0  0  0  0
   -1.0553    0.9274    0.0000 C   0  0  0  0  0  0  0  0  0  0  0  0
    1.0681    2.1809    0.0000 C   0  0  0  0  0  0  0  0  0  0  0  0
   -1.7716    2.1809    0.0000 C   0  0  0  0  0  0  0  0  0  0  0  0
    1.0809    2.9996    0.0000 C   0  0  0  0  0  0  0  0  0  0  0  0
   -1.7460    3.0124    0.0000 C   0  0  0  0  0  0  0  0  0  0  0  0
    1.8483    1.9251    0.0000 C   0  0  0  0  0  0  0  0  0  0  0  0
    0.3645    1.7844    0.0000 C   0  0  0  0  0  0  0  0  0  0  0  0
    1.8483    3.2681    0.0000 C   0  0  0  0  0  0  0  0  0  0  0  0
   -0.3262    0.5309    0.0000 C   0  0  0  0  0  0  0  0  0  0  0  0
   -1.7588    0.5309    0.0000 C   0  0  0  0  0  0  0  0  0  0  0  0
    2.3344    2.5902    0.0000 C   0  0  0  0  0  0  0  0  0  0  0  0
    0.3901    3.4089    0.0000 C   0  0  0  0  0  0  0  0  0  0  0  0
   -1.0169   -0.7227    0.0000 C   0  0  0  0  0  0  0  0  0  0  0  0
    0.3773    0.9146    0.0000 C   0  0  0  0  0  0  0  0  0  0  0  0
   -2.7182    0.9146    0.0000 C   0  0  0  0  0  0  0  0  0  0  0  0
   -0.3390   -0.3006    0.0000 C   0  0  0  0  0  0  0  0  0  0  0  0
   -1.7588   -0.3134    0.0000 C   0  0  0  0  0  0  0  0  0  0  0  0
   -2.4495    1.7844    0.0000 C   0  0  0  0  0  0  0  0  0  0  0  0
   -2.4879    3.4217    0.0000 C   0  0  0  0  0  0  0  0  0  0  0  0
   -1.0425   -1.5797    0.0000 C   0  0  0  0  0  0  0  0  0  0  0  0
    2.1937    3.9972    0.0000 C   0  0  0  0  0  0  0  0  0  0  0  0
    3.1530    2.6798    0.0000 C   0  0  0  0  0  0  0  0  0  0  0  0
    1.6565    1.1192    0.0000 C   0  0  0  0  0  0  0  0  0  0  0  0
    2.5902    1.5029    0.0000 C   0  0  0  0  0  0  0  0  0  0  0  0
   -0.3262   -1.9891    0.0000 C   0  0  0  0  0  0  0  0  0  0  0  0
   -1.7460   -1.9763    0.0000 C   0  0  0  0  0  0  0  0  0  0  0  0
   -3.1914    2.1937    0.0000 C   0  0  0  0  0  0  0  0  0  0  0  0
   -3.1786    3.0124    0.0000 C   0  0  0  0  0  0  0  0  0  0  0  0
   -1.7716   -2.8205    0.0000 C   0  0  0  0  0  0  0  0  0  0  0  0
   -0.3390   -2.8205    0.0000 C   0  0  0  0  0  0  0  0  0  0  0  0
    2.9996    4.0996    0.0000 C   0  0  0  0  0  0  0  0  0  0  0  0
    3.4856    3.4217    0.0000 C   0  0  0  0  0  0  0  0  0  0  0  0
   -1.0553   -3.2426    0.0000 C   0  0  0  0  0  0  0  0  0  0  0  0
  1 28  1  0  0  0  0
  2 28  1  0  0  0  0
  3 28  1  0  0  0  0
  4 29  1  0  0  0  0
  5 29  1  0  0  0  0
  6 29  1  0  0  0  0
  7 39  1  0  0  0  0
  8 40  1  0  0  0  0
  9 43  1  0  0  0  0
 10 44  1  0  0  0  0
 11 47  1  0  0  0  0
 12 13  1  0  0  0  0
 12 15  1  0  0  0  0
 12 17  1  0  0  0  0
 13 14  2  0  0  0  0
 13 21  1  0  0  0  0
 14 19  1  0  0  0  0
 14 26  1  0  0  0  0
 15 23  2  0  0  0  0
 15 24  1  0  0  0  0
 16 18  1  0  0  0  0
 16 20  1  0  0  0  0
 16 21  2  0  0  0  0
 17 19  2  0  0  0  0
 17 32  1  0  0  0  0
 18 22  1  0  0  0  0
 18 26  2  0  0  0  0
 19 33  1  0  0  0  0
 20 25  1  0  0  0  0
 20 37  1  0  0  0  0
 20 38  1  0  0  0  0
 22 25  2  0  0  0  0
 22 35  1  0  0  0  0
 23 28  1  0  0  0  0
 23 30  1  0  0  0  0
 24 29  1  0  0  0  0
 24 31  2  0  0  0  0
 25 36  1  0  0  0  0
 27 30  2  0  0  0  0
 27 31  1  0  0  0  0
 27 34  1  0  0  0  0
 32 41  2  0  0  0  0
 33 42  2  0  0  0  0
 34 39  2  0  0  0  0
 34 40  1  0  0  0  0
 35 45  2  0  0  0  0
 36 46  2  0  0  0  0
 39 44  1  0  0  0  0
 40 43  2  0  0  0  0
 41 42  1  0  0  0  0
 43 47  1  0  0  0  0
 44 47  2  0  0  0  0
 45 46  1  0  0  0  0
M  END
> <PUBCHEM_COMPOUND_ID_TYPE>
0

> <PUBCHEM_TOTAL_CHARGE>
0

> <PUBCHEM_SUBSTANCE_ID>
310949228

> <PUBCHEM_SUBSTANCE_VERSION>
1

> <PUBCHEM_EXT_DATASOURCE_NAME>
4488

> <PUBCHEM_EXT_DATASOURCE_REGID>
SCHEMBL16127418

> <PUBCHEM_SUBSTANCE_COMMENT>
InChI=1S/C35H18F11N/c1-33(2)20-9-5-3-7-16(20)18-13-19-17-8-4-6-10-24(17)47(25(19)14-21(18)33)32-22(34(41,42)43)11-15(12-23(32)35(44,45)46)26-27(36)29(38)31(40)30(39)28(26)37/h3-14H,1-2H3
InChIKey=ZRVNXFZKTWYFHD-UHFFFAOYSA-N

> <PUBCHEM_SUBSTANCE_SYNONYM>
SCHEMBL16127418

> <PUBCHEM_XREF_EXT_ID>
SCHEMBL16127418

> <PUBCHEM_EXT_DATASOURCE_URL>
https://www.surechembl.org/

> <PUBCHEM_EXT_SUBSTANCE_URL>
https://www.surechembl.org/chemical/SCHEMBL16127418

> <PUBCHEM_CID_ASSOCIATIONS>
117614716  1

> <PUBCHEM_COORDINATE_TYPE>
1
3

$$$$
