310944151
  -OEChem-07211613022D

 28 29  0     1  0  0  0  0  0999 V2000
    1.2268   -1.3222    0.0000 O   0  0  0  0  0  0  0  0  0  0  0  0
    2.1946    1.5130    0.0000 O   0  0  0  0  0  0  0  0  0  0  0  0
    3.1351    0.4225    0.0000 O   0  0  0  0  0  0  0  0  0  0  0  0
    0.0136   -0.5997    0.0000 N   0  0  0  0  0  0  0  0  0  0  0  0
   -0.7906   -0.5179    0.0000 N   0  0  0  0  0  0  0  0  0  0  0  0
    0.5588    1.8811    0.0000 N   0  0  3  0  0  0  0  0  0  0  0  0
    1.7856    0.0682    0.0000 N   0  0  0  0  0  0  0  0  0  0  0  0
   -0.2998    0.7498    0.0000 C   0  0  0  0  0  0  0  0  0  0  0  0
   -0.9814    0.3135    0.0000 C   0  0  0  0  0  0  0  0  0  0  0  0
    0.3135    0.1908    0.0000 C   0  0  0  0  0  0  0  0  0  0  0  0
    0.3952   -1.2949    0.0000 C   0  0  3  0  0  0  0  0  0  0  0  0
   -0.1908    1.5675    0.0000 C   0  0  0  0  0  0  0  0  0  0  0  0
   -1.7311    0.6543    0.0000 C   0  0  0  0  0  0  0  0  0  0  0  0
   -0.0136   -2.0173    0.0000 C   0  0  0  0  0  0  0  0  0  0  0  0
   -2.3854    0.1772    0.0000 C   0  0  0  0  0  0  0  0  0  0  0  0
    1.6084   -2.0037    0.0000 C   0  0  0  0  0  0  0  0  0  0  0  0
    0.3952   -2.7534    0.0000 C   0  0  0  0  0  0  0  0  0  0  0  0
    1.1995    1.4176    0.0000 C   0  0  0  0  0  0  0  0  0  0  0  0
    1.2131   -2.7534    0.0000 C   0  0  0  0  0  0  0  0  0  0  0  0
    1.3903    1.7992    0.0000 C   0  0  0  0  0  0  0  0  0  0  0  0
    0.6407    2.7534    0.0000 C   0  0  0  0  0  0  0  0  0  0  0  0
    1.1177    0.5861    0.0000 C   0  0  0  0  0  0  0  0  0  0  0  0
    2.3581    0.6680    0.0000 C   0  0  0  0  0  0  0  0  0  0  0  0
   -3.1351    0.5043    0.0000 C   0  0  0  0  0  0  0  0  0  0  0  0
   -2.2900   -0.6816    0.0000 C   0  0  0  0  0  0  0  0  0  0  0  0
    1.5947    2.5353    0.0000 C   0  0  0  0  0  0  0  0  0  0  0  0
    1.1450    1.0359    0.0000 C   0  0  0  0  0  0  0  0  0  0  0  0
    0.5861    2.0173    0.0000 C   0  0  0  0  0  0  0  0  0  0  0  0
  1 11  1  0  0  0  0
  1 16  1  0  0  0  0
  2 20  1  0  0  0  0
  2 23  1  0  0  0  0
  3 23  2  0  0  0  0
  4  5  1  0  0  0  0
  4 10  1  0  0  0  0
  4 11  1  0  0  0  0
  5  9  2  0  0  0  0
  6 12  1  0  0  0  0
  6 18  1  0  0  0  0
  6 21  1  0  0  0  0
  7 22  1  0  0  0  0
  7 23  1  0  0  0  0
  8  9  1  0  0  0  0
  8 10  2  0  0  0  0
  8 12  1  0  0  0  0
  9 13  1  0  0  0  0
 11 14  1  0  0  0  0
 13 15  1  0  0  0  0
 14 17  1  0  0  0  0
 15 24  1  0  0  0  0
 15 25  1  0  0  0  0
 16 19  1  0  0  0  0
 17 19  1  0  0  0  0
 18 22  1  0  0  0  0
 20 26  1  0  0  0  0
 20 27  1  0  0  0  0
 20 28  1  0  0  0  0
M  END
> <PUBCHEM_COMPOUND_ID_TYPE>
0

> <PUBCHEM_TOTAL_CHARGE>
0

> <PUBCHEM_SUBSTANCE_ID>
310944151

> <PUBCHEM_SUBSTANCE_VERSION>
1

> <PUBCHEM_EXT_DATASOURCE_NAME>
4488

> <PUBCHEM_EXT_DATASOURCE_REGID>
SCHEMBL16122226

> <PUBCHEM_SUBSTANCE_COMMENT>
InChI=1S/C21H38N4O3/c1-16(2)13-18-17(15-25(23-18)19-9-7-8-12-27-19)14-24(6)11-10-22-20(26)28-21(3,4)5/h15-16,19H,7-14H2,1-6H3,(H,22,26)
InChIKey=DNUPFHLSFOPGHN-UHFFFAOYSA-N

> <PUBCHEM_SUBSTANCE_SYNONYM>
SCHEMBL16122226

> <PUBCHEM_XREF_EXT_ID>
SCHEMBL16122226

> <PUBCHEM_EXT_DATASOURCE_URL>
https://www.surechembl.org/

> <PUBCHEM_EXT_SUBSTANCE_URL>
https://www.surechembl.org/chemical/SCHEMBL16122226

> <PUBCHEM_CID_ASSOCIATIONS>
117610432  1

> <PUBCHEM_COORDINATE_TYPE>
1
3

$$$$
