310933818
  -OEChem-07211613022D

 24 27  0     0  0  0  0  0  0999 V2000
    2.1930    1.2227    0.0000 Cl  0  0  0  0  0  0  0  0  0  0  0  0
   -0.6131   -0.5520    0.0000 O   0  0  0  0  0  0  0  0  0  0  0  0
   -0.8115    0.9917    0.0000 O   0  0  0  0  0  0  0  0  0  0  0  0
   -0.4523    2.5657    0.0000 O   0  0  0  0  0  0  0  0  0  0  0  0
   -1.2639    2.6400    0.0000 C   0  0  0  0  0  0  0  0  0  0  0  0
    0.0000    0.0000    0.0000 C   0  0  0  0  0  0  0  0  0  0  0  0
   -2.1521    2.7148    0.0000 C   0  0  0  0  0  0  0  0  0  0  0  0
    0.7145   -0.4125    0.0000 C   0  0  0  0  0  0  0  0  0  0  0  0
    0.0000    0.8250    0.0000 C   0  0  0  0  0  0  0  0  0  0  0  0
   -0.2775   -1.3057    0.0000 C   0  0  0  0  0  0  0  0  0  0  0  0
   -0.8439    3.0423    0.0000 C   0  0  0  0  0  0  0  0  0  0  0  0
   -1.5242    1.5672    0.0000 C   0  0  0  0  0  0  0  0  0  0  0  0
   -2.2680    3.1028    0.0000 C   0  0  0  0  0  0  0  0  0  0  0  0
   -0.5931    1.9314    0.0000 C   0  0  0  0  0  0  0  0  0  0  0  0
    0.5429   -1.2195    0.0000 C   0  0  0  0  0  0  0  0  0  0  0  0
   -1.5022    3.1981    0.0000 C   0  0  0  0  0  0  0  0  0  0  0  0
   -2.2362    1.8414    0.0000 C   0  0  0  0  0  0  0  0  0  0  0  0
   -2.9164    3.1842    0.0000 C   0  0  0  0  0  0  0  0  0  0  0  0
    1.4289    0.0000    0.0000 C   0  0  0  0  0  0  0  0  0  0  0  0
    0.7145    1.2375    0.0000 C   0  0  0  0  0  0  0  0  0  0  0  0
    1.4289    0.8250    0.0000 C   0  0  0  0  0  0  0  0  0  0  0  0
   -1.3722    2.2042    0.0000 C   0  0  0  0  0  0  0  0  0  0  0  0
   -1.0786   -1.6534    0.0000 C   0  0  0  0  0  0  0  0  0  0  0  0
   -0.1401   -2.1665    0.0000 C   0  0  0  0  0  0  0  0  0  0  0  0
  1 21  1  0  0  0  0
  2  6  1  0  0  0  0
  2 10  1  0  0  0  0
  3  9  1  0  0  0  0
  3 14  1  0  0  0  0
  4 22  2  0  0  0  0
  5 11  1  0  0  0  0
  5 12  1  0  0  0  0
  5 13  1  0  0  0  0
  5 14  1  0  0  0  0
  6  8  2  0  0  0  0
  6  9  1  0  0  0  0
  7 16  1  0  0  0  0
  7 17  1  0  0  0  0
  7 18  1  0  0  0  0
  7 22  1  0  0  0  0
  8 15  1  0  0  0  0
  8 19  1  0  0  0  0
  9 20  2  0  0  0  0
 10 15  1  0  0  0  0
 10 23  1  0  0  0  0
 10 24  1  0  0  0  0
 11 16  1  0  0  0  0
 12 17  1  0  0  0  0
 13 18  1  0  0  0  0
 19 21  2  0  0  0  0
 20 21  1  0  0  0  0
M  END
> <PUBCHEM_COMPOUND_ID_TYPE>
0

> <PUBCHEM_TOTAL_CHARGE>
0

> <PUBCHEM_SUBSTANCE_ID>
310933818

> <PUBCHEM_SUBSTANCE_VERSION>
1

> <PUBCHEM_EXT_DATASOURCE_NAME>
4488

> <PUBCHEM_EXT_DATASOURCE_REGID>
SCHEMBL16111256

> <PUBCHEM_SUBSTANCE_COMMENT>
InChI=1S/C20H25ClO3/c1-18(2)11-14-9-15(21)10-16(17(14)24-18)23-13-20-6-3-19(12-22,4-7-20)5-8-20/h9-10,12H,3-8,11,13H2,1-2H3
InChIKey=FREDWHNMUCKVGD-UHFFFAOYSA-N

> <PUBCHEM_SUBSTANCE_SYNONYM>
SCHEMBL16111256

> <PUBCHEM_XREF_EXT_ID>
SCHEMBL16111256

> <PUBCHEM_EXT_DATASOURCE_URL>
https://www.surechembl.org/

> <PUBCHEM_EXT_SUBSTANCE_URL>
https://www.surechembl.org/chemical/SCHEMBL16111256

> <PUBCHEM_CID_ASSOCIATIONS>
117602167  1

> <PUBCHEM_COORDINATE_TYPE>
1
3

$$$$
