310945297
  -OEChem-07211613022D

 43 47  0     1  0  0  0  0  0999 V2000
    2.8977   -2.6127    0.0000 S   0  0  0  0  0  0  0  0  0  0  0  0
    4.5890   -2.7648    0.0000 O   0  0  0  0  0  0  0  0  0  0  0  0
   -0.1235   -0.1995    0.0000 O   0  0  0  0  0  0  0  0  0  0  0  0
   -3.2554   -0.8237    0.0000 O   0  0  0  0  0  0  0  0  0  0  0  0
   -3.7656   -1.6626    0.0000 O   0  0  0  0  0  0  0  0  0  0  0  0
   -0.8456    1.0546    0.0000 O   0  0  0  0  0  0  0  0  0  0  0  0
    3.1258   -0.4465    0.0000 N   0  0  0  0  0  0  0  0  0  0  0  0
    4.7789   -1.3206    0.0000 N   0  0  0  0  0  0  0  0  0  0  0  0
   -0.9026   -1.5296    0.0000 N   0  0  0  0  0  0  0  0  0  0  0  0
   -2.3847    1.0546    0.0000 N   0  0  0  0  0  0  0  0  0  0  0  0
   -5.3300    1.0356    0.0000 N   0  0  0  0  0  0  0  0  0  0  0  0
    2.0997   -1.5296    0.0000 C   0  0  0  0  0  0  0  0  0  0  0  0
    2.8788   -1.2826    0.0000 C   0  0  0  0  0  0  0  0  0  0  0  0
    3.3918   -1.9287    0.0000 C   0  0  0  0  0  0  0  0  0  0  0  0
    2.0807   -2.3467    0.0000 C   0  0  0  0  0  0  0  0  0  0  0  0
    1.3587   -1.1306    0.0000 C   0  0  0  0  0  0  0  0  0  0  0  0
    4.2089   -1.9477    0.0000 C   0  0  0  0  0  0  0  0  0  0  0  0
    0.6556   -1.5296    0.0000 C   0  0  0  0  0  0  0  0  0  0  0  0
    1.3967   -2.7648    0.0000 C   0  0  0  0  0  0  0  0  0  0  0  0
    0.6746   -2.3657    0.0000 C   0  0  0  0  0  0  0  0  0  0  0  0
   -0.1425   -1.0926    0.0000 C   0  0  0  0  0  0  0  0  0  0  0  0
    3.9049   -0.1235    0.0000 C   0  0  0  0  0  0  0  0  0  0  0  0
    4.6270   -0.5225    0.0000 C   0  0  3  0  0  0  0  0  0  0  0  0
   -3.1068   -0.2375    0.0000 C   0  0  0  0  0  0  0  0  0  0  0  0
   -1.6817   -1.0736    0.0000 C   0  0  0  0  0  0  0  0  0  0  0  0
   -2.4037    0.1615    0.0000 C   0  0  0  0  0  0  0  0  0  0  0  0
   -3.9049    0.1995    0.0000 C   0  0  0  0  0  0  0  0  0  0  0  0
   -1.6817   -0.2565    0.0000 C   0  0  0  0  0  0  0  0  0  0  0  0
   -3.1068   -1.0926    0.0000 C   0  0  0  0  0  0  0  0  0  0  0  0
   -2.3847   -1.4916    0.0000 C   0  0  0  0  0  0  0  0  0  0  0  0
   -4.5890   -0.2185    0.0000 C   0  0  0  0  0  0  0  0  0  0  0  0
   -3.8859    1.0166    0.0000 C   0  0  0  0  0  0  0  0  0  0  0  0
    5.3300    0.0095    0.0000 C   0  0  0  0  0  0  0  0  0  0  0  0
   -5.3300    0.1995    0.0000 C   0  0  0  0  0  0  0  0  0  0  0  0
   -4.6080    1.4347    0.0000 C   0  0  0  0  0  0  0  0  0  0  0  0
   -3.7656   -1.1184    0.0000 C   0  0  0  0  0  0  0  0  0  0  0  0
   -1.6437    1.5106    0.0000 C   0  0  0  0  0  0  0  0  0  0  0  0
   -3.2441   -0.2568    0.0000 C   0  0  0  0  0  0  0  0  0  0  0  0
   -1.5866    2.4037    0.0000 C   0  0  0  0  0  0  0  0  0  0  0  0
   -2.7339   -0.2341    0.0000 C   0  0  0  0  0  0  0  0  0  0  0  0
   -3.7656   -0.2568    0.0000 C   0  0  0  0  0  0  0  0  0  0  0  0
   -3.2554    0.2987    0.0000 C   0  0  0  0  0  0  0  0  0  0  0  0
   -0.7695    2.7648    0.0000 C   0  0  0  0  0  0  0  0  0  0  0  0
  1 14  1  0  0  0  0
  1 15  1  0  0  0  0
  2 17  2  0  0  0  0
  3 21  2  0  0  0  0
  4 36  1  0  0  0  0
  4 38  1  0  0  0  0
  5 36  2  0  0  0  0
  6 37  2  0  0  0  0
  7 13  1  0  0  0  0
  7 22  1  0  0  0  0
  8 17  1  0  0  0  0
  8 23  1  0  0  0  0
  9 21  1  0  0  0  0
  9 25  1  0  0  0  0
 10 26  1  0  0  0  0
 10 37  1  0  0  0  0
 11 34  1  0  0  0  0
 11 35  1  0  0  0  0
 11 36  1  0  0  0  0
 12 13  1  0  0  0  0
 12 15  1  0  0  0  0
 12 16  2  0  0  0  0
 13 14  2  0  0  0  0
 14 17  1  0  0  0  0
 15 19  2  0  0  0  0
 16 18  1  0  0  0  0
 18 20  2  0  0  0  0
 18 21  1  0  0  0  0
 19 20  1  0  0  0  0
 22 23  1  0  0  0  0
 23 33  1  1  0  0  0
 24 26  2  0  0  0  0
 24 27  1  0  0  0  0
 24 29  1  0  0  0  0
 25 28  2  0  0  0  0
 25 30  1  0  0  0  0
 26 28  1  0  0  0  0
 27 31  1  0  0  0  0
 27 32  1  0  0  0  0
 29 30  2  0  0  0  0
 31 34  1  0  0  0  0
 32 35  1  0  0  0  0
 37 39  1  0  0  0  0
 38 40  1  0  0  0  0
 38 41  1  0  0  0  0
 38 42  1  0  0  0  0
 39 43  2  0  0  0  0
M  END
> <PUBCHEM_COMPOUND_ID_TYPE>
0

> <PUBCHEM_TOTAL_CHARGE>
0

> <PUBCHEM_SUBSTANCE_ID>
310945297

> <PUBCHEM_SUBSTANCE_VERSION>
1

> <PUBCHEM_EXT_DATASOURCE_NAME>
4488

> <PUBCHEM_EXT_DATASOURCE_REGID>
SCHEMBL16123395

> <PUBCHEM_SUBSTANCE_COMMENT>
InChI=1S/C32H37N5O5S/c1-6-26(38)36-24-16-21(8-9-22(24)19-11-13-37(14-12-19)31(41)42-32(3,4)5)35-29(39)20-7-10-25-23(15-20)27-28(43-25)30(40)34-18(2)17-33-27/h6-10,15-16,18-19,33H,1,11-14,17H2,2-5H3,(H,34,40)(H,35,39)(H,36,38)/t18-/m1/s1
InChIKey=ULDDXPYFPBIABS-GOSISDBHSA-N

> <PUBCHEM_SUBSTANCE_SYNONYM>
SCHEMBL16123395

> <PUBCHEM_XREF_EXT_ID>
SCHEMBL16123395

> <PUBCHEM_EXT_DATASOURCE_URL>
https://www.surechembl.org/

> <PUBCHEM_EXT_SUBSTANCE_URL>
https://www.surechembl.org/chemical/SCHEMBL16123395

> <PUBCHEM_CID_ASSOCIATIONS>
117611356  1

> <PUBCHEM_COORDINATE_TYPE>
1
3

> <PUBCHEM_BONDANNOTATIONS>
23  33  5

$$$$
