310945433
  -OEChem-07211613022D

 23 24  0     0  0  0  0  0  0999 V2000
   -2.0339    1.7316    0.0000 F   0  0  0  0  0  0  0  0  0  0  0  0
   -1.3193    2.1439    0.0000 F   0  0  0  0  0  0  0  0  0  0  0  0
   -0.5909    1.7316    0.0000 F   0  0  0  0  0  0  0  0  0  0  0  0
   -0.6184    0.0962    0.0000 N   0  0  0  0  0  0  0  0  0  0  0  0
   -1.3606   -1.1407    0.0000 N   0  0  0  0  0  0  0  0  0  0  0  0
   -2.7761    0.5085    0.0000 N   0  0  0  0  0  0  0  0  0  0  0  0
   -2.8035   -1.1407    0.0000 N   0  0  0  0  0  0  0  0  0  0  0  0
   -2.7761    0.5085    0.0000 N   0  0  0  0  0  0  0  0  0  0  0  0
    1.5117   -1.1407    0.0000 N   0  0  0  0  0  0  0  0  0  0  0  0
   -2.8035   -1.1407    0.0000 N   0  0  0  0  0  0  0  0  0  0  0  0
    2.8035   -1.4293    0.0000 N   0  0  0  0  0  0  0  0  0  0  0  0
   -2.7761    0.5085    0.0000 N   0  0  0  0  0  0  0  0  0  0  0  0
   -2.8035   -1.1407    0.0000 N   0  0  0  0  0  0  0  0  0  0  0  0
   -1.3468    0.4948    0.0000 C   0  0  0  0  0  0  0  0  0  0  0  0
   -2.0615    0.0962    0.0000 C   0  0  0  0  0  0  0  0  0  0  0  0
   -1.3193    1.3331    0.0000 C   0  0  0  0  0  0  0  0  0  0  0  0
   -2.0752   -0.7284    0.0000 C   0  0  0  0  0  0  0  0  0  0  0  0
   -0.6322   -0.7284    0.0000 C   0  0  0  0  0  0  0  0  0  0  0  0
    0.0962   -1.1544    0.0000 C   0  0  0  0  0  0  0  0  0  0  0  0
    0.8108   -0.7559    0.0000 C   0  0  0  0  0  0  0  0  0  0  0  0
    2.2813   -0.8383    0.0000 C   0  0  0  0  0  0  0  0  0  0  0  0
    1.5942   -1.9652    0.0000 C   0  0  0  0  0  0  0  0  0  0  0  0
    2.4050   -2.1439    0.0000 C   0  0  0  0  0  0  0  0  0  0  0  0
  1 16  1  0  0  0  0
  2 16  1  0  0  0  0
  3 16  1  0  0  0  0
  4 14  2  0  0  0  0
  4 18  1  0  0  0  0
  5 17  1  0  0  0  0
  5 18  2  0  0  0  0
  6  8  2  3  0  0  0
  6 15  1  0  0  0  0
  7 10  2  3  0  0  0
  7 17  1  0  0  0  0
  8 12  1  0  0  0  0
  9 20  1  0  0  0  0
  9 21  1  0  0  0  0
  9 22  1  0  0  0  0
 10 13  1  0  0  0  0
 11 21  2  0  0  0  0
 11 23  1  0  0  0  0
 14 15  1  0  0  0  0
 14 16  1  0  0  0  0
 15 17  2  0  0  0  0
 18 19  1  0  0  0  0
 19 20  1  0  0  0  0
 22 23  2  0  0  0  0
M  END
> <PUBCHEM_COMPOUND_ID_TYPE>
0

> <PUBCHEM_TOTAL_CHARGE>
0

> <PUBCHEM_SUBSTANCE_ID>
310945433

> <PUBCHEM_SUBSTANCE_VERSION>
1

> <PUBCHEM_EXT_DATASOURCE_NAME>
4488

> <PUBCHEM_EXT_DATASOURCE_REGID>
SCHEMBL16123531

> <PUBCHEM_SUBSTANCE_COMMENT>
InChI=1S/C10H11F3N10/c11-10(12,13)8-7(19-21-14)9(20-22-15)18-6(17-8)1-3-23-4-2-16-5-23/h2,4-5H,1,3H2,(H2,14,19)(H2,15,17,18,20)
InChIKey=MWDDRJIDVIWFOJ-UHFFFAOYSA-N

> <PUBCHEM_SUBSTANCE_SYNONYM>
SCHEMBL16123531

> <PUBCHEM_XREF_EXT_ID>
SCHEMBL16123531

> <PUBCHEM_EXT_DATASOURCE_URL>
https://www.surechembl.org/

> <PUBCHEM_EXT_SUBSTANCE_URL>
https://www.surechembl.org/chemical/SCHEMBL16123531

> <PUBCHEM_CID_ASSOCIATIONS>
117611478  1

> <PUBCHEM_COORDINATE_TYPE>
1
3

$$$$
