310948309
  -OEChem-07211613022D

 45 49  0     0  0  0  0  0  0999 V2000
    2.9415   -1.9696    0.0000 S   0  0  0  0  0  0  0  0  0  0  0  0
   -4.4263   -0.2907    0.0000 F   0  0  0  0  0  0  0  0  0  0  0  0
   -4.6382    0.7851    0.0000 F   0  0  0  0  0  0  0  0  0  0  0  0
   -3.5461    0.9971    0.0000 F   0  0  0  0  0  0  0  0  0  0  0  0
    3.1860    3.7193    0.0000 F   0  0  0  0  0  0  0  0  0  0  0  0
    2.0776    3.3933    0.0000 F   0  0  0  0  0  0  0  0  0  0  0  0
    3.4469    2.6109    0.0000 F   0  0  0  0  0  0  0  0  0  0  0  0
   -1.4922    2.2033    0.0000 O   0  0  0  0  0  0  0  0  0  0  0  0
    2.3710    2.3337    0.0000 O   0  0  0  0  0  0  0  0  0  0  0  0
    2.9415   -1.9696    0.0000 O   0  0  0  0  0  0  0  0  0  0  0  0
    2.9415   -1.9696    0.0000 O   0  0  0  0  0  0  0  0  0  0  0  0
   -2.0301   -0.5351    0.0000 N   0  0  0  0  0  0  0  0  0  0  0  0
   -2.5191    0.1332    0.0000 N   0  0  0  0  0  0  0  0  0  0  0  0
   -2.0301    0.9808    0.0000 N   0  0  0  0  0  0  0  0  0  0  0  0
   -0.7912    0.1984    0.0000 C   0  0  0  0  0  0  0  0  0  0  0  0
   -1.1988   -0.5025    0.0000 C   0  0  0  0  0  0  0  0  0  0  0  0
   -1.2151    0.9156    0.0000 C   0  0  0  0  0  0  0  0  0  0  0  0
   -2.5191   -1.1872    0.0000 C   0  0  0  0  0  0  0  0  0  0  0  0
   -0.8564    1.6818    0.0000 C   0  0  0  0  0  0  0  0  0  0  0  0
   -3.3016   -0.1113    0.0000 C   0  0  0  0  0  0  0  0  0  0  0  0
    0.0563    0.1821    0.0000 C   0  0  0  0  0  0  0  0  0  0  0  0
    0.4639   -0.5025    0.0000 C   0  0  0  0  0  0  0  0  0  0  0  0
   -0.7750   -1.2198    0.0000 C   0  0  0  0  0  0  0  0  0  0  0  0
   -3.3016   -0.9263    0.0000 C   0  0  0  0  0  0  0  0  0  0  0  0
   -0.0578    1.8448    0.0000 C   0  0  0  0  0  0  0  0  0  0  0  0
   -3.9862    0.3614    0.0000 C   0  0  0  0  0  0  0  0  0  0  0  0
   -2.1931    1.7958    0.0000 C   0  0  0  0  0  0  0  0  0  0  0  0
    0.0563   -1.2198    0.0000 C   0  0  0  0  0  0  0  0  0  0  0  0
    1.2952   -0.5025    0.0000 C   0  0  0  0  0  0  0  0  0  0  0  0
   -2.2583   -1.9859    0.0000 C   0  0  0  0  0  0  0  0  0  0  0  0
    0.4965    1.2416    0.0000 C   0  0  0  0  0  0  0  0  0  0  0  0
    0.2194    2.6271    0.0000 C   0  0  0  0  0  0  0  0  0  0  0  0
    1.7027   -1.2198    0.0000 C   0  0  0  0  0  0  0  0  0  0  0  0
    2.5340   -1.2360    0.0000 C   0  0  0  0  0  0  0  0  0  0  0  0
    1.7027    0.1658    0.0000 C   0  0  0  0  0  0  0  0  0  0  0  0
    1.5723    2.1870    0.0000 C   0  0  0  0  0  0  0  0  0  0  0  0
   -2.9593    2.1219    0.0000 C   0  0  0  0  0  0  0  0  0  0  0  0
    1.3114    1.4047    0.0000 C   0  0  0  0  0  0  0  0  0  0  0  0
    1.0180    2.7902    0.0000 C   0  0  0  0  0  0  0  0  0  0  0  0
   -2.3561   -2.5237    0.0000 C   0  0  0  0  0  0  0  0  0  0  0  0
   -1.6226   -2.5237    0.0000 C   0  0  0  0  0  0  0  0  0  0  0  0
    2.9415   -0.5351    0.0000 C   0  0  0  0  0  0  0  0  0  0  0  0
    2.5502    0.1821    0.0000 C   0  0  0  0  0  0  0  0  0  0  0  0
    2.7785    3.0020    0.0000 C   0  0  0  0  0  0  0  0  0  0  0  0
    4.6382   -3.7193    0.0000 C   0  0  0  0  0  0  0  0  0  0  0  0
  1 10  2  0  0  0  0
  1 11  2  0  0  0  0
  1 34  1  0  0  0  0
  1 45  1  0  0  0  0
  2 26  1  0  0  0  0
  3 26  1  0  0  0  0
  4 26  1  0  0  0  0
  5 44  1  0  0  0  0
  6 44  1  0  0  0  0
  7 44  1  0  0  0  0
  8 19  1  0  0  0  0
  8 27  1  0  0  0  0
  9 36  1  0  0  0  0
  9 44  1  0  0  0  0
 12 13  1  0  0  0  0
 12 16  1  0  0  0  0
 12 18  1  0  0  0  0
 13 20  2  0  0  0  0
 14 17  1  0  0  0  0
 14 27  2  0  0  0  0
 15 16  1  0  0  0  0
 15 17  1  0  0  0  0
 15 21  2  0  0  0  0
 16 23  2  0  0  0  0
 17 19  2  0  0  0  0
 18 24  2  0  0  0  0
 18 30  1  0  0  0  0
 19 25  1  0  0  0  0
 20 24  1  0  0  0  0
 20 26  1  0  0  0  0
 21 22  1  0  0  0  0
 22 28  2  0  0  0  0
 22 29  1  0  0  0  0
 23 28  1  0  0  0  0
 25 31  2  0  0  0  0
 25 32  1  0  0  0  0
 27 37  1  0  0  0  0
 29 33  2  0  0  0  0
 29 35  1  0  0  0  0
 30 40  1  0  0  0  0
 30 41  1  0  0  0  0
 31 38  1  0  0  0  0
 32 39  2  0  0  0  0
 33 34  1  0  0  0  0
 34 42  2  0  0  0  0
 35 43  2  0  0  0  0
 36 38  2  0  0  0  0
 36 39  1  0  0  0  0
 42 43  1  0  0  0  0
M  END
> <PUBCHEM_COMPOUND_ID_TYPE>
0

> <PUBCHEM_TOTAL_CHARGE>
0

> <PUBCHEM_SUBSTANCE_ID>
310948309

> <PUBCHEM_SUBSTANCE_VERSION>
1

> <PUBCHEM_EXT_DATASOURCE_NAME>
4488

> <PUBCHEM_EXT_DATASOURCE_REGID>
SCHEMBL16126487

> <PUBCHEM_SUBSTANCE_COMMENT>
InChI=1S/C31H25F6N3O4S/c1-17(2)26-16-27(30(32,33)34)39-40(26)25-13-10-21(20-6-5-7-23(14-20)45(4,41)42)15-24(25)28-29(43-18(3)38-28)19-8-11-22(12-9-19)44-31(35,36)37/h5-17H,1-4H3
InChIKey=PBERPJJSDBWSRU-UHFFFAOYSA-N

> <PUBCHEM_SUBSTANCE_SYNONYM>
SCHEMBL16126487

> <PUBCHEM_XREF_EXT_ID>
SCHEMBL16126487

> <PUBCHEM_EXT_DATASOURCE_URL>
https://www.surechembl.org/

> <PUBCHEM_EXT_SUBSTANCE_URL>
https://www.surechembl.org/chemical/SCHEMBL16126487

> <PUBCHEM_CID_ASSOCIATIONS>
117613874  1

> <PUBCHEM_COORDINATE_TYPE>
1
3

$$$$
