310948560
  -OEChem-07211613022D

 45 49  0     0  0  0  0  0  0999 V2000
    2.9715   -1.9715    0.0000 S   0  0  0  0  0  0  0  0  0  0  0  0
   -4.4681   -0.3054    0.0000 F   0  0  0  0  0  0  0  0  0  0  0  0
   -4.6825    0.7833    0.0000 F   0  0  0  0  0  0  0  0  0  0  0  0
   -3.5773    0.9977    0.0000 F   0  0  0  0  0  0  0  0  0  0  0  0
    3.2189    3.7360    0.0000 F   0  0  0  0  0  0  0  0  0  0  0  0
    2.0972    3.4061    0.0000 F   0  0  0  0  0  0  0  0  0  0  0  0
    3.4828    2.6143    0.0000 F   0  0  0  0  0  0  0  0  0  0  0  0
   -1.4823    2.1854    0.0000 O   0  0  0  0  0  0  0  0  0  0  0  0
   -2.2906   -1.9880    0.0000 O   0  0  0  0  0  0  0  0  0  0  0  0
    2.3942    2.3338    0.0000 O   0  0  0  0  0  0  0  0  0  0  0  0
    2.9715   -1.9715    0.0000 O   0  0  0  0  0  0  0  0  0  0  0  0
    2.9715   -1.9715    0.0000 O   0  0  0  0  0  0  0  0  0  0  0  0
   -2.0597   -0.5364    0.0000 N   0  0  0  0  0  0  0  0  0  0  0  0
   -2.5381    0.1234    0.0000 N   0  0  0  0  0  0  0  0  0  0  0  0
   -2.0432    0.9813    0.0000 N   0  0  0  0  0  0  0  0  0  0  0  0
   -0.7895    0.1894    0.0000 C   0  0  0  0  0  0  0  0  0  0  0  0
   -1.2020   -0.5199    0.0000 C   0  0  0  0  0  0  0  0  0  0  0  0
   -1.2184    0.8987    0.0000 C   0  0  0  0  0  0  0  0  0  0  0  0
   -0.8555    1.6576    0.0000 C   0  0  0  0  0  0  0  0  0  0  0  0
   -2.5545   -1.1962    0.0000 C   0  0  0  0  0  0  0  0  0  0  0  0
   -3.3298   -0.1240    0.0000 C   0  0  0  0  0  0  0  0  0  0  0  0
    0.0683    0.1730    0.0000 C   0  0  0  0  0  0  0  0  0  0  0  0
    0.4642   -0.5199    0.0000 C   0  0  0  0  0  0  0  0  0  0  0  0
   -0.7730   -1.2292    0.0000 C   0  0  0  0  0  0  0  0  0  0  0  0
   -3.3464   -0.9323    0.0000 C   0  0  0  0  0  0  0  0  0  0  0  0
   -0.0307    1.8225    0.0000 C   0  0  0  0  0  0  0  0  0  0  0  0
   -2.2082    1.7895    0.0000 C   0  0  0  0  0  0  0  0  0  0  0  0
   -4.0227    0.3544    0.0000 C   0  0  0  0  0  0  0  0  0  0  0  0
    0.0517   -1.2292    0.0000 C   0  0  0  0  0  0  0  0  0  0  0  0
    1.3219   -0.5199    0.0000 C   0  0  0  0  0  0  0  0  0  0  0  0
    0.5466    1.2286    0.0000 C   0  0  0  0  0  0  0  0  0  0  0  0
    0.2332    2.5648    0.0000 C   0  0  0  0  0  0  0  0  0  0  0  0
    1.7508   -1.2457    0.0000 C   0  0  0  0  0  0  0  0  0  0  0  0
    2.5756   -1.2622    0.0000 C   0  0  0  0  0  0  0  0  0  0  0  0
    1.7508    0.1400    0.0000 C   0  0  0  0  0  0  0  0  0  0  0  0
    1.5693    2.1854    0.0000 C   0  0  0  0  0  0  0  0  0  0  0  0
   -2.9835    2.1194    0.0000 C   0  0  0  0  0  0  0  0  0  0  0  0
    1.3219    1.3936    0.0000 C   0  0  0  0  0  0  0  0  0  0  0  0
    1.0250    2.7298    0.0000 C   0  0  0  0  0  0  0  0  0  0  0  0
    2.9715   -0.5693    0.0000 C   0  0  0  0  0  0  0  0  0  0  0  0
    2.5756    0.1564    0.0000 C   0  0  0  0  0  0  0  0  0  0  0  0
   -2.8185   -2.5819    0.0000 C   0  0  0  0  0  0  0  0  0  0  0  0
    2.8065    3.0102    0.0000 C   0  0  0  0  0  0  0  0  0  0  0  0
    4.6825   -3.7360    0.0000 C   0  0  0  0  0  0  0  0  0  0  0  0
   -3.6103   -2.3839    0.0000 C   0  0  0  0  0  0  0  0  0  0  0  0
  1 11  2  0  0  0  0
  1 12  2  0  0  0  0
  1 34  1  0  0  0  0
  1 44  1  0  0  0  0
  2 28  1  0  0  0  0
  3 28  1  0  0  0  0
  4 28  1  0  0  0  0
  5 43  1  0  0  0  0
  6 43  1  0  0  0  0
  7 43  1  0  0  0  0
  8 19  1  0  0  0  0
  8 27  1  0  0  0  0
  9 20  1  0  0  0  0
  9 42  1  0  0  0  0
 10 36  1  0  0  0  0
 10 43  1  0  0  0  0
 13 14  1  0  0  0  0
 13 17  1  0  0  0  0
 13 20  1  0  0  0  0
 14 21  2  0  0  0  0
 15 18  1  0  0  0  0
 15 27  2  0  0  0  0
 16 17  1  0  0  0  0
 16 18  1  0  0  0  0
 16 22  2  0  0  0  0
 17 24  2  0  0  0  0
 18 19  2  0  0  0  0
 19 26  1  0  0  0  0
 20 25  2  0  0  0  0
 21 25  1  0  0  0  0
 21 28  1  0  0  0  0
 22 23  1  0  0  0  0
 23 29  2  0  0  0  0
 23 30  1  0  0  0  0
 24 29  1  0  0  0  0
 26 31  2  0  0  0  0
 26 32  1  0  0  0  0
 27 37  1  0  0  0  0
 30 33  2  0  0  0  0
 30 35  1  0  0  0  0
 31 38  1  0  0  0  0
 32 39  2  0  0  0  0
 33 34  1  0  0  0  0
 34 40  2  0  0  0  0
 35 41  2  0  0  0  0
 36 38  2  0  0  0  0
 36 39  1  0  0  0  0
 40 41  1  0  0  0  0
 42 45  1  0  0  0  0
M  END
> <PUBCHEM_COMPOUND_ID_TYPE>
0

> <PUBCHEM_TOTAL_CHARGE>
0

> <PUBCHEM_SUBSTANCE_ID>
310948560

> <PUBCHEM_SUBSTANCE_VERSION>
1

> <PUBCHEM_EXT_DATASOURCE_NAME>
4488

> <PUBCHEM_EXT_DATASOURCE_REGID>
SCHEMBL16126742

> <PUBCHEM_SUBSTANCE_COMMENT>
InChI=1S/C30H23F6N3O5S/c1-4-42-26-16-25(29(31,32)33)38-39(26)24-13-10-20(19-6-5-7-22(14-19)45(3,40)41)15-23(24)27-28(43-17(2)37-27)18-8-11-21(12-9-18)44-30(34,35)36/h5-16H,4H2,1-3H3
InChIKey=IGMGFBKDBVVYIZ-UHFFFAOYSA-N

> <PUBCHEM_SUBSTANCE_SYNONYM>
SCHEMBL16126742

> <PUBCHEM_XREF_EXT_ID>
SCHEMBL16126742

> <PUBCHEM_EXT_DATASOURCE_URL>
https://www.surechembl.org/

> <PUBCHEM_EXT_SUBSTANCE_URL>
https://www.surechembl.org/chemical/SCHEMBL16126742

> <PUBCHEM_CID_ASSOCIATIONS>
117614110  1

> <PUBCHEM_COORDINATE_TYPE>
1
3

$$$$
