310948480
  -OEChem-07211613022D

 40 45  0     0  0  0  0  0  0999 V2000
   -0.2944   -2.8931    0.0000 S   0  0  0  0  0  0  0  0  0  0  0  0
    2.2628   -3.1286    0.0000 F   0  0  0  0  0  0  0  0  0  0  0  0
    2.8853   -2.6070    0.0000 F   0  0  0  0  0  0  0  0  0  0  0  0
   -0.0926    2.0028    0.0000 O   0  0  0  0  0  0  0  0  0  0  0  0
    2.3133   -1.5302    0.0000 O   0  0  0  0  0  0  0  0  0  0  0  0
    1.2870   -2.3715    0.0000 O   0  0  0  0  0  0  0  0  0  0  0  0
   -0.2944   -2.8931    0.0000 O   0  0  0  0  0  0  0  0  0  0  0  0
   -0.2944   -2.8931    0.0000 O   0  0  0  0  0  0  0  0  0  0  0  0
    1.1188    1.4139    0.0000 N   0  0  0  0  0  0  0  0  0  0  0  0
   -1.5899    2.0532    0.0000 N   0  0  0  0  0  0  0  0  0  0  0  0
   -2.2460    2.5579    0.0000 N   0  0  0  0  0  0  0  0  0  0  0  0
   -2.8853    4.6610    0.0000 N   0  0  0  0  0  0  0  0  0  0  0  0
   -0.1935    1.1952    0.0000 C   0  0  0  0  0  0  0  0  0  0  0  0
    0.5468    0.8251    0.0000 C   0  0  0  0  0  0  0  0  0  0  0  0
   -0.9169    0.7915    0.0000 C   0  0  0  0  0  0  0  0  0  0  0  0
    0.6814    0.0007    0.0000 C   0  0  0  0  0  0  0  0  0  0  0  0
   -1.6403    1.2289    0.0000 C   0  0  0  0  0  0  0  0  0  0  0  0
    1.6067   -1.0760    0.0000 C   0  0  0  0  0  0  0  0  0  0  0  0
    0.9842   -1.6143    0.0000 C   0  0  0  0  0  0  0  0  0  0  0  0
    1.4552   -0.2853    0.0000 C   0  0  0  0  0  0  0  0  0  0  0  0
   -0.9674   -0.0329    0.0000 C   0  0  0  0  0  0  0  0  0  0  0  0
    2.1114   -2.3210    0.0000 C   0  0  0  0  0  0  0  0  0  0  0  0
   -1.6739   -0.4199    0.0000 C   0  0  0  0  0  0  0  0  0  0  0  0
    0.7319    2.1205    0.0000 C   0  0  0  0  0  0  0  0  0  0  0  0
    0.0757   -0.5208    0.0000 C   0  0  0  0  0  0  0  0  0  0  0  0
   -2.3301    0.8420    0.0000 C   0  0  0  0  0  0  0  0  0  0  0  0
    0.2103   -1.3284    0.0000 C   0  0  0  0  0  0  0  0  0  0  0  0
   -1.7245   -1.2443    0.0000 C   0  0  0  0  0  0  0  0  0  0  0  0
   -2.3805    0.0175    0.0000 C   0  0  0  0  0  0  0  0  0  0  0  0
   -0.9169    2.5243    0.0000 C   0  0  0  0  0  0  0  0  0  0  0  0
   -1.0011   -1.6648    0.0000 C   0  0  0  0  0  0  0  0  0  0  0  0
   -1.9600    3.3487    0.0000 C   0  0  0  0  0  0  0  0  0  0  0  0
   -1.0011   -2.4724    0.0000 C   0  0  0  0  0  0  0  0  0  0  0  0
   -2.4142   -1.6648    0.0000 C   0  0  0  0  0  0  0  0  0  0  0  0
   -1.1356    3.2982    0.0000 C   0  0  0  0  0  0  0  0  0  0  0  0
    1.0852    2.8777    0.0000 C   0  0  0  0  0  0  0  0  0  0  0  0
   -1.6908   -2.8931    0.0000 C   0  0  0  0  0  0  0  0  0  0  0  0
   -2.4142   -2.4892    0.0000 C   0  0  0  0  0  0  0  0  0  0  0  0
   -2.4310    4.0217    0.0000 C   0  0  0  0  0  0  0  0  0  0  0  0
    1.4199   -4.6610    0.0000 C   0  0  0  0  0  0  0  0  0  0  0  0
  1  7  2  0  0  0  0
  1  8  2  0  0  0  0
  1 33  1  0  0  0  0
  1 40  1  0  0  0  0
  2 22  1  0  0  0  0
  3 22  1  0  0  0  0
  4 13  1  0  0  0  0
  4 24  1  0  0  0  0
  5 18  1  0  0  0  0
  5 22  1  0  0  0  0
  6 19  1  0  0  0  0
  6 22  1  0  0  0  0
  9 14  1  0  0  0  0
  9 24  2  0  0  0  0
 10 11  1  0  0  0  0
 10 17  1  0  0  0  0
 10 30  1  0  0  0  0
 11 32  2  0  0  0  0
 12 39  3  0  0  0  0
 13 14  2  0  0  0  0
 13 15  1  0  0  0  0
 14 16  1  0  0  0  0
 15 17  1  0  0  0  0
 15 21  2  0  0  0  0
 16 20  2  0  0  0  0
 16 25  1  0  0  0  0
 17 26  2  0  0  0  0
 18 19  2  0  0  0  0
 18 20  1  0  0  0  0
 19 27  1  0  0  0  0
 21 23  1  0  0  0  0
 23 28  1  0  0  0  0
 23 29  2  0  0  0  0
 24 36  1  0  0  0  0
 25 27  2  0  0  0  0
 26 29  1  0  0  0  0
 28 31  2  0  0  0  0
 28 34  1  0  0  0  0
 30 35  2  0  0  0  0
 31 33  1  0  0  0  0
 32 35  1  0  0  0  0
 32 39  1  0  0  0  0
 33 37  2  0  0  0  0
 34 38  2  0  0  0  0
 37 38  1  0  0  0  0
M  END
> <PUBCHEM_COMPOUND_ID_TYPE>
0

> <PUBCHEM_TOTAL_CHARGE>
0

> <PUBCHEM_SUBSTANCE_ID>
310948480

> <PUBCHEM_SUBSTANCE_VERSION>
1

> <PUBCHEM_EXT_DATASOURCE_NAME>
4488

> <PUBCHEM_EXT_DATASOURCE_REGID>
SCHEMBL16126662

> <PUBCHEM_SUBSTANCE_COMMENT>
InChI=1S/C28H18F2N4O5S/c1-16-32-26(19-7-9-24-25(14-19)39-28(29,30)38-24)27(37-16)22-13-18(17-4-3-5-21(12-17)40(2,35)36)6-8-23(22)34-11-10-20(15-31)33-34/h3-14H,1-2H3
InChIKey=NHAKKWVGZJTDLQ-UHFFFAOYSA-N

> <PUBCHEM_SUBSTANCE_SYNONYM>
SCHEMBL16126662

> <PUBCHEM_XREF_EXT_ID>
SCHEMBL16126662

> <PUBCHEM_EXT_DATASOURCE_URL>
https://www.surechembl.org/

> <PUBCHEM_EXT_SUBSTANCE_URL>
https://www.surechembl.org/chemical/SCHEMBL16126662

> <PUBCHEM_CID_ASSOCIATIONS>
117614038  1

> <PUBCHEM_COORDINATE_TYPE>
1
3

$$$$
