310948122
  -OEChem-07211613022D

 46 50  0     0  0  0  0  0  0999 V2000
   -4.1241   -1.1598    0.0000 Cl  0  0  0  0  0  0  0  0  0  0  0  0
    2.9249   -1.6015    0.0000 S   0  0  0  0  0  0  0  0  0  0  0  0
    3.0977    1.1259    0.0000 F   0  0  0  0  0  0  0  0  0  0  0  0
    3.3474    3.3731    0.0000 F   0  0  0  0  0  0  0  0  0  0  0  0
    2.2334    3.0657    0.0000 F   0  0  0  0  0  0  0  0  0  0  0  0
    3.6163    2.2590    0.0000 F   0  0  0  0  0  0  0  0  0  0  0  0
   -1.9921    1.4331    0.0000 O   0  0  0  0  0  0  0  0  0  0  0  0
   -4.5082    1.3179    0.0000 O   0  0  0  0  0  0  0  0  0  0  0  0
    2.9249   -1.6015    0.0000 O   0  0  0  0  0  0  0  0  0  0  0  0
    2.9249   -1.6015    0.0000 O   0  0  0  0  0  0  0  0  0  0  0  0
    2.5215    1.9709    0.0000 O   0  0  0  0  0  0  0  0  0  0  0  0
    4.1541    0.5496    0.0000 O   0  0  0  0  0  0  0  0  0  0  0  0
   -2.0113   -0.1610    0.0000 N   0  0  0  0  0  0  0  0  0  0  0  0
   -2.4915    0.5112    0.0000 N   0  0  0  0  0  0  0  0  0  0  0  0
   -1.3199    2.5856    0.0000 N   0  0  0  0  0  0  0  0  0  0  0  0
   -0.7821    0.5496    0.0000 C   0  0  0  0  0  0  0  0  0  0  0  0
   -1.1854   -0.1610    0.0000 C   0  0  0  0  0  0  0  0  0  0  0  0
   -1.1854    1.2603    0.0000 C   0  0  0  0  0  0  0  0  0  0  0  0
   -0.7821    1.9901    0.0000 C   0  0  0  0  0  0  0  0  0  0  0  0
    0.4664   -0.1418    0.0000 C   0  0  0  0  0  0  0  0  0  0  0  0
    0.0438    0.5304    0.0000 C   0  0  0  0  0  0  0  0  0  0  0  0
    1.2922   -0.1610    0.0000 C   0  0  0  0  0  0  0  0  0  0  0  0
   -3.2598    0.2615    0.0000 C   0  0  0  0  0  0  0  0  0  0  0  0
   -0.7436   -0.8717    0.0000 C   0  0  0  0  0  0  0  0  0  0  0  0
   -3.2790   -0.5643    0.0000 C   0  0  0  0  0  0  0  0  0  0  0  0
    0.0631    1.9709    0.0000 C   0  0  0  0  0  0  0  0  0  0  0  0
   -2.4723   -0.8332    0.0000 C   0  0  0  0  0  0  0  0  0  0  0  0
    2.5215   -0.8909    0.0000 C   0  0  0  0  0  0  0  0  0  0  0  0
    0.0438   -0.8717    0.0000 C   0  0  0  0  0  0  0  0  0  0  0  0
   -2.0497    2.2590    0.0000 C   0  0  0  0  0  0  0  0  0  0  0  0
    2.9056   -0.1610    0.0000 C   0  0  0  0  0  0  0  0  0  0  0  0
    1.7148   -0.8717    0.0000 C   0  0  0  0  0  0  0  0  0  0  0  0
   -3.9512    0.7417    0.0000 C   0  0  0  0  0  0  0  0  0  0  0  0
    1.6956    0.5304    0.0000 C   0  0  0  0  0  0  0  0  0  0  0  0
    2.5215    0.5496    0.0000 C   0  0  0  0  0  0  0  0  0  0  0  0
    0.4664    1.2795    0.0000 C   0  0  0  0  0  0  0  0  0  0  0  0
    0.4664    2.6624    0.0000 C   0  0  0  0  0  0  0  0  0  0  0  0
    3.7507   -0.1610    0.0000 C   0  0  0  0  0  0  0  0  0  0  0  0
    1.6956    1.9709    0.0000 C   0  0  0  0  0  0  0  0  0  0  0  0
   -2.7604    2.6816    0.0000 C   0  0  0  0  0  0  0  0  0  0  0  0
    1.2922    1.2795    0.0000 C   0  0  0  0  0  0  0  0  0  0  0  0
    1.2922    2.6624    0.0000 C   0  0  0  0  0  0  0  0  0  0  0  0
   -4.6427    0.3384    0.0000 C   0  0  0  0  0  0  0  0  0  0  0  0
   -3.7207    1.5292    0.0000 C   0  0  0  0  0  0  0  0  0  0  0  0
    4.6427   -3.3731    0.0000 C   0  0  0  0  0  0  0  0  0  0  0  0
    2.9249    2.6432    0.0000 C   0  0  0  0  0  0  0  0  0  0  0  0
  1 25  1  0  0  0  0
  2  9  2  0  0  0  0
  2 10  2  0  0  0  0
  2 28  1  0  0  0  0
  2 45  1  0  0  0  0
  3 35  1  0  0  0  0
  4 46  1  0  0  0  0
  5 46  1  0  0  0  0
  6 46  1  0  0  0  0
  7 18  1  0  0  0  0
  7 30  1  0  0  0  0
  8 33  1  0  0  0  0
 11 39  1  0  0  0  0
 11 46  1  0  0  0  0
 12 38  1  0  0  0  0
 13 14  1  0  0  0  0
 13 17  1  0  0  0  0
 13 27  1  0  0  0  0
 14 23  2  0  0  0  0
 15 19  1  0  0  0  0
 15 30  2  0  0  0  0
 16 17  1  0  0  0  0
 16 18  1  0  0  0  0
 16 21  2  0  0  0  0
 17 24  2  0  0  0  0
 18 19  2  0  0  0  0
 19 26  1  0  0  0  0
 20 21  1  0  0  0  0
 20 22  1  0  0  0  0
 20 29  2  0  0  0  0
 22 32  2  0  0  0  0
 22 34  1  0  0  0  0
 23 25  1  0  0  0  0
 23 33  1  0  0  0  0
 24 29  1  0  0  0  0
 25 27  2  0  0  0  0
 26 36  2  0  0  0  0
 26 37  1  0  0  0  0
 28 31  2  0  0  0  0
 28 32  1  0  0  0  0
 30 40  1  0  0  0  0
 31 35  1  0  0  0  0
 31 38  1  0  0  0  0
 33 43  1  0  0  0  0
 33 44  1  0  0  0  0
 34 35  2  0  0  0  0
 36 41  1  0  0  0  0
 37 42  2  0  0  0  0
 39 41  2  0  0  0  0
 39 42  1  0  0  0  0
M  END
> <PUBCHEM_COMPOUND_ID_TYPE>
0

> <PUBCHEM_TOTAL_CHARGE>
0

> <PUBCHEM_SUBSTANCE_ID>
310948122

> <PUBCHEM_SUBSTANCE_VERSION>
1

> <PUBCHEM_EXT_DATASOURCE_NAME>
4488

> <PUBCHEM_EXT_DATASOURCE_REGID>
SCHEMBL16126298

> <PUBCHEM_SUBSTANCE_COMMENT>
InChI=1S/C31H26ClF4N3O6S/c1-16-37-27(17-5-8-20(9-6-17)45-31(34,35)36)28(44-16)21-11-18(19-12-24(33)22(15-40)26(13-19)46(4,42)43)7-10-25(21)39-14-23(32)29(38-39)30(2,3)41/h5-14,40-41H,15H2,1-4H3
InChIKey=PWVYVNSSJXJWEF-UHFFFAOYSA-N

> <PUBCHEM_SUBSTANCE_SYNONYM>
SCHEMBL16126298

> <PUBCHEM_XREF_EXT_ID>
SCHEMBL16126298

> <PUBCHEM_EXT_DATASOURCE_URL>
https://www.surechembl.org/

> <PUBCHEM_EXT_SUBSTANCE_URL>
https://www.surechembl.org/chemical/SCHEMBL16126298

> <PUBCHEM_CID_ASSOCIATIONS>
117613739  1

> <PUBCHEM_COORDINATE_TYPE>
1
3

$$$$
