310944031
  -OEChem-07211613022D

 17 18  0     0  0  0  0  0  0999 V2000
    2.4402   -0.4193    0.0000 O   0  0  0  0  0  0  0  0  0  0  0  0
    0.9829    0.4193    0.0000 N   0  0  0  0  0  0  0  0  0  0  0  0
    2.4402   -0.4193    0.0000 N   0  0  0  0  0  0  0  0  0  0  0  0
   -0.4468    0.4193    0.0000 C   0  0  0  0  0  0  0  0  0  0  0  0
    0.2543    0.8317    0.0000 C   0  0  0  0  0  0  0  0  0  0  0  0
    0.9967   -0.4193    0.0000 C   0  0  0  0  0  0  0  0  0  0  0  0
    1.6978    0.8317    0.0000 C   0  0  0  0  0  0  0  0  0  0  0  0
    1.7115   -0.8179    0.0000 C   0  0  0  0  0  0  0  0  0  0  0  0
    2.4127    0.4331    0.0000 C   0  0  0  0  0  0  0  0  0  0  0  0
   -1.1754    0.8179    0.0000 C   0  0  0  0  0  0  0  0  0  0  0  0
   -0.4468   -0.4193    0.0000 C   0  0  0  0  0  0  0  0  0  0  0  0
    2.4402   -0.4193    0.0000 C   0  0  0  0  0  0  0  0  0  0  0  0
   -1.9040   -0.4193    0.0000 C   0  0  0  0  0  0  0  0  0  0  0  0
   -1.8902    0.4056    0.0000 C   0  0  0  0  0  0  0  0  0  0  0  0
   -1.1479   -0.8317    0.0000 C   0  0  0  0  0  0  0  0  0  0  0  0
    2.4402   -0.4193    0.0000 C   0  0  0  0  0  0  0  0  0  0  0  0
   -2.4402   -0.7492    0.0000 C   0  0  0  0  0  0  0  0  0  0  0  0
  1 16  1  0  0  0  0
  2  5  1  0  0  0  0
  2  6  1  0  0  0  0
  2  7  1  0  0  0  0
  3  8  1  0  0  0  0
  3  9  1  0  0  0  0
  3 12  1  0  0  0  0
  4  5  1  0  0  0  0
  4 10  2  0  0  0  0
  4 11  1  0  0  0  0
  6  8  1  0  0  0  0
  7  9  1  0  0  0  0
 10 14  1  0  0  0  0
 11 15  2  0  0  0  0
 12 16  1  0  0  0  0
 13 14  2  0  0  0  0
 13 15  1  0  0  0  0
 13 17  1  0  0  0  0
M  END
> <PUBCHEM_COMPOUND_ID_TYPE>
0

> <PUBCHEM_TOTAL_CHARGE>
0

> <PUBCHEM_SUBSTANCE_ID>
310944031

> <PUBCHEM_SUBSTANCE_VERSION>
1

> <PUBCHEM_EXT_DATASOURCE_NAME>
4488

> <PUBCHEM_EXT_DATASOURCE_REGID>
SCHEMBL16122104

> <PUBCHEM_SUBSTANCE_COMMENT>
InChI=1S/C14H22N2O/c1-13-2-4-14(5-3-13)12-16-8-6-15(7-9-16)10-11-17/h2-5,17H,6-12H2,1H3
InChIKey=NXGZYSZEGJCWMX-UHFFFAOYSA-N

> <PUBCHEM_SUBSTANCE_SYNONYM>
SCHEMBL16122104

> <PUBCHEM_XREF_EXT_ID>
SCHEMBL16122104

> <PUBCHEM_EXT_DATASOURCE_URL>
https://www.surechembl.org/

> <PUBCHEM_EXT_SUBSTANCE_URL>
https://www.surechembl.org/chemical/SCHEMBL16122104

> <PUBCHEM_CID_ASSOCIATIONS>
780027  1

> <PUBCHEM_COORDINATE_TYPE>
1
3

$$$$
