310948496
  -OEChem-07211613022D

 45 49  0     0  0  0  0  0  0999 V2000
    0.4692   -2.9553    0.0000 S   0  0  0  0  0  0  0  0  0  0  0  0
    3.4943   -2.8906    0.0000 F   0  0  0  0  0  0  0  0  0  0  0  0
    2.9443   -1.8714    0.0000 F   0  0  0  0  0  0  0  0  0  0  0  0
    2.4590   -3.3921    0.0000 F   0  0  0  0  0  0  0  0  0  0  0  0
    0.5662    2.0112    0.0000 O   0  0  0  0  0  0  0  0  0  0  0  0
    0.4692   -2.9553    0.0000 O   0  0  0  0  0  0  0  0  0  0  0  0
    0.4692   -2.9553    0.0000 O   0  0  0  0  0  0  0  0  0  0  0  0
    1.9251   -2.3891    0.0000 O   0  0  0  0  0  0  0  0  0  0  0  0
   -0.2427   -4.1848    0.0000 O   0  0  0  0  0  0  0  0  0  0  0  0
   -0.9707    2.0273    0.0000 N   0  0  0  0  0  0  0  0  0  0  0  0
    1.7957    1.4773    0.0000 N   0  0  0  0  0  0  0  0  0  0  0  0
   -1.6339    2.5127    0.0000 N   0  0  0  0  0  0  0  0  0  0  0  0
   -3.4943    3.7907    0.0000 N   0  0  0  0  0  0  0  0  0  0  0  0
   -0.2265    0.7978    0.0000 C   0  0  0  0  0  0  0  0  0  0  0  0
    0.4692    1.2023    0.0000 C   0  0  0  0  0  0  0  0  0  0  0  0
   -0.9707    1.2023    0.0000 C   0  0  0  0  0  0  0  0  0  0  0  0
    1.2295    0.8626    0.0000 C   0  0  0  0  0  0  0  0  0  0  0  0
   -0.9545   -0.4478    0.0000 C   0  0  0  0  0  0  0  0  0  0  0  0
   -0.2427   -0.0272    0.0000 C   0  0  0  0  0  0  0  0  0  0  0  0
    1.4074    0.0375    0.0000 C   0  0  0  0  0  0  0  0  0  0  0  0
   -0.9707   -1.2729    0.0000 C   0  0  0  0  0  0  0  0  0  0  0  0
   -1.6662    0.7978    0.0000 C   0  0  0  0  0  0  0  0  0  0  0  0
    1.3751    2.1891    0.0000 C   0  0  0  0  0  0  0  0  0  0  0  0
   -1.3751    3.3053    0.0000 C   0  0  0  0  0  0  0  0  0  0  0  0
   -1.6662   -0.0434    0.0000 C   0  0  0  0  0  0  0  0  0  0  0  0
   -0.2588   -2.5186    0.0000 C   0  0  0  0  0  0  0  0  0  0  0  0
   -0.2912    2.5127    0.0000 C   0  0  0  0  0  0  0  0  0  0  0  0
   -0.2427   -1.7096    0.0000 C   0  0  0  0  0  0  0  0  0  0  0  0
   -1.8442    3.9687    0.0000 C   0  0  0  0  0  0  0  0  0  0  0  0
   -0.5338    3.2892    0.0000 C   0  0  0  0  0  0  0  0  0  0  0  0
   -0.9545   -2.9391    0.0000 C   0  0  0  0  0  0  0  0  0  0  0  0
   -1.6662   -1.6935    0.0000 C   0  0  0  0  0  0  0  0  0  0  0  0
    2.2002   -0.2213    0.0000 C   0  0  0  0  0  0  0  0  0  0  0  0
    0.8251   -0.4802    0.0000 C   0  0  0  0  0  0  0  0  0  0  0  0
   -1.6501   -2.5347    0.0000 C   0  0  0  0  0  0  0  0  0  0  0  0
    1.7472   -1.5641    0.0000 C   0  0  0  0  0  0  0  0  0  0  0  0
    2.3619   -1.0140    0.0000 C   0  0  0  0  0  0  0  0  0  0  0  0
    0.9707   -1.3052    0.0000 C   0  0  0  0  0  0  0  0  0  0  0  0
    1.7148    2.9494    0.0000 C   0  0  0  0  0  0  0  0  0  0  0  0
   -2.7017    3.8716    0.0000 C   0  0  0  0  0  0  0  0  0  0  0  0
   -0.9545   -3.7641    0.0000 C   0  0  0  0  0  0  0  0  0  0  0  0
   -1.5368    4.7290    0.0000 C   0  0  0  0  0  0  0  0  0  0  0  0
   -1.0353    4.0657    0.0000 C   0  0  0  0  0  0  0  0  0  0  0  0
    2.1891   -4.7290    0.0000 C   0  0  0  0  0  0  0  0  0  0  0  0
    2.7178   -2.6480    0.0000 C   0  0  0  0  0  0  0  0  0  0  0  0
  1  6  2  0  0  0  0
  1  7  2  0  0  0  0
  1 26  1  0  0  0  0
  1 44  1  0  0  0  0
  2 45  1  0  0  0  0
  3 45  1  0  0  0  0
  4 45  1  0  0  0  0
  5 15  1  0  0  0  0
  5 23  1  0  0  0  0
  8 36  1  0  0  0  0
  8 45  1  0  0  0  0
  9 41  1  0  0  0  0
 10 12  1  0  0  0  0
 10 16  1  0  0  0  0
 10 27  1  0  0  0  0
 11 17  1  0  0  0  0
 11 23  2  0  0  0  0
 12 24  2  0  0  0  0
 13 40  3  0  0  0  0
 14 15  1  0  0  0  0
 14 16  1  0  0  0  0
 14 19  2  0  0  0  0
 15 17  2  0  0  0  0
 16 22  2  0  0  0  0
 17 20  1  0  0  0  0
 18 19  1  0  0  0  0
 18 21  1  0  0  0  0
 18 25  2  0  0  0  0
 20 33  2  0  0  0  0
 20 34  1  0  0  0  0
 21 28  2  0  0  0  0
 21 32  1  0  0  0  0
 22 25  1  0  0  0  0
 23 39  1  0  0  0  0
 24 29  1  0  0  0  0
 24 30  1  0  0  0  0
 26 28  1  0  0  0  0
 26 31  2  0  0  0  0
 27 30  2  0  0  0  0
 29 40  1  0  0  0  0
 29 42  1  0  0  0  0
 29 43  1  0  0  0  0
 31 35  1  0  0  0  0
 31 41  1  0  0  0  0
 32 35  2  0  0  0  0
 33 37  1  0  0  0  0
 34 38  2  0  0  0  0
 36 37  2  0  0  0  0
 36 38  1  0  0  0  0
M  END
> <PUBCHEM_COMPOUND_ID_TYPE>
0

> <PUBCHEM_TOTAL_CHARGE>
0

> <PUBCHEM_SUBSTANCE_ID>
310948496

> <PUBCHEM_SUBSTANCE_VERSION>
1

> <PUBCHEM_EXT_DATASOURCE_NAME>
4488

> <PUBCHEM_EXT_DATASOURCE_REGID>
SCHEMBL16126678

> <PUBCHEM_SUBSTANCE_COMMENT>
InChI=1S/C32H27F3N4O5S/c1-19-37-29(20-7-10-24(11-8-20)44-32(33,34)35)30(43-19)25-15-21(22-5-6-23(17-40)27(16-22)45(4,41)42)9-12-26(25)39-14-13-28(38-39)31(2,3)18-36/h5-16,40H,17H2,1-4H3
InChIKey=JWGUCTYIEPRVEU-UHFFFAOYSA-N

> <PUBCHEM_SUBSTANCE_SYNONYM>
SCHEMBL16126678

> <PUBCHEM_XREF_EXT_ID>
SCHEMBL16126678

> <PUBCHEM_EXT_DATASOURCE_URL>
https://www.surechembl.org/

> <PUBCHEM_EXT_SUBSTANCE_URL>
https://www.surechembl.org/chemical/SCHEMBL16126678

> <PUBCHEM_CID_ASSOCIATIONS>
117614053  1

> <PUBCHEM_COORDINATE_TYPE>
1
3

$$$$
