310948864
  -OEChem-07211613022D

 21 21  0     1  0  0  0  0  0999 V2000
   -1.8178    1.2314    0.0000 O   0  0  0  0  0  0  0  0  0  0  0  0
   -1.8178   -1.2482    0.0000 O   0  0  0  0  0  0  0  0  0  0  0  0
   -0.3267    1.1812    0.0000 O   0  0  0  0  0  0  0  0  0  0  0  0
   -0.3937   -0.4272    0.0000 O   0  0  0  0  0  0  0  0  0  0  0  0
   -3.2420   -0.4272    0.0000 O   0  0  0  0  0  0  0  0  0  0  0  0
   -3.9625    0.8126    0.0000 O   0  0  0  0  0  0  0  0  0  0  0  0
   -1.8178   -1.2482    0.0000 O   0  0  0  0  0  0  0  0  0  0  0  0
    1.8178    0.7623    0.0000 O   0  0  0  0  0  0  0  0  0  0  0  0
   -1.8178   -1.2482    0.0000 N   0  0  0  0  0  0  0  0  0  0  0  0
   -1.8178   -0.4104    0.0000 C   0  0  3  0  0  0  0  0  0  0  0  0
   -1.1142   -0.0084    0.0000 C   0  0  3  0  0  0  0  0  0  0  0  0
   -2.5383   -0.0084    0.0000 C   0  0  3  0  0  0  0  0  0  0  0  0
   -1.0974    0.8126    0.0000 C   0  0  3  0  0  0  0  0  0  0  0  0
   -2.5383    0.8293    0.0000 C   0  0  3  0  0  0  0  0  0  0  0  0
   -3.2587    1.2314    0.0000 C   0  0  0  0  0  0  0  0  0  0  0  0
   -1.8178   -1.2482    0.0000 C   0  0  0  0  0  0  0  0  0  0  0  0
    0.4104    0.7791    0.0000 C   0  0  0  0  0  0  0  0  0  0  0  0
    1.0974    1.1812    0.0000 C   0  0  0  0  0  0  0  0  0  0  0  0
    2.5216    1.1812    0.0000 C   0  0  0  0  0  0  0  0  0  0  0  0
    3.2252    0.7623    0.0000 C   0  0  0  0  0  0  0  0  0  0  0  0
    3.9625    1.1980    0.0000 C   0  0  0  0  0  0  0  0  0  0  0  0
  1 13  1  0  0  0  0
  1 14  1  0  0  0  0
 10  2  1  1  0  0  0
  2 16  1  0  0  0  0
 13  3  1  6  0  0  0
  3 17  1  0  0  0  0
 11  4  1  1  0  0  0
 12  5  1  6  0  0  0
  6 15  1  0  0  0  0
  7 16  2  0  0  0  0
  8 18  1  0  0  0  0
  8 19  1  0  0  0  0
  9 16  1  0  0  0  0
 10 11  1  0  0  0  0
 10 12  1  0  0  0  0
 11 13  1  0  0  0  0
 12 14  1  0  0  0  0
 14 15  1  1  0  0  0
 17 18  1  0  0  0  0
 19 20  1  0  0  0  0
 20 21  1  0  0  0  0
M  END
> <PUBCHEM_COMPOUND_ID_TYPE>
0

> <PUBCHEM_TOTAL_CHARGE>
0

> <PUBCHEM_SUBSTANCE_ID>
310948864

> <PUBCHEM_SUBSTANCE_VERSION>
1

> <PUBCHEM_EXT_DATASOURCE_NAME>
4488

> <PUBCHEM_EXT_DATASOURCE_REGID>
SCHEMBL16127049

> <PUBCHEM_SUBSTANCE_COMMENT>
InChI=1S/C12H23NO8/c1-2-3-18-4-5-19-11-9(16)10(21-12(13)17)8(15)7(6-14)20-11/h7-11,14-16H,2-6H2,1H3,(H2,13,17)/t7-,8-,9+,10+,11+/m1/s1
InChIKey=DPVGDOFSZMRRTR-UVOCVTCTSA-N

> <PUBCHEM_SUBSTANCE_SYNONYM>
SCHEMBL16127049

> <PUBCHEM_XREF_EXT_ID>
SCHEMBL16127049

> <PUBCHEM_EXT_DATASOURCE_URL>
https://www.surechembl.org/

> <PUBCHEM_EXT_SUBSTANCE_URL>
https://www.surechembl.org/chemical/SCHEMBL16127049

> <PUBCHEM_CID_ASSOCIATIONS>
117614398  1

> <PUBCHEM_COORDINATE_TYPE>
1
3

> <PUBCHEM_BONDANNOTATIONS>
14  15  5
10  2  5
13  3  6
11  4  5
12  5  6

$$$$
