310943871
  -OEChem-07211613022D

 44 48  0     1  0  0  0  0  0999 V2000
    2.4527    3.9873    0.0000 O   0  0  0  0  0  0  0  0  0  0  0  0
    1.0392   -2.3433    0.0000 O   0  0  0  0  0  0  0  0  0  0  0  0
    3.2484    2.5264    0.0000 N   0  0  0  0  0  0  0  0  0  0  0  0
   -3.2841    0.4479    0.0000 N   0  0  3  0  0  0  0  0  0  0  0  0
    3.4234   -3.7265    0.0000 N   0  0  0  0  0  0  0  0  0  0  0  0
   -1.1343    3.5598    0.0000 N   0  0  0  0  0  0  0  0  0  0  0  0
    5.0063    1.9801    0.0000 N   0  0  3  0  0  0  0  0  0  0  0  0
   -5.0657    0.9824    0.0000 N   0  0  3  0  0  0  0  0  0  0  0  0
    0.2910    1.6950    0.0000 C   0  0  0  0  0  0  0  0  0  0  0  0
    1.0274    1.3030    0.0000 C   0  0  0  0  0  0  0  0  0  0  0  0
   -0.4098    1.2912    0.0000 C   0  0  0  0  0  0  0  0  0  0  0  0
    1.0155    0.3528    0.0000 C   0  0  0  0  0  0  0  0  0  0  0  0
    1.7400    2.5502    0.0000 C   0  0  0  0  0  0  0  0  0  0  0  0
    1.7281    1.7188    0.0000 C   0  0  0  0  0  0  0  0  0  0  0  0
   -1.1343    1.6950    0.0000 C   0  0  0  0  0  0  0  0  0  0  0  0
    0.3266    2.5383    0.0000 C   0  0  0  0  0  0  0  0  0  0  0  0
    1.0274    2.9302    0.0000 C   0  0  0  0  0  0  0  0  0  0  0  0
    2.4289    2.9421    0.0000 C   0  0  0  0  0  0  0  0  0  0  0  0
   -0.4216    0.4597    0.0000 C   0  0  0  0  0  0  0  0  0  0  0  0
   -1.8469    1.2793    0.0000 C   0  0  0  0  0  0  0  0  0  0  0  0
   -1.8588    0.4597    0.0000 C   0  0  0  0  0  0  0  0  0  0  0  0
    1.7281   -0.0391    0.0000 C   0  0  0  0  0  0  0  0  0  0  0  0
    0.3147   -0.0628    0.0000 C   0  0  0  0  0  0  0  0  0  0  0  0
   -1.1343    0.0441    0.0000 C   0  0  0  0  0  0  0  0  0  0  0  0
    1.0392   -1.2981    0.0000 C   0  0  0  0  0  0  0  0  0  0  0  0
   -1.1343    2.7284    0.0000 C   0  0  0  0  0  0  0  0  0  0  0  0
    1.7400   -0.8824    0.0000 C   0  0  0  0  0  0  0  0  0  0  0  0
    0.3266   -0.8943    0.0000 C   0  0  0  0  0  0  0  0  0  0  0  0
   -2.5477    0.0441    0.0000 C   0  0  0  0  0  0  0  0  0  0  0  0
    1.0392   -2.3433    0.0000 C   0  0  0  0  0  0  0  0  0  0  0  0
    3.5335    1.7662    0.0000 C   0  0  0  0  0  0  0  0  0  0  0  0
    3.6523    3.2509    0.0000 C   0  0  0  0  0  0  0  0  0  0  0  0
    4.3412    1.5168    0.0000 C   0  0  0  0  0  0  0  0  0  0  0  0
    4.4600    3.3697    0.0000 C   0  0  0  0  0  0  0  0  0  0  0  0
   -3.9611   -0.0153    0.0000 C   0  0  0  0  0  0  0  0  0  0  0  0
   -3.2247    1.2793    0.0000 C   0  0  0  0  0  0  0  0  0  0  0  0
    5.0657    2.8115    0.0000 C   0  0  0  0  0  0  0  0  0  0  0  0
   -4.7569    0.2222    0.0000 C   0  0  0  0  0  0  0  0  0  0  0  0
   -3.8304    1.8375    0.0000 C   0  0  0  0  0  0  0  0  0  0  0  0
    3.5872   -3.9873    0.0000 C   0  0  0  0  0  0  0  0  0  0  0  0
    3.5812   -3.4596    0.0000 C   0  0  0  0  0  0  0  0  0  0  0  0
   -4.6262    1.7069    0.0000 C   0  0  0  0  0  0  0  0  0  0  0  0
    5.8971    1.4694    0.0000 C   0  0  0  0  0  0  0  0  0  0  0  0
   -5.8971    0.9824    0.0000 C   0  0  0  0  0  0  0  0  0  0  0  0
  1 18  2  0  0  0  0
  2 30  2  0  0  0  0
  3 18  1  0  0  0  0
  3 31  1  0  0  0  0
  3 32  1  0  0  0  0
  4 29  1  0  0  0  0
  4 35  1  0  0  0  0
  4 36  1  0  0  0  0
  5 30  1  0  0  0  0
  5 40  1  0  0  0  0
  5 41  1  0  0  0  0
  6 26  3  0  0  0  0
  7 33  1  0  0  0  0
  7 37  1  0  0  0  0
  7 43  1  0  0  0  0
  8 38  1  0  0  0  0
  8 42  1  0  0  0  0
  8 44  1  0  0  0  0
  9 10  2  0  0  0  0
  9 11  1  0  0  0  0
  9 16  1  0  0  0  0
 10 12  1  0  0  0  0
 10 14  1  0  0  0  0
 11 15  2  0  0  0  0
 11 19  1  0  0  0  0
 12 22  2  0  0  0  0
 12 23  1  0  0  0  0
 13 14  2  0  0  0  0
 13 17  1  0  0  0  0
 13 18  1  0  0  0  0
 15 20  1  0  0  0  0
 15 26  1  0  0  0  0
 16 17  2  0  0  0  0
 19 24  2  0  0  0  0
 20 21  2  0  0  0  0
 21 24  1  0  0  0  0
 21 29  1  0  0  0  0
 22 27  1  0  0  0  0
 23 28  2  0  0  0  0
 25 27  2  0  0  0  0
 25 28  1  0  0  0  0
 25 30  1  0  0  0  0
 31 33  1  0  0  0  0
 32 34  1  0  0  0  0
 34 37  1  0  0  0  0
 35 38  1  0  0  0  0
 36 39  1  0  0  0  0
 39 42  1  0  0  0  0
M  END
> <PUBCHEM_COMPOUND_ID_TYPE>
0

> <PUBCHEM_TOTAL_CHARGE>
0

> <PUBCHEM_SUBSTANCE_ID>
310943871

> <PUBCHEM_SUBSTANCE_VERSION>
1

> <PUBCHEM_EXT_DATASOURCE_NAME>
4488

> <PUBCHEM_EXT_DATASOURCE_REGID>
SCHEMBL16121942

> <PUBCHEM_SUBSTANCE_COMMENT>
InChI=1S/C36H44N6O2/c1-38(2)35(43)29-10-8-28(9-11-29)34-24-30(36(44)42-18-6-16-40(4)20-22-42)12-14-33(34)32-13-7-27(23-31(32)25-37)26-41-17-5-15-39(3)19-21-41/h7-14,23-24H,5-6,15-22,26H2,1-4H3
InChIKey=BQECCCOVZJMHNF-UHFFFAOYSA-N

> <PUBCHEM_SUBSTANCE_SYNONYM>
SCHEMBL16121942

> <PUBCHEM_XREF_EXT_ID>
SCHEMBL16121942

> <PUBCHEM_EXT_DATASOURCE_URL>
https://www.surechembl.org/

> <PUBCHEM_EXT_SUBSTANCE_URL>
https://www.surechembl.org/chemical/SCHEMBL16121942

> <PUBCHEM_CID_ASSOCIATIONS>
86301845  1

> <PUBCHEM_COORDINATE_TYPE>
1
3

$$$$
