310929850
  -OEChem-07211613022D

 32 35  0     1  0  0  0  0  0999 V2000
    6.4767   -6.3438    0.0000 F   0  0  0  0  0  0  0  0  0  0  0  0
    6.0116   -4.9820    0.0000 F   0  0  0  0  0  0  0  0  0  0  0  0
    5.7127   -6.6095    0.0000 F   0  0  0  0  0  0  0  0  0  0  0  0
    5.3141   -6.4434    0.0000 O   0  0  0  0  0  0  0  0  0  0  0  0
    2.1589   -5.8456    0.0000 O   0  0  0  0  0  0  0  0  0  0  0  0
    0.7307   -6.6427    0.0000 O   0  0  0  0  0  0  0  0  0  0  0  0
    4.5502    0.0000    0.0000 O   0  0  0  0  0  0  0  0  0  0  0  0
    3.9524   -2.0924    0.0000 N   0  0  0  0  0  0  0  0  0  0  0  0
    3.1221   -2.0924    0.0000 N   0  0  0  0  0  0  0  0  0  0  0  0
    5.0484   -5.6463    0.0000 C   0  0  3  0  0  0  0  0  0  0  0  0
    4.3178   -5.4470    0.0000 C   0  0  0  0  0  0  0  0  0  0  0  0
    4.3178   -4.5835    0.0000 C   0  0  0  0  0  0  0  0  0  0  0  0
    5.5798   -5.0153    0.0000 C   0  0  0  0  0  0  0  0  0  0  0  0
    5.0484   -4.3510    0.0000 C   0  0  0  0  0  0  0  0  0  0  0  0
    5.8456   -5.8124    0.0000 C   0  0  0  0  0  0  0  0  0  0  0  0
    3.5539   -4.1517    0.0000 C   0  0  0  0  0  0  0  0  0  0  0  0
    3.5539   -5.8456    0.0000 C   0  0  0  0  0  0  0  0  0  0  0  0
    6.3770   -4.9156    0.0000 C   0  0  0  0  0  0  0  0  0  0  0  0
    2.8563   -5.4470    0.0000 C   0  0  0  0  0  0  0  0  0  0  0  0
    5.4470   -3.6202    0.0000 C   0  0  0  0  0  0  0  0  0  0  0  0
    2.8563   -4.5835    0.0000 C   0  0  0  0  0  0  0  0  0  0  0  0
    3.5539   -3.3545    0.0000 C   0  0  0  0  0  0  0  0  0  0  0  0
    6.6759   -4.1517    0.0000 C   0  0  0  0  0  0  0  0  0  0  0  0
    6.2110   -3.5206    0.0000 C   0  0  0  0  0  0  0  0  0  0  0  0
    4.2181   -2.8563    0.0000 C   0  0  0  0  0  0  0  0  0  0  0  0
    2.8896   -2.8563    0.0000 C   0  0  0  0  0  0  0  0  0  0  0  0
    1.4282   -5.4138    0.0000 C   0  0  0  0  0  0  0  0  0  0  0  0
    4.4174   -1.4282    0.0000 C   0  0  0  0  0  0  0  0  0  0  0  0
    0.7307   -5.8124    0.0000 C   0  0  0  0  0  0  0  0  0  0  0  0
    4.0853   -0.6643    0.0000 C   0  0  0  0  0  0  0  0  0  0  0  0
    0.0000   -5.4138    0.0000 C   0  0  0  0  0  0  0  0  0  0  0  0
    0.0000   -6.2441    0.0000 C   0  0  0  0  0  0  0  0  0  0  0  0
  1 15  1  0  0  0  0
  2 15  1  0  0  0  0
  3 15  1  0  0  0  0
 10  4  1  1  0  0  0
  5 19  1  0  0  0  0
  5 27  1  0  0  0  0
  6 29  1  0  0  0  0
  7 30  1  0  0  0  0
  8  9  1  0  0  0  0
  8 25  1  0  0  0  0
  8 28  1  0  0  0  0
  9 26  2  0  0  0  0
 10 11  1  0  0  0  0
 10 13  1  0  0  0  0
 10 15  1  6  0  0  0
 11 12  2  0  0  0  0
 11 17  1  0  0  0  0
 12 14  1  0  0  0  0
 12 16  1  0  0  0  0
 13 14  2  0  0  0  0
 13 18  1  0  0  0  0
 14 20  1  0  0  0  0
 16 21  2  0  0  0  0
 16 22  1  0  0  0  0
 17 19  2  0  0  0  0
 18 23  2  0  0  0  0
 19 21  1  0  0  0  0
 20 24  2  0  0  0  0
 22 25  2  0  0  0  0
 22 26  1  0  0  0  0
 23 24  1  0  0  0  0
 27 29  1  0  0  0  0
 28 30  1  0  0  0  0
 29 31  1  0  0  0  0
 29 32  1  0  0  0  0
M  END
> <PUBCHEM_COMPOUND_ID_TYPE>
0

> <PUBCHEM_TOTAL_CHARGE>
0

> <PUBCHEM_SUBSTANCE_ID>
310929850

> <PUBCHEM_SUBSTANCE_VERSION>
1

> <PUBCHEM_EXT_DATASOURCE_NAME>
4488

> <PUBCHEM_EXT_DATASOURCE_REGID>
SCHEMBL16107063

> <PUBCHEM_SUBSTANCE_COMMENT>
InChI=1S/C23H23F3N2O4/c1-21(2,30)13-32-15-9-17(14-11-27-28(12-14)7-8-29)20-16-5-3-4-6-18(16)22(31,19(20)10-15)23(24,25)26/h3-6,9-12,29-31H,7-8,13H2,1-2H3/t22-/m1/s1
InChIKey=RZLIQYXCQZAYEC-JOCHJYFZSA-N

> <PUBCHEM_SUBSTANCE_SYNONYM>
SCHEMBL16107063

> <PUBCHEM_XREF_EXT_ID>
SCHEMBL16107063

> <PUBCHEM_EXT_DATASOURCE_URL>
https://www.surechembl.org/

> <PUBCHEM_EXT_SUBSTANCE_URL>
https://www.surechembl.org/chemical/SCHEMBL16107063

> <PUBCHEM_CID_ASSOCIATIONS>
102594417  1

> <PUBCHEM_COORDINATE_TYPE>
1
3

> <PUBCHEM_BONDANNOTATIONS>
10  15  6
10  4  5

$$$$
