310941427
  -OEChem-07211613022D

 77 81  0     1  0  0  0  0  0999 V2000
    2.7776   -3.8297    0.0000 P   0  0  0  0  0  0  0  0  0  0  0  0
   -2.4578    0.9511    0.0000 O   0  0  0  0  0  0  0  0  0  0  0  0
   -7.0702   -0.6986    0.0000 O   0  0  0  0  0  0  0  0  0  0  0  0
   -4.5956    3.0048    0.0000 O   0  0  0  0  0  0  0  0  0  0  0  0
   -4.3768   -0.5134    0.0000 O   0  0  0  0  0  0  0  0  0  0  0  0
   -2.2220   -2.5840    0.0000 O   0  0  0  0  0  0  0  0  0  0  0  0
   -5.1848    1.1194    0.0000 O   0  0  0  0  0  0  0  0  0  0  0  0
   -4.9996   -0.1768    0.0000 O   0  0  0  0  0  0  0  0  0  0  0  0
   -0.3198    3.0048    0.0000 O   0  0  0  0  0  0  0  0  0  0  0  0
   -0.0842   -0.5134    0.0000 O   0  0  0  0  0  0  0  0  0  0  0  0
    2.7776   -2.9880    0.0000 O   0  0  0  0  0  0  0  0  0  0  0  0
    2.0537   -2.5840    0.0000 O   0  0  0  0  0  0  0  0  0  0  0  0
    4.2084   -0.5134    0.0000 O   0  0  0  0  0  0  0  0  0  0  0  0
    2.0537   -0.1095    0.0000 O   0  0  0  0  0  0  0  0  0  0  0  0
    1.9527   -3.8128    0.0000 O   0  0  0  0  0  0  0  0  0  0  0  0
    2.7776   -4.6377    0.0000 O   0  0  0  0  0  0  0  0  0  0  0  0
    3.6024   -3.8128    0.0000 O   0  0  0  0  0  0  0  0  0  0  0  0
    6.3463   -2.5671    0.0000 O   0  0  0  0  0  0  0  0  0  0  0  0
   -5.3027    1.7760    0.0000 N   0  0  0  0  0  0  0  0  0  0  0  0
   -5.8245   -1.4225    0.0000 N   0  0  0  0  0  0  0  0  0  0  0  0
   -3.1648    2.1800    0.0000 N   0  0  0  0  0  0  0  0  0  0  0  0
   -3.6529   -1.7591    0.0000 N   0  0  0  0  0  0  0  0  0  0  0  0
   -1.0269    1.7591    0.0000 N   0  0  0  0  0  0  0  0  0  0  0  0
   -1.4982   -1.3551    0.0000 N   0  0  0  0  0  0  0  0  0  0  0  0
    0.6397   -1.7591    0.0000 N   0  0  0  0  0  0  0  0  0  0  0  0
    2.7776   -1.3551    0.0000 N   0  0  0  0  0  0  0  0  0  0  0  0
   -0.5555   -3.9980    0.0000 N   0  0  0  0  0  0  0  0  0  0  0  0
    4.9323   -1.7591    0.0000 N   0  0  0  0  0  0  0  0  0  0  0  0
    0.7743   -4.0822    0.0000 N   0  0  0  0  0  0  0  0  0  0  0  0
    7.0702   -1.3551    0.0000 N   0  0  0  0  0  0  0  0  0  0  0  0
   -5.7235    1.0689    0.0000 C   0  0  3  0  0  0  0  0  0  0  0  0
   -6.2453   -0.6986    0.0000 C   0  0  0  0  0  0  0  0  0  0  0  0
   -2.4578    1.8096    0.0000 C   0  0  3  0  0  0  0  0  0  0  0  0
   -4.5956    2.1800    0.0000 C   0  0  0  0  0  0  0  0  0  0  0  0
   -3.8718    1.7928    0.0000 C   0  0  3  0  0  0  0  0  0  0  0  0
   -5.0501   -1.7423    0.0000 C   0  0  3  0  0  0  0  0  0  0  0  0
   -1.7507    2.1800    0.0000 C   0  0  3  0  0  0  0  0  0  0  0  0
   -6.5147    1.2541    0.0000 C   0  0  0  0  0  0  0  0  0  0  0  0
   -5.8414    2.3820    0.0000 C   0  0  0  0  0  0  0  0  0  0  0  0
   -4.3768   -1.3551    0.0000 C   0  0  0  0  0  0  0  0  0  0  0  0
   -6.3800   -2.0285    0.0000 C   0  0  0  0  0  0  0  0  0  0  0  0
   -6.5989    2.0622    0.0000 C   0  0  0  0  0  0  0  0  0  0  0  0
   -5.1512   -2.5503    0.0000 C   0  0  0  0  0  0  0  0  0  0  0  0
   -2.2389   -0.0926    0.0000 C   0  0  3  0  0  0  0  0  0  0  0  0
   -3.8886    0.9511    0.0000 C   0  0  0  0  0  0  0  0  0  0  0  0
   -2.9459   -1.3383    0.0000 C   0  0  3  0  0  0  0  0  0  0  0  0
   -5.9760   -2.7187    0.0000 C   0  0  0  0  0  0  0  0  0  0  0  0
   -1.7339    2.9880    0.0000 C   0  0  0  0  0  0  0  0  0  0  0  0
   -2.5083    1.2204    0.0000 C   0  0  0  0  0  0  0  0  0  0  0  0
   -2.9290   -0.4966    0.0000 C   0  0  0  0  0  0  0  0  0  0  0  0
   -2.2220   -1.7255    0.0000 C   0  0  0  0  0  0  0  0  0  0  0  0
   -1.0269    3.4089    0.0000 C   0  0  0  0  0  0  0  0  0  0  0  0
   -4.5956    0.5471    0.0000 C   0  0  0  0  0  0  0  0  0  0  0  0
   -0.3367    2.1800    0.0000 C   0  0  0  0  0  0  0  0  0  0  0  0
   -0.7575   -1.7423    0.0000 C   0  0  3  0  0  0  0  0  0  0  0  0
   -1.3972   -0.3114    0.0000 C   0  0  0  0  0  0  0  0  0  0  0  0
   -0.3198    3.0048    0.0000 C   0  0  0  0  0  0  0  0  0  0  0  0
   -1.0100    4.2337    0.0000 C   0  0  0  0  0  0  0  0  0  0  0  0
   -0.0842   -1.3551    0.0000 C   0  0  0  0  0  0  0  0  0  0  0  0
   -0.7743   -2.5671    0.0000 C   0  0  0  0  0  0  0  0  0  0  0  0
    1.3299   -1.3383    0.0000 C   0  0  3  0  0  0  0  0  0  0  0  0
    0.4209    1.7928    0.0000 C   0  0  0  0  0  0  0  0  0  0  0  0
    3.5014   -1.7591    0.0000 C   0  0  3  0  0  0  0  0  0  0  0  0
    0.4040    3.4089    0.0000 C   0  0  0  0  0  0  0  0  0  0  0  0
   -0.2693    4.6377    0.0000 C   0  0  0  0  0  0  0  0  0  0  0  0
   -0.2525   -3.2068    0.0000 C   0  0  0  0  0  0  0  0  0  0  0  0
    2.0705   -1.7255    0.0000 C   0  0  0  0  0  0  0  0  0  0  0  0
    0.4377    4.2001    0.0000 C   0  0  0  0  0  0  0  0  0  0  0  0
    3.5014   -2.5671    0.0000 C   0  0  3  0  0  0  0  0  0  0  0  0
    4.2589   -1.3551    0.0000 C   0  0  0  0  0  0  0  0  0  0  0  0
    0.5724   -3.2741    0.0000 C   0  0  0  0  0  0  0  0  0  0  0  0
    1.3635   -0.4966    0.0000 C   0  0  0  0  0  0  0  0  0  0  0  0
    0.1010   -4.4862    0.0000 C   0  0  0  0  0  0  0  0  0  0  0  0
    5.6224   -1.3214    0.0000 C   0  0  3  0  0  0  0  0  0  0  0  0
    4.2252   -2.9880    0.0000 C   0  0  0  0  0  0  0  0  0  0  0  0
    6.3463   -1.7255    0.0000 C   0  0  0  0  0  0  0  0  0  0  0  0
    5.6561   -0.4966    0.0000 C   0  0  0  0  0  0  0  0  0  0  0  0
  1 11  1  0  0  0  0
  1 15  2  0  0  0  0
  1 16  1  0  0  0  0
  1 17  1  0  0  0  0
  2 33  1  0  0  0  0
  2 44  1  0  0  0  0
  3 32  2  0  0  0  0
  4 34  2  0  0  0  0
  5 40  2  0  0  0  0
  6 51  2  0  0  0  0
  7 53  2  0  0  0  0
  8 53  1  0  0  0  0
  9 54  2  0  0  0  0
 10 59  2  0  0  0  0
 11 69  1  0  0  0  0
 12 67  2  0  0  0  0
 13 70  2  0  0  0  0
 14 72  1  0  0  0  0
 18 76  2  0  0  0  0
 19 31  1  0  0  0  0
 19 34  1  0  0  0  0
 19 39  1  0  0  0  0
 20 32  1  0  0  0  0
 36 20  1  6  0  0  0
 20 41  1  0  0  0  0
 21 33  1  0  0  0  0
 21 35  1  0  0  0  0
 22 40  1  0  0  0  0
 22 46  1  0  0  0  0
 37 23  1  6  0  0  0
 23 54  1  0  0  0  0
 24 51  1  0  0  0  0
 55 24  1  6  0  0  0
 25 59  1  0  0  0  0
 61 25  1  1  0  0  0
 63 26  1  6  0  0  0
 26 67  1  0  0  0  0
 27 66  1  0  0  0  0
 27 73  1  0  0  0  0
 28 70  1  0  0  0  0
 28 74  1  0  0  0  0
 29 71  1  0  0  0  0
 29 73  2  0  0  0  0
 30 76  1  0  0  0  0
 31 32  1  0  0  0  0
 31 38  1  0  0  0  0
 33 37  1  0  0  0  0
 33 49  1  0  0  0  0
 34 35  1  0  0  0  0
 35 45  1  1  0  0  0
 36 40  1  0  0  0  0
 36 43  1  0  0  0  0
 37 48  1  0  0  0  0
 38 42  1  0  0  0  0
 39 42  1  0  0  0  0
 41 47  1  0  0  0  0
 43 47  1  0  0  0  0
 44 50  1  0  0  0  0
 44 56  1  0  0  0  0
 45 53  1  0  0  0  0
 46 50  1  0  0  0  0
 46 51  1  1  0  0  0
 48 52  1  0  0  0  0
 52 57  2  0  0  0  0
 52 58  1  0  0  0  0
 54 62  1  0  0  0  0
 55 59  1  0  0  0  0
 55 60  1  0  0  0  0
 57 64  1  0  0  0  0
 58 65  2  0  0  0  0
 60 66  1  0  0  0  0
 61 67  1  0  0  0  0
 61 72  1  0  0  0  0
 63 69  1  0  0  0  0
 63 70  1  0  0  0  0
 64 68  2  0  0  0  0
 65 68  1  0  0  0  0
 66 71  2  0  0  0  0
 69 75  1  1  0  0  0
 74 76  1  0  0  0  0
 74 77  1  0  0  0  0
M  END
> <PUBCHEM_COMPOUND_ID_TYPE>
0

> <PUBCHEM_TOTAL_CHARGE>
0

> <PUBCHEM_SUBSTANCE_ID>
310941427

> <PUBCHEM_SUBSTANCE_VERSION>
1

> <PUBCHEM_EXT_DATASOURCE_NAME>
4488

> <PUBCHEM_EXT_DATASOURCE_REGID>
SCHEMBL16119387

> <PUBCHEM_SUBSTANCE_COMMENT>
InChI=1S/C47H69N12O17P/c1-24-17-30(40(65)53-31(19-29-21-49-23-50-29)41(66)55-33(22-60)42(67)56-38(26(3)76-77(72,73)74)44(69)51-25(2)39(48)64)54-43(68)34-13-9-15-58(34)46(71)35-14-10-16-59(35)45(70)32(20-37(62)63)57-47(5,75-24)36(52-27(4)61)18-28-11-7-6-8-12-28/h6-8,11-12,21,23-26,30-36,38,57,60H,9-10,13-20,22H2,1-5H3,(H2,48,64)(H,49,50)(H,51,69)(H,52,61)(H,53,65)(H,54,68)(H,55,66)(H,56,67)(H,62,63)(H2,72,73,74)/t24?,25?,26-,30+,31+,32+,33+,34+,35?,36+,38+,47?/m1/s1
InChIKey=ZAJGNUMPMWCXLR-YSPVHDNLSA-N

> <PUBCHEM_SUBSTANCE_SYNONYM>
SCHEMBL16119387

> <PUBCHEM_XREF_EXT_ID>
SCHEMBL16119387

> <PUBCHEM_EXT_DATASOURCE_URL>
https://www.surechembl.org/

> <PUBCHEM_EXT_SUBSTANCE_URL>
https://www.surechembl.org/chemical/SCHEMBL16119387

> <PUBCHEM_CID_ASSOCIATIONS>
117608252  1

> <PUBCHEM_COORDINATE_TYPE>
1
3

> <PUBCHEM_BONDANNOTATIONS>
36  20  6
37  23  6
55  24  6
61  25  5
63  26  6
35  45  5
46  51  5
69  75  5

$$$$
