310931153
  -OEChem-07211613022D

 56 63  0     1  0  0  0  0  0999 V2000
    2.6534   -2.3190    0.0000 P   0  0  0  0  0  0  0  0  0  0  0  0
    3.4338   -2.3190    0.0000 P   0  0  0  0  0  0  0  0  0  0  0  0
    4.5488   -4.3035    0.0000 O   0  0  0  0  0  0  0  0  0  0  0  0
    1.2264    0.0000    0.0000 O   0  0  0  0  0  0  0  0  0  0  0  0
    4.5488   -2.8764    0.0000 O   0  0  0  0  0  0  0  0  0  0  0  0
    1.2264   -1.4271    0.0000 O   0  0  0  0  0  0  0  0  0  0  0  0
    3.3001   -3.5677    0.0000 C   0  0  3  0  0  0  0  0  0  0  0  0
    2.4527   -0.7135    0.0000 C   0  0  3  0  0  0  0  0  0  0  0  0
    2.0514   -1.4493    0.0000 C   0  0  0  0  0  0  0  0  0  0  0  0
    3.7014   -2.8541    0.0000 C   0  0  0  0  0  0  0  0  0  0  0  0
    2.4751   -2.1629    0.0000 C   0  0  0  0  0  0  0  0  0  0  0  0
    3.3001   -2.1406    0.0000 C   0  0  0  0  0  0  0  0  0  0  0  0
    2.8764   -2.8764    0.0000 C   0  0  3  0  0  0  0  0  0  0  0  0
    2.8987   -1.4271    0.0000 C   0  0  3  0  0  0  0  0  0  0  0  0
    4.1251   -3.5677    0.0000 C   0  0  0  0  0  0  0  0  0  0  0  0
    1.6277   -0.7135    0.0000 C   0  0  0  0  0  0  0  0  0  0  0  0
    2.8764   -4.2812    0.0000 C   0  0  0  0  0  0  0  0  0  0  0  0
    2.8987   -0.0223    0.0000 C   0  0  0  0  0  0  0  0  0  0  0  0
    1.4047   -1.6277    0.0000 C   0  0  0  0  0  0  0  0  0  0  0  0
    4.7048   -3.0102    0.0000 C   0  0  0  0  0  0  0  0  0  0  0  0
    2.2298   -3.0325    0.0000 C   0  0  0  0  0  0  0  0  0  0  0  0
    3.8575   -1.5831    0.0000 C   0  0  0  0  0  0  0  0  0  0  0  0
    2.0514   -2.8764    0.0000 C   0  0  0  0  0  0  0  0  0  0  0  0
    3.7014   -1.4271    0.0000 C   0  0  0  0  0  0  0  0  0  0  0  0
    1.6723   -2.1629    0.0000 C   0  0  0  0  0  0  0  0  0  0  0  0
    3.0771   -3.0325    0.0000 C   0  0  0  0  0  0  0  0  0  0  0  0
    4.1028   -2.1406    0.0000 C   0  0  0  0  0  0  0  0  0  0  0  0
    3.0102   -1.6055    0.0000 C   0  0  0  0  0  0  0  0  0  0  0  0
    2.0514   -4.2812    0.0000 C   0  0  0  0  0  0  0  0  0  0  0  0
    3.7014   -0.0223    0.0000 C   0  0  0  0  0  0  0  0  0  0  0  0
    1.6277   -3.5677    0.0000 C   0  0  0  0  0  0  0  0  0  0  0  0
    4.1474   -0.7135    0.0000 C   0  0  0  0  0  0  0  0  0  0  0  0
    0.8250   -2.1629    0.0000 C   0  0  0  0  0  0  0  0  0  0  0  0
    4.9724   -2.1406    0.0000 C   0  0  0  0  0  0  0  0  0  0  0  0
    4.5264   -1.4047    0.0000 C   0  0  0  0  0  0  0  0  0  0  0  0
    1.2264   -2.8764    0.0000 C   0  0  0  0  0  0  0  0  0  0  0  0
    1.4271   -3.0548    0.0000 C   0  0  0  0  0  0  0  0  0  0  0  0
    3.9244   -3.0325    0.0000 C   0  0  0  0  0  0  0  0  0  0  0  0
    4.6825   -1.5831    0.0000 C   0  0  0  0  0  0  0  0  0  0  0  0
    2.1852   -1.6055    0.0000 C   0  0  0  0  0  0  0  0  0  0  0  0
    1.5608   -1.7838    0.0000 C   0  0  0  0  0  0  0  0  0  0  0  0
    2.5197   -3.5899    0.0000 C   0  0  0  0  0  0  0  0  0  0  0  0
    4.8609   -3.1663    0.0000 C   0  0  0  0  0  0  0  0  0  0  0  0
    3.2555   -0.7135    0.0000 C   0  0  0  0  0  0  0  0  0  0  0  0
    0.4460   -2.8987    0.0000 C   0  0  0  0  0  0  0  0  0  0  0  0
    4.3480   -3.7237    0.0000 C   0  0  0  0  0  0  0  0  0  0  0  0
    5.3515   -1.4047    0.0000 C   0  0  0  0  0  0  0  0  0  0  0  0
    1.7615   -0.9142    0.0000 C   0  0  0  0  0  0  0  0  0  0  0  0
    0.4236   -1.4716    0.0000 C   0  0  0  0  0  0  0  0  0  0  0  0
    3.0994   -4.4595    0.0000 C   0  0  0  0  0  0  0  0  0  0  0  0
    5.3515   -2.8318    0.0000 C   0  0  0  0  0  0  0  0  0  0  0  0
    2.9879   -0.1784    0.0000 C   0  0  0  0  0  0  0  0  0  0  0  0
    0.0000   -2.1852    0.0000 C   0  0  0  0  0  0  0  0  0  0  0  0
    3.7683   -4.2812    0.0000 C   0  0  0  0  0  0  0  0  0  0  0  0
    5.7751   -2.1183    0.0000 C   0  0  0  0  0  0  0  0  0  0  0  0
    2.0068   -0.0223    0.0000 C   0  0  0  0  0  0  0  0  0  0  0  0
  1 14  1  0  0  0  0
  1 25  1  0  0  0  0
  1 26  1  0  0  0  0
  2 13  1  0  0  0  0
  2 27  1  0  0  0  0
  2 28  1  0  0  0  0
  3 15  2  0  0  0  0
  4 16  2  0  0  0  0
  5 15  1  0  0  0  0
  6 16  1  0  0  0  0
  7 10  1  0  0  0  0
  7 13  1  0  0  0  0
  7 15  1  0  0  0  0
  7 17  1  0  0  0  0
  8  9  1  0  0  0  0
  8 14  1  0  0  0  0
  8 16  1  0  0  0  0
  8 18  1  0  0  0  0
  9 11  2  0  0  0  0
  9 19  1  0  0  0  0
 10 12  2  0  0  0  0
 10 20  1  0  0  0  0
 11 12  1  0  0  0  0
 11 21  1  0  0  0  0
 12 22  1  0  0  0  0
 13 23  1  0  0  0  0
 14 24  1  0  0  0  0
 17 29  1  0  0  0  0
 18 30  1  0  0  0  0
 19 33  2  0  0  0  0
 20 34  2  0  0  0  0
 21 36  2  0  0  0  0
 22 35  2  0  0  0  0
 23 31  1  0  0  0  0
 24 32  1  0  0  0  0
 25 37  2  0  0  0  0
 25 41  1  0  0  0  0
 26 38  2  0  0  0  0
 26 42  1  0  0  0  0
 27 39  2  0  0  0  0
 27 43  1  0  0  0  0
 28 40  2  0  0  0  0
 28 44  1  0  0  0  0
 29 31  1  0  0  0  0
 30 32  1  0  0  0  0
 33 36  1  0  0  0  0
 34 35  1  0  0  0  0
 37 45  1  0  0  0  0
 38 46  1  0  0  0  0
 39 47  1  0  0  0  0
 40 48  1  0  0  0  0
 41 49  2  0  0  0  0
 42 50  2  0  0  0  0
 43 51  2  0  0  0  0
 44 52  2  0  0  0  0
 45 53  2  0  0  0  0
 46 54  2  0  0  0  0
 47 55  2  0  0  0  0
 48 56  2  0  0  0  0
 49 53  1  0  0  0  0
 50 54  1  0  0  0  0
 51 55  1  0  0  0  0
 52 56  1  0  0  0  0
M  END
> <PUBCHEM_COMPOUND_ID_TYPE>
0

> <PUBCHEM_TOTAL_CHARGE>
0

> <PUBCHEM_SUBSTANCE_ID>
310931153

> <PUBCHEM_SUBSTANCE_VERSION>
1

> <PUBCHEM_EXT_DATASOURCE_NAME>
4488

> <PUBCHEM_EXT_DATASOURCE_REGID>
SCHEMBL16108461

> <PUBCHEM_SUBSTANCE_COMMENT>
InChI=1S/C50H48O4P2/c51-47(52)49(35-19-17-33-45(49)55(37-21-5-1-6-22-37)38-23-7-2-8-24-38)43-31-15-13-29-41(43)42-30-14-16-32-44(42)50(48(53)54)36-20-18-34-46(50)56(39-25-9-3-10-26-39)40-27-11-4-12-28-40/h1-16,21-32,45-46H,17-20,33-36H2,(H,51,52)(H,53,54)
InChIKey=HPOMKPBURVFSGZ-UHFFFAOYSA-N

> <PUBCHEM_SUBSTANCE_SYNONYM>
SCHEMBL16108461

> <PUBCHEM_XREF_EXT_ID>
SCHEMBL16108461

> <PUBCHEM_EXT_DATASOURCE_URL>
https://www.surechembl.org/

> <PUBCHEM_EXT_SUBSTANCE_URL>
https://www.surechembl.org/chemical/SCHEMBL16108461

> <PUBCHEM_CID_ASSOCIATIONS>
117600023  1

> <PUBCHEM_COORDINATE_TYPE>
1
3

$$$$
