310948587
  -OEChem-07211613022D

 47 48  0     1  0  0  0  0  0999 V2000
    3.0809    1.8558    0.0000 F   0  0  0  0  0  0  0  0  0  0  0  0
    0.7387    0.7026    0.0000 O   0  0  0  0  0  0  0  0  0  0  0  0
    0.6305   -0.7928    0.0000 O   0  0  0  0  0  0  0  0  0  0  0  0
   -0.7208    2.3603    0.0000 O   0  0  0  0  0  0  0  0  0  0  0  0
    2.2882    0.6666    0.0000 O   0  0  0  0  0  0  0  0  0  0  0  0
   -0.7208   -0.1261    0.0000 O   0  0  0  0  0  0  0  0  0  0  0  0
    3.1350   -0.7748    0.0000 O   0  0  0  0  0  0  0  0  0  0  0  0
    2.3063   -2.2162    0.0000 O   0  0  0  0  0  0  0  0  0  0  0  0
   -2.1621    0.7026    0.0000 O   0  0  0  0  0  0  0  0  0  0  0  0
    0.7928    2.3603    0.0000 O   0  0  0  0  0  0  0  0  0  0  0  0
    1.0631   -2.9548    0.0000 O   0  0  0  0  0  0  0  0  0  0  0  0
   -2.1621    3.2071    0.0000 O   0  0  0  0  0  0  0  0  0  0  0  0
    3.5313   -0.0360    0.0000 O   0  0  0  0  0  0  0  0  0  0  0  0
   -2.1080   -0.1622    0.0000 O   0  0  0  0  0  0  0  0  0  0  0  0
    3.1350   -0.7748    0.0000 O   0  0  0  0  0  0  0  0  0  0  0  0
    1.1531   -3.0089    0.0000 O   0  0  0  0  0  0  0  0  0  0  0  0
   -2.9008    1.8738    0.0000 O   0  0  0  0  0  0  0  0  0  0  0  0
   -0.0541   -3.7837    0.0000 O   0  0  0  0  0  0  0  0  0  0  0  0
   -2.9188    4.3602    0.0000 O   0  0  0  0  0  0  0  0  0  0  0  0
    3.1350   -0.7748    0.0000 N   0  0  0  0  0  0  0  0  0  0  0  0
    0.0000    1.1351    0.0000 C   0  0  3  0  0  0  0  0  0  0  0  0
    1.0270   -0.0721    0.0000 C   0  0  3  0  0  0  0  0  0  0  0  0
    1.8558   -0.0541    0.0000 C   0  0  3  0  0  0  0  0  0  0  0  0
   -0.7026    0.7208    0.0000 C   0  0  3  0  0  0  0  0  0  0  0  0
    2.2882   -0.7568    0.0000 C   0  0  3  0  0  0  0  0  0  0  0  0
    1.8738   -1.4775    0.0000 C   0  0  3  0  0  0  0  0  0  0  0  0
   -1.4414    1.1351    0.0000 C   0  0  3  0  0  0  0  0  0  0  0  0
    0.0000    1.9639    0.0000 C   0  0  3  0  0  0  0  0  0  0  0  0
    1.0270   -1.4954    0.0000 C   0  0  3  0  0  0  0  0  0  0  0  0
   -1.4234    1.9639    0.0000 C   0  0  3  0  0  0  0  0  0  0  0  0
    0.6305   -2.2342    0.0000 C   0  0  0  0  0  0  0  0  0  0  0  0
   -2.1440    2.3603    0.0000 C   0  0  0  0  0  0  0  0  0  0  0  0
    3.1530    0.6486    0.0000 C   0  0  0  0  0  0  0  0  0  0  0  0
   -1.4414   -0.5405    0.0000 C   0  0  0  0  0  0  0  0  0  0  0  0
    3.1350   -0.7748    0.0000 C   0  0  0  0  0  0  0  0  0  0  0  0
    1.9098   -2.9909    0.0000 C   0  0  0  0  0  0  0  0  0  0  0  0
   -2.8827    1.1171    0.0000 C   0  0  0  0  0  0  0  0  0  0  0  0
    1.7116    1.8738    0.0000 C   0  0  0  0  0  0  0  0  0  0  0  0
    0.7026   -3.7297    0.0000 C   0  0  0  0  0  0  0  0  0  0  0  0
    3.5494    1.3333    0.0000 C   0  0  0  0  0  0  0  0  0  0  0  0
   -1.4234   -1.3333    0.0000 C   0  0  0  0  0  0  0  0  0  0  0  0
   -2.9008    3.6035    0.0000 C   0  0  0  0  0  0  0  0  0  0  0  0
    2.3603   -3.6576    0.0000 C   0  0  0  0  0  0  0  0  0  0  0  0
   -3.5494    0.6846    0.0000 C   0  0  0  0  0  0  0  0  0  0  0  0
    2.3423    2.2703    0.0000 C   0  0  0  0  0  0  0  0  0  0  0  0
    1.1712   -4.3602    0.0000 C   0  0  0  0  0  0  0  0  0  0  0  0
   -3.5494    3.1530    0.0000 C   0  0  0  0  0  0  0  0  0  0  0  0
  1 45  1  0  0  0  0
 21  2  1  1  0  0  0
 22  2  1  6  0  0  0
  3 22  1  0  0  0  0
  3 29  1  0  0  0  0
  4 28  1  0  0  0  0
  4 30  1  0  0  0  0
 23  5  1  1  0  0  0
  5 33  1  0  0  0  0
 24  6  1  1  0  0  0
  6 34  1  0  0  0  0
 25  7  1  1  0  0  0
  7 35  1  0  0  0  0
 26  8  1  6  0  0  0
  8 36  1  0  0  0  0
 27  9  1  6  0  0  0
  9 37  1  0  0  0  0
 28 10  1  6  0  0  0
 10 38  1  0  0  0  0
 11 31  1  0  0  0  0
 11 39  1  0  0  0  0
 12 32  1  0  0  0  0
 12 42  1  0  0  0  0
 13 33  2  0  0  0  0
 14 34  2  0  0  0  0
 15 35  2  0  0  0  0
 16 36  2  0  0  0  0
 17 37  2  0  0  0  0
 18 39  2  0  0  0  0
 19 42  2  0  0  0  0
 20 35  1  0  0  0  0
 21 24  1  0  0  0  0
 21 28  1  0  0  0  0
 22 23  1  0  0  0  0
 23 25  1  0  0  0  0
 24 27  1  0  0  0  0
 25 26  1  0  0  0  0
 26 29  1  0  0  0  0
 27 30  1  0  0  0  0
 29 31  1  1  0  0  0
 30 32  1  6  0  0  0
 33 40  1  0  0  0  0
 34 41  1  0  0  0  0
 36 43  1  0  0  0  0
 37 44  1  0  0  0  0
 38 45  1  0  0  0  0
 39 46  1  0  0  0  0
 42 47  1  0  0  0  0
M  END
> <PUBCHEM_COMPOUND_ID_TYPE>
0

> <PUBCHEM_TOTAL_CHARGE>
0

> <PUBCHEM_SUBSTANCE_ID>
310948587

> <PUBCHEM_SUBSTANCE_VERSION>
1

> <PUBCHEM_EXT_DATASOURCE_NAME>
4488

> <PUBCHEM_EXT_DATASOURCE_REGID>
SCHEMBL16126770

> <PUBCHEM_SUBSTANCE_COMMENT>
InChI=1S/C27H38FNO18/c1-11(30)38-9-17-19(40-13(3)32)21(42-15(5)34)23(25(44-17)37-8-7-28)46-26-24(43-16(6)35)22(47-27(29)36)20(41-14(4)33)18(45-26)10-39-12(2)31/h17-26H,7-10H2,1-6H3,(H2,29,36)/t17-,18+,19+,20+,21-,22-,23-,24-,25-,26+/m0/s1
InChIKey=AEPHXTYCNRFFSK-VZJUMCRISA-N

> <PUBCHEM_SUBSTANCE_SYNONYM>
SCHEMBL16126770

> <PUBCHEM_XREF_EXT_ID>
SCHEMBL16126770

> <PUBCHEM_EXT_DATASOURCE_URL>
https://www.surechembl.org/

> <PUBCHEM_EXT_SUBSTANCE_URL>
https://www.surechembl.org/chemical/SCHEMBL16126770

> <PUBCHEM_CID_ASSOCIATIONS>
117614136  1

> <PUBCHEM_COORDINATE_TYPE>
1
3

> <PUBCHEM_BONDANNOTATIONS>
28  10  6
21  2  5
22  2  6
29  31  5
30  32  6
23  5  5
24  6  5
25  7  5
26  8  6
27  9  6

$$$$
