310948189
  -OEChem-07211613022D

 32 34  0     1  0  0  0  0  0999 V2000
    1.4822   -1.1767    0.0000 Br  0  0  0  0  0  0  0  0  0  0  0  0
    3.5657    2.3610    0.0000 F   0  0  0  0  0  0  0  0  0  0  0  0
    2.4471    2.0533    0.0000 F   0  0  0  0  0  0  0  0  0  0  0  0
    3.8314    1.2423    0.0000 F   0  0  0  0  0  0  0  0  0  0  0  0
   -1.8458    0.2356    0.0000 O   0  0  0  0  0  0  0  0  0  0  0  0
   -1.0208    1.6618    0.0000 O   0  0  0  0  0  0  0  0  0  0  0  0
    2.7407    0.9486    0.0000 O   0  0  0  0  0  0  0  0  0  0  0  0
   -3.8314   -0.2958    0.0000 O   0  0  0  0  0  0  0  0  0  0  0  0
   -3.8314   -0.2958    0.0000 O   0  0  0  0  0  0  0  0  0  0  0  0
   -1.8598   -1.1767    0.0000 N   0  0  0  0  0  0  0  0  0  0  0  0
   -2.3492   -0.5056    0.0000 N   0  0  0  0  0  0  0  0  0  0  0  0
   -1.0068   -1.1628    0.0000 C   0  0  0  0  0  0  0  0  0  0  0  0
   -0.5873   -0.4636    0.0000 C   0  0  0  0  0  0  0  0  0  0  0  0
   -1.0068    0.2495    0.0000 C   0  0  3  0  0  0  0  0  0  0  0  0
   -0.5873    0.9486    0.0000 C   0  0  0  0  0  0  0  0  0  0  0  0
    0.2377   -0.4636    0.0000 C   0  0  0  0  0  0  0  0  0  0  0  0
   -3.1322   -0.7573    0.0000 C   0  0  0  0  0  0  0  0  0  0  0  0
   -0.5873   -1.8899    0.0000 C   0  0  0  0  0  0  0  0  0  0  0  0
    0.2377    0.9626    0.0000 C   0  0  0  0  0  0  0  0  0  0  0  0
   -2.3352   -1.8340    0.0000 C   0  0  0  0  0  0  0  0  0  0  0  0
    0.6432   -1.1767    0.0000 C   0  0  0  0  0  0  0  0  0  0  0  0
   -3.1462   -1.5823    0.0000 C   0  0  0  0  0  0  0  0  0  0  0  0
    0.2377   -1.8899    0.0000 C   0  0  0  0  0  0  0  0  0  0  0  0
   -3.8314   -0.2958    0.0000 C   0  0  0  0  0  0  0  0  0  0  0  0
    0.6712    0.2495    0.0000 C   0  0  0  0  0  0  0  0  0  0  0  0
    0.6572    1.6618    0.0000 C   0  0  0  0  0  0  0  0  0  0  0  0
    1.9017    0.9626    0.0000 C   0  0  0  0  0  0  0  0  0  0  0  0
    1.4962    0.2495    0.0000 C   0  0  0  0  0  0  0  0  0  0  0  0
    1.4962    1.6618    0.0000 C   0  0  0  0  0  0  0  0  0  0  0  0
    3.1602    1.6478    0.0000 C   0  0  0  0  0  0  0  0  0  0  0  0
   -2.0694   -2.3610    0.0000 C   0  0  0  0  0  0  0  0  0  0  0  0
   -1.4821   -2.3610    0.0000 C   0  0  0  0  0  0  0  0  0  0  0  0
  1 21  1  0  0  0  0
  2 30  1  0  0  0  0
  3 30  1  0  0  0  0
  4 30  1  0  0  0  0
  5 14  1  0  0  0  0
  6 15  2  0  0  0  0
  7 27  1  0  0  0  0
  7 30  1  0  0  0  0
  8 24  1  0  0  0  0
  8 31  1  0  0  0  0
  9 24  2  0  0  0  0
 10 11  1  0  0  0  0
 10 12  1  0  0  0  0
 10 20  1  0  0  0  0
 11 17  2  0  0  0  0
 12 13  1  0  0  0  0
 12 18  2  0  0  0  0
 13 14  1  0  0  0  0
 13 16  2  0  0  0  0
 14 15  1  0  0  0  0
 15 19  1  0  0  0  0
 16 21  1  0  0  0  0
 17 22  1  0  0  0  0
 17 24  1  0  0  0  0
 18 23  1  0  0  0  0
 19 25  2  0  0  0  0
 19 26  1  0  0  0  0
 20 22  2  0  0  0  0
 21 23  2  0  0  0  0
 25 28  1  0  0  0  0
 26 29  2  0  0  0  0
 27 28  2  0  0  0  0
 27 29  1  0  0  0  0
 31 32  1  0  0  0  0
M  END
> <PUBCHEM_COMPOUND_ID_TYPE>
0

> <PUBCHEM_TOTAL_CHARGE>
0

> <PUBCHEM_SUBSTANCE_ID>
310948189

> <PUBCHEM_SUBSTANCE_VERSION>
1

> <PUBCHEM_EXT_DATASOURCE_NAME>
4488

> <PUBCHEM_EXT_DATASOURCE_REGID>
SCHEMBL16126366

> <PUBCHEM_SUBSTANCE_COMMENT>
InChI=1S/C21H16BrF3N2O5/c1-2-31-20(30)16-9-10-27(26-16)17-8-5-13(22)11-15(17)19(29)18(28)12-3-6-14(7-4-12)32-21(23,24)25/h3-11,19,29H,2H2,1H3
InChIKey=FEYOEKRWZGCCBP-UHFFFAOYSA-N

> <PUBCHEM_SUBSTANCE_SYNONYM>
SCHEMBL16126366

> <PUBCHEM_XREF_EXT_ID>
SCHEMBL16126366

> <PUBCHEM_EXT_DATASOURCE_URL>
https://www.surechembl.org/

> <PUBCHEM_EXT_SUBSTANCE_URL>
https://www.surechembl.org/chemical/SCHEMBL16126366

> <PUBCHEM_CID_ASSOCIATIONS>
117613771  1

> <PUBCHEM_COORDINATE_TYPE>
1
3

$$$$
