310946741
  -OEChem-07211613022D

 38 41  0     0  0  0  0  0  0999 V2000
   -0.6147    3.4779    0.0000 F   0  0  0  0  0  0  0  0  0  0  0  0
    0.1294    0.6956    0.0000 F   0  0  0  0  0  0  0  0  0  0  0  0
    2.1515    2.7176    0.0000 O   0  0  0  0  0  0  0  0  0  0  0  0
   -0.2912   -1.2941    0.0000 N   0  0  0  0  0  0  0  0  0  0  0  0
   -1.6985   -1.6661    0.0000 N   0  0  0  0  0  0  0  0  0  0  0  0
    0.7279   -2.3132    0.0000 N   0  0  0  0  0  0  0  0  0  0  0  0
   -1.2941    1.0677    0.0000 N   0  0  0  0  0  0  0  0  0  0  0  0
   -2.0544   -3.0574    0.0000 N   0  0  0  0  0  0  0  0  0  0  0  0
   -0.8088    0.4044    0.0000 N   0  0  0  0  0  0  0  0  0  0  0  0
   -0.4530   -3.4779    0.0000 N   0  0  0  0  0  0  0  0  0  0  0  0
   -2.0544   -3.0574    0.0000 N   0  0  0  0  0  0  0  0  0  0  0  0
    2.5074   -0.5662    0.0000 N   0  0  0  0  0  0  0  0  0  0  0  0
   -2.0544   -3.0574    0.0000 N   0  0  0  0  0  0  0  0  0  0  0  0
   -1.1162   -1.0353    0.0000 C   0  0  0  0  0  0  0  0  0  0  0  0
   -1.3265   -0.2427    0.0000 C   0  0  0  0  0  0  0  0  0  0  0  0
   -0.0809   -2.0544    0.0000 C   0  0  0  0  0  0  0  0  0  0  0  0
   -2.0868    0.0324    0.0000 C   0  0  0  0  0  0  0  0  0  0  0  0
   -0.6794   -2.6530    0.0000 C   0  0  0  0  0  0  0  0  0  0  0  0
   -1.4721   -2.4427    0.0000 C   0  0  0  0  0  0  0  0  0  0  0  0
   -2.0868    0.8411    0.0000 C   0  0  0  0  0  0  0  0  0  0  0  0
   -0.2912    2.1191    0.0000 C   0  0  0  0  0  0  0  0  0  0  0  0
   -2.8147   -0.3883    0.0000 C   0  0  0  0  0  0  0  0  0  0  0  0
   -0.0485    2.8955    0.0000 C   0  0  0  0  0  0  0  0  0  0  0  0
    0.3074    1.5206    0.0000 C   0  0  0  0  0  0  0  0  0  0  0  0
   -2.8147    1.2294    0.0000 C   0  0  0  0  0  0  0  0  0  0  0  0
   -1.0514    1.9088    0.0000 C   0  0  0  0  0  0  0  0  0  0  0  0
    1.3103   -1.6985    0.0000 C   0  0  0  0  0  0  0  0  0  0  0  0
    1.3426    2.5235    0.0000 C   0  0  0  0  0  0  0  0  0  0  0  0
    0.7441    3.1058    0.0000 C   0  0  0  0  0  0  0  0  0  0  0  0
    1.1162    1.7309    0.0000 C   0  0  0  0  0  0  0  0  0  0  0  0
   -3.5426    0.0000    0.0000 C   0  0  0  0  0  0  0  0  0  0  0  0
   -3.5426    0.8250    0.0000 C   0  0  0  0  0  0  0  0  0  0  0  0
    1.1162   -0.9221    0.0000 C   0  0  0  0  0  0  0  0  0  0  0  0
    2.1191   -1.9250    0.0000 C   0  0  0  0  0  0  0  0  0  0  0  0
    1.6985   -0.3235    0.0000 C   0  0  0  0  0  0  0  0  0  0  0  0
    2.7176   -1.3265    0.0000 C   0  0  0  0  0  0  0  0  0  0  0  0
    2.7662    2.1515    0.0000 C   0  0  0  0  0  0  0  0  0  0  0  0
    3.5426    2.3456    0.0000 C   0  0  0  0  0  0  0  0  0  0  0  0
  1 23  1  0  0  0  0
  2 24  1  0  0  0  0
  3 28  1  0  0  0  0
  3 37  1  0  0  0  0
  4 14  2  0  0  0  0
  4 16  1  0  0  0  0
  5 14  1  0  0  0  0
  5 19  2  0  0  0  0
  6 16  1  0  0  0  0
  6 27  1  0  0  0  0
  7 20  1  0  0  0  0
  7 26  1  0  0  0  0
  8 11  1  0  0  0  0
  8 19  1  0  0  0  0
  9 15  2  3  0  0  0
 10 18  1  0  0  0  0
 11 13  2  3  0  0  0
 12 35  2  0  0  0  0
 12 36  1  0  0  0  0
 14 15  1  0  0  0  0
 15 17  1  0  0  0  0
 16 18  2  0  0  0  0
 17 20  2  0  0  0  0
 17 22  1  0  0  0  0
 18 19  1  0  0  0  0
 20 25  1  0  0  0  0
 21 23  2  0  0  0  0
 21 24  1  0  0  0  0
 21 26  1  0  0  0  0
 22 31  2  0  0  0  0
 23 29  1  0  0  0  0
 24 30  2  0  0  0  0
 25 32  2  0  0  0  0
 27 33  2  0  0  0  0
 27 34  1  0  0  0  0
 28 29  2  0  0  0  0
 28 30  1  0  0  0  0
 31 32  1  0  0  0  0
 33 35  1  0  0  0  0
 34 36  2  0  0  0  0
 37 38  1  0  0  0  0
M  END
> <PUBCHEM_COMPOUND_ID_TYPE>
0

> <PUBCHEM_TOTAL_CHARGE>
0

> <PUBCHEM_SUBSTANCE_ID>
310946741

> <PUBCHEM_SUBSTANCE_VERSION>
1

> <PUBCHEM_EXT_DATASOURCE_NAME>
4488

> <PUBCHEM_EXT_DATASOURCE_REGID>
SCHEMBL16124865

> <PUBCHEM_SUBSTANCE_COMMENT>
InChI=1S/C25H24F2N10O/c1-2-38-15-11-18(26)17(19(27)12-15)13-32-20-6-4-3-5-16(20)21(28)23-34-24(22(29)25(35-23)36-37-30)33-14-7-9-31-10-8-14/h3-12,28,32H,2,13,29H2,1H3,(H3,30,31,33,34,35,36)
InChIKey=OUYAJOMRFVQKAV-UHFFFAOYSA-N

> <PUBCHEM_SUBSTANCE_SYNONYM>
SCHEMBL16124865

> <PUBCHEM_XREF_EXT_ID>
SCHEMBL16124865

> <PUBCHEM_EXT_DATASOURCE_URL>
https://www.surechembl.org/

> <PUBCHEM_EXT_SUBSTANCE_URL>
https://www.surechembl.org/chemical/SCHEMBL16124865

> <PUBCHEM_CID_ASSOCIATIONS>
117612626  1

> <PUBCHEM_COORDINATE_TYPE>
1
3

$$$$
