310946719
  -OEChem-07211613022D

 12 11  0     0  0  0  0  0  0999 V2000
    0.0000   -0.6211    0.0000 N   0  0  0  0  0  0  0  0  0  0  0  0
    1.4371   -0.6211    0.0000 N   0  0  0  0  0  0  0  0  0  0  0  0
    0.7185    0.6211    0.0000 N   0  0  0  0  0  0  0  0  0  0  0  0
   -1.4371   -0.6211    0.0000 N   0  0  0  0  0  0  0  0  0  0  0  0
    1.4371   -0.6211    0.0000 N   0  0  0  0  0  0  0  0  0  0  0  0
   -0.7185    0.6211    0.0000 N   0  0  0  0  0  0  0  0  0  0  0  0
   -1.4371   -0.6211    0.0000 N   0  0  0  0  0  0  0  0  0  0  0  0
    0.7185    0.6211    0.0000 N   0  0  0  0  0  0  0  0  0  0  0  0
    1.4371   -0.6211    0.0000 N   0  0  0  0  0  0  0  0  0  0  0  0
   -1.4371   -0.6211    0.0000 N   0  0  0  0  0  0  0  0  0  0  0  0
    0.7064   -0.1949    0.0000 C   0  0  0  0  0  0  0  0  0  0  0  0
   -0.7307   -0.1949    0.0000 C   0  0  0  0  0  0  0  0  0  0  0  0
  1 11  1  0  0  0  0
  1 12  1  0  0  0  0
  2  5  1  0  0  0  0
  2 11  1  0  0  0  0
  3  8  1  0  0  0  0
  3 11  2  3  0  0  0
  4  7  1  0  0  0  0
  4 12  1  0  0  0  0
  5  9  2  3  0  0  0
  6 12  2  3  0  0  0
  7 10  2  3  0  0  0
M  END
> <PUBCHEM_COMPOUND_ID_TYPE>
0

> <PUBCHEM_TOTAL_CHARGE>
0

> <PUBCHEM_SUBSTANCE_ID>
310946719

> <PUBCHEM_SUBSTANCE_VERSION>
1

> <PUBCHEM_EXT_DATASOURCE_NAME>
4488

> <PUBCHEM_EXT_DATASOURCE_REGID>
SCHEMBL16124843

> <PUBCHEM_SUBSTANCE_COMMENT>
InChI=1S/C2H8N10/c3-1(9-11-5)7-2(8-4)10-12-6/h4H2,(H6,3,5,6,7,8,9,10)
InChIKey=ZRPGTOIPKQPFKW-UHFFFAOYSA-N

> <PUBCHEM_SUBSTANCE_SYNONYM>
SCHEMBL16124843

> <PUBCHEM_XREF_EXT_ID>
SCHEMBL16124843

> <PUBCHEM_EXT_DATASOURCE_URL>
https://www.surechembl.org/

> <PUBCHEM_EXT_SUBSTANCE_URL>
https://www.surechembl.org/chemical/SCHEMBL16124843

> <PUBCHEM_CID_ASSOCIATIONS>
117612610  1

> <PUBCHEM_COORDINATE_TYPE>
1
3

$$$$
