310948990
  -OEChem-07211613022D

 12 12  0     0  0  0  0  0  0999 V2000
    1.3862   -1.2180    0.0000 F   0  0  0  0  0  0  0  0  0  0  0  0
   -0.0870    1.2296    0.0000 O   0  0  0  0  0  0  0  0  0  0  0  0
   -0.0870    1.2296    0.0000 O   0  0  0  0  0  0  0  0  0  0  0  0
   -0.0870    1.2296    0.0000 N   0  0  0  0  0  0  0  0  0  0  0  0
   -0.0754    0.3944    0.0000 C   0  0  0  0  0  0  0  0  0  0  0  0
   -0.7598   -0.0116    0.0000 C   0  0  0  0  0  0  0  0  0  0  0  0
   -0.0870    1.2296    0.0000 C   0  0  0  0  0  0  0  0  0  0  0  0
    0.6554    0.0116    0.0000 C   0  0  0  0  0  0  0  0  0  0  0  0
    0.6670   -0.8120    0.0000 C   0  0  0  0  0  0  0  0  0  0  0  0
   -0.7366   -0.8468    0.0000 C   0  0  0  0  0  0  0  0  0  0  0  0
   -0.0638   -1.2296    0.0000 C   0  0  0  0  0  0  0  0  0  0  0  0
   -1.3862    0.3132    0.0000 C   0  0  0  0  0  0  0  0  0  0  0  0
  1  9  1  0  0  0  0
  2  4  1  0  0  0  0
  2  7  1  0  0  0  0
  3  7  2  0  0  0  0
  5  6  1  0  0  0  0
  5  7  1  0  0  0  0
  5  8  2  0  0  0  0
  6 10  2  0  0  0  0
  6 12  1  0  0  0  0
  8  9  1  0  0  0  0
  9 11  2  0  0  0  0
 10 11  1  0  0  0  0
M  END
> <PUBCHEM_COMPOUND_ID_TYPE>
0

> <PUBCHEM_TOTAL_CHARGE>
0

> <PUBCHEM_SUBSTANCE_ID>
310948990

> <PUBCHEM_SUBSTANCE_VERSION>
1

> <PUBCHEM_EXT_DATASOURCE_NAME>
4488

> <PUBCHEM_EXT_DATASOURCE_REGID>
SCHEMBL16127178

> <PUBCHEM_SUBSTANCE_COMMENT>
InChI=1S/C8H8FNO2/c1-5-2-3-6(9)4-7(5)8(11)12-10/h2-4H,10H2,1H3
InChIKey=XUJZNPKFPGSMSZ-UHFFFAOYSA-N

> <PUBCHEM_SUBSTANCE_SYNONYM>
SCHEMBL16127178

> <PUBCHEM_XREF_EXT_ID>
SCHEMBL16127178

> <PUBCHEM_EXT_DATASOURCE_URL>
https://www.surechembl.org/

> <PUBCHEM_EXT_SUBSTANCE_URL>
https://www.surechembl.org/chemical/SCHEMBL16127178

> <PUBCHEM_CID_ASSOCIATIONS>
117614499  1

> <PUBCHEM_COORDINATE_TYPE>
1
3

$$$$
