310945529
  -OEChem-07211613022D

 19 20  0     0  0  0  0  0  0999 V2000
   -1.1085    1.6004    0.0000 F   0  0  0  0  0  0  0  0  0  0  0  0
   -0.3741    2.0160    0.0000 F   0  0  0  0  0  0  0  0  0  0  0  0
    0.3464    1.6004    0.0000 F   0  0  0  0  0  0  0  0  0  0  0  0
    0.3325   -0.0485    0.0000 N   0  0  0  0  0  0  0  0  0  0  0  0
   -0.4018   -1.2955    0.0000 N   0  0  0  0  0  0  0  0  0  0  0  0
   -1.8566    0.3672    0.0000 N   0  0  0  0  0  0  0  0  0  0  0  0
   -1.8566   -1.2955    0.0000 N   0  0  0  0  0  0  0  0  0  0  0  0
   -1.8566    0.3672    0.0000 N   0  0  0  0  0  0  0  0  0  0  0  0
   -1.8566   -1.2955    0.0000 N   0  0  0  0  0  0  0  0  0  0  0  0
   -1.8566    0.3672    0.0000 N   0  0  0  0  0  0  0  0  0  0  0  0
   -1.8566   -1.2955    0.0000 N   0  0  0  0  0  0  0  0  0  0  0  0
   -0.4018    0.3533    0.0000 C   0  0  0  0  0  0  0  0  0  0  0  0
   -1.1223   -0.0485    0.0000 C   0  0  0  0  0  0  0  0  0  0  0  0
    0.3048   -0.8937    0.0000 C   0  0  0  0  0  0  0  0  0  0  0  0
   -0.3880    1.1985    0.0000 C   0  0  0  0  0  0  0  0  0  0  0  0
   -1.1362   -0.8798    0.0000 C   0  0  0  0  0  0  0  0  0  0  0  0
    1.0669   -1.3232    0.0000 C   0  0  0  0  0  0  0  0  0  0  0  0
    1.8566   -1.3232    0.0000 C   0  0  0  0  0  0  0  0  0  0  0  0
    1.4410   -2.0160    0.0000 C   0  0  0  0  0  0  0  0  0  0  0  0
  1 15  1  0  0  0  0
  2 15  1  0  0  0  0
  3 15  1  0  0  0  0
  4 12  2  0  0  0  0
  4 14  1  0  0  0  0
  5 14  2  0  0  0  0
  5 16  1  0  0  0  0
  6  8  2  3  0  0  0
  6 13  1  0  0  0  0
  7  9  2  3  0  0  0
  7 16  1  0  0  0  0
  8 10  1  0  0  0  0
  9 11  1  0  0  0  0
 12 13  1  0  0  0  0
 12 15  1  0  0  0  0
 13 16  2  0  0  0  0
 14 17  1  0  0  0  0
 17 18  1  0  0  0  0
 17 19  1  0  0  0  0
 18 19  1  0  0  0  0
M  END
> <PUBCHEM_COMPOUND_ID_TYPE>
0

> <PUBCHEM_TOTAL_CHARGE>
0

> <PUBCHEM_SUBSTANCE_ID>
310945529

> <PUBCHEM_SUBSTANCE_VERSION>
1

> <PUBCHEM_EXT_DATASOURCE_NAME>
4488

> <PUBCHEM_EXT_DATASOURCE_REGID>
SCHEMBL16123627

> <PUBCHEM_SUBSTANCE_COMMENT>
InChI=1S/C8H9F3N8/c9-8(10,11)5-4(16-18-12)7(17-19-13)15-6(14-5)3-1-2-3/h3H,1-2H2,(H2,12,16)(H2,13,14,15,17)
InChIKey=UALZGHYUVHMKKR-UHFFFAOYSA-N

> <PUBCHEM_SUBSTANCE_SYNONYM>
SCHEMBL16123627

> <PUBCHEM_XREF_EXT_ID>
SCHEMBL16123627

> <PUBCHEM_EXT_DATASOURCE_URL>
https://www.surechembl.org/

> <PUBCHEM_EXT_SUBSTANCE_URL>
https://www.surechembl.org/chemical/SCHEMBL16123627

> <PUBCHEM_CID_ASSOCIATIONS>
117611570  1

> <PUBCHEM_COORDINATE_TYPE>
1
3

$$$$
