310941308
  -OEChem-07211613022D

 22 21  0     1  0  0  0  0  0999 V2000
    1.8882   -1.5551    0.0000 O   0  0  0  0  0  0  0  0  0  0  0  0
    1.3165    1.1005    0.0000 O   0  0  0  0  0  0  0  0  0  0  0  0
   -2.3594    1.6212    0.0000 O   0  0  0  0  0  0  0  0  0  0  0  0
    0.6119    2.3871    0.0000 O   0  0  0  0  0  0  0  0  0  0  0  0
    1.3823   -2.3871    0.0000 O   0  0  0  0  0  0  0  0  0  0  0  0
   -2.3594    1.6212    0.0000 O   0  0  0  0  0  0  0  0  0  0  0  0
   -0.1692    0.2887    0.0000 N   0  0  0  0  0  0  0  0  0  0  0  0
   -2.4054   -0.9212    0.0000 N   0  0  0  0  0  0  0  0  0  0  0  0
   -0.1386    1.1770    0.0000 C   0  0  3  0  0  0  0  0  0  0  0  0
   -1.6090    1.2077    0.0000 C   0  0  3  0  0  0  0  0  0  0  0  0
   -0.8890    1.6059    0.0000 C   0  0  0  0  0  0  0  0  0  0  0  0
    0.5966    1.5600    0.0000 C   0  0  0  0  0  0  0  0  0  0  0  0
    1.3823   -1.8474    0.0000 C   0  0  0  0  0  0  0  0  0  0  0  0
   -2.3594    1.6212    0.0000 C   0  0  0  0  0  0  0  0  0  0  0  0
    1.8995   -0.9930    0.0000 C   0  0  0  0  0  0  0  0  0  0  0  0
   -1.6549    0.3500    0.0000 C   0  0  0  0  0  0  0  0  0  0  0  0
    2.4054   -0.9705    0.0000 C   0  0  0  0  0  0  0  0  0  0  0  0
    1.3823   -0.9930    0.0000 C   0  0  0  0  0  0  0  0  0  0  0  0
    1.8882   -0.4421    0.0000 C   0  0  0  0  0  0  0  0  0  0  0  0
   -2.3594   -0.0329    0.0000 C   0  0  0  0  0  0  0  0  0  0  0  0
    2.0517    1.4834    0.0000 C   0  0  0  0  0  0  0  0  0  0  0  0
   -0.6014   -0.1918    0.0000 C   0  0  0  0  0  0  0  0  0  0  0  0
  1 13  1  0  0  0  0
  1 15  1  0  0  0  0
  2 12  1  0  0  0  0
  2 21  1  0  0  0  0
  3 14  1  0  0  0  0
  3 22  1  0  0  0  0
  4 12  2  0  0  0  0
  5 13  2  0  0  0  0
  6 14  2  0  0  0  0
  9  7  1  1  0  0  0
  7 13  1  0  0  0  0
  8 20  1  0  0  0  0
  9 11  1  0  0  0  0
  9 12  1  0  0  0  0
 10 11  1  0  0  0  0
 10 14  1  0  0  0  0
 10 16  1  0  0  0  0
 15 17  1  0  0  0  0
 15 18  1  0  0  0  0
 15 19  1  0  0  0  0
 16 20  1  0  0  0  0
M  END
> <PUBCHEM_COMPOUND_ID_TYPE>
0

> <PUBCHEM_TOTAL_CHARGE>
0

> <PUBCHEM_SUBSTANCE_ID>
310941308

> <PUBCHEM_SUBSTANCE_VERSION>
1

> <PUBCHEM_EXT_DATASOURCE_NAME>
4488

> <PUBCHEM_EXT_DATASOURCE_REGID>
SCHEMBL16119268

> <PUBCHEM_SUBSTANCE_COMMENT>
InChI=1S/C14H26N2O6/c1-14(2,3)22-13(19)16-10(12(18)21-5)8-9(6-7-15)11(17)20-4/h9-10H,6-8,15H2,1-5H3,(H,16,19)/t9?,10-/m0/s1
InChIKey=CWTLVGQWYBAHTL-AXDSSHIGSA-N

> <PUBCHEM_SUBSTANCE_SYNONYM>
SCHEMBL16119268

> <PUBCHEM_XREF_EXT_ID>
SCHEMBL16119268

> <PUBCHEM_EXT_DATASOURCE_URL>
https://www.surechembl.org/

> <PUBCHEM_EXT_SUBSTANCE_URL>
https://www.surechembl.org/chemical/SCHEMBL16119268

> <PUBCHEM_CID_ASSOCIATIONS>
117608156  1

> <PUBCHEM_COORDINATE_TYPE>
1
3

> <PUBCHEM_BONDANNOTATIONS>
9  7  5

$$$$
