310940785
  -OEChem-07211613022D

 26 26  0     1  0  0  0  0  0999 V2000
    0.2082   -3.6104    0.0000 O   0  0  0  0  0  0  0  0  0  0  0  0
    0.3451    1.9349    0.0000 O   0  0  0  0  0  0  0  0  0  0  0  0
   -0.3788   -1.8021    0.0000 O   0  0  0  0  0  0  0  0  0  0  0  0
   -0.3788   -1.8021    0.0000 O   0  0  0  0  0  0  0  0  0  0  0  0
   -0.2880   -4.4262    0.0000 O   0  0  0  0  0  0  0  0  0  0  0  0
   -1.8096   -1.8021    0.0000 N   0  0  0  0  0  0  0  0  0  0  0  0
   -0.3788   -0.1188    0.0000 C   0  0  0  0  0  0  0  0  0  0  0  0
   -1.1026   -1.3644    0.0000 C   0  0  3  0  0  0  0  0  0  0  0  0
    0.3451    1.1269    0.0000 C   0  0  0  0  0  0  0  0  0  0  0  0
   -1.0857   -0.5396    0.0000 C   0  0  0  0  0  0  0  0  0  0  0  0
   -0.3451    0.7060    0.0000 C   0  0  0  0  0  0  0  0  0  0  0  0
    1.0857    0.7060    0.0000 C   0  0  0  0  0  0  0  0  0  0  0  0
   -0.3788   -1.8021    0.0000 C   0  0  0  0  0  0  0  0  0  0  0  0
    0.3451   -0.5228    0.0000 C   0  0  0  0  0  0  0  0  0  0  0  0
   -0.2880   -3.8970    0.0000 C   0  0  0  0  0  0  0  0  0  0  0  0
    1.0689   -0.1188    0.0000 C   0  0  0  0  0  0  0  0  0  0  0  0
    0.2191   -3.0591    0.0000 C   0  0  0  0  0  0  0  0  0  0  0  0
    1.8096    1.1438    0.0000 C   0  0  0  0  0  0  0  0  0  0  0  0
   -0.3451    2.3389    0.0000 C   0  0  0  0  0  0  0  0  0  0  0  0
    0.7153   -3.0370    0.0000 C   0  0  0  0  0  0  0  0  0  0  0  0
   -0.2880   -3.0591    0.0000 C   0  0  0  0  0  0  0  0  0  0  0  0
    0.2082   -2.5188    0.0000 C   0  0  0  0  0  0  0  0  0  0  0  0
    1.3482   -3.5831    0.0000 C   0  0  0  0  0  0  0  0  0  0  0  0
   -0.3282    3.1806    0.0000 C   0  0  0  0  0  0  0  0  0  0  0  0
   -1.0521    3.6014    0.0000 C   0  0  0  0  0  0  0  0  0  0  0  0
   -1.0352    4.4262    0.0000 C   0  0  0  0  0  0  0  0  0  0  0  0
  1 15  1  0  0  0  0
  1 17  1  0  0  0  0
  2  9  1  0  0  0  0
  2 19  1  0  0  0  0
  3 13  1  0  0  0  0
  3 23  1  0  0  0  0
  4 13  2  0  0  0  0
  5 15  2  0  0  0  0
  8  6  1  1  0  0  0
  6 15  1  0  0  0  0
  7 10  1  0  0  0  0
  7 11  2  0  0  0  0
  7 14  1  0  0  0  0
  8 10  1  0  0  0  0
  8 13  1  0  0  0  0
  9 11  1  0  0  0  0
  9 12  2  0  0  0  0
 12 16  1  0  0  0  0
 12 18  1  0  0  0  0
 14 16  2  0  0  0  0
 17 20  1  0  0  0  0
 17 21  1  0  0  0  0
 17 22  1  0  0  0  0
 19 24  1  0  0  0  0
 24 25  1  0  0  0  0
 25 26  1  0  0  0  0
M  END
> <PUBCHEM_COMPOUND_ID_TYPE>
0

> <PUBCHEM_TOTAL_CHARGE>
0

> <PUBCHEM_SUBSTANCE_ID>
310940785

> <PUBCHEM_SUBSTANCE_VERSION>
1

> <PUBCHEM_EXT_DATASOURCE_NAME>
4488

> <PUBCHEM_EXT_DATASOURCE_REGID>
SCHEMBL16118744

> <PUBCHEM_SUBSTANCE_COMMENT>
InChI=1S/C20H31NO5/c1-7-8-11-25-17-13-15(10-9-14(17)2)12-16(18(22)24-6)21-19(23)26-20(3,4)5/h9-10,13,16H,7-8,11-12H2,1-6H3,(H,21,23)/t16-/m0/s1
InChIKey=HSOQRIOFOQREHN-INIZCTEOSA-N

> <PUBCHEM_SUBSTANCE_SYNONYM>
SCHEMBL16118744

> <PUBCHEM_XREF_EXT_ID>
SCHEMBL16118744

> <PUBCHEM_EXT_DATASOURCE_URL>
https://www.surechembl.org/

> <PUBCHEM_EXT_SUBSTANCE_URL>
https://www.surechembl.org/chemical/SCHEMBL16118744

> <PUBCHEM_CID_ASSOCIATIONS>
117607736  1

> <PUBCHEM_COORDINATE_TYPE>
1
3

> <PUBCHEM_BONDANNOTATIONS>
8  6  5

$$$$
