310947827
  -OEChem-07211613022D

 37 39  0     1  0  0  0  0  0999 V2000
    1.4452   -1.5025    0.0000 O   0  0  0  0  0  0  0  0  0  0  0  0
    3.7224   -1.5025    0.0000 O   0  0  0  0  0  0  0  0  0  0  0  0
   -0.3065    1.3128    0.0000 O   0  0  0  0  0  0  0  0  0  0  0  0
    1.1448    2.1386    0.0000 O   0  0  0  0  0  0  0  0  0  0  0  0
   -1.9420    0.1626    0.0000 O   0  0  0  0  0  0  0  0  0  0  0  0
   -1.9394   -1.2911    0.0000 O   0  0  0  0  0  0  0  0  0  0  0  0
   -2.4567   -0.6838    0.0000 O   0  0  0  0  0  0  0  0  0  0  0  0
   -2.4548   -2.1386    0.0000 O   0  0  0  0  0  0  0  0  0  0  0  0
    1.8831    0.0615    0.0000 N   0  0  0  0  0  0  0  0  0  0  0  0
    3.3345   -0.7768    0.0000 N   0  0  0  0  0  0  0  0  0  0  0  0
    0.4442    0.8998    0.0000 N   0  0  0  0  0  0  0  0  0  0  0  0
   -2.7840    1.3128    0.0000 N   0  0  0  0  0  0  0  0  0  0  0  0
   -4.0352    2.0385    0.0000 N   0  0  0  0  0  0  0  0  0  0  0  0
   -4.0352    0.5871    0.0000 N   0  0  0  0  0  0  0  0  0  0  0  0
    1.8831   -0.7392    0.0000 C   0  0  0  0  0  0  0  0  0  0  0  0
    3.3720    0.0866    0.0000 C   0  0  3  0  0  0  0  0  0  0  0  0
    1.8831    0.8874    0.0000 C   0  0  3  0  0  0  0  0  0  0  0  0
    2.6088   -0.3513    0.0000 C   0  0  0  0  0  0  0  0  0  0  0  0
    3.3220    0.8998    0.0000 C   0  0  0  0  0  0  0  0  0  0  0  0
    2.5963    1.3128    0.0000 C   0  0  0  0  0  0  0  0  0  0  0  0
    1.1198    1.2878    0.0000 C   0  0  0  0  0  0  0  0  0  0  0  0
   -3.6223    1.3003    0.0000 C   0  0  0  0  0  0  0  0  0  0  0  0
   -1.1323    1.3253    0.0000 C   0  0  0  0  0  0  0  0  0  0  0  0
   -2.3711    0.5871    0.0000 C   0  0  0  0  0  0  0  0  0  0  0  0
   -2.3711    2.0385    0.0000 C   0  0  0  0  0  0  0  0  0  0  0  0
   -1.5453    0.5871    0.0000 C   0  0  0  0  0  0  0  0  0  0  0  0
   -1.5328    2.0261    0.0000 C   0  0  0  0  0  0  0  0  0  0  0  0
   -2.4567   -0.1348    0.0000 C   0  0  0  0  0  0  0  0  0  0  0  0
   -2.4548   -1.5888    0.0000 C   0  0  0  0  0  0  0  0  0  0  0  0
   -1.9306    0.7345    0.0000 C   0  0  0  0  0  0  0  0  0  0  0  0
   -1.9280   -0.7185    0.0000 C   0  0  0  0  0  0  0  0  0  0  0  0
   -1.4159    0.7575    0.0000 C   0  0  0  0  0  0  0  0  0  0  0  0
   -2.4567    0.7345    0.0000 C   0  0  0  0  0  0  0  0  0  0  0  0
   -1.9420    1.2950    0.0000 C   0  0  0  0  0  0  0  0  0  0  0  0
   -1.4126   -0.6956    0.0000 C   0  0  0  0  0  0  0  0  0  0  0  0
   -2.4548   -0.7185    0.0000 C   0  0  0  0  0  0  0  0  0  0  0  0
   -1.9394   -0.1573    0.0000 C   0  0  0  0  0  0  0  0  0  0  0  0
  1 15  2  0  0  0  0
  2 10  1  0  0  0  0
  3 11  1  0  0  0  0
  3 23  1  0  0  0  0
  4 21  2  0  0  0  0
  5 28  1  0  0  0  0
  5 30  1  0  0  0  0
  6 29  1  0  0  0  0
  6 31  1  0  0  0  0
  7 28  2  0  0  0  0
  8 29  2  0  0  0  0
  9 15  1  0  0  0  0
  9 17  1  0  0  0  0
  9 18  1  0  0  0  0
 10 15  1  0  0  0  0
 10 16  1  0  0  0  0
 11 21  1  0  0  0  0
 12 22  1  0  0  0  0
 12 24  1  0  0  0  0
 12 25  1  0  0  0  0
 13 22  2  0  0  0  0
 13 28  1  0  0  0  0
 14 22  1  0  0  0  0
 14 29  1  0  0  0  0
 16 18  1  6  0  0  0
 16 19  1  0  0  0  0
 17 20  1  0  0  0  0
 17 21  1  6  0  0  0
 19 20  1  0  0  0  0
 23 26  1  0  0  0  0
 23 27  1  0  0  0  0
 24 26  1  0  0  0  0
 25 27  1  0  0  0  0
 30 32  1  0  0  0  0
 30 33  1  0  0  0  0
 30 34  1  0  0  0  0
 31 35  1  0  0  0  0
 31 36  1  0  0  0  0
 31 37  1  0  0  0  0
M  END
> <PUBCHEM_COMPOUND_ID_TYPE>
0

> <PUBCHEM_TOTAL_CHARGE>
0

> <PUBCHEM_SUBSTANCE_ID>
310947827

> <PUBCHEM_SUBSTANCE_VERSION>
1

> <PUBCHEM_EXT_DATASOURCE_NAME>
4488

> <PUBCHEM_EXT_DATASOURCE_REGID>
SCHEMBL16125999

> <PUBCHEM_SUBSTANCE_COMMENT>
InChI=1S/C23H38N6O8/c1-22(2,3)35-19(31)24-18(25-20(32)36-23(4,5)6)27-11-9-15(10-12-27)37-26-17(30)16-8-7-14-13-28(16)21(33)29(14)34/h14-16,34H,7-13H2,1-6H3,(H,26,30)(H,24,25,31,32)/t14-,16+/m1/s1
InChIKey=XFRKRUKOBZXRQA-ZBFHGGJFSA-N

> <PUBCHEM_SUBSTANCE_SYNONYM>
SCHEMBL16125999

> <PUBCHEM_XREF_EXT_ID>
SCHEMBL16125999

> <PUBCHEM_EXT_DATASOURCE_URL>
https://www.surechembl.org/

> <PUBCHEM_EXT_SUBSTANCE_URL>
https://www.surechembl.org/chemical/SCHEMBL16125999

> <PUBCHEM_CID_ASSOCIATIONS>
117613494  1

> <PUBCHEM_COORDINATE_TYPE>
1
3

> <PUBCHEM_BONDANNOTATIONS>
16  18  6
17  21  6

$$$$
