310943804
  -OEChem-07211613022D

 24 26  0     1  0  0  0  0  0999 V2000
    3.7447    2.0135    0.0000 O   0  0  0  0  0  0  0  0  0  0  0  0
   -1.9646   -1.5467    0.0000 N   0  0  3  0  0  0  0  0  0  0  0  0
   -3.7447   -1.0041    0.0000 N   0  0  3  0  0  0  0  0  0  0  0  0
    0.9009   -0.7001    0.0000 C   0  0  0  0  0  0  0  0  0  0  0  0
    1.5956   -0.2876    0.0000 C   0  0  0  0  0  0  0  0  0  0  0  0
    0.8900   -1.5250    0.0000 C   0  0  0  0  0  0  0  0  0  0  0  0
   -0.5318   -1.5359    0.0000 C   0  0  0  0  0  0  0  0  0  0  0  0
    0.1954   -1.9375    0.0000 C   0  0  0  0  0  0  0  0  0  0  0  0
    0.1845   -0.2985    0.0000 C   0  0  0  0  0  0  0  0  0  0  0  0
   -0.5210   -0.7001    0.0000 C   0  0  0  0  0  0  0  0  0  0  0  0
   -1.2374   -1.9484    0.0000 C   0  0  0  0  0  0  0  0  0  0  0  0
    2.3228   -0.6892    0.0000 C   0  0  0  0  0  0  0  0  0  0  0  0
    1.6064    0.5373    0.0000 C   0  0  0  0  0  0  0  0  0  0  0  0
    3.0392    0.5590    0.0000 C   0  0  0  0  0  0  0  0  0  0  0  0
    3.0283   -0.2768    0.0000 C   0  0  0  0  0  0  0  0  0  0  0  0
    2.3011    0.9498    0.0000 C   0  0  0  0  0  0  0  0  0  0  0  0
    1.6173   -1.9375    0.0000 C   0  0  0  0  0  0  0  0  0  0  0  0
   -2.6484   -2.0135    0.0000 C   0  0  0  0  0  0  0  0  0  0  0  0
   -1.8995   -0.7218    0.0000 C   0  0  0  0  0  0  0  0  0  0  0  0
   -3.4300   -1.7747    0.0000 C   0  0  0  0  0  0  0  0  0  0  0  0
   -2.5399   -0.1682    0.0000 C   0  0  0  0  0  0  0  0  0  0  0  0
    3.7447    0.9823    0.0000 C   0  0  0  0  0  0  0  0  0  0  0  0
   -3.3323   -0.2876    0.0000 C   0  0  0  0  0  0  0  0  0  0  0  0
   -3.7447   -1.0041    0.0000 C   0  0  0  0  0  0  0  0  0  0  0  0
  1 22  1  0  0  0  0
  2 11  1  0  0  0  0
  2 18  1  0  0  0  0
  2 19  1  0  0  0  0
  3 20  1  0  0  0  0
  3 23  1  0  0  0  0
  3 24  1  0  0  0  0
  4  5  1  0  0  0  0
  4  6  1  0  0  0  0
  4  9  2  0  0  0  0
  5 12  2  0  0  0  0
  5 13  1  0  0  0  0
  6  8  2  0  0  0  0
  6 17  1  0  0  0  0
  7  8  1  0  0  0  0
  7 10  2  0  0  0  0
  7 11  1  0  0  0  0
  9 10  1  0  0  0  0
 12 15  1  0  0  0  0
 13 16  2  0  0  0  0
 14 15  2  0  0  0  0
 14 16  1  0  0  0  0
 14 22  1  0  0  0  0
 18 20  1  0  0  0  0
 19 21  1  0  0  0  0
 21 23  1  0  0  0  0
M  END
> <PUBCHEM_COMPOUND_ID_TYPE>
0

> <PUBCHEM_TOTAL_CHARGE>
0

> <PUBCHEM_SUBSTANCE_ID>
310943804

> <PUBCHEM_SUBSTANCE_VERSION>
1

> <PUBCHEM_EXT_DATASOURCE_NAME>
4488

> <PUBCHEM_EXT_DATASOURCE_REGID>
SCHEMBL16121875

> <PUBCHEM_SUBSTANCE_COMMENT>
InChI=1S/C21H28N2O/c1-17-14-19(15-23-11-3-10-22(2)12-13-23)6-9-21(17)20-7-4-18(16-24)5-8-20/h4-9,14,24H,3,10-13,15-16H2,1-2H3
InChIKey=VZBOYKKWECRKAD-UHFFFAOYSA-N

> <PUBCHEM_SUBSTANCE_SYNONYM>
SCHEMBL16121875

> <PUBCHEM_XREF_EXT_ID>
SCHEMBL16121875

> <PUBCHEM_EXT_DATASOURCE_URL>
https://www.surechembl.org/

> <PUBCHEM_EXT_SUBSTANCE_URL>
https://www.surechembl.org/chemical/SCHEMBL16121875

> <PUBCHEM_CID_ASSOCIATIONS>
117610157  1

> <PUBCHEM_COORDINATE_TYPE>
1
3

$$$$
