310940299
  -OEChem-07211613022D

 37 41  0     0  0  0  0  0  0999 V2000
   -0.7880   -4.0895    0.0000 S   0  0  0  0  0  0  0  0  0  0  0  0
    1.8664    4.8028    0.0000 F   0  0  0  0  0  0  0  0  0  0  0  0
   -0.3732   -4.8028    0.0000 F   0  0  0  0  0  0  0  0  0  0  0  0
   -0.3732   -4.8028    0.0000 F   0  0  0  0  0  0  0  0  0  0  0  0
   -2.8618    0.4728    0.0000 O   0  0  0  0  0  0  0  0  0  0  0  0
   -0.0746   -3.6747    0.0000 O   0  0  0  0  0  0  0  0  0  0  0  0
   -1.5180   -4.4876    0.0000 O   0  0  0  0  0  0  0  0  0  0  0  0
   -0.0913    0.3235    0.0000 N   0  0  0  0  0  0  0  0  0  0  0  0
   -0.4396   -0.4231    0.0000 N   0  0  0  0  0  0  0  0  0  0  0  0
   -1.8166   -0.9540    0.0000 N   0  0  0  0  0  0  0  0  0  0  0  0
   -2.1484    1.7005    0.0000 N   0  0  0  0  0  0  0  0  0  0  0  0
    1.3521    2.8950    0.0000 N   0  0  0  0  0  0  0  0  0  0  0  0
    2.8618    0.2074    0.0000 N   0  0  0  0  0  0  0  0  0  0  0  0
    0.6719    0.5060    0.0000 C   0  0  0  0  0  0  0  0  0  0  0  0
   -0.7051    0.8876    0.0000 C   0  0  0  0  0  0  0  0  0  0  0  0
   -1.4184    0.4728    0.0000 C   0  0  0  0  0  0  0  0  0  0  0  0
   -1.2526   -0.3235    0.0000 C   0  0  0  0  0  0  0  0  0  0  0  0
   -2.1318    0.9041    0.0000 C   0  0  0  0  0  0  0  0  0  0  0  0
    0.1410    1.0866    0.0000 C   0  0  0  0  0  0  0  0  0  0  0  0
    1.5014    0.7217    0.0000 C   0  0  0  0  0  0  0  0  0  0  0  0
   -0.7051    1.7005    0.0000 C   0  0  0  0  0  0  0  0  0  0  0  0
    1.2526   -0.1244    0.0000 C   0  0  0  0  0  0  0  0  0  0  0  0
    1.1364    2.0821    0.0000 C   0  0  0  0  0  0  0  0  0  0  0  0
    0.3567    1.8829    0.0000 C   0  0  0  0  0  0  0  0  0  0  0  0
    1.7171    1.5180    0.0000 C   0  0  0  0  0  0  0  0  0  0  0  0
   -1.5512   -1.7171    0.0000 C   0  0  0  0  0  0  0  0  0  0  0  0
   -1.4350    2.1152    0.0000 C   0  0  0  0  0  0  0  0  0  0  0  0
   -1.0369   -3.3097    0.0000 C   0  0  0  0  0  0  0  0  0  0  0  0
    2.0654    0.0581    0.0000 C   0  0  0  0  0  0  0  0  0  0  0  0
   -2.0986   -2.3475    0.0000 C   0  0  0  0  0  0  0  0  0  0  0  0
   -0.7548   -1.9161    0.0000 C   0  0  0  0  0  0  0  0  0  0  0  0
    2.0654    3.2932    0.0000 C   0  0  0  0  0  0  0  0  0  0  0  0
    0.9373    3.6083    0.0000 C   0  0  0  0  0  0  0  0  0  0  0  0
    1.6341    4.0065    0.0000 C   0  0  0  0  0  0  0  0  0  0  0  0
   -1.8498   -3.1272    0.0000 C   0  0  0  0  0  0  0  0  0  0  0  0
   -0.5060   -2.6959    0.0000 C   0  0  0  0  0  0  0  0  0  0  0  0
   -0.3732   -4.8028    0.0000 C   0  0  0  0  0  0  0  0  0  0  0  0
  1  6  2  0  0  0  0
  1  7  2  0  0  0  0
  1 28  1  0  0  0  0
  1 37  1  0  0  0  0
  2 34  1  0  0  0  0
  3 37  1  0  0  0  0
  4 37  1  0  0  0  0
  5 18  2  0  0  0  0
  8  9  1  0  0  0  0
  8 14  1  0  0  0  0
  8 15  1  0  0  0  0
  9 17  2  0  0  0  0
 10 17  1  0  0  0  0
 10 26  1  0  0  0  0
 11 18  1  0  0  0  0
 11 27  1  0  0  0  0
 23 12  1  1  0  0  0
 12 32  1  0  0  0  0
 12 33  1  0  0  0  0
 13 29  3  0  0  0  0
 14 19  1  0  0  0  0
 14 20  1  0  0  0  0
 14 22  1  6  0  0  0
 15 16  2  0  0  0  0
 15 21  1  0  0  0  0
 16 17  1  0  0  0  0
 16 18  1  0  0  0  0
 19 24  1  0  0  0  0
 20 25  1  0  0  0  0
 21 27  2  0  0  0  0
 22 29  1  0  0  0  0
 23 24  1  0  0  0  0
 23 25  1  0  0  0  0
 26 30  2  0  0  0  0
 26 31  1  0  0  0  0
 28 35  2  0  0  0  0
 28 36  1  0  0  0  0
 30 35  1  0  0  0  0
 31 36  2  0  0  0  0
 32 34  1  0  0  0  0
 33 34  1  0  0  0  0
M  END
> <PUBCHEM_COMPOUND_ID_TYPE>
0

> <PUBCHEM_TOTAL_CHARGE>
0

> <PUBCHEM_SUBSTANCE_ID>
310940299

> <PUBCHEM_SUBSTANCE_VERSION>
1

> <PUBCHEM_EXT_DATASOURCE_NAME>
4488

> <PUBCHEM_EXT_DATASOURCE_REGID>
SCHEMBL16118242

> <PUBCHEM_SUBSTANCE_COMMENT>
InChI=1S/C24H25F3N6O3S/c25-15-13-32(14-15)17-5-8-24(9-6-17,10-11-28)33-19-7-12-29-22(34)20(19)21(31-33)30-16-1-3-18(4-2-16)37(35,36)23(26)27/h1-4,7,12,15,17,23H,5-6,8-10,13-14H2,(H,29,34)(H,30,31)/t17-,24+
InChIKey=WISDJQVWPWYDHB-SMQSCJQKSA-N

> <PUBCHEM_SUBSTANCE_SYNONYM>
SCHEMBL16118242

> <PUBCHEM_XREF_EXT_ID>
SCHEMBL16118242

> <PUBCHEM_EXT_DATASOURCE_URL>
https://www.surechembl.org/

> <PUBCHEM_EXT_SUBSTANCE_URL>
https://www.surechembl.org/chemical/SCHEMBL16118242

> <PUBCHEM_CID_ASSOCIATIONS>
86275051  1

> <PUBCHEM_COORDINATE_TYPE>
1
3

> <PUBCHEM_BONDANNOTATIONS>
23  12  5
14  22  6

$$$$
