310948119
  -OEChem-07211613022D

 45 49  0     0  0  0  0  0  0999 V2000
   -1.9963   -2.8397    0.0000 S   0  0  0  0  0  0  0  0  0  0  0  0
   -1.7901    1.5464    0.0000 F   0  0  0  0  0  0  0  0  0  0  0  0
   -2.7835    2.0525    0.0000 F   0  0  0  0  0  0  0  0  0  0  0  0
   -2.2587    3.0459    0.0000 F   0  0  0  0  0  0  0  0  0  0  0  0
    0.8904   -2.8397    0.0000 F   0  0  0  0  0  0  0  0  0  0  0  0
    2.3524   -2.2962    0.0000 F   0  0  0  0  0  0  0  0  0  0  0  0
    2.3524   -2.2962    0.0000 F   0  0  0  0  0  0  0  0  0  0  0  0
    2.2212    1.5464    0.0000 O   0  0  0  0  0  0  0  0  0  0  0  0
   -2.3711   -2.1837    0.0000 O   0  0  0  0  0  0  0  0  0  0  0  0
   -1.5839   -3.5333    0.0000 O   0  0  0  0  0  0  0  0  0  0  0  0
    2.3524   -2.2962    0.0000 O   0  0  0  0  0  0  0  0  0  0  0  0
   -1.3027   -4.0394    0.0000 O   0  0  0  0  0  0  0  0  0  0  0  0
   -0.5530    2.0900    0.0000 N   0  0  0  0  0  0  0  0  0  0  0  0
    0.1218    2.5773    0.0000 N   0  0  0  0  0  0  0  0  0  0  0  0
    0.9841    2.0900    0.0000 N   0  0  0  0  0  0  0  0  0  0  0  0
    0.1781    0.8716    0.0000 C   0  0  0  0  0  0  0  0  0  0  0  0
   -0.5530    1.2652    0.0000 C   0  0  0  0  0  0  0  0  0  0  0  0
    0.8904    1.2840    0.0000 C   0  0  0  0  0  0  0  0  0  0  0  0
   -1.2465    2.5773    0.0000 C   0  0  0  0  0  0  0  0  0  0  0  0
    1.6589    0.9278    0.0000 C   0  0  0  0  0  0  0  0  0  0  0  0
   -0.5530   -0.3655    0.0000 C   0  0  0  0  0  0  0  0  0  0  0  0
    0.1593    0.0281    0.0000 C   0  0  0  0  0  0  0  0  0  0  0  0
   -0.5717   -1.1903    0.0000 C   0  0  0  0  0  0  0  0  0  0  0  0
   -1.2465    0.8529    0.0000 C   0  0  0  0  0  0  0  0  0  0  0  0
   -2.0337    2.3149    0.0000 C   0  0  0  0  0  0  0  0  0  0  0  0
   -1.2652    0.0281    0.0000 C   0  0  0  0  0  0  0  0  0  0  0  0
   -0.9653    3.3646    0.0000 C   0  0  0  0  0  0  0  0  0  0  0  0
   -0.1406    3.3458    0.0000 C   0  0  0  0  0  0  0  0  0  0  0  0
    1.8276    0.1406    0.0000 C   0  0  0  0  0  0  0  0  0  0  0  0
   -1.2840   -2.4274    0.0000 C   0  0  0  0  0  0  0  0  0  0  0  0
    1.8088    2.2399    0.0000 C   0  0  0  0  0  0  0  0  0  0  0  0
   -1.2465   -1.6026    0.0000 C   0  0  0  0  0  0  0  0  0  0  0  0
   -0.5530   -2.8397    0.0000 C   0  0  0  0  0  0  0  0  0  0  0  0
    0.1593   -1.6214    0.0000 C   0  0  0  0  0  0  0  0  0  0  0  0
    0.1593   -2.4274    0.0000 C   0  0  0  0  0  0  0  0  0  0  0  0
    1.2465   -0.4030    0.0000 C   0  0  0  0  0  0  0  0  0  0  0  0
    2.6148   -0.1218    0.0000 C   0  0  0  0  0  0  0  0  0  0  0  0
   -0.5717   -3.6832    0.0000 C   0  0  0  0  0  0  0  0  0  0  0  0
    0.3468    4.0394    0.0000 C   0  0  0  0  0  0  0  0  0  0  0  0
    2.1650    3.0272    0.0000 C   0  0  0  0  0  0  0  0  0  0  0  0
    1.3964   -1.2277    0.0000 C   0  0  0  0  0  0  0  0  0  0  0  0
    2.7835   -0.9278    0.0000 C   0  0  0  0  0  0  0  0  0  0  0  0
    2.1837   -1.4714    0.0000 C   0  0  0  0  0  0  0  0  0  0  0  0
   -2.6523   -3.2334    0.0000 C   0  0  0  0  0  0  0  0  0  0  0  0
    2.3524   -2.2962    0.0000 C   0  0  0  0  0  0  0  0  0  0  0  0
  1  9  2  0  0  0  0
  1 10  2  0  0  0  0
  1 30  1  0  0  0  0
  1 44  1  0  0  0  0
  2 25  1  0  0  0  0
  3 25  1  0  0  0  0
  4 25  1  0  0  0  0
  5 35  1  0  0  0  0
  6 45  1  0  0  0  0
  7 45  1  0  0  0  0
  8 20  1  0  0  0  0
  8 31  1  0  0  0  0
 11 43  1  0  0  0  0
 11 45  1  0  0  0  0
 12 38  1  0  0  0  0
 13 14  1  0  0  0  0
 13 17  1  0  0  0  0
 13 19  1  0  0  0  0
 14 28  2  0  0  0  0
 15 18  1  0  0  0  0
 15 31  2  0  0  0  0
 16 17  2  0  0  0  0
 16 18  1  0  0  0  0
 16 22  1  0  0  0  0
 17 24  1  0  0  0  0
 18 20  2  0  0  0  0
 19 25  1  0  0  0  0
 19 27  2  0  0  0  0
 20 29  1  0  0  0  0
 21 22  2  0  0  0  0
 21 23  1  0  0  0  0
 21 26  1  0  0  0  0
 23 32  2  0  0  0  0
 23 34  1  0  0  0  0
 24 26  2  0  0  0  0
 27 28  1  0  0  0  0
 28 39  1  0  0  0  0
 29 36  2  0  0  0  0
 29 37  1  0  0  0  0
 30 32  1  0  0  0  0
 30 33  2  0  0  0  0
 31 40  1  0  0  0  0
 33 35  1  0  0  0  0
 33 38  1  0  0  0  0
 34 35  2  0  0  0  0
 36 41  1  0  0  0  0
 37 42  2  0  0  0  0
 41 43  2  0  0  0  0
 42 43  1  0  0  0  0
M  END
> <PUBCHEM_COMPOUND_ID_TYPE>
0

> <PUBCHEM_TOTAL_CHARGE>
0

> <PUBCHEM_SUBSTANCE_ID>
310948119

> <PUBCHEM_SUBSTANCE_VERSION>
1

> <PUBCHEM_EXT_DATASOURCE_NAME>
4488

> <PUBCHEM_EXT_DATASOURCE_REGID>
SCHEMBL16126295

> <PUBCHEM_SUBSTANCE_COMMENT>
InChI=1S/C30H23F6N3O5S/c1-15-10-26(30(34,35)36)39(38-15)24-9-6-18(19-12-23(31)22(14-40)25(13-19)45(3,41)42)11-21(24)27-28(43-16(2)37-27)17-4-7-20(8-5-17)44-29(32)33/h4-13,29,40H,14H2,1-3H3
InChIKey=VPPUOKLBLKIZGE-UHFFFAOYSA-N

> <PUBCHEM_SUBSTANCE_SYNONYM>
SCHEMBL16126295

> <PUBCHEM_XREF_EXT_ID>
SCHEMBL16126295

> <PUBCHEM_EXT_DATASOURCE_URL>
https://www.surechembl.org/

> <PUBCHEM_EXT_SUBSTANCE_URL>
https://www.surechembl.org/chemical/SCHEMBL16126295

> <PUBCHEM_CID_ASSOCIATIONS>
117613736  1

> <PUBCHEM_COORDINATE_TYPE>
1
3

$$$$
