310940780
  -OEChem-07211613022D

 17 17  0     0  0  0  0  0  0999 V2000
    2.1555    2.0133    0.0000 I   0  0  0  0  0  0  0  0  0  0  0  0
   -0.8383   -2.0133    0.0000 S   0  0  0  0  0  0  0  0  0  0  0  0
    1.4221    0.7560    0.0000 O   0  0  0  0  0  0  0  0  0  0  0  0
    1.4221   -1.7439    0.0000 O   0  0  0  0  0  0  0  0  0  0  0  0
    2.1555   -0.5014    0.0000 O   0  0  0  0  0  0  0  0  0  0  0  0
    2.1555    2.0133    0.0000 O   0  0  0  0  0  0  0  0  0  0  0  0
    2.1555    2.0133    0.0000 O   0  0  0  0  0  0  0  0  0  0  0  0
   -0.8233   -0.6661    0.0000 N   0  0  0  0  0  0  0  0  0  0  0  0
    0.7036    0.3368    0.0000 N   0  0  0  0  0  0  0  0  0  0  0  0
   -2.1555   -1.3248    0.0000 N   0  0  0  0  0  0  0  0  0  0  0  0
   -0.0299   -0.9206    0.0000 C   0  0  0  0  0  0  0  0  0  0  0  0
    0.6886   -0.5014    0.0000 C   0  0  0  0  0  0  0  0  0  0  0  0
   -0.0299   -1.7439    0.0000 C   0  0  0  0  0  0  0  0  0  0  0  0
   -1.3173   -1.3397    0.0000 C   0  0  0  0  0  0  0  0  0  0  0  0
    1.4221   -0.8757    0.0000 C   0  0  0  0  0  0  0  0  0  0  0  0
    1.4520    1.6092    0.0000 C   0  0  0  0  0  0  0  0  0  0  0  0
    2.1555    2.0133    0.0000 C   0  0  0  0  0  0  0  0  0  0  0  0
  1  6  1  0  0  0  0
  2 13  1  0  0  0  0
  2 14  1  0  0  0  0
  3  9  1  0  0  0  0
  3 16  1  0  0  0  0
  4 15  2  0  0  0  0
  5 15  1  0  0  0  0
  6 17  1  0  0  0  0
  7 17  2  0  0  0  0
  8 11  1  0  0  0  0
  8 14  2  0  0  0  0
  9 12  2  0  0  0  0
 10 14  1  0  0  0  0
 11 12  1  0  0  0  0
 11 13  2  0  0  0  0
 12 15  1  0  0  0  0
 16 17  1  0  0  0  0
M  END
> <PUBCHEM_COMPOUND_ID_TYPE>
0

> <PUBCHEM_TOTAL_CHARGE>
0

> <PUBCHEM_SUBSTANCE_ID>
310940780

> <PUBCHEM_SUBSTANCE_VERSION>
1

> <PUBCHEM_EXT_DATASOURCE_NAME>
4488

> <PUBCHEM_EXT_DATASOURCE_REGID>
SCHEMBL16118739

> <PUBCHEM_SUBSTANCE_COMMENT>
InChI=1S/C7H6IN3O5S/c8-16-4(12)1-15-11-5(6(13)14)3-2-17-7(9)10-3/h2H,1H2,(H2,9,10)(H,13,14)/b11-5-
InChIKey=XLTBLFFFFQSZBI-WZUFQYTHSA-N

> <PUBCHEM_SUBSTANCE_SYNONYM>
SCHEMBL16118739

> <PUBCHEM_XREF_EXT_ID>
SCHEMBL16118739

> <PUBCHEM_EXT_DATASOURCE_URL>
https://www.surechembl.org/

> <PUBCHEM_EXT_SUBSTANCE_URL>
https://www.surechembl.org/chemical/SCHEMBL16118739

> <PUBCHEM_CID_ASSOCIATIONS>
117607732  1

> <PUBCHEM_COORDINATE_TYPE>
1
3

$$$$
