310948835
  -OEChem-07211613022D

 65 69  0     1  0  0  0  0  0999 V2000
    2.2605   -5.9020    0.0000 S   0  0  0  0  0  0  0  0  0  0  0  0
    3.1674    5.1325    0.0000 S   0  0  0  0  0  0  0  0  0  0  0  0
   -2.1918   -4.8302    0.0000 S   0  0  0  0  0  0  0  0  0  0  0  0
   -0.2543    0.4328    0.0000 S   0  0  0  0  0  0  0  0  0  0  0  0
    2.2605   -5.9020    0.0000 O   0  0  0  0  0  0  0  0  0  0  0  0
    2.2605   -5.9020    0.0000 O   0  0  0  0  0  0  0  0  0  0  0  0
    2.2605   -5.9020    0.0000 O   0  0  0  0  0  0  0  0  0  0  0  0
    2.3979    5.2700    0.0000 O   0  0  0  0  0  0  0  0  0  0  0  0
    3.9644    4.9814    0.0000 O   0  0  0  0  0  0  0  0  0  0  0  0
    3.3049    5.9020    0.0000 O   0  0  0  0  0  0  0  0  0  0  0  0
   -1.5322   -5.3249    0.0000 O   0  0  0  0  0  0  0  0  0  0  0  0
   -2.6590   -5.4898    0.0000 O   0  0  0  0  0  0  0  0  0  0  0  0
   -2.8376   -4.3629    0.0000 O   0  0  0  0  0  0  0  0  0  0  0  0
   -0.9688    0.0343    0.0000 O   0  0  0  0  0  0  0  0  0  0  0  0
   -0.6390    1.1199    0.0000 O   0  0  0  0  0  0  0  0  0  0  0  0
    0.4466    0.8177    0.0000 O   0  0  0  0  0  0  0  0  0  0  0  0
   -2.4254    1.4085    0.0000 O   0  0  0  0  0  0  0  0  0  0  0  0
   -1.7246    2.6315    0.0000 O   0  0  0  0  0  0  0  0  0  0  0  0
   -4.0469    0.6802    0.0000 O   0  0  0  0  0  0  0  0  0  0  0  0
   -2.6178    3.1812    0.0000 O   0  0  0  0  0  0  0  0  0  0  0  0
    1.3398   -2.2605    0.0000 N   0  3  0  0  0  0  0  0  0  0  0  0
    2.4803    1.8757    0.0000 N   0  0  0  0  0  0  0  0  0  0  0  0
   -3.1400    1.8345    0.0000 N   0  0  0  0  0  0  0  0  0  0  0  0
    0.9413   -3.1674    0.0000 C   0  0  3  0  0  0  0  0  0  0  0  0
    1.5597   -3.7721    0.0000 C   0  0  0  0  0  0  0  0  0  0  0  0
    2.3018   -3.3873    0.0000 C   0  0  0  0  0  0  0  0  0  0  0  0
    2.1781   -2.5354    0.0000 C   0  0  0  0  0  0  0  0  0  0  0  0
    3.7995    2.2193    0.0000 C   0  0  0  0  0  0  0  0  0  0  0  0
    3.3324    2.9339    0.0000 C   0  0  0  0  0  0  0  0  0  0  0  0
    3.2637    1.5597    0.0000 C   0  0  0  0  0  0  0  0  0  0  0  0
    2.5354    2.7277    0.0000 C   0  0  0  0  0  0  0  0  0  0  0  0
    1.5597   -4.6103    0.0000 C   0  0  0  0  0  0  0  0  0  0  0  0
    0.4466   -3.7995    0.0000 C   0  0  0  0  0  0  0  0  0  0  0  0
    2.3018   -5.0638    0.0000 C   0  0  0  0  0  0  0  0  0  0  0  0
    3.0575   -3.8545    0.0000 C   0  0  0  0  0  0  0  0  0  0  0  0
    0.9688   -1.6833    0.0000 C   0  0  0  0  0  0  0  0  0  0  0  0
    3.5522    3.7583    0.0000 C   0  0  0  0  0  0  0  0  0  0  0  0
    0.2543   -2.7277    0.0000 C   0  0  0  0  0  0  0  0  0  0  0  0
    2.7415   -1.9582    0.0000 C   0  0  0  0  0  0  0  0  0  0  0  0
    2.9613    4.3493    0.0000 C   0  0  0  0  0  0  0  0  0  0  0  0
    3.0575   -4.6928    0.0000 C   0  0  0  0  0  0  0  0  0  0  0  0
    1.9445    3.2911    0.0000 C   0  0  0  0  0  0  0  0  0  0  0  0
    3.4698    0.7489    0.0000 C   0  0  0  0  0  0  0  0  0  0  0  0
    1.8070    1.4223    0.0000 C   0  0  0  0  0  0  0  0  0  0  0  0
    4.4317    2.7415    0.0000 C   0  0  0  0  0  0  0  0  0  0  0  0
    4.3905    1.6284    0.0000 C   0  0  0  0  0  0  0  0  0  0  0  0
    2.1505    4.1156    0.0000 C   0  0  0  0  0  0  0  0  0  0  0  0
   -0.3642   -3.6759    0.0000 C   0  0  0  0  0  0  0  0  0  0  0  0
    2.5354   -1.1886    0.0000 C   0  0  0  0  0  0  0  0  0  0  0  0
    1.3673   -0.9550    0.0000 C   0  0  0  0  0  0  0  0  0  0  0  0
    2.9064    0.1718    0.0000 C   0  0  0  0  0  0  0  0  0  0  0  0
    3.1125   -0.5978    0.0000 C   0  0  0  0  0  0  0  0  0  0  0  0
    1.0650    1.8208    0.0000 C   0  0  0  0  0  0  0  0  0  0  0  0
   -0.8726   -4.3080    0.0000 C   0  0  0  0  0  0  0  0  0  0  0  0
    0.9825   -0.2817    0.0000 C   0  0  0  0  0  0  0  0  0  0  0  0
    0.3916    1.4223    0.0000 C   0  0  0  0  0  0  0  0  0  0  0  0
   -1.6833   -4.1844    0.0000 C   0  0  0  0  0  0  0  0  0  0  0  0
    0.1443   -0.2543    0.0000 C   0  0  0  0  0  0  0  0  0  0  0  0
   -0.3367    1.8208    0.0000 C   0  0  0  0  0  0  0  0  0  0  0  0
   -1.0100    1.4223    0.0000 C   0  0  0  0  0  0  0  0  0  0  0  0
   -1.7384    1.8070    0.0000 C   0  0  0  0  0  0  0  0  0  0  0  0
   -3.8683    1.5322    0.0000 C   0  0  0  0  0  0  0  0  0  0  0  0
   -3.2499    2.6315    0.0000 C   0  0  0  0  0  0  0  0  0  0  0  0
   -4.4317    2.0956    0.0000 C   0  0  0  0  0  0  0  0  0  0  0  0
   -4.0194    2.8102    0.0000 C   0  0  0  0  0  0  0  0  0  0  0  0
  1  5  2  0  0  0  0
  1  6  2  0  0  0  0
  1  7  1  0  0  0  0
  1 34  1  0  0  0  0
  2  8  2  0  0  0  0
  2  9  2  0  0  0  0
  2 10  1  0  0  0  0
  2 40  1  0  0  0  0
  3 11  2  0  0  0  0
  3 12  2  0  0  0  0
  3 13  1  0  0  0  0
  3 57  1  0  0  0  0
  4 14  2  0  0  0  0
  4 15  2  0  0  0  0
  4 16  1  0  0  0  0
  4 58  1  0  0  0  0
 17 23  1  0  0  0  0
 17 61  1  0  0  0  0
 18 61  2  0  0  0  0
 19 62  2  0  0  0  0
 20 63  2  0  0  0  0
 21 24  1  0  0  0  0
 21 27  2  0  0  0  0
 21 36  1  0  0  0  0
 22 30  1  0  0  0  0
 22 31  1  0  0  0  0
 22 44  1  0  0  0  0
 23 62  1  0  0  0  0
 23 63  1  0  0  0  0
 24 25  1  0  0  0  0
 24 33  1  0  0  0  0
 24 38  1  0  0  0  0
 25 26  2  0  0  0  0
 25 32  1  0  0  0  0
 26 27  1  0  0  0  0
 26 35  1  0  0  0  0
 27 39  1  0  0  0  0
 28 29  1  0  0  0  0
 28 30  1  0  0  0  0
 28 45  1  0  0  0  0
 28 46  1  0  0  0  0
 29 31  2  0  0  0  0
 29 37  1  0  0  0  0
 30 43  2  0  0  0  0
 31 42  1  0  0  0  0
 32 34  2  0  0  0  0
 33 48  1  0  0  0  0
 34 41  1  0  0  0  0
 35 41  2  0  0  0  0
 36 50  1  0  0  0  0
 37 40  2  0  0  0  0
 39 49  2  0  0  0  0
 40 47  1  0  0  0  0
 42 47  2  0  0  0  0
 43 51  1  0  0  0  0
 44 53  1  0  0  0  0
 48 54  1  0  0  0  0
 49 52  1  0  0  0  0
 50 55  1  0  0  0  0
 51 52  2  0  0  0  0
 53 56  1  0  0  0  0
 54 57  1  0  0  0  0
 55 58  1  0  0  0  0
 56 59  1  0  0  0  0
 59 60  1  0  0  0  0
 60 61  1  0  0  0  0
 62 64  1  0  0  0  0
 63 65  1  0  0  0  0
 64 65  1  0  0  0  0
M  CHG  1  21   1
M  END
> <PUBCHEM_COMPOUND_ID_TYPE>
0

> <PUBCHEM_TOTAL_CHARGE>
1

> <PUBCHEM_SUBSTANCE_ID>
310948835

> <PUBCHEM_SUBSTANCE_VERSION>
1

> <PUBCHEM_EXT_DATASOURCE_NAME>
4488

> <PUBCHEM_EXT_DATASOURCE_REGID>
SCHEMBL16127019

> <PUBCHEM_SUBSTANCE_COMMENT>
InChI=1S/C42H53N3O16S4/c1-41(2)34-29-31(65(58,59)60)18-20-36(34)43(24-10-5-8-16-40(48)61-45-38(46)21-22-39(45)47)37(41)15-7-4-6-14-35-32-19-17-30(64(55,56)57)28-33(32)42(3,23-9-12-26-62(49,50)51)44(35)25-11-13-27-63(52,53)54/h4,6-7,14-15,17-20,28-29H,5,8-13,16,21-27H2,1-3H3,(H3-,49,50,51,52,53,54,55,56,57,58,59,60)/p+1
InChIKey=MCUFUGOPMCFTQX-UHFFFAOYSA-O

> <PUBCHEM_SUBSTANCE_SYNONYM>
SCHEMBL16127019

> <PUBCHEM_XREF_EXT_ID>
SCHEMBL16127019

> <PUBCHEM_EXT_DATASOURCE_URL>
https://www.surechembl.org/

> <PUBCHEM_EXT_SUBSTANCE_URL>
https://www.surechembl.org/chemical/SCHEMBL16127019

> <PUBCHEM_CID_ASSOCIATIONS>
117614372  1

> <PUBCHEM_COORDINATE_TYPE>
1
3

$$$$
