310940210
  -OEChem-07211613022D

 39 42  0     0  0  0  0  0  0999 V2000
    2.4002   -3.1159    0.0000 S   0  0  0  0  0  0  0  0  0  0  0  0
   -2.5065   -4.2739    0.0000 O   0  0  0  0  0  0  0  0  0  0  0  0
   -1.0736    2.1382    0.0000 O   0  0  0  0  0  0  0  0  0  0  0  0
    2.4002   -3.1159    0.0000 O   0  0  0  0  0  0  0  0  0  0  0  0
    2.4002   -3.1159    0.0000 O   0  0  0  0  0  0  0  0  0  0  0  0
   -2.5065    2.1382    0.0000 O   0  0  0  0  0  0  0  0  0  0  0  0
   -0.3644    4.2081    0.0000 O   0  0  0  0  0  0  0  0  0  0  0  0
   -1.7973   -1.5961    0.0000 N   0  0  0  0  0  0  0  0  0  0  0  0
   -1.1170   -2.0883    0.0000 N   0  0  0  0  0  0  0  0  0  0  0  0
   -0.8854   -3.5502    0.0000 N   0  0  0  0  0  0  0  0  0  0  0  0
   -3.5776   -3.3186    0.0000 N   0  0  0  0  0  0  0  0  0  0  0  0
   -1.7973    0.8934    0.0000 N   0  0  0  0  0  0  0  0  0  0  0  0
    2.4002   -3.1159    0.0000 N   0  0  0  0  0  0  0  0  0  0  0  0
    0.3594   -0.3948    0.0000 N   0  0  0  0  0  0  0  0  0  0  0  0
   -1.7829   -0.7711    0.0000 C   0  0  0  0  0  0  0  0  0  0  0  0
   -2.4631   -2.0883    0.0000 C   0  0  0  0  0  0  0  0  0  0  0  0
   -2.2170   -2.8410    0.0000 C   0  0  0  0  0  0  0  0  0  0  0  0
   -1.3776   -2.8699    0.0000 C   0  0  0  0  0  0  0  0  0  0  0  0
   -2.7816   -3.4633    0.0000 C   0  0  0  0  0  0  0  0  0  0  0  0
   -2.5065   -0.3369    0.0000 C   0  0  0  0  0  0  0  0  0  0  0  0
   -1.0736   -0.3513    0.0000 C   0  0  0  0  0  0  0  0  0  0  0  0
   -3.2737   -1.9001    0.0000 C   0  0  0  0  0  0  0  0  0  0  0  0
   -1.0446   -1.1619    0.0000 C   0  0  0  0  0  0  0  0  0  0  0  0
   -3.8382   -2.5225    0.0000 C   0  0  0  0  0  0  0  0  0  0  0  0
   -2.5065    0.4881    0.0000 C   0  0  0  0  0  0  0  0  0  0  0  0
   -1.0736    0.4737    0.0000 C   0  0  0  0  0  0  0  0  0  0  0  0
   -0.0604   -3.4344    0.0000 C   0  0  0  0  0  0  0  0  0  0  0  0
   -0.3499   -0.7711    0.0000 C   0  0  0  0  0  0  0  0  0  0  0  0
    1.5897   -3.2172    0.0000 C   0  0  0  0  0  0  0  0  0  0  0  0
   -1.7684    1.7184    0.0000 C   0  0  0  0  0  0  0  0  0  0  0  0
    0.4462   -4.1002    0.0000 C   0  0  0  0  0  0  0  0  0  0  0  0
    0.2580   -2.6817    0.0000 C   0  0  0  0  0  0  0  0  0  0  0  0
    1.2567   -3.9844    0.0000 C   0  0  0  0  0  0  0  0  0  0  0  0
    1.0686   -2.5804    0.0000 C   0  0  0  0  0  0  0  0  0  0  0  0
    3.8382   -4.5988    0.0000 C   0  0  0  0  0  0  0  0  0  0  0  0
    3.8382   -4.5988    0.0000 C   0  0  0  0  0  0  0  0  0  0  0  0
   -1.0591    2.9777    0.0000 C   0  0  0  0  0  0  0  0  0  0  0  0
   -0.3644    3.3830    0.0000 C   0  0  0  0  0  0  0  0  0  0  0  0
    0.3304    4.5988    0.0000 C   0  0  0  0  0  0  0  0  0  0  0  0
  1  4  2  0  0  0  0
  1  5  2  0  0  0  0
  1 13  1  0  0  0  0
  1 29  1  0  0  0  0
  2 19  2  0  0  0  0
  3 30  1  0  0  0  0
  3 37  1  0  0  0  0
  6 30  2  0  0  0  0
  7 38  1  0  0  0  0
  7 39  1  0  0  0  0
  8  9  1  0  0  0  0
  8 15  1  0  0  0  0
  8 16  1  0  0  0  0
  9 18  2  0  0  0  0
 10 18  1  0  0  0  0
 10 27  1  0  0  0  0
 11 19  1  0  0  0  0
 11 24  1  0  0  0  0
 12 25  1  0  0  0  0
 12 26  1  0  0  0  0
 12 30  1  0  0  0  0
 13 35  1  0  0  0  0
 13 36  1  0  0  0  0
 14 28  3  0  0  0  0
 15 20  1  0  0  0  0
 15 21  1  0  0  0  0
 15 23  1  0  0  0  0
 16 17  2  0  0  0  0
 16 22  1  0  0  0  0
 17 18  1  0  0  0  0
 17 19  1  0  0  0  0
 20 25  1  0  0  0  0
 21 26  1  0  0  0  0
 22 24  2  0  0  0  0
 23 28  1  0  0  0  0
 27 31  2  0  0  0  0
 27 32  1  0  0  0  0
 29 33  2  0  0  0  0
 29 34  1  0  0  0  0
 31 33  1  0  0  0  0
 32 34  2  0  0  0  0
 37 38  1  0  0  0  0
M  END
> <PUBCHEM_COMPOUND_ID_TYPE>
0

> <PUBCHEM_TOTAL_CHARGE>
0

> <PUBCHEM_SUBSTANCE_ID>
310940210

> <PUBCHEM_SUBSTANCE_VERSION>
1

> <PUBCHEM_EXT_DATASOURCE_NAME>
4488

> <PUBCHEM_EXT_DATASOURCE_REGID>
SCHEMBL16118144

> <PUBCHEM_SUBSTANCE_COMMENT>
InChI=1S/C25H31N7O6S/c1-30(2)39(35,36)19-6-4-18(5-7-19)28-22-21-20(8-13-27-23(21)33)32(29-22)25(9-12-26)10-14-31(15-11-25)24(34)38-17-16-37-3/h4-8,13H,9-11,14-17H2,1-3H3,(H,27,33)(H,28,29)
InChIKey=GLZUXUDZVQLFMR-UHFFFAOYSA-N

> <PUBCHEM_SUBSTANCE_SYNONYM>
SCHEMBL16118144

> <PUBCHEM_XREF_EXT_ID>
SCHEMBL16118144

> <PUBCHEM_EXT_DATASOURCE_URL>
https://www.surechembl.org/

> <PUBCHEM_EXT_SUBSTANCE_URL>
https://www.surechembl.org/chemical/SCHEMBL16118144

> <PUBCHEM_CID_ASSOCIATIONS>
117607310  1

> <PUBCHEM_COORDINATE_TYPE>
1
3

$$$$
