310943578
  -OEChem-07211613022D

 42 46  0     1  0  0  0  0  0999 V2000
    2.4510    3.1390    0.0000 O   0  0  0  0  0  0  0  0  0  0  0  0
    1.0177   -3.1390    0.0000 O   0  0  0  0  0  0  0  0  0  0  0  0
    3.2394    1.6770    0.0000 N   0  0  0  0  0  0  0  0  0  0  0  0
   -3.2680   -0.3584    0.0000 N   0  0  3  0  0  0  0  0  0  0  0  0
   -1.1180    2.7234    0.0000 N   0  0  0  0  0  0  0  0  0  0  0  0
    4.9880    1.1324    0.0000 N   0  0  3  0  0  0  0  0  0  0  0  0
    1.0177   -3.1390    0.0000 N   0  0  0  0  0  0  0  0  0  0  0  0
   -5.0310    0.1720    0.0000 N   0  0  3  0  0  0  0  0  0  0  0  0
    0.3010    0.9030    0.0000 C   0  0  0  0  0  0  0  0  0  0  0  0
    1.0320    0.4873    0.0000 C   0  0  0  0  0  0  0  0  0  0  0  0
   -0.4156    0.4730    0.0000 C   0  0  0  0  0  0  0  0  0  0  0  0
    1.0177   -0.4443    0.0000 C   0  0  0  0  0  0  0  0  0  0  0  0
    1.7200    1.7200    0.0000 C   0  0  0  0  0  0  0  0  0  0  0  0
    1.7200    0.8887    0.0000 C   0  0  0  0  0  0  0  0  0  0  0  0
   -1.1467    0.8887    0.0000 C   0  0  0  0  0  0  0  0  0  0  0  0
    0.3154    1.7200    0.0000 C   0  0  0  0  0  0  0  0  0  0  0  0
    1.0320    2.1213    0.0000 C   0  0  0  0  0  0  0  0  0  0  0  0
    2.4367    2.1070    0.0000 C   0  0  0  0  0  0  0  0  0  0  0  0
   -0.4156   -0.3440    0.0000 C   0  0  0  0  0  0  0  0  0  0  0  0
   -1.8347    0.4586    0.0000 C   0  0  0  0  0  0  0  0  0  0  0  0
   -1.8633   -0.3584    0.0000 C   0  0  0  0  0  0  0  0  0  0  0  0
    1.7200   -0.8600    0.0000 C   0  0  0  0  0  0  0  0  0  0  0  0
    0.3154   -0.8457    0.0000 C   0  0  0  0  0  0  0  0  0  0  0  0
   -1.1037   -0.7453    0.0000 C   0  0  0  0  0  0  0  0  0  0  0  0
   -1.1324    1.9064    0.0000 C   0  0  0  0  0  0  0  0  0  0  0  0
    1.0177   -2.0927    0.0000 C   0  0  0  0  0  0  0  0  0  0  0  0
    1.7343   -1.6770    0.0000 C   0  0  0  0  0  0  0  0  0  0  0  0
    0.3297   -1.6914    0.0000 C   0  0  0  0  0  0  0  0  0  0  0  0
   -2.5513   -0.7597    0.0000 C   0  0  0  0  0  0  0  0  0  0  0  0
    3.5260    0.9317    0.0000 C   0  0  0  0  0  0  0  0  0  0  0  0
    3.6550    2.4080    0.0000 C   0  0  0  0  0  0  0  0  0  0  0  0
    1.0177   -3.1390    0.0000 C   0  0  0  0  0  0  0  0  0  0  0  0
    4.3430    0.7023    0.0000 C   0  0  0  0  0  0  0  0  0  0  0  0
    4.4720    2.5227    0.0000 C   0  0  0  0  0  0  0  0  0  0  0  0
   -3.9417   -0.8170    0.0000 C   0  0  0  0  0  0  0  0  0  0  0  0
   -3.2107    0.4586    0.0000 C   0  0  0  0  0  0  0  0  0  0  0  0
    5.0740    1.9350    0.0000 C   0  0  0  0  0  0  0  0  0  0  0  0
   -4.7443   -0.5733    0.0000 C   0  0  0  0  0  0  0  0  0  0  0  0
   -3.8127    1.0320    0.0000 C   0  0  0  0  0  0  0  0  0  0  0  0
   -4.6297    0.9030    0.0000 C   0  0  0  0  0  0  0  0  0  0  0  0
    5.8767    0.6307    0.0000 C   0  0  0  0  0  0  0  0  0  0  0  0
   -5.8767    0.1720    0.0000 C   0  0  0  0  0  0  0  0  0  0  0  0
  1 18  2  0  0  0  0
  2 32  2  0  0  0  0
  3 18  1  0  0  0  0
  3 30  1  0  0  0  0
  3 31  1  0  0  0  0
  4 29  1  0  0  0  0
  4 35  1  0  0  0  0
  4 36  1  0  0  0  0
  5 25  3  0  0  0  0
  6 33  1  0  0  0  0
  6 37  1  0  0  0  0
  6 41  1  0  0  0  0
  7 32  1  0  0  0  0
  8 38  1  0  0  0  0
  8 40  1  0  0  0  0
  8 42  1  0  0  0  0
  9 10  2  0  0  0  0
  9 11  1  0  0  0  0
  9 16  1  0  0  0  0
 10 12  1  0  0  0  0
 10 14  1  0  0  0  0
 11 15  2  0  0  0  0
 11 19  1  0  0  0  0
 12 22  2  0  0  0  0
 12 23  1  0  0  0  0
 13 14  2  0  0  0  0
 13 17  1  0  0  0  0
 13 18  1  0  0  0  0
 15 20  1  0  0  0  0
 15 25  1  0  0  0  0
 16 17  2  0  0  0  0
 19 24  2  0  0  0  0
 20 21  2  0  0  0  0
 21 24  1  0  0  0  0
 21 29  1  0  0  0  0
 22 27  1  0  0  0  0
 23 28  2  0  0  0  0
 26 27  2  0  0  0  0
 26 28  1  0  0  0  0
 26 32  1  0  0  0  0
 30 33  1  0  0  0  0
 31 34  1  0  0  0  0
 34 37  1  0  0  0  0
 35 38  1  0  0  0  0
 36 39  1  0  0  0  0
 39 40  1  0  0  0  0
M  END
> <PUBCHEM_COMPOUND_ID_TYPE>
0

> <PUBCHEM_TOTAL_CHARGE>
0

> <PUBCHEM_SUBSTANCE_ID>
310943578

> <PUBCHEM_SUBSTANCE_VERSION>
1

> <PUBCHEM_EXT_DATASOURCE_NAME>
4488

> <PUBCHEM_EXT_DATASOURCE_REGID>
SCHEMBL16121645

> <PUBCHEM_SUBSTANCE_COMMENT>
InChI=1S/C34H40N6O2/c1-37-13-3-15-39(19-17-37)24-25-5-11-30(29(21-25)23-35)31-12-10-28(34(42)40-16-4-14-38(2)18-20-40)22-32(31)26-6-8-27(9-7-26)33(36)41/h5-12,21-22H,3-4,13-20,24H2,1-2H3,(H2,36,41)
InChIKey=PPAIAIBZPWLBFV-UHFFFAOYSA-N

> <PUBCHEM_SUBSTANCE_SYNONYM>
SCHEMBL16121645

> <PUBCHEM_XREF_EXT_ID>
SCHEMBL16121645

> <PUBCHEM_EXT_DATASOURCE_URL>
https://www.surechembl.org/

> <PUBCHEM_EXT_SUBSTANCE_URL>
https://www.surechembl.org/chemical/SCHEMBL16121645

> <PUBCHEM_CID_ASSOCIATIONS>
117609984  1

> <PUBCHEM_COORDINATE_TYPE>
1
3

$$$$
