310948967
  -OEChem-07211613022D

 13 14  0     0  0  0  0  0  0999 V2000
    2.0488    0.5975    0.0000 O   0  0  0  0  0  0  0  0  0  0  0  0
    0.6261    0.2371    0.0000 N   0  0  0  0  0  0  0  0  0  0  0  0
   -0.4743   -1.6409    0.0000 N   0  0  0  0  0  0  0  0  0  0  0  0
   -1.2900   -1.4702    0.0000 N   0  0  0  0  0  0  0  0  0  0  0  0
    1.0623    1.6409    0.0000 N   0  0  0  0  0  0  0  0  0  0  0  0
   -0.6261   -0.2751    0.0000 C   0  0  0  0  0  0  0  0  0  0  0  0
   -0.0949   -0.9011    0.0000 C   0  0  0  0  0  0  0  0  0  0  0  0
   -0.2276    0.4078    0.0000 C   0  0  0  0  0  0  0  0  0  0  0  0
   -1.4038   -0.6545    0.0000 C   0  0  0  0  0  0  0  0  0  0  0  0
    0.6829   -0.5975    0.0000 C   0  0  0  0  0  0  0  0  0  0  0  0
    1.1951    0.8252    0.0000 C   0  0  0  0  0  0  0  0  0  0  0  0
   -2.0488   -0.2371    0.0000 C   0  0  0  0  0  0  0  0  0  0  0  0
    1.0623    1.6409    0.0000 C   0  0  0  0  0  0  0  0  0  0  0  0
  1 11  2  0  0  0  0
  2  8  1  0  0  0  0
  2 10  1  0  0  0  0
  2 11  1  0  0  0  0
  3  4  1  0  0  0  0
  3  7  1  0  0  0  0
  4  9  2  0  0  0  0
  5 11  1  0  0  0  0
  5 13  1  0  0  0  0
  6  7  2  0  0  0  0
  6  8  1  0  0  0  0
  6  9  1  0  0  0  0
  7 10  1  0  0  0  0
  9 12  1  0  0  0  0
M  END
> <PUBCHEM_COMPOUND_ID_TYPE>
0

> <PUBCHEM_TOTAL_CHARGE>
0

> <PUBCHEM_SUBSTANCE_ID>
310948967

> <PUBCHEM_SUBSTANCE_VERSION>
1

> <PUBCHEM_EXT_DATASOURCE_NAME>
4488

> <PUBCHEM_EXT_DATASOURCE_REGID>
SCHEMBL16127155

> <PUBCHEM_SUBSTANCE_COMMENT>
InChI=1S/C8H12N4O/c1-5-6-3-12(8(13)9-2)4-7(6)11-10-5/h3-4H2,1-2H3,(H,9,13)(H,10,11)
InChIKey=ZXAIGSYDUNRTBO-UHFFFAOYSA-N

> <PUBCHEM_SUBSTANCE_SYNONYM>
SCHEMBL16127155

> <PUBCHEM_XREF_EXT_ID>
SCHEMBL16127155

> <PUBCHEM_EXT_DATASOURCE_URL>
https://www.surechembl.org/

> <PUBCHEM_EXT_SUBSTANCE_URL>
https://www.surechembl.org/chemical/SCHEMBL16127155

> <PUBCHEM_CID_ASSOCIATIONS>
117614476  1

> <PUBCHEM_COORDINATE_TYPE>
1
3

$$$$
