310940391
  -OEChem-07211613022D

 20 21  0     0  0  0  0  0  0999 V2000
    1.6317   -0.6637    0.0000 O   0  0  0  0  0  0  0  0  0  0  0  0
   -3.1114    1.4796    0.0000 O   0  0  0  0  0  0  0  0  0  0  0  0
   -1.7700    1.9774    0.0000 O   0  0  0  0  0  0  0  0  0  0  0  0
   -0.0691   -0.4286    0.0000 N   0  0  0  0  0  0  0  0  0  0  0  0
    3.1114    0.2489    0.0000 N   0  0  0  0  0  0  0  0  0  0  0  0
    1.0925   -1.2722    0.0000 C   0  0  0  0  0  0  0  0  0  0  0  0
   -2.0051    0.5807    0.0000 C   0  0  0  0  0  0  0  0  0  0  0  0
   -0.8851   -0.3319    0.0000 C   0  0  0  0  0  0  0  0  0  0  0  0
    2.4061   -0.9818    0.0000 C   0  0  0  0  0  0  0  0  0  0  0  0
   -1.1892    0.4286    0.0000 C   0  0  0  0  0  0  0  0  0  0  0  0
   -2.3092    1.3275    0.0000 C   0  0  0  0  0  0  0  0  0  0  0  0
    0.2627   -1.1616    0.0000 C   0  0  0  0  0  0  0  0  0  0  0  0
    1.5211   -1.9774    0.0000 C   0  0  0  0  0  0  0  0  0  0  0  0
    2.3092   -1.8115    0.0000 C   0  0  0  0  0  0  0  0  0  0  0  0
   -2.5168   -0.0691    0.0000 C   0  0  0  0  0  0  0  0  0  0  0  0
   -1.4105   -0.9680    0.0000 C   0  0  0  0  0  0  0  0  0  0  0  0
   -2.2263   -0.8297    0.0000 C   0  0  0  0  0  0  0  0  0  0  0  0
    3.1114   -0.5807    0.0000 C   0  0  0  0  0  0  0  0  0  0  0  0
   -3.1114    1.4796    0.0000 C   0  0  0  0  0  0  0  0  0  0  0  0
   -3.1114    1.4796    0.0000 C   0  0  0  0  0  0  0  0  0  0  0  0
  1  6  1  0  0  0  0
  1  9  1  0  0  0  0
  2 11  1  0  0  0  0
  2 19  1  0  0  0  0
  3 11  2  0  0  0  0
  4  8  1  0  0  0  0
  4 12  2  0  0  0  0
  5 18  2  3  0  0  0
  6 12  1  0  0  0  0
  6 13  2  0  0  0  0
  7 10  1  0  0  0  0
  7 11  1  0  0  0  0
  7 15  2  0  0  0  0
  8 10  2  0  0  0  0
  8 16  1  0  0  0  0
  9 14  2  0  0  0  0
  9 18  1  0  0  0  0
 13 14  1  0  0  0  0
 15 17  1  0  0  0  0
 16 17  2  0  0  0  0
 19 20  1  0  0  0  0
M  END
> <PUBCHEM_COMPOUND_ID_TYPE>
0

> <PUBCHEM_TOTAL_CHARGE>
0

> <PUBCHEM_SUBSTANCE_ID>
310940391

> <PUBCHEM_SUBSTANCE_VERSION>
1

> <PUBCHEM_EXT_DATASOURCE_NAME>
4488

> <PUBCHEM_EXT_DATASOURCE_REGID>
SCHEMBL16118337

> <PUBCHEM_SUBSTANCE_COMMENT>
InChI=1S/C15H14N2O3/c1-2-19-15(18)11-4-3-5-12(8-11)17-10-14-7-6-13(9-16)20-14/h3-10,16H,2H2,1H3/b16-9?,17-10+
InChIKey=MSFNTSYCAIEIAJ-ZSIIYVIPSA-N

> <PUBCHEM_SUBSTANCE_SYNONYM>
SCHEMBL16118337

> <PUBCHEM_XREF_EXT_ID>
SCHEMBL16118337

> <PUBCHEM_EXT_DATASOURCE_URL>
https://www.surechembl.org/

> <PUBCHEM_EXT_SUBSTANCE_URL>
https://www.surechembl.org/chemical/SCHEMBL16118337

> <PUBCHEM_CID_ASSOCIATIONS>
117607421  1

> <PUBCHEM_COORDINATE_TYPE>
1
3

> <PUBCHEM_BONDANNOTATIONS>
4  8  3

$$$$
