310942253
  -OEChem-07211613022D

 14 13  0     1  0  0  0  0  0999 V2000
   -2.5210    1.0638    0.0000 O   0  0  0  0  0  0  0  0  0  0  0  0
   -2.5210   -0.3844    0.0000 O   0  0  0  0  0  0  0  0  0  0  0  0
   -0.8403    1.0638    0.0000 N   0  0  0  0  0  0  0  0  0  0  0  0
    1.4661   -1.8505    0.0000 N   0  0  0  0  0  0  0  0  0  0  0  0
    1.4661   -1.8505    0.0000 N   0  0  0  0  0  0  0  0  0  0  0  0
   -1.2694    0.3487    0.0000 C   0  0  3  0  0  0  0  0  0  0  0  0
   -2.0919    0.3844    0.0000 C   0  0  0  0  0  0  0  0  0  0  0  0
   -0.8403   -0.3666    0.0000 C   0  0  0  0  0  0  0  0  0  0  0  0
    0.0179   -0.4023    0.0000 C   0  0  0  0  0  0  0  0  0  0  0  0
    0.4291   -1.1175    0.0000 C   0  0  0  0  0  0  0  0  0  0  0  0
    1.2515   -1.1175    0.0000 C   0  0  0  0  0  0  0  0  0  0  0  0
   -1.3946    1.8505    0.0000 C   0  0  0  0  0  0  0  0  0  0  0  0
   -2.0204    1.7969    0.0000 C   0  0  0  0  0  0  0  0  0  0  0  0
    2.5210   -1.8326    0.0000 C   0  0  0  0  0  0  0  0  0  0  0  0
  1  7  1  0  0  0  0
  1 13  1  0  0  0  0
  2  7  2  0  0  0  0
  6  3  1  1  0  0  0
  3 12  1  0  0  0  0
  4  5  2  3  0  0  0
  4 11  1  0  0  0  0
  5 14  1  0  0  0  0
  6  7  1  0  0  0  0
  6  8  1  0  0  0  0
  8  9  1  0  0  0  0
  9 10  1  0  0  0  0
 10 11  1  0  0  0  0
M  END
> <PUBCHEM_COMPOUND_ID_TYPE>
0

> <PUBCHEM_TOTAL_CHARGE>
0

> <PUBCHEM_SUBSTANCE_ID>
310942253

> <PUBCHEM_SUBSTANCE_VERSION>
1

> <PUBCHEM_EXT_DATASOURCE_NAME>
4488

> <PUBCHEM_EXT_DATASOURCE_REGID>
SCHEMBL16120288

> <PUBCHEM_SUBSTANCE_COMMENT>
InChI=1S/C9H19N3O2/c1-10-8(9(13)14-3)6-4-5-7-12-11-2/h8,10H,4-7H2,1-3H3/b12-11-/t8-/m0/s1
InChIKey=YNRCSJPRSONJLN-WYNUBKAASA-N

> <PUBCHEM_SUBSTANCE_SYNONYM>
SCHEMBL16120288

> <PUBCHEM_XREF_EXT_ID>
SCHEMBL16120288

> <PUBCHEM_EXT_DATASOURCE_URL>
https://www.surechembl.org/

> <PUBCHEM_EXT_SUBSTANCE_URL>
https://www.surechembl.org/chemical/SCHEMBL16120288

> <PUBCHEM_CID_ASSOCIATIONS>
117608903  1

> <PUBCHEM_COORDINATE_TYPE>
1
3

> <PUBCHEM_BONDANNOTATIONS>
6  3  5

$$$$
