310938948
  -OEChem-07211613022D

 38 40  0     1  0  0  0  0  0999 V2000
   -3.2915    8.0728    0.0000 Br  0  0  0  0  0  0  0  0  0  0  0  0
    1.7098    9.3103    0.0000 O   0  0  0  0  0  0  0  0  0  0  0  0
    0.9953   10.5478    0.0000 O   0  0  0  0  0  0  0  0  0  0  0  0
   -1.1481   11.7853    0.0000 O   0  0  0  0  0  0  0  0  0  0  0  0
   -1.8626   10.5478    0.0000 O   0  0  0  0  0  0  0  0  0  0  0  0
    0.2808    8.4853    0.0000 N   0  0  0  0  0  0  0  0  0  0  0  0
   -0.4337   10.5478    0.0000 N   0  0  0  0  0  0  0  0  0  0  0  0
    0.2808    9.3103    0.0000 C   0  0  3  0  0  0  0  0  0  0  0  0
   -0.4337    9.7228    0.0000 C   0  0  3  0  0  0  0  0  0  0  0  0
    0.9953    8.0728    0.0000 C   0  0  0  0  0  0  0  0  0  0  0  0
   -1.1481    9.3103    0.0000 C   0  0  0  0  0  0  0  0  0  0  0  0
    0.9953    9.7228    0.0000 C   0  0  0  0  0  0  0  0  0  0  0  0
    1.7098    8.4853    0.0000 C   0  0  0  0  0  0  0  0  0  0  0  0
    0.9953    7.2478    0.0000 C   0  0  0  0  0  0  0  0  0  0  0  0
   -1.8626    9.7228    0.0000 C   0  0  0  0  0  0  0  0  0  0  0  0
   -1.1481    8.4853    0.0000 C   0  0  0  0  0  0  0  0  0  0  0  0
   -1.1481   10.9603    0.0000 C   0  0  0  0  0  0  0  0  0  0  0  0
    2.4242    9.7228    0.0000 C   0  0  0  0  0  0  0  0  0  0  0  0
    2.4242    8.0728    0.0000 C   0  0  0  0  0  0  0  0  0  0  0  0
    0.2808    6.8353    0.0000 C   0  0  0  0  0  0  0  0  0  0  0  0
    1.7098    9.3103    0.0000 C   0  0  0  0  0  0  0  0  0  0  0  0
    1.7098    6.8353    0.0000 C   0  0  0  0  0  0  0  0  0  0  0  0
   -2.5771    9.3103    0.0000 C   0  0  0  0  0  0  0  0  0  0  0  0
   -1.8626    8.0728    0.0000 C   0  0  0  0  0  0  0  0  0  0  0  0
   -2.5771    8.4853    0.0000 C   0  0  0  0  0  0  0  0  0  0  0  0
   -1.8626   12.1978    0.0000 C   0  0  0  0  0  0  0  0  0  0  0  0
    3.1387    8.4853    0.0000 C   0  0  0  0  0  0  0  0  0  0  0  0
    0.2808    6.0103    0.0000 C   0  0  0  0  0  0  0  0  0  0  0  0
    2.4242    9.7228    0.0000 C   0  0  0  0  0  0  0  0  0  0  0  0
    1.7098    6.0103    0.0000 C   0  0  0  0  0  0  0  0  0  0  0  0
    3.1387    9.3103    0.0000 C   0  0  0  0  0  0  0  0  0  0  0  0
    0.9953    5.5978    0.0000 C   0  0  0  0  0  0  0  0  0  0  0  0
    3.1387    9.3103    0.0000 C   0  0  0  0  0  0  0  0  0  0  0  0
    3.1387   10.1353    0.0000 C   0  0  0  0  0  0  0  0  0  0  0  0
    2.4242   10.5478    0.0000 C   0  0  0  0  0  0  0  0  0  0  0  0
   -1.8626   13.0228    0.0000 C   0  0  0  0  0  0  0  0  0  0  0  0
   -2.5771   12.6103    0.0000 C   0  0  0  0  0  0  0  0  0  0  0  0
   -2.5771   11.7853    0.0000 C   0  0  0  0  0  0  0  0  0  0  0  0
  1 25  1  0  0  0  0
  2 12  1  0  0  0  0
  2 18  1  0  0  0  0
  3 12  2  0  0  0  0
  4 17  1  0  0  0  0
  4 26  1  0  0  0  0
  5 17  2  0  0  0  0
  8  6  1  1  0  0  0
  6 10  2  0  0  0  0
  9  7  1  1  0  0  0
  7 17  1  0  0  0  0
  8  9  1  0  0  0  0
  8 12  1  0  0  0  0
  9 11  1  0  0  0  0
 10 13  1  0  0  0  0
 10 14  1  0  0  0  0
 11 15  2  0  0  0  0
 11 16  1  0  0  0  0
 13 19  2  0  0  0  0
 13 21  1  0  0  0  0
 14 20  2  0  0  0  0
 14 22  1  0  0  0  0
 15 23  1  0  0  0  0
 16 24  2  0  0  0  0
 18 33  1  0  0  0  0
 18 34  1  0  0  0  0
 18 35  1  0  0  0  0
 19 27  1  0  0  0  0
 20 28  1  0  0  0  0
 21 29  2  0  0  0  0
 22 30  2  0  0  0  0
 23 25  2  0  0  0  0
 24 25  1  0  0  0  0
 26 36  1  0  0  0  0
 26 37  1  0  0  0  0
 26 38  1  0  0  0  0
 27 31  2  0  0  0  0
 28 32  2  0  0  0  0
 29 31  1  0  0  0  0
 30 32  1  0  0  0  0
M  END
> <PUBCHEM_COMPOUND_ID_TYPE>
0

> <PUBCHEM_TOTAL_CHARGE>
0

> <PUBCHEM_SUBSTANCE_ID>
310938948

> <PUBCHEM_SUBSTANCE_VERSION>
1

> <PUBCHEM_EXT_DATASOURCE_NAME>
4488

> <PUBCHEM_EXT_DATASOURCE_REGID>
SCHEMBL16116867

> <PUBCHEM_SUBSTANCE_COMMENT>
InChI=1S/C31H35BrN2O4/c1-30(2,3)37-28(35)27(33-25(21-13-9-7-10-14-21)22-15-11-8-12-16-22)26(23-17-19-24(32)20-18-23)34-29(36)38-31(4,5)6/h7-20,26-27H,1-6H3,(H,34,36)/t26-,27+/m1/s1
InChIKey=AAJPHDJLTOGJSJ-SXOMAYOGSA-N

> <PUBCHEM_SUBSTANCE_SYNONYM>
SCHEMBL16116867

> <PUBCHEM_XREF_EXT_ID>
SCHEMBL16116867

> <PUBCHEM_EXT_DATASOURCE_URL>
https://www.surechembl.org/

> <PUBCHEM_EXT_SUBSTANCE_URL>
https://www.surechembl.org/chemical/SCHEMBL16116867

> <PUBCHEM_CID_ASSOCIATIONS>
117606340  1

> <PUBCHEM_COORDINATE_TYPE>
1
3

> <PUBCHEM_BONDANNOTATIONS>
8  6  5
9  7  5

$$$$
