310948565
  -OEChem-07211613022D

 47 51  0     0  0  0  0  0  0999 V2000
   -3.7590    1.4583    0.0000 Cl  0  0  0  0  0  0  0  0  0  0  0  0
    3.2155   -1.4402    0.0000 S   0  0  0  0  0  0  0  0  0  0  0  0
   -3.0526    2.6359    0.0000 F   0  0  0  0  0  0  0  0  0  0  0  0
   -2.4366    3.5779    0.0000 F   0  0  0  0  0  0  0  0  0  0  0  0
   -1.4946    2.9438    0.0000 F   0  0  0  0  0  0  0  0  0  0  0  0
    1.2953   -3.5779    0.0000 F   0  0  0  0  0  0  0  0  0  0  0  0
    3.7590    1.6757    0.0000 F   0  0  0  0  0  0  0  0  0  0  0  0
    2.3279   -0.8243    0.0000 F   0  0  0  0  0  0  0  0  0  0  0  0
    3.7590    0.0091    0.0000 F   0  0  0  0  0  0  0  0  0  0  0  0
    3.7590    0.0091    0.0000 F   0  0  0  0  0  0  0  0  0  0  0  0
   -0.4257    1.9475    0.0000 O   0  0  0  0  0  0  0  0  0  0  0  0
    3.7590    0.0091    0.0000 O   0  0  0  0  0  0  0  0  0  0  0  0
    3.2155   -1.4402    0.0000 O   0  0  0  0  0  0  0  0  0  0  0  0
    3.2155   -1.4402    0.0000 O   0  0  0  0  0  0  0  0  0  0  0  0
    3.6503   -2.7989    0.0000 O   0  0  0  0  0  0  0  0  0  0  0  0
   -1.4402    0.8243    0.0000 N   0  0  0  0  0  0  0  0  0  0  0  0
   -1.3496    1.6395    0.0000 N   0  0  0  0  0  0  0  0  0  0  0  0
    0.8062    2.4910    0.0000 N   0  0  0  0  0  0  0  0  0  0  0  0
   -0.0272    0.5344    0.0000 C   0  0  0  0  0  0  0  0  0  0  0  0
    0.1540    1.3496    0.0000 C   0  0  0  0  0  0  0  0  0  0  0  0
   -0.8062    0.2627    0.0000 C   0  0  0  0  0  0  0  0  0  0  0  0
    0.8787    1.6757    0.0000 C   0  0  0  0  0  0  0  0  0  0  0  0
    0.3895   -0.8243    0.0000 C   0  0  0  0  0  0  0  0  0  0  0  0
    0.5707   -0.0091    0.0000 C   0  0  0  0  0  0  0  0  0  0  0  0
    1.6214    1.2591    0.0000 C   0  0  0  0  0  0  0  0  0  0  0  0
   -2.1105    2.0018    0.0000 C   0  0  0  0  0  0  0  0  0  0  0  0
    1.0416   -1.4040    0.0000 C   0  0  0  0  0  0  0  0  0  0  0  0
   -0.9692   -0.5525    0.0000 C   0  0  0  0  0  0  0  0  0  0  0  0
   -2.6721    1.3678    0.0000 C   0  0  0  0  0  0  0  0  0  0  0  0
   -2.2373    0.6612    0.0000 C   0  0  0  0  0  0  0  0  0  0  0  0
    0.0091    2.6902    0.0000 C   0  0  0  0  0  0  0  0  0  0  0  0
   -0.3714   -1.0779    0.0000 C   0  0  0  0  0  0  0  0  0  0  0  0
    2.4366   -1.6939    0.0000 C   0  0  0  0  0  0  0  0  0  0  0  0
   -2.2735    2.7989    0.0000 C   0  0  0  0  0  0  0  0  0  0  0  0
    1.8387   -1.1684    0.0000 C   0  0  0  0  0  0  0  0  0  0  0  0
    2.2554   -2.4910    0.0000 C   0  0  0  0  0  0  0  0  0  0  0  0
    0.8605   -2.1830    0.0000 C   0  0  0  0  0  0  0  0  0  0  0  0
    2.3279    1.6576    0.0000 C   0  0  0  0  0  0  0  0  0  0  0  0
    1.6214    0.4257    0.0000 C   0  0  0  0  0  0  0  0  0  0  0  0
    1.4764   -2.7446    0.0000 C   0  0  0  0  0  0  0  0  0  0  0  0
    3.0526    1.2591    0.0000 C   0  0  0  0  0  0  0  0  0  0  0  0
    2.3460    0.0272    0.0000 C   0  0  0  0  0  0  0  0  0  0  0  0
    3.0344    0.4439    0.0000 C   0  0  0  0  0  0  0  0  0  0  0  0
   -0.2989    3.4330    0.0000 C   0  0  0  0  0  0  0  0  0  0  0  0
    2.8895   -3.0526    0.0000 C   0  0  0  0  0  0  0  0  0  0  0  0
    3.2155   -1.4402    0.0000 C   0  0  0  0  0  0  0  0  0  0  0  0
    3.7590    0.0091    0.0000 C   0  0  0  0  0  0  0  0  0  0  0  0
  1 29  1  0  0  0  0
  2 13  2  0  0  0  0
  2 14  2  0  0  0  0
  2 33  1  0  0  0  0
  2 46  1  0  0  0  0
  3 34  1  0  0  0  0
  4 34  1  0  0  0  0
  5 34  1  0  0  0  0
  6 40  1  0  0  0  0
  7 41  1  0  0  0  0
  8 42  1  0  0  0  0
  9 47  1  0  0  0  0
 10 47  1  0  0  0  0
 11 20  1  0  0  0  0
 11 31  1  0  0  0  0
 12 43  1  0  0  0  0
 12 47  1  0  0  0  0
 15 45  1  0  0  0  0
 16 17  1  0  0  0  0
 16 21  1  0  0  0  0
 16 30  1  0  0  0  0
 17 26  2  0  0  0  0
 18 22  1  0  0  0  0
 18 31  2  0  0  0  0
 19 20  1  0  0  0  0
 19 21  1  0  0  0  0
 19 24  2  0  0  0  0
 20 22  2  0  0  0  0
 21 28  2  0  0  0  0
 22 25  1  0  0  0  0
 23 24  1  0  0  0  0
 23 27  1  0  0  0  0
 23 32  2  0  0  0  0
 25 38  2  0  0  0  0
 25 39  1  0  0  0  0
 26 29  1  0  0  0  0
 26 34  1  0  0  0  0
 27 35  1  0  0  0  0
 27 37  2  0  0  0  0
 28 32  1  0  0  0  0
 29 30  2  0  0  0  0
 31 44  1  0  0  0  0
 33 35  2  0  0  0  0
 33 36  1  0  0  0  0
 36 40  2  0  0  0  0
 36 45  1  0  0  0  0
 37 40  1  0  0  0  0
 38 41  1  0  0  0  0
 39 42  2  0  0  0  0
 41 43  2  0  0  0  0
 42 43  1  0  0  0  0
M  END
> <PUBCHEM_COMPOUND_ID_TYPE>
0

> <PUBCHEM_TOTAL_CHARGE>
0

> <PUBCHEM_SUBSTANCE_ID>
310948565

> <PUBCHEM_SUBSTANCE_VERSION>
1

> <PUBCHEM_EXT_DATASOURCE_NAME>
4488

> <PUBCHEM_EXT_DATASOURCE_REGID>
SCHEMBL16126747

> <PUBCHEM_SUBSTANCE_COMMENT>
InChI=1S/C29H18ClF8N3O5S/c1-12-39-24(15-7-20(32)26(21(33)8-15)46-28(34)35)25(45-12)16-5-13(14-6-19(31)17(11-42)23(9-14)47(2,43)44)3-4-22(16)41-10-18(30)27(40-41)29(36,37)38/h3-10,28,42H,11H2,1-2H3
InChIKey=LTDSEVGTCKKPGK-UHFFFAOYSA-N

> <PUBCHEM_SUBSTANCE_SYNONYM>
SCHEMBL16126747

> <PUBCHEM_XREF_EXT_ID>
SCHEMBL16126747

> <PUBCHEM_EXT_DATASOURCE_URL>
https://www.surechembl.org/

> <PUBCHEM_EXT_SUBSTANCE_URL>
https://www.surechembl.org/chemical/SCHEMBL16126747

> <PUBCHEM_CID_ASSOCIATIONS>
117614115  1

> <PUBCHEM_COORDINATE_TYPE>
1
3

$$$$
