310937455
  -OEChem-07211613022D

 25 27  0     1  0  0  0  0  0999 V2000
    2.4999   -2.1499    0.0000 O   0  0  0  0  0  0  0  0  0  0  0  0
    2.8749   -1.4749    0.0000 O   0  0  0  0  0  0  0  0  0  0  0  0
    2.4999   -4.9999    0.0000 O   0  0  0  0  0  0  0  0  0  0  0  0
    3.6499    0.0000    0.0000 O   0  0  0  0  0  0  0  0  0  0  0  0
    2.4749   -3.5749    0.0000 N   0  0  0  0  0  0  0  0  0  0  0  0
    3.7249   -4.2749    0.0000 N   0  0  0  0  0  0  0  0  0  0  0  0
    4.1499   -3.5749    0.0000 N   0  0  0  0  0  0  0  0  0  0  0  0
    4.9248   -0.7250    0.0000 N   0  0  0  0  0  0  0  0  0  0  0  0
    5.3499   -1.4000    0.0000 N   0  0  0  0  0  0  0  0  0  0  0  0
    3.7249   -2.8749    0.0000 C   0  0  3  0  0  0  0  0  0  0  0  0
    2.9249   -2.8749    0.0000 C   0  0  0  0  0  0  0  0  0  0  0  0
    4.1249   -2.1499    0.0000 C   0  0  0  0  0  0  0  0  0  0  0  0
    2.9249   -4.2749    0.0000 C   0  0  0  0  0  0  0  0  0  0  0  0
    3.6999   -1.4500    0.0000 C   0  0  0  0  0  0  0  0  0  0  0  0
    1.6499   -3.5749    0.0000 C   0  0  0  0  0  0  0  0  0  0  0  0
    4.0749   -0.7000    0.0000 C   0  0  0  0  0  0  0  0  0  0  0  0
    4.9499   -2.1499    0.0000 C   0  0  0  0  0  0  0  0  0  0  0  0
    1.2250   -4.2999    0.0000 C   0  0  0  0  0  0  0  0  0  0  0  0
    1.2250   -2.8749    0.0000 C   0  0  0  0  0  0  0  0  0  0  0  0
    4.1249   -4.9999    0.0000 C   0  0  0  0  0  0  0  0  0  0  0  0
    0.4250   -4.2999    0.0000 C   0  0  0  0  0  0  0  0  0  0  0  0
    0.4250   -2.8749    0.0000 C   0  0  0  0  0  0  0  0  0  0  0  0
    5.3248    0.0000    0.0000 C   0  0  0  0  0  0  0  0  0  0  0  0
    0.0000   -3.5749    0.0000 C   0  0  0  0  0  0  0  0  0  0  0  0
    2.6499   -2.3749    0.0000 C   0  0  0  0  0  0  0  0  0  0  0  0
  1 11  2  0  0  0  0
  2 14  1  0  0  0  0
  2 25  1  0  0  0  0
  3 13  2  0  0  0  0
  4 16  2  0  0  0  0
  5 11  1  0  0  0  0
  5 13  1  0  0  0  0
  5 15  1  0  0  0  0
  6  7  1  0  0  0  0
  6 13  1  0  0  0  0
  6 20  1  0  0  0  0
  7 10  1  0  0  0  0
  8  9  1  0  0  0  0
  8 16  1  0  0  0  0
  8 23  1  0  0  0  0
  9 17  2  0  0  0  0
 10 11  1  0  0  0  0
 10 12  1  0  0  0  0
 12 14  2  0  0  0  0
 12 17  1  0  0  0  0
 14 16  1  0  0  0  0
 15 18  2  0  0  0  0
 15 19  1  0  0  0  0
 18 21  1  0  0  0  0
 19 22  2  0  0  0  0
 21 24  2  0  0  0  0
 22 24  1  0  0  0  0
M  END
> <PUBCHEM_COMPOUND_ID_TYPE>
0

> <PUBCHEM_TOTAL_CHARGE>
0

> <PUBCHEM_SUBSTANCE_ID>
310937455

> <PUBCHEM_SUBSTANCE_VERSION>
1

> <PUBCHEM_EXT_DATASOURCE_NAME>
4488

> <PUBCHEM_EXT_DATASOURCE_REGID>
SCHEMBL16115223

> <PUBCHEM_SUBSTANCE_COMMENT>
InChI=1S/C16H17N5O4/c1-19-15(23)13(25-3)11(9-17-19)12-14(22)21(16(24)20(2)18-12)10-7-5-4-6-8-10/h4-9,12,18H,1-3H3
InChIKey=MRWCYXKQWBDCKT-UHFFFAOYSA-N

> <PUBCHEM_SUBSTANCE_SYNONYM>
SCHEMBL16115223

> <PUBCHEM_XREF_EXT_ID>
SCHEMBL16115223

> <PUBCHEM_EXT_DATASOURCE_URL>
https://www.surechembl.org/

> <PUBCHEM_EXT_SUBSTANCE_URL>
https://www.surechembl.org/chemical/SCHEMBL16115223

> <PUBCHEM_CID_ASSOCIATIONS>
117605200  1

> <PUBCHEM_COORDINATE_TYPE>
1
3

$$$$
