310933602
  -OEChem-07211613022D

 47 52  0     1  0  0  0  0  0999 V2000
    7.5219   -0.5823    0.0000 Cl  0  0  0  0  0  0  0  0  0  0  0  0
    6.8424   -2.0867    0.0000 F   0  0  0  0  0  0  0  0  0  0  0  0
    2.9117   -3.2028    0.0000 O   0  0  0  0  0  0  0  0  0  0  0  0
    5.0469   -3.6396    0.0000 O   0  0  0  0  0  0  0  0  0  0  0  0
    0.0000   -8.0556    0.0000 O   0  0  0  0  0  0  0  0  0  0  0  0
    8.5894   -2.3778    0.0000 O   0  0  0  0  0  0  0  0  0  0  0  0
    9.2688   -3.6396    0.0000 O   0  0  0  0  0  0  0  0  0  0  0  0
    3.6396   -4.4160    0.0000 N   0  0  0  0  0  0  0  0  0  0  0  0
    5.2410   -2.2323    0.0000 N   0  0  0  0  0  0  0  0  0  0  0  0
    5.2410   -3.7367    0.0000 N   0  0  0  0  0  0  0  0  0  0  0  0
    5.7263   -4.8528    0.0000 N   0  0  0  0  0  0  0  0  0  0  0  0
    5.6293   -2.9602    0.0000 N   0  0  0  0  0  0  0  0  0  0  0  0
    2.1352   -8.4924    0.0000 N   0  0  0  0  0  0  0  0  0  0  0  0
    0.6794   -9.3173    0.0000 N   0  0  0  0  0  0  0  0  0  0  0  0
    4.3190   -4.8528    0.0000 C   0  0  3  0  0  0  0  0  0  0  0  0
    4.3190   -5.6778    0.0000 C   0  0  0  0  0  0  0  0  0  0  0  0
    3.6396   -6.0660    0.0000 C   0  0  0  0  0  0  0  0  0  0  0  0
    3.5910   -6.8910    0.0000 C   0  0  0  0  0  0  0  0  0  0  0  0
    3.6396   -3.6396    0.0000 C   0  0  0  0  0  0  0  0  0  0  0  0
    5.0469   -4.4646    0.0000 C   0  0  0  0  0  0  0  0  0  0  0  0
    4.3675   -3.2028    0.0000 C   0  0  0  0  0  0  0  0  0  0  0  0
    2.9117   -4.8528    0.0000 C   0  0  0  0  0  0  0  0  0  0  0  0
    2.9117   -5.6778    0.0000 C   0  0  0  0  0  0  0  0  0  0  0  0
    5.0469   -6.0660    0.0000 C   0  0  0  0  0  0  0  0  0  0  0  0
    2.9117   -7.2792    0.0000 C   0  0  0  0  0  0  0  0  0  0  0  0
    4.3190   -7.2792    0.0000 C   0  0  0  0  0  0  0  0  0  0  0  0
    4.4160   -2.3778    0.0000 C   0  0  0  0  0  0  0  0  0  0  0  0
    5.0469   -6.8910    0.0000 C   0  0  0  0  0  0  0  0  0  0  0  0
    5.5807   -1.5044    0.0000 C   0  0  0  0  0  0  0  0  0  0  0  0
    6.3572   -1.4073    0.0000 C   0  0  0  0  0  0  0  0  0  0  0  0
    2.8631   -8.1041    0.0000 C   0  0  0  0  0  0  0  0  0  0  0  0
    2.1838   -6.8910    0.0000 C   0  0  0  0  0  0  0  0  0  0  0  0
    6.4542   -4.4646    0.0000 C   0  0  0  0  0  0  0  0  0  0  0  0
    5.0954   -0.8250    0.0000 C   0  0  0  0  0  0  0  0  0  0  0  0
    6.6969   -0.6794    0.0000 C   0  0  0  0  0  0  0  0  0  0  0  0
    1.4073   -8.1041    0.0000 C   0  0  0  0  0  0  0  0  0  0  0  0
    1.4559   -7.2792    0.0000 C   0  0  0  0  0  0  0  0  0  0  0  0
    5.4351   -0.0970    0.0000 C   0  0  0  0  0  0  0  0  0  0  0  0
    6.2601    0.0000    0.0000 C   0  0  0  0  0  0  0  0  0  0  0  0
    6.4542   -3.6396    0.0000 C   0  0  0  0  0  0  0  0  0  0  0  0
    7.1822   -4.8528    0.0000 C   0  0  0  0  0  0  0  0  0  0  0  0
    0.7279   -8.4924    0.0000 C   0  0  0  0  0  0  0  0  0  0  0  0
    7.8615   -3.6396    0.0000 C   0  0  0  0  0  0  0  0  0  0  0  0
    7.1822   -3.2028    0.0000 C   0  0  0  0  0  0  0  0  0  0  0  0
    7.8615   -4.4646    0.0000 C   0  0  0  0  0  0  0  0  0  0  0  0
    8.5894   -3.2028    0.0000 C   0  0  0  0  0  0  0  0  0  0  0  0
    0.0000   -9.7056    0.0000 C   0  0  0  0  0  0  0  0  0  0  0  0
  1 35  1  0  0  0  0
  2 30  1  0  0  0  0
  3 19  2  0  0  0  0
  4 20  2  0  0  0  0
  5 42  2  0  0  0  0
  6 46  2  0  0  0  0
  7 46  1  0  0  0  0
  8 15  1  0  0  0  0
  8 19  1  0  0  0  0
  8 22  1  0  0  0  0
  9 12  1  0  0  0  0
  9 27  1  0  0  0  0
  9 29  1  0  0  0  0
 10 12  2  0  0  0  0
 10 21  1  0  0  0  0
 11 20  1  0  0  0  0
 11 33  1  0  0  0  0
 13 31  1  0  0  0  0
 13 36  2  0  0  0  0
 14 42  1  0  0  0  0
 14 47  1  0  0  0  0
 15 16  1  0  0  0  0
 15 20  1  6  0  0  0
 16 17  2  0  0  0  0
 16 24  1  0  0  0  0
 17 18  1  0  0  0  0
 17 23  1  0  0  0  0
 18 25  1  0  0  0  0
 18 26  2  0  0  0  0
 19 21  1  0  0  0  0
 21 27  2  0  0  0  0
 22 23  1  0  0  0  0
 24 28  2  0  0  0  0
 25 31  2  0  0  0  0
 25 32  1  0  0  0  0
 26 28  1  0  0  0  0
 29 30  1  0  0  0  0
 29 34  2  0  0  0  0
 30 35  2  0  0  0  0
 32 37  2  0  0  0  0
 33 40  2  0  0  0  0
 33 41  1  0  0  0  0
 34 38  1  0  0  0  0
 35 39  1  0  0  0  0
 36 37  1  0  0  0  0
 36 42  1  0  0  0  0
 38 39  2  0  0  0  0
 40 44  1  0  0  0  0
 41 45  2  0  0  0  0
 43 44  2  0  0  0  0
 43 45  1  0  0  0  0
 43 46  1  0  0  0  0
M  END
> <PUBCHEM_COMPOUND_ID_TYPE>
0

> <PUBCHEM_TOTAL_CHARGE>
0

> <PUBCHEM_SUBSTANCE_ID>
310933602

> <PUBCHEM_SUBSTANCE_VERSION>
1

> <PUBCHEM_EXT_DATASOURCE_NAME>
4488

> <PUBCHEM_EXT_DATASOURCE_REGID>
SCHEMBL16111031

> <PUBCHEM_SUBSTANCE_COMMENT>
InChI=1S/C33H25ClFN7O5/c1-36-30(43)25-13-10-19(16-37-25)21-4-2-5-23-22(21)14-15-41(29(23)31(44)38-20-11-8-18(9-12-20)33(46)47)32(45)26-17-42(40-39-26)27-7-3-6-24(34)28(27)35/h2-13,16-17,29H,14-15H2,1H3,(H,36,43)(H,38,44)(H,46,47)/t29-/m0/s1
InChIKey=MNYQVTQMJHBGTD-LJAQVGFWSA-N

> <PUBCHEM_SUBSTANCE_SYNONYM>
SCHEMBL16111031

> <PUBCHEM_XREF_EXT_ID>
SCHEMBL16111031

> <PUBCHEM_EXT_DATASOURCE_URL>
https://www.surechembl.org/

> <PUBCHEM_EXT_SUBSTANCE_URL>
https://www.surechembl.org/chemical/SCHEMBL16111031

> <PUBCHEM_CID_ASSOCIATIONS>
86295516  1

> <PUBCHEM_COORDINATE_TYPE>
1
3

> <PUBCHEM_BONDANNOTATIONS>
15  20  6

$$$$
