310938961
  -OEChem-07211613022D

 43 47  0     1  0  0  0  0  0999 V2000
    3.3443   -3.5442    0.0000 S   0  0  0  0  0  0  0  0  0  0  0  0
    3.3443   -2.7192    0.0000 O   0  0  0  0  0  0  0  0  0  0  0  0
    2.6298   -3.1317    0.0000 O   0  0  0  0  0  0  0  0  0  0  0  0
    4.7732   -5.1942    0.0000 O   0  0  0  0  0  0  0  0  0  0  0  0
    4.0588   -3.9567    0.0000 O   0  0  0  0  0  0  0  0  0  0  0  0
    2.6298   -3.9567    0.0000 N   0  0  0  0  0  0  0  0  0  0  0  0
    3.3443   -6.0192    0.0000 N   0  0  0  0  0  0  0  0  0  0  0  0
    4.1693   -2.1153    0.0000 N   0  0  0  0  0  0  0  0  0  0  0  0
    4.1693   -3.5442    0.0000 C   0  0  0  0  0  0  0  0  0  0  0  0
    2.6298   -4.7817    0.0000 C   0  0  3  0  0  0  0  0  0  0  0  0
    4.5818   -2.8298    0.0000 C   0  0  0  0  0  0  0  0  0  0  0  0
    3.3443   -5.1942    0.0000 C   0  0  3  0  0  0  0  0  0  0  0  0
    5.4068   -2.8298    0.0000 C   0  0  0  0  0  0  0  0  0  0  0  0
    1.9153   -5.1942    0.0000 C   0  0  0  0  0  0  0  0  0  0  0  0
    4.5818   -4.2587    0.0000 C   0  0  0  0  0  0  0  0  0  0  0  0
    4.0588   -4.7817    0.0000 C   0  0  0  0  0  0  0  0  0  0  0  0
    4.0588   -6.4317    0.0000 C   0  0  0  0  0  0  0  0  0  0  0  0
    5.8193   -3.5442    0.0000 C   0  0  0  0  0  0  0  0  0  0  0  0
    5.4068   -4.2587    0.0000 C   0  0  0  0  0  0  0  0  0  0  0  0
    4.0588   -7.2567    0.0000 C   0  0  0  0  0  0  0  0  0  0  0  0
    4.7732   -6.0192    0.0000 C   0  0  0  0  0  0  0  0  0  0  0  0
    5.8193   -2.1153    0.0000 C   0  0  0  0  0  0  0  0  0  0  0  0
    1.2009   -4.7817    0.0000 C   0  0  0  0  0  0  0  0  0  0  0  0
    1.9153   -6.0192    0.0000 C   0  0  0  0  0  0  0  0  0  0  0  0
    4.5818   -1.4008    0.0000 C   0  0  0  0  0  0  0  0  0  0  0  0
    5.4068   -1.4008    0.0000 C   0  0  0  0  0  0  0  0  0  0  0  0
    5.4877   -4.7817    0.0000 C   0  0  0  0  0  0  0  0  0  0  0  0
    3.3443   -7.6692    0.0000 C   0  0  0  0  0  0  0  0  0  0  0  0
    5.4877   -6.4317    0.0000 C   0  0  0  0  0  0  0  0  0  0  0  0
    4.7732   -7.6692    0.0000 C   0  0  0  0  0  0  0  0  0  0  0  0
    4.7732   -5.1942    0.0000 C   0  0  0  0  0  0  0  0  0  0  0  0
    0.4864   -5.1942    0.0000 C   0  0  0  0  0  0  0  0  0  0  0  0
    1.2009   -6.4317    0.0000 C   0  0  0  0  0  0  0  0  0  0  0  0
    0.4864   -6.0192    0.0000 C   0  0  0  0  0  0  0  0  0  0  0  0
    3.3443   -8.4942    0.0000 C   0  0  0  0  0  0  0  0  0  0  0  0
    6.2022   -6.0192    0.0000 C   0  0  0  0  0  0  0  0  0  0  0  0
    4.7732   -8.4942    0.0000 C   0  0  0  0  0  0  0  0  0  0  0  0
    5.4877   -4.7817    0.0000 C   0  0  0  0  0  0  0  0  0  0  0  0
    6.2022   -5.1942    0.0000 C   0  0  0  0  0  0  0  0  0  0  0  0
    6.2022   -4.3692    0.0000 C   0  0  0  0  0  0  0  0  0  0  0  0
    5.4877   -3.9567    0.0000 C   0  0  0  0  0  0  0  0  0  0  0  0
    4.0588   -8.9067    0.0000 C   0  0  0  0  0  0  0  0  0  0  0  0
    6.2022   -5.1942    0.0000 C   0  0  0  0  0  0  0  0  0  0  0  0
  1  2  2  0  0  0  0
  1  3  2  0  0  0  0
  1  6  1  0  0  0  0
  1  9  1  0  0  0  0
  4 16  1  0  0  0  0
  4 27  1  0  0  0  0
  5 16  2  0  0  0  0
  6 10  1  0  0  0  0
 12  7  1  1  0  0  0
  7 17  2  0  0  0  0
  8 11  1  0  0  0  0
  8 25  2  0  0  0  0
  9 11  1  0  0  0  0
  9 15  2  0  0  0  0
 10 12  1  0  0  0  0
 10 14  1  0  0  0  0
 11 13  2  0  0  0  0
 12 16  1  0  0  0  0
 13 18  1  0  0  0  0
 13 22  1  0  0  0  0
 14 23  2  0  0  0  0
 14 24  1  0  0  0  0
 15 19  1  0  0  0  0
 17 20  1  0  0  0  0
 17 21  1  0  0  0  0
 18 19  2  0  0  0  0
 20 28  2  0  0  0  0
 20 30  1  0  0  0  0
 21 29  2  0  0  0  0
 21 31  1  0  0  0  0
 22 26  2  0  0  0  0
 23 32  1  0  0  0  0
 24 33  2  0  0  0  0
 25 26  1  0  0  0  0
 27 39  1  0  0  0  0
 27 40  1  0  0  0  0
 27 41  1  0  0  0  0
 28 35  1  0  0  0  0
 29 36  1  0  0  0  0
 30 37  2  0  0  0  0
 31 38  2  0  0  0  0
 32 34  2  0  0  0  0
 33 34  1  0  0  0  0
 35 42  2  0  0  0  0
 36 43  2  0  0  0  0
 37 42  1  0  0  0  0
 38 43  1  0  0  0  0
M  END
> <PUBCHEM_COMPOUND_ID_TYPE>
0

> <PUBCHEM_TOTAL_CHARGE>
0

> <PUBCHEM_SUBSTANCE_ID>
310938961

> <PUBCHEM_SUBSTANCE_VERSION>
1

> <PUBCHEM_EXT_DATASOURCE_NAME>
4488

> <PUBCHEM_EXT_DATASOURCE_REGID>
SCHEMBL16116880

> <PUBCHEM_SUBSTANCE_COMMENT>
InChI=1S/C35H33N3O4S/c1-35(2,3)42-34(39)33(37-30(25-15-7-4-8-16-25)26-17-9-5-10-18-26)32(28-19-11-6-12-20-28)38-43(40,41)29-23-13-21-27-22-14-24-36-31(27)29/h4-24,32-33,38H,1-3H3/t32?,33-/m0/s1
InChIKey=QDBQJSXBQWKGBP-OBOZPERJSA-N

> <PUBCHEM_SUBSTANCE_SYNONYM>
SCHEMBL16116880

> <PUBCHEM_XREF_EXT_ID>
SCHEMBL16116880

> <PUBCHEM_EXT_DATASOURCE_URL>
https://www.surechembl.org/

> <PUBCHEM_EXT_SUBSTANCE_URL>
https://www.surechembl.org/chemical/SCHEMBL16116880

> <PUBCHEM_CID_ASSOCIATIONS>
117606349  1

> <PUBCHEM_COORDINATE_TYPE>
1
3

> <PUBCHEM_BONDANNOTATIONS>
12  7  5

$$$$
