310941123
  -OEChem-07211613022D

 27 27  0     1  0  0  0  0  0999 V2000
    0.0069   -1.0238    0.0000 O   0  0  0  0  0  0  0  0  0  0  0  0
    1.4498   -0.1855    0.0000 O   0  0  0  0  0  0  0  0  0  0  0  0
   -0.1379    0.9118    0.0000 O   0  0  0  0  0  0  0  0  0  0  0  0
    0.0069    2.3018    0.0000 O   0  0  0  0  0  0  0  0  0  0  0  0
   -0.7078    3.5524    0.0000 O   0  0  0  0  0  0  0  0  0  0  0  0
   -0.6362    0.0924    0.0000 O   0  0  0  0  0  0  0  0  0  0  0  0
   -2.1644    2.7279    0.0000 N   0  0  0  0  0  0  0  0  0  0  0  0
   -0.7078    1.0650    0.0000 C   0  0  0  0  0  0  0  0  0  0  0  0
    0.0069   -0.1718    0.0000 C   0  0  0  0  0  0  0  0  0  0  0  0
   -1.4223    2.3155    0.0000 C   0  0  3  0  0  0  0  0  0  0  0  0
    0.7215    0.2405    0.0000 C   0  0  0  0  0  0  0  0  0  0  0  0
   -0.7078    0.2405    0.0000 C   0  0  0  0  0  0  0  0  0  0  0  0
   -1.4498    1.4636    0.0000 C   0  0  0  0  0  0  0  0  0  0  0  0
   -0.0069    1.4636    0.0000 C   0  0  0  0  0  0  0  0  0  0  0  0
    0.7215    1.0650    0.0000 C   0  0  0  0  0  0  0  0  0  0  0  0
   -0.7352    2.7141    0.0000 C   0  0  0  0  0  0  0  0  0  0  0  0
   -0.6362    0.6239    0.0000 C   0  0  0  0  0  0  0  0  0  0  0  0
   -0.1269    1.4655    0.0000 C   0  0  0  0  0  0  0  0  0  0  0  0
    0.6940   -1.4360    0.0000 C   0  0  0  0  0  0  0  0  0  0  0  0
    0.3714    1.4876    0.0000 C   0  0  0  0  0  0  0  0  0  0  0  0
   -0.6362    1.4655    0.0000 C   0  0  0  0  0  0  0  0  0  0  0  0
   -0.1379    2.0081    0.0000 C   0  0  0  0  0  0  0  0  0  0  0  0
    2.1644    0.2130    0.0000 C   0  0  0  0  0  0  0  0  0  0  0  0
    0.6802   -2.2744    0.0000 C   0  0  0  0  0  0  0  0  0  0  0  0
    0.7078    2.7279    0.0000 C   0  0  0  0  0  0  0  0  0  0  0  0
    1.4086   -2.7141    0.0000 C   0  0  0  0  0  0  0  0  0  0  0  0
    1.3811   -3.5524    0.0000 C   0  0  0  0  0  0  0  0  0  0  0  0
  1  9  1  0  0  0  0
  1 19  1  0  0  0  0
  2 11  1  0  0  0  0
  2 23  1  0  0  0  0
  3 17  1  0  0  0  0
  3 18  1  0  0  0  0
  4 16  1  0  0  0  0
  4 25  1  0  0  0  0
  5 16  2  0  0  0  0
  6 17  2  0  0  0  0
 10  7  1  6  0  0  0
  7 17  1  0  0  0  0
  8 12  2  0  0  0  0
  8 13  1  0  0  0  0
  8 14  1  0  0  0  0
  9 11  2  0  0  0  0
  9 12  1  0  0  0  0
 10 13  1  0  0  0  0
 10 16  1  0  0  0  0
 11 15  1  0  0  0  0
 14 15  2  0  0  0  0
 18 20  1  0  0  0  0
 18 21  1  0  0  0  0
 18 22  1  0  0  0  0
 19 24  1  0  0  0  0
 24 26  1  0  0  0  0
 26 27  1  0  0  0  0
M  END
> <PUBCHEM_COMPOUND_ID_TYPE>
0

> <PUBCHEM_TOTAL_CHARGE>
0

> <PUBCHEM_SUBSTANCE_ID>
310941123

> <PUBCHEM_SUBSTANCE_VERSION>
1

> <PUBCHEM_EXT_DATASOURCE_NAME>
4488

> <PUBCHEM_EXT_DATASOURCE_REGID>
SCHEMBL16119083

> <PUBCHEM_SUBSTANCE_COMMENT>
InChI=1S/C20H31NO6/c1-7-8-11-26-17-13-14(9-10-16(17)24-5)12-15(18(22)25-6)21-19(23)27-20(2,3)4/h9-10,13,15H,7-8,11-12H2,1-6H3,(H,21,23)/t15-/m0/s1
InChIKey=ZZQZUGUWJLULPX-HNNXBMFYSA-N

> <PUBCHEM_SUBSTANCE_SYNONYM>
SCHEMBL16119083

> <PUBCHEM_XREF_EXT_ID>
SCHEMBL16119083

> <PUBCHEM_EXT_DATASOURCE_URL>
https://www.surechembl.org/

> <PUBCHEM_EXT_SUBSTANCE_URL>
https://www.surechembl.org/chemical/SCHEMBL16119083

> <PUBCHEM_CID_ASSOCIATIONS>
117608006  1

> <PUBCHEM_COORDINATE_TYPE>
1
3

> <PUBCHEM_BONDANNOTATIONS>
10  7  6

$$$$
