310949006
  -OEChem-07211613022D

 31 34  0     1  0  0  0  0  0999 V2000
    0.5341    2.6297    0.0000 F   0  0  0  0  0  0  0  0  0  0  0  0
    0.8834    1.5613    0.0000 F   0  0  0  0  0  0  0  0  0  0  0  0
   -0.2054    1.2327    0.0000 F   0  0  0  0  0  0  0  0  0  0  0  0
   -2.0339   -2.6297    0.0000 O   0  0  0  0  0  0  0  0  0  0  0  0
    1.7668   -0.7808    0.0000 O   0  0  0  0  0  0  0  0  0  0  0  0
   -1.2943   -1.3970    0.0000 N   0  0  0  0  0  0  0  0  0  0  0  0
    0.2465   -2.3626    0.0000 N   0  0  0  0  0  0  0  0  0  0  0  0
   -0.1438   -3.5748    0.0000 N   0  0  0  0  0  0  0  0  0  0  0  0
   -0.1438   -3.5748    0.0000 N   0  0  0  0  0  0  0  0  0  0  0  0
   -1.7257   -0.1027    0.0000 C   0  0  3  0  0  0  0  0  0  0  0  0
   -0.9040   -0.1232    0.0000 C   0  0  3  0  0  0  0  0  0  0  0  0
   -1.3354    1.1094    0.0000 C   0  0  0  0  0  0  0  0  0  0  0  0
   -1.3149    1.9927    0.0000 C   0  0  0  0  0  0  0  0  0  0  0  0
   -1.9927    0.6573    0.0000 C   0  0  0  0  0  0  0  0  0  0  0  0
   -0.6368    0.6573    0.0000 C   0  0  0  0  0  0  0  0  0  0  0  0
   -1.9927   -0.9040    0.0000 C   0  0  0  0  0  0  0  0  0  0  0  0
   -0.6162   -0.8834    0.0000 C   0  0  0  0  0  0  0  0  0  0  0  0
   -0.6162    2.3626    0.0000 C   0  0  0  0  0  0  0  0  0  0  0  0
   -1.2943   -2.1983    0.0000 C   0  0  0  0  0  0  0  0  0  0  0  0
   -0.5546   -2.6092    0.0000 C   0  0  0  0  0  0  0  0  0  0  0  0
    0.1438    1.9311    0.0000 C   0  0  0  0  0  0  0  0  0  0  0  0
   -2.0339    2.3421    0.0000 C   0  0  0  0  0  0  0  0  0  0  0  0
   -0.5957    3.1843    0.0000 C   0  0  0  0  0  0  0  0  0  0  0  0
   -2.0544    3.1843    0.0000 C   0  0  0  0  0  0  0  0  0  0  0  0
    0.5957   -1.6024    0.0000 C   0  0  0  0  0  0  0  0  0  0  0  0
   -1.3354    3.5748    0.0000 C   0  0  0  0  0  0  0  0  0  0  0  0
    0.7808   -3.0200    0.0000 C   0  0  0  0  0  0  0  0  0  0  0  0
    1.4586   -1.5202    0.0000 C   0  0  0  0  0  0  0  0  0  0  0  0
    1.6024   -2.9172    0.0000 C   0  0  0  0  0  0  0  0  0  0  0  0
    1.9311   -2.1778    0.0000 C   0  0  0  0  0  0  0  0  0  0  0  0
    2.5886   -0.6986    0.0000 C   0  0  0  0  0  0  0  0  0  0  0  0
  1 21  1  0  0  0  0
  2 21  1  0  0  0  0
  3 21  1  0  0  0  0
  4 19  2  0  0  0  0
  5 28  1  0  0  0  0
  5 31  1  0  0  0  0
  6 16  1  0  0  0  0
  6 17  1  0  0  0  0
  6 19  1  0  0  0  0
  7 20  1  0  0  0  0
  7 25  1  0  0  0  0
  7 27  1  0  0  0  0
  8  9  1  0  0  0  0
  8 20  2  3  0  0  0
 10 11  1  0  0  0  0
 10 14  1  1  0  0  0
 10 16  1  0  0  0  0
 11 15  1  1  0  0  0
 11 17  1  0  0  0  0
 12 13  1  0  0  0  0
 12 14  1  1  0  0  0
 12 15  1  0  0  0  0
 13 18  2  0  0  0  0
 13 22  1  0  0  0  0
 18 21  1  0  0  0  0
 18 23  1  0  0  0  0
 19 20  1  0  0  0  0
 22 24  2  0  0  0  0
 23 26  2  0  0  0  0
 24 26  1  0  0  0  0
 25 28  2  0  0  0  0
 27 29  1  0  0  0  0
 28 30  1  0  0  0  0
 29 30  2  0  0  0  0
M  END
> <PUBCHEM_COMPOUND_ID_TYPE>
0

> <PUBCHEM_TOTAL_CHARGE>
0

> <PUBCHEM_SUBSTANCE_ID>
310949006

> <PUBCHEM_SUBSTANCE_VERSION>
1

> <PUBCHEM_EXT_DATASOURCE_NAME>
4488

> <PUBCHEM_EXT_DATASOURCE_REGID>
SCHEMBL16127194

> <PUBCHEM_SUBSTANCE_COMMENT>
InChI=1S/C22H25F3N4O2/c1-31-17-5-4-8-28(13-17)20(27-26)21(30)29-11-15-9-14(10-16(15)12-29)18-6-2-3-7-19(18)22(23,24)25/h2-7,13-16H,8-12,26H2,1H3/b27-20+/t14-,15-,16+
InChIKey=LBDHZJXXPILZRM-JAARDYCSSA-N

> <PUBCHEM_SUBSTANCE_SYNONYM>
SCHEMBL16127194

> <PUBCHEM_XREF_EXT_ID>
SCHEMBL16127194

> <PUBCHEM_EXT_DATASOURCE_URL>
https://www.surechembl.org/

> <PUBCHEM_EXT_SUBSTANCE_URL>
https://www.surechembl.org/chemical/SCHEMBL16127194

> <PUBCHEM_CID_ASSOCIATIONS>
117614514  1

> <PUBCHEM_COORDINATE_TYPE>
1
3

> <PUBCHEM_BONDANNOTATIONS>
10  14  5
11  15  5
12  14  5

$$$$
