310948275
  -OEChem-07211613022D

 46 51  0     0  0  0  0  0  0999 V2000
    1.4359   -1.8647    0.0000 S   0  0  0  0  0  0  0  0  0  0  0  0
   -0.0062    0.6216    0.0000 O   0  0  0  0  0  0  0  0  0  0  0  0
    1.4359   -1.8647    0.0000 O   0  0  0  0  0  0  0  0  0  0  0  0
    1.4359   -1.8647    0.0000 O   0  0  0  0  0  0  0  0  0  0  0  0
    1.4359   -1.8647    0.0000 O   0  0  0  0  0  0  0  0  0  0  0  0
    5.0160    3.5180    0.0000 O   0  0  0  0  0  0  0  0  0  0  0  0
   -5.0284    3.5180    0.0000 O   0  0  0  0  0  0  0  0  0  0  0  0
    3.0021    0.6216    0.0000 N   0  0  0  0  0  0  0  0  0  0  0  0
   -2.7287    0.6216    0.0000 N   0  0  0  0  0  0  0  0  0  0  0  0
    5.8737    2.2873    0.0000 N   0  0  0  0  0  0  0  0  0  0  0  0
   -5.7370    2.2873    0.0000 N   0  0  0  0  0  0  0  0  0  0  0  0
    0.0062   -1.0318    0.0000 C   0  0  0  0  0  0  0  0  0  0  0  0
    0.7148   -0.6216    0.0000 C   0  0  0  0  0  0  0  0  0  0  0  0
   -0.7272   -0.6091    0.0000 C   0  0  0  0  0  0  0  0  0  0  0  0
   -0.0062   -1.8647    0.0000 C   0  0  0  0  0  0  0  0  0  0  0  0
    0.7272    0.2113    0.0000 C   0  0  0  0  0  0  0  0  0  0  0  0
   -0.7148    0.2237    0.0000 C   0  0  0  0  0  0  0  0  0  0  0  0
    0.7272   -2.2749    0.0000 C   0  0  0  0  0  0  0  0  0  0  0  0
    1.4359   -1.0318    0.0000 C   0  0  0  0  0  0  0  0  0  0  0  0
   -1.4359   -1.0318    0.0000 C   0  0  0  0  0  0  0  0  0  0  0  0
    1.4234    0.6091    0.0000 C   0  0  0  0  0  0  0  0  0  0  0  0
   -1.4359    0.6216    0.0000 C   0  0  0  0  0  0  0  0  0  0  0  0
   -0.7024   -2.2749    0.0000 C   0  0  0  0  0  0  0  0  0  0  0  0
    2.1568    0.2237    0.0000 C   0  0  0  0  0  0  0  0  0  0  0  0
   -2.1443    0.2113    0.0000 C   0  0  0  0  0  0  0  0  0  0  0  0
    2.1568   -0.6091    0.0000 C   0  0  0  0  0  0  0  0  0  0  0  0
   -2.1443   -0.6216    0.0000 C   0  0  0  0  0  0  0  0  0  0  0  0
    0.7148   -3.1078    0.0000 C   0  0  0  0  0  0  0  0  0  0  0  0
   -0.7024   -3.0954    0.0000 C   0  0  0  0  0  0  0  0  0  0  0  0
    0.0062   -3.5180    0.0000 C   0  0  0  0  0  0  0  0  0  0  0  0
    3.5864    1.0442    0.0000 C   0  0  0  0  0  0  0  0  0  0  0  0
   -3.5988    1.0442    0.0000 C   0  0  0  0  0  0  0  0  0  0  0  0
    4.3075    0.6340    0.0000 C   0  0  0  0  0  0  0  0  0  0  0  0
    3.5988    1.8647    0.0000 C   0  0  0  0  0  0  0  0  0  0  0  0
   -3.5864    1.8647    0.0000 C   0  0  0  0  0  0  0  0  0  0  0  0
   -4.3075    0.6340    0.0000 C   0  0  0  0  0  0  0  0  0  0  0  0
    5.0284    1.8771    0.0000 C   0  0  0  0  0  0  0  0  0  0  0  0
   -5.0160    1.8647    0.0000 C   0  0  0  0  0  0  0  0  0  0  0  0
    5.0284    1.0442    0.0000 C   0  0  0  0  0  0  0  0  0  0  0  0
    4.3199    2.2749    0.0000 C   0  0  0  0  0  0  0  0  0  0  0  0
   -4.2950    2.2749    0.0000 C   0  0  0  0  0  0  0  0  0  0  0  0
   -5.0036    1.0442    0.0000 C   0  0  0  0  0  0  0  0  0  0  0  0
    5.7619    3.1078    0.0000 C   0  0  0  0  0  0  0  0  0  0  0  0
   -5.7494    3.1078    0.0000 C   0  0  0  0  0  0  0  0  0  0  0  0
    6.4581    3.5180    0.0000 C   0  0  0  0  0  0  0  0  0  0  0  0
   -6.4581    3.5180    0.0000 C   0  0  0  0  0  0  0  0  0  0  0  0
  1  3  2  0  0  0  0
  1  4  2  0  0  0  0
  1  5  1  0  0  0  0
  1 18  1  0  0  0  0
  2 16  1  0  0  0  0
  2 17  1  0  0  0  0
  6 43  2  0  0  0  0
  7 44  2  0  0  0  0
  8 24  2  0  0  0  0
  8 31  1  0  0  0  0
  9 25  1  0  0  0  0
  9 32  1  0  0  0  0
 10 37  1  0  0  0  0
 10 43  1  0  0  0  0
 11 38  1  0  0  0  0
 11 44  1  0  0  0  0
 12 13  2  0  0  0  0
 12 14  1  0  0  0  0
 12 15  1  0  0  0  0
 13 16  1  0  0  0  0
 13 19  1  0  0  0  0
 14 17  2  0  0  0  0
 14 20  1  0  0  0  0
 15 18  1  0  0  0  0
 15 23  2  0  0  0  0
 16 21  2  0  0  0  0
 17 22  1  0  0  0  0
 18 28  2  0  0  0  0
 19 26  2  0  0  0  0
 20 27  2  0  0  0  0
 21 24  1  0  0  0  0
 22 25  2  0  0  0  0
 23 29  1  0  0  0  0
 24 26  1  0  0  0  0
 25 27  1  0  0  0  0
 28 30  1  0  0  0  0
 29 30  2  0  0  0  0
 31 33  2  0  0  0  0
 31 34  1  0  0  0  0
 32 35  2  0  0  0  0
 32 36  1  0  0  0  0
 33 39  1  0  0  0  0
 34 40  2  0  0  0  0
 35 41  1  0  0  0  0
 36 42  2  0  0  0  0
 37 39  2  0  0  0  0
 37 40  1  0  0  0  0
 38 41  2  0  0  0  0
 38 42  1  0  0  0  0
 43 45  1  0  0  0  0
 44 46  1  0  0  0  0
M  END
> <PUBCHEM_COMPOUND_ID_TYPE>
0

> <PUBCHEM_TOTAL_CHARGE>
0

> <PUBCHEM_SUBSTANCE_ID>
310948275

> <PUBCHEM_SUBSTANCE_VERSION>
1

> <PUBCHEM_EXT_DATASOURCE_NAME>
4488

> <PUBCHEM_EXT_DATASOURCE_REGID>
SCHEMBL16126452

> <PUBCHEM_SUBSTANCE_COMMENT>
InChI=1S/C35H28N4O6S/c1-21(40)36-23-7-11-25(12-8-23)38-27-15-17-29-32(19-27)45-33-20-28(39-26-13-9-24(10-14-26)37-22(2)41)16-18-30(33)35(29)31-5-3-4-6-34(31)46(42,43)44/h3-20,38H,1-2H3,(H,36,40)(H,37,41)(H,42,43,44)/b39-28-
InChIKey=QMQNNFKRJIPSRX-WGSLGHPRSA-N

> <PUBCHEM_SUBSTANCE_SYNONYM>
SCHEMBL16126452

> <PUBCHEM_XREF_EXT_ID>
SCHEMBL16126452

> <PUBCHEM_EXT_DATASOURCE_URL>
https://www.surechembl.org/

> <PUBCHEM_EXT_SUBSTANCE_URL>
https://www.surechembl.org/chemical/SCHEMBL16126452

> <PUBCHEM_CID_ASSOCIATIONS>
117612596  1

> <PUBCHEM_COORDINATE_TYPE>
1
3

$$$$
