310949427
  -OEChem-07211613022D

 14 15  0     0  0  0  0  0  0999 V2000
    2.1656   -0.8344    0.0000 Br  0  0  0  0  0  0  0  0  0  0  0  0
   -2.1656   -0.8344    0.0000 Cl  0  0  0  0  0  0  0  0  0  0  0  0
   -2.1656   -0.8344    0.0000 O   0  0  0  0  0  0  0  0  0  0  0  0
   -0.7219    0.8344    0.0000 N   0  0  0  0  0  0  0  0  0  0  0  0
    0.0094   -0.4031    0.0000 C   0  0  0  0  0  0  0  0  0  0  0  0
    0.0094    0.4219    0.0000 C   0  0  0  0  0  0  0  0  0  0  0  0
   -1.4531   -0.4031    0.0000 C   0  0  0  0  0  0  0  0  0  0  0  0
   -0.6843   -0.8156    0.0000 C   0  0  0  0  0  0  0  0  0  0  0  0
    0.7593   -0.8156    0.0000 C   0  0  0  0  0  0  0  0  0  0  0  0
   -1.4156    0.4219    0.0000 C   0  0  0  0  0  0  0  0  0  0  0  0
    0.7219    0.8156    0.0000 C   0  0  0  0  0  0  0  0  0  0  0  0
    1.4343   -0.4031    0.0000 C   0  0  0  0  0  0  0  0  0  0  0  0
   -2.1656   -0.8344    0.0000 C   0  0  0  0  0  0  0  0  0  0  0  0
    1.4343    0.4031    0.0000 C   0  0  0  0  0  0  0  0  0  0  0  0
  1 12  1  0  0  0  0
  2 13  1  0  0  0  0
  3 13  2  0  0  0  0
  4  6  1  0  0  0  0
  4 10  2  0  0  0  0
  5  6  1  0  0  0  0
  5  8  1  0  0  0  0
  5  9  2  0  0  0  0
  6 11  2  0  0  0  0
  7  8  2  0  0  0  0
  7 10  1  0  0  0  0
  7 13  1  0  0  0  0
  9 12  1  0  0  0  0
 11 14  1  0  0  0  0
 12 14  2  0  0  0  0
M  END
> <PUBCHEM_COMPOUND_ID_TYPE>
0

> <PUBCHEM_TOTAL_CHARGE>
0

> <PUBCHEM_SUBSTANCE_ID>
310949427

> <PUBCHEM_SUBSTANCE_VERSION>
1

> <PUBCHEM_EXT_DATASOURCE_NAME>
4488

> <PUBCHEM_EXT_DATASOURCE_REGID>
SCHEMBL16127621

> <PUBCHEM_SUBSTANCE_COMMENT>
InChI=1S/C10H5BrClNO/c11-8-1-2-9-6(4-8)3-7(5-13-9)10(12)14/h1-5H
InChIKey=XFZALPZSRGBWAZ-UHFFFAOYSA-N

> <PUBCHEM_SUBSTANCE_SYNONYM>
SCHEMBL16127621

> <PUBCHEM_XREF_EXT_ID>
SCHEMBL16127621

> <PUBCHEM_EXT_DATASOURCE_URL>
https://www.surechembl.org/

> <PUBCHEM_EXT_SUBSTANCE_URL>
https://www.surechembl.org/chemical/SCHEMBL16127621

> <PUBCHEM_CID_ASSOCIATIONS>
117614878  1

> <PUBCHEM_COORDINATE_TYPE>
1
3

$$$$
