310949345
  -OEChem-07211613022D

 12 12  0     0  0  0  0  0  0999 V2000
   -1.4403   -0.8313    0.0000 O   0  0  0  0  0  0  0  0  0  0  0  0
   -1.4403   -0.8313    0.0000 O   0  0  0  0  0  0  0  0  0  0  0  0
    0.6990   -0.3972    0.0000 N   0  0  0  0  0  0  0  0  0  0  0  0
   -1.4403   -0.8313    0.0000 N   0  0  0  0  0  0  0  0  0  0  0  0
   -0.7307   -0.4183    0.0000 C   0  0  0  0  0  0  0  0  0  0  0  0
   -0.7201    0.4078    0.0000 C   0  0  0  0  0  0  0  0  0  0  0  0
   -1.4403   -0.8313    0.0000 C   0  0  0  0  0  0  0  0  0  0  0  0
    0.0000   -0.8102    0.0000 C   0  0  0  0  0  0  0  0  0  0  0  0
   -0.0318    0.8208    0.0000 C   0  0  0  0  0  0  0  0  0  0  0  0
    0.7201    0.4289    0.0000 C   0  0  0  0  0  0  0  0  0  0  0  0
   -1.3344    0.7572    0.0000 C   0  0  0  0  0  0  0  0  0  0  0  0
    1.4403    0.8313    0.0000 C   0  0  0  0  0  0  0  0  0  0  0  0
  1  4  1  0  0  0  0
  1  7  1  0  0  0  0
  2  7  2  0  0  0  0
  3  8  2  0  0  0  0
  3 10  1  0  0  0  0
  5  6  2  0  0  0  0
  5  7  1  0  0  0  0
  5  8  1  0  0  0  0
  6  9  1  0  0  0  0
  6 11  1  0  0  0  0
  9 10  2  0  0  0  0
 10 12  1  0  0  0  0
M  END
> <PUBCHEM_COMPOUND_ID_TYPE>
0

> <PUBCHEM_TOTAL_CHARGE>
0

> <PUBCHEM_SUBSTANCE_ID>
310949345

> <PUBCHEM_SUBSTANCE_VERSION>
1

> <PUBCHEM_EXT_DATASOURCE_NAME>
4488

> <PUBCHEM_EXT_DATASOURCE_REGID>
SCHEMBL16127535

> <PUBCHEM_SUBSTANCE_COMMENT>
InChI=1S/C8H10N2O2/c1-5-3-6(2)10-4-7(5)8(11)12-9/h3-4H,9H2,1-2H3
InChIKey=SRAYKSMJOLLLAS-UHFFFAOYSA-N

> <PUBCHEM_SUBSTANCE_SYNONYM>
SCHEMBL16127535

> <PUBCHEM_XREF_EXT_ID>
SCHEMBL16127535

> <PUBCHEM_EXT_DATASOURCE_URL>
https://www.surechembl.org/

> <PUBCHEM_EXT_SUBSTANCE_URL>
https://www.surechembl.org/chemical/SCHEMBL16127535

> <PUBCHEM_CID_ASSOCIATIONS>
117614820  1

> <PUBCHEM_COORDINATE_TYPE>
1
3

$$$$
