310943378
  -OEChem-07211613022D

 35 38  0     0  0  0  0  0  0999 V2000
    3.0644   -1.5938    0.0000 S   0  0  0  0  0  0  0  0  0  0  0  0
   -3.3556    0.4797    0.0000 O   0  0  0  0  0  0  0  0  0  0  0  0
    0.9295    0.4797    0.0000 O   0  0  0  0  0  0  0  0  0  0  0  0
    3.0644   -1.5938    0.0000 O   0  0  0  0  0  0  0  0  0  0  0  0
    3.0644   -1.5938    0.0000 O   0  0  0  0  0  0  0  0  0  0  0  0
   -4.7840    2.9525    0.0000 O   0  0  0  0  0  0  0  0  0  0  0  0
   -3.3556    2.1231    0.0000 N   0  0  0  0  0  0  0  0  0  0  0  0
   -1.9272    0.4797    0.0000 N   0  0  0  0  0  0  0  0  0  0  0  0
    1.6514    1.7084    0.0000 N   0  0  0  0  0  0  0  0  0  0  0  0
    3.7862   -0.3497    0.0000 N   0  0  0  0  0  0  0  0  0  0  0  0
   -1.2054    1.7238    0.0000 C   0  0  0  0  0  0  0  0  0  0  0  0
   -0.4989    2.1385    0.0000 C   0  0  0  0  0  0  0  0  0  0  0  0
   -2.6338    1.7238    0.0000 C   0  0  0  0  0  0  0  0  0  0  0  0
   -2.6492    0.8944    0.0000 C   0  0  0  0  0  0  0  0  0  0  0  0
   -1.9426    2.1231    0.0000 C   0  0  0  0  0  0  0  0  0  0  0  0
   -0.4989    2.9525    0.0000 C   0  0  0  0  0  0  0  0  0  0  0  0
    0.9142    2.1538    0.0000 C   0  0  0  0  0  0  0  0  0  0  0  0
    0.2230    1.7238    0.0000 C   0  0  0  0  0  0  0  0  0  0  0  0
   -1.2208    0.8944    0.0000 C   0  0  0  0  0  0  0  0  0  0  0  0
    2.3579    0.4797    0.0000 C   0  0  0  0  0  0  0  0  0  0  0  0
    3.0798   -0.7644    0.0000 C   0  0  0  0  0  0  0  0  0  0  0  0
    1.6514    0.9097    0.0000 C   0  0  0  0  0  0  0  0  0  0  0  0
    0.2076    3.3518    0.0000 C   0  0  0  0  0  0  0  0  0  0  0  0
    0.9142    2.9525    0.0000 C   0  0  0  0  0  0  0  0  0  0  0  0
    2.3579   -0.3497    0.0000 C   0  0  0  0  0  0  0  0  0  0  0  0
   -3.3710    2.9678    0.0000 C   0  0  0  0  0  0  0  0  0  0  0  0
   -4.0622    1.7238    0.0000 C   0  0  0  0  0  0  0  0  0  0  0  0
    3.0798    0.8944    0.0000 C   0  0  0  0  0  0  0  0  0  0  0  0
    3.7709    0.4797    0.0000 C   0  0  0  0  0  0  0  0  0  0  0  0
   -1.2208    3.3518    0.0000 C   0  0  0  0  0  0  0  0  0  0  0  0
   -4.0929    3.3672    0.0000 C   0  0  0  0  0  0  0  0  0  0  0  0
   -4.7840    2.1231    0.0000 C   0  0  0  0  0  0  0  0  0  0  0  0
    4.7840   -3.3672    0.0000 C   0  0  0  0  0  0  0  0  0  0  0  0
   -4.0776    0.8944    0.0000 C   0  0  0  0  0  0  0  0  0  0  0  0
   -4.7840    0.4643    0.0000 C   0  0  0  0  0  0  0  0  0  0  0  0
  1  4  2  0  0  0  0
  1  5  2  0  0  0  0
  1 21  1  0  0  0  0
  1 33  1  0  0  0  0
  2 14  1  0  0  0  0
  2 34  1  0  0  0  0
  3 22  2  0  0  0  0
  6 31  1  0  0  0  0
  6 32  1  0  0  0  0
  7 13  1  0  0  0  0
  7 26  1  0  0  0  0
  7 27  1  0  0  0  0
  8 14  2  0  0  0  0
  8 19  1  0  0  0  0
  9 17  1  0  0  0  0
  9 22  1  0  0  0  0
 10 21  2  0  0  0  0
 10 29  1  0  0  0  0
 11 12  1  0  0  0  0
 11 15  1  0  0  0  0
 11 19  2  0  0  0  0
 12 16  2  0  0  0  0
 12 18  1  0  0  0  0
 13 14  1  0  0  0  0
 13 15  2  0  0  0  0
 16 23  1  0  0  0  0
 16 30  1  0  0  0  0
 17 18  2  0  0  0  0
 17 24  1  0  0  0  0
 20 22  1  0  0  0  0
 20 25  2  0  0  0  0
 20 28  1  0  0  0  0
 21 25  1  0  0  0  0
 23 24  2  0  0  0  0
 26 31  1  0  0  0  0
 27 32  1  0  0  0  0
 28 29  2  0  0  0  0
 34 35  1  0  0  0  0
M  END
> <PUBCHEM_COMPOUND_ID_TYPE>
0

> <PUBCHEM_TOTAL_CHARGE>
0

> <PUBCHEM_SUBSTANCE_ID>
310943378

> <PUBCHEM_SUBSTANCE_VERSION>
1

> <PUBCHEM_EXT_DATASOURCE_NAME>
4488

> <PUBCHEM_EXT_DATASOURCE_REGID>
SCHEMBL16121441

> <PUBCHEM_SUBSTANCE_COMMENT>
InChI=1S/C25H28N4O5S/c1-4-34-25-22(29-9-11-33-12-10-29)13-19(16-27-25)21-15-20(6-5-17(21)2)28-24(30)18-7-8-26-23(14-18)35(3,31)32/h5-8,13-16H,4,9-12H2,1-3H3,(H,28,30)
InChIKey=GXCZMYTUQJAGAX-UHFFFAOYSA-N

> <PUBCHEM_SUBSTANCE_SYNONYM>
SCHEMBL16121441

> <PUBCHEM_XREF_EXT_ID>
SCHEMBL16121441

> <PUBCHEM_EXT_DATASOURCE_URL>
https://www.surechembl.org/

> <PUBCHEM_EXT_SUBSTANCE_URL>
https://www.surechembl.org/chemical/SCHEMBL16121441

> <PUBCHEM_CID_ASSOCIATIONS>
117609802  1

> <PUBCHEM_COORDINATE_TYPE>
1
3

$$$$
