310948797
  -OEChem-07211613022D

 27 27  0     1  0  0  0  0  0999 V2000
    1.4163    1.0519    0.0000 P   0  0  3  0  0  0  0  0  0  0  0  0
    0.0000    1.1069    0.0000 O   0  0  0  0  0  0  0  0  0  0  0  0
    0.0000   -1.3818    0.0000 O   0  0  0  0  0  0  0  0  0  0  0  0
    1.4163   -0.5568    0.0000 O   0  0  0  0  0  0  0  0  0  0  0  0
   -1.4300   -0.5568    0.0000 O   0  0  0  0  0  0  0  0  0  0  0  0
    1.4163    1.0519    0.0000 O   0  0  0  0  0  0  0  0  0  0  0  0
   -1.4300    1.9319    0.0000 O   0  0  0  0  0  0  0  0  0  0  0  0
    0.7425   -2.5781    0.0000 O   0  0  0  0  0  0  0  0  0  0  0  0
    2.8187   -0.5294    0.0000 O   0  0  0  0  0  0  0  0  0  0  0  0
    1.4163    1.0519    0.0000 O   0  0  0  0  0  0  0  0  0  0  0  0
   -2.1588    3.1006    0.0000 O   0  0  0  0  0  0  0  0  0  0  0  0
    0.0000   -0.5431    0.0000 C   0  0  3  0  0  0  0  0  0  0  0  0
    0.6875   -0.1306    0.0000 C   0  0  3  0  0  0  0  0  0  0  0  0
   -0.7150   -0.1306    0.0000 C   0  0  3  0  0  0  0  0  0  0  0  0
    0.7013    0.6944    0.0000 C   0  0  3  0  0  0  0  0  0  0  0  0
   -0.7150    0.6944    0.0000 C   0  0  3  0  0  0  0  0  0  0  0  0
   -1.4300    1.1069    0.0000 C   0  0  0  0  0  0  0  0  0  0  0  0
    0.7425   -1.8081    0.0000 C   0  0  0  0  0  0  0  0  0  0  0  0
    2.1588   -0.1443    0.0000 C   0  0  0  0  0  0  0  0  0  0  0  0
   -1.3887   -1.3544    0.0000 C   0  0  0  0  0  0  0  0  0  0  0  0
   -2.1588    2.3444    0.0000 C   0  0  0  0  0  0  0  0  0  0  0  0
    1.4163   -1.3818    0.0000 C   0  0  0  0  0  0  0  0  0  0  0  0
    2.1313    0.6531    0.0000 C   0  0  0  0  0  0  0  0  0  0  0  0
   -2.0625   -1.8081    0.0000 C   0  0  0  0  0  0  0  0  0  0  0  0
   -1.9937   -2.6331    0.0000 C   0  0  0  0  0  0  0  0  0  0  0  0
   -2.8187    1.9319    0.0000 C   0  0  0  0  0  0  0  0  0  0  0  0
   -2.6950   -3.1006    0.0000 C   0  0  0  0  0  0  0  0  0  0  0  0
  1  6  1  0  0  0  0
  1 10  1  0  0  0  0
  2 15  1  0  0  0  0
  2 16  1  0  0  0  0
 12  3  1  1  0  0  0
  3 18  1  0  0  0  0
 13  4  1  1  0  0  0
  4 19  1  0  0  0  0
 14  5  1  6  0  0  0
  5 20  1  0  0  0  0
 15  6  1  6  0  0  0
  7 17  1  0  0  0  0
  7 21  1  0  0  0  0
  8 18  2  0  0  0  0
  9 19  2  0  0  0  0
 11 21  2  0  0  0  0
 12 13  1  0  0  0  0
 12 14  1  0  0  0  0
 13 15  1  0  0  0  0
 14 16  1  0  0  0  0
 16 17  1  1  0  0  0
 18 22  1  0  0  0  0
 19 23  1  0  0  0  0
 20 24  1  0  0  0  0
 21 26  1  0  0  0  0
 24 25  1  0  0  0  0
 25 27  1  0  0  0  0
M  END
> <PUBCHEM_COMPOUND_ID_TYPE>
0

> <PUBCHEM_TOTAL_CHARGE>
0

> <PUBCHEM_SUBSTANCE_ID>
310948797

> <PUBCHEM_SUBSTANCE_VERSION>
1

> <PUBCHEM_EXT_DATASOURCE_NAME>
4488

> <PUBCHEM_EXT_DATASOURCE_REGID>
SCHEMBL16126981

> <PUBCHEM_SUBSTANCE_COMMENT>
InChI=1S/C16H27O10P/c1-5-6-7-21-13-12(8-22-9(2)17)25-16(26-27-20)15(24-11(4)19)14(13)23-10(3)18/h12-16,20,27H,5-8H2,1-4H3/t12-,13-,14+,15+,16-/m1/s1
InChIKey=UQCUHVHZQATAJL-RBGFHDKUSA-N

> <PUBCHEM_SUBSTANCE_SYNONYM>
SCHEMBL16126981

> <PUBCHEM_XREF_EXT_ID>
SCHEMBL16126981

> <PUBCHEM_EXT_DATASOURCE_URL>
https://www.surechembl.org/

> <PUBCHEM_EXT_SUBSTANCE_URL>
https://www.surechembl.org/chemical/SCHEMBL16126981

> <PUBCHEM_CID_ASSOCIATIONS>
117614336  1

> <PUBCHEM_COORDINATE_TYPE>
1
3

> <PUBCHEM_BONDANNOTATIONS>
16  17  5
12  3  5
13  4  5
14  5  6
15  6  6

$$$$
