310941409
  -OEChem-07211613022D

 30 32  0     1  0  0  0  0  0999 V2000
    0.9326   -1.7997    0.0000 S   0  0  0  0  0  0  0  0  0  0  0  0
    2.3820    1.5190    0.0000 O   0  0  0  0  0  0  0  0  0  0  0  0
    0.9461   -0.1471    0.0000 O   0  0  0  0  0  0  0  0  0  0  0  0
   -1.2212    1.9254    0.0000 O   0  0  0  0  0  0  0  0  0  0  0  0
    0.9326   -1.7997    0.0000 O   0  0  0  0  0  0  0  0  0  0  0  0
    0.9326   -1.7997    0.0000 O   0  0  0  0  0  0  0  0  0  0  0  0
   -0.5032    0.6792    0.0000 N   0  0  0  0  0  0  0  0  0  0  0  0
   -2.6570    1.0991    0.0000 N   0  0  0  0  0  0  0  0  0  0  0  0
    1.6641    1.1126    0.0000 C   0  0  3  0  0  0  0  0  0  0  0  0
    0.9461    0.7062    0.0000 C   0  0  0  0  0  0  0  0  0  0  0  0
    2.3684    0.7062    0.0000 C   0  0  0  0  0  0  0  0  0  0  0  0
    0.2283    1.0991    0.0000 C   0  0  3  0  0  0  0  0  0  0  0  0
    1.0817    1.6815    0.0000 C   0  0  0  0  0  0  0  0  0  0  0  0
    0.2418    1.9389    0.0000 C   0  0  0  0  0  0  0  0  0  0  0  0
   -1.2212    1.0856    0.0000 C   0  0  0  0  0  0  0  0  0  0  0  0
    0.9326    2.3453    0.0000 C   0  0  0  0  0  0  0  0  0  0  0  0
   -1.9120    0.6927    0.0000 C   0  0  3  0  0  0  0  0  0  0  0  0
    0.2147   -1.3798    0.0000 C   0  0  0  0  0  0  0  0  0  0  0  0
   -1.2076   -0.5535    0.0000 C   0  0  0  0  0  0  0  0  0  0  0  0
   -1.9391   -0.1607    0.0000 C   0  0  0  0  0  0  0  0  0  0  0  0
   -0.5032   -1.7862    0.0000 C   0  0  0  0  0  0  0  0  0  0  0  0
    0.2147   -0.5535    0.0000 C   0  0  0  0  0  0  0  0  0  0  0  0
   -1.2076   -1.3798    0.0000 C   0  0  0  0  0  0  0  0  0  0  0  0
   -0.5032   -0.1607    0.0000 C   0  0  0  0  0  0  0  0  0  0  0  0
    0.9461    3.1716    0.0000 C   0  0  0  0  0  0  0  0  0  0  0  0
    1.6641    1.9389    0.0000 C   0  0  0  0  0  0  0  0  0  0  0  0
    2.6570   -3.5780    0.0000 C   0  0  0  0  0  0  0  0  0  0  0  0
    1.6776    3.5780    0.0000 C   0  0  0  0  0  0  0  0  0  0  0  0
    2.3820    2.3453    0.0000 C   0  0  0  0  0  0  0  0  0  0  0  0
    2.3820    3.1716    0.0000 C   0  0  0  0  0  0  0  0  0  0  0  0
  1  5  2  0  0  0  0
  1  6  2  0  0  0  0
  1 18  1  0  0  0  0
  1 27  1  0  0  0  0
  2  9  1  0  0  0  0
  2 11  1  0  0  0  0
  3 10  2  0  0  0  0
  4 15  2  0  0  0  0
 12  7  1  1  0  0  0
  7 15  1  0  0  0  0
 17  8  1  6  0  0  0
  9 10  1  6  0  0  0
  9 11  1  0  0  0  0
  9 13  1  1  0  0  0
 10 12  1  0  0  0  0
 12 14  1  0  0  0  0
 14 16  1  0  0  0  0
 15 17  1  0  0  0  0
 16 25  2  0  0  0  0
 16 26  1  0  0  0  0
 17 20  1  0  0  0  0
 18 21  2  0  0  0  0
 18 22  1  0  0  0  0
 19 20  1  0  0  0  0
 19 23  2  0  0  0  0
 19 24  1  0  0  0  0
 21 23  1  0  0  0  0
 22 24  2  0  0  0  0
 25 28  1  0  0  0  0
 26 29  1  0  0  0  0
 28 30  1  0  0  0  0
 29 30  1  0  0  0  0
M  END
> <PUBCHEM_COMPOUND_ID_TYPE>
0

> <PUBCHEM_TOTAL_CHARGE>
0

> <PUBCHEM_SUBSTANCE_ID>
310941409

> <PUBCHEM_SUBSTANCE_VERSION>
1

> <PUBCHEM_EXT_DATASOURCE_NAME>
4488

> <PUBCHEM_EXT_DATASOURCE_REGID>
SCHEMBL16119369

> <PUBCHEM_SUBSTANCE_COMMENT>
InChI=1S/C22H30N2O5S/c1-22(14-29-22)20(25)19(13-15-6-4-3-5-7-15)24-21(26)18(23)12-16-8-10-17(11-9-16)30(2,27)28/h6,8-11,18-19H,3-5,7,12-14,23H2,1-2H3,(H,24,26)/t18-,19-,22+/m0/s1
InChIKey=RTFXKOPMYGCBQW-CNNODRBYSA-N

> <PUBCHEM_SUBSTANCE_SYNONYM>
SCHEMBL16119369

> <PUBCHEM_XREF_EXT_ID>
SCHEMBL16119369

> <PUBCHEM_EXT_DATASOURCE_URL>
https://www.surechembl.org/

> <PUBCHEM_EXT_SUBSTANCE_URL>
https://www.surechembl.org/chemical/SCHEMBL16119369

> <PUBCHEM_CID_ASSOCIATIONS>
117608234  1

> <PUBCHEM_COORDINATE_TYPE>
1
3

> <PUBCHEM_BONDANNOTATIONS>
12  7  5
17  8  6
9  10  6
9  13  5

$$$$
