310944770
  -OEChem-07211613022D

 61 62  0     1  0  0  0  0  0999 V2000
    3.1491   -0.3712    0.0000 O   0  0  0  0  0  0  0  0  0  0  0  0
    6.0369    2.9429    0.0000 O   0  0  0  0  0  0  0  0  0  0  0  0
   -7.4396   -0.8388    0.0000 O   0  0  0  0  0  0  0  0  0  0  0  0
   -4.5793   -1.7327    0.0000 O   0  0  0  0  0  0  0  0  0  0  0  0
   -5.3081   -2.9429    0.0000 O   0  0  0  0  0  0  0  0  0  0  0  0
   -9.5437   -2.8879    0.0000 O   0  0  0  0  0  0  0  0  0  0  0  0
  -10.3412   -1.7464    0.0000 O   0  0  0  0  0  0  0  0  0  0  0  0
    8.8698    2.0903    0.0000 O   0  0  0  0  0  0  0  0  0  0  0  0
  -10.3137    0.7701    0.0000 O   0  0  0  0  0  0  0  0  0  0  0  0
   -8.9111    0.8801    0.0000 O   0  0  0  0  0  0  0  0  0  0  0  0
   10.3412    0.4539    0.0000 O   0  0  0  0  0  0  0  0  0  0  0  0
    8.8698   -0.3712    0.0000 O   0  0  0  0  0  0  0  0  0  0  0  0
    6.0369   -2.0489    0.0000 O   0  0  0  0  0  0  0  0  0  0  0  0
    7.4534   -2.8603    0.0000 O   0  0  0  0  0  0  0  0  0  0  0  0
   -3.8780    0.4401    0.0000 N   0  0  0  0  0  0  0  0  0  0  0  0
   -3.6304   -0.3438    0.0000 N   0  0  0  0  0  0  0  0  0  0  0  0
   -2.8053   -0.3438    0.0000 N   0  0  0  0  0  0  0  0  0  0  0  0
    2.4477    0.8663    0.0000 N   0  0  0  0  0  0  0  0  0  0  0  0
    6.7520    1.6777    0.0000 N   0  0  0  0  0  0  0  0  0  0  0  0
   -6.7245   -2.1041    0.0000 N   0  0  0  0  0  0  0  0  0  0  0  0
   -8.1409   -2.1041    0.0000 N   0  0  0  0  0  0  0  0  0  0  0  0
    6.7520   -0.8114    0.0000 N   0  0  0  0  0  0  0  0  0  0  0  0
    7.4534   -2.8603    0.0000 N   0  0  0  0  0  0  0  0  0  0  0  0
    3.8780    0.9214    0.0000 C   0  0  0  0  0  0  0  0  0  0  0  0
    5.3081    1.7602    0.0000 C   0  0  0  0  0  0  0  0  0  0  0  0
    3.1767    0.5363    0.0000 C   0  0  0  0  0  0  0  0  0  0  0  0
    6.0231    2.1453    0.0000 C   0  0  0  0  0  0  0  0  0  0  0  0
    4.6068    0.5226    0.0000 C   0  0  0  0  0  0  0  0  0  0  0  0
    3.8917    1.7464    0.0000 C   0  0  0  0  0  0  0  0  0  0  0  0
    5.3081    0.9214    0.0000 C   0  0  0  0  0  0  0  0  0  0  0  0
    4.5793    2.1453    0.0000 C   0  0  0  0  0  0  0  0  0  0  0  0
   -2.5578    0.5226    0.0000 C   0  0  0  0  0  0  0  0  0  0  0  0
   -3.2454    0.9901    0.0000 C   0  0  0  0  0  0  0  0  0  0  0  0
   -6.0231   -1.5952    0.0000 C   0  0  3  0  0  0  0  0  0  0  0  0
   -7.4534   -1.6089    0.0000 C   0  0  0  0  0  0  0  0  0  0  0  0
   -8.8835   -1.6089    0.0000 C   0  0  3  0  0  0  0  0  0  0  0  0
   -4.6068    0.8801    0.0000 C   0  0  0  0  0  0  0  0  0  0  0  0
   -1.8564    0.9214    0.0000 C   0  0  0  0  0  0  0  0  0  0  0  0
   -5.3081   -2.0903    0.0000 C   0  0  0  0  0  0  0  0  0  0  0  0
   -6.0094   -0.7564    0.0000 C   0  0  0  0  0  0  0  0  0  0  0  0
   -9.6124   -2.0903    0.0000 C   0  0  0  0  0  0  0  0  0  0  0  0
   -5.2805    0.4814    0.0000 C   0  0  0  0  0  0  0  0  0  0  0  0
   -5.2943   -0.3575    0.0000 C   0  0  0  0  0  0  0  0  0  0  0  0
   -8.8835   -0.7701    0.0000 C   0  0  0  0  0  0  0  0  0  0  0  0
    1.7327    0.5226    0.0000 C   0  0  0  0  0  0  0  0  0  0  0  0
    7.4396    2.1590    0.0000 C   0  0  0  0  0  0  0  0  0  0  0  0
   -1.1413    0.5226    0.0000 C   0  0  0  0  0  0  0  0  0  0  0  0
    1.0038    0.9214    0.0000 C   0  0  0  0  0  0  0  0  0  0  0  0
   -9.5986   -0.3575    0.0000 C   0  0  0  0  0  0  0  0  0  0  0  0
   -0.4263    0.9214    0.0000 C   0  0  0  0  0  0  0  0  0  0  0  0
    0.2887    0.5226    0.0000 C   0  0  0  0  0  0  0  0  0  0  0  0
    8.1960    1.7602    0.0000 C   0  0  0  0  0  0  0  0  0  0  0  0
   -9.6124    0.4126    0.0000 C   0  0  0  0  0  0  0  0  0  0  0  0
    9.6124    1.7464    0.0000 C   0  0  0  0  0  0  0  0  0  0  0  0
    9.6124    0.9214    0.0000 C   0  0  0  0  0  0  0  0  0  0  0  0
   10.3275   -0.3163    0.0000 C   0  0  0  0  0  0  0  0  0  0  0  0
    6.7520   -1.5402    0.0000 C   0  0  0  0  0  0  0  0  0  0  0  0
    9.6124   -0.7288    0.0000 C   0  0  0  0  0  0  0  0  0  0  0  0
    7.4396   -0.3163    0.0000 C   0  0  0  0  0  0  0  0  0  0  0  0
    8.1822   -0.7288    0.0000 C   0  0  0  0  0  0  0  0  0  0  0  0
    7.4534   -1.9665    0.0000 C   0  0  0  0  0  0  0  0  0  0  0  0
  1 26  2  0  0  0  0
  2 27  2  0  0  0  0
  3 35  2  0  0  0  0
  4 39  2  0  0  0  0
  5 39  1  0  0  0  0
  6 41  2  0  0  0  0
  7 41  1  0  0  0  0
  8 52  1  0  0  0  0
  8 54  1  0  0  0  0
  9 53  2  0  0  0  0
 10 53  1  0  0  0  0
 11 55  1  0  0  0  0
 11 56  1  0  0  0  0
 12 58  1  0  0  0  0
 12 60  1  0  0  0  0
 13 57  2  0  0  0  0
 14 23  1  0  0  0  0
 14 61  1  0  0  0  0
 15 16  1  0  0  0  0
 15 33  1  0  0  0  0
 15 37  1  0  0  0  0
 16 17  2  0  0  0  0
 17 32  1  0  0  0  0
 18 26  1  0  0  0  0
 18 45  1  0  0  0  0
 19 27  1  0  0  0  0
 19 46  1  0  0  0  0
 34 20  1  1  0  0  0
 20 35  1  0  0  0  0
 21 35  1  0  0  0  0
 36 21  1  6  0  0  0
 22 57  1  0  0  0  0
 22 59  1  0  0  0  0
 24 26  1  0  0  0  0
 24 28  2  0  0  0  0
 24 29  1  0  0  0  0
 25 27  1  0  0  0  0
 25 30  2  0  0  0  0
 25 31  1  0  0  0  0
 28 30  1  0  0  0  0
 29 31  2  0  0  0  0
 32 33  2  0  0  0  0
 32 38  1  0  0  0  0
 34 39  1  0  0  0  0
 34 40  1  0  0  0  0
 36 41  1  0  0  0  0
 36 44  1  0  0  0  0
 37 42  1  0  0  0  0
 38 47  1  0  0  0  0
 40 43  1  0  0  0  0
 42 43  1  0  0  0  0
 44 49  1  0  0  0  0
 45 48  1  0  0  0  0
 46 52  1  0  0  0  0
 47 50  1  0  0  0  0
 48 51  1  0  0  0  0
 49 53  1  0  0  0  0
 50 51  1  0  0  0  0
 54 55  1  0  0  0  0
 56 58  1  0  0  0  0
 57 61  1  0  0  0  0
 59 60  1  0  0  0  0
M  END
> <PUBCHEM_COMPOUND_ID_TYPE>
0

> <PUBCHEM_TOTAL_CHARGE>
0

> <PUBCHEM_SUBSTANCE_ID>
310944770

> <PUBCHEM_SUBSTANCE_VERSION>
1

> <PUBCHEM_EXT_DATASOURCE_NAME>
4488

> <PUBCHEM_EXT_DATASOURCE_REGID>
SCHEMBL16122849

> <PUBCHEM_SUBSTANCE_COMMENT>
InChI=1S/C38H59N9O14/c39-61-26-32(48)40-16-19-58-21-23-60-24-22-59-20-17-42-35(52)28-11-9-27(10-12-28)34(51)41-15-5-2-1-3-7-29-25-47(46-45-29)18-6-4-8-30(36(53)54)43-38(57)44-31(37(55)56)13-14-33(49)50/h9-12,25,30-31H,1-8,13-24,26,39H2,(H,40,48)(H,41,51)(H,42,52)(H,49,50)(H,53,54)(H,55,56)(H2,43,44,57)/t30-,31-/m0/s1
InChIKey=BSDJPXVLUIDPAY-CONSDPRKSA-N

> <PUBCHEM_SUBSTANCE_SYNONYM>
SCHEMBL16122849

> <PUBCHEM_XREF_EXT_ID>
SCHEMBL16122849

> <PUBCHEM_EXT_DATASOURCE_URL>
https://www.surechembl.org/

> <PUBCHEM_EXT_SUBSTANCE_URL>
https://www.surechembl.org/chemical/SCHEMBL16122849

> <PUBCHEM_CID_ASSOCIATIONS>
117610986  1

> <PUBCHEM_COORDINATE_TYPE>
1
3

> <PUBCHEM_BONDANNOTATIONS>
34  20  5
36  21  6

$$$$
