310932682
  -OEChem-07211613022D

 28 29  0     0  0  0  0  0  0999 V2000
    2.0960   -4.4668    0.0000 O   0  0  0  0  0  0  0  0  0  0  0  0
    4.2606   -0.8246    0.0000 O   0  0  0  0  0  0  0  0  0  0  0  0
    1.4087   -4.8447    0.0000 O   0  0  0  0  0  0  0  0  0  0  0  0
    1.4087   -5.6350    0.0000 O   0  0  0  0  0  0  0  0  0  0  0  0
    0.6872   -6.8720    0.0000 O   0  0  0  0  0  0  0  0  0  0  0  0
    1.4087   -3.2299    0.0000 N   0  0  0  0  0  0  0  0  0  0  0  0
    0.0000   -4.8447    0.0000 N   0  0  0  0  0  0  0  0  0  0  0  0
    2.0960   -3.6422    0.0000 C   0  0  0  0  0  0  0  0  0  0  0  0
    2.8175   -3.2642    0.0000 C   0  0  0  0  0  0  0  0  0  0  0  0
    1.4431   -2.4052    0.0000 C   0  0  0  0  0  0  0  0  0  0  0  0
    2.1303   -1.9929    0.0000 C   0  0  0  0  0  0  0  0  0  0  0  0
    0.6872   -3.6078    0.0000 C   0  0  0  0  0  0  0  0  0  0  0  0
    0.6872   -4.4324    0.0000 C   0  0  0  0  0  0  0  0  0  0  0  0
    2.9893   -2.5770    0.0000 C   0  0  0  0  0  0  0  0  0  0  0  0
    2.1647   -1.1683    0.0000 C   0  0  0  0  0  0  0  0  0  0  0  0
    3.5047   -3.6765    0.0000 C   0  0  0  0  0  0  0  0  0  0  0  0
    2.8175   -2.4396    0.0000 C   0  0  0  0  0  0  0  0  0  0  0  0
    3.5734   -1.2026    0.0000 C   0  0  0  0  0  0  0  0  0  0  0  0
    3.7109   -2.1990    0.0000 C   0  0  0  0  0  0  0  0  0  0  0  0
    2.8519   -0.7903    0.0000 C   0  0  0  0  0  0  0  0  0  0  0  0
    4.2263   -3.2642    0.0000 C   0  0  0  0  0  0  0  0  0  0  0  0
    3.5391   -2.0273    0.0000 C   0  0  0  0  0  0  0  0  0  0  0  0
    4.2606   -2.4396    0.0000 C   0  0  0  0  0  0  0  0  0  0  0  0
    0.0000   -5.6350    0.0000 C   0  0  0  0  0  0  0  0  0  0  0  0
    0.6872   -6.0473    0.0000 C   0  0  0  0  0  0  0  0  0  0  0  0
    4.2950    0.0000    0.0000 C   0  0  0  0  0  0  0  0  0  0  0  0
    2.0960   -6.0473    0.0000 C   0  0  0  0  0  0  0  0  0  0  0  0
    2.8175   -5.6350    0.0000 C   0  0  0  0  0  0  0  0  0  0  0  0
  1  8  2  0  0  0  0
  2 18  1  0  0  0  0
  2 26  1  0  0  0  0
  3 13  2  0  0  0  0
  4 25  1  0  0  0  0
  4 27  1  0  0  0  0
  5 25  2  0  0  0  0
  6  8  1  0  0  0  0
  6 10  1  0  0  0  0
  6 12  1  0  0  0  0
  7 13  1  0  0  0  0
  7 24  1  0  0  0  0
  8  9  1  0  0  0  0
  9 16  2  0  0  0  0
  9 17  1  0  0  0  0
 10 11  1  0  0  0  0
 11 14  2  0  0  0  0
 11 15  1  0  0  0  0
 12 13  1  0  0  0  0
 14 19  1  0  0  0  0
 15 20  2  0  0  0  0
 16 21  1  0  0  0  0
 17 22  2  0  0  0  0
 18 19  2  0  0  0  0
 18 20  1  0  0  0  0
 21 23  2  0  0  0  0
 22 23  1  0  0  0  0
 24 25  1  0  0  0  0
 27 28  1  0  0  0  0
M  END
> <PUBCHEM_COMPOUND_ID_TYPE>
0

> <PUBCHEM_TOTAL_CHARGE>
0

> <PUBCHEM_SUBSTANCE_ID>
310932682

> <PUBCHEM_SUBSTANCE_VERSION>
1

> <PUBCHEM_EXT_DATASOURCE_NAME>
4488

> <PUBCHEM_EXT_DATASOURCE_REGID>
SCHEMBL16110062

> <PUBCHEM_SUBSTANCE_COMMENT>
InChI=1S/C21H24N2O5/c1-3-28-20(25)13-22-19(24)15-23(21(26)17-7-5-4-6-8-17)14-16-9-11-18(27-2)12-10-16/h4-12H,3,13-15H2,1-2H3,(H,22,24)
InChIKey=SMHVXCBVXKJEPU-UHFFFAOYSA-N

> <PUBCHEM_SUBSTANCE_SYNONYM>
SCHEMBL16110062

> <PUBCHEM_XREF_EXT_ID>
SCHEMBL16110062

> <PUBCHEM_EXT_DATASOURCE_URL>
https://www.surechembl.org/

> <PUBCHEM_EXT_SUBSTANCE_URL>
https://www.surechembl.org/chemical/SCHEMBL16110062

> <PUBCHEM_CID_ASSOCIATIONS>
117601195  1

> <PUBCHEM_COORDINATE_TYPE>
1
3

$$$$
