310948023
  -OEChem-07211613022D

 41 42  0     1  0  0  0  0  0999 V2000
    4.4825    3.4742    0.0000 S   0  0  0  0  0  0  0  0  0  0  0  0
   -2.0442    0.1559    0.0000 O   0  0  0  0  0  0  0  0  0  0  0  0
   -2.1542   -1.3292    0.0000 O   0  0  0  0  0  0  0  0  0  0  0  0
   -3.4742    1.8059    0.0000 O   0  0  0  0  0  0  0  0  0  0  0  0
    0.3392   -1.3108    0.0000 O   0  0  0  0  0  0  0  0  0  0  0  0
   -1.9708    1.8059    0.0000 O   0  0  0  0  0  0  0  0  0  0  0  0
   -0.5042    0.1192    0.0000 O   0  0  0  0  0  0  0  0  0  0  0  0
   -3.4742   -0.6691    0.0000 O   0  0  0  0  0  0  0  0  0  0  0  0
   -0.4675   -2.7409    0.0000 O   0  0  0  0  0  0  0  0  0  0  0  0
   -4.9042    0.1559    0.0000 O   0  0  0  0  0  0  0  0  0  0  0  0
   -1.7142   -3.4742    0.0000 O   0  0  0  0  0  0  0  0  0  0  0  0
   -4.9042    2.6309    0.0000 O   0  0  0  0  0  0  0  0  0  0  0  0
    0.3392   -1.3108    0.0000 O   0  0  0  0  0  0  0  0  0  0  0  0
    0.1742    1.4025    0.0000 O   0  0  0  0  0  0  0  0  0  0  0  0
    2.5025    1.3658    0.0000 O   0  0  0  0  0  0  0  0  0  0  0  0
    3.0525    0.5775    0.0000 O   0  0  0  0  0  0  0  0  0  0  0  0
    0.3392   -1.3108    0.0000 N   0  0  0  0  0  0  0  0  0  0  0  0
    2.3375    1.8059    0.0000 N   0  0  0  0  0  0  0  0  0  0  0  0
    4.0608    1.7508    0.0000 N   0  0  0  0  0  0  0  0  0  0  0  0
    4.9042    1.9342    0.0000 N   0  0  0  0  0  0  0  0  0  0  0  0
   -2.7775    0.5775    0.0000 C   0  0  3  0  0  0  0  0  0  0  0  0
   -1.7325   -0.5959    0.0000 C   0  0  3  0  0  0  0  0  0  0  0  0
   -0.9075   -0.5959    0.0000 C   0  0  3  0  0  0  0  0  0  0  0  0
   -0.5042   -1.2741    0.0000 C   0  0  3  0  0  0  0  0  0  0  0  0
   -3.4742    0.1742    0.0000 C   0  0  3  0  0  0  0  0  0  0  0  0
   -2.7592    1.4025    0.0000 C   0  0  3  0  0  0  0  0  0  0  0  0
   -0.9075   -2.0259    0.0000 C   0  0  3  0  0  0  0  0  0  0  0  0
   -1.7325   -2.0259    0.0000 C   0  0  3  0  0  0  0  0  0  0  0  0
   -4.1892    0.5775    0.0000 C   0  0  3  0  0  0  0  0  0  0  0  0
   -4.1709    1.4209    0.0000 C   0  0  3  0  0  0  0  0  0  0  0  0
   -2.1358   -2.7409    0.0000 C   0  0  0  0  0  0  0  0  0  0  0  0
   -4.8858    1.8059    0.0000 C   0  0  0  0  0  0  0  0  0  0  0  0
    0.3392   -1.3108    0.0000 C   0  0  0  0  0  0  0  0  0  0  0  0
   -1.2375    1.4209    0.0000 C   0  0  0  0  0  0  0  0  0  0  0  0
   -0.5408    1.8242    0.0000 C   0  0  0  0  0  0  0  0  0  0  0  0
    2.6675    2.0809    0.0000 C   0  0  0  0  0  0  0  0  0  0  0  0
    3.0525    1.4392    0.0000 C   0  0  0  0  0  0  0  0  0  0  0  0
    3.4925    2.3742    0.0000 C   0  0  3  0  0  0  0  0  0  0  0  0
    0.8892    1.8242    0.0000 C   0  0  0  0  0  0  0  0  0  0  0  0
    1.6409    1.4209    0.0000 C   0  0  0  0  0  0  0  0  0  0  0  0
    3.7309    3.1992    0.0000 C   0  0  0  0  0  0  0  0  0  0  0  0
  1 41  1  0  0  0  0
 21  2  1  1  0  0  0
 22  2  1  6  0  0  0
  3 22  1  0  0  0  0
  3 28  1  0  0  0  0
  4 26  1  0  0  0  0
  4 30  1  0  0  0  0
 24  5  1  1  0  0  0
  5 33  1  0  0  0  0
 26  6  1  6  0  0  0
  6 34  1  0  0  0  0
 23  7  1  1  0  0  0
 25  8  1  1  0  0  0
 27  9  1  6  0  0  0
 29 10  1  6  0  0  0
 11 31  1  0  0  0  0
 12 32  1  0  0  0  0
 13 33  2  0  0  0  0
 14 35  1  0  0  0  0
 14 39  1  0  0  0  0
 15 36  2  0  0  0  0
 16 37  2  0  0  0  0
 17 33  1  0  0  0  0
 18 37  1  0  0  0  0
 18 40  1  0  0  0  0
 19 20  1  0  0  0  0
 38 19  1  6  0  0  0
 21 25  1  0  0  0  0
 21 26  1  0  0  0  0
 22 23  1  0  0  0  0
 23 24  1  0  0  0  0
 24 27  1  0  0  0  0
 25 29  1  0  0  0  0
 27 28  1  0  0  0  0
 28 31  1  1  0  0  0
 29 30  1  0  0  0  0
 30 32  1  6  0  0  0
 34 35  1  0  0  0  0
 36 37  1  0  0  0  0
 36 38  1  0  0  0  0
 38 41  1  0  0  0  0
 39 40  1  0  0  0  0
M  END
> <PUBCHEM_COMPOUND_ID_TYPE>
0

> <PUBCHEM_TOTAL_CHARGE>
0

> <PUBCHEM_SUBSTANCE_ID>
310948023

> <PUBCHEM_SUBSTANCE_VERSION>
1

> <PUBCHEM_EXT_DATASOURCE_NAME>
4488

> <PUBCHEM_EXT_DATASOURCE_REGID>
SCHEMBL16126197

> <PUBCHEM_SUBSTANCE_COMMENT>
InChI=1S/C21H38N4O15S/c22-21(34)40-16-13(30)10(6-27)37-19(15(16)32)39-17-14(31)12(29)9(5-26)38-20(17)36-4-3-35-2-1-24-18(33)11(28)8(7-41)25-23/h8-10,12-17,19-20,25-27,29-32,41H,1-7,23H2,(H2,22,34)(H,24,33)/t8-,9-,10+,12+,13+,14-,15-,16-,17-,19+,20-/m0/s1
InChIKey=XNJZOSLVFDVYCG-PDPHGXRCSA-N

> <PUBCHEM_SUBSTANCE_SYNONYM>
SCHEMBL16126197

> <PUBCHEM_XREF_EXT_ID>
SCHEMBL16126197

> <PUBCHEM_EXT_DATASOURCE_URL>
https://www.surechembl.org/

> <PUBCHEM_EXT_SUBSTANCE_URL>
https://www.surechembl.org/chemical/SCHEMBL16126197

> <PUBCHEM_CID_ASSOCIATIONS>
117613661  1

> <PUBCHEM_COORDINATE_TYPE>
1
3

> <PUBCHEM_BONDANNOTATIONS>
29  10  6
38  19  6
21  2  5
22  2  6
28  31  5
30  32  6
24  5  5
26  6  6
23  7  5
25  8  5
27  9  6

$$$$
