310945390
  -OEChem-07211613022D

 44 49  0     1  0  0  0  0  0999 V2000
    2.4494   -3.2282    0.0000 S   0  0  0  0  0  0  0  0  0  0  0  0
    4.1506   -3.3717    0.0000 O   0  0  0  0  0  0  0  0  0  0  0  0
   -2.8519   -0.1936    0.0000 O   0  0  0  0  0  0  0  0  0  0  0  0
   -0.4407    1.6910    0.0000 O   0  0  0  0  0  0  0  0  0  0  0  0
   -3.3577   -1.0254    0.0000 O   0  0  0  0  0  0  0  0  0  0  0  0
   -0.4817   -1.7320    0.0000 N   0  0  0  0  0  0  0  0  0  0  0  0
    2.6953   -1.0351    0.0000 N   0  0  0  0  0  0  0  0  0  0  0  0
    4.3351   -1.9370    0.0000 N   0  0  0  0  0  0  0  0  0  0  0  0
   -1.9780    1.6910    0.0000 N   0  0  0  0  0  0  0  0  0  0  0  0
   -4.9090    1.6500    0.0000 N   0  0  0  0  0  0  0  0  0  0  0  0
    1.6705   -2.1419    0.0000 C   0  0  0  0  0  0  0  0  0  0  0  0
    2.4494   -1.8755    0.0000 C   0  0  0  0  0  0  0  0  0  0  0  0
    0.9326   -1.7320    0.0000 C   0  0  0  0  0  0  0  0  0  0  0  0
    1.6500   -2.9618    0.0000 C   0  0  0  0  0  0  0  0  0  0  0  0
    2.9413   -2.5314    0.0000 C   0  0  0  0  0  0  0  0  0  0  0  0
    0.2357   -2.1419    0.0000 C   0  0  0  0  0  0  0  0  0  0  0  0
    0.9531   -3.3717    0.0000 C   0  0  0  0  0  0  0  0  0  0  0  0
    3.7612   -2.5518    0.0000 C   0  0  0  0  0  0  0  0  0  0  0  0
    0.9531   -0.9121    0.0000 C   0  0  0  0  0  0  0  0  0  0  0  0
    0.2562   -2.9823    0.0000 C   0  0  0  0  0  0  0  0  0  0  0  0
   -0.5022   -0.8916    0.0000 C   0  0  0  0  0  0  0  0  0  0  0  0
    0.2152   -0.4817    0.0000 C   0  0  0  0  0  0  0  0  0  0  0  0
   -1.2811   -0.4407    0.0000 C   0  0  0  0  0  0  0  0  0  0  0  0
    3.4537   -0.7276    0.0000 C   0  0  0  0  0  0  0  0  0  0  0  0
    4.1916   -1.0966    0.0000 C   0  0  3  0  0  0  0  0  0  0  0  0
   -2.7158    0.3792    0.0000 C   0  0  0  0  0  0  0  0  0  0  0  0
   -1.9780    0.7891    0.0000 C   0  0  0  0  0  0  0  0  0  0  0  0
   -1.2811    0.3792    0.0000 C   0  0  0  0  0  0  0  0  0  0  0  0
   -1.9984   -0.8506    0.0000 C   0  0  0  0  0  0  0  0  0  0  0  0
   -3.4947    0.8301    0.0000 C   0  0  0  0  0  0  0  0  0  0  0  0
   -2.6953   -0.4612    0.0000 C   0  0  0  0  0  0  0  0  0  0  0  0
   -4.1916    0.4201    0.0000 C   0  0  0  0  0  0  0  0  0  0  0  0
   -3.4742    1.6500    0.0000 C   0  0  0  0  0  0  0  0  0  0  0  0
    4.9090   -0.6047    0.0000 C   0  0  0  0  0  0  0  0  0  0  0  0
   -4.9090    0.8301    0.0000 C   0  0  0  0  0  0  0  0  0  0  0  0
   -4.1916    2.0599    0.0000 C   0  0  0  0  0  0  0  0  0  0  0  0
   -1.2605    2.1419    0.0000 C   0  0  0  0  0  0  0  0  0  0  0  0
   -3.3577   -0.4858    0.0000 C   0  0  0  0  0  0  0  0  0  0  0  0
   -2.8406    0.3685    0.0000 C   0  0  0  0  0  0  0  0  0  0  0  0
   -1.1991    3.0233    0.0000 C   0  0  0  0  0  0  0  0  0  0  0  0
   -2.3348    0.3910    0.0000 C   0  0  0  0  0  0  0  0  0  0  0  0
   -3.3577    0.3685    0.0000 C   0  0  0  0  0  0  0  0  0  0  0  0
   -2.8519    0.9193    0.0000 C   0  0  0  0  0  0  0  0  0  0  0  0
   -0.3792    3.3717    0.0000 C   0  0  0  0  0  0  0  0  0  0  0  0
  1 14  1  0  0  0  0
  1 15  1  0  0  0  0
  2 18  2  0  0  0  0
  3 38  1  0  0  0  0
  3 39  1  0  0  0  0
  4 37  2  0  0  0  0
  5 38  2  0  0  0  0
  6 16  1  0  0  0  0
  6 21  2  0  0  0  0
  7 12  1  0  0  0  0
  7 24  1  0  0  0  0
  8 18  1  0  0  0  0
  8 25  1  0  0  0  0
  9 27  1  0  0  0  0
  9 37  1  0  0  0  0
 10 35  1  0  0  0  0
 10 36  1  0  0  0  0
 10 38  1  0  0  0  0
 11 12  1  0  0  0  0
 11 13  2  0  0  0  0
 11 14  1  0  0  0  0
 12 15  2  0  0  0  0
 13 16  1  0  0  0  0
 13 19  1  0  0  0  0
 14 17  2  0  0  0  0
 15 18  1  0  0  0  0
 16 20  2  0  0  0  0
 17 20  1  0  0  0  0
 19 22  2  0  0  0  0
 21 22  1  0  0  0  0
 21 23  1  0  0  0  0
 23 28  2  0  0  0  0
 23 29  1  0  0  0  0
 24 25  1  0  0  0  0
 25 34  1  1  0  0  0
 26 27  2  0  0  0  0
 26 30  1  0  0  0  0
 26 31  1  0  0  0  0
 27 28  1  0  0  0  0
 29 31  2  0  0  0  0
 30 32  1  0  0  0  0
 30 33  1  0  0  0  0
 32 35  1  0  0  0  0
 33 36  1  0  0  0  0
 37 40  1  0  0  0  0
 39 41  1  0  0  0  0
 39 42  1  0  0  0  0
 39 43  1  0  0  0  0
 40 44  2  0  0  0  0
M  END
> <PUBCHEM_COMPOUND_ID_TYPE>
0

> <PUBCHEM_TOTAL_CHARGE>
0

> <PUBCHEM_SUBSTANCE_ID>
310945390

> <PUBCHEM_SUBSTANCE_VERSION>
1

> <PUBCHEM_EXT_DATASOURCE_NAME>
4488

> <PUBCHEM_EXT_DATASOURCE_REGID>
SCHEMBL16123488

> <PUBCHEM_SUBSTANCE_COMMENT>
InChI=1S/C34H37N5O4S/c1-6-28(40)38-26-17-21(7-8-22(26)20-13-15-39(16-14-20)33(42)43-34(3,4)5)24-10-9-23-25(37-24)11-12-27-29(23)30-31(44-27)32(41)36-19(2)18-35-30/h6-12,17,19-20,35H,1,13-16,18H2,2-5H3,(H,36,41)(H,38,40)/t19-/m1/s1
InChIKey=CXLCEIJICINDCM-LJQANCHMSA-N

> <PUBCHEM_SUBSTANCE_SYNONYM>
SCHEMBL16123488

> <PUBCHEM_XREF_EXT_ID>
SCHEMBL16123488

> <PUBCHEM_EXT_DATASOURCE_URL>
https://www.surechembl.org/

> <PUBCHEM_EXT_SUBSTANCE_URL>
https://www.surechembl.org/chemical/SCHEMBL16123488

> <PUBCHEM_CID_ASSOCIATIONS>
117611440  1

> <PUBCHEM_COORDINATE_TYPE>
1
3

> <PUBCHEM_BONDANNOTATIONS>
25  34  5

$$$$
