310940781
  -OEChem-07211613022D

 19 19  0     1  0  0  0  0  0999 V2000
    0.3401    1.5017    0.0000 O   0  0  0  0  0  0  0  0  0  0  0  0
   -0.3732   -2.1805    0.0000 O   0  0  0  0  0  0  0  0  0  0  0  0
   -0.3732   -2.1805    0.0000 O   0  0  0  0  0  0  0  0  0  0  0  0
   -1.7831   -2.1805    0.0000 N   0  0  0  0  0  0  0  0  0  0  0  0
   -0.3732   -0.5218    0.0000 C   0  0  0  0  0  0  0  0  0  0  0  0
    0.3566    0.7056    0.0000 C   0  0  0  0  0  0  0  0  0  0  0  0
    1.0698    0.3075    0.0000 C   0  0  0  0  0  0  0  0  0  0  0  0
   -0.3401    0.3075    0.0000 C   0  0  0  0  0  0  0  0  0  0  0  0
   -1.0532   -0.9199    0.0000 C   0  0  0  0  0  0  0  0  0  0  0  0
    0.3401   -0.9199    0.0000 C   0  0  0  0  0  0  0  0  0  0  0  0
   -1.0698   -1.7492    0.0000 C   0  0  3  0  0  0  0  0  0  0  0  0
    1.0532   -0.5218    0.0000 C   0  0  0  0  0  0  0  0  0  0  0  0
   -0.3732   -2.1805    0.0000 C   0  0  0  0  0  0  0  0  0  0  0  0
    1.7831    0.7221    0.0000 C   0  0  0  0  0  0  0  0  0  0  0  0
   -0.3401    1.8832    0.0000 C   0  0  0  0  0  0  0  0  0  0  0  0
   -0.3401    2.7125    0.0000 C   0  0  0  0  0  0  0  0  0  0  0  0
    1.3329   -3.9399    0.0000 C   0  0  0  0  0  0  0  0  0  0  0  0
   -1.0698    3.1106    0.0000 C   0  0  0  0  0  0  0  0  0  0  0  0
   -1.0698    3.9399    0.0000 C   0  0  0  0  0  0  0  0  0  0  0  0
  1  6  1  0  0  0  0
  1 15  1  0  0  0  0
  2 13  1  0  0  0  0
  2 17  1  0  0  0  0
  3 13  2  0  0  0  0
 11  4  1  1  0  0  0
  5  8  2  0  0  0  0
  5  9  1  0  0  0  0
  5 10  1  0  0  0  0
  6  7  2  0  0  0  0
  6  8  1  0  0  0  0
  7 12  1  0  0  0  0
  7 14  1  0  0  0  0
  9 11  1  0  0  0  0
 10 12  2  0  0  0  0
 11 13  1  0  0  0  0
 15 16  1  0  0  0  0
 16 18  1  0  0  0  0
 18 19  1  0  0  0  0
M  END
> <PUBCHEM_COMPOUND_ID_TYPE>
0

> <PUBCHEM_TOTAL_CHARGE>
0

> <PUBCHEM_SUBSTANCE_ID>
310940781

> <PUBCHEM_SUBSTANCE_VERSION>
1

> <PUBCHEM_EXT_DATASOURCE_NAME>
4488

> <PUBCHEM_EXT_DATASOURCE_REGID>
SCHEMBL16118740

> <PUBCHEM_SUBSTANCE_COMMENT>
InChI=1S/C15H23NO3/c1-4-5-8-19-14-10-12(7-6-11(14)2)9-13(16)15(17)18-3/h6-7,10,13H,4-5,8-9,16H2,1-3H3/t13-/m0/s1
InChIKey=KJYIPIGGRPXRLF-ZDUSSCGKSA-N

> <PUBCHEM_SUBSTANCE_SYNONYM>
SCHEMBL16118740

> <PUBCHEM_XREF_EXT_ID>
SCHEMBL16118740

> <PUBCHEM_EXT_DATASOURCE_URL>
https://www.surechembl.org/

> <PUBCHEM_EXT_SUBSTANCE_URL>
https://www.surechembl.org/chemical/SCHEMBL16118740

> <PUBCHEM_CID_ASSOCIATIONS>
117607733  1

> <PUBCHEM_COORDINATE_TYPE>
1
3

> <PUBCHEM_BONDANNOTATIONS>
11  4  5

$$$$
