310943996
  -OEChem-07211613022D

 16 16  0     0  0  0  0  0  0999 V2000
   -1.9380   -0.8448    0.0000 Cl  0  0  0  0  0  0  0  0  0  0  0  0
    1.2025   -0.8348    0.0000 Cl  0  0  0  0  0  0  0  0  0  0  0  0
   -0.2385   -1.6598    0.0000 Cl  0  0  0  0  0  0  0  0  0  0  0  0
    1.9380    0.3678    0.0000 Cl  0  0  0  0  0  0  0  0  0  0  0  0
   -1.7094    0.8050    0.0000 Cl  0  0  0  0  0  0  0  0  0  0  0  0
   -0.2286    1.6399    0.0000 F   0  0  0  0  0  0  0  0  0  0  0  0
    1.2025    1.6598    0.0000 O   0  0  0  0  0  0  0  0  0  0  0  0
   -1.7094    0.8050    0.0000 O   0  0  0  0  0  0  0  0  0  0  0  0
    0.4771    0.4373    0.0000 C   0  0  0  0  0  0  0  0  0  0  0  0
   -0.9640    0.4274    0.0000 C   0  0  0  0  0  0  0  0  0  0  0  0
   -0.2485    0.8348    0.0000 C   0  0  0  0  0  0  0  0  0  0  0  0
   -0.9739   -0.3976    0.0000 C   0  0  0  0  0  0  0  0  0  0  0  0
    0.4672   -0.3876    0.0000 C   0  0  0  0  0  0  0  0  0  0  0  0
   -0.2385   -0.8050    0.0000 C   0  0  0  0  0  0  0  0  0  0  0  0
    1.1926    0.8248    0.0000 C   0  0  0  0  0  0  0  0  0  0  0  0
   -1.7094    0.8050    0.0000 C   0  0  0  0  0  0  0  0  0  0  0  0
  1 12  1  0  0  0  0
  2 13  1  0  0  0  0
  3 14  1  0  0  0  0
  4 15  1  0  0  0  0
  5 16  1  0  0  0  0
  6 11  1  0  0  0  0
  7 15  2  0  0  0  0
  8 16  2  0  0  0  0
  9 11  2  0  0  0  0
  9 13  1  0  0  0  0
  9 15  1  0  0  0  0
 10 11  1  0  0  0  0
 10 12  2  0  0  0  0
 10 16  1  0  0  0  0
 12 14  1  0  0  0  0
 13 14  2  0  0  0  0
M  END
> <PUBCHEM_COMPOUND_ID_TYPE>
0

> <PUBCHEM_TOTAL_CHARGE>
0

> <PUBCHEM_SUBSTANCE_ID>
310943996

> <PUBCHEM_SUBSTANCE_VERSION>
1

> <PUBCHEM_EXT_DATASOURCE_NAME>
4488

> <PUBCHEM_EXT_DATASOURCE_REGID>
SCHEMBL16122067

> <PUBCHEM_SUBSTANCE_COMMENT>
InChI=1S/C8Cl5FO2/c9-3-1(7(12)15)6(14)2(8(13)16)4(10)5(3)11
InChIKey=ZKBBZWOMNVHDDI-UHFFFAOYSA-N

> <PUBCHEM_SUBSTANCE_SYNONYM>
SCHEMBL16122067

> <PUBCHEM_XREF_EXT_ID>
SCHEMBL16122067

> <PUBCHEM_EXT_DATASOURCE_URL>
https://www.surechembl.org/

> <PUBCHEM_EXT_SUBSTANCE_URL>
https://www.surechembl.org/chemical/SCHEMBL16122067

> <PUBCHEM_CID_ASSOCIATIONS>
12449399  1

> <PUBCHEM_COORDINATE_TYPE>
1
3

$$$$
