310948549
  -OEChem-07211613022D

 35 39  0     0  0  0  0  0  0999 V2000
    2.2330   -0.2765    0.0000 Br  0  0  0  0  0  0  0  0  0  0  0  0
   -3.6433   -1.6039    0.0000 S   0  0  0  0  0  0  0  0  0  0  0  0
    3.6433    2.3782    0.0000 F   0  0  0  0  0  0  0  0  0  0  0  0
    3.6433    1.5624    0.0000 F   0  0  0  0  0  0  0  0  0  0  0  0
   -1.3758    0.1382    0.0000 O   0  0  0  0  0  0  0  0  0  0  0  0
    2.4543    1.2859    0.0000 O   0  0  0  0  0  0  0  0  0  0  0  0
    2.4543    2.6271    0.0000 O   0  0  0  0  0  0  0  0  0  0  0  0
   -3.6433   -1.6039    0.0000 O   0  0  0  0  0  0  0  0  0  0  0  0
   -3.6433   -1.6039    0.0000 O   0  0  0  0  0  0  0  0  0  0  0  0
   -3.6433   -1.6039    0.0000 O   0  0  0  0  0  0  0  0  0  0  0  0
   -1.2237    1.4795    0.0000 N   0  0  0  0  0  0  0  0  0  0  0  0
   -1.1545   -2.0878    0.0000 N   0  0  0  0  0  0  0  0  0  0  0  0
   -1.9841   -2.0878    0.0000 N   0  0  0  0  0  0  0  0  0  0  0  0
   -0.5600    0.3180    0.0000 C   0  0  0  0  0  0  0  0  0  0  0  0
   -0.4770    1.1477    0.0000 C   0  0  0  0  0  0  0  0  0  0  0  0
    0.0622   -0.2350    0.0000 C   0  0  0  0  0  0  0  0  0  0  0  0
   -0.1314   -1.0370    0.0000 C   0  0  0  0  0  0  0  0  0  0  0  0
    0.2282    1.5624    0.0000 C   0  0  0  0  0  0  0  0  0  0  0  0
    1.6661    1.5763    0.0000 C   0  0  0  0  0  0  0  0  0  0  0  0
   -0.9056   -1.2859    0.0000 C   0  0  0  0  0  0  0  0  0  0  0  0
    1.6799    2.3920    0.0000 C   0  0  0  0  0  0  0  0  0  0  0  0
    2.9520    1.9634    0.0000 C   0  0  0  0  0  0  0  0  0  0  0  0
    0.9610    1.1477    0.0000 C   0  0  0  0  0  0  0  0  0  0  0  0
   -1.7767    0.8573    0.0000 C   0  0  0  0  0  0  0  0  0  0  0  0
    0.8365    0.0139    0.0000 C   0  0  0  0  0  0  0  0  0  0  0  0
    0.2558    2.3920    0.0000 C   0  0  0  0  0  0  0  0  0  0  0  0
    0.9471    2.7792    0.0000 C   0  0  0  0  0  0  0  0  0  0  0  0
    0.4909   -1.5901    0.0000 C   0  0  0  0  0  0  0  0  0  0  0  0
   -1.5831   -0.8158    0.0000 C   0  0  0  0  0  0  0  0  0  0  0  0
   -2.2330   -1.2997    0.0000 C   0  0  0  0  0  0  0  0  0  0  0  0
    1.4449   -0.5254    0.0000 C   0  0  0  0  0  0  0  0  0  0  0  0
    1.2652   -1.3274    0.0000 C   0  0  0  0  0  0  0  0  0  0  0  0
   -3.0212   -1.0370    0.0000 C   0  0  0  0  0  0  0  0  0  0  0  0
   -2.6063    0.9541    0.0000 C   0  0  0  0  0  0  0  0  0  0  0  0
   -0.6706   -2.7792    0.0000 C   0  0  0  0  0  0  0  0  0  0  0  0
  1 31  1  0  0  0  0
  2  8  2  0  0  0  0
  2  9  2  0  0  0  0
  2 10  1  0  0  0  0
  2 33  1  0  0  0  0
  3 22  1  0  0  0  0
  4 22  1  0  0  0  0
  5 14  1  0  0  0  0
  5 24  1  0  0  0  0
  6 19  1  0  0  0  0
  6 22  1  0  0  0  0
  7 21  1  0  0  0  0
  7 22  1  0  0  0  0
 11 15  1  0  0  0  0
 11 24  2  0  0  0  0
 12 13  1  0  0  0  0
 12 20  1  0  0  0  0
 12 35  1  0  0  0  0
 13 30  2  0  0  0  0
 14 15  2  0  0  0  0
 14 16  1  0  0  0  0
 15 18  1  0  0  0  0
 16 17  1  0  0  0  0
 16 25  2  0  0  0  0
 17 20  1  0  0  0  0
 17 28  2  0  0  0  0
 18 23  2  0  0  0  0
 18 26  1  0  0  0  0
 19 21  2  0  0  0  0
 19 23  1  0  0  0  0
 20 29  2  0  0  0  0
 21 27  1  0  0  0  0
 24 34  1  0  0  0  0
 25 31  1  0  0  0  0
 26 27  2  0  0  0  0
 28 32  1  0  0  0  0
 29 30  1  0  0  0  0
 30 33  1  0  0  0  0
 31 32  2  0  0  0  0
M  END
> <PUBCHEM_COMPOUND_ID_TYPE>
0

> <PUBCHEM_TOTAL_CHARGE>
0

> <PUBCHEM_SUBSTANCE_ID>
310948549

> <PUBCHEM_SUBSTANCE_VERSION>
1

> <PUBCHEM_EXT_DATASOURCE_NAME>
4488

> <PUBCHEM_EXT_DATASOURCE_REGID>
SCHEMBL16126731

> <PUBCHEM_SUBSTANCE_COMMENT>
InChI=1S/C22H16BrF2N3O6S/c1-11-26-20(12-3-6-18-19(7-12)34-22(24,25)33-18)21(32-11)16-8-13(23)4-5-15(16)17-9-14(27-28(17)2)10-35(29,30)31/h3-9H,10H2,1-2H3,(H,29,30,31)
InChIKey=SPHMKWQLZZRPPA-UHFFFAOYSA-N

> <PUBCHEM_SUBSTANCE_SYNONYM>
SCHEMBL16126731

> <PUBCHEM_XREF_EXT_ID>
SCHEMBL16126731

> <PUBCHEM_EXT_DATASOURCE_URL>
https://www.surechembl.org/

> <PUBCHEM_EXT_SUBSTANCE_URL>
https://www.surechembl.org/chemical/SCHEMBL16126731

> <PUBCHEM_CID_ASSOCIATIONS>
117614102  1

> <PUBCHEM_COORDINATE_TYPE>
1
3

$$$$
