310948193
  -OEChem-07211613022D

 47 51  0     0  0  0  0  0  0999 V2000
    3.2161   -1.9968    0.0000 S   0  0  0  0  0  0  0  0  0  0  0  0
   -4.0111   -0.4241    0.0000 F   0  0  0  0  0  0  0  0  0  0  0  0
   -4.4707    0.5478    0.0000 F   0  0  0  0  0  0  0  0  0  0  0  0
    3.2161    0.8659    0.0000 F   0  0  0  0  0  0  0  0  0  0  0  0
    2.1558    0.7069    0.0000 F   0  0  0  0  0  0  0  0  0  0  0  0
    2.6682    2.2618    0.0000 F   0  0  0  0  0  0  0  0  0  0  0  0
    2.6682    2.2618    0.0000 F   0  0  0  0  0  0  0  0  0  0  0  0
   -1.7316    0.9366    0.0000 O   0  0  0  0  0  0  0  0  0  0  0  0
    2.5092   -2.4209    0.0000 O   0  0  0  0  0  0  0  0  0  0  0  0
    3.6402   -2.7212    0.0000 O   0  0  0  0  0  0  0  0  0  0  0  0
    2.6682    2.2618    0.0000 O   0  0  0  0  0  0  0  0  0  0  0  0
   -4.2408    1.6256    0.0000 O   0  0  0  0  0  0  0  0  0  0  0  0
    4.4707    0.1414    0.0000 O   0  0  0  0  0  0  0  0  0  0  0  0
   -2.2088   -1.2370    0.0000 N   0  0  0  0  0  0  0  0  0  0  0  0
   -1.1840    2.1558    0.0000 N   0  0  0  0  0  0  0  0  0  0  0  0
   -2.9863   -0.9719    0.0000 N   0  0  0  0  0  0  0  0  0  0  0  0
   -0.4947    0.1590    0.0000 C   0  0  0  0  0  0  0  0  0  0  0  0
   -0.9189   -0.5654    0.0000 C   0  0  0  0  0  0  0  0  0  0  0  0
   -0.9189    0.8659    0.0000 C   0  0  0  0  0  0  0  0  0  0  0  0
   -1.7316   -0.5478    0.0000 C   0  0  0  0  0  0  0  0  0  0  0  0
   -0.5301    1.6256    0.0000 C   0  0  0  0  0  0  0  0  0  0  0  0
    0.7422   -0.5478    0.0000 C   0  0  0  0  0  0  0  0  0  0  0  0
    0.3357    0.1414    0.0000 C   0  0  0  0  0  0  0  0  0  0  0  0
    1.5726   -0.5478    0.0000 C   0  0  0  0  0  0  0  0  0  0  0  0
   -2.9863   -0.1414    0.0000 C   0  0  0  0  0  0  0  0  0  0  0  0
   -0.4771   -1.2722    0.0000 C   0  0  0  0  0  0  0  0  0  0  0  0
   -2.1735    0.0707    0.0000 C   0  0  0  0  0  0  0  0  0  0  0  0
    0.2650    1.7670    0.0000 C   0  0  0  0  0  0  0  0  0  0  0  0
    0.3357   -1.2722    0.0000 C   0  0  0  0  0  0  0  0  0  0  0  0
   -1.8907    1.7493    0.0000 C   0  0  0  0  0  0  0  0  0  0  0  0
    2.8096   -1.2722    0.0000 C   0  0  0  0  0  0  0  0  0  0  0  0
   -3.6578    0.3357    0.0000 C   0  0  0  0  0  0  0  0  0  0  0  0
    1.9968   -1.2722    0.0000 C   0  0  0  0  0  0  0  0  0  0  0  0
    3.2161   -0.5478    0.0000 C   0  0  0  0  0  0  0  0  0  0  0  0
    1.9968    0.1414    0.0000 C   0  0  0  0  0  0  0  0  0  0  0  0
    2.8096    0.1414    0.0000 C   0  0  0  0  0  0  0  0  0  0  0  0
    0.7776    1.1840    0.0000 C   0  0  0  0  0  0  0  0  0  0  0  0
    0.5124    2.5622    0.0000 C   0  0  0  0  0  0  0  0  0  0  0  0
    1.6080    1.3429    0.0000 C   0  0  0  0  0  0  0  0  0  0  0  0
   -1.9084   -2.0321    0.0000 C   0  0  0  0  0  0  0  0  0  0  0  0
    1.8730    2.1205    0.0000 C   0  0  0  0  0  0  0  0  0  0  0  0
   -3.5695    1.1486    0.0000 C   0  0  0  0  0  0  0  0  0  0  0  0
    1.3076    2.7212    0.0000 C   0  0  0  0  0  0  0  0  0  0  0  0
    4.0642   -0.5478    0.0000 C   0  0  0  0  0  0  0  0  0  0  0  0
   -2.6682    2.0675    0.0000 C   0  0  0  0  0  0  0  0  0  0  0  0
    3.9581   -1.5726    0.0000 C   0  0  0  0  0  0  0  0  0  0  0  0
    2.6682    2.2618    0.0000 C   0  0  0  0  0  0  0  0  0  0  0  0
  1  9  2  0  0  0  0
  1 10  2  0  0  0  0
  1 31  1  0  0  0  0
  1 46  1  0  0  0  0
  2 32  1  0  0  0  0
  3 32  1  0  0  0  0
  4 36  1  0  0  0  0
  5 39  1  0  0  0  0
  6 47  1  0  0  0  0
  7 47  1  0  0  0  0
  8 19  1  0  0  0  0
  8 30  1  0  0  0  0
 11 41  1  0  0  0  0
 11 47  1  0  0  0  0
 12 42  1  0  0  0  0
 13 44  1  0  0  0  0
 14 16  1  0  0  0  0
 14 20  1  0  0  0  0
 14 40  1  0  0  0  0
 15 21  1  0  0  0  0
 15 30  2  0  0  0  0
 16 25  2  0  0  0  0
 17 18  1  0  0  0  0
 17 19  1  0  0  0  0
 17 23  2  0  0  0  0
 18 20  1  0  0  0  0
 18 26  2  0  0  0  0
 19 21  2  0  0  0  0
 20 27  2  0  0  0  0
 21 28  1  0  0  0  0
 22 23  1  0  0  0  0
 22 24  1  0  0  0  0
 22 29  2  0  0  0  0
 24 33  2  0  0  0  0
 24 35  1  0  0  0  0
 25 27  1  0  0  0  0
 25 32  1  0  0  0  0
 26 29  1  0  0  0  0
 28 37  1  0  0  0  0
 28 38  2  0  0  0  0
 30 45  1  0  0  0  0
 31 33  1  0  0  0  0
 31 34  2  0  0  0  0
 32 42  1  0  0  0  0
 34 36  1  0  0  0  0
 34 44  1  0  0  0  0
 35 36  2  0  0  0  0
 37 39  2  0  0  0  0
 38 43  1  0  0  0  0
 39 41  1  0  0  0  0
 41 43  2  0  0  0  0
M  END
> <PUBCHEM_COMPOUND_ID_TYPE>
0

> <PUBCHEM_TOTAL_CHARGE>
0

> <PUBCHEM_SUBSTANCE_ID>
310948193

> <PUBCHEM_SUBSTANCE_VERSION>
1

> <PUBCHEM_EXT_DATASOURCE_NAME>
4488

> <PUBCHEM_EXT_DATASOURCE_REGID>
SCHEMBL16126370

> <PUBCHEM_SUBSTANCE_COMMENT>
InChI=1S/C31H25F6N3O6S/c1-15-38-28(17-5-7-25(23(33)9-17)46-30(34)35)29(45-15)20-8-16(18-10-22(32)21(13-41)26(11-18)47(3,43)44)4-6-19(20)24-12-27(39-40(24)2)31(36,37)14-42/h4-12,30,41-42H,13-14H2,1-3H3
InChIKey=YOQXEIPLJQHGNK-UHFFFAOYSA-N

> <PUBCHEM_SUBSTANCE_SYNONYM>
SCHEMBL16126370

> <PUBCHEM_XREF_EXT_ID>
SCHEMBL16126370

> <PUBCHEM_EXT_DATASOURCE_URL>
https://www.surechembl.org/

> <PUBCHEM_EXT_SUBSTANCE_URL>
https://www.surechembl.org/chemical/SCHEMBL16126370

> <PUBCHEM_CID_ASSOCIATIONS>
86275972  1

> <PUBCHEM_COORDINATE_TYPE>
1
3

$$$$
