310929273
  -OEChem-07211613022D

 48 52  0     0  0  0  0  0  0999 V2000
    5.8196   -7.9575    0.0000 O   0  0  0  0  0  0  0  0  0  0  0  0
    4.2757   -5.3446    0.0000 O   0  0  0  0  0  0  0  0  0  0  0  0
    2.8505   -8.6107    0.0000 O   0  0  0  0  0  0  0  0  0  0  0  0
    7.0667   -7.7793    0.0000 O   0  0  0  0  0  0  0  0  0  0  0  0
    0.8314    0.0000    0.0000 O   0  0  0  0  0  0  0  0  0  0  0  0
    4.2163   -8.6107    0.0000 N   0  0  0  0  0  0  0  0  0  0  0  0
    3.5631   -9.8578    0.0000 N   0  0  0  0  0  0  0  0  0  0  0  0
    7.7793   -9.0264    0.0000 N   0  0  0  0  0  0  0  0  0  0  0  0
    2.1378   -4.0975    0.0000 N   0  0  0  0  0  0  0  0  0  0  0  0
    2.9098   -2.9098    0.0000 N   0  0  0  0  0  0  0  0  0  0  0  0
    4.9289   -9.0264    0.0000 C   0  0  0  0  0  0  0  0  0  0  0  0
    4.2163   -7.8387    0.0000 C   0  0  0  0  0  0  0  0  0  0  0  0
    4.9289   -7.4230    0.0000 C   0  0  0  0  0  0  0  0  0  0  0  0
    5.6415   -8.6107    0.0000 C   0  0  0  0  0  0  0  0  0  0  0  0
    4.9289   -6.5916    0.0000 C   0  0  0  0  0  0  0  0  0  0  0  0
    6.3541   -9.0264    0.0000 C   0  0  0  0  0  0  0  0  0  0  0  0
    5.6415  -10.2735    0.0000 C   0  0  0  0  0  0  0  0  0  0  0  0
    4.9289   -9.8578    0.0000 C   0  0  0  0  0  0  0  0  0  0  0  0
    4.2163   -6.1759    0.0000 C   0  0  0  0  0  0  0  0  0  0  0  0
    3.5631   -9.0264    0.0000 C   0  0  0  0  0  0  0  0  0  0  0  0
    3.5631   -7.4230    0.0000 C   0  0  0  0  0  0  0  0  0  0  0  0
    6.3541   -9.8578    0.0000 C   0  0  0  0  0  0  0  0  0  0  0  0
    5.6415  -11.0454    0.0000 C   0  0  0  0  0  0  0  0  0  0  0  0
    3.5631   -6.5916    0.0000 C   0  0  0  0  0  0  0  0  0  0  0  0
    5.6415   -7.8387    0.0000 C   0  0  0  0  0  0  0  0  0  0  0  0
    7.0667   -8.6107    0.0000 C   0  0  0  0  0  0  0  0  0  0  0  0
    5.6415   -6.1759    0.0000 C   0  0  0  0  0  0  0  0  0  0  0  0
    6.3541   -7.4230    0.0000 C   0  0  0  0  0  0  0  0  0  0  0  0
    6.3541   -6.5916    0.0000 C   0  0  0  0  0  0  0  0  0  0  0  0
    3.5631   -4.9289    0.0000 C   0  0  0  0  0  0  0  0  0  0  0  0
    4.8101  -11.0454    0.0000 C   0  0  0  0  0  0  0  0  0  0  0  0
    5.6415  -11.8768    0.0000 C   0  0  0  0  0  0  0  0  0  0  0  0
    6.4729  -11.0454    0.0000 C   0  0  0  0  0  0  0  0  0  0  0  0
    3.5631   -4.1569    0.0000 C   0  0  0  0  0  0  0  0  0  0  0  0
    5.1070   -7.5418    0.0000 C   0  0  0  0  0  0  0  0  0  0  0  0
    2.8505   -3.7412    0.0000 C   0  0  0  0  0  0  0  0  0  0  0  0
    2.8505   -5.3446    0.0000 C   0  0  0  0  0  0  0  0  0  0  0  0
    2.1378   -4.9289    0.0000 C   0  0  0  0  0  0  0  0  0  0  0  0
    2.1972   -2.4941    0.0000 C   0  0  0  0  0  0  0  0  0  0  0  0
    7.7793   -9.8578    0.0000 C   0  0  0  0  0  0  0  0  0  0  0  0
    2.1972   -1.6627    0.0000 C   0  0  0  0  0  0  0  0  0  0  0  0
    1.4846   -2.8505    0.0000 C   0  0  0  0  0  0  0  0  0  0  0  0
    1.4846   -1.2470    0.0000 C   0  0  0  0  0  0  0  0  0  0  0  0
    0.7720   -2.4348    0.0000 C   0  0  0  0  0  0  0  0  0  0  0  0
    0.7720   -1.6033    0.0000 C   0  0  0  0  0  0  0  0  0  0  0  0
    1.5440   -0.4157    0.0000 C   0  0  0  0  0  0  0  0  0  0  0  0
    0.0594   -2.8505    0.0000 C   0  0  0  0  0  0  0  0  0  0  0  0
    0.0000   -3.6818    0.0000 C   0  0  0  0  0  0  0  0  0  0  0  0
  1 14  1  0  0  0  0
  1 35  1  0  0  0  0
  2 19  1  0  0  0  0
  2 30  1  0  0  0  0
  3 20  2  0  0  0  0
  4 26  2  0  0  0  0
  5 46  1  0  0  0  0
  6 11  1  0  0  0  0
  6 12  1  0  0  0  0
  6 20  1  0  0  0  0
  7 20  1  0  0  0  0
  8 26  1  0  0  0  0
  8 40  1  0  0  0  0
  9 36  2  0  0  0  0
  9 38  1  0  0  0  0
 10 36  1  0  0  0  0
 10 39  1  0  0  0  0
 11 14  1  0  0  0  0
 11 18  2  0  0  0  0
 12 13  1  0  0  0  0
 12 21  2  0  0  0  0
 13 15  2  0  0  0  0
 13 25  1  0  0  0  0
 14 16  2  0  0  0  0
 15 19  1  0  0  0  0
 15 27  1  0  0  0  0
 16 22  1  0  0  0  0
 16 26  1  0  0  0  0
 17 18  1  0  0  0  0
 17 22  2  0  0  0  0
 17 23  1  0  0  0  0
 19 24  2  0  0  0  0
 21 24  1  0  0  0  0
 23 31  1  0  0  0  0
 23 32  1  0  0  0  0
 23 33  1  0  0  0  0
 25 28  2  0  0  0  0
 27 29  2  0  0  0  0
 28 29  1  0  0  0  0
 30 34  2  0  0  0  0
 30 37  1  0  0  0  0
 34 36  1  0  0  0  0
 37 38  2  0  0  0  0
 39 41  2  0  0  0  0
 39 42  1  0  0  0  0
 41 43  1  0  0  0  0
 42 44  2  0  0  0  0
 43 45  2  0  0  0  0
 43 46  1  0  0  0  0
 44 45  1  0  0  0  0
 44 47  1  0  0  0  0
 47 48  3  0  0  0  0
M  END
> <PUBCHEM_COMPOUND_ID_TYPE>
0

> <PUBCHEM_TOTAL_CHARGE>
0

> <PUBCHEM_SUBSTANCE_ID>
310929273

> <PUBCHEM_SUBSTANCE_VERSION>
1

> <PUBCHEM_EXT_DATASOURCE_NAME>
4488

> <PUBCHEM_EXT_DATASOURCE_REGID>
SCHEMBL16106437

> <PUBCHEM_SUBSTANCE_COMMENT>
InChI=1S/C38H37N5O5/c1-7-23-16-24(22-44)18-26(17-23)42-34-21-27(14-15-41-34)48-33-13-12-31(28-10-8-9-11-29(28)33)43(37(39)46)32-20-25(38(2,3)4)19-30(35(32)47-6)36(45)40-5/h1,8-21,44H,22H2,2-6H3,(H2,39,46)(H,40,45)(H,41,42)
InChIKey=USMCAURQNXRQGU-UHFFFAOYSA-N

> <PUBCHEM_SUBSTANCE_SYNONYM>
SCHEMBL16106437

> <PUBCHEM_XREF_EXT_ID>
SCHEMBL16106437

> <PUBCHEM_EXT_DATASOURCE_URL>
https://www.surechembl.org/

> <PUBCHEM_EXT_SUBSTANCE_URL>
https://www.surechembl.org/chemical/SCHEMBL16106437

> <PUBCHEM_CID_ASSOCIATIONS>
117598691  1

> <PUBCHEM_COORDINATE_TYPE>
1
3

$$$$
