310942915
  -OEChem-07211613022D

 29 31  0     0  0  0  0  0  0999 V2000
    0.1535   -1.5894    0.0000 S   0  0  0  0  0  0  0  0  0  0  0  0
   -1.9954    0.4571    0.0000 O   0  0  0  0  0  0  0  0  0  0  0  0
   -3.4279    2.9276    0.0000 O   0  0  0  0  0  0  0  0  0  0  0  0
    3.0186    0.8664    0.0000 O   0  0  0  0  0  0  0  0  0  0  0  0
    0.1535   -1.5894    0.0000 O   0  0  0  0  0  0  0  0  0  0  0  0
    0.1535   -1.5894    0.0000 O   0  0  0  0  0  0  0  0  0  0  0  0
   -0.5628    0.4571    0.0000 N   0  0  0  0  0  0  0  0  0  0  0  0
   -1.9954    2.1090    0.0000 N   0  0  0  0  0  0  0  0  0  0  0  0
   -1.2791    1.6997    0.0000 C   0  0  0  0  0  0  0  0  0  0  0  0
    0.1681    1.6997    0.0000 C   0  0  0  0  0  0  0  0  0  0  0  0
   -1.2791    0.8956    0.0000 C   0  0  0  0  0  0  0  0  0  0  0  0
    0.8698    2.1090    0.0000 C   0  0  0  0  0  0  0  0  0  0  0  0
   -0.5774    2.1090    0.0000 C   0  0  0  0  0  0  0  0  0  0  0  0
    0.1535    0.8810    0.0000 C   0  0  0  0  0  0  0  0  0  0  0  0
    0.8844    2.9422    0.0000 C   0  0  0  0  0  0  0  0  0  0  0  0
    1.5861    1.6997    0.0000 C   0  0  0  0  0  0  0  0  0  0  0  0
    2.3024    2.1236    0.0000 C   0  0  0  0  0  0  0  0  0  0  0  0
   -0.5628   -0.3468    0.0000 C   0  0  0  0  0  0  0  0  0  0  0  0
    1.5861    3.3222    0.0000 C   0  0  0  0  0  0  0  0  0  0  0  0
   -1.9954    2.9276    0.0000 C   0  0  0  0  0  0  0  0  0  0  0  0
   -2.6971    1.6997    0.0000 C   0  0  0  0  0  0  0  0  0  0  0  0
    2.3024    2.9276    0.0000 C   0  0  0  0  0  0  0  0  0  0  0  0
    0.1535   -0.7708    0.0000 C   0  0  0  0  0  0  0  0  0  0  0  0
    3.0332    1.7289    0.0000 C   0  0  0  0  0  0  0  0  0  0  0  0
    0.1389    3.3369    0.0000 C   0  0  0  0  0  0  0  0  0  0  0  0
   -2.7409    3.3369    0.0000 C   0  0  0  0  0  0  0  0  0  0  0  0
   -3.4279    2.1090    0.0000 C   0  0  0  0  0  0  0  0  0  0  0  0
    3.4279    1.9482    0.0000 C   0  0  0  0  0  0  0  0  0  0  0  0
    1.8480   -3.3369    0.0000 C   0  0  0  0  0  0  0  0  0  0  0  0
  1  5  2  0  0  0  0
  1  6  2  0  0  0  0
  1 23  1  0  0  0  0
  1 29  1  0  0  0  0
  2 11  2  0  0  0  0
  3 26  1  0  0  0  0
  3 27  1  0  0  0  0
  4 24  2  0  0  0  0
  7 11  1  0  0  0  0
  7 14  1  0  0  0  0
  7 18  1  0  0  0  0
  8  9  1  0  0  0  0
  8 20  1  0  0  0  0
  8 21  1  0  0  0  0
  9 11  1  0  0  0  0
  9 13  2  0  0  0  0
 10 12  1  0  0  0  0
 10 13  1  0  0  0  0
 10 14  2  0  0  0  0
 12 15  1  0  0  0  0
 12 16  2  0  0  0  0
 15 19  2  0  0  0  0
 15 25  1  0  0  0  0
 16 17  1  0  0  0  0
 17 22  2  0  0  0  0
 17 24  1  0  0  0  0
 18 23  1  0  0  0  0
 19 22  1  0  0  0  0
 20 26  1  0  0  0  0
 21 27  1  0  0  0  0
 24 28  1  0  0  0  0
M  END
> <PUBCHEM_COMPOUND_ID_TYPE>
0

> <PUBCHEM_TOTAL_CHARGE>
0

> <PUBCHEM_SUBSTANCE_ID>
310942915

> <PUBCHEM_SUBSTANCE_VERSION>
1

> <PUBCHEM_EXT_DATASOURCE_NAME>
4488

> <PUBCHEM_EXT_DATASOURCE_REGID>
SCHEMBL16120973

> <PUBCHEM_SUBSTANCE_COMMENT>
InChI=1S/C21H26N2O5S/c1-15-4-5-17(16(2)24)12-19(15)18-13-20(22-6-9-28-10-7-22)21(25)23(14-18)8-11-29(3,26)27/h4-5,12-14H,6-11H2,1-3H3
InChIKey=FBJJESMHCGIALZ-UHFFFAOYSA-N

> <PUBCHEM_SUBSTANCE_SYNONYM>
SCHEMBL16120973

> <PUBCHEM_XREF_EXT_ID>
SCHEMBL16120973

> <PUBCHEM_EXT_DATASOURCE_URL>
https://www.surechembl.org/

> <PUBCHEM_EXT_SUBSTANCE_URL>
https://www.surechembl.org/chemical/SCHEMBL16120973

> <PUBCHEM_CID_ASSOCIATIONS>
117609390  1

> <PUBCHEM_COORDINATE_TYPE>
1
3

$$$$
