310941326
  -OEChem-07211613022D

 16 16  0     1  0  0  0  0  0999 V2000
   -1.7950    0.7032    0.0000 O   0  0  0  0  0  0  0  0  0  0  0  0
   -1.8149   -0.9431    0.0000 O   0  0  0  0  0  0  0  0  0  0  0  0
    1.7554    1.9330    0.0000 O   0  0  0  0  0  0  0  0  0  0  0  0
   -1.8149   -0.9431    0.0000 O   0  0  0  0  0  0  0  0  0  0  0  0
   -0.3868   -0.9431    0.0000 N   0  0  0  0  0  0  0  0  0  0  0  0
   -1.0612    0.3461    0.0000 C   0  0  3  0  0  0  0  0  0  0  0  0
   -0.3868    0.7428    0.0000 C   0  0  0  0  0  0  0  0  0  0  0  0
   -1.1008   -0.5068    0.0000 C   0  0  3  0  0  0  0  0  0  0  0  0
   -1.8149   -0.9431    0.0000 C   0  0  0  0  0  0  0  0  0  0  0  0
    0.3471    0.3461    0.0000 C   0  0  0  0  0  0  0  0  0  0  0  0
   -0.3471    1.5561    0.0000 C   0  0  0  0  0  0  0  0  0  0  0  0
    1.0612    1.5759    0.0000 C   0  0  0  0  0  0  0  0  0  0  0  0
    1.0413    0.7428    0.0000 C   0  0  0  0  0  0  0  0  0  0  0  0
    0.3273    1.9527    0.0000 C   0  0  0  0  0  0  0  0  0  0  0  0
   -0.1242   -2.6867    0.0000 C   0  0  0  0  0  0  0  0  0  0  0  0
    1.8149    2.6867    0.0000 C   0  0  0  0  0  0  0  0  0  0  0  0
  6  1  1  6  0  0  0
  2  9  1  0  0  0  0
  2 15  1  0  0  0  0
  3 12  1  0  0  0  0
  3 16  1  0  0  0  0
  4  9  2  0  0  0  0
  8  5  1  6  0  0  0
  6  7  1  0  0  0  0
  6  8  1  0  0  0  0
  7 10  2  0  0  0  0
  7 11  1  0  0  0  0
  8  9  1  0  0  0  0
 10 13  1  0  0  0  0
 11 14  2  0  0  0  0
 12 13  2  0  0  0  0
 12 14  1  0  0  0  0
M  END
> <PUBCHEM_COMPOUND_ID_TYPE>
0

> <PUBCHEM_TOTAL_CHARGE>
0

> <PUBCHEM_SUBSTANCE_ID>
310941326

> <PUBCHEM_SUBSTANCE_VERSION>
1

> <PUBCHEM_EXT_DATASOURCE_NAME>
4488

> <PUBCHEM_EXT_DATASOURCE_REGID>
SCHEMBL16119286

> <PUBCHEM_SUBSTANCE_COMMENT>
InChI=1S/C11H15NO4/c1-15-8-5-3-7(4-6-8)10(13)9(12)11(14)16-2/h3-6,9-10,13H,12H2,1-2H3/t9-,10+/m0/s1
InChIKey=BJYSPCWKFRYEIW-VHSXEESVSA-N

> <PUBCHEM_SUBSTANCE_SYNONYM>
SCHEMBL16119286

> <PUBCHEM_XREF_EXT_ID>
SCHEMBL16119286

> <PUBCHEM_EXT_DATASOURCE_URL>
https://www.surechembl.org/

> <PUBCHEM_EXT_SUBSTANCE_URL>
https://www.surechembl.org/chemical/SCHEMBL16119286

> <PUBCHEM_CID_ASSOCIATIONS>
10632944  1

> <PUBCHEM_COORDINATE_TYPE>
1
3

> <PUBCHEM_BONDANNOTATIONS>
6  1  6
8  5  6

$$$$
