310949015
  -OEChem-07211613022D

  9  9  0     0  0  0  0  0  0999 V2000
   -0.4548   -0.5767    0.0000 O   0  0  0  0  0  0  0  0  0  0  0  0
   -0.4548   -0.5767    0.0000 N   0  0  0  0  0  0  0  0  0  0  0  0
   -1.0091    2.3926    0.0000 N   0  0  0  0  0  0  0  0  0  0  0  0
   -0.6329    0.2744    0.0000 C   0  0  0  0  0  0  0  0  0  0  0  0
   -0.4548   -0.5767    0.0000 C   0  0  0  0  0  0  0  0  0  0  0  0
   -0.8903    1.4621    0.0000 C   0  0  0  0  0  0  0  0  0  0  0  0
   -1.3060    0.7495    0.0000 C   0  0  0  0  0  0  0  0  0  0  0  0
   -0.2371    1.0069    0.0000 C   0  0  0  0  0  0  0  0  0  0  0  0
    1.3060   -2.3926    0.0000 C   0  0  0  0  0  0  0  0  0  0  0  0
  1  5  2  0  0  0  0
  2  5  1  0  0  0  0
  2  9  1  0  0  0  0
  3  6  1  0  0  0  0
  4  5  1  0  0  0  0
  4  7  1  0  0  0  0
  4  8  1  0  0  0  0
  6  7  1  0  0  0  0
  6  8  1  0  0  0  0
M  END
> <PUBCHEM_COMPOUND_ID_TYPE>
0

> <PUBCHEM_TOTAL_CHARGE>
0

> <PUBCHEM_SUBSTANCE_ID>
310949015

> <PUBCHEM_SUBSTANCE_VERSION>
1

> <PUBCHEM_EXT_DATASOURCE_NAME>
4488

> <PUBCHEM_EXT_DATASOURCE_REGID>
SCHEMBL16127204

> <PUBCHEM_SUBSTANCE_COMMENT>
InChI=1S/C6H12N2O/c1-8-6(9)4-2-5(7)3-4/h4-5H,2-3,7H2,1H3,(H,8,9)
InChIKey=ZCANBNVEMHJJPC-UHFFFAOYSA-N

> <PUBCHEM_SUBSTANCE_SYNONYM>
SCHEMBL16127204

> <PUBCHEM_XREF_EXT_ID>
SCHEMBL16127204

> <PUBCHEM_EXT_DATASOURCE_URL>
https://www.surechembl.org/

> <PUBCHEM_EXT_SUBSTANCE_URL>
https://www.surechembl.org/chemical/SCHEMBL16127204

> <PUBCHEM_CID_ASSOCIATIONS>
117563273  1

> <PUBCHEM_COORDINATE_TYPE>
1
3

$$$$
