310948042
  -OEChem-07211613022D

 33 36  0     0  0  0  0  0  0999 V2000
   -5.4108    1.2256    0.0000 P   0  0  0  0  0  0  0  0  0  0  0  0
    5.4108   -0.5476    0.0000 F   0  0  0  0  0  0  0  0  0  0  0  0
    3.2465    0.0522    0.0000 F   0  0  0  0  0  0  0  0  0  0  0  0
    4.7328   -2.6337    0.0000 F   0  0  0  0  0  0  0  0  0  0  0  0
   -2.7771    2.6337    0.0000 O   0  0  0  0  0  0  0  0  0  0  0  0
    2.6467   -2.0339    0.0000 O   0  0  0  0  0  0  0  0  0  0  0  0
    0.2155   -0.6422    0.0000 C   0  0  0  0  0  0  0  0  0  0  0  0
    0.2155   -0.6422    0.0000 C   0  0  0  0  0  0  0  0  0  0  0  0
    0.2155   -0.6422    0.0000 C   0  0  0  0  0  0  0  0  0  0  0  0
   -4.1070    0.3389    0.0000 C   0  0  0  0  0  0  0  0  0  0  0  0
   -2.8031    1.0691    0.0000 C   0  0  0  0  0  0  0  0  0  0  0  0
   -0.4951   -1.0547    0.0000 C   0  0  0  0  0  0  0  0  0  0  0  0
   -0.4951   -1.0547    0.0000 C   0  0  0  0  0  0  0  0  0  0  0  0
   -0.4951   -1.0547    0.0000 C   0  0  0  0  0  0  0  0  0  0  0  0
    0.9259   -1.0547    0.0000 C   0  0  0  0  0  0  0  0  0  0  0  0
    0.9259   -1.0547    0.0000 C   0  0  0  0  0  0  0  0  0  0  0  0
    0.9259   -1.0547    0.0000 C   0  0  0  0  0  0  0  0  0  0  0  0
   -1.3951    0.3389    0.0000 C   0  0  0  0  0  0  0  0  0  0  0  0
   -0.4951   -1.8797    0.0000 C   0  0  0  0  0  0  0  0  0  0  0  0
   -0.4951   -1.8797    0.0000 C   0  0  0  0  0  0  0  0  0  0  0  0
   -0.4951   -1.8797    0.0000 C   0  0  0  0  0  0  0  0  0  0  0  0
    0.9259   -1.8797    0.0000 C   0  0  0  0  0  0  0  0  0  0  0  0
    0.9259   -1.8797    0.0000 C   0  0  0  0  0  0  0  0  0  0  0  0
    0.9259   -1.8797    0.0000 C   0  0  0  0  0  0  0  0  0  0  0  0
   -1.3951   -1.2256    0.0000 C   0  0  0  0  0  0  0  0  0  0  0  0
   -0.0392    1.0952    0.0000 C   0  0  0  0  0  0  0  0  0  0  0  0
    0.2155   -2.2922    0.0000 C   0  0  0  0  0  0  0  0  0  0  0  0
    0.2155   -2.2922    0.0000 C   0  0  0  0  0  0  0  0  0  0  0  0
    0.2155   -2.2922    0.0000 C   0  0  0  0  0  0  0  0  0  0  0  0
    1.2908   -1.1994    0.0000 C   0  0  0  0  0  0  0  0  0  0  0  0
   -0.0392   -1.9818    0.0000 C   0  0  0  0  0  0  0  0  0  0  0  0
    1.2908    0.3389    0.0000 C   0  0  0  0  0  0  0  0  0  0  0  0
    4.0548   -1.3038    0.0000 C   0  0  0  0  0  0  0  0  0  0  0  0
  1  7  1  0  0  0  0
  1  8  1  0  0  0  0
  1  9  1  0  0  0  0
  1 10  2  0  0  0  0
  2 33  1  0  0  0  0
  3 33  1  0  0  0  0
  4 33  1  0  0  0  0
  5 11  2  0  0  0  0
  6 30  1  0  0  0  0
  6 33  1  0  0  0  0
  7 12  2  0  0  0  0
  7 15  1  0  0  0  0
  8 13  2  0  0  0  0
  8 16  1  0  0  0  0
  9 14  2  0  0  0  0
  9 17  1  0  0  0  0
 10 11  1  0  0  0  0
 11 18  1  0  0  0  0
 12 19  1  0  0  0  0
 13 20  1  0  0  0  0
 14 21  1  0  0  0  0
 15 22  2  0  0  0  0
 16 23  2  0  0  0  0
 17 24  2  0  0  0  0
 18 25  2  0  0  0  0
 18 26  1  0  0  0  0
 19 27  2  0  0  0  0
 20 28  2  0  0  0  0
 21 29  2  0  0  0  0
 22 27  1  0  0  0  0
 23 28  1  0  0  0  0
 24 29  1  0  0  0  0
 25 31  1  0  0  0  0
 26 32  2  0  0  0  0
 30 31  2  0  0  0  0
 30 32  1  0  0  0  0
M  END
> <PUBCHEM_COMPOUND_ID_TYPE>
0

> <PUBCHEM_TOTAL_CHARGE>
0

> <PUBCHEM_SUBSTANCE_ID>
310948042

> <PUBCHEM_SUBSTANCE_VERSION>
1

> <PUBCHEM_EXT_DATASOURCE_NAME>
4488

> <PUBCHEM_EXT_DATASOURCE_REGID>
SCHEMBL16126217

> <PUBCHEM_SUBSTANCE_COMMENT>
InChI=1S/C27H20F3O2P/c28-27(29,30)32-22-18-16-21(17-19-22)26(31)20-33(23-10-4-1-5-11-23,24-12-6-2-7-13-24)25-14-8-3-9-15-25/h1-20H
InChIKey=YQUNVNWXCHAYHW-UHFFFAOYSA-N

> <PUBCHEM_SUBSTANCE_SYNONYM>
SCHEMBL16126217

> <PUBCHEM_XREF_EXT_ID>
SCHEMBL16126217

> <PUBCHEM_EXT_DATASOURCE_URL>
https://www.surechembl.org/

> <PUBCHEM_EXT_SUBSTANCE_URL>
https://www.surechembl.org/chemical/SCHEMBL16126217

> <PUBCHEM_CID_ASSOCIATIONS>
117613675  1

> <PUBCHEM_COORDINATE_TYPE>
1
3

$$$$
