310939062
  -OEChem-07211613022D

 40 39  0     1  0  0  0  0  0999 V2000
    0.0256   -0.0957    0.0000 O   0  0  0  0  0  0  0  0  0  0  0  0
   -2.8322   -0.0957    0.0000 O   0  0  0  0  0  0  0  0  0  0  0  0
    0.7401   -1.3332    0.0000 O   0  0  0  0  0  0  0  0  0  0  0  0
   -3.5467    1.1418    0.0000 O   0  0  0  0  0  0  0  0  0  0  0  0
    1.4546    2.1582    0.0000 O   0  0  0  0  0  0  0  0  0  0  0  0
   -3.5467   -2.1582    0.0000 O   0  0  0  0  0  0  0  0  0  0  0  0
    1.4546    0.7293    0.0000 N   0  0  0  0  0  0  0  0  0  0  0  0
   -4.2612   -0.9207    0.0000 N   0  0  0  0  0  0  0  0  0  0  0  0
    1.4546   -0.0957    0.0000 C   0  0  3  0  0  0  0  0  0  0  0  0
    0.7401   -0.5082    0.0000 C   0  0  0  0  0  0  0  0  0  0  0  0
   -4.2612   -0.0957    0.0000 C   0  0  3  0  0  0  0  0  0  0  0  0
   -3.5467    0.3168    0.0000 C   0  0  0  0  0  0  0  0  0  0  0  0
   -0.6888    0.3168    0.0000 C   0  0  3  0  0  0  0  0  0  0  0  0
    2.1691   -0.5082    0.0000 C   0  0  0  0  0  0  0  0  0  0  0  0
   -4.9756    0.3168    0.0000 C   0  0  0  0  0  0  0  0  0  0  0  0
    1.8671    1.4437    0.0000 C   0  0  0  0  0  0  0  0  0  0  0  0
   -3.5467   -1.3332    0.0000 C   0  0  0  0  0  0  0  0  0  0  0  0
   -1.4033   -0.0957    0.0000 C   0  0  0  0  0  0  0  0  0  0  0  0
    2.8835   -0.0957    0.0000 C   0  0  0  0  0  0  0  0  0  0  0  0
   -2.1178    0.3168    0.0000 C   0  0  0  0  0  0  0  0  0  0  0  0
   -5.6901   -0.0957    0.0000 C   0  0  0  0  0  0  0  0  0  0  0  0
    2.6921    1.4437    0.0000 C   0  0  0  0  0  0  0  0  0  0  0  0
   -2.8322   -0.9207    0.0000 C   0  0  0  0  0  0  0  0  0  0  0  0
   -0.6888    1.1418    0.0000 C   0  0  0  0  0  0  0  0  0  0  0  0
    3.1046    0.7293    0.0000 C   0  0  0  0  0  0  0  0  0  0  0  0
    3.5980   -0.5082    0.0000 C   0  0  0  0  0  0  0  0  0  0  0  0
    2.8835    0.7293    0.0000 C   0  0  0  0  0  0  0  0  0  0  0  0
   -2.1178   -1.3332    0.0000 C   0  0  0  0  0  0  0  0  0  0  0  0
   -6.4046    0.3168    0.0000 C   0  0  0  0  0  0  0  0  0  0  0  0
   -5.6901   -0.9207    0.0000 C   0  0  0  0  0  0  0  0  0  0  0  0
    3.9296    0.7293    0.0000 C   0  0  0  0  0  0  0  0  0  0  0  0
   -1.4033   -0.9207    0.0000 C   0  0  0  0  0  0  0  0  0  0  0  0
    4.3421    0.0148    0.0000 C   0  0  0  0  0  0  0  0  0  0  0  0
   -0.6888   -1.3332    0.0000 C   0  0  0  0  0  0  0  0  0  0  0  0
    5.1671    0.0148    0.0000 C   0  0  0  0  0  0  0  0  0  0  0  0
    0.0256   -0.9207    0.0000 C   0  0  0  0  0  0  0  0  0  0  0  0
    5.5796   -0.6997    0.0000 C   0  0  0  0  0  0  0  0  0  0  0  0
    0.7401   -1.3332    0.0000 C   0  0  0  0  0  0  0  0  0  0  0  0
    6.4046   -0.6997    0.0000 C   0  0  0  0  0  0  0  0  0  0  0  0
    1.4546   -0.9207    0.0000 C   0  0  0  0  0  0  0  0  0  0  0  0
  1 10  1  0  0  0  0
  1 13  1  0  0  0  0
  2 12  1  0  0  0  0
  2 20  1  0  0  0  0
  3 10  2  0  0  0  0
  4 12  2  0  0  0  0
  5 16  2  0  0  0  0
  6 17  2  0  0  0  0
  7  9  1  0  0  0  0
  7 16  1  0  0  0  0
  8 11  1  0  0  0  0
  8 17  1  0  0  0  0
  9 10  1  0  0  0  0
  9 14  1  0  0  0  0
 11 12  1  0  0  0  0
 11 15  1  0  0  0  0
 13 18  1  0  0  0  0
 13 24  1  0  0  0  0
 14 19  1  0  0  0  0
 15 21  1  0  0  0  0
 16 22  1  0  0  0  0
 17 23  1  0  0  0  0
 18 20  1  0  0  0  0
 19 26  1  0  0  0  0
 19 27  1  0  0  0  0
 21 29  1  0  0  0  0
 21 30  1  0  0  0  0
 22 25  1  0  0  0  0
 23 28  1  0  0  0  0
 25 31  1  0  0  0  0
 28 32  1  0  0  0  0
 31 33  1  0  0  0  0
 32 34  1  0  0  0  0
 33 35  1  0  0  0  0
 34 36  1  0  0  0  0
 35 37  1  0  0  0  0
 36 38  1  0  0  0  0
 37 39  1  0  0  0  0
 38 40  1  0  0  0  0
M  END
> <PUBCHEM_COMPOUND_ID_TYPE>
0

> <PUBCHEM_TOTAL_CHARGE>
0

> <PUBCHEM_SUBSTANCE_ID>
310939062

> <PUBCHEM_SUBSTANCE_VERSION>
1

> <PUBCHEM_EXT_DATASOURCE_NAME>
4488

> <PUBCHEM_EXT_DATASOURCE_REGID>
SCHEMBL16116981

> <PUBCHEM_SUBSTANCE_COMMENT>
InChI=1S/C32H60N2O6/c1-8-10-12-14-16-18-29(35)33-27(22-24(3)4)31(37)39-21-20-26(7)40-32(38)28(23-25(5)6)34-30(36)19-17-15-13-11-9-2/h24-28H,8-23H2,1-7H3,(H,33,35)(H,34,36)
InChIKey=OFIPGONOZYXYBT-UHFFFAOYSA-N

> <PUBCHEM_SUBSTANCE_SYNONYM>
SCHEMBL16116981

> <PUBCHEM_XREF_EXT_ID>
SCHEMBL16116981

> <PUBCHEM_EXT_DATASOURCE_URL>
https://www.surechembl.org/

> <PUBCHEM_EXT_SUBSTANCE_URL>
https://www.surechembl.org/chemical/SCHEMBL16116981

> <PUBCHEM_CID_ASSOCIATIONS>
117606426  1

> <PUBCHEM_COORDINATE_TYPE>
1
3

$$$$
