310945809
  -OEChem-07211613022D

 17 18  0     0  0  0  0  0  0999 V2000
   -2.8076    1.4160    0.0000 S   0  0  0  0  0  0  0  0  0  0  0  0
   -0.2160    1.2827    0.0000 O   0  0  0  0  0  0  0  0  0  0  0  0
   -0.2160    1.2827    0.0000 O   0  0  0  0  0  0  0  0  0  0  0  0
   -2.7886   -0.1466    0.0000 N   0  0  0  0  0  0  0  0  0  0  0  0
   -4.3130    0.6347    0.0000 N   0  0  0  0  0  0  0  0  0  0  0  0
   -1.8739    1.1111    0.0000 C   0  0  0  0  0  0  0  0  0  0  0  0
   -3.3411    0.6347    0.0000 C   0  0  0  0  0  0  0  0  0  0  0  0
   -1.1116    1.6637    0.0000 C   0  0  0  0  0  0  0  0  0  0  0  0
   -1.8739    0.1583    0.0000 C   0  0  0  0  0  0  0  0  0  0  0  0
   -0.2160    1.2827    0.0000 C   0  0  0  0  0  0  0  0  0  0  0  0
    2.8987   -1.2092    0.0000 C   0  0  0  0  0  0  0  0  0  0  0  0
    2.0906   -1.6637    0.0000 C   0  0  0  0  0  0  0  0  0  0  0  0
    2.8987   -0.3842    0.0000 C   0  0  0  0  0  0  0  0  0  0  0  0
    3.6059   -1.6132    0.0000 C   0  0  0  0  0  0  0  0  0  0  0  0
    3.6059    0.0368    0.0000 C   0  0  0  0  0  0  0  0  0  0  0  0
    4.3130   -1.1923    0.0000 C   0  0  0  0  0  0  0  0  0  0  0  0
    4.3130   -0.3673    0.0000 C   0  0  0  0  0  0  0  0  0  0  0  0
  1  6  1  0  0  0  0
  1  7  1  0  0  0  0
  2 10  1  0  0  0  0
  2 12  1  0  0  0  0
  3 10  2  0  0  0  0
  4  7  2  0  0  0  0
  4  9  1  0  0  0  0
  5  7  1  0  0  0  0
  6  8  1  0  0  0  0
  6  9  2  0  0  0  0
  8 10  1  0  0  0  0
 11 12  1  0  0  0  0
 11 13  2  0  0  0  0
 11 14  1  0  0  0  0
 13 15  1  0  0  0  0
 14 16  2  0  0  0  0
 15 17  2  0  0  0  0
 16 17  1  0  0  0  0
M  END
> <PUBCHEM_COMPOUND_ID_TYPE>
0

> <PUBCHEM_TOTAL_CHARGE>
0

> <PUBCHEM_SUBSTANCE_ID>
310945809

> <PUBCHEM_SUBSTANCE_VERSION>
1

> <PUBCHEM_EXT_DATASOURCE_NAME>
4488

> <PUBCHEM_EXT_DATASOURCE_REGID>
SCHEMBL16123913

> <PUBCHEM_SUBSTANCE_COMMENT>
InChI=1S/C12H12N2O2S/c13-12-14-7-10(17-12)6-11(15)16-8-9-4-2-1-3-5-9/h1-5,7H,6,8H2,(H2,13,14)
InChIKey=JGKJDKCHDRWZCD-UHFFFAOYSA-N

> <PUBCHEM_SUBSTANCE_SYNONYM>
SCHEMBL16123913

> <PUBCHEM_XREF_EXT_ID>
SCHEMBL16123913

> <PUBCHEM_EXT_DATASOURCE_URL>
https://www.surechembl.org/

> <PUBCHEM_EXT_SUBSTANCE_URL>
https://www.surechembl.org/chemical/SCHEMBL16123913

> <PUBCHEM_CID_ASSOCIATIONS>
117611795  1

> <PUBCHEM_COORDINATE_TYPE>
1
3

$$$$
