310938887
  -OEChem-07211613022D

 29 31  0     0  0  0  0  0  0999 V2000
    0.7204   -1.4519    0.0000 F   0  0  0  0  0  0  0  0  0  0  0  0
    0.7204   -1.4519    0.0000 F   0  0  0  0  0  0  0  0  0  0  0  0
    0.7204   -1.4519    0.0000 F   0  0  0  0  0  0  0  0  0  0  0  0
    0.7204   -1.4519    0.0000 O   0  0  0  0  0  0  0  0  0  0  0  0
   -2.9149    0.6318    0.0000 O   0  0  0  0  0  0  0  0  0  0  0  0
    3.6021    1.8731    0.0000 O   0  0  0  0  0  0  0  0  0  0  0  0
    0.7204   -0.6096    0.0000 N   0  0  0  0  0  0  0  0  0  0  0  0
   -1.4519   -0.2106    0.0000 N   0  0  0  0  0  0  0  0  0  0  0  0
   -1.4519   -1.8731    0.0000 N   0  0  0  0  0  0  0  0  0  0  0  0
   -2.8928   -1.8731    0.0000 N   0  0  0  0  0  0  0  0  0  0  0  0
   -3.6243   -0.6096    0.0000 N   0  0  0  0  0  0  0  0  0  0  0  0
   -4.3336   -1.8731    0.0000 N   0  0  0  0  0  0  0  0  0  0  0  0
    4.3336    0.6318    0.0000 N   0  0  0  0  0  0  0  0  0  0  0  0
   -2.1612   -0.6096    0.0000 C   0  0  0  0  0  0  0  0  0  0  0  0
   -2.2056   -1.4519    0.0000 C   0  0  0  0  0  0  0  0  0  0  0  0
   -0.7205   -0.6096    0.0000 C   0  0  0  0  0  0  0  0  0  0  0  0
    0.7204   -1.4519    0.0000 C   0  0  0  0  0  0  0  0  0  0  0  0
    1.4298   -0.1884    0.0000 C   0  0  0  0  0  0  0  0  0  0  0  0
   -0.0111   -0.2106    0.0000 C   0  0  0  0  0  0  0  0  0  0  0  0
   -2.9149   -0.2106    0.0000 C   0  0  0  0  0  0  0  0  0  0  0  0
    0.7204   -1.4519    0.0000 C   0  0  0  0  0  0  0  0  0  0  0  0
   -0.7426   -1.4519    0.0000 C   0  0  0  0  0  0  0  0  0  0  0  0
   -3.6465   -1.4519    0.0000 C   0  0  0  0  0  0  0  0  0  0  0  0
    1.4741    0.6318    0.0000 C   0  0  0  0  0  0  0  0  0  0  0  0
    2.1391   -0.5874    0.0000 C   0  0  0  0  0  0  0  0  0  0  0  0
    2.8706    0.6318    0.0000 C   0  0  0  0  0  0  0  0  0  0  0  0
    2.1391    1.0307    0.0000 C   0  0  0  0  0  0  0  0  0  0  0  0
    2.8484   -0.2106    0.0000 C   0  0  0  0  0  0  0  0  0  0  0  0
    3.5800    1.0307    0.0000 C   0  0  0  0  0  0  0  0  0  0  0  0
  1 21  1  0  0  0  0
  2 21  1  0  0  0  0
  3 21  1  0  0  0  0
  4 17  2  0  0  0  0
  5 20  2  0  0  0  0
  6 29  2  0  0  0  0
  7 17  1  0  0  0  0
  7 18  1  0  0  0  0
  7 19  1  0  0  0  0
  8 14  1  0  0  0  0
  8 16  2  0  0  0  0
  9 15  1  0  0  0  0
  9 22  2  0  0  0  0
 10 15  1  0  0  0  0
 10 23  2  0  0  0  0
 11 20  1  0  0  0  0
 11 23  1  0  0  0  0
 12 23  1  0  0  0  0
 13 29  1  0  0  0  0
 14 15  2  0  0  0  0
 14 20  1  0  0  0  0
 16 19  1  0  0  0  0
 16 22  1  0  0  0  0
 17 21  1  0  0  0  0
 18 24  2  0  0  0  0
 18 25  1  0  0  0  0
 24 27  1  0  0  0  0
 25 28  2  0  0  0  0
 26 27  2  0  0  0  0
 26 28  1  0  0  0  0
 26 29  1  0  0  0  0
M  END
> <PUBCHEM_COMPOUND_ID_TYPE>
0

> <PUBCHEM_TOTAL_CHARGE>
0

> <PUBCHEM_SUBSTANCE_ID>
310938887

> <PUBCHEM_SUBSTANCE_VERSION>
1

> <PUBCHEM_EXT_DATASOURCE_NAME>
4488

> <PUBCHEM_EXT_DATASOURCE_REGID>
SCHEMBL16116806

> <PUBCHEM_SUBSTANCE_COMMENT>
InChI=1S/C16H12F3N7O3/c17-16(18,19)14(29)26(9-3-1-7(2-4-9)11(20)27)6-8-5-22-12-10(23-8)13(28)25-15(21)24-12/h1-5H,6H2,(H2,20,27)(H3,21,22,24,25,28)
InChIKey=KQUMIXJENUWIFH-UHFFFAOYSA-N

> <PUBCHEM_SUBSTANCE_SYNONYM>
SCHEMBL16116806

> <PUBCHEM_XREF_EXT_ID>
SCHEMBL16116806

> <PUBCHEM_EXT_DATASOURCE_URL>
https://www.surechembl.org/

> <PUBCHEM_EXT_SUBSTANCE_URL>
https://www.surechembl.org/chemical/SCHEMBL16116806

> <PUBCHEM_CID_ASSOCIATIONS>
117606285  1

> <PUBCHEM_COORDINATE_TYPE>
1
3

$$$$
