310948503
  -OEChem-07211613022D

 45 49  0     0  0  0  0  0  0999 V2000
   -2.0292   -3.1806    0.0000 S   0  0  0  0  0  0  0  0  0  0  0  0
   -0.3704    4.2274    0.0000 F   0  0  0  0  0  0  0  0  0  0  0  0
    0.7247    4.4207    0.0000 F   0  0  0  0  0  0  0  0  0  0  0  0
    0.9018    3.3094    0.0000 F   0  0  0  0  0  0  0  0  0  0  0  0
    0.7891   -3.1645    0.0000 F   0  0  0  0  0  0  0  0  0  0  0  0
    2.2224   -2.6170    0.0000 F   0  0  0  0  0  0  0  0  0  0  0  0
    2.2224   -2.6170    0.0000 F   0  0  0  0  0  0  0  0  0  0  0  0
    2.0775    1.2642    0.0000 O   0  0  0  0  0  0  0  0  0  0  0  0
   -2.6250   -2.5847    0.0000 O   0  0  0  0  0  0  0  0  0  0  0  0
   -2.6572   -3.7121    0.0000 O   0  0  0  0  0  0  0  0  0  0  0  0
    2.2224   -2.6170    0.0000 O   0  0  0  0  0  0  0  0  0  0  0  0
    0.0805   -4.4207    0.0000 O   0  0  0  0  0  0  0  0  0  0  0  0
   -0.6280    1.8278    0.0000 N   0  0  0  0  0  0  0  0  0  0  0  0
    0.0322    2.3110    0.0000 N   0  0  0  0  0  0  0  0  0  0  0  0
    0.8697    1.8278    0.0000 N   0  0  0  0  0  0  0  0  0  0  0  0
    0.0967    0.5878    0.0000 C   0  0  0  0  0  0  0  0  0  0  0  0
   -0.6280    0.9905    0.0000 C   0  0  0  0  0  0  0  0  0  0  0  0
    0.7730    1.0065    0.0000 C   0  0  0  0  0  0  0  0  0  0  0  0
    1.5460    0.6361    0.0000 C   0  0  0  0  0  0  0  0  0  0  0  0
   -0.6120   -0.6683    0.0000 C   0  0  0  0  0  0  0  0  0  0  0  0
    0.0805   -0.2496    0.0000 C   0  0  0  0  0  0  0  0  0  0  0  0
   -0.6280   -1.5057    0.0000 C   0  0  0  0  0  0  0  0  0  0  0  0
   -1.2884    2.3271    0.0000 C   0  0  0  0  0  0  0  0  0  0  0  0
   -1.3206    0.5878    0.0000 C   0  0  0  0  0  0  0  0  0  0  0  0
   -0.2255    3.1001    0.0000 C   0  0  0  0  0  0  0  0  0  0  0  0
   -1.3367   -2.7458    0.0000 C   0  0  0  0  0  0  0  0  0  0  0  0
   -1.3206   -0.2496    0.0000 C   0  0  0  0  0  0  0  0  0  0  0  0
    1.7071   -0.1369    0.0000 C   0  0  0  0  0  0  0  0  0  0  0  0
    1.6909    1.9728    0.0000 C   0  0  0  0  0  0  0  0  0  0  0  0
   -1.0146    3.1162    0.0000 C   0  0  0  0  0  0  0  0  0  0  0  0
   -1.3206   -1.9084    0.0000 C   0  0  0  0  0  0  0  0  0  0  0  0
   -0.6120   -3.1484    0.0000 C   0  0  0  0  0  0  0  0  0  0  0  0
    0.2577    3.7764    0.0000 C   0  0  0  0  0  0  0  0  0  0  0  0
    0.0805   -1.9084    0.0000 C   0  0  0  0  0  0  0  0  0  0  0  0
    0.0805   -2.7297    0.0000 C   0  0  0  0  0  0  0  0  0  0  0  0
    1.1112   -0.7167    0.0000 C   0  0  0  0  0  0  0  0  0  0  0  0
    2.4801   -0.4107    0.0000 C   0  0  0  0  0  0  0  0  0  0  0  0
   -2.0614    2.0372    0.0000 C   0  0  0  0  0  0  0  0  0  0  0  0
   -0.6120   -3.9858    0.0000 C   0  0  0  0  0  0  0  0  0  0  0  0
    2.0131    2.7780    0.0000 C   0  0  0  0  0  0  0  0  0  0  0  0
    1.2884   -1.5218    0.0000 C   0  0  0  0  0  0  0  0  0  0  0  0
    2.6572   -1.2320    0.0000 C   0  0  0  0  0  0  0  0  0  0  0  0
    2.0453   -1.7795    0.0000 C   0  0  0  0  0  0  0  0  0  0  0  0
   -1.5621   -3.8731    0.0000 C   0  0  0  0  0  0  0  0  0  0  0  0
    2.2224   -2.6170    0.0000 C   0  0  0  0  0  0  0  0  0  0  0  0
  1  9  2  0  0  0  0
  1 10  2  0  0  0  0
  1 26  1  0  0  0  0
  1 44  1  0  0  0  0
  2 33  1  0  0  0  0
  3 33  1  0  0  0  0
  4 33  1  0  0  0  0
  5 35  1  0  0  0  0
  6 45  1  0  0  0  0
  7 45  1  0  0  0  0
  8 19  1  0  0  0  0
  8 29  1  0  0  0  0
 11 43  1  0  0  0  0
 11 45  1  0  0  0  0
 12 39  1  0  0  0  0
 13 14  1  0  0  0  0
 13 17  1  0  0  0  0
 13 23  1  0  0  0  0
 14 25  2  0  0  0  0
 15 18  1  0  0  0  0
 15 29  2  0  0  0  0
 16 17  1  0  0  0  0
 16 18  1  0  0  0  0
 16 21  2  0  0  0  0
 17 24  2  0  0  0  0
 18 19  2  0  0  0  0
 19 28  1  0  0  0  0
 20 21  1  0  0  0  0
 20 22  1  0  0  0  0
 20 27  2  0  0  0  0
 22 31  2  0  0  0  0
 22 34  1  0  0  0  0
 23 30  2  0  0  0  0
 23 38  1  0  0  0  0
 24 27  1  0  0  0  0
 25 30  1  0  0  0  0
 25 33  1  0  0  0  0
 26 31  1  0  0  0  0
 26 32  2  0  0  0  0
 28 36  2  0  0  0  0
 28 37  1  0  0  0  0
 29 40  1  0  0  0  0
 32 35  1  0  0  0  0
 32 39  1  0  0  0  0
 34 35  2  0  0  0  0
 36 41  1  0  0  0  0
 37 42  2  0  0  0  0
 41 43  2  0  0  0  0
 42 43  1  0  0  0  0
M  END
> <PUBCHEM_COMPOUND_ID_TYPE>
0

> <PUBCHEM_TOTAL_CHARGE>
0

> <PUBCHEM_SUBSTANCE_ID>
310948503

> <PUBCHEM_SUBSTANCE_VERSION>
1

> <PUBCHEM_EXT_DATASOURCE_NAME>
4488

> <PUBCHEM_EXT_DATASOURCE_REGID>
SCHEMBL16126685

> <PUBCHEM_SUBSTANCE_COMMENT>
InChI=1S/C30H23F6N3O5S/c1-15-10-26(30(34,35)36)38-39(15)24-9-6-18(19-12-23(31)22(14-40)25(13-19)45(3,41)42)11-21(24)27-28(43-16(2)37-27)17-4-7-20(8-5-17)44-29(32)33/h4-13,29,40H,14H2,1-3H3
InChIKey=AZYQICNTFNYPLZ-UHFFFAOYSA-N

> <PUBCHEM_SUBSTANCE_SYNONYM>
SCHEMBL16126685

> <PUBCHEM_XREF_EXT_ID>
SCHEMBL16126685

> <PUBCHEM_EXT_DATASOURCE_URL>
https://www.surechembl.org/

> <PUBCHEM_EXT_SUBSTANCE_URL>
https://www.surechembl.org/chemical/SCHEMBL16126685

> <PUBCHEM_CID_ASSOCIATIONS>
117614060  1

> <PUBCHEM_COORDINATE_TYPE>
1
3

$$$$
