310948298
  -OEChem-07211613022D

 50 56  0     0  0  0  0  0  0999 V2000
    3.6819   -2.1638    0.0000 S   0  0  0  0  0  0  0  0  0  0  0  0
    2.9155    3.9537    0.0000 F   0  0  0  0  0  0  0  0  0  0  0  0
    3.5008    3.3684    0.0000 F   0  0  0  0  0  0  0  0  0  0  0  0
    3.5287    0.7347    0.0000 F   0  0  0  0  0  0  0  0  0  0  0  0
   -1.4322    0.5535    0.0000 O   0  0  0  0  0  0  0  0  0  0  0  0
    1.8843    3.2709    0.0000 O   0  0  0  0  0  0  0  0  0  0  0  0
    2.8319    2.3094    0.0000 O   0  0  0  0  0  0  0  0  0  0  0  0
   -4.2192   -1.3834    0.0000 O   0  0  0  0  0  0  0  0  0  0  0  0
    3.6819   -2.1638    0.0000 O   0  0  0  0  0  0  0  0  0  0  0  0
    3.6819   -2.1638    0.0000 O   0  0  0  0  0  0  0  0  0  0  0  0
    4.8107    0.0658    0.0000 O   0  0  0  0  0  0  0  0  0  0  0  0
   -1.8085   -1.6621    0.0000 N   0  0  0  0  0  0  0  0  0  0  0  0
   -0.9584    1.8216    0.0000 N   0  0  0  0  0  0  0  0  0  0  0  0
   -2.6167   -1.4531    0.0000 N   0  0  0  0  0  0  0  0  0  0  0  0
   -4.8323   -0.1572    0.0000 N   0  0  0  0  0  0  0  0  0  0  0  0
   -5.4176   -0.7564    0.0000 N   0  0  0  0  0  0  0  0  0  0  0  0
   -0.1501   -0.1711    0.0000 C   0  0  0  0  0  0  0  0  0  0  0  0
   -0.5264   -0.9236    0.0000 C   0  0  0  0  0  0  0  0  0  0  0  0
   -0.6100    0.5118    0.0000 C   0  0  0  0  0  0  0  0  0  0  0  0
   -1.3764   -0.9654    0.0000 C   0  0  0  0  0  0  0  0  0  0  0  0
   -0.3034    1.3060    0.0000 C   0  0  0  0  0  0  0  0  0  0  0  0
   -2.6445   -0.6170    0.0000 C   0  0  0  0  0  0  0  0  0  0  0  0
    0.4769    1.5289    0.0000 C   0  0  0  0  0  0  0  0  0  0  0  0
    1.1179   -0.8260    0.0000 C   0  0  0  0  0  0  0  0  0  0  0  0
    0.6720   -0.1432    0.0000 C   0  0  0  0  0  0  0  0  0  0  0  0
   -3.3552   -0.1432    0.0000 C   0  0  0  0  0  0  0  0  0  0  0  0
   -1.8781   -0.3105    0.0000 C   0  0  0  0  0  0  0  0  0  0  0  0
   -0.0666   -1.6203    0.0000 C   0  0  0  0  0  0  0  0  0  0  0  0
    1.5081    2.5323    0.0000 C   0  0  0  0  0  0  0  0  0  0  0  0
    1.9540   -0.7982    0.0000 C   0  0  0  0  0  0  0  0  0  0  0  0
   -1.6412    1.3757    0.0000 C   0  0  0  0  0  0  0  0  0  0  0  0
    2.0934    1.9610    0.0000 C   0  0  0  0  0  0  0  0  0  0  0  0
    0.7138    2.3233    0.0000 C   0  0  0  0  0  0  0  0  0  0  0  0
    0.7556   -1.5646    0.0000 C   0  0  0  0  0  0  0  0  0  0  0  0
    2.7065    3.1594    0.0000 C   0  0  0  0  0  0  0  0  0  0  0  0
   -4.0798   -0.5334    0.0000 C   0  0  0  0  0  0  0  0  0  0  0  0
    3.2360   -1.4391    0.0000 C   0  0  0  0  0  0  0  0  0  0  0  0
    1.0900    0.9298    0.0000 C   0  0  0  0  0  0  0  0  0  0  0  0
    2.4139   -1.4810    0.0000 C   0  0  0  0  0  0  0  0  0  0  0  0
    3.5984   -0.7006    0.0000 C   0  0  0  0  0  0  0  0  0  0  0  0
    1.8704    1.1527    0.0000 C   0  0  0  0  0  0  0  0  0  0  0  0
    2.3303   -0.0596    0.0000 C   0  0  0  0  0  0  0  0  0  0  0  0
    3.1524   -0.0178    0.0000 C   0  0  0  0  0  0  0  0  0  0  0  0
   -3.7315    0.5953    0.0000 C   0  0  0  0  0  0  0  0  0  0  0  0
   -2.8953    0.5396    0.0000 C   0  0  0  0  0  0  0  0  0  0  0  0
   -1.5019   -2.4703    0.0000 C   0  0  0  0  0  0  0  0  0  0  0  0
   -2.4355    1.6544    0.0000 C   0  0  0  0  0  0  0  0  0  0  0  0
    4.4345   -0.6588    0.0000 C   0  0  0  0  0  0  0  0  0  0  0  0
   -5.0413   -1.4949    0.0000 C   0  0  0  0  0  0  0  0  0  0  0  0
    5.4176   -3.9537    0.0000 C   0  0  0  0  0  0  0  0  0  0  0  0
  1  9  2  0  0  0  0
  1 10  2  0  0  0  0
  1 37  1  0  0  0  0
  1 50  1  0  0  0  0
  2 35  1  0  0  0  0
  3 35  1  0  0  0  0
  4 43  1  0  0  0  0
  5 19  1  0  0  0  0
  5 31  1  0  0  0  0
  6 29  1  0  0  0  0
  6 35  1  0  0  0  0
  7 32  1  0  0  0  0
  7 35  1  0  0  0  0
  8 36  1  0  0  0  0
  8 49  1  0  0  0  0
 11 48  1  0  0  0  0
 12 14  1  0  0  0  0
 12 20  1  0  0  0  0
 12 46  1  0  0  0  0
 13 21  1  0  0  0  0
 13 31  2  0  0  0  0
 14 22  2  0  0  0  0
 15 16  1  0  0  0  0
 15 36  2  0  0  0  0
 16 49  2  0  0  0  0
 17 18  1  0  0  0  0
 17 19  1  0  0  0  0
 17 25  2  0  0  0  0
 18 20  1  0  0  0  0
 18 28  2  0  0  0  0
 19 21  2  0  0  0  0
 20 27  2  0  0  0  0
 21 23  1  0  0  0  0
 22 26  1  0  0  0  0
 22 27  1  0  0  0  0
 23 33  1  0  0  0  0
 23 38  2  0  0  0  0
 24 25  1  0  0  0  0
 24 30  1  0  0  0  0
 24 34  2  0  0  0  0
 26 36  1  0  0  0  0
 26 44  1  0  0  0  0
 26 45  1  0  0  0  0
 28 34  1  0  0  0  0
 29 32  1  0  0  0  0
 29 33  2  0  0  0  0
 30 39  1  0  0  0  0
 30 42  2  0  0  0  0
 31 47  1  0  0  0  0
 32 41  2  0  0  0  0
 37 39  2  0  0  0  0
 37 40  1  0  0  0  0
 38 41  1  0  0  0  0
 40 43  2  0  0  0  0
 40 48  1  0  0  0  0
 42 43  1  0  0  0  0
M  END
> <PUBCHEM_COMPOUND_ID_TYPE>
0

> <PUBCHEM_TOTAL_CHARGE>
0

> <PUBCHEM_SUBSTANCE_ID>
310948298

> <PUBCHEM_SUBSTANCE_VERSION>
1

> <PUBCHEM_EXT_DATASOURCE_NAME>
4488

> <PUBCHEM_EXT_DATASOURCE_REGID>
SCHEMBL16126475

> <PUBCHEM_SUBSTANCE_COMMENT>
InChI=1S/C34H28F3N5O7S/c1-17-39-30(19-7-9-26-27(12-19)49-34(36,37)48-26)31(47-17)22-10-18(20-11-24(35)23(15-43)28(13-20)50(5,44)45)6-8-21(22)25-14-29(41-42(25)4)33(2,3)32-40-38-16-46-32/h6-14,16,43H,15H2,1-5H3
InChIKey=QSRJPRJYQQYJSU-UHFFFAOYSA-N

> <PUBCHEM_SUBSTANCE_SYNONYM>
SCHEMBL16126475

> <PUBCHEM_XREF_EXT_ID>
SCHEMBL16126475

> <PUBCHEM_EXT_DATASOURCE_URL>
https://www.surechembl.org/

> <PUBCHEM_EXT_SUBSTANCE_URL>
https://www.surechembl.org/chemical/SCHEMBL16126475

> <PUBCHEM_CID_ASSOCIATIONS>
86275882  1

> <PUBCHEM_COORDINATE_TYPE>
1
3

$$$$
