310943257
  -OEChem-07211613022D

 35 38  0     0  0  0  0  0  0999 V2000
    3.0813   -1.6098    0.0000 S   0  0  0  0  0  0  0  0  0  0  0  0
   -3.3795    0.4697    0.0000 O   0  0  0  0  0  0  0  0  0  0  0  0
    2.3669    2.1207    0.0000 O   0  0  0  0  0  0  0  0  0  0  0  0
   -4.8082    2.9620    0.0000 O   0  0  0  0  0  0  0  0  0  0  0  0
    3.0813   -1.6098    0.0000 O   0  0  0  0  0  0  0  0  0  0  0  0
    3.0813   -1.6098    0.0000 O   0  0  0  0  0  0  0  0  0  0  0  0
   -3.3795    2.1365    0.0000 N   0  0  0  0  0  0  0  0  0  0  0  0
   -1.9349    0.4697    0.0000 N   0  0  0  0  0  0  0  0  0  0  0  0
    1.6367    0.8825    0.0000 N   0  0  0  0  0  0  0  0  0  0  0  0
   -1.2206    1.7239    0.0000 C   0  0  0  0  0  0  0  0  0  0  0  0
   -0.5063    2.1365    0.0000 C   0  0  0  0  0  0  0  0  0  0  0  0
   -2.6493    1.7239    0.0000 C   0  0  0  0  0  0  0  0  0  0  0  0
   -2.6810    0.8983    0.0000 C   0  0  0  0  0  0  0  0  0  0  0  0
   -1.9508    2.1365    0.0000 C   0  0  0  0  0  0  0  0  0  0  0  0
   -0.5063    2.9779    0.0000 C   0  0  0  0  0  0  0  0  0  0  0  0
    0.9065    2.1525    0.0000 C   0  0  0  0  0  0  0  0  0  0  0  0
    0.2081    1.7239    0.0000 C   0  0  0  0  0  0  0  0  0  0  0  0
   -1.2365    0.8825    0.0000 C   0  0  0  0  0  0  0  0  0  0  0  0
    1.6367    1.7239    0.0000 C   0  0  0  0  0  0  0  0  0  0  0  0
    0.1922    3.3748    0.0000 C   0  0  0  0  0  0  0  0  0  0  0  0
    0.9224    2.9620    0.0000 C   0  0  0  0  0  0  0  0  0  0  0  0
    2.3669    0.4697    0.0000 C   0  0  0  0  0  0  0  0  0  0  0  0
    3.0813   -0.7684    0.0000 C   0  0  0  0  0  0  0  0  0  0  0  0
   -3.3795    2.9779    0.0000 C   0  0  0  0  0  0  0  0  0  0  0  0
   -4.1097    1.7239    0.0000 C   0  0  0  0  0  0  0  0  0  0  0  0
    2.3828   -0.3716    0.0000 C   0  0  0  0  0  0  0  0  0  0  0  0
   -1.2365    3.3589    0.0000 C   0  0  0  0  0  0  0  0  0  0  0  0
    3.7797   -0.3557    0.0000 C   0  0  0  0  0  0  0  0  0  0  0  0
    3.0813    0.8667    0.0000 C   0  0  0  0  0  0  0  0  0  0  0  0
    3.7797    0.4697    0.0000 C   0  0  0  0  0  0  0  0  0  0  0  0
   -4.0939    3.3906    0.0000 C   0  0  0  0  0  0  0  0  0  0  0  0
   -4.8082    2.1365    0.0000 C   0  0  0  0  0  0  0  0  0  0  0  0
   -4.1256    0.8825    0.0000 C   0  0  0  0  0  0  0  0  0  0  0  0
    4.8082   -3.3906    0.0000 C   0  0  0  0  0  0  0  0  0  0  0  0
   -4.7923    0.4539    0.0000 C   0  0  0  0  0  0  0  0  0  0  0  0
  1  5  2  0  0  0  0
  1  6  2  0  0  0  0
  1 23  1  0  0  0  0
  1 34  1  0  0  0  0
  2 13  1  0  0  0  0
  2 33  1  0  0  0  0
  3 19  2  0  0  0  0
  4 31  1  0  0  0  0
  4 32  1  0  0  0  0
  7 12  1  0  0  0  0
  7 24  1  0  0  0  0
  7 25  1  0  0  0  0
  8 13  2  0  0  0  0
  8 18  1  0  0  0  0
  9 19  1  0  0  0  0
  9 22  1  0  0  0  0
 10 11  1  0  0  0  0
 10 14  1  0  0  0  0
 10 18  2  0  0  0  0
 11 15  2  0  0  0  0
 11 17  1  0  0  0  0
 12 13  1  0  0  0  0
 12 14  2  0  0  0  0
 15 20  1  0  0  0  0
 15 27  1  0  0  0  0
 16 17  2  0  0  0  0
 16 19  1  0  0  0  0
 16 21  1  0  0  0  0
 20 21  2  0  0  0  0
 22 26  2  0  0  0  0
 22 29  1  0  0  0  0
 23 26  1  0  0  0  0
 23 28  2  0  0  0  0
 24 31  1  0  0  0  0
 25 32  1  0  0  0  0
 28 30  1  0  0  0  0
 29 30  2  0  0  0  0
 33 35  1  0  0  0  0
M  END
> <PUBCHEM_COMPOUND_ID_TYPE>
0

> <PUBCHEM_TOTAL_CHARGE>
0

> <PUBCHEM_SUBSTANCE_ID>
310943257

> <PUBCHEM_SUBSTANCE_VERSION>
1

> <PUBCHEM_EXT_DATASOURCE_NAME>
4488

> <PUBCHEM_EXT_DATASOURCE_REGID>
SCHEMBL16121319

> <PUBCHEM_SUBSTANCE_COMMENT>
InChI=1S/C26H29N3O5S/c1-4-34-26-24(29-10-12-33-13-11-29)15-20(17-27-26)23-14-19(9-8-18(23)2)25(30)28-21-6-5-7-22(16-21)35(3,31)32/h5-9,14-17H,4,10-13H2,1-3H3,(H,28,30)
InChIKey=CTUGLUQSZFLOBO-UHFFFAOYSA-N

> <PUBCHEM_SUBSTANCE_SYNONYM>
SCHEMBL16121319

> <PUBCHEM_XREF_EXT_ID>
SCHEMBL16121319

> <PUBCHEM_EXT_DATASOURCE_URL>
https://www.surechembl.org/

> <PUBCHEM_EXT_SUBSTANCE_URL>
https://www.surechembl.org/chemical/SCHEMBL16121319

> <PUBCHEM_CID_ASSOCIATIONS>
117609682  1

> <PUBCHEM_COORDINATE_TYPE>
1
3

$$$$
