310946621
  -OEChem-07211613022D

 28 27  0     1  0  0  0  0  0999 V2000
    5.5628    5.8891    0.0000 O   0  0  0  0  0  0  0  0  0  0  0  0
    2.7049    5.8891    0.0000 O   0  0  0  0  0  0  0  0  0  0  0  0
    3.4194    4.6516    0.0000 O   0  0  0  0  0  0  0  0  0  0  0  0
    6.9918    6.7141    0.0000 O   0  0  0  0  0  0  0  0  0  0  0  0
    2.7049    3.4141    0.0000 O   0  0  0  0  0  0  0  0  0  0  0  0
    1.9905    7.1266    0.0000 O   0  0  0  0  0  0  0  0  0  0  0  0
    6.2773    4.6516    0.0000 O   0  5  0  0  0  0  0  0  0  0  0  0
    6.9917    5.8891    0.0000 O   0  0  0  0  0  0  0  0  0  0  0  0
    8.4207    6.7141    0.0000 O   0  5  0  0  0  0  0  0  0  0  0  0
    7.7062    7.9516    0.0000 O   0  0  0  0  0  0  0  0  0  0  0  0
    5.5628    4.2391    0.0000 O   0  0  0  0  0  0  0  0  0  0  0  0
    6.2773    5.4766    0.0000 N   0  3  0  0  0  0  0  0  0  0  0  0
    7.7062    7.1266    0.0000 N   0  3  0  0  0  0  0  0  0  0  0  0
    1.2760    4.2391    0.0000 N   0  0  0  0  0  0  0  0  0  0  0  0
    5.5628    6.7141    0.0000 C   0  0  3  0  0  0  0  0  0  0  0  0
    1.9905    4.6516    0.0000 C   0  0  3  0  0  0  0  0  0  0  0  0
    2.7049    4.2391    0.0000 C   0  0  0  0  0  0  0  0  0  0  0  0
    4.8483    7.1266    0.0000 C   0  0  0  0  0  0  0  0  0  0  0  0
    2.7049    6.7141    0.0000 C   0  0  0  0  0  0  0  0  0  0  0  0
    1.9905    5.4766    0.0000 C   0  0  0  0  0  0  0  0  0  0  0  0
    6.2773    7.1266    0.0000 C   0  0  0  0  0  0  0  0  0  0  0  0
    4.1339    6.7141    0.0000 C   0  0  0  0  0  0  0  0  0  0  0  0
    3.4194    7.1266    0.0000 C   0  0  0  0  0  0  0  0  0  0  0  0
    4.1339    4.2391    0.0000 C   0  0  0  0  0  0  0  0  0  0  0  0
    4.8483    4.6516    0.0000 C   0  0  0  0  0  0  0  0  0  0  0  0
    6.2773    4.6516    0.0000 C   0  0  0  0  0  0  0  0  0  0  0  0
    6.9917    4.2391    0.0000 C   0  0  0  0  0  0  0  0  0  0  0  0
    7.7062    4.6516    0.0000 C   0  0  0  0  0  0  0  0  0  0  0  0
  1 12  1  0  0  0  0
  1 15  1  0  0  0  0
  2 19  1  0  0  0  0
  2 20  1  0  0  0  0
  3 17  1  0  0  0  0
  3 24  1  0  0  0  0
  4 13  1  0  0  0  0
  4 21  1  0  0  0  0
  5 17  2  0  0  0  0
  6 19  2  0  0  0  0
  7 12  1  0  0  0  0
  8 12  2  0  0  0  0
  9 13  1  0  0  0  0
 10 13  2  0  0  0  0
 11 25  1  0  0  0  0
 11 26  1  0  0  0  0
 14 16  1  0  0  0  0
 15 18  1  0  0  0  0
 15 21  1  0  0  0  0
 16 17  1  0  0  0  0
 16 20  1  0  0  0  0
 18 22  1  0  0  0  0
 19 23  1  0  0  0  0
 22 23  1  0  0  0  0
 24 25  1  0  0  0  0
 26 27  1  0  0  0  0
 27 28  1  0  0  0  0
M  CHG  4   7  -1   9  -1  12   1  13   1
M  END
> <PUBCHEM_COMPOUND_ID_TYPE>
0

> <PUBCHEM_TOTAL_CHARGE>
0

> <PUBCHEM_SUBSTANCE_ID>
310946621

> <PUBCHEM_SUBSTANCE_VERSION>
1

> <PUBCHEM_EXT_DATASOURCE_NAME>
4488

> <PUBCHEM_EXT_DATASOURCE_REGID>
SCHEMBL16124742

> <PUBCHEM_SUBSTANCE_COMMENT>
InChI=1S/C14H25N3O11/c1-2-6-24-7-8-25-14(19)12(15)10-26-13(18)5-3-4-11(28-17(22)23)9-27-16(20)21/h11-12H,2-10,15H2,1H3
InChIKey=MHMOWIZMXFXMLJ-UHFFFAOYSA-N

> <PUBCHEM_SUBSTANCE_SYNONYM>
SCHEMBL16124742

> <PUBCHEM_XREF_EXT_ID>
SCHEMBL16124742

> <PUBCHEM_EXT_DATASOURCE_URL>
https://www.surechembl.org/

> <PUBCHEM_EXT_SUBSTANCE_URL>
https://www.surechembl.org/chemical/SCHEMBL16124742

> <PUBCHEM_CID_ASSOCIATIONS>
117612521  1

> <PUBCHEM_COORDINATE_TYPE>
1
3

$$$$
