310941360
  -OEChem-07211613022D

 24 24  0     1  0  0  0  0  0999 V2000
    1.1054   -1.8243    0.0000 F   0  0  0  0  0  0  0  0  0  0  0  0
   -0.4665   -0.8170    0.0000 O   0  0  0  0  0  0  0  0  0  0  0  0
   -0.3595    0.6172    0.0000 O   0  0  0  0  0  0  0  0  0  0  0  0
   -1.0919    1.8514    0.0000 O   0  0  0  0  0  0  0  0  0  0  0  0
   -0.9605   -1.6293    0.0000 O   0  0  0  0  0  0  0  0  0  0  0  0
   -2.4753    0.9834    0.0000 N   0  0  0  0  0  0  0  0  0  0  0  0
   -1.0105   -1.4716    0.0000 N   0  0  0  0  0  0  0  0  0  0  0  0
   -1.7429    0.6036    0.0000 C   0  0  3  0  0  0  0  0  0  0  0  0
   -1.0240   -0.6307    0.0000 C   0  0  0  0  0  0  0  0  0  0  0  0
   -1.7564   -0.2510    0.0000 C   0  0  0  0  0  0  0  0  0  0  0  0
   -1.0783    1.0105    0.0000 C   0  0  0  0  0  0  0  0  0  0  0  0
   -0.9605   -1.1024    0.0000 C   0  0  0  0  0  0  0  0  0  0  0  0
   -0.4554   -0.2681    0.0000 C   0  0  0  0  0  0  0  0  0  0  0  0
   -0.2916   -0.1967    0.0000 C   0  0  0  0  0  0  0  0  0  0  0  0
    0.3866   -1.4174    0.0000 C   0  0  0  0  0  0  0  0  0  0  0  0
   -0.2781   -1.8514    0.0000 C   0  0  0  0  0  0  0  0  0  0  0  0
    0.4001   -0.5900    0.0000 C   0  0  0  0  0  0  0  0  0  0  0  0
    0.3188    1.0240    0.0000 C   0  0  0  0  0  0  0  0  0  0  0  0
    0.0386   -0.2462    0.0000 C   0  0  0  0  0  0  0  0  0  0  0  0
   -0.9605   -0.2681    0.0000 C   0  0  0  0  0  0  0  0  0  0  0  0
   -0.4665    0.2698    0.0000 C   0  0  0  0  0  0  0  0  0  0  0  0
    1.0376    0.6172    0.0000 C   0  0  0  0  0  0  0  0  0  0  0  0
    1.7564    1.0647    0.0000 C   0  0  0  0  0  0  0  0  0  0  0  0
    2.4753    0.6578    0.0000 C   0  0  0  0  0  0  0  0  0  0  0  0
  1 15  1  0  0  0  0
  2 12  1  0  0  0  0
  2 13  1  0  0  0  0
  3 11  1  0  0  0  0
  3 18  1  0  0  0  0
  4 11  2  0  0  0  0
  5 12  2  0  0  0  0
  8  6  1  6  0  0  0
  6 12  1  0  0  0  0
  7  9  2  0  0  0  0
  7 16  1  0  0  0  0
  8 10  1  0  0  0  0
  8 11  1  0  0  0  0
  9 10  1  0  0  0  0
  9 14  1  0  0  0  0
 13 19  1  0  0  0  0
 13 20  1  0  0  0  0
 13 21  1  0  0  0  0
 14 17  2  0  0  0  0
 15 16  2  0  0  0  0
 15 17  1  0  0  0  0
 18 22  1  0  0  0  0
 22 23  1  0  0  0  0
 23 24  1  0  0  0  0
M  END
> <PUBCHEM_COMPOUND_ID_TYPE>
0

> <PUBCHEM_TOTAL_CHARGE>
0

> <PUBCHEM_SUBSTANCE_ID>
310941360

> <PUBCHEM_SUBSTANCE_VERSION>
1

> <PUBCHEM_EXT_DATASOURCE_NAME>
4488

> <PUBCHEM_EXT_DATASOURCE_REGID>
SCHEMBL16119320

> <PUBCHEM_SUBSTANCE_COMMENT>
InChI=1S/C17H25FN2O4/c1-5-6-9-23-15(21)14(20-16(22)24-17(2,3)4)10-13-8-7-12(18)11-19-13/h7-8,11,14H,5-6,9-10H2,1-4H3,(H,20,22)/t14-/m0/s1
InChIKey=CZUUTYMQOQKRNK-AWEZNQCLSA-N

> <PUBCHEM_SUBSTANCE_SYNONYM>
SCHEMBL16119320

> <PUBCHEM_XREF_EXT_ID>
SCHEMBL16119320

> <PUBCHEM_EXT_DATASOURCE_URL>
https://www.surechembl.org/

> <PUBCHEM_EXT_SUBSTANCE_URL>
https://www.surechembl.org/chemical/SCHEMBL16119320

> <PUBCHEM_CID_ASSOCIATIONS>
117608203  1

> <PUBCHEM_COORDINATE_TYPE>
1
3

> <PUBCHEM_BONDANNOTATIONS>
8  6  6

$$$$
