310941477
  -OEChem-07211613022D

 27 30  0     1  0  0  0  0  0999 V2000
    0.9241    0.9147    0.0000 O   0  0  0  0  0  0  0  0  0  0  0  0
   -2.8860   -1.8363    0.0000 N   0  0  0  0  0  0  0  0  0  0  0  0
   -1.5768    0.4293    0.0000 N   0  0  0  0  0  0  0  0  0  0  0  0
   -2.0475   -1.3213    0.0000 C   0  0  3  0  0  0  0  0  0  0  0  0
   -1.6209   -0.6152    0.0000 C   0  0  0  0  0  0  0  0  0  0  0  0
   -1.1061   -1.3360    0.0000 C   0  0  0  0  0  0  0  0  0  0  0  0
   -0.6840   -3.2193    0.0000 C   0  0  0  0  0  0  0  0  0  0  0  0
   -0.6840   -3.2193    0.0000 C   0  0  0  0  0  0  0  0  0  0  0  0
   -0.7677    0.9147    0.0000 C   0  0  3  0  0  0  0  0  0  0  0  0
   -0.3482   -3.8100    0.0000 C   0  0  0  0  0  0  0  0  0  0  0  0
   -0.3617   -2.6419    0.0000 C   0  0  0  0  0  0  0  0  0  0  0  0
   -0.3482   -3.8100    0.0000 C   0  0  0  0  0  0  0  0  0  0  0  0
   -0.3617   -2.6419    0.0000 C   0  0  0  0  0  0  0  0  0  0  0  0
   -0.7530    1.9003    0.0000 C   0  0  0  0  0  0  0  0  0  0  0  0
    0.3231   -3.8100    0.0000 C   0  0  0  0  0  0  0  0  0  0  0  0
    0.3096   -2.6419    0.0000 C   0  0  0  0  0  0  0  0  0  0  0  0
    0.3231   -3.8100    0.0000 C   0  0  0  0  0  0  0  0  0  0  0  0
    0.3096   -2.6419    0.0000 C   0  0  0  0  0  0  0  0  0  0  0  0
    0.1003    0.4587    0.0000 C   0  0  0  0  0  0  0  0  0  0  0  0
   -1.6356    2.4299    0.0000 C   0  0  0  0  0  0  0  0  0  0  0  0
    0.6453   -3.2193    0.0000 C   0  0  0  0  0  0  0  0  0  0  0  0
    0.6453   -3.2193    0.0000 C   0  0  0  0  0  0  0  0  0  0  0  0
   -2.4447    1.9592    0.0000 C   0  0  0  0  0  0  0  0  0  0  0  0
   -1.6650    3.3566    0.0000 C   0  0  0  0  0  0  0  0  0  0  0  0
   -3.2832    2.4005    0.0000 C   0  0  0  0  0  0  0  0  0  0  0  0
   -2.4741    3.8126    0.0000 C   0  0  0  0  0  0  0  0  0  0  0  0
   -3.2832    3.3418    0.0000 C   0  0  0  0  0  0  0  0  0  0  0  0
  1 19  1  0  0  0  0
  2  4  1  0  0  0  0
  2  7  1  0  0  0  0
  2  8  1  0  0  0  0
  3  5  2  0  0  0  0
  9  3  1  1  0  0  0
  4  5  1  0  0  0  0
  4  6  1  0  0  0  0
  5  6  1  0  0  0  0
  7 10  1  0  0  0  0
  7 11  1  0  0  0  0
  8 12  1  0  0  0  0
  8 13  1  0  0  0  0
  9 14  1  0  0  0  0
  9 19  1  0  0  0  0
 10 15  1  0  0  0  0
 11 16  1  0  0  0  0
 12 17  1  0  0  0  0
 13 18  1  0  0  0  0
 14 20  1  0  0  0  0
 15 21  1  0  0  0  0
 16 21  1  0  0  0  0
 17 22  1  0  0  0  0
 18 22  1  0  0  0  0
 20 23  2  0  0  0  0
 20 24  1  0  0  0  0
 23 25  1  0  0  0  0
 24 26  2  0  0  0  0
 25 27  2  0  0  0  0
 26 27  1  0  0  0  0
M  END
> <PUBCHEM_COMPOUND_ID_TYPE>
0

> <PUBCHEM_TOTAL_CHARGE>
0

> <PUBCHEM_SUBSTANCE_ID>
310941477

> <PUBCHEM_SUBSTANCE_VERSION>
1

> <PUBCHEM_EXT_DATASOURCE_NAME>
4488

> <PUBCHEM_EXT_DATASOURCE_REGID>
SCHEMBL16119508

> <PUBCHEM_SUBSTANCE_COMMENT>
InChI=1S/C24H36N2O/c27-18-20(16-19-10-4-1-5-11-19)25-23-17-24(23)26(21-12-6-2-7-13-21)22-14-8-3-9-15-22/h1,4-5,10-11,20-22,24,27H,2-3,6-9,12-18H2/b25-23+/t20-,24?/m0/s1
InChIKey=HDQASVPLRPWNEG-WEDYSQBOSA-N

> <PUBCHEM_SUBSTANCE_SYNONYM>
SCHEMBL16119508

> <PUBCHEM_XREF_EXT_ID>
SCHEMBL16119508

> <PUBCHEM_EXT_DATASOURCE_URL>
https://www.surechembl.org/

> <PUBCHEM_EXT_SUBSTANCE_URL>
https://www.surechembl.org/chemical/SCHEMBL16119508

> <PUBCHEM_CID_ASSOCIATIONS>
117608299  1

> <PUBCHEM_COORDINATE_TYPE>
1
3

> <PUBCHEM_BONDANNOTATIONS>
9  3  5

$$$$
