310948034
  -OEChem-07211613022D

 62 67  0     0  0  0  0  0  0999 V2000
    1.4791   -2.4983    0.0000 S   0  0  0  0  0  0  0  0  0  0  0  0
    0.0373   -0.0125    0.0000 O   0  0  0  0  0  0  0  0  0  0  0  0
    1.4791   -2.4983    0.0000 O   0  0  0  0  0  0  0  0  0  0  0  0
    1.4791   -2.4983    0.0000 O   0  0  0  0  0  0  0  0  0  0  0  0
    1.4791   -2.4983    0.0000 O   0  0  0  0  0  0  0  0  0  0  0  0
    5.7797   -0.0125    0.0000 O   0  0  0  0  0  0  0  0  0  0  0  0
   -5.6926   -0.0125    0.0000 O   0  0  0  0  0  0  0  0  0  0  0  0
    5.7797    2.4735    0.0000 O   0  0  0  0  0  0  0  0  0  0  0  0
   -5.6926    2.4735    0.0000 O   0  0  0  0  0  0  0  0  0  0  0  0
    3.0576   -0.0125    0.0000 N   0  0  0  0  0  0  0  0  0  0  0  0
   -2.6848   -0.0125    0.0000 N   0  0  0  0  0  0  0  0  0  0  0  0
    4.3752    2.4735    0.0000 N   0  0  0  0  0  0  0  0  0  0  0  0
   -4.1141    2.4735    0.0000 N   0  0  0  0  0  0  0  0  0  0  0  0
    0.0622   -1.6531    0.0000 C   0  0  0  0  0  0  0  0  0  0  0  0
    0.7707   -1.2429    0.0000 C   0  0  0  0  0  0  0  0  0  0  0  0
   -0.6712   -1.2429    0.0000 C   0  0  0  0  0  0  0  0  0  0  0  0
    0.0497   -2.4983    0.0000 C   0  0  0  0  0  0  0  0  0  0  0  0
    0.7830   -0.4226    0.0000 C   0  0  0  0  0  0  0  0  0  0  0  0
   -0.6587   -0.4101    0.0000 C   0  0  0  0  0  0  0  0  0  0  0  0
    0.7707   -2.8961    0.0000 C   0  0  0  0  0  0  0  0  0  0  0  0
    1.4791   -1.6531    0.0000 C   0  0  0  0  0  0  0  0  0  0  0  0
   -1.3921   -1.6531    0.0000 C   0  0  0  0  0  0  0  0  0  0  0  0
    1.5039   -0.0125    0.0000 C   0  0  0  0  0  0  0  0  0  0  0  0
   -1.3672   -0.0125    0.0000 C   0  0  0  0  0  0  0  0  0  0  0  0
    2.2124   -0.4101    0.0000 C   0  0  0  0  0  0  0  0  0  0  0  0
   -2.0881   -0.4226    0.0000 C   0  0  0  0  0  0  0  0  0  0  0  0
   -0.6464   -2.9085    0.0000 C   0  0  0  0  0  0  0  0  0  0  0  0
    3.6418    0.4101    0.0000 C   0  0  0  0  0  0  0  0  0  0  0  0
   -3.5424    0.4101    0.0000 C   0  0  0  0  0  0  0  0  0  0  0  0
    2.2124   -1.2429    0.0000 C   0  0  0  0  0  0  0  0  0  0  0  0
   -2.0881   -1.2429    0.0000 C   0  0  0  0  0  0  0  0  0  0  0  0
    3.6418    1.2305    0.0000 C   0  0  0  0  0  0  0  0  0  0  0  0
   -3.5300    1.2429    0.0000 C   0  0  0  0  0  0  0  0  0  0  0  0
    4.3627    0.0000    0.0000 C   0  0  0  0  0  0  0  0  0  0  0  0
   -4.2509    0.0000    0.0000 C   0  0  0  0  0  0  0  0  0  0  0  0
    0.7707   -3.7288    0.0000 C   0  0  0  0  0  0  0  0  0  0  0  0
    4.3627    1.6407    0.0000 C   0  0  0  0  0  0  0  0  0  0  0  0
   -4.2509    1.6531    0.0000 C   0  0  0  0  0  0  0  0  0  0  0  0
    5.0712    0.4101    0.0000 C   0  0  0  0  0  0  0  0  0  0  0  0
   -4.9717    0.4101    0.0000 C   0  0  0  0  0  0  0  0  0  0  0  0
    5.0837    1.2429    0.0000 C   0  0  0  0  0  0  0  0  0  0  0  0
   -4.9594    1.2305    0.0000 C   0  0  0  0  0  0  0  0  0  0  0  0
   -0.6464   -3.7288    0.0000 C   0  0  0  0  0  0  0  0  0  0  0  0
    0.0497   -4.1390    0.0000 C   0  0  0  0  0  0  0  0  0  0  0  0
    2.9333    1.6531    0.0000 C   0  0  0  0  0  0  0  0  0  0  0  0
   -2.8215    1.6531    0.0000 C   0  0  0  0  0  0  0  0  0  0  0  0
    4.3627   -0.8328    0.0000 C   0  0  0  0  0  0  0  0  0  0  0  0
   -4.2509   -0.8328    0.0000 C   0  0  0  0  0  0  0  0  0  0  0  0
    5.7921    1.6531    0.0000 C   0  0  0  0  0  0  0  0  0  0  0  0
   -5.6803    1.6531    0.0000 C   0  0  0  0  0  0  0  0  0  0  0  0
    5.0587    2.8961    0.0000 C   0  0  0  0  0  0  0  0  0  0  0  0
   -4.9594    2.8961    0.0000 C   0  0  0  0  0  0  0  0  0  0  0  0
    6.5130    0.4101    0.0000 C   0  0  0  0  0  0  0  0  0  0  0  0
   -6.5627    0.4101    0.0000 C   0  0  0  0  0  0  0  0  0  0  0  0
    5.0712    3.7164    0.0000 C   0  0  0  0  0  0  0  0  0  0  0  0
   -4.9842    3.7164    0.0000 C   0  0  0  0  0  0  0  0  0  0  0  0
    7.2090    0.0000    0.0000 C   0  0  0  0  0  0  0  0  0  0  0  0
   -7.2090   -0.0622    0.0000 C   0  0  0  0  0  0  0  0  0  0  0  0
    5.7921    4.1390    0.0000 C   0  0  0  0  0  0  0  0  0  0  0  0
    4.3627    4.1390    0.0000 C   0  0  0  0  0  0  0  0  0  0  0  0
   -4.2509    4.1390    0.0000 C   0  0  0  0  0  0  0  0  0  0  0  0
   -5.6803    4.1390    0.0000 C   0  0  0  0  0  0  0  0  0  0  0  0
  1  3  2  0  0  0  0
  1  4  2  0  0  0  0
  1  5  1  0  0  0  0
  1 20  1  0  0  0  0
  2 18  1  0  0  0  0
  2 19  1  0  0  0  0
  6 39  1  0  0  0  0
  6 53  1  0  0  0  0
  7 40  1  0  0  0  0
  7 54  1  0  0  0  0
  8 51  2  0  0  0  0
  9 52  2  0  0  0  0
 10 25  2  0  0  0  0
 10 28  1  0  0  0  0
 11 26  1  0  0  0  0
 11 29  1  0  0  0  0
 12 37  1  0  0  0  0
 12 51  1  0  0  0  0
 13 38  1  0  0  0  0
 13 52  1  0  0  0  0
 14 15  2  0  0  0  0
 14 16  1  0  0  0  0
 14 17  1  0  0  0  0
 15 18  1  0  0  0  0
 15 21  1  0  0  0  0
 16 19  2  0  0  0  0
 16 22  1  0  0  0  0
 17 20  1  0  0  0  0
 17 27  2  0  0  0  0
 18 23  2  0  0  0  0
 19 24  1  0  0  0  0
 20 36  2  0  0  0  0
 21 30  2  0  0  0  0
 22 31  2  0  0  0  0
 23 25  1  0  0  0  0
 24 26  2  0  0  0  0
 25 30  1  0  0  0  0
 26 31  1  0  0  0  0
 27 43  1  0  0  0  0
 28 32  1  0  0  0  0
 28 34  2  0  0  0  0
 29 33  2  0  0  0  0
 29 35  1  0  0  0  0
 32 37  2  0  0  0  0
 32 45  1  0  0  0  0
 33 38  1  0  0  0  0
 33 46  1  0  0  0  0
 34 39  1  0  0  0  0
 34 47  1  0  0  0  0
 35 40  2  0  0  0  0
 35 48  1  0  0  0  0
 36 44  1  0  0  0  0
 37 41  1  0  0  0  0
 38 42  2  0  0  0  0
 39 41  2  0  0  0  0
 40 42  1  0  0  0  0
 41 49  1  0  0  0  0
 42 50  1  0  0  0  0
 43 44  2  0  0  0  0
 51 55  1  0  0  0  0
 52 56  1  0  0  0  0
 53 57  1  0  0  0  0
 54 58  1  0  0  0  0
 55 59  1  0  0  0  0
 55 60  1  0  0  0  0
 56 61  1  0  0  0  0
 56 62  1  0  0  0  0
M  END
> <PUBCHEM_COMPOUND_ID_TYPE>
0

> <PUBCHEM_TOTAL_CHARGE>
0

> <PUBCHEM_SUBSTANCE_ID>
310948034

> <PUBCHEM_SUBSTANCE_VERSION>
1

> <PUBCHEM_EXT_DATASOURCE_NAME>
4488

> <PUBCHEM_EXT_DATASOURCE_REGID>
SCHEMBL16126209

> <PUBCHEM_SUBSTANCE_COMMENT>
InChI=1S/C49H56N4O8S/c1-13-59-46-29(9)42(27(7)44(31(46)11)52-48(54)25(3)4)50-33-19-21-35-38(23-33)61-39-24-34(20-22-36(39)41(35)37-17-15-16-18-40(37)62(56,57)58)51-43-28(8)45(53-49(55)26(5)6)32(12)47(30(43)10)60-14-2/h15-26,50H,13-14H2,1-12H3,(H,52,54)(H,53,55)(H,56,57,58)/b51-34-
InChIKey=MJBNDNOFXYVEOO-QIESTHSTSA-N

> <PUBCHEM_SUBSTANCE_SYNONYM>
SCHEMBL16126209

> <PUBCHEM_XREF_EXT_ID>
SCHEMBL16126209

> <PUBCHEM_EXT_DATASOURCE_URL>
https://www.surechembl.org/

> <PUBCHEM_EXT_SUBSTANCE_URL>
https://www.surechembl.org/chemical/SCHEMBL16126209

> <PUBCHEM_CID_ASSOCIATIONS>
117613669  1

> <PUBCHEM_COORDINATE_TYPE>
1
3

$$$$
