310939523
  -OEChem-07211613022D

 26 27  0     1  0  0  0  0  0999 V2000
    0.7104   11.9516    0.0000 O   0  0  0  0  0  0  0  0  0  0  0  0
   -0.0040   13.1891    0.0000 O   0  0  0  0  0  0  0  0  0  0  0  0
    0.4085    9.9996    0.0000 O   0  0  0  0  0  0  0  0  0  0  0  0
    0.7104   11.1266    0.0000 N   0  0  0  0  0  0  0  0  0  0  0  0
   -0.7185   11.9516    0.0000 C   0  0  3  0  0  0  0  0  0  0  0  0
   -0.7185   11.1266    0.0000 C   0  0  3  0  0  0  0  0  0  0  0  0
   -0.0040   12.3641    0.0000 C   0  0  0  0  0  0  0  0  0  0  0  0
   -0.0040   10.7141    0.0000 C   0  0  0  0  0  0  0  0  0  0  0  0
   -1.4330   12.3641    0.0000 C   0  0  0  0  0  0  0  0  0  0  0  0
   -1.4330   10.7141    0.0000 C   0  0  0  0  0  0  0  0  0  0  0  0
   -2.1475   11.9516    0.0000 C   0  0  0  0  0  0  0  0  0  0  0  0
   -2.1475   11.1266    0.0000 C   0  0  0  0  0  0  0  0  0  0  0  0
    1.4249   12.3641    0.0000 C   0  0  0  0  0  0  0  0  0  0  0  0
    2.1394   11.9516    0.0000 C   0  0  0  0  0  0  0  0  0  0  0  0
    1.4249   10.7141    0.0000 C   0  0  0  0  0  0  0  0  0  0  0  0
    2.1394   11.1266    0.0000 C   0  0  0  0  0  0  0  0  0  0  0  0
    2.8538   12.3641    0.0000 C   0  0  0  0  0  0  0  0  0  0  0  0
    2.8538   10.7141    0.0000 C   0  0  0  0  0  0  0  0  0  0  0  0
    3.5683   11.9516    0.0000 C   0  0  0  0  0  0  0  0  0  0  0  0
    3.5683   11.1266    0.0000 C   0  0  0  0  0  0  0  0  0  0  0  0
    2.1394   11.1266    0.0000 C   0  0  0  0  0  0  0  0  0  0  0  0
    2.8538   10.7141    0.0000 C   0  0  0  0  0  0  0  0  0  0  0  0
    3.5683   11.1266    0.0000 C   0  0  0  0  0  0  0  0  0  0  0  0
    4.2828   10.7141    0.0000 C   0  0  0  0  0  0  0  0  0  0  0  0
    4.9972   11.1266    0.0000 C   0  0  0  0  0  0  0  0  0  0  0  0
    5.7117   10.7141    0.0000 C   0  0  0  0  0  0  0  0  0  0  0  0
  1  7  1  0  0  0  0
  1 13  1  0  0  0  0
  2  7  2  0  0  0  0
  3  8  2  0  0  0  0
  4  8  1  0  0  0  0
  4 15  1  0  0  0  0
  5  6  1  0  0  0  0
  5  7  1  1  0  0  0
  5  9  1  0  0  0  0
  6  8  1  0  0  0  0
  6 10  1  0  0  0  0
  9 11  1  0  0  0  0
 10 12  1  0  0  0  0
 11 12  1  0  0  0  0
 13 14  1  0  0  0  0
 14 16  2  0  0  0  0
 14 17  1  0  0  0  0
 15 21  1  0  0  0  0
 16 18  1  0  0  0  0
 17 19  2  0  0  0  0
 18 20  2  0  0  0  0
 19 20  1  0  0  0  0
 21 22  1  0  0  0  0
 22 23  1  0  0  0  0
 23 24  1  0  0  0  0
 24 25  1  0  0  0  0
 25 26  1  0  0  0  0
M  END
> <PUBCHEM_COMPOUND_ID_TYPE>
0

> <PUBCHEM_TOTAL_CHARGE>
0

> <PUBCHEM_SUBSTANCE_ID>
310939523

> <PUBCHEM_SUBSTANCE_VERSION>
1

> <PUBCHEM_EXT_DATASOURCE_NAME>
4488

> <PUBCHEM_EXT_DATASOURCE_REGID>
SCHEMBL16117452

> <PUBCHEM_SUBSTANCE_COMMENT>
InChI=1S/C22H33NO3/c1-2-3-4-5-11-16-23-21(24)19-14-9-10-15-20(19)22(25)26-17-18-12-7-6-8-13-18/h6-8,12-13,19-20H,2-5,9-11,14-17H2,1H3,(H,23,24)/t19?,20-/m1/s1
InChIKey=CZKQXJSQKJXNHG-GFOWMXPYSA-N

> <PUBCHEM_SUBSTANCE_SYNONYM>
SCHEMBL16117452

> <PUBCHEM_XREF_EXT_ID>
SCHEMBL16117452

> <PUBCHEM_EXT_DATASOURCE_URL>
https://www.surechembl.org/

> <PUBCHEM_EXT_SUBSTANCE_URL>
https://www.surechembl.org/chemical/SCHEMBL16117452

> <PUBCHEM_CID_ASSOCIATIONS>
117606819  1

> <PUBCHEM_COORDINATE_TYPE>
1
3

> <PUBCHEM_BONDANNOTATIONS>
5  7  5

$$$$
