310948552
  -OEChem-07211613022D

 39 41  0     1  0  0  0  0  0999 V2000
    1.6631    3.1618    0.0000 S   0  0  0  0  0  0  0  0  0  0  0  0
   -1.1533    0.1639    0.0000 O   0  0  0  0  0  0  0  0  0  0  0  0
   -1.8866   -1.0811    0.0000 O   0  0  0  0  0  0  0  0  0  0  0  0
   -2.6029    1.8352    0.0000 O   0  0  0  0  0  0  0  0  0  0  0  0
    0.2794   -2.3261    0.0000 O   0  0  0  0  0  0  0  0  0  0  0  0
   -1.1533    1.8352    0.0000 O   0  0  0  0  0  0  0  0  0  0  0  0
    0.2794   -0.6548    0.0000 O   0  0  0  0  0  0  0  0  0  0  0  0
   -2.6029   -0.6548    0.0000 O   0  0  0  0  0  0  0  0  0  0  0  0
   -1.1533   -3.1618    0.0000 O   0  0  0  0  0  0  0  0  0  0  0  0
   -4.0355    0.1639    0.0000 O   0  0  0  0  0  0  0  0  0  0  0  0
   -2.6029   -3.1618    0.0000 O   0  0  0  0  0  0  0  0  0  0  0  0
   -4.7689    1.4260    0.0000 O   0  0  0  0  0  0  0  0  0  0  0  0
    0.2794   -2.3261    0.0000 O   0  0  0  0  0  0  0  0  0  0  0  0
    0.9957    1.4260    0.0000 O   0  0  0  0  0  0  0  0  0  0  0  0
    0.2794   -2.3261    0.0000 N   0  0  0  0  0  0  0  0  0  0  0  0
    3.1616    1.8352    0.0000 N   0  0  0  0  0  0  0  0  0  0  0  0
   -1.8866    0.5902    0.0000 C   0  0  3  0  0  0  0  0  0  0  0  0
   -1.1703   -0.6718    0.0000 C   0  0  3  0  0  0  0  0  0  0  0  0
   -0.4369   -1.0811    0.0000 C   0  0  3  0  0  0  0  0  0  0  0  0
   -0.4540   -1.9339    0.0000 C   0  0  3  0  0  0  0  0  0  0  0  0
   -2.6029    0.1809    0.0000 C   0  0  3  0  0  0  0  0  0  0  0  0
   -1.8695    1.4260    0.0000 C   0  0  3  0  0  0  0  0  0  0  0  0
   -1.1533   -2.3261    0.0000 C   0  0  3  0  0  0  0  0  0  0  0  0
   -1.8866   -1.9168    0.0000 C   0  0  3  0  0  0  0  0  0  0  0  0
   -3.3192    0.5902    0.0000 C   0  0  3  0  0  0  0  0  0  0  0  0
   -3.3021    1.4260    0.0000 C   0  0  3  0  0  0  0  0  0  0  0  0
   -2.6029   -2.3261    0.0000 C   0  0  0  0  0  0  0  0  0  0  0  0
   -4.0355    1.8523    0.0000 C   0  0  0  0  0  0  0  0  0  0  0  0
    0.2794   -2.3261    0.0000 C   0  0  0  0  0  0  0  0  0  0  0  0
   -0.4199    1.4260    0.0000 C   0  0  0  0  0  0  0  0  0  0  0  0
    0.2794    1.8352    0.0000 C   0  0  0  0  0  0  0  0  0  0  0  0
    3.5998    1.9455    0.0000 C   0  0  0  0  0  0  0  0  0  0  0  0
    3.8950    1.4260    0.0000 C   0  0  0  0  0  0  0  0  0  0  0  0
    3.8832    2.4533    0.0000 C   0  0  0  0  0  0  0  0  0  0  0  0
    2.4624    1.4260    0.0000 C   0  0  0  0  0  0  0  0  0  0  0  0
    1.7120    1.8352    0.0000 C   0  0  0  0  0  0  0  0  0  0  0  0
    4.4854    1.4260    0.0000 C   0  0  0  0  0  0  0  0  0  0  0  0
    4.4736    2.4533    0.0000 C   0  0  0  0  0  0  0  0  0  0  0  0
    4.7689    1.9455    0.0000 C   0  0  0  0  0  0  0  0  0  0  0  0
  1 32  1  0  0  0  0
 17  2  1  1  0  0  0
 18  2  1  6  0  0  0
  3 18  1  0  0  0  0
  3 24  1  0  0  0  0
  4 22  1  0  0  0  0
  4 26  1  0  0  0  0
 20  5  1  6  0  0  0
  5 29  1  0  0  0  0
  6 22  1  0  0  0  0
  6 30  1  0  0  0  0
 19  7  1  1  0  0  0
 21  8  1  1  0  0  0
 23  9  1  6  0  0  0
 25 10  1  6  0  0  0
 11 27  1  0  0  0  0
 12 28  1  0  0  0  0
 13 29  2  0  0  0  0
 14 31  1  0  0  0  0
 14 36  1  0  0  0  0
 15 29  1  0  0  0  0
 16 32  1  0  0  0  0
 16 35  1  0  0  0  0
 17 21  1  0  0  0  0
 17 22  1  0  0  0  0
 18 19  1  0  0  0  0
 19 20  1  0  0  0  0
 20 23  1  0  0  0  0
 21 25  1  0  0  0  0
 23 24  1  0  0  0  0
 24 27  1  1  0  0  0
 25 26  1  0  0  0  0
 26 28  1  6  0  0  0
 30 31  1  0  0  0  0
 32 33  1  0  0  0  0
 32 34  1  0  0  0  0
 33 37  1  0  0  0  0
 34 38  1  0  0  0  0
 35 36  1  0  0  0  0
 37 39  1  0  0  0  0
 38 39  1  0  0  0  0
M  END
> <PUBCHEM_COMPOUND_ID_TYPE>
0

> <PUBCHEM_TOTAL_CHARGE>
0

> <PUBCHEM_SUBSTANCE_ID>
310948552

> <PUBCHEM_SUBSTANCE_VERSION>
1

> <PUBCHEM_EXT_DATASOURCE_NAME>
4488

> <PUBCHEM_EXT_DATASOURCE_REGID>
SCHEMBL16126734

> <PUBCHEM_SUBSTANCE_COMMENT>
InChI=1S/C23H42N2O13S/c24-22(32)38-18-15(29)13(11-27)35-20(17(18)31)37-19-16(30)14(28)12(10-26)36-21(19)34-9-8-33-7-6-25-23(39)4-2-1-3-5-23/h12-21,25-31,39H,1-11H2,(H2,24,32)/t12-,13+,14+,15+,16-,17-,18+,19-,20+,21?/m0/s1
InChIKey=AHUAQQCFXDGYIE-ODQWNLOASA-N

> <PUBCHEM_SUBSTANCE_SYNONYM>
SCHEMBL16126734

> <PUBCHEM_XREF_EXT_ID>
SCHEMBL16126734

> <PUBCHEM_EXT_DATASOURCE_URL>
https://www.surechembl.org/

> <PUBCHEM_EXT_SUBSTANCE_URL>
https://www.surechembl.org/chemical/SCHEMBL16126734

> <PUBCHEM_CID_ASSOCIATIONS>
117614104  1

> <PUBCHEM_COORDINATE_TYPE>
1
3

> <PUBCHEM_BONDANNOTATIONS>
25  10  6
17  2  5
18  2  6
24  27  5
26  28  6
20  5  6
19  7  5
21  8  5
23  9  6

$$$$
