310948574
  -OEChem-07211613022D

 27 27  0     1  0  0  0  0  0999 V2000
   -0.0071    0.4480    0.0000 O   0  0  0  0  0  0  0  0  0  0  0  0
   -0.0071   -2.0980    0.0000 O   0  0  0  0  0  0  0  0  0  0  0  0
    1.4580   -1.2161    0.0000 O   0  0  0  0  0  0  0  0  0  0  0  0
   -1.4580   -1.2161    0.0000 O   0  0  0  0  0  0  0  0  0  0  0  0
    1.4580    0.4480    0.0000 O   0  0  0  0  0  0  0  0  0  0  0  0
   -1.4722    1.2872    0.0000 O   0  0  0  0  0  0  0  0  0  0  0  0
   -0.0071   -2.0980    0.0000 O   0  0  0  0  0  0  0  0  0  0  0  0
   -0.0071   -2.0980    0.0000 O   0  0  0  0  0  0  0  0  0  0  0  0
    0.8036   -2.4679    0.0000 O   0  0  0  0  0  0  0  0  0  0  0  0
   -2.1833   -0.0071    0.0000 O   0  0  0  0  0  0  0  0  0  0  0  0
    2.1691   -0.7894    0.0000 O   0  0  0  0  0  0  0  0  0  0  0  0
   -2.2118    2.4679    0.0000 O   0  0  0  0  0  0  0  0  0  0  0  0
    0.0071   -1.2161    0.0000 C   0  0  3  0  0  0  0  0  0  0  0  0
    0.7183   -0.8036    0.0000 C   0  0  3  0  0  0  0  0  0  0  0  0
   -0.7325   -0.7894    0.0000 C   0  0  3  0  0  0  0  0  0  0  0  0
    0.7325    0.0356    0.0000 C   0  0  3  0  0  0  0  0  0  0  0  0
   -0.7325    0.0356    0.0000 C   0  0  3  0  0  0  0  0  0  0  0  0
   -1.4722    0.4623    0.0000 C   0  0  0  0  0  0  0  0  0  0  0  0
   -0.0071   -2.0980    0.0000 C   0  0  0  0  0  0  0  0  0  0  0  0
    1.4722   -2.0838    0.0000 C   0  0  0  0  0  0  0  0  0  0  0  0
   -2.1976   -0.7894    0.0000 C   0  0  0  0  0  0  0  0  0  0  0  0
    2.1976   -0.0071    0.0000 C   0  0  0  0  0  0  0  0  0  0  0  0
   -2.2118    1.6997    0.0000 C   0  0  0  0  0  0  0  0  0  0  0  0
    2.1833   -2.4536    0.0000 C   0  0  0  0  0  0  0  0  0  0  0  0
   -2.8804   -1.2161    0.0000 C   0  0  0  0  0  0  0  0  0  0  0  0
    2.8946    0.4054    0.0000 C   0  0  0  0  0  0  0  0  0  0  0  0
   -2.8946    1.2872    0.0000 C   0  0  0  0  0  0  0  0  0  0  0  0
  1 16  1  0  0  0  0
  1 17  1  0  0  0  0
 13  2  1  1  0  0  0
  2 19  1  0  0  0  0
 14  3  1  1  0  0  0
  3 20  1  0  0  0  0
 15  4  1  6  0  0  0
  4 21  1  0  0  0  0
 16  5  1  6  0  0  0
  5 22  1  0  0  0  0
  6 18  1  0  0  0  0
  6 23  1  0  0  0  0
  7 19  2  0  0  0  0
  8 19  1  0  0  0  0
  9 20  2  0  0  0  0
 10 21  2  0  0  0  0
 11 22  2  0  0  0  0
 12 23  2  0  0  0  0
 13 14  1  0  0  0  0
 13 15  1  0  0  0  0
 14 16  1  0  0  0  0
 15 17  1  0  0  0  0
 17 18  1  1  0  0  0
 20 24  1  0  0  0  0
 21 25  1  0  0  0  0
 22 26  1  0  0  0  0
 23 27  1  0  0  0  0
M  END
> <PUBCHEM_COMPOUND_ID_TYPE>
0

> <PUBCHEM_TOTAL_CHARGE>
0

> <PUBCHEM_SUBSTANCE_ID>
310948574

> <PUBCHEM_SUBSTANCE_VERSION>
1

> <PUBCHEM_EXT_DATASOURCE_NAME>
4488

> <PUBCHEM_EXT_DATASOURCE_REGID>
SCHEMBL16126757

> <PUBCHEM_SUBSTANCE_COMMENT>
InChI=1S/C15H20O12/c1-6(16)22-5-10-11(23-7(2)17)12(27-15(20)21)13(24-8(3)18)14(26-10)25-9(4)19/h10-14H,5H2,1-4H3,(H,20,21)/t10-,11-,12+,13+,14+/m1/s1
InChIKey=CDGJPFOFRDOPIT-DGTMBMJNSA-N

> <PUBCHEM_SUBSTANCE_SYNONYM>
SCHEMBL16126757

> <PUBCHEM_XREF_EXT_ID>
SCHEMBL16126757

> <PUBCHEM_EXT_DATASOURCE_URL>
https://www.surechembl.org/

> <PUBCHEM_EXT_SUBSTANCE_URL>
https://www.surechembl.org/chemical/SCHEMBL16126757

> <PUBCHEM_CID_ASSOCIATIONS>
117614124  1

> <PUBCHEM_COORDINATE_TYPE>
1
3

> <PUBCHEM_BONDANNOTATIONS>
17  18  5
13  2  5
14  3  5
15  4  6
16  5  6

$$$$
