310948939
  -OEChem-07211613022D

 25 26  0     0  0  0  0  0  0999 V2000
    1.9193    1.2998    0.0000 Cl  0  0  0  0  0  0  0  0  0  0  0  0
   -3.3271   -1.5818    0.0000 S   0  0  0  0  0  0  0  0  0  0  0  0
    2.6342    0.0680    0.0000 O   0  0  0  0  0  0  0  0  0  0  0  0
    1.9082   -1.1749    0.0000 O   0  0  0  0  0  0  0  0  0  0  0  0
   -0.2365    3.3566    0.0000 O   0  0  0  0  0  0  0  0  0  0  0  0
    0.4784   -0.3500    0.0000 N   0  0  0  0  0  0  0  0  0  0  0  0
    0.4784    2.1247    0.0000 N   0  0  0  0  0  0  0  0  0  0  0  0
    1.1933    0.0680    0.0000 C   0  0  0  0  0  0  0  0  0  0  0  0
   -0.2475    0.0680    0.0000 C   0  0  0  0  0  0  0  0  0  0  0  0
    1.2044    0.8929    0.0000 C   0  0  0  0  0  0  0  0  0  0  0  0
    0.4784    1.2998    0.0000 C   0  0  0  0  0  0  0  0  0  0  0  0
   -0.9514   -0.3390    0.0000 C   0  0  0  0  0  0  0  0  0  0  0  0
   -0.2254    0.8929    0.0000 C   0  0  0  0  0  0  0  0  0  0  0  0
    1.9193   -0.3170    0.0000 C   0  0  0  0  0  0  0  0  0  0  0  0
   -1.6773    0.0570    0.0000 C   0  0  0  0  0  0  0  0  0  0  0  0
   -0.9624   -1.1639    0.0000 C   0  0  0  0  0  0  0  0  0  0  0  0
   -2.3922   -1.1639    0.0000 C   0  0  0  0  0  0  0  0  0  0  0  0
   -2.3702   -0.3390    0.0000 C   0  0  0  0  0  0  0  0  0  0  0  0
   -1.6773   -1.5708    0.0000 C   0  0  0  0  0  0  0  0  0  0  0  0
   -0.2475    2.5206    0.0000 C   0  0  0  0  0  0  0  0  0  0  0  0
   -1.6061   -3.3566    0.0000 C   0  0  0  0  0  0  0  0  0  0  0  0
    3.3271   -0.3830    0.0000 C   0  0  0  0  0  0  0  0  0  0  0  0
   -1.0283    2.3227    0.0000 C   0  0  0  0  0  0  0  0  0  0  0  0
   -1.6061   -3.3566    0.0000 C   0  0  0  0  0  0  0  0  0  0  0  0
   -1.6061   -3.3566    0.0000 C   0  0  0  0  0  0  0  0  0  0  0  0
  1 10  1  0  0  0  0
  2 17  1  0  0  0  0
  2 21  1  0  0  0  0
  3 14  1  0  0  0  0
  3 22  1  0  0  0  0
  4 14  2  0  0  0  0
  5 20  2  0  0  0  0
  6  8  1  0  0  0  0
  6  9  2  0  0  0  0
  7 11  1  0  0  0  0
  7 20  1  0  0  0  0
  8 10  2  0  0  0  0
  8 14  1  0  0  0  0
  9 12  1  0  0  0  0
  9 13  1  0  0  0  0
 10 11  1  0  0  0  0
 11 13  2  0  0  0  0
 12 15  2  0  0  0  0
 12 16  1  0  0  0  0
 15 18  1  0  0  0  0
 16 19  2  0  0  0  0
 17 18  2  0  0  0  0
 17 19  1  0  0  0  0
 20 23  1  0  0  0  0
 21 24  1  0  0  0  0
 21 25  1  0  0  0  0
M  END
> <PUBCHEM_COMPOUND_ID_TYPE>
0

> <PUBCHEM_TOTAL_CHARGE>
0

> <PUBCHEM_SUBSTANCE_ID>
310948939

> <PUBCHEM_SUBSTANCE_VERSION>
1

> <PUBCHEM_EXT_DATASOURCE_NAME>
4488

> <PUBCHEM_EXT_DATASOURCE_REGID>
SCHEMBL16127126

> <PUBCHEM_SUBSTANCE_COMMENT>
InChI=1S/C18H19ClN2O3S/c1-10(2)25-13-7-5-12(6-8-13)14-9-15(20-11(3)22)16(19)17(21-14)18(23)24-4/h5-10H,1-4H3,(H,20,21,22)
InChIKey=BTEGBEODLGCZKX-UHFFFAOYSA-N

> <PUBCHEM_SUBSTANCE_SYNONYM>
SCHEMBL16127126

> <PUBCHEM_XREF_EXT_ID>
SCHEMBL16127126

> <PUBCHEM_EXT_DATASOURCE_URL>
https://www.surechembl.org/

> <PUBCHEM_EXT_SUBSTANCE_URL>
https://www.surechembl.org/chemical/SCHEMBL16127126

> <PUBCHEM_CID_ASSOCIATIONS>
117614450  1

> <PUBCHEM_COORDINATE_TYPE>
1
3

$$$$
