310933770
  -OEChem-07211613022D

 26 29  0     0  0  0  0  0  0999 V2000
   -0.4067    1.5962    0.0000 Cl  0  0  0  0  0  0  0  0  0  0  0  0
    2.2136   -0.2549    0.0000 O   0  0  0  0  0  0  0  0  0  0  0  0
    0.8875   -1.4497    0.0000 O   0  0  0  0  0  0  0  0  0  0  0  0
    1.7496   -1.6565    0.0000 O   0  0  0  0  0  0  0  0  0  0  0  0
    1.2619   -2.8860    0.0000 O   0  0  0  0  0  0  0  0  0  0  0  0
    0.1713   -1.3195    0.0000 C   0  0  0  0  0  0  0  0  0  0  0  0
   -0.7145   -1.2375    0.0000 C   0  0  0  0  0  0  0  0  0  0  0  0
    1.4289    0.0000    0.0000 C   0  0  0  0  0  0  0  0  0  0  0  0
    1.4289    0.8250    0.0000 C   0  0  0  0  0  0  0  0  0  0  0  0
    0.7145   -0.4125    0.0000 C   0  0  0  0  0  0  0  0  0  0  0  0
    0.5960   -0.9238    0.0000 C   0  0  0  0  0  0  0  0  0  0  0  0
   -0.0980   -2.3913    0.0000 C   0  0  0  0  0  0  0  0  0  0  0  0
   -0.8266   -0.8484    0.0000 C   0  0  0  0  0  0  0  0  0  0  0  0
   -0.0598   -0.7607    0.0000 C   0  0  0  0  0  0  0  0  0  0  0  0
   -0.8072   -2.1100    0.0000 C   0  0  0  0  0  0  0  0  0  0  0  0
   -1.4741   -0.7606    0.0000 C   0  0  0  0  0  0  0  0  0  0  0  0
    2.6985    0.4125    0.0000 C   0  0  0  0  0  0  0  0  0  0  0  0
    0.8989   -2.0556    0.0000 C   0  0  0  0  0  0  0  0  0  0  0  0
    0.0198   -1.9180    0.0000 C   0  0  0  0  0  0  0  0  0  0  0  0
    2.2136    1.0799    0.0000 C   0  0  0  0  0  0  0  0  0  0  0  0
    0.7145    1.2375    0.0000 C   0  0  0  0  0  0  0  0  0  0  0  0
    0.0000    0.0000    0.0000 C   0  0  0  0  0  0  0  0  0  0  0  0
    0.0000    0.8250    0.0000 C   0  0  0  0  0  0  0  0  0  0  0  0
    3.5577    0.2943    0.0000 C   0  0  0  0  0  0  0  0  0  0  0  0
    3.4580    0.8831    0.0000 C   0  0  0  0  0  0  0  0  0  0  0  0
    2.4265   -2.1281    0.0000 C   0  0  0  0  0  0  0  0  0  0  0  0
  1 23  1  0  0  0  0
  2  8  1  0  0  0  0
  2 17  1  0  0  0  0
  3 10  1  0  0  0  0
  3 19  1  0  0  0  0
  4 18  1  0  0  0  0
  4 26  1  0  0  0  0
  5 18  2  0  0  0  0
  6 11  1  0  0  0  0
  6 12  1  0  0  0  0
  6 13  1  0  0  0  0
  6 18  1  0  0  0  0
  7 14  1  0  0  0  0
  7 15  1  0  0  0  0
  7 16  1  0  0  0  0
  7 19  1  0  0  0  0
  8  9  2  0  0  0  0
  8 10  1  0  0  0  0
  9 20  1  0  0  0  0
  9 21  1  0  0  0  0
 10 22  2  0  0  0  0
 11 14  1  0  0  0  0
 12 15  1  0  0  0  0
 13 16  1  0  0  0  0
 17 20  1  0  0  0  0
 17 24  1  0  0  0  0
 17 25  1  0  0  0  0
 21 23  2  0  0  0  0
 22 23  1  0  0  0  0
M  END
> <PUBCHEM_COMPOUND_ID_TYPE>
0

> <PUBCHEM_TOTAL_CHARGE>
0

> <PUBCHEM_SUBSTANCE_ID>
310933770

> <PUBCHEM_SUBSTANCE_VERSION>
1

> <PUBCHEM_EXT_DATASOURCE_NAME>
4488

> <PUBCHEM_EXT_DATASOURCE_REGID>
SCHEMBL16111206

> <PUBCHEM_SUBSTANCE_COMMENT>
InChI=1S/C21H27ClO4/c1-19(2)12-14-10-15(22)11-16(17(14)26-19)25-13-20-4-7-21(8-5-20,9-6-20)18(23)24-3/h10-11H,4-9,12-13H2,1-3H3
InChIKey=GCKYJORUAYGUEN-UHFFFAOYSA-N

> <PUBCHEM_SUBSTANCE_SYNONYM>
SCHEMBL16111206

> <PUBCHEM_XREF_EXT_ID>
SCHEMBL16111206

> <PUBCHEM_EXT_DATASOURCE_URL>
https://www.surechembl.org/

> <PUBCHEM_EXT_SUBSTANCE_URL>
https://www.surechembl.org/chemical/SCHEMBL16111206

> <PUBCHEM_CID_ASSOCIATIONS>
117602124  1

> <PUBCHEM_COORDINATE_TYPE>
1
3

$$$$
