310941358
  -OEChem-07211613022D

 15 15  0     1  0  0  0  0  0999 V2000
    0.5791    2.5611    0.0000 O   0  0  0  0  0  0  0  0  0  0  0  0
   -0.1400   -1.1718    0.0000 O   0  0  0  0  0  0  0  0  0  0  0  0
   -0.1400   -1.1718    0.0000 O   0  0  0  0  0  0  0  0  0  0  0  0
    1.2982    1.3219    0.0000 N   0  0  0  0  0  0  0  0  0  0  0  0
   -1.5781   -1.1718    0.0000 N   0  0  0  0  0  0  0  0  0  0  0  0
   -0.1400    0.4958    0.0000 C   0  0  0  0  0  0  0  0  0  0  0  0
   -0.8438   -0.7435    0.0000 C   0  0  3  0  0  0  0  0  0  0  0  0
   -0.8285    0.0827    0.0000 C   0  0  0  0  0  0  0  0  0  0  0  0
    0.5791    1.7350    0.0000 C   0  0  0  0  0  0  0  0  0  0  0  0
   -0.1247    1.3219    0.0000 C   0  0  0  0  0  0  0  0  0  0  0  0
   -0.1400   -1.1718    0.0000 C   0  0  0  0  0  0  0  0  0  0  0  0
    0.5943    0.0827    0.0000 C   0  0  0  0  0  0  0  0  0  0  0  0
    1.2982    0.4958    0.0000 C   0  0  0  0  0  0  0  0  0  0  0  0
   -0.1094    2.9437    0.0000 C   0  0  0  0  0  0  0  0  0  0  0  0
    1.5781   -2.9437    0.0000 C   0  0  0  0  0  0  0  0  0  0  0  0
  1  9  1  0  0  0  0
  1 14  1  0  0  0  0
  2 11  1  0  0  0  0
  2 15  1  0  0  0  0
  3 11  2  0  0  0  0
  4  9  2  0  0  0  0
  4 13  1  0  0  0  0
  7  5  1  1  0  0  0
  6  8  1  0  0  0  0
  6 10  2  0  0  0  0
  6 12  1  0  0  0  0
  7  8  1  0  0  0  0
  7 11  1  0  0  0  0
  9 10  1  0  0  0  0
 12 13  2  0  0  0  0
M  END
> <PUBCHEM_COMPOUND_ID_TYPE>
0

> <PUBCHEM_TOTAL_CHARGE>
0

> <PUBCHEM_SUBSTANCE_ID>
310941358

> <PUBCHEM_SUBSTANCE_VERSION>
1

> <PUBCHEM_EXT_DATASOURCE_NAME>
4488

> <PUBCHEM_EXT_DATASOURCE_REGID>
SCHEMBL16119318

> <PUBCHEM_SUBSTANCE_COMMENT>
InChI=1S/C10H14N2O3/c1-14-9-6-7(3-4-12-9)5-8(11)10(13)15-2/h3-4,6,8H,5,11H2,1-2H3/t8-/m0/s1
InChIKey=WROUJJYWYLILBR-QMMMGPOBSA-N

> <PUBCHEM_SUBSTANCE_SYNONYM>
SCHEMBL16119318

> <PUBCHEM_XREF_EXT_ID>
SCHEMBL16119318

> <PUBCHEM_EXT_DATASOURCE_URL>
https://www.surechembl.org/

> <PUBCHEM_EXT_SUBSTANCE_URL>
https://www.surechembl.org/chemical/SCHEMBL16119318

> <PUBCHEM_CID_ASSOCIATIONS>
117608201  1

> <PUBCHEM_COORDINATE_TYPE>
1
3

> <PUBCHEM_BONDANNOTATIONS>
7  5  5

$$$$
