310938956
  -OEChem-07211613022D

 39 41  0     1  0  0  0  0  0999 V2000
    2.1434    5.0142    0.0000 O   0  0  0  0  0  0  0  0  0  0  0  0
    1.4289    6.2517    0.0000 O   0  0  0  0  0  0  0  0  0  0  0  0
   -0.7145    7.4892    0.0000 O   0  0  0  0  0  0  0  0  0  0  0  0
   -1.4289    6.2517    0.0000 O   0  0  0  0  0  0  0  0  0  0  0  0
    0.7145    4.1892    0.0000 N   0  0  0  0  0  0  0  0  0  0  0  0
    0.0000    6.2517    0.0000 N   0  0  0  0  0  0  0  0  0  0  0  0
    0.7145    5.0142    0.0000 C   0  0  3  0  0  0  0  0  0  0  0  0
    1.4289    3.7767    0.0000 C   0  0  0  0  0  0  0  0  0  0  0  0
    0.0000    5.4267    0.0000 C   0  0  3  0  0  0  0  0  0  0  0  0
    1.4289    5.4267    0.0000 C   0  0  0  0  0  0  0  0  0  0  0  0
    1.4289    2.9517    0.0000 C   0  0  0  0  0  0  0  0  0  0  0  0
    2.1434    4.1892    0.0000 C   0  0  0  0  0  0  0  0  0  0  0  0
   -0.7145    5.0142    0.0000 C   0  0  0  0  0  0  0  0  0  0  0  0
    2.8579    5.4267    0.0000 C   0  0  0  0  0  0  0  0  0  0  0  0
    0.7145    2.5392    0.0000 C   0  0  0  0  0  0  0  0  0  0  0  0
    2.8579    3.7767    0.0000 C   0  0  0  0  0  0  0  0  0  0  0  0
    2.1434    2.5392    0.0000 C   0  0  0  0  0  0  0  0  0  0  0  0
    2.1434    5.0142    0.0000 C   0  0  0  0  0  0  0  0  0  0  0  0
   -0.7145    6.6642    0.0000 C   0  0  0  0  0  0  0  0  0  0  0  0
   -1.4289    5.4267    0.0000 C   0  0  0  0  0  0  0  0  0  0  0  0
    0.7145    1.7142    0.0000 C   0  0  0  0  0  0  0  0  0  0  0  0
    3.5724    4.1892    0.0000 C   0  0  0  0  0  0  0  0  0  0  0  0
    2.1434    1.7142    0.0000 C   0  0  0  0  0  0  0  0  0  0  0  0
    2.8579    5.4267    0.0000 C   0  0  0  0  0  0  0  0  0  0  0  0
   -2.1434    5.0142    0.0000 C   0  0  0  0  0  0  0  0  0  0  0  0
   -1.4289    7.9017    0.0000 C   0  0  0  0  0  0  0  0  0  0  0  0
    1.4289    1.3017    0.0000 C   0  0  0  0  0  0  0  0  0  0  0  0
    3.5724    5.0142    0.0000 C   0  0  0  0  0  0  0  0  0  0  0  0
    3.5724    5.0142    0.0000 C   0  0  0  0  0  0  0  0  0  0  0  0
    3.5724    5.8392    0.0000 C   0  0  0  0  0  0  0  0  0  0  0  0
    2.8579    6.2517    0.0000 C   0  0  0  0  0  0  0  0  0  0  0  0
   -2.8579    5.4267    0.0000 C   0  0  0  0  0  0  0  0  0  0  0  0
   -2.1434    4.1892    0.0000 C   0  0  0  0  0  0  0  0  0  0  0  0
   -1.4289    8.7267    0.0000 C   0  0  0  0  0  0  0  0  0  0  0  0
   -2.1434    8.3142    0.0000 C   0  0  0  0  0  0  0  0  0  0  0  0
   -2.1434    7.4892    0.0000 C   0  0  0  0  0  0  0  0  0  0  0  0
   -3.5724    5.0142    0.0000 C   0  0  0  0  0  0  0  0  0  0  0  0
   -2.8579    3.7767    0.0000 C   0  0  0  0  0  0  0  0  0  0  0  0
   -3.5724    4.1892    0.0000 C   0  0  0  0  0  0  0  0  0  0  0  0
  1 10  1  0  0  0  0
  1 14  1  0  0  0  0
  2 10  2  0  0  0  0
  3 19  1  0  0  0  0
  3 26  1  0  0  0  0
  4 19  2  0  0  0  0
  7  5  1  1  0  0  0
  5  8  2  0  0  0  0
  9  6  1  1  0  0  0
  6 19  1  0  0  0  0
  7  9  1  0  0  0  0
  7 10  1  0  0  0  0
  8 11  1  0  0  0  0
  8 12  1  0  0  0  0
  9 13  1  0  0  0  0
 11 15  2  0  0  0  0
 11 17  1  0  0  0  0
 12 16  2  0  0  0  0
 12 18  1  0  0  0  0
 13 20  2  0  0  0  0
 14 29  1  0  0  0  0
 14 30  1  0  0  0  0
 14 31  1  0  0  0  0
 15 21  1  0  0  0  0
 16 22  1  0  0  0  0
 17 23  2  0  0  0  0
 18 24  2  0  0  0  0
 20 25  1  0  0  0  0
 21 27  2  0  0  0  0
 22 28  2  0  0  0  0
 23 27  1  0  0  0  0
 24 28  1  0  0  0  0
 25 32  2  0  0  0  0
 25 33  1  0  0  0  0
 26 34  1  0  0  0  0
 26 35  1  0  0  0  0
 26 36  1  0  0  0  0
 32 37  1  0  0  0  0
 33 38  2  0  0  0  0
 37 39  2  0  0  0  0
 38 39  1  0  0  0  0
M  END
> <PUBCHEM_COMPOUND_ID_TYPE>
0

> <PUBCHEM_TOTAL_CHARGE>
0

> <PUBCHEM_SUBSTANCE_ID>
310938956

> <PUBCHEM_SUBSTANCE_VERSION>
1

> <PUBCHEM_EXT_DATASOURCE_NAME>
4488

> <PUBCHEM_EXT_DATASOURCE_REGID>
SCHEMBL16116875

> <PUBCHEM_SUBSTANCE_COMMENT>
InChI=1S/C33H38N2O4/c1-32(2,3)38-30(36)29(35-28(25-18-12-8-13-19-25)26-20-14-9-15-21-26)27(34-31(37)39-33(4,5)6)23-22-24-16-10-7-11-17-24/h7-23,27,29H,1-6H3,(H,34,37)/b23-22+/t27-,29+/m1/s1
InChIKey=ZXXRRAHDJJMUGF-PXTDOSJESA-N

> <PUBCHEM_SUBSTANCE_SYNONYM>
SCHEMBL16116875

> <PUBCHEM_XREF_EXT_ID>
SCHEMBL16116875

> <PUBCHEM_EXT_DATASOURCE_URL>
https://www.surechembl.org/

> <PUBCHEM_EXT_SUBSTANCE_URL>
https://www.surechembl.org/chemical/SCHEMBL16116875

> <PUBCHEM_CID_ASSOCIATIONS>
11341476  1

> <PUBCHEM_COORDINATE_TYPE>
1
3

> <PUBCHEM_BONDANNOTATIONS>
7  5  5
9  6  5

$$$$
