310946366
  -OEChem-07211613022D

 21 21  0     1  0  0  0  0  0999 V2000
    2.1834    9.7050    0.0000 I   0  0  0  0  0  0  0  0  0  0  0  0
    3.6123   12.1800    0.0000 I   0  0  0  0  0  0  0  0  0  0  0  0
    5.0413   12.1800    0.0000 O   0  0  0  0  0  0  0  0  0  0  0  0
    2.1834   11.3550    0.0000 O   0  0  0  0  0  0  0  0  0  0  0  0
    4.3268   10.9425    0.0000 O   0  0  0  0  0  0  0  0  0  0  0  0
    7.1847   10.1175    0.0000 O   0  0  0  0  0  0  0  0  0  0  0  0
    5.7557   10.9425    0.0000 N   0  0  0  0  0  0  0  0  0  0  0  0
    4.3268   10.1175    0.0000 C   0  0  0  0  0  0  0  0  0  0  0  0
    2.8979   10.9425    0.0000 C   0  0  0  0  0  0  0  0  0  0  0  0
    2.8979   10.1175    0.0000 C   0  0  0  0  0  0  0  0  0  0  0  0
    3.6123   11.3550    0.0000 C   0  0  0  0  0  0  0  0  0  0  0  0
    3.6123    9.7050    0.0000 C   0  0  0  0  0  0  0  0  0  0  0  0
    4.3268   10.9425    0.0000 C   0  0  0  0  0  0  0  0  0  0  0  0
    5.0413    9.7050    0.0000 C   0  0  0  0  0  0  0  0  0  0  0  0
    5.7557   10.1175    0.0000 C   0  0  3  0  0  0  0  0  0  0  0  0
    5.0413   11.3550    0.0000 C   0  0  0  0  0  0  0  0  0  0  0  0
    4.3268   12.5925    0.0000 C   0  0  0  0  0  0  0  0  0  0  0  0
    6.4702    9.7050    0.0000 C   0  0  0  0  0  0  0  0  0  0  0  0
    4.3268   13.4175    0.0000 C   0  0  0  0  0  0  0  0  0  0  0  0
    3.6123   13.0050    0.0000 C   0  0  0  0  0  0  0  0  0  0  0  0
    3.6123   12.1800    0.0000 C   0  0  0  0  0  0  0  0  0  0  0  0
  1 10  1  0  0  0  0
  2 11  1  0  0  0  0
  3 16  1  0  0  0  0
  3 17  1  0  0  0  0
  4  9  1  0  0  0  0
  5 16  2  0  0  0  0
  6 18  1  0  0  0  0
  7 15  1  0  0  0  0
  7 16  1  0  0  0  0
  8 12  2  0  0  0  0
  8 13  1  0  0  0  0
  8 14  1  0  0  0  0
  9 10  2  0  0  0  0
  9 11  1  0  0  0  0
 10 12  1  0  0  0  0
 11 13  2  0  0  0  0
 14 15  1  0  0  0  0
 15 18  1  0  0  0  0
 17 19  1  0  0  0  0
 17 20  1  0  0  0  0
 17 21  1  0  0  0  0
M  END
> <PUBCHEM_COMPOUND_ID_TYPE>
0

> <PUBCHEM_TOTAL_CHARGE>
0

> <PUBCHEM_SUBSTANCE_ID>
310946366

> <PUBCHEM_SUBSTANCE_VERSION>
1

> <PUBCHEM_EXT_DATASOURCE_NAME>
4488

> <PUBCHEM_EXT_DATASOURCE_REGID>
SCHEMBL16124485

> <PUBCHEM_SUBSTANCE_COMMENT>
InChI=1S/C14H19I2NO4/c1-14(2,3)21-13(20)17-9(7-18)4-8-5-10(15)12(19)11(16)6-8/h5-6,9,18-19H,4,7H2,1-3H3,(H,17,20)
InChIKey=OZXGCUFDWBSZBN-UHFFFAOYSA-N

> <PUBCHEM_SUBSTANCE_SYNONYM>
SCHEMBL16124485

> <PUBCHEM_XREF_EXT_ID>
SCHEMBL16124485

> <PUBCHEM_EXT_DATASOURCE_URL>
https://www.surechembl.org/

> <PUBCHEM_EXT_SUBSTANCE_URL>
https://www.surechembl.org/chemical/SCHEMBL16124485

> <PUBCHEM_CID_ASSOCIATIONS>
117612288  1

> <PUBCHEM_COORDINATE_TYPE>
1
3

$$$$
