310945696
  -OEChem-07211613022D

 22 23  0     1  0  0  0  0  0999 V2000
   -1.7609    1.8900    0.0000 S   0  0  0  0  0  0  0  0  0  0  0  0
   -1.9431    3.5065    0.0000 F   0  0  0  0  0  0  0  0  0  0  0  0
   -1.0778    2.8007    0.0000 F   0  0  0  0  0  0  0  0  0  0  0  0
   -2.6489    2.6185    0.0000 F   0  0  0  0  0  0  0  0  0  0  0  0
   -1.6926    1.1385    0.0000 O   0  0  0  0  0  0  0  0  0  0  0  0
    1.4040    0.9792    0.0000 O   0  0  0  0  0  0  0  0  0  0  0  0
   -0.9640    1.9583    0.0000 O   0  0  0  0  0  0  0  0  0  0  0  0
   -2.5806    1.7988    0.0000 O   0  0  0  0  0  0  0  0  0  0  0  0
    0.9486   -1.7530    0.0000 O   0  0  0  0  0  0  0  0  0  0  0  0
    0.9486   -1.7530    0.0000 O   0  0  0  0  0  0  0  0  0  0  0  0
   -1.8748    2.6868    0.0000 C   0  0  0  0  0  0  0  0  0  0  0  0
    0.5159   -0.0226    0.0000 C   0  0  0  0  0  0  0  0  0  0  0  0
   -0.8957    0.7970    0.0000 C   0  0  0  0  0  0  0  0  0  0  0  0
    0.5387    0.8198    0.0000 C   0  0  0  0  0  0  0  0  0  0  0  0
    1.3129   -0.2959    0.0000 C   0  0  3  0  0  0  0  0  0  0  0  0
   -0.1899    1.2069    0.0000 C   0  0  0  0  0  0  0  0  0  0  0  0
   -0.8957   -0.0226    0.0000 C   0  0  0  0  0  0  0  0  0  0  0  0
   -0.1671   -0.4325    0.0000 C   0  0  0  0  0  0  0  0  0  0  0  0
    1.7910    0.3872    0.0000 C   0  0  0  0  0  0  0  0  0  0  0  0
    1.5633   -1.0700    0.0000 C   0  0  0  0  0  0  0  0  0  0  0  0
    0.9486   -1.7530    0.0000 C   0  0  0  0  0  0  0  0  0  0  0  0
    2.6489   -3.5065    0.0000 C   0  0  0  0  0  0  0  0  0  0  0  0
  1  5  1  0  0  0  0
  1  7  2  0  0  0  0
  1  8  2  0  0  0  0
  1 11  1  0  0  0  0
  2 11  1  0  0  0  0
  3 11  1  0  0  0  0
  4 11  1  0  0  0  0
  5 13  1  0  0  0  0
  6 14  1  0  0  0  0
  6 19  1  0  0  0  0
  9 21  1  0  0  0  0
  9 22  1  0  0  0  0
 10 21  2  0  0  0  0
 12 14  1  0  0  0  0
 12 15  1  0  0  0  0
 12 18  2  0  0  0  0
 13 16  1  0  0  0  0
 13 17  2  0  0  0  0
 14 16  2  0  0  0  0
 15 19  1  0  0  0  0
 15 20  1  0  0  0  0
 17 18  1  0  0  0  0
 20 21  1  0  0  0  0
M  END
> <PUBCHEM_COMPOUND_ID_TYPE>
0

> <PUBCHEM_TOTAL_CHARGE>
0

> <PUBCHEM_SUBSTANCE_ID>
310945696

> <PUBCHEM_SUBSTANCE_VERSION>
1

> <PUBCHEM_EXT_DATASOURCE_NAME>
4488

> <PUBCHEM_EXT_DATASOURCE_REGID>
SCHEMBL16123797

> <PUBCHEM_SUBSTANCE_COMMENT>
InChI=1S/C12H11F3O6S/c1-19-11(16)4-7-6-20-10-5-8(2-3-9(7)10)21-22(17,18)12(13,14)15/h2-3,5,7H,4,6H2,1H3
InChIKey=RXACGVBIQVTHAV-UHFFFAOYSA-N

> <PUBCHEM_SUBSTANCE_SYNONYM>
SCHEMBL16123797

> <PUBCHEM_XREF_EXT_ID>
SCHEMBL16123797

> <PUBCHEM_EXT_DATASOURCE_URL>
https://www.surechembl.org/

> <PUBCHEM_EXT_SUBSTANCE_URL>
https://www.surechembl.org/chemical/SCHEMBL16123797

> <PUBCHEM_CID_ASSOCIATIONS>
117611693  1

> <PUBCHEM_COORDINATE_TYPE>
1
3

$$$$
