310941176
  -OEChem-07211613022D

 20 20  0     1  0  0  0  0  0999 V2000
    0.6563   -1.8363    0.0000 O   0  0  0  0  0  0  0  0  0  0  0  0
    0.1375    2.4831    0.0000 O   0  0  0  0  0  0  0  0  0  0  0  0
    0.7846    0.3960    0.0000 O   0  0  0  0  0  0  0  0  0  0  0  0
    0.1548   -2.6611    0.0000 O   0  0  0  0  0  0  0  0  0  0  0  0
   -1.3833   -0.0084    0.0000 N   0  0  0  0  0  0  0  0  0  0  0  0
   -0.6553    0.4122    0.0000 C   0  0  3  0  0  0  0  0  0  0  0  0
    0.0566   -0.0084    0.0000 C   0  0  0  0  0  0  0  0  0  0  0  0
   -0.5582    1.3829    0.0000 C   0  0  0  0  0  0  0  0  0  0  0  0
    0.0404    1.6580    0.0000 C   0  0  3  0  0  0  0  0  0  0  0  0
    0.1548   -2.1262    0.0000 C   0  0  0  0  0  0  0  0  0  0  0  0
    0.6675   -1.2791    0.0000 C   0  0  0  0  0  0  0  0  0  0  0  0
    0.0728   -0.8174    0.0000 C   0  0  0  0  0  0  0  0  0  0  0  0
    0.8332    1.3344    0.0000 C   0  0  0  0  0  0  0  0  0  0  0  0
    0.9788    2.6611    0.0000 C   0  0  0  0  0  0  0  0  0  0  0  0
    1.3833    1.9493    0.0000 C   0  0  0  0  0  0  0  0  0  0  0  0
    1.1690   -1.2568    0.0000 C   0  0  0  0  0  0  0  0  0  0  0  0
    0.1548   -1.2791    0.0000 C   0  0  0  0  0  0  0  0  0  0  0  0
    0.6563   -0.7330    0.0000 C   0  0  0  0  0  0  0  0  0  0  0  0
   -0.6715   -1.2705    0.0000 C   0  0  0  0  0  0  0  0  0  0  0  0
    0.8170   -1.2542    0.0000 C   0  0  0  0  0  0  0  0  0  0  0  0
  1 10  1  0  0  0  0
  1 11  1  0  0  0  0
  2  9  1  0  0  0  0
  2 14  1  0  0  0  0
  3  7  2  0  0  0  0
  4 10  2  0  0  0  0
  6  5  1  1  0  0  0
  5 10  1  0  0  0  0
  6  7  1  0  0  0  0
  6  8  1  0  0  0  0
  7 12  1  0  0  0  0
  8  9  1  0  0  0  0
  9 13  1  0  0  0  0
 11 16  1  0  0  0  0
 11 17  1  0  0  0  0
 11 18  1  0  0  0  0
 12 19  2  0  0  0  0
 12 20  1  0  0  0  0
 13 15  1  0  0  0  0
 14 15  1  0  0  0  0
M  END
> <PUBCHEM_COMPOUND_ID_TYPE>
0

> <PUBCHEM_TOTAL_CHARGE>
0

> <PUBCHEM_SUBSTANCE_ID>
310941176

> <PUBCHEM_SUBSTANCE_VERSION>
1

> <PUBCHEM_EXT_DATASOURCE_NAME>
4488

> <PUBCHEM_EXT_DATASOURCE_REGID>
SCHEMBL16119136

> <PUBCHEM_SUBSTANCE_COMMENT>
InChI=1S/C15H25NO4/c1-10(2)13(17)12(9-11-7-6-8-19-11)16-14(18)20-15(3,4)5/h11-12H,1,6-9H2,2-5H3,(H,16,18)/t11?,12-/m0/s1
InChIKey=SPQXTRNDNYKCCE-KIYNQFGBSA-N

> <PUBCHEM_SUBSTANCE_SYNONYM>
SCHEMBL16119136

> <PUBCHEM_XREF_EXT_ID>
SCHEMBL16119136

> <PUBCHEM_EXT_DATASOURCE_URL>
https://www.surechembl.org/

> <PUBCHEM_EXT_SUBSTANCE_URL>
https://www.surechembl.org/chemical/SCHEMBL16119136

> <PUBCHEM_CID_ASSOCIATIONS>
117608050  1

> <PUBCHEM_COORDINATE_TYPE>
1
3

> <PUBCHEM_BONDANNOTATIONS>
6  5  5
8  9  3

$$$$
