310940471
  -OEChem-07211613022D

  8  7  0     0  0  0  0  0  0999 V2000
    0.3916   -0.1407    0.0000 S   0  0  0  0  0  0  0  0  0  0  0  0
   -0.3182   -0.5323    0.0000 O   0  0  0  0  0  0  0  0  0  0  0  0
    0.8322    0.5568    0.0000 O   0  0  0  0  0  0  0  0  0  0  0  0
   -0.1591    0.4467    0.0000 O   0  0  0  0  0  0  0  0  0  0  0  0
    1.1136   -0.5568    0.0000 N   0  0  0  0  0  0  0  0  0  0  0  0
    1.1136   -0.5568    0.0000 N   0  0  0  0  0  0  0  0  0  0  0  0
    1.1136   -0.5568    0.0000 N   0  0  0  0  0  0  0  0  0  0  0  0
   -1.1136   -0.1530    0.0000 C   0  0  0  0  0  0  0  0  0  0  0  0
  1  2  1  0  0  0  0
  1  3  2  0  0  0  0
  1  4  2  0  0  0  0
  1  5  1  0  0  0  0
  2  8  1  0  0  0  0
  5  6  2  3  0  0  0
  6  7  1  0  0  0  0
M  END
> <PUBCHEM_COMPOUND_ID_TYPE>
0

> <PUBCHEM_TOTAL_CHARGE>
0

> <PUBCHEM_SUBSTANCE_ID>
310940471

> <PUBCHEM_SUBSTANCE_VERSION>
1

> <PUBCHEM_EXT_DATASOURCE_NAME>
4488

> <PUBCHEM_EXT_DATASOURCE_REGID>
SCHEMBL16118424

> <PUBCHEM_SUBSTANCE_COMMENT>
InChI=1S/CH5N3O3S/c1-7-8(5,6)4-3-2/h1H3,(H2,2,4)
InChIKey=DXRXACKSJYGGBJ-UHFFFAOYSA-N

> <PUBCHEM_SUBSTANCE_SYNONYM>
SCHEMBL16118424

> <PUBCHEM_XREF_EXT_ID>
SCHEMBL16118424

> <PUBCHEM_EXT_DATASOURCE_URL>
https://www.surechembl.org/

> <PUBCHEM_EXT_SUBSTANCE_URL>
https://www.surechembl.org/chemical/SCHEMBL16118424

> <PUBCHEM_CID_ASSOCIATIONS>
117607489  1

> <PUBCHEM_COORDINATE_TYPE>
1
3

$$$$
