310949837
  -OEChem-07211613022D

 30 32  0     0  0  0  0  0  0999 V2000
   -2.9367    0.4080    0.0000 O   0  0  0  0  0  0  0  0  0  0  0  0
    2.7759    0.4080    0.0000 O   0  0  0  0  0  0  0  0  0  0  0  0
    3.4931    2.4730    0.0000 O   0  0  0  0  0  0  0  0  0  0  0  0
   -2.2196    2.4730    0.0000 O   0  0  0  0  0  0  0  0  0  0  0  0
    4.3463    1.2365    0.0000 O   0  0  0  0  0  0  0  0  0  0  0  0
   -1.4900    0.4204    0.0000 N   0  0  0  0  0  0  0  0  0  0  0  0
   -3.6291   -0.8161    0.0000 N   0  0  0  0  0  0  0  0  0  0  0  0
    2.0711    1.6569    0.0000 N   0  0  0  0  0  0  0  0  0  0  0  0
    4.3463    1.2365    0.0000 N   0  0  0  0  0  0  0  0  0  0  0  0
   -2.2071   -0.8285    0.0000 C   0  0  0  0  0  0  0  0  0  0  0  0
   -2.9119   -1.2365    0.0000 C   0  0  0  0  0  0  0  0  0  0  0  0
   -2.1948    0.0000    0.0000 C   0  0  0  0  0  0  0  0  0  0  0  0
   -2.9367   -2.0526    0.0000 C   0  0  0  0  0  0  0  0  0  0  0  0
   -1.4900   -1.2365    0.0000 C   0  0  0  0  0  0  0  0  0  0  0  0
   -2.2071   -2.4606    0.0000 C   0  0  0  0  0  0  0  0  0  0  0  0
   -0.7728    0.0000    0.0000 C   0  0  0  0  0  0  0  0  0  0  0  0
   -0.0804    0.4204    0.0000 C   0  0  0  0  0  0  0  0  0  0  0  0
   -3.6291   -2.4730    0.0000 C   0  0  0  0  0  0  0  0  0  0  0  0
   -1.4900   -2.0526    0.0000 C   0  0  0  0  0  0  0  0  0  0  0  0
   -1.4900    1.2365    0.0000 C   0  0  0  0  0  0  0  0  0  0  0  0
   -4.3339   -1.2241    0.0000 C   0  0  0  0  0  0  0  0  0  0  0  0
    1.3664    1.2489    0.0000 C   0  0  0  0  0  0  0  0  0  0  0  0
   -4.3463   -2.0526    0.0000 C   0  0  0  0  0  0  0  0  0  0  0  0
   -0.0556    1.2365    0.0000 C   0  0  0  0  0  0  0  0  0  0  0  0
    0.6492    0.0124    0.0000 C   0  0  0  0  0  0  0  0  0  0  0  0
    0.6615    1.6445    0.0000 C   0  0  0  0  0  0  0  0  0  0  0  0
    1.3664    0.4204    0.0000 C   0  0  0  0  0  0  0  0  0  0  0  0
    2.7883    1.2612    0.0000 C   0  0  0  0  0  0  0  0  0  0  0  0
   -2.1948    1.6445    0.0000 C   0  0  0  0  0  0  0  0  0  0  0  0
    3.4931    1.6445    0.0000 C   0  0  0  0  0  0  0  0  0  0  0  0
  1 12  2  0  0  0  0
  2 28  2  0  0  0  0
  3 30  2  0  0  0  0
  4 29  1  0  0  0  0
  5  9  1  0  0  0  0
  6 12  1  0  0  0  0
  6 16  1  0  0  0  0
  6 20  1  0  0  0  0
  7 11  1  0  0  0  0
  7 21  2  0  0  0  0
  8 22  1  0  0  0  0
  8 28  1  0  0  0  0
  9 30  1  0  0  0  0
 10 11  2  0  0  0  0
 10 12  1  0  0  0  0
 10 14  1  0  0  0  0
 11 13  1  0  0  0  0
 13 15  2  0  0  0  0
 13 18  1  0  0  0  0
 14 19  2  0  0  0  0
 15 19  1  0  0  0  0
 16 17  1  0  0  0  0
 17 24  2  0  0  0  0
 17 25  1  0  0  0  0
 18 23  2  0  0  0  0
 20 29  1  0  0  0  0
 21 23  1  0  0  0  0
 22 26  2  0  0  0  0
 22 27  1  0  0  0  0
 24 26  1  0  0  0  0
 25 27  2  0  0  0  0
 28 30  1  0  0  0  0
M  END
> <PUBCHEM_COMPOUND_ID_TYPE>
0

> <PUBCHEM_TOTAL_CHARGE>
0

> <PUBCHEM_SUBSTANCE_ID>
310949837

> <PUBCHEM_SUBSTANCE_VERSION>
1

> <PUBCHEM_EXT_DATASOURCE_NAME>
4488

> <PUBCHEM_EXT_DATASOURCE_REGID>
SCHEMBL16128039

> <PUBCHEM_SUBSTANCE_COMMENT>
InChI=1S/C21H20N4O5/c26-12-11-25(21(29)17-5-1-3-15-4-2-10-22-18(15)17)13-14-6-8-16(9-7-14)23-19(27)20(28)24-30/h1-10,26,30H,11-13H2,(H,23,27)(H,24,28)
InChIKey=BCIPHUGCOLKHER-UHFFFAOYSA-N

> <PUBCHEM_SUBSTANCE_SYNONYM>
SCHEMBL16128039

> <PUBCHEM_XREF_EXT_ID>
SCHEMBL16128039

> <PUBCHEM_EXT_DATASOURCE_URL>
https://www.surechembl.org/

> <PUBCHEM_EXT_SUBSTANCE_URL>
https://www.surechembl.org/chemical/SCHEMBL16128039

> <PUBCHEM_CID_ASSOCIATIONS>
71523506  1

> <PUBCHEM_COORDINATE_TYPE>
1
3

$$$$
