310943547
  -OEChem-07211613022D

 35 39  0     0  0  0  0  0  0999 V2000
    3.0467   -1.5989    0.0000 S   0  0  0  0  0  0  0  0  0  0  0  0
   -4.7685    2.9516    0.0000 O   0  0  0  0  0  0  0  0  0  0  0  0
    0.9152    0.4649    0.0000 O   0  0  0  0  0  0  0  0  0  0  0  0
    3.0467   -1.5989    0.0000 O   0  0  0  0  0  0  0  0  0  0  0  0
    3.0467   -1.5989    0.0000 O   0  0  0  0  0  0  0  0  0  0  0  0
   -2.6371    0.8877    0.0000 N   0  0  0  0  0  0  0  0  0  0  0  0
   -1.2161    0.8877    0.0000 N   0  0  0  0  0  0  0  0  0  0  0  0
   -3.3475    2.1227    0.0000 N   0  0  0  0  0  0  0  0  0  0  0  0
   -3.2460    0.3296    0.0000 N   0  0  0  0  0  0  0  0  0  0  0  0
    0.2048    3.3744    0.0000 N   0  0  0  0  0  0  0  0  0  0  0  0
    1.6257    1.7167    0.0000 N   0  0  0  0  0  0  0  0  0  0  0  0
    3.7740   -0.3471    0.0000 N   0  0  0  0  0  0  0  0  0  0  0  0
   -2.6371    1.7167    0.0000 C   0  0  0  0  0  0  0  0  0  0  0  0
   -1.2161    1.7336    0.0000 C   0  0  0  0  0  0  0  0  0  0  0  0
   -1.9265    0.4818    0.0000 C   0  0  0  0  0  0  0  0  0  0  0  0
   -0.5226    2.1395    0.0000 C   0  0  0  0  0  0  0  0  0  0  0  0
   -1.9435    2.1227    0.0000 C   0  0  0  0  0  0  0  0  0  0  0  0
   -0.5057    2.9685    0.0000 C   0  0  0  0  0  0  0  0  0  0  0  0
   -2.1127   -0.3471    0.0000 C   0  0  0  0  0  0  0  0  0  0  0  0
    0.2217    1.7167    0.0000 C   0  0  0  0  0  0  0  0  0  0  0  0
    0.8983    2.1395    0.0000 C   0  0  0  0  0  0  0  0  0  0  0  0
   -2.9247   -0.4147    0.0000 C   0  0  0  0  0  0  0  0  0  0  0  0
   -3.3644    2.9685    0.0000 C   0  0  0  0  0  0  0  0  0  0  0  0
   -4.0750    1.7167    0.0000 C   0  0  0  0  0  0  0  0  0  0  0  0
    2.3361    0.4818    0.0000 C   0  0  0  0  0  0  0  0  0  0  0  0
    0.9321    2.9516    0.0000 C   0  0  0  0  0  0  0  0  0  0  0  0
    1.6426    0.9216    0.0000 C   0  0  0  0  0  0  0  0  0  0  0  0
    3.0636   -0.7530    0.0000 C   0  0  0  0  0  0  0  0  0  0  0  0
    2.3361   -0.3471    0.0000 C   0  0  0  0  0  0  0  0  0  0  0  0
   -1.2330    3.3744    0.0000 C   0  0  0  0  0  0  0  0  0  0  0  0
    3.0297    0.8877    0.0000 C   0  0  0  0  0  0  0  0  0  0  0  0
   -4.0580    3.3744    0.0000 C   0  0  0  0  0  0  0  0  0  0  0  0
   -4.7685    2.1227    0.0000 C   0  0  0  0  0  0  0  0  0  0  0  0
    3.7571    0.4818    0.0000 C   0  0  0  0  0  0  0  0  0  0  0  0
    4.7685   -3.3744    0.0000 C   0  0  0  0  0  0  0  0  0  0  0  0
  1  4  2  0  0  0  0
  1  5  2  0  0  0  0
  1 28  1  0  0  0  0
  1 35  1  0  0  0  0
  2 32  1  0  0  0  0
  2 33  1  0  0  0  0
  3 27  2  0  0  0  0
  6  9  1  0  0  0  0
  6 13  1  0  0  0  0
  6 15  1  0  0  0  0
  7 14  2  0  0  0  0
  7 15  1  0  0  0  0
  8 13  1  0  0  0  0
  8 23  1  0  0  0  0
  8 24  1  0  0  0  0
  9 22  2  0  0  0  0
 10 18  2  0  0  0  0
 10 26  1  0  0  0  0
 11 21  1  0  0  0  0
 11 27  1  0  0  0  0
 12 28  2  0  0  0  0
 12 34  1  0  0  0  0
 13 17  2  0  0  0  0
 14 16  1  0  0  0  0
 14 17  1  0  0  0  0
 15 19  2  0  0  0  0
 16 18  1  0  0  0  0
 16 20  2  0  0  0  0
 18 30  1  0  0  0  0
 19 22  1  0  0  0  0
 20 21  1  0  0  0  0
 21 26  2  0  0  0  0
 23 32  1  0  0  0  0
 24 33  1  0  0  0  0
 25 27  1  0  0  0  0
 25 29  2  0  0  0  0
 25 31  1  0  0  0  0
 28 29  1  0  0  0  0
 31 34  2  0  0  0  0
M  END
> <PUBCHEM_COMPOUND_ID_TYPE>
0

> <PUBCHEM_TOTAL_CHARGE>
0

> <PUBCHEM_SUBSTANCE_ID>
310943547

> <PUBCHEM_SUBSTANCE_VERSION>
1

> <PUBCHEM_EXT_DATASOURCE_NAME>
4488

> <PUBCHEM_EXT_DATASOURCE_REGID>
SCHEMBL16121614

> <PUBCHEM_SUBSTANCE_COMMENT>
InChI=1S/C23H23N7O4S/c1-15-18(19-13-22(29-7-9-34-10-8-29)30-20(28-19)4-6-26-30)12-17(14-25-15)27-23(31)16-3-5-24-21(11-16)35(2,32)33/h3-6,11-14H,7-10H2,1-2H3,(H,27,31)
InChIKey=KTRIZHDRBCDKNT-UHFFFAOYSA-N

> <PUBCHEM_SUBSTANCE_SYNONYM>
SCHEMBL16121614

> <PUBCHEM_XREF_EXT_ID>
SCHEMBL16121614

> <PUBCHEM_EXT_DATASOURCE_URL>
https://www.surechembl.org/

> <PUBCHEM_EXT_SUBSTANCE_URL>
https://www.surechembl.org/chemical/SCHEMBL16121614

> <PUBCHEM_CID_ASSOCIATIONS>
117609958  1

> <PUBCHEM_COORDINATE_TYPE>
1
3

$$$$
