310939543
  -OEChem-07211613022D

233252  0     1  0  0  0  0  0999 V2000
    3.7641  -11.8408    0.0000 S   0  0  0  0  0  0  0  0  0  0  0  0
    3.7641  -11.8408    0.0000 S   0  0  0  0  0  0  0  0  0  0  0  0
    3.7641  -11.8408    0.0000 S   0  0  0  0  0  0  0  0  0  0  0  0
    3.7641  -11.8408    0.0000 S   0  0  0  0  0  0  0  0  0  0  0  0
   -3.3806   -9.5868    0.0000 O   0  0  0  0  0  0  0  0  0  0  0  0
   -3.3806   -9.5868    0.0000 O   0  0  0  0  0  0  0  0  0  0  0  0
   -3.3806   -9.5868    0.0000 O   0  0  0  0  0  0  0  0  0  0  0  0
   -3.3806   -9.5868    0.0000 O   0  0  0  0  0  0  0  0  0  0  0  0
   -7.6185  -11.2368    0.0000 O   0  0  0  0  0  0  0  0  0  0  0  0
   -7.6185  -11.2368    0.0000 O   0  0  0  0  0  0  0  0  0  0  0  0
   -7.6185  -11.2368    0.0000 O   0  0  0  0  0  0  0  0  0  0  0  0
   -7.6185  -11.2368    0.0000 O   0  0  0  0  0  0  0  0  0  0  0  0
   -2.1431  -10.3013    0.0000 O   0  0  0  0  0  0  0  0  0  0  0  0
   -2.1431  -10.3013    0.0000 O   0  0  0  0  0  0  0  0  0  0  0  0
   -2.1431  -10.3013    0.0000 O   0  0  0  0  0  0  0  0  0  0  0  0
   -2.1431  -10.3013    0.0000 O   0  0  0  0  0  0  0  0  0  0  0  0
   -2.8491   -7.3799    0.0000 O   0  0  0  0  0  0  0  0  0  0  0  0
   -2.8491   -7.3799    0.0000 O   0  0  0  0  0  0  0  0  0  0  0  0
   -2.8491   -7.3799    0.0000 O   0  0  0  0  0  0  0  0  0  0  0  0
   -2.8491   -7.3799    0.0000 O   0  0  0  0  0  0  0  0  0  0  0  0
   -1.5391  -10.3013    0.0000 O   0  0  0  0  0  0  0  0  0  0  0  0
   -1.5391  -10.3013    0.0000 O   0  0  0  0  0  0  0  0  0  0  0  0
   -1.5391  -10.3013    0.0000 O   0  0  0  0  0  0  0  0  0  0  0  0
   -1.5391  -10.3013    0.0000 O   0  0  0  0  0  0  0  0  0  0  0  0
   -6.1896  -12.0618    0.0000 O   0  0  0  0  0  0  0  0  0  0  0  0
   -6.9041  -13.2993    0.0000 O   0  0  0  0  0  0  0  0  0  0  0  0
   -6.1896  -12.0618    0.0000 O   0  0  0  0  0  0  0  0  0  0  0  0
   -6.9041  -13.2993    0.0000 O   0  0  0  0  0  0  0  0  0  0  0  0
   -6.1896  -12.0618    0.0000 O   0  0  0  0  0  0  0  0  0  0  0  0
   -6.9041  -13.2993    0.0000 O   0  0  0  0  0  0  0  0  0  0  0  0
   -6.1896  -12.0618    0.0000 O   0  0  0  0  0  0  0  0  0  0  0  0
   -6.9041  -13.2993    0.0000 O   0  0  0  0  0  0  0  0  0  0  0  0
    8.3041  -12.1427    0.0000 O   0  0  0  0  0  0  0  0  0  0  0  0
    5.6757  -12.3977    0.0000 O   0  0  0  0  0  0  0  0  0  0  0  0
    8.3041  -12.1427    0.0000 O   0  0  0  0  0  0  0  0  0  0  0  0
    5.6757  -12.3977    0.0000 O   0  0  0  0  0  0  0  0  0  0  0  0
    5.6757   -9.6339    0.0000 O   0  0  0  0  0  0  0  0  0  0  0  0
    8.3041  -12.1427    0.0000 O   0  0  0  0  0  0  0  0  0  0  0  0
    5.6757   -9.6339    0.0000 O   0  0  0  0  0  0  0  0  0  0  0  0
    5.6757  -12.3977    0.0000 O   0  0  0  0  0  0  0  0  0  0  0  0
    5.6757   -9.6339    0.0000 O   0  0  0  0  0  0  0  0  0  0  0  0
    5.6757  -12.3977    0.0000 O   0  0  0  0  0  0  0  0  0  0  0  0
    8.3041  -12.1427    0.0000 O   0  0  0  0  0  0  0  0  0  0  0  0
    5.6757   -9.6339    0.0000 O   0  0  0  0  0  0  0  0  0  0  0  0
   -1.2372  -11.4283    0.0000 N   0  0  0  0  0  0  0  0  0  0  0  0
   -1.2372  -11.4283    0.0000 N   0  0  0  0  0  0  0  0  0  0  0  0
   -1.2372  -11.4283    0.0000 N   0  0  0  0  0  0  0  0  0  0  0  0
   -1.2372  -11.4283    0.0000 N   0  0  0  0  0  0  0  0  0  0  0  0
    8.6060  -11.0158    0.0000 N   0  0  0  0  0  0  0  0  0  0  0  0
    8.6060  -11.0158    0.0000 N   0  0  0  0  0  0  0  0  0  0  0  0
    8.6060  -11.0158    0.0000 N   0  0  0  0  0  0  0  0  0  0  0  0
    5.7481  -11.0158    0.0000 N   0  0  0  0  0  0  0  0  0  0  0  0
    5.7481  -11.0158    0.0000 N   0  0  0  0  0  0  0  0  0  0  0  0
    5.7481  -11.0158    0.0000 N   0  0  0  0  0  0  0  0  0  0  0  0
    8.6060  -11.0158    0.0000 N   0  0  0  0  0  0  0  0  0  0  0  0
    5.7481  -11.0158    0.0000 N   0  0  0  0  0  0  0  0  0  0  0  0
   -5.4751   -9.1743    0.0000 C   0  0  3  0  0  0  0  0  0  0  0  0
   -5.4751   -9.1743    0.0000 C   0  0  3  0  0  0  0  0  0  0  0  0
   -5.4751   -9.1743    0.0000 C   0  0  3  0  0  0  0  0  0  0  0  0
   -5.4751   -9.1743    0.0000 C   0  0  3  0  0  0  0  0  0  0  0  0
   -5.4751   -9.9993    0.0000 C   0  0  3  0  0  0  0  0  0  0  0  0
   -5.4751   -9.9993    0.0000 C   0  0  3  0  0  0  0  0  0  0  0  0
   -5.4751   -9.9993    0.0000 C   0  0  3  0  0  0  0  0  0  0  0  0
   -5.4751   -9.9993    0.0000 C   0  0  3  0  0  0  0  0  0  0  0  0
   -4.6905   -8.9194    0.0000 C   0  0  3  0  0  0  0  0  0  0  0  0
   -4.6905   -8.9194    0.0000 C   0  0  3  0  0  0  0  0  0  0  0  0
   -4.6905   -8.9194    0.0000 C   0  0  3  0  0  0  0  0  0  0  0  0
   -4.6905   -8.9194    0.0000 C   0  0  3  0  0  0  0  0  0  0  0  0
   -4.2056   -9.5868    0.0000 C   0  0  3  0  0  0  0  0  0  0  0  0
   -4.2056   -9.5868    0.0000 C   0  0  3  0  0  0  0  0  0  0  0  0
   -4.2056   -9.5868    0.0000 C   0  0  3  0  0  0  0  0  0  0  0  0
   -4.2056   -9.5868    0.0000 C   0  0  3  0  0  0  0  0  0  0  0  0
   -6.9041   -9.9993    0.0000 C   0  0  0  0  0  0  0  0  0  0  0  0
   -6.9041   -9.9993    0.0000 C   0  0  0  0  0  0  0  0  0  0  0  0
   -6.9041   -9.9993    0.0000 C   0  0  0  0  0  0  0  0  0  0  0  0
   -6.9041   -9.9993    0.0000 C   0  0  0  0  0  0  0  0  0  0  0  0
   -6.9041   -9.1743    0.0000 C   0  0  0  0  0  0  0  0  0  0  0  0
   -6.9041   -9.1743    0.0000 C   0  0  0  0  0  0  0  0  0  0  0  0
   -6.9041   -9.1743    0.0000 C   0  0  0  0  0  0  0  0  0  0  0  0
   -6.9041   -9.1743    0.0000 C   0  0  0  0  0  0  0  0  0  0  0  0
   -6.1896   -8.7618    0.0000 C   0  0  0  0  0  0  0  0  0  0  0  0
   -6.1896   -8.7618    0.0000 C   0  0  0  0  0  0  0  0  0  0  0  0
   -6.1896   -8.7618    0.0000 C   0  0  0  0  0  0  0  0  0  0  0  0
   -6.1896   -8.7618    0.0000 C   0  0  0  0  0  0  0  0  0  0  0  0
   -4.6905  -10.2543    0.0000 C   0  0  0  0  0  0  0  0  0  0  0  0
   -4.6905  -10.2543    0.0000 C   0  0  0  0  0  0  0  0  0  0  0  0
   -4.6905  -10.2543    0.0000 C   0  0  0  0  0  0  0  0  0  0  0  0
   -4.6905  -10.2543    0.0000 C   0  0  0  0  0  0  0  0  0  0  0  0
   -6.1896  -10.4118    0.0000 C   0  0  0  0  0  0  0  0  0  0  0  0
   -6.1896  -10.4118    0.0000 C   0  0  0  0  0  0  0  0  0  0  0  0
   -6.1896  -10.4118    0.0000 C   0  0  0  0  0  0  0  0  0  0  0  0
   -6.1896  -10.4118    0.0000 C   0  0  0  0  0  0  0  0  0  0  0  0
   -7.6185  -10.4118    0.0000 C   0  0  0  0  0  0  0  0  0  0  0  0
   -7.6185  -10.4118    0.0000 C   0  0  0  0  0  0  0  0  0  0  0  0
   -7.6185  -10.4118    0.0000 C   0  0  0  0  0  0  0  0  0  0  0  0
   -7.6185  -10.4118    0.0000 C   0  0  0  0  0  0  0  0  0  0  0  0
   -4.2780   -8.2049    0.0000 C   0  0  0  0  0  0  0  0  0  0  0  0
   -4.2780   -8.2049    0.0000 C   0  0  0  0  0  0  0  0  0  0  0  0
   -4.2780   -8.2049    0.0000 C   0  0  0  0  0  0  0  0  0  0  0  0
   -4.2780   -8.2049    0.0000 C   0  0  0  0  0  0  0  0  0  0  0  0
   -7.6185   -8.7618    0.0000 C   0  0  0  0  0  0  0  0  0  0  0  0
   -7.6185   -8.7618    0.0000 C   0  0  0  0  0  0  0  0  0  0  0  0
   -7.6185   -8.7618    0.0000 C   0  0  0  0  0  0  0  0  0  0  0  0
   -7.6185   -8.7618    0.0000 C   0  0  0  0  0  0  0  0  0  0  0  0
   -8.3330   -9.9993    0.0000 C   0  0  0  0  0  0  0  0  0  0  0  0
   -8.3330   -9.9993    0.0000 C   0  0  0  0  0  0  0  0  0  0  0  0
   -8.3330   -9.9993    0.0000 C   0  0  0  0  0  0  0  0  0  0  0  0
   -8.3330   -9.9993    0.0000 C   0  0  0  0  0  0  0  0  0  0  0  0
   -2.9681  -10.3013    0.0000 C   0  0  0  0  0  0  0  0  0  0  0  0
   -2.9681  -10.3013    0.0000 C   0  0  0  0  0  0  0  0  0  0  0  0
   -2.9681  -10.3013    0.0000 C   0  0  0  0  0  0  0  0  0  0  0  0
   -2.9681  -10.3013    0.0000 C   0  0  0  0  0  0  0  0  0  0  0  0
   -8.3330   -9.1743    0.0000 C   0  0  0  0  0  0  0  0  0  0  0  0
   -8.3330   -9.1743    0.0000 C   0  0  0  0  0  0  0  0  0  0  0  0
   -8.3330   -9.1743    0.0000 C   0  0  0  0  0  0  0  0  0  0  0  0
   -8.3330   -9.1743    0.0000 C   0  0  0  0  0  0  0  0  0  0  0  0
   -3.3806  -11.0158    0.0000 C   0  0  3  0  0  0  0  0  0  0  0  0
   -3.3806  -11.0158    0.0000 C   0  0  3  0  0  0  0  0  0  0  0  0
   -3.3806  -11.0158    0.0000 C   0  0  3  0  0  0  0  0  0  0  0  0
   -3.3806  -11.0158    0.0000 C   0  0  3  0  0  0  0  0  0  0  0  0
   -3.5635   -8.6174    0.0000 C   0  0  0  0  0  0  0  0  0  0  0  0
   -3.5635   -8.6174    0.0000 C   0  0  0  0  0  0  0  0  0  0  0  0
   -3.5635   -8.6174    0.0000 C   0  0  0  0  0  0  0  0  0  0  0  0
   -3.5635   -8.6174    0.0000 C   0  0  0  0  0  0  0  0  0  0  0  0
   -2.6661  -11.4283    0.0000 C   0  0  3  0  0  0  0  0  0  0  0  0
   -2.6661  -11.4283    0.0000 C   0  0  3  0  0  0  0  0  0  0  0  0
   -2.6661  -11.4283    0.0000 C   0  0  3  0  0  0  0  0  0  0  0  0
   -2.6661  -11.4283    0.0000 C   0  0  3  0  0  0  0  0  0  0  0  0
   -2.8491   -8.2049    0.0000 C   0  0  3  0  0  0  0  0  0  0  0  0
   -2.8491   -8.2049    0.0000 C   0  0  3  0  0  0  0  0  0  0  0  0
   -2.8491   -8.2049    0.0000 C   0  0  3  0  0  0  0  0  0  0  0  0
   -2.8491   -8.2049    0.0000 C   0  0  3  0  0  0  0  0  0  0  0  0
   -7.6185  -12.0618    0.0000 C   0  0  0  0  0  0  0  0  0  0  0  0
   -7.6185  -12.0618    0.0000 C   0  0  0  0  0  0  0  0  0  0  0  0
   -7.6185  -12.0618    0.0000 C   0  0  0  0  0  0  0  0  0  0  0  0
   -7.6185  -12.0618    0.0000 C   0  0  0  0  0  0  0  0  0  0  0  0
   -4.0951  -11.4283    0.0000 C   0  0  0  0  0  0  0  0  0  0  0  0
   -4.0951  -11.4283    0.0000 C   0  0  0  0  0  0  0  0  0  0  0  0
   -4.0951  -11.4283    0.0000 C   0  0  0  0  0  0  0  0  0  0  0  0
   -4.0951  -11.4283    0.0000 C   0  0  0  0  0  0  0  0  0  0  0  0
   -1.9516  -11.0158    0.0000 C   0  0  0  0  0  0  0  0  0  0  0  0
   -1.9516  -11.0158    0.0000 C   0  0  0  0  0  0  0  0  0  0  0  0
   -1.9516  -11.0158    0.0000 C   0  0  0  0  0  0  0  0  0  0  0  0
   -1.9516  -11.0158    0.0000 C   0  0  0  0  0  0  0  0  0  0  0  0
   -2.6661  -12.2533    0.0000 C   0  0  0  0  0  0  0  0  0  0  0  0
   -2.6661  -12.2533    0.0000 C   0  0  0  0  0  0  0  0  0  0  0  0
   -2.6661  -12.2533    0.0000 C   0  0  0  0  0  0  0  0  0  0  0  0
   -2.6661  -12.2533    0.0000 C   0  0  0  0  0  0  0  0  0  0  0  0
   -4.0951  -12.2533    0.0000 C   0  0  0  0  0  0  0  0  0  0  0  0
   -4.0951  -12.2533    0.0000 C   0  0  0  0  0  0  0  0  0  0  0  0
   -4.0951  -12.2533    0.0000 C   0  0  0  0  0  0  0  0  0  0  0  0
   -4.0951  -12.2533    0.0000 C   0  0  0  0  0  0  0  0  0  0  0  0
   -6.9041  -12.4743    0.0000 C   0  0  0  0  0  0  0  0  0  0  0  0
   -6.9041  -12.4743    0.0000 C   0  0  0  0  0  0  0  0  0  0  0  0
   -6.9041  -12.4743    0.0000 C   0  0  0  0  0  0  0  0  0  0  0  0
   -6.9041  -12.4743    0.0000 C   0  0  0  0  0  0  0  0  0  0  0  0
   -3.3806  -12.6658    0.0000 C   0  0  0  0  0  0  0  0  0  0  0  0
   -3.3806  -12.6658    0.0000 C   0  0  0  0  0  0  0  0  0  0  0  0
   -3.3806  -12.6658    0.0000 C   0  0  0  0  0  0  0  0  0  0  0  0
   -3.3806  -12.6658    0.0000 C   0  0  0  0  0  0  0  0  0  0  0  0
   -2.1346   -8.6174    0.0000 C   0  0  0  0  0  0  0  0  0  0  0  0
   -2.1346   -8.6174    0.0000 C   0  0  0  0  0  0  0  0  0  0  0  0
   -2.1346   -8.6174    0.0000 C   0  0  0  0  0  0  0  0  0  0  0  0
   -2.1346   -8.6174    0.0000 C   0  0  0  0  0  0  0  0  0  0  0  0
   -1.4201   -8.2049    0.0000 C   0  0  0  0  0  0  0  0  0  0  0  0
   -1.4201   -8.2049    0.0000 C   0  0  0  0  0  0  0  0  0  0  0  0
   -1.4201   -8.2049    0.0000 C   0  0  0  0  0  0  0  0  0  0  0  0
   -1.4201   -8.2049    0.0000 C   0  0  0  0  0  0  0  0  0  0  0  0
   -0.5227  -11.8408    0.0000 C   0  0  0  0  0  0  0  0  0  0  0  0
   -0.5227  -11.8408    0.0000 C   0  0  0  0  0  0  0  0  0  0  0  0
   -0.5227  -11.8408    0.0000 C   0  0  0  0  0  0  0  0  0  0  0  0
   -0.5227  -11.8408    0.0000 C   0  0  0  0  0  0  0  0  0  0  0  0
   -0.7057   -8.6174    0.0000 C   0  0  0  0  0  0  0  0  0  0  0  0
   -0.7057   -8.6174    0.0000 C   0  0  0  0  0  0  0  0  0  0  0  0
   -0.7057   -8.6174    0.0000 C   0  0  0  0  0  0  0  0  0  0  0  0
   -0.7057   -8.6174    0.0000 C   0  0  0  0  0  0  0  0  0  0  0  0
    0.1918  -11.4283    0.0000 C   0  0  0  0  0  0  0  0  0  0  0  0
    0.1918  -11.4283    0.0000 C   0  0  0  0  0  0  0  0  0  0  0  0
    0.1918  -11.4283    0.0000 C   0  0  0  0  0  0  0  0  0  0  0  0
    0.1918  -11.4283    0.0000 C   0  0  0  0  0  0  0  0  0  0  0  0
    0.0088   -8.2049    0.0000 C   0  0  0  0  0  0  0  0  0  0  0  0
    0.0088   -8.2049    0.0000 C   0  0  0  0  0  0  0  0  0  0  0  0
    0.0088   -8.2049    0.0000 C   0  0  0  0  0  0  0  0  0  0  0  0
    0.0088   -8.2049    0.0000 C   0  0  0  0  0  0  0  0  0  0  0  0
    0.9062  -11.8408    0.0000 C   0  0  0  0  0  0  0  0  0  0  0  0
    0.9062  -11.8408    0.0000 C   0  0  0  0  0  0  0  0  0  0  0  0
    0.9062  -11.8408    0.0000 C   0  0  0  0  0  0  0  0  0  0  0  0
    0.9062  -11.8408    0.0000 C   0  0  0  0  0  0  0  0  0  0  0  0
    1.6207  -11.4283    0.0000 C   0  0  0  0  0  0  0  0  0  0  0  0
    1.6207  -11.4283    0.0000 C   0  0  0  0  0  0  0  0  0  0  0  0
    1.6207  -11.4283    0.0000 C   0  0  0  0  0  0  0  0  0  0  0  0
    1.6207  -11.4283    0.0000 C   0  0  0  0  0  0  0  0  0  0  0  0
    7.8916  -11.4283    0.0000 C   0  0  0  0  0  0  0  0  0  0  0  0
    0.7233   -8.6174    0.0000 C   0  0  0  0  0  0  0  0  0  0  0  0
    0.7233   -8.6174    0.0000 C   0  0  0  0  0  0  0  0  0  0  0  0
    0.7233   -8.6174    0.0000 C   0  0  0  0  0  0  0  0  0  0  0  0
    0.7233   -8.6174    0.0000 C   0  0  0  0  0  0  0  0  0  0  0  0
    5.2632  -11.6832    0.0000 C   0  0  0  0  0  0  0  0  0  0  0  0
    7.8916  -11.4283    0.0000 C   0  0  0  0  0  0  0  0  0  0  0  0
    4.4786  -11.4283    0.0000 C   0  0  3  0  0  0  0  0  0  0  0  0
    5.2632  -11.6832    0.0000 C   0  0  0  0  0  0  0  0  0  0  0  0
    5.2632  -10.3483    0.0000 C   0  0  0  0  0  0  0  0  0  0  0  0
    4.4786  -11.4283    0.0000 C   0  0  3  0  0  0  0  0  0  0  0  0
    7.8916  -11.4283    0.0000 C   0  0  0  0  0  0  0  0  0  0  0  0
    5.2632  -10.3483    0.0000 C   0  0  0  0  0  0  0  0  0  0  0  0
    5.2632  -11.6832    0.0000 C   0  0  0  0  0  0  0  0  0  0  0  0
    4.4786  -11.4283    0.0000 C   0  0  3  0  0  0  0  0  0  0  0  0
    4.4786  -10.6033    0.0000 C   0  0  0  0  0  0  0  0  0  0  0  0
    6.4626  -11.4283    0.0000 C   0  0  0  0  0  0  0  0  0  0  0  0
    5.2632  -10.3483    0.0000 C   0  0  0  0  0  0  0  0  0  0  0  0
    7.1771  -11.0158    0.0000 C   0  0  0  0  0  0  0  0  0  0  0  0
    4.4786  -10.6033    0.0000 C   0  0  0  0  0  0  0  0  0  0  0  0
    6.4626  -11.4283    0.0000 C   0  0  0  0  0  0  0  0  0  0  0  0
    2.3352  -11.8408    0.0000 C   0  0  0  0  0  0  0  0  0  0  0  0
    7.1771  -11.0158    0.0000 C   0  0  0  0  0  0  0  0  0  0  0  0
    2.3352  -11.8408    0.0000 C   0  0  0  0  0  0  0  0  0  0  0  0
    2.3352  -11.8408    0.0000 C   0  0  0  0  0  0  0  0  0  0  0  0
    5.2632  -11.6832    0.0000 C   0  0  0  0  0  0  0  0  0  0  0  0
    2.3352  -11.8408    0.0000 C   0  0  0  0  0  0  0  0  0  0  0  0
    4.4786  -11.4283    0.0000 C   0  0  3  0  0  0  0  0  0  0  0  0
    4.4786  -10.6033    0.0000 C   0  0  0  0  0  0  0  0  0  0  0  0
    6.4626  -11.4283    0.0000 C   0  0  0  0  0  0  0  0  0  0  0  0
    7.8916  -11.4283    0.0000 C   0  0  0  0  0  0  0  0  0  0  0  0
    7.1771  -11.0158    0.0000 C   0  0  0  0  0  0  0  0  0  0  0  0
    5.2632  -10.3483    0.0000 C   0  0  0  0  0  0  0  0  0  0  0  0
    3.0497  -11.4283    0.0000 C   0  0  0  0  0  0  0  0  0  0  0  0
    3.0497  -11.4283    0.0000 C   0  0  0  0  0  0  0  0  0  0  0  0
    4.4786  -10.6033    0.0000 C   0  0  0  0  0  0  0  0  0  0  0  0
    3.0497  -11.4283    0.0000 C   0  0  0  0  0  0  0  0  0  0  0  0
    9.8467  -11.0158    0.0000 C   0  0  0  0  0  0  0  0  0  0  0  0
    6.4626  -11.4283    0.0000 C   0  0  0  0  0  0  0  0  0  0  0  0
    3.0497  -11.4283    0.0000 C   0  0  0  0  0  0  0  0  0  0  0  0
    7.1771  -11.0158    0.0000 C   0  0  0  0  0  0  0  0  0  0  0  0
  1200  1  0  0  0  0
  1226  1  0  0  0  0
  2203  1  0  0  0  0
  2227  1  0  0  0  0
  3207  1  0  0  0  0
  3229  1  0  0  0  0
  4220  1  0  0  0  0
  4232  1  0  0  0  0
 69  5  1  6  0  0  0
  5109  1  0  0  0  0
 70  6  1  6  0  0  0
  6110  1  0  0  0  0
 71  7  1  6  0  0  0
  7111  1  0  0  0  0
 72  8  1  6  0  0  0
  8112  1  0  0  0  0
  9 93  1  0  0  0  0
  9133  1  0  0  0  0
 10 94  1  0  0  0  0
 10134  1  0  0  0  0
 11 95  1  0  0  0  0
 11135  1  0  0  0  0
 12 96  1  0  0  0  0
 12136  1  0  0  0  0
 13109  2  0  0  0  0
 14110  2  0  0  0  0
 15111  2  0  0  0  0
 16112  2  0  0  0  0
129 17  1  1  0  0  0
130 18  1  1  0  0  0
131 19  1  1  0  0  0
132 20  1  1  0  0  0
 21141  2  0  0  0  0
 22142  2  0  0  0  0
 23143  2  0  0  0  0
 24144  2  0  0  0  0
 25153  2  0  0  0  0
 26153  1  0  0  0  0
 27154  2  0  0  0  0
 28154  1  0  0  0  0
 29155  2  0  0  0  0
 30155  1  0  0  0  0
 31156  2  0  0  0  0
 32156  1  0  0  0  0
 33193  2  0  0  0  0
 34198  2  0  0  0  0
 35199  2  0  0  0  0
 36201  2  0  0  0  0
 37202  2  0  0  0  0
 38204  2  0  0  0  0
 39205  2  0  0  0  0
 40206  2  0  0  0  0
 41210  2  0  0  0  0
 42218  2  0  0  0  0
 43223  2  0  0  0  0
 44225  2  0  0  0  0
 45141  1  0  0  0  0
 45169  1  0  0  0  0
 46142  1  0  0  0  0
 46170  1  0  0  0  0
 47143  1  0  0  0  0
 47171  1  0  0  0  0
 48144  1  0  0  0  0
 48172  1  0  0  0  0
 49 50  1  0  0  0  0
 49 51  1  0  0  0  0
 49193  1  0  0  0  0
 50 55  1  0  0  0  0
 50199  1  0  0  0  0
 51204  1  0  0  0  0
 51230  1  0  0  0  0
 52198  1  0  0  0  0
 52202  1  0  0  0  0
 52209  1  0  0  0  0
 53201  1  0  0  0  0
 53205  1  0  0  0  0
 53213  1  0  0  0  0
 54206  1  0  0  0  0
 54210  1  0  0  0  0
 54222  1  0  0  0  0
 55223  1  0  0  0  0
 56218  1  0  0  0  0
 56225  1  0  0  0  0
 56231  1  0  0  0  0
 57 61  1  0  0  0  0
 57 65  1  0  0  0  0
 57 81  1  6  0  0  0
 58 62  1  0  0  0  0
 58 66  1  0  0  0  0
 58 82  1  6  0  0  0
 59 63  1  0  0  0  0
 59 67  1  0  0  0  0
 59 83  1  6  0  0  0
 60 64  1  0  0  0  0
 60 68  1  0  0  0  0
 60 84  1  6  0  0  0
 61 85  1  6  0  0  0
 61 89  1  0  0  0  0
 62 86  1  6  0  0  0
 62 90  1  0  0  0  0
 63 87  1  6  0  0  0
 63 91  1  0  0  0  0
 64 88  1  6  0  0  0
 64 92  1  0  0  0  0
 65 69  1  0  0  0  0
 65 97  1  1  0  0  0
 66 70  1  0  0  0  0
 66 98  1  1  0  0  0
 67 71  1  0  0  0  0
 67 99  1  1  0  0  0
 68 72  1  0  0  0  0
 68100  1  1  0  0  0
 69 85  1  0  0  0  0
 70 86  1  0  0  0  0
 71 87  1  0  0  0  0
 72 88  1  0  0  0  0
 73 77  2  0  0  0  0
 73 89  1  0  0  0  0
 73 93  1  0  0  0  0
 74 78  2  0  0  0  0
 74 90  1  0  0  0  0
 74 94  1  0  0  0  0
 75 79  2  0  0  0  0
 75 91  1  0  0  0  0
 75 95  1  0  0  0  0
 76 80  2  0  0  0  0
 76 92  1  0  0  0  0
 76 96  1  0  0  0  0
 77 81  1  0  0  0  0
 77101  1  0  0  0  0
 78 82  1  0  0  0  0
 78102  1  0  0  0  0
 79 83  1  0  0  0  0
 79103  1  0  0  0  0
 80 84  1  0  0  0  0
 80104  1  0  0  0  0
 93105  2  0  0  0  0
 94106  2  0  0  0  0
 95107  2  0  0  0  0
 96108  2  0  0  0  0
 97121  1  0  0  0  0
 98122  1  0  0  0  0
 99123  1  0  0  0  0
100124  1  0  0  0  0
101113  2  0  0  0  0
102114  2  0  0  0  0
103115  2  0  0  0  0
104116  2  0  0  0  0
105113  1  0  0  0  0
106114  1  0  0  0  0
107115  1  0  0  0  0
108116  1  0  0  0  0
117109  1  1  0  0  0
118110  1  1  0  0  0
119111  1  1  0  0  0
120112  1  1  0  0  0
117125  1  0  0  0  0
117137  1  0  0  0  0
118126  1  0  0  0  0
118138  1  0  0  0  0
119127  1  0  0  0  0
119139  1  0  0  0  0
120128  1  0  0  0  0
120140  1  0  0  0  0
121129  1  0  0  0  0
122130  1  0  0  0  0
123131  1  0  0  0  0
124132  1  0  0  0  0
125141  1  1  0  0  0
125145  1  0  0  0  0
126142  1  1  0  0  0
126146  1  0  0  0  0
127143  1  1  0  0  0
127147  1  0  0  0  0
128144  1  1  0  0  0
128148  1  0  0  0  0
129161  1  0  0  0  0
130162  1  0  0  0  0
131163  1  0  0  0  0
132164  1  0  0  0  0
133153  1  0  0  0  0
134154  1  0  0  0  0
135155  1  0  0  0  0
136156  1  0  0  0  0
137149  1  0  0  0  0
138150  1  0  0  0  0
139151  1  0  0  0  0
140152  1  0  0  0  0
145157  1  0  0  0  0
146158  1  0  0  0  0
147159  1  0  0  0  0
148160  1  0  0  0  0
149157  1  0  0  0  0
150158  1  0  0  0  0
151159  1  0  0  0  0
152160  1  0  0  0  0
161165  1  0  0  0  0
162166  1  0  0  0  0
163167  1  0  0  0  0
164168  1  0  0  0  0
165173  1  0  0  0  0
166174  1  0  0  0  0
167175  1  0  0  0  0
168176  1  0  0  0  0
169177  1  0  0  0  0
170178  1  0  0  0  0
171179  1  0  0  0  0
172180  1  0  0  0  0
173181  1  0  0  0  0
174182  1  0  0  0  0
175183  1  0  0  0  0
176184  1  0  0  0  0
177185  1  0  0  0  0
178186  1  0  0  0  0
179187  1  0  0  0  0
180188  1  0  0  0  0
181194  1  0  0  0  0
182195  1  0  0  0  0
183196  1  0  0  0  0
184197  1  0  0  0  0
185189  1  0  0  0  0
186190  1  0  0  0  0
187191  1  0  0  0  0
188192  1  0  0  0  0
189214  1  0  0  0  0
190216  1  0  0  0  0
191217  1  0  0  0  0
192219  1  0  0  0  0
193211  1  0  0  0  0
198200  1  0  0  0  0
199215  1  0  0  0  0
200208  1  0  0  0  0
201203  1  0  0  0  0
202208  1  0  0  0  0
203212  1  0  0  0  0
204224  1  0  0  0  0
205212  1  0  0  0  0
206207  1  0  0  0  0
207221  1  0  0  0  0
209211  1  0  0  0  0
210221  1  0  0  0  0
213215  1  0  0  0  0
214226  1  0  0  0  0
216227  1  0  0  0  0
217229  1  0  0  0  0
218220  1  0  0  0  0
219232  1  0  0  0  0
220228  1  0  0  0  0
222224  1  0  0  0  0
223233  1  0  0  0  0
225228  1  0  0  0  0
231233  1  0  0  0  0
M  END
> <PUBCHEM_COMPOUND_ID_TYPE>
0

> <PUBCHEM_TOTAL_CHARGE>
0

> <PUBCHEM_SUBSTANCE_ID>
310939543

> <PUBCHEM_SUBSTANCE_VERSION>
1

> <PUBCHEM_EXT_DATASOURCE_NAME>
4488

> <PUBCHEM_EXT_DATASOURCE_REGID>
SCHEMBL16117472

> <PUBCHEM_SUBSTANCE_COMMENT>
InChI=1S/C177H256N12O40S4/c1-6-10-22-50-118(190)66-70-122-134-90-110-46-42-62-142(222-106-162(202)203)138(110)94-114(134)98-146(122)226-174(218)130-58-30-26-54-126(130)166(210)178-78-34-14-18-38-86-230-150-102-158(198)184(170(150)214)82-74-154(194)182-188(156(196)76-84-186-160(200)104-152(172(186)216)232-88-40-20-16-36-80-180-168(212)128-56-28-32-60-132(128)176(220)228-148-100-116-96-140-112(48-44-64-144(140)224-108-164(206)207)92-136(116)124(148)72-68-120(192)52-24-12-8-3)189(157(197)77-85-187-161(201)105-153(173(187)217)233-89-41-21-17-37-81-181-169(213)129-57-29-33-61-133(129)177(221)229-149-101-117-97-141-113(49-45-65-145(141)225-109-165(208)209)93-137(117)125(149)73-69-121(193)53-25-13-9-4)183(5)155(195)75-83-185-159(199)103-151(171(185)215)231-87-39-19-15-35-79-179-167(211)127-55-27-31-59-131(127)175(219)227-147-99-115-95-139-111(47-43-63-143(139)223-107-163(204)205)91-135(115)123(147)71-67-119(191)51-23-11-7-2/h42-49,62-65,114-137,146-153,190-193H,6-41,50-61,66-109H2,1-5H3,(H,178,210)(H,179,211)(H,180,212)(H,181,213)(H,182,194)(H,202,203)(H,204,205)(H,206,207)(H,208,209)/t114-,115-,116-,117-,118-,119-,120-,121-,122+,123+,124+,125+,126-,127-,128-,129-,130+,131+,132+,133+,134-,135-,136-,137-,146+,147+,148+,149+,150?,151?,152?,153?/m0/s1
InChIKey=FKEBFKCFSOQKAY-ABZFWGIVSA-N

> <PUBCHEM_SUBSTANCE_SYNONYM>
SCHEMBL16117472

> <PUBCHEM_XREF_EXT_ID>
SCHEMBL16117472

> <PUBCHEM_EXT_DATASOURCE_URL>
https://www.surechembl.org/

> <PUBCHEM_EXT_SUBSTANCE_URL>
https://www.surechembl.org/chemical/SCHEMBL16117472

> <PUBCHEM_CID_ASSOCIATIONS>
117606840  1

> <PUBCHEM_COORDINATE_TYPE>
1
3

> <PUBCHEM_BONDANNOTATIONS>
117  109  5
118  110  5
119  111  5
120  112  5
125  141  5
126  142  5
127  143  5
128  144  5
129  17  5
130  18  5
131  19  5
132  20  5
69  5  6
57  81  6
58  82  6
59  83  6
70  6  6
60  84  6
61  85  6
62  86  6
63  87  6
64  88  6
65  97  5
66  98  5
67  99  5
68  100  5
71  7  6
72  8  6

$$$$
