310948809
  -OEChem-07211613022D

 47 48  0     1  0  0  0  0  0999 V2000
    0.3770    0.7288    0.0000 O   0  0  0  0  0  0  0  0  0  0  0  0
    0.2430   -0.7790    0.0000 O   0  0  0  0  0  0  0  0  0  0  0  0
   -1.0973    2.4208    0.0000 O   0  0  0  0  0  0  0  0  0  0  0  0
   -1.1141   -0.1089    0.0000 O   0  0  0  0  0  0  0  0  0  0  0  0
    1.9350    0.6953    0.0000 O   0  0  0  0  0  0  0  0  0  0  0  0
    2.7726   -0.7622    0.0000 O   0  0  0  0  0  0  0  0  0  0  0  0
   -2.5548    0.7288    0.0000 O   0  0  0  0  0  0  0  0  0  0  0  0
    0.3770    2.4208    0.0000 O   0  0  0  0  0  0  0  0  0  0  0  0
    1.9350   -2.2365    0.0000 O   0  0  0  0  0  0  0  0  0  0  0  0
    0.6785   -2.9737    0.0000 O   0  0  0  0  0  0  0  0  0  0  0  0
   -2.5548    3.2585    0.0000 O   0  0  0  0  0  0  0  0  0  0  0  0
   -2.4878   -0.1592    0.0000 O   0  0  0  0  0  0  0  0  0  0  0  0
    3.1580    0.0084    0.0000 O   0  0  0  0  0  0  0  0  0  0  0  0
    2.7559   -2.1695    0.0000 O   0  0  0  0  0  0  0  0  0  0  0  0
   -3.2920    1.8847    0.0000 O   0  0  0  0  0  0  0  0  0  0  0  0
    1.0471    3.6271    0.0000 O   0  0  0  0  0  0  0  0  0  0  0  0
    3.2249   -2.8564    0.0000 O   0  0  0  0  0  0  0  0  0  0  0  0
   -0.4607   -3.7611    0.0000 O   0  0  0  0  0  0  0  0  0  0  0  0
   -3.2752    4.3977    0.0000 O   0  0  0  0  0  0  0  0  0  0  0  0
   -0.3770    1.1643    0.0000 C   0  0  3  0  0  0  0  0  0  0  0  0
    0.6617   -0.0419    0.0000 C   0  0  3  0  0  0  0  0  0  0  0  0
   -1.1141    0.7455    0.0000 C   0  0  3  0  0  0  0  0  0  0  0  0
    1.4994   -0.0419    0.0000 C   0  0  3  0  0  0  0  0  0  0  0  0
    1.9350   -0.7455    0.0000 C   0  0  3  0  0  0  0  0  0  0  0  0
   -1.8345    1.1811    0.0000 C   0  0  3  0  0  0  0  0  0  0  0  0
   -0.3602    1.9852    0.0000 C   0  0  3  0  0  0  0  0  0  0  0  0
    1.4994   -1.4994    0.0000 C   0  0  3  0  0  0  0  0  0  0  0  0
    0.6450   -1.4994    0.0000 C   0  0  3  0  0  0  0  0  0  0  0  0
   -1.8345    2.0020    0.0000 C   0  0  3  0  0  0  0  0  0  0  0  0
    0.2596   -2.2533    0.0000 C   0  0  0  0  0  0  0  0  0  0  0  0
   -2.5548    2.4208    0.0000 C   0  0  0  0  0  0  0  0  0  0  0  0
   -1.8345   -0.5445    0.0000 C   0  0  0  0  0  0  0  0  0  0  0  0
    2.7894    0.6785    0.0000 C   0  0  0  0  0  0  0  0  0  0  0  0
    3.1580   -1.5162    0.0000 C   0  0  0  0  0  0  0  0  0  0  0  0
   -3.2752    1.1141    0.0000 C   0  0  0  0  0  0  0  0  0  0  0  0
    0.3770    3.2585    0.0000 C   0  0  0  0  0  0  0  0  0  0  0  0
    2.8062   -2.2030    0.0000 C   0  0  0  0  0  0  0  0  0  0  0  0
    0.3099   -3.7275    0.0000 C   0  0  0  0  0  0  0  0  0  0  0  0
   -1.8177   -1.3486    0.0000 C   0  0  0  0  0  0  0  0  0  0  0  0
    3.1747    1.3654    0.0000 C   0  0  0  0  0  0  0  0  0  0  0  0
   -3.2752    3.6605    0.0000 C   0  0  0  0  0  0  0  0  0  0  0  0
    3.9621   -1.5329    0.0000 C   0  0  0  0  0  0  0  0  0  0  0  0
   -3.9621    0.7120    0.0000 C   0  0  0  0  0  0  0  0  0  0  0  0
   -0.3099    3.6438    0.0000 C   0  0  0  0  0  0  0  0  0  0  0  0
    3.1580   -1.4659    0.0000 C   0  0  0  0  0  0  0  0  0  0  0  0
    0.7455   -4.3977    0.0000 C   0  0  0  0  0  0  0  0  0  0  0  0
   -3.9454    3.2585    0.0000 C   0  0  0  0  0  0  0  0  0  0  0  0
 20  1  1  1  0  0  0
 21  1  1  6  0  0  0
  2 21  1  0  0  0  0
  2 28  1  0  0  0  0
  3 26  1  0  0  0  0
  3 29  1  0  0  0  0
 22  4  1  1  0  0  0
  4 32  1  0  0  0  0
 23  5  1  1  0  0  0
  5 33  1  0  0  0  0
 24  6  1  1  0  0  0
  6 34  1  0  0  0  0
 25  7  1  6  0  0  0
  7 35  1  0  0  0  0
  8 26  1  0  0  0  0
  8 36  1  0  0  0  0
 27  9  1  6  0  0  0
  9 37  1  0  0  0  0
 10 30  1  0  0  0  0
 10 38  1  0  0  0  0
 11 31  1  0  0  0  0
 11 41  1  0  0  0  0
 12 32  2  0  0  0  0
 13 33  2  0  0  0  0
 14 34  2  0  0  0  0
 15 35  2  0  0  0  0
 16 36  2  0  0  0  0
 17 37  2  0  0  0  0
 18 38  2  0  0  0  0
 19 41  2  0  0  0  0
 20 22  1  0  0  0  0
 20 26  1  0  0  0  0
 21 23  1  0  0  0  0
 22 25  1  0  0  0  0
 23 24  1  0  0  0  0
 24 27  1  0  0  0  0
 25 29  1  0  0  0  0
 27 28  1  0  0  0  0
 28 30  1  1  0  0  0
 29 31  1  6  0  0  0
 32 39  1  0  0  0  0
 33 40  1  0  0  0  0
 34 42  1  0  0  0  0
 35 43  1  0  0  0  0
 36 44  1  0  0  0  0
 37 45  1  0  0  0  0
 38 46  1  0  0  0  0
 41 47  1  0  0  0  0
M  END
> <PUBCHEM_COMPOUND_ID_TYPE>
0

> <PUBCHEM_TOTAL_CHARGE>
0

> <PUBCHEM_SUBSTANCE_ID>
310948809

> <PUBCHEM_SUBSTANCE_VERSION>
1

> <PUBCHEM_EXT_DATASOURCE_NAME>
4488

> <PUBCHEM_EXT_DATASOURCE_REGID>
SCHEMBL16126993

> <PUBCHEM_SUBSTANCE_COMMENT>
InChI=1S/C28H38O19/c1-11(29)37-9-19-22(40-14(4)32)24(42-16(6)34)26(27(45-19)44-18(8)36)47-28-25(43-17(7)35)23(41-15(5)33)21(39-13(3)31)20(46-28)10-38-12(2)30/h19-28H,9-10H2,1-8H3/t19-,20+,21+,22+,23-,24-,25-,26-,27?,28+/m0/s1
InChIKey=RMIOUCGMUWKQRI-ZXVFZORXSA-N

> <PUBCHEM_SUBSTANCE_SYNONYM>
SCHEMBL16126993

> <PUBCHEM_XREF_EXT_ID>
SCHEMBL16126993

> <PUBCHEM_EXT_DATASOURCE_URL>
https://www.surechembl.org/

> <PUBCHEM_EXT_SUBSTANCE_URL>
https://www.surechembl.org/chemical/SCHEMBL16126993

> <PUBCHEM_CID_ASSOCIATIONS>
117614348  1

> <PUBCHEM_COORDINATE_TYPE>
1
3

> <PUBCHEM_BONDANNOTATIONS>
20  1  5
21  1  6
28  30  5
29  31  6
22  4  5
23  5  5
24  6  5
25  7  6
26  8  3
27  9  6

$$$$
