310929364
  -OEChem-07211613022D

 70 77  0     1  0  0  0  0  0999 V2000
    1.5469   -8.9201    0.0000 S   0  0  0  0  0  0  0  0  0  0  0  0
   11.7044   -4.1249    0.0000 F   0  0  0  0  0  0  0  0  0  0  0  0
   10.9825   -5.3623    0.0000 F   0  0  0  0  0  0  0  0  0  0  0  0
   10.9825   -4.5374    0.0000 F   0  0  0  0  0  0  0  0  0  0  0  0
    2.8359   -7.9404    0.0000 O   0  0  0  0  0  0  0  0  0  0  0  0
    1.8562   -8.1982    0.0000 O   0  0  0  0  0  0  0  0  0  0  0  0
    1.2375   -9.6935    0.0000 O   0  0  0  0  0  0  0  0  0  0  0  0
    3.2999   -7.4764    0.0000 O   0  0  0  0  0  0  0  0  0  0  0  0
    3.9186   -5.0014    0.0000 O   0  0  0  0  0  0  0  0  0  0  0  0
    4.8983   -2.1656    0.0000 O   0  0  0  0  0  0  0  0  0  0  0  0
    5.9296   -8.6107    0.0000 O   0  0  0  0  0  0  0  0  0  0  0  0
    8.6107   -6.1873    0.0000 O   0  0  0  0  0  0  0  0  0  0  0  0
    4.7436   -1.8046    0.0000 O   0  0  0  0  0  0  0  0  0  0  0  0
    8.7654   -7.4248    0.0000 O   0  0  0  0  0  0  0  0  0  0  0  0
   13.0965   -4.9499    0.0000 O   0  5  0  0  0  0  0  0  0  0  0  0
   12.4262   -6.1873    0.0000 O   0  0  0  0  0  0  0  0  0  0  0  0
    4.2796   -8.5076    0.0000 N   0  0  0  0  0  0  0  0  0  0  0  0
    2.2687   -9.2294    0.0000 N   0  0  0  0  0  0  0  0  0  0  0  0
    5.2077   -7.6310    0.0000 N   0  0  0  0  0  0  0  0  0  0  0  0
    3.3515   -4.0733    0.0000 N   0  0  0  0  0  0  0  0  0  0  0  0
    7.5795   -7.4764    0.0000 N   0  0  0  0  0  0  0  0  0  0  0  0
    3.9702    0.0000    0.0000 N   0  3  0  0  0  0  0  0  0  0  0  0
    3.7124   -9.0748    0.0000 C   0  0  3  0  0  0  0  0  0  0  0  0
    3.9702   -9.7966    0.0000 C   0  0  3  0  0  0  0  0  0  0  0  0
    3.1968   -9.7451    0.0000 C   0  0  0  0  0  0  0  0  0  0  0  0
    2.9390   -8.7654    0.0000 C   0  0  0  0  0  0  0  0  0  0  0  0
    0.8250   -8.6107    0.0000 C   0  0  0  0  0  0  0  0  0  0  0  0
    4.0733   -7.7342    0.0000 C   0  0  0  0  0  0  0  0  0  0  0  0
    4.6405  -10.3122    0.0000 C   0  0  0  0  0  0  0  0  0  0  0  0
    0.0000   -8.7138    0.0000 C   0  0  0  0  0  0  0  0  0  0  0  0
    0.3094   -7.9404    0.0000 C   0  0  0  0  0  0  0  0  0  0  0  0
    4.6405   -7.1670    0.0000 C   0  0  3  0  0  0  0  0  0  0  0  0
    0.6703   -9.4357    0.0000 C   0  0  0  0  0  0  0  0  0  0  0  0
    4.1249   -6.4967    0.0000 C   0  0  0  0  0  0  0  0  0  0  0  0
    3.8671   -5.7749    0.0000 C   0  0  3  0  0  0  0  0  0  0  0  0
    6.0327   -7.7857    0.0000 C   0  0  0  0  0  0  0  0  0  0  0  0
    4.0218   -7.1154    0.0000 C   0  0  0  0  0  0  0  0  0  0  0  0
    5.3623  -10.0029    0.0000 C   0  0  0  0  0  0  0  0  0  0  0  0
    6.8577   -7.7857    0.0000 C   0  0  3  0  0  0  0  0  0  0  0  0
    4.1765   -4.1765    0.0000 C   0  0  0  0  0  0  0  0  0  0  0  0
    4.6405   -3.6093    0.0000 C   0  0  0  0  0  0  0  0  0  0  0  0
    4.3827   -2.7843    0.0000 C   0  0  0  0  0  0  0  0  0  0  0  0
    3.6093   -2.7327    0.0000 C   0  0  0  0  0  0  0  0  0  0  0  0
    3.1452   -3.2999    0.0000 C   0  0  0  0  0  0  0  0  0  0  0  0
    7.0123   -8.5591    0.0000 C   0  0  0  0  0  0  0  0  0  0  0  0
    4.5889   -1.3922    0.0000 C   0  0  0  0  0  0  0  0  0  0  0  0
    5.4139   -3.1452    0.0000 C   0  0  0  0  0  0  0  0  0  0  0  0
    3.2999   -1.9078    0.0000 C   0  0  0  0  0  0  0  0  0  0  0  0
    2.2687   -3.1968    0.0000 C   0  0  0  0  0  0  0  0  0  0  0  0
    5.2593   -0.5156    0.0000 C   0  0  3  0  0  0  0  0  0  0  0  0
    3.4546   -1.2375    0.0000 C   0  0  3  0  0  0  0  0  0  0  0  0
    8.1467   -6.9092    0.0000 C   0  0  0  0  0  0  0  0  0  0  0  0
    8.7138   -5.4655    0.0000 C   0  0  3  0  0  0  0  0  0  0  0  0
    6.1873   -8.7138    0.0000 C   0  0  0  0  0  0  0  0  0  0  0  0
    7.1670   -9.3326    0.0000 C   0  0  0  0  0  0  0  0  0  0  0  0
    7.7857   -8.4045    0.0000 C   0  0  0  0  0  0  0  0  0  0  0  0
    2.4749   -1.8046    0.0000 C   0  0  0  0  0  0  0  0  0  0  0  0
    2.0109   -2.4234    0.0000 C   0  0  0  0  0  0  0  0  0  0  0  0
    8.5591   -4.6405    0.0000 C   0  0  3  0  0  0  0  0  0  0  0  0
    6.1873   -2.9390    0.0000 C   0  0  0  0  0  0  0  0  0  0  0  0
    5.2593   -1.2375    0.0000 C   0  0  0  0  0  0  0  0  0  0  0  0
    3.9702   -1.8046    0.0000 C   0  0  0  0  0  0  0  0  0  0  0  0
    3.4546   -0.5156    0.0000 C   0  0  0  0  0  0  0  0  0  0  0  0
    4.7436    0.0000    0.0000 C   0  0  0  0  0  0  0  0  0  0  0  0
    9.3841   -4.9499    0.0000 C   0  0  0  0  0  0  0  0  0  0  0  0
    8.2498   -3.9186    0.0000 C   0  0  0  0  0  0  0  0  0  0  0  0
    6.9092   -3.0421    0.0000 C   0  0  0  0  0  0  0  0  0  0  0  0
    7.6310   -3.4546    0.0000 C   0  0  0  0  0  0  0  0  0  0  0  0
   11.7044   -4.9499    0.0000 C   0  0  0  0  0  0  0  0  0  0  0  0
   12.4262   -5.3623    0.0000 C   0  0  0  0  0  0  0  0  0  0  0  0
  1  6  2  0  0  0  0
  1  7  2  0  0  0  0
  1 18  1  0  0  0  0
  1 27  1  0  0  0  0
  2 69  1  0  0  0  0
  3 69  1  0  0  0  0
  4 69  1  0  0  0  0
  5 26  2  0  0  0  0
  8 28  2  0  0  0  0
  9 35  1  0  0  0  0
  9 40  1  0  0  0  0
 10 42  1  0  0  0  0
 10 46  1  0  0  0  0
 11 36  2  0  0  0  0
 12 52  1  0  0  0  0
 12 53  1  0  0  0  0
 13 61  1  0  0  0  0
 13 62  1  0  0  0  0
 14 52  2  0  0  0  0
 15 70  1  0  0  0  0
 16 70  2  0  0  0  0
 23 17  1  1  0  0  0
 17 28  1  0  0  0  0
 18 26  1  0  0  0  0
 19 32  1  0  0  0  0
 19 36  1  0  0  0  0
 19 37  1  0  0  0  0
 20 40  1  0  0  0  0
 20 44  2  0  0  0  0
 21 39  1  0  0  0  0
 21 52  1  0  0  0  0
 22 63  1  0  0  0  0
 22 64  1  0  0  0  0
 23 24  1  0  0  0  0
 23 25  1  0  0  0  0
 23 26  1  6  0  0  0
 24 25  1  0  0  0  0
 24 29  1  6  0  0  0
 27 30  1  0  0  0  0
 27 31  1  0  0  0  0
 27 33  1  0  0  0  0
 32 28  1  6  0  0  0
 29 38  2  0  0  0  0
 30 31  1  0  0  0  0
 32 34  1  0  0  0  0
 35 34  1  1  0  0  0
 35 37  1  0  0  0  0
 36 39  1  0  0  0  0
 39 45  1  1  0  0  0
 40 41  2  0  0  0  0
 41 42  1  0  0  0  0
 41 47  1  0  0  0  0
 42 43  2  0  0  0  0
 43 44  1  0  0  0  0
 43 48  1  0  0  0  0
 44 49  1  0  0  0  0
 45 54  1  0  0  0  0
 45 55  1  0  0  0  0
 45 56  1  0  0  0  0
 46 50  1  0  0  0  0
 46 51  1  0  0  0  0
 47 60  1  0  0  0  0
 48 57  2  0  0  0  0
 49 58  2  0  0  0  0
 50 61  1  0  0  0  0
 50 64  1  0  0  0  0
 51 62  1  0  0  0  0
 51 63  1  0  0  0  0
 53 59  1  0  0  0  0
 53 65  1  1  0  0  0
 57 58  1  0  0  0  0
 59 65  1  6  0  0  0
 59 66  1  0  0  0  0
 60 67  1  0  0  0  0
 66 68  1  0  0  0  0
 67 68  1  0  0  0  0
 69 70  1  0  0  0  0
M  CHG  2  15  -1  22   1
M  END
> <PUBCHEM_COMPOUND_ID_TYPE>
0

> <PUBCHEM_TOTAL_CHARGE>
0

> <PUBCHEM_SUBSTANCE_ID>
310929364

> <PUBCHEM_SUBSTANCE_VERSION>
1

> <PUBCHEM_EXT_DATASOURCE_NAME>
4488

> <PUBCHEM_EXT_DATASOURCE_REGID>
SCHEMBL16106536

> <PUBCHEM_SUBSTANCE_COMMENT>
InChI=1S/C46H62N6O10S.C2HF3O2/c1-6-29-20-46(29,42(55)51-63(57,58)45(5)16-17-45)50-39(53)34-19-30-23-52(34)41(54)38(44(2,3)4)49-43(56)61-35-18-26(35)12-8-7-9-14-32-37(31-13-10-11-15-33(31)48-40(32)60-30)62-36-27-21-47-22-28(36)25-59-24-27;3-2(4,5)1(6)7/h6,10-11,13,15,26-30,34-36,38,47H,1,7-9,12,14,16-25H2,2-5H3,(H,49,56)(H,50,53)(H,51,55);(H,6,7)/t26-,27?,28?,29-,30-,34+,35-,36?,38-,46-;/m1./s1
InChIKey=KRWBAACHDWSBAD-WMYHQCMCSA-N

> <PUBCHEM_SUBSTANCE_SYNONYM>
SCHEMBL16106536

> <PUBCHEM_XREF_EXT_ID>
SCHEMBL16106536

> <PUBCHEM_EXT_DATASOURCE_URL>
https://www.surechembl.org/

> <PUBCHEM_EXT_SUBSTANCE_URL>
https://www.surechembl.org/chemical/SCHEMBL16106536

> <PUBCHEM_CID_ASSOCIATIONS>
117598740  1
6422  2
117598741  2

> <PUBCHEM_COORDINATE_TYPE>
1
3

> <PUBCHEM_BONDANNOTATIONS>
23  17  5
23  26  6
24  29  6
32  28  6
35  34  5
39  45  5
53  65  5
59  65  6

$$$$
