310940290
  -OEChem-07211613022D

 30 33  0     1  0  0  0  0  0999 V2000
    2.1622    2.4607    0.0000 S   0  0  0  0  0  0  0  0  0  0  0  0
   -3.5494   -0.1234    0.0000 O   0  0  0  0  0  0  0  0  0  0  0  0
    0.1541   -2.1645    0.0000 O   0  0  0  0  0  0  0  0  0  0  0  0
    2.1622    2.4607    0.0000 O   0  0  0  0  0  0  0  0  0  0  0  0
    2.1622    2.4607    0.0000 O   0  0  0  0  0  0  0  0  0  0  0  0
   -1.5742   -0.0247    0.0000 N   0  0  0  0  0  0  0  0  0  0  0  0
   -0.8005    0.2387    0.0000 N   0  0  0  0  0  0  0  0  0  0  0  0
    0.5162   -0.4362    0.0000 N   0  0  0  0  0  0  0  0  0  0  0  0
   -1.2450   -2.4607    0.0000 N   0  0  0  0  0  0  0  0  0  0  0  0
   -1.3273    2.4277    0.0000 N   0  0  0  0  0  0  0  0  0  0  0  0
   -1.5742   -0.8312    0.0000 C   0  0  0  0  0  0  0  0  0  0  0  0
   -2.2491    0.4856    0.0000 C   0  0  3  0  0  0  0  0  0  0  0  0
   -0.8005   -1.1110    0.0000 C   0  0  0  0  0  0  0  0  0  0  0  0
   -0.3233   -0.4362    0.0000 C   0  0  0  0  0  0  0  0  0  0  0  0
   -0.6360   -1.8846    0.0000 C   0  0  0  0  0  0  0  0  0  0  0  0
   -2.1833   -1.3909    0.0000 C   0  0  0  0  0  0  0  0  0  0  0  0
   -2.7264   -0.2058    0.0000 C   0  0  0  0  0  0  0  0  0  0  0  0
   -2.5782    1.2098    0.0000 C   0  0  0  0  0  0  0  0  0  0  0  0
   -1.4755    0.7818    0.0000 C   0  0  0  0  0  0  0  0  0  0  0  0
   -2.0187   -2.1974    0.0000 C   0  0  0  0  0  0  0  0  0  0  0  0
    0.9112    0.3045    0.0000 C   0  0  0  0  0  0  0  0  0  0  0  0
   -3.3848    1.3085    0.0000 C   0  0  0  0  0  0  0  0  0  0  0  0
   -1.3931    1.6049    0.0000 C   0  0  0  0  0  0  0  0  0  0  0  0
   -3.8785    0.6008    0.0000 C   0  0  0  0  0  0  0  0  0  0  0  0
    1.7342    1.7036    0.0000 C   0  0  0  0  0  0  0  0  0  0  0  0
    1.7506    0.2881    0.0000 C   0  0  0  0  0  0  0  0  0  0  0  0
    0.5327    0.9958    0.0000 C   0  0  0  0  0  0  0  0  0  0  0  0
    2.1457    1.0123    0.0000 C   0  0  0  0  0  0  0  0  0  0  0  0
    0.9276    1.6871    0.0000 C   0  0  0  0  0  0  0  0  0  0  0  0
    3.8785    0.6907    0.0000 C   0  0  0  0  0  0  0  0  0  0  0  0
  1  4  2  0  0  0  0
  1  5  2  0  0  0  0
  1 25  1  0  0  0  0
  1 30  1  0  0  0  0
  2 17  1  0  0  0  0
  2 24  1  0  0  0  0
  3 15  2  0  0  0  0
  6  7  1  0  0  0  0
  6 11  1  0  0  0  0
  6 12  1  0  0  0  0
  7 14  2  0  0  0  0
  8 14  1  0  0  0  0
  8 21  1  0  0  0  0
  9 15  1  0  0  0  0
  9 20  1  0  0  0  0
 10 23  3  0  0  0  0
 11 13  2  0  0  0  0
 11 16  1  0  0  0  0
 12 17  1  0  0  0  0
 12 18  1  0  0  0  0
 12 19  1  6  0  0  0
 13 14  1  0  0  0  0
 13 15  1  0  0  0  0
 16 20  2  0  0  0  0
 18 22  1  0  0  0  0
 19 23  1  0  0  0  0
 21 26  2  0  0  0  0
 21 27  1  0  0  0  0
 22 24  1  0  0  0  0
 25 28  2  0  0  0  0
 25 29  1  0  0  0  0
 26 28  1  0  0  0  0
 27 29  2  0  0  0  0
M  END
> <PUBCHEM_COMPOUND_ID_TYPE>
0

> <PUBCHEM_TOTAL_CHARGE>
0

> <PUBCHEM_SUBSTANCE_ID>
310940290

> <PUBCHEM_SUBSTANCE_VERSION>
1

> <PUBCHEM_EXT_DATASOURCE_NAME>
4488

> <PUBCHEM_EXT_DATASOURCE_REGID>
SCHEMBL16118233

> <PUBCHEM_SUBSTANCE_COMMENT>
InChI=1S/C20H21N5O4S/c1-30(27,28)15-5-3-14(4-6-15)23-18-17-16(7-11-22-19(17)26)25(24-18)20(9-10-21)8-2-12-29-13-20/h3-7,11H,2,8-9,12-13H2,1H3,(H,22,26)(H,23,24)/t20-/m0/s1
InChIKey=YZKOLXLMRQALJE-FQEVSTJZSA-N

> <PUBCHEM_SUBSTANCE_SYNONYM>
SCHEMBL16118233

> <PUBCHEM_XREF_EXT_ID>
SCHEMBL16118233

> <PUBCHEM_EXT_DATASOURCE_URL>
https://www.surechembl.org/

> <PUBCHEM_EXT_SUBSTANCE_URL>
https://www.surechembl.org/chemical/SCHEMBL16118233

> <PUBCHEM_CID_ASSOCIATIONS>
117607370  1

> <PUBCHEM_COORDINATE_TYPE>
1
3

> <PUBCHEM_BONDANNOTATIONS>
12  19  6

$$$$
