310940292
  -OEChem-07211613022D

 39 42  0     0  0  0  0  0  0999 V2000
    2.3975   -3.1410    0.0000 S   0  0  0  0  0  0  0  0  0  0  0  0
   -0.3630    4.2484    0.0000 S   0  0  0  0  0  0  0  0  0  0  0  0
   -2.5176   -4.2183    0.0000 O   0  0  0  0  0  0  0  0  0  0  0  0
   -1.0869    2.1781    0.0000 O   0  0  0  0  0  0  0  0  0  0  0  0
    2.3975   -3.1410    0.0000 O   0  0  0  0  0  0  0  0  0  0  0  0
    2.3975   -3.1410    0.0000 O   0  0  0  0  0  0  0  0  0  0  0  0
   -2.5176    2.1781    0.0000 O   0  0  0  0  0  0  0  0  0  0  0  0
   -1.7938   -1.5419    0.0000 N   0  0  0  0  0  0  0  0  0  0  0  0
   -1.1205   -2.0300    0.0000 N   0  0  0  0  0  0  0  0  0  0  0  0
   -0.8848   -3.4777    0.0000 N   0  0  0  0  0  0  0  0  0  0  0  0
   -3.5612   -3.2588    0.0000 N   0  0  0  0  0  0  0  0  0  0  0  0
   -1.7938    0.9493    0.0000 N   0  0  0  0  0  0  0  0  0  0  0  0
    2.3975   -3.1410    0.0000 N   0  0  0  0  0  0  0  0  0  0  0  0
    0.3608   -0.3468    0.0000 N   0  0  0  0  0  0  0  0  0  0  0  0
   -1.7938   -0.7171    0.0000 C   0  0  0  0  0  0  0  0  0  0  0  0
   -2.4671   -2.0300    0.0000 C   0  0  0  0  0  0  0  0  0  0  0  0
   -2.2146   -2.7875    0.0000 C   0  0  0  0  0  0  0  0  0  0  0  0
   -1.3898   -2.8044    0.0000 C   0  0  0  0  0  0  0  0  0  0  0  0
   -2.7701   -3.4271    0.0000 C   0  0  0  0  0  0  0  0  0  0  0  0
   -2.5008   -0.2963    0.0000 C   0  0  0  0  0  0  0  0  0  0  0  0
   -1.0869   -0.2963    0.0000 C   0  0  0  0  0  0  0  0  0  0  0  0
   -3.2751   -1.8617    0.0000 C   0  0  0  0  0  0  0  0  0  0  0  0
   -1.0531   -1.1211    0.0000 C   0  0  0  0  0  0  0  0  0  0  0  0
   -3.8305   -2.4845    0.0000 C   0  0  0  0  0  0  0  0  0  0  0  0
   -2.5008    0.5453    0.0000 C   0  0  0  0  0  0  0  0  0  0  0  0
   -1.0700    0.5285    0.0000 C   0  0  0  0  0  0  0  0  0  0  0  0
   -0.0600   -3.3935    0.0000 C   0  0  0  0  0  0  0  0  0  0  0  0
   -0.3462   -0.7171    0.0000 C   0  0  0  0  0  0  0  0  0  0  0  0
    1.5727   -3.2083    0.0000 C   0  0  0  0  0  0  0  0  0  0  0  0
   -1.7769    1.7741    0.0000 C   0  0  0  0  0  0  0  0  0  0  0  0
    0.4113   -4.0499    0.0000 C   0  0  0  0  0  0  0  0  0  0  0  0
    0.2598   -2.6528    0.0000 C   0  0  0  0  0  0  0  0  0  0  0  0
    1.2361   -3.9658    0.0000 C   0  0  0  0  0  0  0  0  0  0  0  0
    1.0846   -2.5519    0.0000 C   0  0  0  0  0  0  0  0  0  0  0  0
    3.8305   -4.6188    0.0000 C   0  0  0  0  0  0  0  0  0  0  0  0
    3.8305   -4.6188    0.0000 C   0  0  0  0  0  0  0  0  0  0  0  0
   -1.0700    3.0197    0.0000 C   0  0  0  0  0  0  0  0  0  0  0  0
   -0.3798    3.4237    0.0000 C   0  0  0  0  0  0  0  0  0  0  0  0
    0.3439    4.6188    0.0000 C   0  0  0  0  0  0  0  0  0  0  0  0
  1  5  2  0  0  0  0
  1  6  2  0  0  0  0
  1 13  1  0  0  0  0
  1 29  1  0  0  0  0
  2 38  1  0  0  0  0
  2 39  1  0  0  0  0
  3 19  2  0  0  0  0
  4 30  1  0  0  0  0
  4 37  1  0  0  0  0
  7 30  2  0  0  0  0
  8  9  1  0  0  0  0
  8 15  1  0  0  0  0
  8 16  1  0  0  0  0
  9 18  2  0  0  0  0
 10 18  1  0  0  0  0
 10 27  1  0  0  0  0
 11 19  1  0  0  0  0
 11 24  1  0  0  0  0
 12 25  1  0  0  0  0
 12 26  1  0  0  0  0
 12 30  1  0  0  0  0
 13 35  1  0  0  0  0
 13 36  1  0  0  0  0
 14 28  3  0  0  0  0
 15 20  1  0  0  0  0
 15 21  1  0  0  0  0
 15 23  1  0  0  0  0
 16 17  2  0  0  0  0
 16 22  1  0  0  0  0
 17 18  1  0  0  0  0
 17 19  1  0  0  0  0
 20 25  1  0  0  0  0
 21 26  1  0  0  0  0
 22 24  2  0  0  0  0
 23 28  1  0  0  0  0
 27 31  2  0  0  0  0
 27 32  1  0  0  0  0
 29 33  2  0  0  0  0
 29 34  1  0  0  0  0
 31 33  1  0  0  0  0
 32 34  2  0  0  0  0
 37 38  1  0  0  0  0
M  END
> <PUBCHEM_COMPOUND_ID_TYPE>
0

> <PUBCHEM_TOTAL_CHARGE>
0

> <PUBCHEM_SUBSTANCE_ID>
310940292

> <PUBCHEM_SUBSTANCE_VERSION>
1

> <PUBCHEM_EXT_DATASOURCE_NAME>
4488

> <PUBCHEM_EXT_DATASOURCE_REGID>
SCHEMBL16118235

> <PUBCHEM_SUBSTANCE_COMMENT>
InChI=1S/C25H31N7O5S2/c1-30(2)39(35,36)19-6-4-18(5-7-19)28-22-21-20(8-13-27-23(21)33)32(29-22)25(9-12-26)10-14-31(15-11-25)24(34)37-16-17-38-3/h4-8,13H,9-11,14-17H2,1-3H3,(H,27,33)(H,28,29)
InChIKey=BIYWIHISHJJTFZ-UHFFFAOYSA-N

> <PUBCHEM_SUBSTANCE_SYNONYM>
SCHEMBL16118235

> <PUBCHEM_XREF_EXT_ID>
SCHEMBL16118235

> <PUBCHEM_EXT_DATASOURCE_URL>
https://www.surechembl.org/

> <PUBCHEM_EXT_SUBSTANCE_URL>
https://www.surechembl.org/chemical/SCHEMBL16118235

> <PUBCHEM_CID_ASSOCIATIONS>
117607372  1

> <PUBCHEM_COORDINATE_TYPE>
1
3

$$$$
