310938946
  -OEChem-07211613022D

 37 39  0     1  0  0  0  0  0999 V2000
    0.8440   15.1304    0.0000 O   0  0  0  0  0  0  0  0  0  0  0  0
    0.1296   16.3679    0.0000 O   0  0  0  0  0  0  0  0  0  0  0  0
   -2.0138   17.6054    0.0000 O   0  0  0  0  0  0  0  0  0  0  0  0
   -2.7283   16.3679    0.0000 O   0  0  0  0  0  0  0  0  0  0  0  0
   -0.5849   14.3054    0.0000 N   0  0  0  0  0  0  0  0  0  0  0  0
   -1.2994   16.3679    0.0000 N   0  0  0  0  0  0  0  0  0  0  0  0
   -0.5849   15.1304    0.0000 C   0  0  3  0  0  0  0  0  0  0  0  0
   -1.2994   15.5429    0.0000 C   0  0  3  0  0  0  0  0  0  0  0  0
    0.1296   13.8929    0.0000 C   0  0  0  0  0  0  0  0  0  0  0  0
    0.1296   15.5429    0.0000 C   0  0  0  0  0  0  0  0  0  0  0  0
   -2.0138   15.1304    0.0000 C   0  0  0  0  0  0  0  0  0  0  0  0
    0.1296   13.0679    0.0000 C   0  0  0  0  0  0  0  0  0  0  0  0
    0.8440   14.3054    0.0000 C   0  0  0  0  0  0  0  0  0  0  0  0
   -2.0138   16.7804    0.0000 C   0  0  0  0  0  0  0  0  0  0  0  0
   -2.7283   15.5429    0.0000 C   0  0  0  0  0  0  0  0  0  0  0  0
   -2.0138   14.3054    0.0000 C   0  0  0  0  0  0  0  0  0  0  0  0
    1.5585   15.5429    0.0000 C   0  0  0  0  0  0  0  0  0  0  0  0
   -0.5849   12.6554    0.0000 C   0  0  0  0  0  0  0  0  0  0  0  0
    1.5585   13.8929    0.0000 C   0  0  0  0  0  0  0  0  0  0  0  0
    0.8440   12.6554    0.0000 C   0  0  0  0  0  0  0  0  0  0  0  0
    0.8440   15.1304    0.0000 C   0  0  0  0  0  0  0  0  0  0  0  0
   -3.4428   15.1304    0.0000 C   0  0  0  0  0  0  0  0  0  0  0  0
   -2.7283   13.8929    0.0000 C   0  0  0  0  0  0  0  0  0  0  0  0
   -2.7283   18.0179    0.0000 C   0  0  0  0  0  0  0  0  0  0  0  0
   -0.5849   11.8304    0.0000 C   0  0  0  0  0  0  0  0  0  0  0  0
    2.2730   14.3054    0.0000 C   0  0  0  0  0  0  0  0  0  0  0  0
    0.8440   11.8304    0.0000 C   0  0  0  0  0  0  0  0  0  0  0  0
    1.5585   15.5429    0.0000 C   0  0  0  0  0  0  0  0  0  0  0  0
   -3.4428   14.3054    0.0000 C   0  0  0  0  0  0  0  0  0  0  0  0
    0.1296   11.4179    0.0000 C   0  0  0  0  0  0  0  0  0  0  0  0
    2.2730   15.1304    0.0000 C   0  0  0  0  0  0  0  0  0  0  0  0
    2.2730   15.1304    0.0000 C   0  0  0  0  0  0  0  0  0  0  0  0
    2.2730   15.9554    0.0000 C   0  0  0  0  0  0  0  0  0  0  0  0
    1.5585   16.3679    0.0000 C   0  0  0  0  0  0  0  0  0  0  0  0
   -2.7283   18.8429    0.0000 C   0  0  0  0  0  0  0  0  0  0  0  0
   -3.4428   18.4304    0.0000 C   0  0  0  0  0  0  0  0  0  0  0  0
   -3.4428   17.6054    0.0000 C   0  0  0  0  0  0  0  0  0  0  0  0
  1 10  1  0  0  0  0
  1 17  1  0  0  0  0
  2 10  2  0  0  0  0
  3 14  1  0  0  0  0
  3 24  1  0  0  0  0
  4 14  2  0  0  0  0
  7  5  1  1  0  0  0
  5  9  2  0  0  0  0
  8  6  1  1  0  0  0
  6 14  1  0  0  0  0
  7  8  1  0  0  0  0
  7 10  1  0  0  0  0
  8 11  1  0  0  0  0
  9 12  1  0  0  0  0
  9 13  1  0  0  0  0
 11 15  2  0  0  0  0
 11 16  1  0  0  0  0
 12 18  2  0  0  0  0
 12 20  1  0  0  0  0
 13 19  2  0  0  0  0
 13 21  1  0  0  0  0
 15 22  1  0  0  0  0
 16 23  2  0  0  0  0
 17 32  1  0  0  0  0
 17 33  1  0  0  0  0
 17 34  1  0  0  0  0
 18 25  1  0  0  0  0
 19 26  1  0  0  0  0
 20 27  2  0  0  0  0
 21 28  2  0  0  0  0
 22 29  2  0  0  0  0
 23 29  1  0  0  0  0
 24 35  1  0  0  0  0
 24 36  1  0  0  0  0
 24 37  1  0  0  0  0
 25 30  2  0  0  0  0
 26 31  2  0  0  0  0
 27 30  1  0  0  0  0
 28 31  1  0  0  0  0
M  END
> <PUBCHEM_COMPOUND_ID_TYPE>
0

> <PUBCHEM_TOTAL_CHARGE>
0

> <PUBCHEM_SUBSTANCE_ID>
310938946

> <PUBCHEM_SUBSTANCE_VERSION>
1

> <PUBCHEM_EXT_DATASOURCE_NAME>
4488

> <PUBCHEM_EXT_DATASOURCE_REGID>
SCHEMBL16116865

> <PUBCHEM_SUBSTANCE_COMMENT>
InChI=1S/C31H36N2O4/c1-30(2,3)36-28(34)27(26(24-20-14-9-15-21-24)33-29(35)37-31(4,5)6)32-25(22-16-10-7-11-17-22)23-18-12-8-13-19-23/h7-21,26-27H,1-6H3,(H,33,35)/t26-,27+/m1/s1
InChIKey=MKFVPZVJYTWPDE-SXOMAYOGSA-N

> <PUBCHEM_SUBSTANCE_SYNONYM>
SCHEMBL16116865

> <PUBCHEM_XREF_EXT_ID>
SCHEMBL16116865

> <PUBCHEM_EXT_DATASOURCE_URL>
https://www.surechembl.org/

> <PUBCHEM_EXT_SUBSTANCE_URL>
https://www.surechembl.org/chemical/SCHEMBL16116865

> <PUBCHEM_CID_ASSOCIATIONS>
72374455  1

> <PUBCHEM_COORDINATE_TYPE>
1
3

> <PUBCHEM_BONDANNOTATIONS>
7  5  5
8  6  5

$$$$
