310941670
  -OEChem-07211613022D

 27 30  0     0  0  0  0  0  0999 V2000
    0.4066    1.7620    0.0000 S   0  0  0  0  0  0  0  0  0  0  0  0
   -1.9608   -0.9126    0.0000 O   0  0  0  0  0  0  0  0  0  0  0  0
   -0.5150   -0.9126    0.0000 O   0  0  0  0  0  0  0  0  0  0  0  0
    3.2983    0.7681    0.0000 O   0  0  0  0  0  0  0  0  0  0  0  0
    0.2620    0.3886    0.0000 N   0  0  0  0  0  0  0  0  0  0  0  0
    1.6536    0.9488    0.0000 N   0  0  0  0  0  0  0  0  0  0  0  0
   -3.3886   -1.7620    0.0000 N   0  0  0  0  0  0  0  0  0  0  0  0
   -1.2199    0.3344    0.0000 C   0  0  0  0  0  0  0  0  0  0  0  0
   -2.6838   -0.4970    0.0000 C   0  0  0  0  0  0  0  0  0  0  0  0
   -0.5150    0.7681    0.0000 C   0  0  0  0  0  0  0  0  0  0  0  0
   -2.6657    0.3344    0.0000 C   0  0  0  0  0  0  0  0  0  0  0  0
   -1.2560   -0.4789    0.0000 C   0  0  0  0  0  0  0  0  0  0  0  0
   -1.9608    0.7500    0.0000 C   0  0  0  0  0  0  0  0  0  0  0  0
   -3.4067   -0.8946    0.0000 C   0  0  0  0  0  0  0  0  0  0  0  0
    0.8042    1.0392    0.0000 C   0  0  0  0  0  0  0  0  0  0  0  0
   -0.4066    1.5813    0.0000 C   0  0  0  0  0  0  0  0  0  0  0  0
   -3.4067    0.7319    0.0000 C   0  0  0  0  0  0  0  0  0  0  0  0
    1.9608    0.1898    0.0000 C   0  0  0  0  0  0  0  0  0  0  0  0
   -4.1115   -0.4970    0.0000 C   0  0  0  0  0  0  0  0  0  0  0  0
   -4.1115    0.3344    0.0000 C   0  0  0  0  0  0  0  0  0  0  0  0
    2.8102    0.0994    0.0000 C   0  0  0  0  0  0  0  0  0  0  0  0
    1.5090   -0.4970    0.0000 C   0  0  0  0  0  0  0  0  0  0  0  0
    3.1356   -0.6777    0.0000 C   0  0  0  0  0  0  0  0  0  0  0  0
    1.8344   -1.2380    0.0000 C   0  0  0  0  0  0  0  0  0  0  0  0
    2.6477   -1.3283    0.0000 C   0  0  0  0  0  0  0  0  0  0  0  0
   -3.3886   -1.7620    0.0000 C   0  0  0  0  0  0  0  0  0  0  0  0
    4.1115    0.6777    0.0000 C   0  0  0  0  0  0  0  0  0  0  0  0
  1 15  1  0  0  0  0
  1 16  1  0  0  0  0
  2  9  1  0  0  0  0
  2 12  1  0  0  0  0
  3 12  2  0  0  0  0
  4 21  1  0  0  0  0
  4 27  1  0  0  0  0
  5 10  1  0  0  0  0
  5 15  2  0  0  0  0
  6 15  1  0  0  0  0
  6 18  1  0  0  0  0
  7 14  1  0  0  0  0
  7 26  1  0  0  0  0
  8 10  1  0  0  0  0
  8 12  1  0  0  0  0
  8 13  2  0  0  0  0
  9 11  1  0  0  0  0
  9 14  2  0  0  0  0
 10 16  2  0  0  0  0
 11 13  1  0  0  0  0
 11 17  2  0  0  0  0
 14 19  1  0  0  0  0
 17 20  1  0  0  0  0
 18 21  1  0  0  0  0
 18 22  2  0  0  0  0
 19 20  2  0  0  0  0
 21 23  2  0  0  0  0
 22 24  1  0  0  0  0
 23 25  1  0  0  0  0
 24 25  2  0  0  0  0
M  END
> <PUBCHEM_COMPOUND_ID_TYPE>
0

> <PUBCHEM_TOTAL_CHARGE>
0

> <PUBCHEM_SUBSTANCE_ID>
310941670

> <PUBCHEM_SUBSTANCE_VERSION>
1

> <PUBCHEM_EXT_DATASOURCE_NAME>
4488

> <PUBCHEM_EXT_DATASOURCE_REGID>
SCHEMBL16119701

> <PUBCHEM_SUBSTANCE_COMMENT>
InChI=1S/C20H17N3O3S/c1-21-15-8-5-6-12-10-13(19(24)26-18(12)15)16-11-27-20(23-16)22-14-7-3-4-9-17(14)25-2/h3-11,21H,1-2H3,(H,22,23)
InChIKey=SWFSEUUEOLXMKE-UHFFFAOYSA-N

> <PUBCHEM_SUBSTANCE_SYNONYM>
SCHEMBL16119701

> <PUBCHEM_XREF_EXT_ID>
SCHEMBL16119701

> <PUBCHEM_EXT_DATASOURCE_URL>
https://www.surechembl.org/

> <PUBCHEM_EXT_SUBSTANCE_URL>
https://www.surechembl.org/chemical/SCHEMBL16119701

> <PUBCHEM_CID_ASSOCIATIONS>
117608450  1

> <PUBCHEM_COORDINATE_TYPE>
1
3

$$$$
