310938918
  -OEChem-07211613022D

102109  0     1  0  0  0  0  0999 V2000
    8.6052    0.4848    0.0000 P   0  0  3  0  0  0  0  0  0  0  0  0
    8.6052   -3.6530    0.0000 P   0  0  3  0  0  0  0  0  0  0  0  0
   -2.3513    0.5107    0.0000 O   0  0  0  0  0  0  0  0  0  0  0  0
   -2.3513   -3.6273    0.0000 O   0  0  0  0  0  0  0  0  0  0  0  0
   -1.6369    1.7481    0.0000 O   0  0  0  0  0  0  0  0  0  0  0  0
   -1.6369   -2.3897    0.0000 O   0  0  0  0  0  0  0  0  0  0  0  0
    1.2209    0.9231    0.0000 O   0  0  0  0  0  0  0  0  0  0  0  0
    1.2209   -3.2148    0.0000 O   0  0  0  0  0  0  0  0  0  0  0  0
    3.4160    0.4591    0.0000 O   0  0  0  0  0  0  0  0  0  0  0  0
    3.4160   -3.6788    0.0000 O   0  0  0  0  0  0  0  0  0  0  0  0
    3.4160    0.4591    0.0000 O   0  0  0  0  0  0  0  0  0  0  0  0
    3.4160   -3.6788    0.0000 O   0  0  0  0  0  0  0  0  0  0  0  0
    9.4301    0.4848    0.0000 O   0  0  0  0  0  0  0  0  0  0  0  0
    9.4301   -3.6530    0.0000 O   0  0  0  0  0  0  0  0  0  0  0  0
    7.7801    0.4848    0.0000 O   0  0  0  0  0  0  0  0  0  0  0  0
    7.7801   -3.6530    0.0000 O   0  0  0  0  0  0  0  0  0  0  0  0
    8.6052   -0.3401    0.0000 O   0  0  0  0  0  0  0  0  0  0  0  0
    8.6052   -4.4780    0.0000 O   0  0  0  0  0  0  0  0  0  0  0  0
    5.6366    0.8973    0.0000 O   0  0  0  0  0  0  0  0  0  0  0  0
    5.6366   -3.2405    0.0000 O   0  0  0  0  0  0  0  0  0  0  0  0
   -0.9224    0.5107    0.0000 N   0  0  0  0  0  0  0  0  0  0  0  0
   -0.9224   -3.6273    0.0000 N   0  0  0  0  0  0  0  0  0  0  0  0
   -6.6381    2.9856    0.0000 C   0  0  3  0  0  0  0  0  0  0  0  0
   -6.6381   -1.1523    0.0000 C   0  0  3  0  0  0  0  0  0  0  0  0
   -6.6381    2.1607    0.0000 C   0  0  3  0  0  0  0  0  0  0  0  0
   -6.6381   -1.9773    0.0000 C   0  0  3  0  0  0  0  0  0  0  0  0
   -5.2092    2.1607    0.0000 C   0  0  3  0  0  0  0  0  0  0  0  0
   -5.2092   -1.9773    0.0000 C   0  0  3  0  0  0  0  0  0  0  0  0
   -5.9237    1.7481    0.0000 C   0  0  3  0  0  0  0  0  0  0  0  0
   -5.9237   -2.3897    0.0000 C   0  0  3  0  0  0  0  0  0  0  0  0
   -4.4948    1.7481    0.0000 C   0  0  3  0  0  0  0  0  0  0  0  0
   -4.4948   -2.3897    0.0000 C   0  0  3  0  0  0  0  0  0  0  0  0
   -7.4228    3.2405    0.0000 C   0  0  3  0  0  0  0  0  0  0  0  0
   -7.4228   -0.8973    0.0000 C   0  0  3  0  0  0  0  0  0  0  0  0
   -4.4948    0.9231    0.0000 C   0  0  0  0  0  0  0  0  0  0  0  0
   -4.4948   -3.2148    0.0000 C   0  0  0  0  0  0  0  0  0  0  0  0
   -5.9237    3.3981    0.0000 C   0  0  0  0  0  0  0  0  0  0  0  0
   -5.9237   -0.7397    0.0000 C   0  0  0  0  0  0  0  0  0  0  0  0
   -5.2092    2.9856    0.0000 C   0  0  0  0  0  0  0  0  0  0  0  0
   -5.2092   -1.1523    0.0000 C   0  0  0  0  0  0  0  0  0  0  0  0
   -7.4228    1.9057    0.0000 C   0  0  0  0  0  0  0  0  0  0  0  0
   -7.4228   -2.2323    0.0000 C   0  0  0  0  0  0  0  0  0  0  0  0
   -5.9237    0.9231    0.0000 C   0  0  0  0  0  0  0  0  0  0  0  0
   -5.9237   -3.2148    0.0000 C   0  0  0  0  0  0  0  0  0  0  0  0
   -7.9077    2.5731    0.0000 C   0  0  0  0  0  0  0  0  0  0  0  0
   -7.9077   -1.5648    0.0000 C   0  0  0  0  0  0  0  0  0  0  0  0
   -3.7802    2.1607    0.0000 C   0  0  0  0  0  0  0  0  0  0  0  0
   -3.7802   -1.9773    0.0000 C   0  0  0  0  0  0  0  0  0  0  0  0
   -5.2092    0.5107    0.0000 C   0  0  0  0  0  0  0  0  0  0  0  0
   -5.2092   -3.6273    0.0000 C   0  0  0  0  0  0  0  0  0  0  0  0
   -7.4228    4.0656    0.0000 C   0  0  3  0  0  0  0  0  0  0  0  0
   -7.4228   -0.0724    0.0000 C   0  0  3  0  0  0  0  0  0  0  0  0
   -6.6381    3.8106    0.0000 C   0  0  0  0  0  0  0  0  0  0  0  0
   -6.6381   -0.3273    0.0000 C   0  0  0  0  0  0  0  0  0  0  0  0
   -3.7802    0.5107    0.0000 C   0  0  0  0  0  0  0  0  0  0  0  0
   -3.7802   -3.6273    0.0000 C   0  0  0  0  0  0  0  0  0  0  0  0
   -4.4948    2.5731    0.0000 C   0  0  0  0  0  0  0  0  0  0  0  0
   -4.4948   -1.5648    0.0000 C   0  0  0  0  0  0  0  0  0  0  0  0
   -3.0659    0.9231    0.0000 C   0  0  3  0  0  0  0  0  0  0  0  0
   -3.0659   -3.2148    0.0000 C   0  0  3  0  0  0  0  0  0  0  0  0
   -3.0659    1.7481    0.0000 C   0  0  0  0  0  0  0  0  0  0  0  0
   -3.0659   -2.3897    0.0000 C   0  0  0  0  0  0  0  0  0  0  0  0
   -8.1373    4.4780    0.0000 C   0  0  0  0  0  0  0  0  0  0  0  0
   -8.1373    0.3401    0.0000 C   0  0  0  0  0  0  0  0  0  0  0  0
   -6.7084    4.4780    0.0000 C   0  0  0  0  0  0  0  0  0  0  0  0
   -6.7084    0.3401    0.0000 C   0  0  0  0  0  0  0  0  0  0  0  0
   -8.8517    4.0656    0.0000 C   0  0  0  0  0  0  0  0  0  0  0  0
   -8.8517   -0.0724    0.0000 C   0  0  0  0  0  0  0  0  0  0  0  0
   -1.6369    0.9231    0.0000 C   0  0  0  0  0  0  0  0  0  0  0  0
   -1.6369   -3.2148    0.0000 C   0  0  0  0  0  0  0  0  0  0  0  0
   -9.5662    4.4780    0.0000 C   0  0  0  0  0  0  0  0  0  0  0  0
   -9.5662    0.3401    0.0000 C   0  0  0  0  0  0  0  0  0  0  0  0
  -10.2806    4.0656    0.0000 C   0  0  0  0  0  0  0  0  0  0  0  0
  -10.2806   -0.0724    0.0000 C   0  0  0  0  0  0  0  0  0  0  0  0
   -0.2080    0.9231    0.0000 C   0  0  0  0  0  0  0  0  0  0  0  0
   -0.2080   -3.2148    0.0000 C   0  0  0  0  0  0  0  0  0  0  0  0
  -10.9951    4.4780    0.0000 C   0  0  0  0  0  0  0  0  0  0  0  0
  -10.2806    3.2405    0.0000 C   0  0  0  0  0  0  0  0  0  0  0  0
  -10.9951    0.3401    0.0000 C   0  0  0  0  0  0  0  0  0  0  0  0
  -10.2806   -0.8973    0.0000 C   0  0  0  0  0  0  0  0  0  0  0  0
    0.5065    0.5107    0.0000 C   0  0  0  0  0  0  0  0  0  0  0  0
    0.5065   -3.6273    0.0000 C   0  0  0  0  0  0  0  0  0  0  0  0
    1.9871    0.4591    0.0000 C   0  0  0  0  0  0  0  0  0  0  0  0
    1.9871   -3.6788    0.0000 C   0  0  0  0  0  0  0  0  0  0  0  0
    2.7015    0.8716    0.0000 C   0  0  0  0  0  0  0  0  0  0  0  0
    2.7015   -3.2664    0.0000 C   0  0  0  0  0  0  0  0  0  0  0  0
    1.9871    0.4591    0.0000 C   0  0  0  0  0  0  0  0  0  0  0  0
    1.9871   -3.6788    0.0000 C   0  0  0  0  0  0  0  0  0  0  0  0
    2.7015    0.8716    0.0000 C   0  0  0  0  0  0  0  0  0  0  0  0
    2.7015   -3.2664    0.0000 C   0  0  0  0  0  0  0  0  0  0  0  0
    4.2077    0.8973    0.0000 C   0  0  0  0  0  0  0  0  0  0  0  0
    4.2077   -3.2405    0.0000 C   0  0  0  0  0  0  0  0  0  0  0  0
    4.9222    0.4848    0.0000 C   0  0  0  0  0  0  0  0  0  0  0  0
    4.9222   -3.6530    0.0000 C   0  0  0  0  0  0  0  0  0  0  0  0
   10.1446    0.0724    0.0000 C   0  0  0  0  0  0  0  0  0  0  0  0
   10.1446   -3.2405    0.0000 C   0  0  0  0  0  0  0  0  0  0  0  0
    8.6052    1.3099    0.0000 C   0  0  0  0  0  0  0  0  0  0  0  0
    8.6052   -2.8280    0.0000 C   0  0  0  0  0  0  0  0  0  0  0  0
    7.0656    0.8973    0.0000 C   0  0  0  0  0  0  0  0  0  0  0  0
    7.0656   -3.2405    0.0000 C   0  0  0  0  0  0  0  0  0  0  0  0
    6.3512    0.4848    0.0000 C   0  0  0  0  0  0  0  0  0  0  0  0
    6.3512   -3.6530    0.0000 C   0  0  0  0  0  0  0  0  0  0  0  0
  1 13  1  0  0  0  0
  1 15  1  0  0  0  0
  1 17  1  0  0  0  0
  1 97  2  0  0  0  0
  2 14  1  0  0  0  0
  2 16  1  0  0  0  0
  2 18  1  0  0  0  0
  2 98  2  0  0  0  0
 59  3  1  1  0  0  0
  3 69  1  0  0  0  0
 60  4  1  1  0  0  0
  4 70  1  0  0  0  0
  5 69  2  0  0  0  0
  6 70  2  0  0  0  0
  7 81  1  0  0  0  0
  7 83  1  0  0  0  0
  8 82  1  0  0  0  0
  8 84  1  0  0  0  0
  9 85  1  0  0  0  0
  9 87  1  0  0  0  0
 10 86  1  0  0  0  0
 10 88  1  0  0  0  0
 11 89  1  0  0  0  0
 11 91  1  0  0  0  0
 12 90  1  0  0  0  0
 12 92  1  0  0  0  0
 13 95  1  0  0  0  0
 14 96  1  0  0  0  0
 15 99  1  0  0  0  0
 16100  1  0  0  0  0
 19 93  1  0  0  0  0
 19101  1  0  0  0  0
 20 94  1  0  0  0  0
 20102  1  0  0  0  0
 21 69  1  0  0  0  0
 21 75  1  0  0  0  0
 22 70  1  0  0  0  0
 22 76  1  0  0  0  0
 23 25  1  0  0  0  0
 23 33  1  0  0  0  0
 23 37  1  0  0  0  0
 23 53  1  1  0  0  0
 24 26  1  0  0  0  0
 24 34  1  0  0  0  0
 24 38  1  0  0  0  0
 24 54  1  1  0  0  0
 25 29  1  0  0  0  0
 25 41  1  0  0  0  0
 26 30  1  0  0  0  0
 26 42  1  0  0  0  0
 27 29  1  0  0  0  0
 27 31  1  0  0  0  0
 27 39  1  0  0  0  0
 28 30  1  0  0  0  0
 28 32  1  0  0  0  0
 28 40  1  0  0  0  0
 29 43  1  0  0  0  0
 30 44  1  0  0  0  0
 31 35  1  0  0  0  0
 31 47  1  0  0  0  0
 31 57  1  1  0  0  0
 32 36  1  0  0  0  0
 32 48  1  0  0  0  0
 32 58  1  1  0  0  0
 33 45  1  0  0  0  0
 33 51  1  0  0  0  0
 34 46  1  0  0  0  0
 34 52  1  0  0  0  0
 35 49  2  0  0  0  0
 35 55  1  0  0  0  0
 36 50  2  0  0  0  0
 36 56  1  0  0  0  0
 37 39  1  0  0  0  0
 38 40  1  0  0  0  0
 41 45  1  0  0  0  0
 42 46  1  0  0  0  0
 43 49  1  0  0  0  0
 44 50  1  0  0  0  0
 47 61  1  0  0  0  0
 48 62  1  0  0  0  0
 51 63  1  0  0  0  0
 51 65  1  0  0  0  0
 52 64  1  0  0  0  0
 52 66  1  0  0  0  0
 55 59  1  0  0  0  0
 56 60  1  0  0  0  0
 59 61  1  0  0  0  0
 60 62  1  0  0  0  0
 63 67  1  0  0  0  0
 64 68  1  0  0  0  0
 67 71  1  0  0  0  0
 68 72  1  0  0  0  0
 71 73  1  0  0  0  0
 72 74  1  0  0  0  0
 73 77  1  0  0  0  0
 73 78  1  0  0  0  0
 74 79  1  0  0  0  0
 74 80  1  0  0  0  0
 75 81  1  0  0  0  0
 76 82  1  0  0  0  0
 83 85  1  0  0  0  0
 84 86  1  0  0  0  0
 87 89  1  0  0  0  0
 88 90  1  0  0  0  0
 91 93  1  0  0  0  0
 92 94  1  0  0  0  0
 95 96  1  0  0  0  0
 99101  1  0  0  0  0
100102  1  0  0  0  0
M  END
> <PUBCHEM_COMPOUND_ID_TYPE>
0

> <PUBCHEM_TOTAL_CHARGE>
0

> <PUBCHEM_SUBSTANCE_ID>
310938918

> <PUBCHEM_SUBSTANCE_VERSION>
1

> <PUBCHEM_EXT_DATASOURCE_NAME>
4488

> <PUBCHEM_EXT_DATASOURCE_REGID>
SCHEMBL16116837

> <PUBCHEM_SUBSTANCE_COMMENT>
InChI=1S/C80H142N2O18P2/c1-59(2)15-13-17-61(5)69-23-25-71-67-21-19-63-57-65(27-31-77(63,7)73(67)29-33-79(69,71)9)99-75(83)81-35-37-87-39-41-89-43-45-91-47-49-93-51-53-95-101(11,85)97-55-56-98-102(12,86)96-54-52-94-50-48-92-46-44-90-42-40-88-38-36-82-76(84)100-66-28-32-78(8)64(58-66)20-22-68-72-26-24-70(62(6)18-14-16-60(3)4)80(72,10)34-30-74(68)78/h19-20,59-62,65-74,85-86H,11-18,21-58H2,1-10H3,(H,81,83)(H,82,84)/t61?,62?,65-,66-,67?,68?,69?,70?,71?,72?,73?,74?,77-,78-,79+,80+,101?,102?/m1/s1
InChIKey=FBUXSALVLCBCGQ-VQCYXAQFSA-N

> <PUBCHEM_SUBSTANCE_SYNONYM>
SCHEMBL16116837

> <PUBCHEM_XREF_EXT_ID>
SCHEMBL16116837

> <PUBCHEM_EXT_DATASOURCE_URL>
https://www.surechembl.org/

> <PUBCHEM_EXT_SUBSTANCE_URL>
https://www.surechembl.org/chemical/SCHEMBL16116837

> <PUBCHEM_CID_ASSOCIATIONS>
117606315  1

> <PUBCHEM_COORDINATE_TYPE>
1
3

> <PUBCHEM_BONDANNOTATIONS>
23  53  5
24  54  5
59  3  5
31  57  5
32  58  5
60  4  5

$$$$
