310943023
  -OEChem-07211613022D

 34 38  0     1  0  0  0  0  0999 V2000
    3.0226   -0.4178    0.0000 F   0  0  0  0  0  0  0  0  0  0  0  0
    2.4714   -1.3957    0.0000 F   0  0  0  0  0  0  0  0  0  0  0  0
    1.4935   -0.8268    0.0000 F   0  0  0  0  0  0  0  0  0  0  0  0
   -2.4181   -2.5869    0.0000 O   0  0  0  0  0  0  0  0  0  0  0  0
   -2.4358    2.1781    0.0000 O   0  0  0  0  0  0  0  0  0  0  0  0
   -1.7069    0.0978    0.0000 N   0  0  0  0  0  0  0  0  0  0  0  0
   -1.0490   -0.4000    0.0000 N   0  0  0  0  0  0  0  0  0  0  0  0
   -0.8178   -1.8580    0.0000 N   0  0  0  0  0  0  0  0  0  0  0  0
   -3.4848   -1.6268    0.0000 N   0  0  0  0  0  0  0  0  0  0  0  0
    3.7338   -1.8047    0.0000 N   0  0  0  0  0  0  0  0  0  0  0  0
    0.4268    0.5423    0.0000 N   0  0  0  0  0  0  0  0  0  0  0  0
    2.4536   -1.3957    0.0000 C   0  0  3  0  0  0  0  0  0  0  0  0
   -2.1336   -1.1468    0.0000 C   0  0  0  0  0  0  0  0  0  0  0  0
   -2.3825   -0.4000    0.0000 C   0  0  0  0  0  0  0  0  0  0  0  0
   -1.2979   -1.1824    0.0000 C   0  0  0  0  0  0  0  0  0  0  0  0
    2.2402   -0.6134    0.0000 C   0  0  0  0  0  0  0  0  0  0  0  0
    1.6536   -1.5202    0.0000 C   0  0  0  0  0  0  0  0  0  0  0  0
   -1.7069    0.9512    0.0000 C   0  0  3  0  0  0  0  0  0  0  0  0
   -2.7026   -1.7869    0.0000 C   0  0  0  0  0  0  0  0  0  0  0  0
    2.9693   -2.0714    0.0000 C   0  0  0  0  0  0  0  0  0  0  0  0
    2.9515   -0.7379    0.0000 C   0  0  0  0  0  0  0  0  0  0  0  0
   -0.0178   -1.7513    0.0000 C   0  0  0  0  0  0  0  0  0  0  0  0
   -3.1826   -0.2222    0.0000 C   0  0  0  0  0  0  0  0  0  0  0  0
    1.3335   -2.2847    0.0000 C   0  0  0  0  0  0  0  0  0  0  0  0
    1.1201   -0.8979    0.0000 C   0  0  0  0  0  0  0  0  0  0  0  0
   -1.0134    1.3424    0.0000 C   0  0  3  0  0  0  0  0  0  0  0  0
    0.5156   -2.4092    0.0000 C   0  0  0  0  0  0  0  0  0  0  0  0
    0.3201   -1.0046    0.0000 C   0  0  0  0  0  0  0  0  0  0  0  0
    3.7338   -0.9690    0.0000 C   0  0  0  0  0  0  0  0  0  0  0  0
   -3.7338   -0.8446    0.0000 C   0  0  0  0  0  0  0  0  0  0  0  0
   -2.4358    1.3424    0.0000 C   0  0  0  0  0  0  0  0  0  0  0  0
   -0.9957    2.1781    0.0000 C   0  0  0  0  0  0  0  0  0  0  0  0
   -0.2845    0.9335    0.0000 C   0  0  0  0  0  0  0  0  0  0  0  0
   -1.7247    2.5869    0.0000 C   0  0  0  0  0  0  0  0  0  0  0  0
  1 16  1  0  0  0  0
  2 16  1  0  0  0  0
  3 16  1  0  0  0  0
  4 19  2  0  0  0  0
  5 31  1  0  0  0  0
  5 34  1  0  0  0  0
  6  7  1  0  0  0  0
  6 14  1  0  0  0  0
 18  6  1  1  0  0  0
  7 15  2  0  0  0  0
  8 15  1  0  0  0  0
  8 22  1  0  0  0  0
  9 19  1  0  0  0  0
  9 30  1  0  0  0  0
 10 20  1  0  0  0  0
 10 29  1  0  0  0  0
 11 33  3  0  0  0  0
 12 16  1  0  0  0  0
 12 17  1  0  0  0  0
 12 20  1  0  0  0  0
 12 21  1  0  0  0  0
 13 14  2  0  0  0  0
 13 15  1  0  0  0  0
 13 19  1  0  0  0  0
 14 23  1  0  0  0  0
 17 24  2  0  0  0  0
 17 25  1  0  0  0  0
 18 26  1  0  0  0  0
 18 31  1  0  0  0  0
 21 29  1  0  0  0  0
 22 27  2  0  0  0  0
 22 28  1  0  0  0  0
 23 30  2  0  0  0  0
 24 27  1  0  0  0  0
 25 28  2  0  0  0  0
 26 32  1  0  0  0  0
 26 33  1  6  0  0  0
 32 34  1  0  0  0  0
M  END
> <PUBCHEM_COMPOUND_ID_TYPE>
0

> <PUBCHEM_TOTAL_CHARGE>
0

> <PUBCHEM_SUBSTANCE_ID>
310943023

> <PUBCHEM_SUBSTANCE_VERSION>
1

> <PUBCHEM_EXT_DATASOURCE_NAME>
4488

> <PUBCHEM_EXT_DATASOURCE_REGID>
SCHEMBL16121082

> <PUBCHEM_SUBSTANCE_COMMENT>
InChI=1S/C23H23F3N6O2/c24-23(25,26)22(7-9-28-13-22)15-1-3-16(4-2-15)30-20-19-17(5-8-29-21(19)33)32(31-20)18-12-34-10-6-14(18)11-27/h1-5,8,14,18,28H,6-7,9-10,12-13H2,(H,29,33)(H,30,31)/t14-,18+,22?/m1/s1
InChIKey=AMKKANDRKJPEOS-RZOYMLOVSA-N

> <PUBCHEM_SUBSTANCE_SYNONYM>
SCHEMBL16121082

> <PUBCHEM_XREF_EXT_ID>
SCHEMBL16121082

> <PUBCHEM_EXT_DATASOURCE_URL>
https://www.surechembl.org/

> <PUBCHEM_EXT_SUBSTANCE_URL>
https://www.surechembl.org/chemical/SCHEMBL16121082

> <PUBCHEM_CID_ASSOCIATIONS>
117609468  1

> <PUBCHEM_COORDINATE_TYPE>
1
3

> <PUBCHEM_BONDANNOTATIONS>
26  33  6
18  6  5

$$$$
