310947485
  -OEChem-07211613022D

 24 24  0     0  0  0  0  0  0999 V2000
    3.2231    2.3049    0.0000 O   0  0  0  0  0  0  0  0  0  0  0  0
   -1.8239   -1.4429    0.0000 O   0  0  0  0  0  0  0  0  0  0  0  0
   -0.2374   -1.4429    0.0000 N   0  0  0  0  0  0  0  0  0  0  0  0
    2.5111    1.0681    0.0000 C   0  0  0  0  0  0  0  0  0  0  0  0
    3.2356    0.6434    0.0000 C   0  0  0  0  0  0  0  0  0  0  0  0
    2.5236    1.8926    0.0000 C   0  0  0  0  0  0  0  0  0  0  0  0
    1.7865    0.6559    0.0000 C   0  0  0  0  0  0  0  0  0  0  0  0
    1.0744    1.0681    0.0000 C   0  0  0  0  0  0  0  0  0  0  0  0
    1.7989    2.3049    0.0000 C   0  0  0  0  0  0  0  0  0  0  0  0
    1.0869    1.8926    0.0000 C   0  0  0  0  0  0  0  0  0  0  0  0
    0.3623    0.6434    0.0000 C   0  0  0  0  0  0  0  0  0  0  0  0
    3.2356    0.6434    0.0000 C   0  0  0  0  0  0  0  0  0  0  0  0
    3.2356    0.6434    0.0000 C   0  0  0  0  0  0  0  0  0  0  0  0
    3.2356    0.6434    0.0000 C   0  0  0  0  0  0  0  0  0  0  0  0
   -1.0744   -1.8551    0.0000 C   0  0  0  0  0  0  0  0  0  0  0  0
   -1.0994   -2.6797    0.0000 C   0  0  0  0  0  0  0  0  0  0  0  0
    0.3498   -0.1937    0.0000 C   0  0  0  0  0  0  0  0  0  0  0  0
   -0.3498   -0.6059    0.0000 C   0  0  0  0  0  0  0  0  0  0  0  0
   -0.3623   -3.1045    0.0000 C   0  0  0  0  0  0  0  0  0  0  0  0
   -1.7989   -3.1045    0.0000 C   0  0  0  0  0  0  0  0  0  0  0  0
    0.3498   -2.6922    0.0000 C   0  0  0  0  0  0  0  0  0  0  0  0
   -2.5361   -2.6922    0.0000 C   0  0  0  0  0  0  0  0  0  0  0  0
    1.0744   -3.1045    0.0000 C   0  0  0  0  0  0  0  0  0  0  0  0
   -3.2356   -3.1169    0.0000 C   0  0  0  0  0  0  0  0  0  0  0  0
  1  6  1  0  0  0  0
  2 15  2  0  0  0  0
  3 15  1  0  0  0  0
  3 18  1  0  0  0  0
  4  5  1  0  0  0  0
  4  6  1  0  0  0  0
  4  7  2  0  0  0  0
  5 12  1  0  0  0  0
  5 13  1  0  0  0  0
  5 14  1  0  0  0  0
  6  9  2  0  0  0  0
  7  8  1  0  0  0  0
  8 10  2  0  0  0  0
  8 11  1  0  0  0  0
  9 10  1  0  0  0  0
 11 17  1  0  0  0  0
 15 16  1  0  0  0  0
 16 19  1  0  0  0  0
 16 20  1  0  0  0  0
 17 18  1  0  0  0  0
 19 21  1  0  0  0  0
 20 22  1  0  0  0  0
 21 23  1  0  0  0  0
 22 24  1  0  0  0  0
M  END
> <PUBCHEM_COMPOUND_ID_TYPE>
0

> <PUBCHEM_TOTAL_CHARGE>
0

> <PUBCHEM_SUBSTANCE_ID>
310947485

> <PUBCHEM_SUBSTANCE_VERSION>
1

> <PUBCHEM_EXT_DATASOURCE_NAME>
4488

> <PUBCHEM_EXT_DATASOURCE_REGID>
SCHEMBL16125647

> <PUBCHEM_SUBSTANCE_COMMENT>
InChI=1S/C21H35NO2/c1-6-9-17(10-7-2)20(24)22-14-8-11-16-12-13-19(23)18(15-16)21(3,4)5/h12-13,15,17,23H,6-11,14H2,1-5H3,(H,22,24)
InChIKey=LDBWKRKRYZYVTE-UHFFFAOYSA-N

> <PUBCHEM_SUBSTANCE_SYNONYM>
SCHEMBL16125647

> <PUBCHEM_XREF_EXT_ID>
SCHEMBL16125647

> <PUBCHEM_EXT_DATASOURCE_URL>
https://www.surechembl.org/

> <PUBCHEM_EXT_SUBSTANCE_URL>
https://www.surechembl.org/chemical/SCHEMBL16125647

> <PUBCHEM_CID_ASSOCIATIONS>
117613215  1

> <PUBCHEM_COORDINATE_TYPE>
1
3

$$$$
