310943245
  -OEChem-07211613022D

 35 38  0     0  0  0  0  0  0999 V2000
    3.0505   -1.5983    0.0000 S   0  0  0  0  0  0  0  0  0  0  0  0
   -3.3526    0.4776    0.0000 O   0  0  0  0  0  0  0  0  0  0  0  0
    0.9161    0.4630    0.0000 O   0  0  0  0  0  0  0  0  0  0  0  0
   -4.7706    2.9628    0.0000 O   0  0  0  0  0  0  0  0  0  0  0  0
    3.0505   -1.5983    0.0000 O   0  0  0  0  0  0  0  0  0  0  0  0
    3.0505   -1.5983    0.0000 O   0  0  0  0  0  0  0  0  0  0  0  0
   -3.3526    2.1295    0.0000 N   0  0  0  0  0  0  0  0  0  0  0  0
   -1.9345    0.4776    0.0000 N   0  0  0  0  0  0  0  0  0  0  0  0
    0.1998    3.3721    0.0000 N   0  0  0  0  0  0  0  0  0  0  0  0
    1.6324    1.7202    0.0000 N   0  0  0  0  0  0  0  0  0  0  0  0
   -1.2036    1.7202    0.0000 C   0  0  0  0  0  0  0  0  0  0  0  0
   -0.5165    2.1295    0.0000 C   0  0  0  0  0  0  0  0  0  0  0  0
   -2.6362    1.7202    0.0000 C   0  0  0  0  0  0  0  0  0  0  0  0
   -2.6508    0.8869    0.0000 C   0  0  0  0  0  0  0  0  0  0  0  0
   -1.9492    2.1295    0.0000 C   0  0  0  0  0  0  0  0  0  0  0  0
   -0.5019    2.9628    0.0000 C   0  0  0  0  0  0  0  0  0  0  0  0
    0.1998    1.7202    0.0000 C   0  0  0  0  0  0  0  0  0  0  0  0
    0.9161    2.1295    0.0000 C   0  0  0  0  0  0  0  0  0  0  0  0
   -1.2182    0.8869    0.0000 C   0  0  0  0  0  0  0  0  0  0  0  0
    2.3487    0.4776    0.0000 C   0  0  0  0  0  0  0  0  0  0  0  0
    1.6324    0.9016    0.0000 C   0  0  0  0  0  0  0  0  0  0  0  0
    3.0651   -0.7650    0.0000 C   0  0  0  0  0  0  0  0  0  0  0  0
    0.9161    2.9482    0.0000 C   0  0  0  0  0  0  0  0  0  0  0  0
    2.3487   -0.3557    0.0000 C   0  0  0  0  0  0  0  0  0  0  0  0
   -3.3526    2.9628    0.0000 C   0  0  0  0  0  0  0  0  0  0  0  0
   -4.0543    1.7202    0.0000 C   0  0  0  0  0  0  0  0  0  0  0  0
    3.0505    0.8723    0.0000 C   0  0  0  0  0  0  0  0  0  0  0  0
    3.7668   -0.3557    0.0000 C   0  0  0  0  0  0  0  0  0  0  0  0
   -1.2329    3.3575    0.0000 C   0  0  0  0  0  0  0  0  0  0  0  0
    3.7668    0.4630    0.0000 C   0  0  0  0  0  0  0  0  0  0  0  0
   -4.0835    3.3721    0.0000 C   0  0  0  0  0  0  0  0  0  0  0  0
   -4.7706    2.1295    0.0000 C   0  0  0  0  0  0  0  0  0  0  0  0
   -4.0835    0.8869    0.0000 C   0  0  0  0  0  0  0  0  0  0  0  0
    4.7706   -3.3721    0.0000 C   0  0  0  0  0  0  0  0  0  0  0  0
   -4.7706    0.4630    0.0000 C   0  0  0  0  0  0  0  0  0  0  0  0
  1  5  2  0  0  0  0
  1  6  2  0  0  0  0
  1 22  1  0  0  0  0
  1 34  1  0  0  0  0
  2 14  1  0  0  0  0
  2 33  1  0  0  0  0
  3 21  2  0  0  0  0
  4 31  1  0  0  0  0
  4 32  1  0  0  0  0
  7 13  1  0  0  0  0
  7 25  1  0  0  0  0
  7 26  1  0  0  0  0
  8 14  2  0  0  0  0
  8 19  1  0  0  0  0
  9 16  1  0  0  0  0
  9 23  2  0  0  0  0
 10 18  1  0  0  0  0
 10 21  1  0  0  0  0
 11 12  1  0  0  0  0
 11 15  1  0  0  0  0
 11 19  2  0  0  0  0
 12 16  2  0  0  0  0
 12 17  1  0  0  0  0
 13 14  1  0  0  0  0
 13 15  2  0  0  0  0
 16 29  1  0  0  0  0
 17 18  2  0  0  0  0
 18 23  1  0  0  0  0
 20 21  1  0  0  0  0
 20 24  2  0  0  0  0
 20 27  1  0  0  0  0
 22 24  1  0  0  0  0
 22 28  2  0  0  0  0
 25 31  1  0  0  0  0
 26 32  1  0  0  0  0
 27 30  2  0  0  0  0
 28 30  1  0  0  0  0
 33 35  1  0  0  0  0
M  END
> <PUBCHEM_COMPOUND_ID_TYPE>
0

> <PUBCHEM_TOTAL_CHARGE>
0

> <PUBCHEM_SUBSTANCE_ID>
310943245

> <PUBCHEM_SUBSTANCE_VERSION>
1

> <PUBCHEM_EXT_DATASOURCE_NAME>
4488

> <PUBCHEM_EXT_DATASOURCE_REGID>
SCHEMBL16121307

> <PUBCHEM_SUBSTANCE_COMMENT>
InChI=1S/C25H28N4O5S/c1-4-34-25-23(29-8-10-33-11-9-29)13-19(15-27-25)22-14-20(16-26-17(22)2)28-24(30)18-6-5-7-21(12-18)35(3,31)32/h5-7,12-16H,4,8-11H2,1-3H3,(H,28,30)
InChIKey=JZTQQPSBEINRGR-UHFFFAOYSA-N

> <PUBCHEM_SUBSTANCE_SYNONYM>
SCHEMBL16121307

> <PUBCHEM_XREF_EXT_ID>
SCHEMBL16121307

> <PUBCHEM_EXT_DATASOURCE_URL>
https://www.surechembl.org/

> <PUBCHEM_EXT_SUBSTANCE_URL>
https://www.surechembl.org/chemical/SCHEMBL16121307

> <PUBCHEM_CID_ASSOCIATIONS>
117609670  1

> <PUBCHEM_COORDINATE_TYPE>
1
3

$$$$
