310948382
  -OEChem-07211613022D

 26 27  0     0  0  0  0  0  0999 V2000
   -3.2610   -1.4325    0.0000 Cl  0  0  0  0  0  0  0  0  0  0  0  0
   -3.9233   -0.0072    0.0000 O   0  0  0  0  0  0  0  0  0  0  0  0
   -3.0882    1.4325    0.0000 O   0  0  0  0  0  0  0  0  0  0  0  0
   -0.6119   -0.0072    0.0000 N   0  0  0  0  0  0  0  0  0  0  0  0
   -3.0882    1.4325    0.0000 N   0  0  0  0  0  0  0  0  0  0  0  0
    2.6995   -0.0072    0.0000 N   0  0  0  0  0  0  0  0  0  0  0  0
   -1.4613    0.0072    0.0000 C   0  0  0  0  0  0  0  0  0  0  0  0
   -1.8500   -0.7127    0.0000 C   0  0  0  0  0  0  0  0  0  0  0  0
   -2.6707   -0.7127    0.0000 C   0  0  0  0  0  0  0  0  0  0  0  0
   -3.0738   -0.0072    0.0000 C   0  0  0  0  0  0  0  0  0  0  0  0
   -2.6852    0.7271    0.0000 C   0  0  0  0  0  0  0  0  0  0  0  0
   -1.8356    0.6983    0.0000 C   0  0  0  0  0  0  0  0  0  0  0  0
    0.2231   -0.0072    0.0000 C   0  0  0  0  0  0  0  0  0  0  0  0
    0.6262    0.7127    0.0000 C   0  0  0  0  0  0  0  0  0  0  0  0
    1.8644    0.0072    0.0000 C   0  0  0  0  0  0  0  0  0  0  0  0
    0.6262   -0.7127    0.0000 C   0  0  0  0  0  0  0  0  0  0  0  0
    1.4613    0.6983    0.0000 C   0  0  0  0  0  0  0  0  0  0  0  0
    1.4613   -0.7127    0.0000 C   0  0  0  0  0  0  0  0  0  0  0  0
   -1.4470   -1.4325    0.0000 C   0  0  0  0  0  0  0  0  0  0  0  0
   -0.0360    1.4325    0.0000 C   0  0  0  0  0  0  0  0  0  0  0  0
   -3.0882    1.4325    0.0000 C   0  0  0  0  0  0  0  0  0  0  0  0
    3.1026    0.7127    0.0000 C   0  0  0  0  0  0  0  0  0  0  0  0
    3.1026   -0.7127    0.0000 C   0  0  0  0  0  0  0  0  0  0  0  0
    3.9233   -0.7127    0.0000 C   0  0  0  0  0  0  0  0  0  0  0  0
    3.9233    0.7127    0.0000 C   0  0  0  0  0  0  0  0  0  0  0  0
   -3.0882    1.4325    0.0000 C   0  0  0  0  0  0  0  0  0  0  0  0
  1  9  1  0  0  0  0
  2 10  2  0  0  0  0
  3 21  1  0  0  0  0
  3 26  1  0  0  0  0
  4  7  2  3  0  0  0
  4 13  1  0  0  0  0
  5 11  1  0  0  0  0
  5 21  2  3  0  0  0
  6 15  1  0  0  0  0
  6 22  1  0  0  0  0
  6 23  1  0  0  0  0
  7  8  1  0  0  0  0
  7 12  1  0  0  0  0
  8  9  2  0  0  0  0
  8 19  1  0  0  0  0
  9 10  1  0  0  0  0
 10 11  1  0  0  0  0
 11 12  2  0  0  0  0
 13 14  1  0  0  0  0
 13 16  2  0  0  0  0
 14 17  2  0  0  0  0
 14 20  1  0  0  0  0
 15 17  1  0  0  0  0
 15 18  2  0  0  0  0
 16 18  1  0  0  0  0
 22 25  1  0  0  0  0
 23 24  1  0  0  0  0
M  END
> <PUBCHEM_COMPOUND_ID_TYPE>
0

> <PUBCHEM_TOTAL_CHARGE>
0

> <PUBCHEM_SUBSTANCE_ID>
310948382

> <PUBCHEM_SUBSTANCE_VERSION>
1

> <PUBCHEM_EXT_DATASOURCE_NAME>
4488

> <PUBCHEM_EXT_DATASOURCE_REGID>
SCHEMBL16126563

> <PUBCHEM_SUBSTANCE_COMMENT>
InChI=1S/C20H24ClN3O2/c1-6-24(7-2)15-8-9-16(13(3)10-15)23-17-11-18(22-12-26-5)20(25)19(21)14(17)4/h8-12H,6-7H2,1-5H3/b22-12-,23-17-
InChIKey=AAEQOPUIQZAGBC-CAAQUXDGSA-N

> <PUBCHEM_SUBSTANCE_SYNONYM>
SCHEMBL16126563

> <PUBCHEM_XREF_EXT_ID>
SCHEMBL16126563

> <PUBCHEM_EXT_DATASOURCE_URL>
https://www.surechembl.org/

> <PUBCHEM_EXT_SUBSTANCE_URL>
https://www.surechembl.org/chemical/SCHEMBL16126563

> <PUBCHEM_CID_ASSOCIATIONS>
20579924  1

> <PUBCHEM_COORDINATE_TYPE>
1
3

$$$$
