310946720
  -OEChem-07211613022D

 29 31  0     0  0  0  0  0  0999 V2000
    0.9516    0.7931    0.0000 F   0  0  0  0  0  0  0  0  0  0  0  0
    1.1973   -1.0591    0.0000 N   0  0  0  0  0  0  0  0  0  0  0  0
    0.0512   -1.8777    0.0000 N   0  0  0  0  0  0  0  0  0  0  0  0
   -0.5014    0.7931    0.0000 N   0  0  0  0  0  0  0  0  0  0  0  0
    0.1637    0.3121    0.0000 N   0  0  0  0  0  0  0  0  0  0  0  0
    2.5071   -1.6321    0.0000 N   0  0  0  0  0  0  0  0  0  0  0  0
    0.1740   -3.2899    0.0000 N   0  0  0  0  0  0  0  0  0  0  0  0
    2.5071   -1.6321    0.0000 N   0  0  0  0  0  0  0  0  0  0  0  0
    0.1740   -3.2899    0.0000 N   0  0  0  0  0  0  0  0  0  0  0  0
    2.5071   -1.6321    0.0000 N   0  0  0  0  0  0  0  0  0  0  0  0
    0.1740   -3.2899    0.0000 N   0  0  0  0  0  0  0  0  0  0  0  0
    0.3786   -1.1103    0.0000 C   0  0  0  0  0  0  0  0  0  0  0  0
   -0.0818   -0.4451    0.0000 C   0  0  0  0  0  0  0  0  0  0  0  0
   -0.9414   -0.4553    0.0000 C   0  0  0  0  0  0  0  0  0  0  0  0
   -1.1973    0.3326    0.0000 C   0  0  0  0  0  0  0  0  0  0  0  0
    1.6679   -1.6731    0.0000 C   0  0  0  0  0  0  0  0  0  0  0  0
    0.5116   -2.5020    0.0000 C   0  0  0  0  0  0  0  0  0  0  0  0
    1.3303   -2.4303    0.0000 C   0  0  0  0  0  0  0  0  0  0  0  0
   -1.4736   -1.0693    0.0000 C   0  0  0  0  0  0  0  0  0  0  0  0
   -1.9954    0.4963    0.0000 C   0  0  0  0  0  0  0  0  0  0  0  0
   -2.2922   -0.9056    0.0000 C   0  0  0  0  0  0  0  0  0  0  0  0
    0.2047    2.0619    0.0000 C   0  0  0  0  0  0  0  0  0  0  0  0
   -2.5071   -0.1075    0.0000 C   0  0  0  0  0  0  0  0  0  0  0  0
   -0.5116    1.6731    0.0000 C   0  0  0  0  0  0  0  0  0  0  0  0
    0.9414    1.6526    0.0000 C   0  0  0  0  0  0  0  0  0  0  0  0
    0.2149    2.8908    0.0000 C   0  0  0  0  0  0  0  0  0  0  0  0
    1.6577    2.0619    0.0000 C   0  0  0  0  0  0  0  0  0  0  0  0
    0.9312    3.2899    0.0000 C   0  0  0  0  0  0  0  0  0  0  0  0
    1.6577    2.9010    0.0000 C   0  0  0  0  0  0  0  0  0  0  0  0
  1 25  1  0  0  0  0
  2 12  1  0  0  0  0
  2 16  2  0  0  0  0
  3 12  2  0  0  0  0
  3 17  1  0  0  0  0
  4 15  1  0  0  0  0
  4 24  1  0  0  0  0
  5 13  2  3  0  0  0
  6  8  2  3  0  0  0
  6 16  1  0  0  0  0
  7  9  1  0  0  0  0
  7 17  1  0  0  0  0
  8 10  1  0  0  0  0
  9 11  2  3  0  0  0
 12 13  1  0  0  0  0
 13 14  1  0  0  0  0
 14 15  2  0  0  0  0
 14 19  1  0  0  0  0
 15 20  1  0  0  0  0
 16 18  1  0  0  0  0
 17 18  2  0  0  0  0
 19 21  2  0  0  0  0
 20 23  2  0  0  0  0
 21 23  1  0  0  0  0
 22 24  1  0  0  0  0
 22 25  2  0  0  0  0
 22 26  1  0  0  0  0
 25 27  1  0  0  0  0
 26 28  2  0  0  0  0
 27 29  2  0  0  0  0
 28 29  1  0  0  0  0
M  END
> <PUBCHEM_COMPOUND_ID_TYPE>
0

> <PUBCHEM_TOTAL_CHARGE>
0

> <PUBCHEM_SUBSTANCE_ID>
310946720

> <PUBCHEM_SUBSTANCE_VERSION>
1

> <PUBCHEM_EXT_DATASOURCE_NAME>
4488

> <PUBCHEM_EXT_DATASOURCE_REGID>
SCHEMBL16124844

> <PUBCHEM_SUBSTANCE_COMMENT>
InChI=1S/C18H17FN10/c19-13-7-3-1-5-11(13)10-23-14-8-4-2-6-12(14)17(20)18-24-15(26-28-21)9-16(25-18)27-29-22/h1-9,20,23H,10H2,(H4,21,22,24,25,26,27)
InChIKey=KNTLAWDINBHEOG-UHFFFAOYSA-N

> <PUBCHEM_SUBSTANCE_SYNONYM>
SCHEMBL16124844

> <PUBCHEM_XREF_EXT_ID>
SCHEMBL16124844

> <PUBCHEM_EXT_DATASOURCE_URL>
https://www.surechembl.org/

> <PUBCHEM_EXT_SUBSTANCE_URL>
https://www.surechembl.org/chemical/SCHEMBL16124844

> <PUBCHEM_CID_ASSOCIATIONS>
117612611  1

> <PUBCHEM_COORDINATE_TYPE>
1
3

$$$$
