310944843
  -OEChem-07211613022D

 26 29  0     1  0  0  0  0  0999 V2000
   -1.4280   -2.5593    0.0000 Cl  0  0  0  0  0  0  0  0  0  0  0  0
   -1.0076    3.2888    0.0000 O   0  0  0  0  0  0  0  0  0  0  0  0
    0.4019    3.7833    0.0000 O   0  0  0  0  0  0  0  0  0  0  0  0
   -0.7356   -0.4946    0.0000 O   0  0  0  0  0  0  0  0  0  0  0  0
    0.7233   -1.3106    0.0000 N   0  0  3  0  0  0  0  0  0  0  0  0
   -1.4280   -2.5593    0.0000 N   0  0  3  0  0  0  0  0  0  0  0  0
   -0.7109    1.9906    0.0000 C   0  0  0  0  0  0  0  0  0  0  0  0
   -0.0062    2.3986    0.0000 C   0  0  0  0  0  0  0  0  0  0  0  0
   -0.7109    1.1622    0.0000 C   0  0  0  0  0  0  0  0  0  0  0  0
    0.0062    0.7542    0.0000 C   0  0  0  0  0  0  0  0  0  0  0  0
   -0.0062   -2.5470    0.0000 C   0  0  3  0  0  0  0  0  0  0  0  0
   -0.1793    3.1775    0.0000 C   0  0  0  0  0  0  0  0  0  0  0  0
   -0.0062   -0.0742    0.0000 C   0  0  3  0  0  0  0  0  0  0  0  0
    0.7109    1.9782    0.0000 C   0  0  0  0  0  0  0  0  0  0  0  0
   -1.3291    2.5345    0.0000 C   0  0  0  0  0  0  0  0  0  0  0  0
    0.7109    1.1622    0.0000 C   0  0  0  0  0  0  0  0  0  0  0  0
    0.0062   -1.7186    0.0000 C   0  0  0  0  0  0  0  0  0  0  0  0
    0.7109   -0.4946    0.0000 C   0  0  0  0  0  0  0  0  0  0  0  0
   -0.7109   -2.1389    0.0000 C   0  0  0  0  0  0  0  0  0  0  0  0
    0.7233   -2.9550    0.0000 C   0  0  0  0  0  0  0  0  0  0  0  0
   -0.0062   -3.3876    0.0000 C   0  0  0  0  0  0  0  0  0  0  0  0
    1.4280   -1.7309    0.0000 C   0  0  0  0  0  0  0  0  0  0  0  0
   -1.4156    0.7418    0.0000 C   0  0  0  0  0  0  0  0  0  0  0  0
    1.4280   -2.5593    0.0000 C   0  0  0  0  0  0  0  0  0  0  0  0
   -0.7109   -3.7833    0.0000 C   0  0  0  0  0  0  0  0  0  0  0  0
   -1.4280   -3.3753    0.0000 C   0  0  0  0  0  0  0  0  0  0  0  0
  1  6  1  0  0  0  0
  2 12  1  0  0  0  0
  2 15  1  0  0  0  0
  3 12  2  0  0  0  0
 13  4  1  6  0  0  0
  5 17  1  0  0  0  0
  5 18  1  0  0  0  0
  5 22  1  0  0  0  0
  6 19  1  0  0  0  0
  6 26  1  0  0  0  0
  7  8  1  0  0  0  0
  7  9  2  0  0  0  0
  7 15  1  0  0  0  0
  8 12  1  0  0  0  0
  8 14  2  0  0  0  0
  9 10  1  0  0  0  0
  9 23  1  0  0  0  0
 10 13  1  0  0  0  0
 10 16  2  0  0  0  0
 11 17  1  0  0  0  0
 11 19  1  0  0  0  0
 11 20  1  0  0  0  0
 11 21  1  0  0  0  0
 13 18  1  0  0  0  0
 14 16  1  0  0  0  0
 20 24  1  0  0  0  0
 21 25  1  0  0  0  0
 22 24  1  0  0  0  0
 25 26  1  0  0  0  0
M  END
> <PUBCHEM_COMPOUND_ID_TYPE>
0

> <PUBCHEM_TOTAL_CHARGE>
0

> <PUBCHEM_SUBSTANCE_ID>
310944843

> <PUBCHEM_SUBSTANCE_VERSION>
1

> <PUBCHEM_EXT_DATASOURCE_NAME>
4488

> <PUBCHEM_EXT_DATASOURCE_REGID>
SCHEMBL16122922

> <PUBCHEM_SUBSTANCE_COMMENT>
InChI=1S/C20H27ClN2O3/c1-14-15(4-5-16-17(14)11-26-19(16)25)18(24)10-22-8-2-6-20(12-22)7-3-9-23(21)13-20/h4-5,18,24H,2-3,6-13H2,1H3/t18-,20?/m0/s1
InChIKey=BUWPYPHRGRLOIY-LROBGIAVSA-N

> <PUBCHEM_SUBSTANCE_SYNONYM>
SCHEMBL16122922

> <PUBCHEM_XREF_EXT_ID>
SCHEMBL16122922

> <PUBCHEM_EXT_DATASOURCE_URL>
https://www.surechembl.org/

> <PUBCHEM_EXT_SUBSTANCE_URL>
https://www.surechembl.org/chemical/SCHEMBL16122922

> <PUBCHEM_CID_ASSOCIATIONS>
117611043  1

> <PUBCHEM_COORDINATE_TYPE>
1
3

> <PUBCHEM_BONDANNOTATIONS>
13  4  6

$$$$
