310949041
  -OEChem-07211613022D

 25 28  0     0  0  0  0  0  0999 V2000
    0.9584    2.7762    0.0000 O   0  0  0  0  0  0  0  0  0  0  0  0
    2.3906    3.1728    0.0000 O   0  0  0  0  0  0  0  0  0  0  0  0
   -0.2093   -1.7186    0.0000 N   0  0  0  0  0  0  0  0  0  0  0  0
    0.2754   -1.0355    0.0000 N   0  0  0  0  0  0  0  0  0  0  0  0
   -1.7076   -1.8728    0.0000 N   0  0  0  0  0  0  0  0  0  0  0  0
   -2.3906   -0.5949    0.0000 N   0  0  0  0  0  0  0  0  0  0  0  0
    1.8178    1.7406    0.0000 N   0  0  0  0  0  0  0  0  0  0  0  0
   -1.7076    0.6389    0.0000 N   0  0  0  0  0  0  0  0  0  0  0  0
    2.3906    3.1728    0.0000 N   0  0  0  0  0  0  0  0  0  0  0  0
   -0.9804   -0.5728    0.0000 C   0  0  0  0  0  0  0  0  0  0  0  0
   -0.2313   -0.3305    0.0000 C   0  0  0  0  0  0  0  0  0  0  0  0
   -1.0245   -1.4102    0.0000 C   0  0  0  0  0  0  0  0  0  0  0  0
    0.0330    0.4847    0.0000 C   0  0  0  0  0  0  0  0  0  0  0  0
   -1.7076   -0.1763    0.0000 C   0  0  0  0  0  0  0  0  0  0  0  0
    1.0686    1.4322    0.0000 C   0  0  0  0  0  0  0  0  0  0  0  0
    0.8262    0.6389    0.0000 C   0  0  0  0  0  0  0  0  0  0  0  0
    0.5398    2.0491    0.0000 C   0  0  0  0  0  0  0  0  0  0  0  0
   -0.4957    1.1016    0.0000 C   0  0  0  0  0  0  0  0  0  0  0  0
    0.0110   -2.4677    0.0000 C   0  0  0  0  0  0  0  0  0  0  0  0
   -0.2313    1.8728    0.0000 C   0  0  0  0  0  0  0  0  0  0  0  0
    1.7296    2.5779    0.0000 C   0  0  0  0  0  0  0  0  0  0  0  0
   -2.3906   -1.4102    0.0000 C   0  0  0  0  0  0  0  0  0  0  0  0
    0.8703   -2.6880    0.0000 C   0  0  0  0  0  0  0  0  0  0  0  0
   -0.5618   -3.1728    0.0000 C   0  0  0  0  0  0  0  0  0  0  0  0
    2.3906    3.1728    0.0000 C   0  0  0  0  0  0  0  0  0  0  0  0
  1 17  1  0  0  0  0
  1 21  1  0  0  0  0
  2 25  2  0  0  0  0
  3  4  1  0  0  0  0
  3 12  1  0  0  0  0
  3 19  1  0  0  0  0
  4 11  2  0  0  0  0
  5 12  2  0  0  0  0
  5 22  1  0  0  0  0
  6 14  1  0  0  0  0
  6 22  2  0  0  0  0
  7 15  1  0  0  0  0
  7 21  2  0  0  0  0
  8 14  1  0  0  0  0
  9 21  1  0  0  0  0
  9 25  1  0  0  0  0
 10 11  1  0  0  0  0
 10 12  1  0  0  0  0
 10 14  2  0  0  0  0
 11 13  1  0  0  0  0
 13 16  2  0  0  0  0
 13 18  1  0  0  0  0
 15 16  1  0  0  0  0
 15 17  2  0  0  0  0
 17 20  1  0  0  0  0
 18 20  2  0  0  0  0
 19 23  1  0  0  0  0
 19 24  1  0  0  0  0
M  END
> <PUBCHEM_COMPOUND_ID_TYPE>
0

> <PUBCHEM_TOTAL_CHARGE>
0

> <PUBCHEM_SUBSTANCE_ID>
310949041

> <PUBCHEM_SUBSTANCE_VERSION>
1

> <PUBCHEM_EXT_DATASOURCE_NAME>
4488

> <PUBCHEM_EXT_DATASOURCE_REGID>
SCHEMBL16127231

> <PUBCHEM_SUBSTANCE_COMMENT>
InChI=1S/C16H15N7O2/c1-8(2)23-15-12(14(17)18-6-19-15)13(22-23)9-3-4-11-10(5-9)21-16(25-11)20-7-24/h3-8H,1-2H3,(H2,17,18,19)(H,20,21,24)
InChIKey=WMYLJBGKPOIZFO-UHFFFAOYSA-N

> <PUBCHEM_SUBSTANCE_SYNONYM>
SCHEMBL16127231

> <PUBCHEM_XREF_EXT_ID>
SCHEMBL16127231

> <PUBCHEM_EXT_DATASOURCE_URL>
https://www.surechembl.org/

> <PUBCHEM_EXT_SUBSTANCE_URL>
https://www.surechembl.org/chemical/SCHEMBL16127231

> <PUBCHEM_CID_ASSOCIATIONS>
117614546  1

> <PUBCHEM_COORDINATE_TYPE>
1
3

$$$$
