310934898
  -OEChem-07211613022D

 20 21  0     1  0  0  0  0  0999 V2000
    0.0000   -1.2628    0.0000 F   0  0  0  0  0  0  0  0  0  0  0  0
    3.6722   -0.3489    0.0000 O   0  0  0  0  0  0  0  0  0  0  0  0
    4.2704   -1.6450    0.0000 O   0  0  0  0  0  0  0  0  0  0  0  0
    0.9305   -3.3232    0.0000 O   0  0  0  0  0  0  0  0  0  0  0  0
    2.8414   -1.5121    0.0000 C   0  0  3  0  0  0  0  0  0  0  0  0
    2.0936   -1.8610    0.0000 C   0  0  0  0  0  0  0  0  0  0  0  0
    3.6057   -1.1631    0.0000 C   0  0  0  0  0  0  0  0  0  0  0  0
    1.4290   -1.3958    0.0000 C   0  0  0  0  0  0  0  0  0  0  0  0
    2.8414   -2.3429    0.0000 C   0  0  0  0  0  0  0  0  0  0  0  0
    2.2266   -0.9804    0.0000 C   0  0  0  0  0  0  0  0  0  0  0  0
    2.0105   -2.6918    0.0000 C   0  0  0  0  0  0  0  0  0  0  0  0
    0.6812   -1.7281    0.0000 C   0  0  0  0  0  0  0  0  0  0  0  0
    2.2266   -2.8414    0.0000 C   0  0  0  0  0  0  0  0  0  0  0  0
    1.4290   -1.1465    0.0000 C   0  0  0  0  0  0  0  0  0  0  0  0
    1.2795   -3.0242    0.0000 C   0  0  0  0  0  0  0  0  0  0  0  0
    0.5982   -2.5589    0.0000 C   0  0  0  0  0  0  0  0  0  0  0  0
    1.4290   -2.6752    0.0000 C   0  0  0  0  0  0  0  0  0  0  0  0
    1.4955   -0.5650    0.0000 C   0  0  0  0  0  0  0  0  0  0  0  0
    1.0635   -1.9109    0.0000 C   0  0  0  0  0  0  0  0  0  0  0  0
    4.4199    0.0000    0.0000 C   0  0  0  0  0  0  0  0  0  0  0  0
  1 12  1  0  0  0  0
  2  7  1  0  0  0  0
  2 20  1  0  0  0  0
  3  7  2  0  0  0  0
  4 17  2  0  0  0  0
  5  6  1  0  0  0  0
  5  7  1  0  0  0  0
  5  9  1  0  0  0  0
  5 10  1  0  0  0  0
  6  8  1  0  0  0  0
  6 11  2  0  0  0  0
  8 12  2  0  0  0  0
  8 18  1  0  0  0  0
  9 13  1  0  0  0  0
 10 14  1  0  0  0  0
 11 15  1  0  0  0  0
 12 16  1  0  0  0  0
 13 17  1  0  0  0  0
 14 19  1  0  0  0  0
 15 16  2  0  0  0  0
 17 19  1  0  0  0  0
M  END
> <PUBCHEM_COMPOUND_ID_TYPE>
0

> <PUBCHEM_TOTAL_CHARGE>
0

> <PUBCHEM_SUBSTANCE_ID>
310934898

> <PUBCHEM_SUBSTANCE_VERSION>
1

> <PUBCHEM_EXT_DATASOURCE_NAME>
4488

> <PUBCHEM_EXT_DATASOURCE_REGID>
SCHEMBL16112411

> <PUBCHEM_SUBSTANCE_COMMENT>
InChI=1S/C16H19FO3/c1-11-13(6-3-7-14(11)17)16(15(19)20-2)9-4-5-12(18)8-10-16/h3,6-7H,4-5,8-10H2,1-2H3
InChIKey=FQSWMTJAELMVSR-UHFFFAOYSA-N

> <PUBCHEM_SUBSTANCE_SYNONYM>
SCHEMBL16112411

> <PUBCHEM_XREF_EXT_ID>
SCHEMBL16112411

> <PUBCHEM_EXT_DATASOURCE_URL>
https://www.surechembl.org/

> <PUBCHEM_EXT_SUBSTANCE_URL>
https://www.surechembl.org/chemical/SCHEMBL16112411

> <PUBCHEM_CID_ASSOCIATIONS>
117603025  1

> <PUBCHEM_COORDINATE_TYPE>
1
3

$$$$
