310948074
  -OEChem-07211613022D

 43 48  0     1  0  0  0  0  0999 V2000
    3.2966   -2.1584    0.0000 S   0  0  0  0  0  0  0  0  0  0  0  0
    3.0616    3.9313    0.0000 F   0  0  0  0  0  0  0  0  0  0  0  0
    3.5857    3.2989    0.0000 F   0  0  0  0  0  0  0  0  0  0  0  0
   -1.5644    0.9678    0.0000 O   0  0  0  0  0  0  0  0  0  0  0  0
    1.9774    3.3531    0.0000 O   0  0  0  0  0  0  0  0  0  0  0  0
    2.8267    2.3231    0.0000 O   0  0  0  0  0  0  0  0  0  0  0  0
    3.2966   -2.1584    0.0000 O   0  0  0  0  0  0  0  0  0  0  0  0
    3.2966   -2.1584    0.0000 O   0  0  0  0  0  0  0  0  0  0  0  0
   -0.9680    2.1604    0.0000 N   0  0  0  0  0  0  0  0  0  0  0  0
   -2.1245   -1.2007    0.0000 N   0  0  0  0  0  0  0  0  0  0  0  0
   -2.9016   -0.9296    0.0000 N   0  0  0  0  0  0  0  0  0  0  0  0
   -5.0157   -0.2248    0.0000 N   0  0  0  0  0  0  0  0  0  0  0  0
   -0.7331    0.8594    0.0000 C   0  0  0  0  0  0  0  0  0  0  0  0
   -0.3537    0.1365    0.0000 C   0  0  0  0  0  0  0  0  0  0  0  0
   -0.3537    1.6003    0.0000 C   0  0  0  0  0  0  0  0  0  0  0  0
   -0.7693   -0.5862    0.0000 C   0  0  0  0  0  0  0  0  0  0  0  0
    0.4596    1.7448    0.0000 C   0  0  0  0  0  0  0  0  0  0  0  0
   -1.6186   -0.5321    0.0000 C   0  0  0  0  0  0  0  0  0  0  0  0
    1.5438    2.6665    0.0000 C   0  0  0  0  0  0  0  0  0  0  0  0
    2.0677    2.0158    0.0000 C   0  0  0  0  0  0  0  0  0  0  0  0
    0.4776    0.0823    0.0000 C   0  0  0  0  0  0  0  0  0  0  0  0
    0.8570   -0.6224    0.0000 C   0  0  0  0  0  0  0  0  0  0  0  0
    0.7486    2.5038    0.0000 C   0  0  0  0  0  0  0  0  0  0  0  0
   -1.7089    1.7809    0.0000 C   0  0  0  0  0  0  0  0  0  0  0  0
    2.7906    3.1904    0.0000 C   0  0  0  0  0  0  0  0  0  0  0  0
   -0.3899   -1.2910    0.0000 C   0  0  0  0  0  0  0  0  0  0  0  0
    0.9655    1.1304    0.0000 C   0  0  0  0  0  0  0  0  0  0  0  0
   -2.0703    0.1365    0.0000 C   0  0  0  0  0  0  0  0  0  0  0  0
    1.7786    1.2569    0.0000 C   0  0  0  0  0  0  0  0  0  0  0  0
    0.4234   -1.3272    0.0000 C   0  0  0  0  0  0  0  0  0  0  0  0
    1.6882   -0.6585    0.0000 C   0  0  0  0  0  0  0  0  0  0  0  0
   -2.8473   -0.0803    0.0000 C   0  0  0  0  0  0  0  0  0  0  0  0
    2.0859   -1.3814    0.0000 C   0  0  0  0  0  0  0  0  0  0  0  0
   -3.5341    0.4257    0.0000 C   0  0  3  0  0  0  0  0  0  0  0  0
    2.9171   -1.4175    0.0000 C   0  0  0  0  0  0  0  0  0  0  0  0
    2.1401    0.0282    0.0000 C   0  0  0  0  0  0  0  0  0  0  0  0
   -2.4498    2.1423    0.0000 C   0  0  0  0  0  0  0  0  0  0  0  0
   -1.8715   -2.0138    0.0000 C   0  0  0  0  0  0  0  0  0  0  0  0
    3.3327   -0.7489    0.0000 C   0  0  0  0  0  0  0  0  0  0  0  0
    2.9713    0.0100    0.0000 C   0  0  0  0  0  0  0  0  0  0  0  0
   -4.2930    0.1004    0.0000 C   0  0  0  0  0  0  0  0  0  0  0  0
   -3.4076    1.2208    0.0000 C   0  0  0  0  0  0  0  0  0  0  0  0
    5.0157   -3.9313    0.0000 C   0  0  0  0  0  0  0  0  0  0  0  0
  1  7  2  0  0  0  0
  1  8  2  0  0  0  0
  1 35  1  0  0  0  0
  1 43  1  0  0  0  0
  2 25  1  0  0  0  0
  3 25  1  0  0  0  0
  4 13  1  0  0  0  0
  4 24  1  0  0  0  0
  5 19  1  0  0  0  0
  5 25  1  0  0  0  0
  6 20  1  0  0  0  0
  6 25  1  0  0  0  0
  9 15  1  0  0  0  0
  9 24  2  0  0  0  0
 10 11  1  0  0  0  0
 10 18  1  0  0  0  0
 10 38  1  0  0  0  0
 11 32  2  0  0  0  0
 12 41  3  0  0  0  0
 13 14  1  0  0  0  0
 13 15  2  0  0  0  0
 14 16  1  0  0  0  0
 14 21  2  0  0  0  0
 15 17  1  0  0  0  0
 16 18  1  0  0  0  0
 16 26  2  0  0  0  0
 17 23  1  0  0  0  0
 17 27  2  0  0  0  0
 18 28  2  0  0  0  0
 19 20  1  0  0  0  0
 19 23  2  0  0  0  0
 20 29  2  0  0  0  0
 21 22  1  0  0  0  0
 22 30  2  0  0  0  0
 22 31  1  0  0  0  0
 24 37  1  0  0  0  0
 26 30  1  0  0  0  0
 27 29  1  0  0  0  0
 28 32  1  0  0  0  0
 31 33  1  0  0  0  0
 31 36  2  0  0  0  0
 32 34  1  0  0  0  0
 33 35  2  0  0  0  0
 34 41  1  0  0  0  0
 34 42  1  0  0  0  0
 35 39  1  0  0  0  0
 36 40  1  0  0  0  0
 39 40  2  0  0  0  0
M  END
> <PUBCHEM_COMPOUND_ID_TYPE>
0

> <PUBCHEM_TOTAL_CHARGE>
0

> <PUBCHEM_SUBSTANCE_ID>
310948074

> <PUBCHEM_SUBSTANCE_VERSION>
1

> <PUBCHEM_EXT_DATASOURCE_NAME>
4488

> <PUBCHEM_EXT_DATASOURCE_REGID>
SCHEMBL16126250

> <PUBCHEM_SUBSTANCE_COMMENT>
InChI=1S/C31H24F2N4O5S/c1-17(16-34)25-15-26(37(3)36-25)23-10-8-20(19-6-5-7-22(12-19)43(4,38)39)13-24(23)30-29(35-18(2)40-30)21-9-11-27-28(14-21)42-31(32,33)41-27/h5-15,17H,1-4H3
InChIKey=QVIHMTZHTQWTNR-UHFFFAOYSA-N

> <PUBCHEM_SUBSTANCE_SYNONYM>
SCHEMBL16126250

> <PUBCHEM_XREF_EXT_ID>
SCHEMBL16126250

> <PUBCHEM_EXT_DATASOURCE_URL>
https://www.surechembl.org/

> <PUBCHEM_EXT_SUBSTANCE_URL>
https://www.surechembl.org/chemical/SCHEMBL16126250

> <PUBCHEM_CID_ASSOCIATIONS>
117613694  1

> <PUBCHEM_COORDINATE_TYPE>
1
3

$$$$
