310948327
  -OEChem-07211613022D

 43 47  0     0  0  0  0  0  0999 V2000
    2.9118   -1.6550    0.0000 S   0  0  0  0  0  0  0  0  0  0  0  0
   -4.3946    0.0395    0.0000 F   0  0  0  0  0  0  0  0  0  0  0  0
   -4.6315    1.1509    0.0000 F   0  0  0  0  0  0  0  0  0  0  0  0
   -3.5019    1.3514    0.0000 F   0  0  0  0  0  0  0  0  0  0  0  0
    3.3308    3.4285    0.0000 F   0  0  0  0  0  0  0  0  0  0  0  0
    2.2012    3.1005    0.0000 F   0  0  0  0  0  0  0  0  0  0  0  0
    3.6042    2.2806    0.0000 F   0  0  0  0  0  0  0  0  0  0  0  0
   -2.0078    1.4243    0.0000 O   0  0  0  0  0  0  0  0  0  0  0  0
    2.4927    1.9891    0.0000 O   0  0  0  0  0  0  0  0  0  0  0  0
    2.9118   -1.6550    0.0000 O   0  0  0  0  0  0  0  0  0  0  0  0
    2.9118   -1.6550    0.0000 O   0  0  0  0  0  0  0  0  0  0  0  0
   -2.0260   -0.1974    0.0000 N   0  0  0  0  0  0  0  0  0  0  0  0
   -2.5179    0.4950    0.0000 N   0  0  0  0  0  0  0  0  0  0  0  0
   -1.3518    2.6086    0.0000 N   0  0  0  0  0  0  0  0  0  0  0  0
   -0.7869    0.5497    0.0000 C   0  0  0  0  0  0  0  0  0  0  0  0
   -1.1879   -0.1974    0.0000 C   0  0  0  0  0  0  0  0  0  0  0  0
   -1.2061    1.2785    0.0000 C   0  0  0  0  0  0  0  0  0  0  0  0
   -0.7869    2.0073    0.0000 C   0  0  0  0  0  0  0  0  0  0  0  0
   -3.2650    0.2399    0.0000 C   0  0  0  0  0  0  0  0  0  0  0  0
    0.0330    0.5132    0.0000 C   0  0  0  0  0  0  0  0  0  0  0  0
    0.4338   -0.1792    0.0000 C   0  0  0  0  0  0  0  0  0  0  0  0
   -3.2832   -0.5982    0.0000 C   0  0  0  0  0  0  0  0  0  0  0  0
   -0.7687   -0.9080    0.0000 C   0  0  0  0  0  0  0  0  0  0  0  0
    0.0330    2.0073    0.0000 C   0  0  0  0  0  0  0  0  0  0  0  0
   -2.4997   -0.8715    0.0000 C   0  0  0  0  0  0  0  0  0  0  0  0
   -2.0807    2.2624    0.0000 C   0  0  0  0  0  0  0  0  0  0  0  0
   -3.9573    0.7137    0.0000 C   0  0  0  0  0  0  0  0  0  0  0  0
    0.0330   -0.9080    0.0000 C   0  0  0  0  0  0  0  0  0  0  0  0
    1.2719   -0.1974    0.0000 C   0  0  0  0  0  0  0  0  0  0  0  0
    0.4520    1.2785    0.0000 C   0  0  0  0  0  0  0  0  0  0  0  0
    0.4338    2.6997    0.0000 C   0  0  0  0  0  0  0  0  0  0  0  0
    1.6727   -0.9080    0.0000 C   0  0  0  0  0  0  0  0  0  0  0  0
    2.4927   -0.9262    0.0000 C   0  0  0  0  0  0  0  0  0  0  0  0
    1.6727    0.5132    0.0000 C   0  0  0  0  0  0  0  0  0  0  0  0
   -3.9573   -1.1084    0.0000 C   0  0  0  0  0  0  0  0  0  0  0  0
    1.6545    1.9891    0.0000 C   0  0  0  0  0  0  0  0  0  0  0  0
    1.2719    1.2785    0.0000 C   0  0  0  0  0  0  0  0  0  0  0  0
    1.2537    2.7179    0.0000 C   0  0  0  0  0  0  0  0  0  0  0  0
   -2.7913    2.6632    0.0000 C   0  0  0  0  0  0  0  0  0  0  0  0
    2.8936   -0.1609    0.0000 C   0  0  0  0  0  0  0  0  0  0  0  0
    2.5109    0.5314    0.0000 C   0  0  0  0  0  0  0  0  0  0  0  0
    2.9118    2.6997    0.0000 C   0  0  0  0  0  0  0  0  0  0  0  0
    4.6315   -3.4285    0.0000 C   0  0  0  0  0  0  0  0  0  0  0  0
  1 10  2  0  0  0  0
  1 11  2  0  0  0  0
  1 33  1  0  0  0  0
  1 43  1  0  0  0  0
  2 27  1  0  0  0  0
  3 27  1  0  0  0  0
  4 27  1  0  0  0  0
  5 42  1  0  0  0  0
  6 42  1  0  0  0  0
  7 42  1  0  0  0  0
  8 17  1  0  0  0  0
  8 26  1  0  0  0  0
  9 36  1  0  0  0  0
  9 42  1  0  0  0  0
 12 13  1  0  0  0  0
 12 16  1  0  0  0  0
 12 25  1  0  0  0  0
 13 19  2  0  0  0  0
 14 18  1  0  0  0  0
 14 26  2  0  0  0  0
 15 16  1  0  0  0  0
 15 17  1  0  0  0  0
 15 20  2  0  0  0  0
 16 23  2  0  0  0  0
 17 18  2  0  0  0  0
 18 24  1  0  0  0  0
 19 22  1  0  0  0  0
 19 27  1  0  0  0  0
 20 21  1  0  0  0  0
 21 28  2  0  0  0  0
 21 29  1  0  0  0  0
 22 25  2  0  0  0  0
 22 35  1  0  0  0  0
 23 28  1  0  0  0  0
 24 30  2  0  0  0  0
 24 31  1  0  0  0  0
 26 39  1  0  0  0  0
 29 32  2  0  0  0  0
 29 34  1  0  0  0  0
 30 37  1  0  0  0  0
 31 38  2  0  0  0  0
 32 33  1  0  0  0  0
 33 40  2  0  0  0  0
 34 41  2  0  0  0  0
 36 37  2  0  0  0  0
 36 38  1  0  0  0  0
 40 41  1  0  0  0  0
M  END
> <PUBCHEM_COMPOUND_ID_TYPE>
0

> <PUBCHEM_TOTAL_CHARGE>
0

> <PUBCHEM_SUBSTANCE_ID>
310948327

> <PUBCHEM_SUBSTANCE_VERSION>
1

> <PUBCHEM_EXT_DATASOURCE_NAME>
4488

> <PUBCHEM_EXT_DATASOURCE_REGID>
SCHEMBL16126505

> <PUBCHEM_SUBSTANCE_COMMENT>
InChI=1S/C29H21F6N3O4S/c1-16-15-38(37-27(16)28(30,31)32)24-12-9-20(19-5-4-6-22(13-19)43(3,39)40)14-23(24)26-25(36-17(2)41-26)18-7-10-21(11-8-18)42-29(33,34)35/h4-15H,1-3H3
InChIKey=AZFBMPFELOIDTK-UHFFFAOYSA-N

> <PUBCHEM_SUBSTANCE_SYNONYM>
SCHEMBL16126505

> <PUBCHEM_XREF_EXT_ID>
SCHEMBL16126505

> <PUBCHEM_EXT_DATASOURCE_URL>
https://www.surechembl.org/

> <PUBCHEM_EXT_SUBSTANCE_URL>
https://www.surechembl.org/chemical/SCHEMBL16126505

> <PUBCHEM_CID_ASSOCIATIONS>
117613892  1

> <PUBCHEM_COORDINATE_TYPE>
1
3

$$$$
