310949984
  -OEChem-07211613022D

 45 44  0     1  0  0  0  0  0999 V2000
   -1.5007   -0.9337    0.0000 S   0  0  0  0  0  0  0  0  0  0  0  0
   -1.3116    0.9004    0.0000 O   0  0  0  0  0  0  0  0  0  0  0  0
   -1.4339   -0.6448    0.0000 O   0  0  0  0  0  0  0  0  0  0  0  0
    2.5788    1.2338    0.0000 O   0  0  0  0  0  0  0  0  0  0  0  0
   -0.8003    1.5784    0.0000 O   0  0  0  0  0  0  0  0  0  0  0  0
   -0.2446    1.9230    0.0000 O   0  0  0  0  0  0  0  0  0  0  0  0
    0.4002    3.0345    0.0000 O   0  0  0  0  0  0  0  0  0  0  0  0
   -2.5788    2.4677    0.0000 O   0  0  0  0  0  0  0  0  0  0  0  0
   -1.3672    2.1786    0.0000 O   0  0  0  0  0  0  0  0  0  0  0  0
    2.3342    3.0012    0.0000 O   0  0  0  0  0  0  0  0  0  0  0  0
    0.2890    0.8670    0.0000 N   0  0  0  0  0  0  0  0  0  0  0  0
    0.8670    0.8670    0.0000 N   0  0  0  0  0  0  0  0  0  0  0  0
   -0.3113    0.8670    0.0000 N   0  0  0  0  0  0  0  0  0  0  0  0
    1.1672    1.9230    0.0000 N   0  0  0  0  0  0  0  0  0  0  0  0
   -0.9781    0.8670    0.0000 N   0  0  0  0  0  0  0  0  0  0  0  0
    1.1449    3.7126    0.0000 N   0  0  0  0  0  0  0  0  0  0  0  0
    0.6781   -2.3231    0.0000 N   0  0  0  0  0  0  0  0  0  0  0  0
   -0.4224   -3.3014    0.0000 N   0  0  0  0  0  0  0  0  0  0  0  0
    0.9115   -3.7126    0.0000 N   0  0  0  0  0  0  0  0  0  0  0  0
   -0.1111    1.5896    0.0000 C   0  0  3  0  0  0  0  0  0  0  0  0
    0.0556    0.2224    0.0000 C   0  0  3  0  0  0  0  0  0  0  0  0
    0.8114    0.1779    0.0000 C   0  0  0  0  0  0  0  0  0  0  0  0
   -0.9448    1.5673    0.0000 C   0  0  0  0  0  0  0  0  0  0  0  0
    1.4784    0.2446    0.0000 C   0  0  3  0  0  0  0  0  0  0  0  0
   -1.9564   -0.1334    0.0000 C   0  0  0  0  0  0  0  0  0  0  0  0
    2.3342    0.4446    0.0000 C   0  0  0  0  0  0  0  0  0  0  0  0
   -1.7340    0.6448    0.0000 C   0  0  3  0  0  0  0  0  0  0  0  0
    0.2890    2.3009    0.0000 C   0  0  0  0  0  0  0  0  0  0  0  0
   -0.3224   -0.3668    0.0000 C   0  0  0  0  0  0  0  0  0  0  0  0
    1.1894   -0.6336    0.0000 C   0  0  0  0  0  0  0  0  0  0  0  0
    1.2338    0.8003    0.0000 C   0  0  0  0  0  0  0  0  0  0  0  0
   -2.2787    1.1560    0.0000 C   0  0  0  0  0  0  0  0  0  0  0  0
    1.1560    2.2787    0.0000 C   0  0  0  0  0  0  0  0  0  0  0  0
    0.4002    2.2898    0.0000 C   0  0  0  0  0  0  0  0  0  0  0  0
   -1.1115   -0.3557    0.0000 C   0  0  0  0  0  0  0  0  0  0  0  0
   -2.0786    1.9564    0.0000 C   0  0  0  0  0  0  0  0  0  0  0  0
    0.3446   -0.7558    0.0000 C   0  0  0  0  0  0  0  0  0  0  0  0
    1.5451    2.9901    0.0000 C   0  0  0  0  0  0  0  0  0  0  0  0
    0.0778   -1.6785    0.0000 C   0  0  0  0  0  0  0  0  0  0  0  0
   -1.3116    2.1786    0.0000 C   0  0  0  0  0  0  0  0  0  0  0  0
   -0.9781    2.3676    0.0000 C   0  0  0  0  0  0  0  0  0  0  0  0
    0.4113   -3.1013    0.0000 C   0  0  0  0  0  0  0  0  0  0  0  0
   -2.3120   -0.8892    0.0000 C   0  0  0  0  0  0  0  0  0  0  0  0
   -1.0226    2.9679    0.0000 C   0  0  0  0  0  0  0  0  0  0  0  0
   -1.7563    1.9453    0.0000 C   0  0  0  0  0  0  0  0  0  0  0  0
  1 35  1  0  0  0  0
  1 43  1  0  0  0  0
  2 23  2  0  0  0  0
  3 25  2  0  0  0  0
  4 26  2  0  0  0  0
  5 15  1  0  0  0  0
  5 40  1  0  0  0  0
  6 34  1  0  0  0  0
  6 41  1  0  0  0  0
  7 34  2  0  0  0  0
  8 36  2  0  0  0  0
  9 36  1  0  0  0  0
 10 38  2  0  0  0  0
 20 11  1  6  0  0  0
 11 22  1  0  0  0  0
 12 23  1  0  0  0  0
 24 12  1  6  0  0  0
 21 13  1  6  0  0  0
 13 25  1  0  0  0  0
 14 26  1  0  0  0  0
 14 34  1  0  0  0  0
 27 15  1  6  0  0  0
 16 38  1  0  0  0  0
 17 39  1  0  0  0  0
 17 42  1  0  0  0  0
 18 42  1  0  0  0  0
 19 42  1  0  0  0  0
 20 23  1  0  0  0  0
 20 28  1  0  0  0  0
 21 22  1  0  0  0  0
 21 29  1  0  0  0  0
 22 31  2  0  0  0  0
 24 26  1  0  0  0  0
 24 30  1  0  0  0  0
 25 27  1  0  0  0  0
 27 32  1  0  0  0  0
 28 33  1  0  0  0  0
 29 35  1  0  0  0  0
 30 37  1  0  0  0  0
 32 36  1  0  0  0  0
 33 38  1  0  0  0  0
 37 39  1  0  0  0  0
 40 44  1  0  0  0  0
 41 45  1  0  0  0  0
M  END
> <PUBCHEM_COMPOUND_ID_TYPE>
0

> <PUBCHEM_TOTAL_CHARGE>
0

> <PUBCHEM_SUBSTANCE_ID>
310949984

> <PUBCHEM_SUBSTANCE_VERSION>
1

> <PUBCHEM_EXT_DATASOURCE_NAME>
4488

> <PUBCHEM_EXT_DATASOURCE_REGID>
SCHEMBL16128213

> <PUBCHEM_SUBSTANCE_COMMENT>
InChI=1S/C26H49N9O9S/c1-5-43-26(42)34-23(40)17(8-7-12-30-25(28)29)33-22(39)18(9-10-20(27)36)31-15(3)16(11-13-45-4)32-24(41)19(14-21(37)38)35-44-6-2/h16-19,25,30-31,35H,3,5-14,28-29H2,1-2,4H3,(H2,27,36)(H,32,41)(H,33,39)(H,37,38)(H,34,40,42)/t16-,17-,18-,19-/m0/s1
InChIKey=VNWMEPYFNCLCIX-VJANTYMQSA-N

> <PUBCHEM_SUBSTANCE_SYNONYM>
SCHEMBL16128213

> <PUBCHEM_XREF_EXT_ID>
SCHEMBL16128213

> <PUBCHEM_EXT_DATASOURCE_URL>
https://www.surechembl.org/

> <PUBCHEM_EXT_SUBSTANCE_URL>
https://www.surechembl.org/chemical/SCHEMBL16128213

> <PUBCHEM_CID_ASSOCIATIONS>
117615224  1

> <PUBCHEM_COORDINATE_TYPE>
1
3

> <PUBCHEM_BONDANNOTATIONS>
20  11  6
24  12  6
21  13  6
27  15  6

$$$$
