310943121
  -OEChem-07211613022D

 35 38  0     0  0  0  0  0  0999 V2000
    3.0455   -1.5712    0.0000 S   0  0  0  0  0  0  0  0  0  0  0  0
   -3.3272    0.4815    0.0000 O   0  0  0  0  0  0  0  0  0  0  0  0
    0.9162    0.4663    0.0000 O   0  0  0  0  0  0  0  0  0  0  0  0
    3.0455   -1.5712    0.0000 O   0  0  0  0  0  0  0  0  0  0  0  0
    3.0455   -1.5712    0.0000 O   0  0  0  0  0  0  0  0  0  0  0  0
   -4.7519    2.9173    0.0000 O   0  0  0  0  0  0  0  0  0  0  0  0
   -3.3272    2.1054    0.0000 N   0  0  0  0  0  0  0  0  0  0  0  0
   -1.9025    0.4663    0.0000 N   0  0  0  0  0  0  0  0  0  0  0  0
    1.6361    1.6917    0.0000 N   0  0  0  0  0  0  0  0  0  0  0  0
    0.2268    3.3309    0.0000 N   0  0  0  0  0  0  0  0  0  0  0  0
    3.7655   -0.3457    0.0000 N   0  0  0  0  0  0  0  0  0  0  0  0
   -1.1979    1.7071    0.0000 C   0  0  0  0  0  0  0  0  0  0  0  0
   -0.5085    2.1054    0.0000 C   0  0  0  0  0  0  0  0  0  0  0  0
   -2.6226    1.7071    0.0000 C   0  0  0  0  0  0  0  0  0  0  0  0
   -2.6379    0.8798    0.0000 C   0  0  0  0  0  0  0  0  0  0  0  0
   -1.9332    2.1054    0.0000 C   0  0  0  0  0  0  0  0  0  0  0  0
   -0.4932    2.9326    0.0000 C   0  0  0  0  0  0  0  0  0  0  0  0
    0.9162    2.1054    0.0000 C   0  0  0  0  0  0  0  0  0  0  0  0
    0.2268    1.7071    0.0000 C   0  0  0  0  0  0  0  0  0  0  0  0
   -1.2132    0.8798    0.0000 C   0  0  0  0  0  0  0  0  0  0  0  0
    2.3562    0.4815    0.0000 C   0  0  0  0  0  0  0  0  0  0  0  0
    3.0608   -0.7439    0.0000 C   0  0  0  0  0  0  0  0  0  0  0  0
    1.6515    0.9105    0.0000 C   0  0  0  0  0  0  0  0  0  0  0  0
    0.9314    2.9173    0.0000 C   0  0  0  0  0  0  0  0  0  0  0  0
    2.3408   -0.3304    0.0000 C   0  0  0  0  0  0  0  0  0  0  0  0
   -3.3272    2.9173    0.0000 C   0  0  0  0  0  0  0  0  0  0  0  0
   -4.0319    1.7071    0.0000 C   0  0  0  0  0  0  0  0  0  0  0  0
    3.0302    0.8798    0.0000 C   0  0  0  0  0  0  0  0  0  0  0  0
    3.7502    0.4815    0.0000 C   0  0  0  0  0  0  0  0  0  0  0  0
   -1.2132    3.3156    0.0000 C   0  0  0  0  0  0  0  0  0  0  0  0
   -4.0625    3.3309    0.0000 C   0  0  0  0  0  0  0  0  0  0  0  0
   -4.7519    2.1207    0.0000 C   0  0  0  0  0  0  0  0  0  0  0  0
    4.7519   -3.3309    0.0000 C   0  0  0  0  0  0  0  0  0  0  0  0
   -4.0319    0.8798    0.0000 C   0  0  0  0  0  0  0  0  0  0  0  0
   -4.7519    0.4663    0.0000 C   0  0  0  0  0  0  0  0  0  0  0  0
  1  4  2  0  0  0  0
  1  5  2  0  0  0  0
  1 22  1  0  0  0  0
  1 33  1  0  0  0  0
  2 15  1  0  0  0  0
  2 34  1  0  0  0  0
  3 23  2  0  0  0  0
  6 31  1  0  0  0  0
  6 32  1  0  0  0  0
  7 14  1  0  0  0  0
  7 26  1  0  0  0  0
  7 27  1  0  0  0  0
  8 15  2  0  0  0  0
  8 20  1  0  0  0  0
  9 18  1  0  0  0  0
  9 23  1  0  0  0  0
 10 17  1  0  0  0  0
 10 24  2  0  0  0  0
 11 22  2  0  0  0  0
 11 29  1  0  0  0  0
 12 13  1  0  0  0  0
 12 16  1  0  0  0  0
 12 20  2  0  0  0  0
 13 17  2  0  0  0  0
 13 19  1  0  0  0  0
 14 15  1  0  0  0  0
 14 16  2  0  0  0  0
 17 30  1  0  0  0  0
 18 19  2  0  0  0  0
 18 24  1  0  0  0  0
 21 23  1  0  0  0  0
 21 25  2  0  0  0  0
 21 28  1  0  0  0  0
 22 25  1  0  0  0  0
 26 31  1  0  0  0  0
 27 32  1  0  0  0  0
 28 29  2  0  0  0  0
 34 35  1  0  0  0  0
M  END
> <PUBCHEM_COMPOUND_ID_TYPE>
0

> <PUBCHEM_TOTAL_CHARGE>
0

> <PUBCHEM_SUBSTANCE_ID>
310943121

> <PUBCHEM_SUBSTANCE_VERSION>
1

> <PUBCHEM_EXT_DATASOURCE_NAME>
4488

> <PUBCHEM_EXT_DATASOURCE_REGID>
SCHEMBL16121181

> <PUBCHEM_SUBSTANCE_COMMENT>
InChI=1S/C24H27N5O5S/c1-4-34-24-21(29-7-9-33-10-8-29)11-18(14-27-24)20-13-19(15-26-16(20)2)28-23(30)17-5-6-25-22(12-17)35(3,31)32/h5-6,11-15H,4,7-10H2,1-3H3,(H,28,30)
InChIKey=QZWVXLZIZWVAMS-UHFFFAOYSA-N

> <PUBCHEM_SUBSTANCE_SYNONYM>
SCHEMBL16121181

> <PUBCHEM_XREF_EXT_ID>
SCHEMBL16121181

> <PUBCHEM_EXT_DATASOURCE_URL>
https://www.surechembl.org/

> <PUBCHEM_EXT_SUBSTANCE_URL>
https://www.surechembl.org/chemical/SCHEMBL16121181

> <PUBCHEM_CID_ASSOCIATIONS>
117609551  1

> <PUBCHEM_COORDINATE_TYPE>
1
3

$$$$
