310929067
  -OEChem-07211613022D

 60 65  0     1  0  0  0  0  0999 V2000
    1.4558   -0.7279    0.0000 S   0  0  0  0  0  0  0  0  0  0  0  0
    3.7851   -2.1352    0.0000 O   0  0  0  0  0  0  0  0  0  0  0  0
    6.5027   -1.9411    0.0000 O   0  0  0  0  0  0  0  0  0  0  0  0
    2.9116   -4.9013    0.0000 O   0  0  0  0  0  0  0  0  0  0  0  0
    0.9705   -1.5043    0.0000 O   0  0  0  0  0  0  0  0  0  0  0  0
    1.8440    0.0000    0.0000 O   0  0  0  0  0  0  0  0  0  0  0  0
    9.4143   -6.9394    0.0000 O   0  0  0  0  0  0  0  0  0  0  0  0
   14.5582   -2.3293    0.0000 O   0  0  0  0  0  0  0  0  0  0  0  0
   10.8701   -3.5910    0.0000 O   0  0  0  0  0  0  0  0  0  0  0  0
    3.5910   -3.6396    0.0000 N   0  0  0  0  0  0  0  0  0  0  0  0
    2.1837   -1.1162    0.0000 N   0  0  0  0  0  0  0  0  0  0  0  0
    4.3190   -4.9013    0.0000 N   0  0  0  0  0  0  0  0  0  0  0  0
    7.9585   -4.4160    0.0000 N   0  0  0  0  0  0  0  0  0  0  0  0
    8.7349   -3.1543    0.0000 N   0  0  0  0  0  0  0  0  0  0  0  0
   13.0538   -3.1543    0.0000 N   0  0  3  0  0  0  0  0  0  0  0  0
   11.5980   -4.8527    0.0000 N   0  0  0  0  0  0  0  0  0  0  0  0
    2.8631   -3.2028    0.0000 C   0  0  0  0  0  0  0  0  0  0  0  0
    4.3190   -3.2028    0.0000 C   0  0  0  0  0  0  0  0  0  0  0  0
    4.3190   -2.4263    0.0000 C   0  0  0  0  0  0  0  0  0  0  0  0
    2.8631   -2.3779    0.0000 C   0  0  0  0  0  0  0  0  0  0  0  0
    5.0468   -1.9896    0.0000 C   0  0  0  0  0  0  0  0  0  0  0  0
    2.1352   -1.9896    0.0000 C   0  0  0  0  0  0  0  0  0  0  0  0
    1.4558   -3.2513    0.0000 C   0  0  0  0  0  0  0  0  0  0  0  0
    2.1352   -3.6396    0.0000 C   0  0  0  0  0  0  0  0  0  0  0  0
    5.7747   -2.3779    0.0000 C   0  0  0  0  0  0  0  0  0  0  0  0
    3.5910   -4.4645    0.0000 C   0  0  0  0  0  0  0  0  0  0  0  0
    5.0468   -3.6396    0.0000 C   0  0  0  0  0  0  0  0  0  0  0  0
    1.4558   -2.3779    0.0000 C   0  0  0  0  0  0  0  0  0  0  0  0
    0.6794   -3.6396    0.0000 C   0  0  0  0  0  0  0  0  0  0  0  0
    5.7747   -3.2028    0.0000 C   0  0  0  0  0  0  0  0  0  0  0  0
    3.5910   -1.9896    0.0000 C   0  0  0  0  0  0  0  0  0  0  0  0
    5.0468   -1.1646    0.0000 C   0  0  0  0  0  0  0  0  0  0  0  0
    3.5910   -1.1646    0.0000 C   0  0  0  0  0  0  0  0  0  0  0  0
    4.3190   -0.7279    0.0000 C   0  0  0  0  0  0  0  0  0  0  0  0
    7.2305   -2.3779    0.0000 C   0  0  0  0  0  0  0  0  0  0  0  0
    0.2912   -2.9116    0.0000 C   0  0  0  0  0  0  0  0  0  0  0  0
    0.0000   -4.0763    0.0000 C   0  0  0  0  0  0  0  0  0  0  0  0
    1.1162   -4.3674    0.0000 C   0  0  0  0  0  0  0  0  0  0  0  0
    7.2305   -3.2028    0.0000 C   0  0  0  0  0  0  0  0  0  0  0  0
    3.7366   -1.3102    0.0000 C   0  0  0  0  0  0  0  0  0  0  0  0
    7.9585   -3.5910    0.0000 C   0  0  0  0  0  0  0  0  0  0  0  0
    7.9585   -1.9411    0.0000 C   0  0  0  0  0  0  0  0  0  0  0  0
    0.7279   -0.2912    0.0000 C   0  0  0  0  0  0  0  0  0  0  0  0
    8.7349   -4.8527    0.0000 C   0  0  0  0  0  0  0  0  0  0  0  0
    8.6864   -2.3293    0.0000 C   0  0  0  0  0  0  0  0  0  0  0  0
   10.1422   -4.8527    0.0000 C   0  0  0  0  0  0  0  0  0  0  0  0
    9.4143   -4.4160    0.0000 C   0  0  0  0  0  0  0  0  0  0  0  0
    8.7349   -5.6777    0.0000 C   0  0  0  0  0  0  0  0  0  0  0  0
    9.4143   -6.1144    0.0000 C   0  0  0  0  0  0  0  0  0  0  0  0
   10.1422   -5.6777    0.0000 C   0  0  0  0  0  0  0  0  0  0  0  0
   10.8701   -4.4160    0.0000 C   0  0  0  0  0  0  0  0  0  0  0  0
   13.1024   -2.3293    0.0000 C   0  0  0  0  0  0  0  0  0  0  0  0
   13.8303   -1.8926    0.0000 C   0  0  0  0  0  0  0  0  0  0  0  0
   12.3260   -3.5910    0.0000 C   0  0  0  0  0  0  0  0  0  0  0  0
   13.8303   -3.5910    0.0000 C   0  0  0  0  0  0  0  0  0  0  0  0
   12.3260   -4.4160    0.0000 C   0  0  0  0  0  0  0  0  0  0  0  0
   14.5097   -3.1543    0.0000 C   0  0  0  0  0  0  0  0  0  0  0  0
   12.3744   -1.8926    0.0000 C   0  0  0  0  0  0  0  0  0  0  0  0
   13.1024   -1.5043    0.0000 C   0  0  0  0  0  0  0  0  0  0  0  0
   10.1422   -7.3761    0.0000 C   0  0  0  0  0  0  0  0  0  0  0  0
  1  5  2  0  0  0  0
  1  6  2  0  0  0  0
  1 11  1  0  0  0  0
  1 43  1  0  0  0  0
  2 20  1  0  0  0  0
  2 40  1  0  0  0  0
  3 25  1  0  0  0  0
  3 35  1  0  0  0  0
  4 26  2  0  0  0  0
  7 49  1  0  0  0  0
  7 60  1  0  0  0  0
  8 53  1  0  0  0  0
  8 57  1  0  0  0  0
  9 51  2  0  0  0  0
 10 17  1  0  0  0  0
 10 18  1  0  0  0  0
 10 26  1  0  0  0  0
 11 22  1  0  0  0  0
 12 26  1  0  0  0  0
 13 41  1  0  0  0  0
 13 44  1  0  0  0  0
 14 41  2  0  0  0  0
 14 45  1  0  0  0  0
 15 52  1  0  0  0  0
 15 54  1  0  0  0  0
 15 55  1  0  0  0  0
 16 51  1  0  0  0  0
 16 56  1  0  0  0  0
 17 20  1  0  0  0  0
 17 24  2  0  0  0  0
 18 19  1  0  0  0  0
 18 27  2  0  0  0  0
 19 21  2  0  0  0  0
 19 31  1  0  0  0  0
 20 22  2  0  0  0  0
 21 25  1  0  0  0  0
 21 32  1  0  0  0  0
 22 28  1  0  0  0  0
 23 24  1  0  0  0  0
 23 28  2  0  0  0  0
 23 29  1  0  0  0  0
 25 30  2  0  0  0  0
 27 30  1  0  0  0  0
 29 36  1  0  0  0  0
 29 37  1  0  0  0  0
 29 38  1  0  0  0  0
 31 33  2  0  0  0  0
 32 34  2  0  0  0  0
 33 34  1  0  0  0  0
 35 39  2  0  0  0  0
 35 42  1  0  0  0  0
 39 41  1  0  0  0  0
 42 45  2  0  0  0  0
 44 47  1  0  0  0  0
 44 48  2  0  0  0  0
 46 47  2  0  0  0  0
 46 50  1  0  0  0  0
 46 51  1  0  0  0  0
 48 49  1  0  0  0  0
 49 50  2  0  0  0  0
 52 53  1  0  0  0  0
 52 58  1  0  0  0  0
 52 59  1  0  0  0  0
 54 56  1  0  0  0  0
 55 57  1  0  0  0  0
M  END
> <PUBCHEM_COMPOUND_ID_TYPE>
0

> <PUBCHEM_TOTAL_CHARGE>
0

> <PUBCHEM_SUBSTANCE_ID>
310929067

> <PUBCHEM_SUBSTANCE_VERSION>
1

> <PUBCHEM_EXT_DATASOURCE_NAME>
4488

> <PUBCHEM_EXT_DATASOURCE_REGID>
SCHEMBL16106229

> <PUBCHEM_SUBSTANCE_COMMENT>
InChI=1S/C44H53N7O8S/c1-43(2,3)29-23-35(49-60(8,54)55)40(57-7)37(24-29)51(42(45)53)36-13-14-38(34-12-10-9-11-33(34)36)59-31-15-16-46-39(26-31)48-30-21-28(22-32(25-30)56-6)41(52)47-17-18-50-19-20-58-27-44(50,4)5/h9-16,21-26,49H,17-20,27H2,1-8H3,(H2,45,53)(H,46,48)(H,47,52)
InChIKey=HPBKLWYOIVCWRS-UHFFFAOYSA-N

> <PUBCHEM_SUBSTANCE_SYNONYM>
SCHEMBL16106229

> <PUBCHEM_XREF_EXT_ID>
SCHEMBL16106229

> <PUBCHEM_EXT_DATASOURCE_URL>
https://www.surechembl.org/

> <PUBCHEM_EXT_SUBSTANCE_URL>
https://www.surechembl.org/chemical/SCHEMBL16106229

> <PUBCHEM_CID_ASSOCIATIONS>
117598571  1

> <PUBCHEM_COORDINATE_TYPE>
1
3

$$$$
