310948582
  -OEChem-07211613022D

 45 47  0     0  0  0  0  0  0999 V2000
    0.8274    0.2642    0.0000 O   0  0  0  0  0  0  0  0  0  0  0  0
   -1.8148   -1.4304    0.0000 O   0  0  0  0  0  0  0  0  0  0  0  0
   -0.2660    0.0637    0.0000 O   0  0  0  0  0  0  0  0  0  0  0  0
   -0.2660   -2.9246    0.0000 O   0  0  0  0  0  0  0  0  0  0  0  0
    1.1919    2.1957    0.0000 O   0  0  0  0  0  0  0  0  0  0  0  0
    2.9229   -0.2095    0.0000 O   0  0  0  0  0  0  0  0  0  0  0  0
    0.8274    0.2642    0.0000 O   0  0  0  0  0  0  0  0  0  0  0  0
   -1.8148   -1.4304    0.0000 O   0  0  0  0  0  0  0  0  0  0  0  0
   -1.1042    2.7971    0.0000 O   0  0  0  0  0  0  0  0  0  0  0  0
   -4.0379    0.2642    0.0000 O   0  0  0  0  0  0  0  0  0  0  0  0
    1.4372    1.7543    0.0000 O   0  0  0  0  0  0  0  0  0  0  0  0
    0.8196    2.7730    0.0000 O   0  0  0  0  0  0  0  0  0  0  0  0
   -0.4846   -1.4304    0.0000 N   0  0  0  0  0  0  0  0  0  0  0  0
    1.9025    0.8655    0.0000 N   0  0  0  0  0  0  0  0  0  0  0  0
   -1.8330    1.5216    0.0000 N   0  0  0  0  0  0  0  0  0  0  0  0
    0.3536    2.9246    0.0000 N   0  0  0  0  0  0  0  0  0  0  0  0
   -1.8330    0.6833    0.0000 C   0  0  0  0  0  0  0  0  0  0  0  0
   -1.8513   -0.2278    0.0000 C   0  0  0  0  0  0  0  0  0  0  0  0
   -1.0859    0.2825    0.0000 C   0  0  0  0  0  0  0  0  0  0  0  0
    0.0074   -2.0682    0.0000 C   0  0  0  0  0  0  0  0  0  0  0  0
   -0.0109   -0.7380    0.0000 C   0  0  0  0  0  0  0  0  0  0  0  0
    2.6861    0.6287    0.0000 C   0  0  0  0  0  0  0  0  0  0  0  0
    1.9025    1.7037    0.0000 C   0  0  0  0  0  0  0  0  0  0  0  0
   -2.5619    0.2825    0.0000 C   0  0  0  0  0  0  0  0  0  0  0  0
    0.8274    0.2642    0.0000 C   0  0  0  0  0  0  0  0  0  0  0  0
   -1.8148   -1.4304    0.0000 C   0  0  0  0  0  0  0  0  0  0  0  0
   -2.2703   -0.5740    0.0000 C   0  0  0  0  0  0  0  0  0  0  0  0
   -0.3935    0.6833    0.0000 C   0  0  0  0  0  0  0  0  0  0  0  0
    0.7910   -1.8495    0.0000 C   0  0  0  0  0  0  0  0  0  0  0  0
    0.8092   -1.0113    0.0000 C   0  0  0  0  0  0  0  0  0  0  0  0
    3.1781    1.3211    0.0000 C   0  0  0  0  0  0  0  0  0  0  0  0
    2.6861    1.9771    0.0000 C   0  0  0  0  0  0  0  0  0  0  0  0
   -1.1406    1.9406    0.0000 C   0  0  0  0  0  0  0  0  0  0  0  0
   -3.3273    0.6833    0.0000 C   0  0  0  0  0  0  0  0  0  0  0  0
   -0.3388    1.5580    0.0000 C   0  0  0  0  0  0  0  0  0  0  0  0
   -4.0379    0.2642    0.0000 C   0  0  0  0  0  0  0  0  0  0  0  0
    0.3536    1.9589    0.0000 C   0  0  0  0  0  0  0  0  0  0  0  0
    0.8304    2.1227    0.0000 C   0  0  0  0  0  0  0  0  0  0  0  0
    2.7484    1.7327    0.0000 C   0  0  0  0  0  0  0  0  0  0  0  0
    2.1199    2.1444    0.0000 C   0  0  0  0  0  0  0  0  0  0  0  0
    2.7484    0.9850    0.0000 C   0  0  0  0  0  0  0  0  0  0  0  0
    3.3877    2.1120    0.0000 C   0  0  0  0  0  0  0  0  0  0  0  0
    3.3877    0.6165    0.0000 C   0  0  0  0  0  0  0  0  0  0  0  0
    4.0379    1.7435    0.0000 C   0  0  0  0  0  0  0  0  0  0  0  0
    4.0379    0.9958    0.0000 C   0  0  0  0  0  0  0  0  0  0  0  0
  1 14  1  0  0  0  0
  1 25  1  0  0  0  0
  2 13  1  0  0  0  0
  2 26  1  0  0  0  0
  3 21  2  0  0  0  0
  4 20  2  0  0  0  0
  5 23  2  0  0  0  0
  6 22  2  0  0  0  0
  7 25  2  0  0  0  0
  8 26  2  0  0  0  0
  9 33  2  0  0  0  0
 10 36  2  0  0  0  0
 11 38  1  0  0  0  0
 11 40  1  0  0  0  0
 12 38  2  0  0  0  0
 13 20  1  0  0  0  0
 13 21  1  0  0  0  0
 14 22  1  0  0  0  0
 14 23  1  0  0  0  0
 15 17  1  0  0  0  0
 15 33  1  0  0  0  0
 16 37  1  0  0  0  0
 16 38  1  0  0  0  0
 17 18  1  0  0  0  0
 17 19  1  0  0  0  0
 17 24  1  0  0  0  0
 18 27  1  0  0  0  0
 19 28  1  0  0  0  0
 20 29  1  0  0  0  0
 21 30  1  0  0  0  0
 22 31  1  0  0  0  0
 23 32  1  0  0  0  0
 24 34  1  0  0  0  0
 25 28  1  0  0  0  0
 26 27  1  0  0  0  0
 29 30  1  0  0  0  0
 31 32  1  0  0  0  0
 33 35  1  0  0  0  0
 34 36  1  0  0  0  0
 35 37  1  0  0  0  0
 39 40  1  0  0  0  0
 39 41  2  0  0  0  0
 39 42  1  0  0  0  0
 41 43  1  0  0  0  0
 42 44  2  0  0  0  0
 43 45  2  0  0  0  0
 44 45  1  0  0  0  0
M  END
> <PUBCHEM_COMPOUND_ID_TYPE>
0

> <PUBCHEM_TOTAL_CHARGE>
0

> <PUBCHEM_SUBSTANCE_ID>
310948582

> <PUBCHEM_SUBSTANCE_VERSION>
1

> <PUBCHEM_EXT_DATASOURCE_NAME>
4488

> <PUBCHEM_EXT_DATASOURCE_REGID>
SCHEMBL16126765

> <PUBCHEM_SUBSTANCE_COMMENT>
InChI=1S/C29H34N4O12/c34-18-4-14-29(15-11-26(40)44-32-22(36)7-8-23(32)37,16-12-27(41)45-33-24(38)9-10-25(33)39)31-21(35)13-17-30-28(42)43-19-20-5-2-1-3-6-20/h1-3,5-6,18H,4,7-17,19H2,(H,30,42)(H,31,35)
InChIKey=HBROFXFRPBORRI-UHFFFAOYSA-N

> <PUBCHEM_SUBSTANCE_SYNONYM>
SCHEMBL16126765

> <PUBCHEM_XREF_EXT_ID>
SCHEMBL16126765

> <PUBCHEM_EXT_DATASOURCE_URL>
https://www.surechembl.org/

> <PUBCHEM_EXT_SUBSTANCE_URL>
https://www.surechembl.org/chemical/SCHEMBL16126765

> <PUBCHEM_CID_ASSOCIATIONS>
117614131  1

> <PUBCHEM_COORDINATE_TYPE>
1
3

$$$$
