310948548
  -OEChem-07211613022D

 47 53  0     0  0  0  0  0  0999 V2000
    3.2148   -2.1477    0.0000 S   0  0  0  0  0  0  0  0  0  0  0  0
    2.9652    3.9267    0.0000 F   0  0  0  0  0  0  0  0  0  0  0  0
    3.5060    3.3026    0.0000 F   0  0  0  0  0  0  0  0  0  0  0  0
    3.3118    0.7231    0.0000 F   0  0  0  0  0  0  0  0  0  0  0  0
   -1.6807    0.9588    0.0000 O   0  0  0  0  0  0  0  0  0  0  0  0
    1.8834    3.3442    0.0000 O   0  0  0  0  0  0  0  0  0  0  0  0
    2.7432    2.3180    0.0000 O   0  0  0  0  0  0  0  0  0  0  0  0
   -4.4267    0.1129    0.0000 O   0  0  0  0  0  0  0  0  0  0  0  0
    3.2148   -2.1477    0.0000 O   0  0  0  0  0  0  0  0  0  0  0  0
    3.2148   -2.1477    0.0000 O   0  0  0  0  0  0  0  0  0  0  0  0
    4.5322   -0.0535    0.0000 O   0  0  0  0  0  0  0  0  0  0  0  0
   -1.0845    2.1654    0.0000 N   0  0  0  0  0  0  0  0  0  0  0  0
   -2.2356   -1.1769    0.0000 N   0  0  0  0  0  0  0  0  0  0  0  0
   -3.0261   -0.8995    0.0000 N   0  0  0  0  0  0  0  0  0  0  0  0
   -4.5099    1.4442    0.0000 N   0  0  0  0  0  0  0  0  0  0  0  0
   -0.4604    0.1268    0.0000 C   0  0  0  0  0  0  0  0  0  0  0  0
   -0.8487    0.8617    0.0000 C   0  0  0  0  0  0  0  0  0  0  0  0
   -0.8903   -0.5666    0.0000 C   0  0  0  0  0  0  0  0  0  0  0  0
   -0.4742    1.5968    0.0000 C   0  0  0  0  0  0  0  0  0  0  0  0
   -1.7362   -0.5251    0.0000 C   0  0  0  0  0  0  0  0  0  0  0  0
    0.3301    1.7494    0.0000 C   0  0  0  0  0  0  0  0  0  0  0  0
    0.7601   -0.6221    0.0000 C   0  0  0  0  0  0  0  0  0  0  0  0
    0.3718    0.0990    0.0000 C   0  0  0  0  0  0  0  0  0  0  0  0
    1.4395    2.6369    0.0000 C   0  0  0  0  0  0  0  0  0  0  0  0
    1.5921   -0.6637    0.0000 C   0  0  0  0  0  0  0  0  0  0  0  0
    1.9805    2.0267    0.0000 C   0  0  0  0  0  0  0  0  0  0  0  0
   -0.5019   -1.2740    0.0000 C   0  0  0  0  0  0  0  0  0  0  0  0
   -1.8056    1.7909    0.0000 C   0  0  0  0  0  0  0  0  0  0  0  0
    0.6352    2.4982    0.0000 C   0  0  0  0  0  0  0  0  0  0  0  0
    2.7016    3.1640    0.0000 C   0  0  0  0  0  0  0  0  0  0  0  0
   -2.1939    0.1406    0.0000 C   0  0  0  0  0  0  0  0  0  0  0  0
    0.3301   -1.3156    0.0000 C   0  0  0  0  0  0  0  0  0  0  0  0
   -2.9844   -0.0813    0.0000 C   0  0  0  0  0  0  0  0  0  0  0  0
    2.8126   -1.4127    0.0000 C   0  0  0  0  0  0  0  0  0  0  0  0
    0.8710    1.1114    0.0000 C   0  0  0  0  0  0  0  0  0  0  0  0
    1.9943   -1.3711    0.0000 C   0  0  0  0  0  0  0  0  0  0  0  0
    3.2564   -0.7054    0.0000 C   0  0  0  0  0  0  0  0  0  0  0  0
    1.6892    1.2640    0.0000 C   0  0  0  0  0  0  0  0  0  0  0  0
    2.0360    0.0435    0.0000 C   0  0  0  0  0  0  0  0  0  0  0  0
    2.8680    0.0158    0.0000 C   0  0  0  0  0  0  0  0  0  0  0  0
   -3.6640    0.4319    0.0000 C   0  0  0  0  0  0  0  0  0  0  0  0
   -2.5684    2.1238    0.0000 C   0  0  0  0  0  0  0  0  0  0  0  0
   -1.9859   -1.9951    0.0000 C   0  0  0  0  0  0  0  0  0  0  0  0
    4.1023   -0.7331    0.0000 C   0  0  0  0  0  0  0  0  0  0  0  0
   -3.7055    1.2363    0.0000 C   0  0  0  0  0  0  0  0  0  0  0  0
    4.9399   -3.9267    0.0000 C   0  0  0  0  0  0  0  0  0  0  0  0
   -4.9399    0.7231    0.0000 C   0  0  0  0  0  0  0  0  0  0  0  0
  1  9  2  0  0  0  0
  1 10  2  0  0  0  0
  1 34  1  0  0  0  0
  1 46  1  0  0  0  0
  2 30  1  0  0  0  0
  3 30  1  0  0  0  0
  4 40  1  0  0  0  0
  5 17  1  0  0  0  0
  5 28  1  0  0  0  0
  6 24  1  0  0  0  0
  6 30  1  0  0  0  0
  7 26  1  0  0  0  0
  7 30  1  0  0  0  0
  8 41  1  0  0  0  0
  8 47  1  0  0  0  0
 11 44  1  0  0  0  0
 12 19  1  0  0  0  0
 12 28  2  0  0  0  0
 13 14  1  0  0  0  0
 13 20  1  0  0  0  0
 13 43  1  0  0  0  0
 14 33  2  0  0  0  0
 15 45  1  0  0  0  0
 15 47  2  0  0  0  0
 16 17  1  0  0  0  0
 16 18  1  0  0  0  0
 16 23  2  0  0  0  0
 17 19  2  0  0  0  0
 18 20  1  0  0  0  0
 18 27  2  0  0  0  0
 19 21  1  0  0  0  0
 20 31  2  0  0  0  0
 21 29  1  0  0  0  0
 21 35  2  0  0  0  0
 22 23  1  0  0  0  0
 22 25  1  0  0  0  0
 22 32  2  0  0  0  0
 24 26  1  0  0  0  0
 24 29  2  0  0  0  0
 25 36  1  0  0  0  0
 25 39  2  0  0  0  0
 26 38  2  0  0  0  0
 27 32  1  0  0  0  0
 28 42  1  0  0  0  0
 31 33  1  0  0  0  0
 33 41  1  0  0  0  0
 34 36  2  0  0  0  0
 34 37  1  0  0  0  0
 35 38  1  0  0  0  0
 37 40  2  0  0  0  0
 37 44  1  0  0  0  0
 39 40  1  0  0  0  0
 41 45  2  0  0  0  0
M  END
> <PUBCHEM_COMPOUND_ID_TYPE>
0

> <PUBCHEM_TOTAL_CHARGE>
0

> <PUBCHEM_SUBSTANCE_ID>
310948548

> <PUBCHEM_SUBSTANCE_VERSION>
1

> <PUBCHEM_EXT_DATASOURCE_NAME>
4488

> <PUBCHEM_EXT_DATASOURCE_REGID>
SCHEMBL16126730

> <PUBCHEM_SUBSTANCE_COMMENT>
InChI=1S/C32H23F3N4O7S/c1-16-37-30(18-5-7-26-27(10-18)46-32(34,35)45-26)31(44-16)21-8-17(19-9-23(33)22(14-40)29(11-19)47(3,41)42)4-6-20(21)25-12-24(38-39(25)2)28-13-36-15-43-28/h4-13,15,40H,14H2,1-3H3
InChIKey=JPRPAWJGVJLWPP-UHFFFAOYSA-N

> <PUBCHEM_SUBSTANCE_SYNONYM>
SCHEMBL16126730

> <PUBCHEM_XREF_EXT_ID>
SCHEMBL16126730

> <PUBCHEM_EXT_DATASOURCE_URL>
https://www.surechembl.org/

> <PUBCHEM_EXT_SUBSTANCE_URL>
https://www.surechembl.org/chemical/SCHEMBL16126730

> <PUBCHEM_CID_ASSOCIATIONS>
86275856  1

> <PUBCHEM_COORDINATE_TYPE>
1
3

$$$$
