310946867
  -OEChem-07211613022D

 32 34  0     1  0  0  0  0  0999 V2000
    0.9529    2.2378    0.0000 F   0  0  0  0  0  0  0  0  0  0  0  0
   -1.1373   -1.2662    0.0000 O   0  0  0  0  0  0  0  0  0  0  0  0
    0.0512   -0.4465    0.0000 N   0  0  0  0  0  0  0  0  0  0  0  0
    1.1987    0.3730    0.0000 N   0  0  0  0  0  0  0  0  0  0  0  0
   -0.5020    2.2378    0.0000 N   0  0  0  0  0  0  0  0  0  0  0  0
    0.1742   -1.8605    0.0000 N   0  0  0  0  0  0  0  0  0  0  0  0
    0.1639    1.7460    0.0000 N   0  0  0  0  0  0  0  0  0  0  0  0
    2.5102   -0.2007    0.0000 N   0  0  0  0  0  0  0  0  0  0  0  0
    2.5102   -0.2007    0.0000 N   0  0  0  0  0  0  0  0  0  0  0  0
   -0.4103   -2.9770    0.0000 N   0  0  0  0  0  0  0  0  0  0  0  0
   -0.4411   -3.8522    0.0000 N   0  3  0  0  0  0  0  0  0  0  0  0
   -0.4718   -4.7275    0.0000 N   0  5  0  0  0  0  0  0  0  0  0  0
    0.3894    0.3218    0.0000 C   0  0  3  0  0  0  0  0  0  0  0  0
   -0.0820    0.9673    0.0000 C   0  0  0  0  0  0  0  0  0  0  0  0
   -0.9426    0.9776    0.0000 C   0  0  0  0  0  0  0  0  0  0  0  0
   -1.1885    1.7665    0.0000 C   0  0  0  0  0  0  0  0  0  0  0  0
    0.5123   -1.0716    0.0000 C   0  0  0  0  0  0  0  0  0  0  0  0
    1.6701   -0.2519    0.0000 C   0  0  3  0  0  0  0  0  0  0  0  0
    1.3319   -0.9998    0.0000 C   0  0  0  0  0  0  0  0  0  0  0  0
   -1.4753    0.3628    0.0000 C   0  0  0  0  0  0  0  0  0  0  0  0
   -1.9979    1.9304    0.0000 C   0  0  0  0  0  0  0  0  0  0  0  0
   -2.3053    0.5268    0.0000 C   0  0  0  0  0  0  0  0  0  0  0  0
   -2.5102    1.3259    0.0000 C   0  0  0  0  0  0  0  0  0  0  0  0
    0.2049    3.5082    0.0000 C   0  0  0  0  0  0  0  0  0  0  0  0
   -0.5123    3.1087    0.0000 C   0  0  0  0  0  0  0  0  0  0  0  0
   -0.6558   -1.9220    0.0000 C   0  0  0  0  0  0  0  0  0  0  0  0
    0.9529    3.0984    0.0000 C   0  0  0  0  0  0  0  0  0  0  0  0
    0.2152    4.3484    0.0000 C   0  0  0  0  0  0  0  0  0  0  0  0
   -0.9938   -2.7006    0.0000 C   0  0  0  0  0  0  0  0  0  0  0  0
    1.6598    3.5082    0.0000 C   0  0  0  0  0  0  0  0  0  0  0  0
    0.9426    4.7275    0.0000 C   0  0  0  0  0  0  0  0  0  0  0  0
    1.6598    4.3484    0.0000 C   0  0  0  0  0  0  0  0  0  0  0  0
  1 27  1  0  0  0  0
  2 26  2  0  0  0  0
  3 13  1  0  0  0  0
  3 17  1  0  0  0  0
  4 13  1  0  0  0  0
  4 18  1  0  0  0  0
  5 16  1  0  0  0  0
  5 25  1  0  0  0  0
  6 17  1  0  0  0  0
  6 26  1  0  0  0  0
  7 14  2  3  0  0  0
  8  9  1  0  0  0  0
  8 18  1  0  0  0  0
 10 11  2  0  0  0  0
 10 29  1  0  0  0  0
 11 12  2  0  0  0  0
 13 14  1  0  0  0  0
 14 15  1  0  0  0  0
 15 16  2  0  0  0  0
 15 20  1  0  0  0  0
 16 21  1  0  0  0  0
 17 19  2  0  0  0  0
 18 19  1  0  0  0  0
 20 22  2  0  0  0  0
 21 23  2  0  0  0  0
 22 23  1  0  0  0  0
 24 25  1  0  0  0  0
 24 27  2  0  0  0  0
 24 28  1  0  0  0  0
 26 29  1  0  0  0  0
 27 30  1  0  0  0  0
 28 31  2  0  0  0  0
 30 32  2  0  0  0  0
 31 32  1  0  0  0  0
M  CHG  2  11   1  12  -1
M  END
> <PUBCHEM_COMPOUND_ID_TYPE>
0

> <PUBCHEM_TOTAL_CHARGE>
0

> <PUBCHEM_SUBSTANCE_ID>
310946867

> <PUBCHEM_SUBSTANCE_VERSION>
1

> <PUBCHEM_EXT_DATASOURCE_NAME>
4488

> <PUBCHEM_EXT_DATASOURCE_REGID>
SCHEMBL16124991

> <PUBCHEM_SUBSTANCE_COMMENT>
InChI=1S/C20H23FN10O/c21-14-7-3-1-5-12(14)10-25-15-8-4-2-6-13(15)19(22)20-28-16(9-17(29-20)30-23)27-18(32)11-26-31-24/h1-9,17,20,22,25,28-30H,10-11,23H2,(H,27,32)
InChIKey=LFTLBKXFIKGWRT-UHFFFAOYSA-N

> <PUBCHEM_SUBSTANCE_SYNONYM>
SCHEMBL16124991

> <PUBCHEM_XREF_EXT_ID>
SCHEMBL16124991

> <PUBCHEM_EXT_DATASOURCE_URL>
https://www.surechembl.org/

> <PUBCHEM_EXT_SUBSTANCE_URL>
https://www.surechembl.org/chemical/SCHEMBL16124991

> <PUBCHEM_CID_ASSOCIATIONS>
117612725  1

> <PUBCHEM_COORDINATE_TYPE>
1
3

$$$$
