310941175
  -OEChem-07211613022D

 20 21  0     1  0  0  0  0  0999 V2000
    2.5156   -1.5248    0.0000 O   0  0  0  0  0  0  0  0  0  0  0  0
    1.2032    1.5972    0.0000 O   0  0  0  0  0  0  0  0  0  0  0  0
    1.2032    1.5972    0.0000 O   0  0  0  0  0  0  0  0  0  0  0  0
    2.0102   -2.3558    0.0000 O   0  0  0  0  0  0  0  0  0  0  0  0
    0.4604    0.3171    0.0000 N   0  0  0  0  0  0  0  0  0  0  0  0
   -1.0409    1.1705    0.0000 C   0  0  3  0  0  0  0  0  0  0  0  0
   -1.7521    0.7754    0.0000 C   0  0  3  0  0  0  0  0  0  0  0  0
   -1.7205    1.5656    0.0000 C   0  0  3  0  0  0  0  0  0  0  0  0
   -0.2982    1.5814    0.0000 C   0  0  0  0  0  0  0  0  0  0  0  0
   -2.5265    0.4909    0.0000 C   0  0  0  0  0  0  0  0  0  0  0  0
   -2.5423    1.8501    0.0000 C   0  0  0  0  0  0  0  0  0  0  0  0
    0.4604    1.1863    0.0000 C   0  0  0  0  0  0  0  0  0  0  0  0
   -3.0323    1.1705    0.0000 C   0  0  0  0  0  0  0  0  0  0  0  0
    1.2032    1.5972    0.0000 C   0  0  0  0  0  0  0  0  0  0  0  0
    2.0102   -1.8167    0.0000 C   0  0  0  0  0  0  0  0  0  0  0  0
    2.5269   -0.9632    0.0000 C   0  0  0  0  0  0  0  0  0  0  0  0
    3.0323   -0.9407    0.0000 C   0  0  0  0  0  0  0  0  0  0  0  0
    2.0102   -0.9632    0.0000 C   0  0  0  0  0  0  0  0  0  0  0  0
    2.5156   -0.4129    0.0000 C   0  0  0  0  0  0  0  0  0  0  0  0
    2.9609   -0.2154    0.0000 C   0  0  0  0  0  0  0  0  0  0  0  0
  1 15  1  0  0  0  0
  1 16  1  0  0  0  0
  2 14  1  0  0  0  0
  2 20  1  0  0  0  0
  3 14  2  0  0  0  0
  4 15  2  0  0  0  0
  5 12  1  0  0  0  0
  5 15  1  0  0  0  0
  6  7  1  0  0  0  0
  6  8  1  0  0  0  0
  6  9  1  1  0  0  0
  7  8  1  0  0  0  0
  7 10  1  1  0  0  0
  8 11  1  1  0  0  0
  9 12  2  0  0  0  0
 10 13  2  0  0  0  0
 11 13  1  0  0  0  0
 12 14  1  0  0  0  0
 16 17  1  0  0  0  0
 16 18  1  0  0  0  0
 16 19  1  0  0  0  0
M  END
> <PUBCHEM_COMPOUND_ID_TYPE>
0

> <PUBCHEM_TOTAL_CHARGE>
0

> <PUBCHEM_SUBSTANCE_ID>
310941175

> <PUBCHEM_SUBSTANCE_VERSION>
1

> <PUBCHEM_EXT_DATASOURCE_NAME>
4488

> <PUBCHEM_EXT_DATASOURCE_REGID>
SCHEMBL16119135

> <PUBCHEM_SUBSTANCE_COMMENT>
InChI=1S/C15H21NO4/c1-15(2,3)20-14(18)16-12(13(17)19-4)8-11-9-6-5-7-10(9)11/h5-6,8-11H,7H2,1-4H3,(H,16,18)/b12-8-/t9-,10+,11-/m0/s1
InChIKey=LZAKBWOTVLJVSL-GREYECIQSA-N

> <PUBCHEM_SUBSTANCE_SYNONYM>
SCHEMBL16119135

> <PUBCHEM_XREF_EXT_ID>
SCHEMBL16119135

> <PUBCHEM_EXT_DATASOURCE_URL>
https://www.surechembl.org/

> <PUBCHEM_EXT_SUBSTANCE_URL>
https://www.surechembl.org/chemical/SCHEMBL16119135

> <PUBCHEM_CID_ASSOCIATIONS>
117608049  1

> <PUBCHEM_COORDINATE_TYPE>
1
3

> <PUBCHEM_BONDANNOTATIONS>
6  9  5
7  10  5
8  11  5

$$$$
