310932139
  -OEChem-07211613022D

 21 24  0     1  0  0  0  0  0999 V2000
    0.9614   -1.1944    0.0000 N   0  0  0  0  0  0  0  0  0  0  0  0
    0.5535   -2.6220    0.0000 N   0  0  0  0  0  0  0  0  0  0  0  0
    1.9519   -2.3015    0.0000 N   0  0  0  0  0  0  0  0  0  0  0  0
    1.1070   -1.7771    0.0000 N   0  0  0  0  0  0  0  0  0  0  0  0
    1.7188   -0.4953    0.0000 C   0  0  3  0  0  0  0  0  0  0  0  0
    0.0000   -0.9031    0.0000 C   0  0  3  0  0  0  0  0  0  0  0  0
    1.1362   -2.0102    0.0000 C   0  0  0  0  0  0  0  0  0  0  0  0
    0.3205   -0.1748    0.0000 C   0  0  0  0  0  0  0  0  0  0  0  0
    1.1070    0.0000    0.0000 C   0  0  0  0  0  0  0  0  0  0  0  0
    1.7188   -1.2819    0.0000 C   0  0  0  0  0  0  0  0  0  0  0  0
    0.3205   -1.6023    0.0000 C   0  0  0  0  0  0  0  0  0  0  0  0
    1.5149   -3.6707    0.0000 C   0  0  0  0  0  0  0  0  0  0  0  0
    0.7283   -3.4085    0.0000 C   0  0  0  0  0  0  0  0  0  0  0  0
    2.1267   -3.0880    0.0000 C   0  0  0  0  0  0  0  0  0  0  0  0
    1.7188   -4.5156    0.0000 C   0  0  0  0  0  0  0  0  0  0  0  0
    2.5054   -4.7486    0.0000 C   0  0  0  0  0  0  0  0  0  0  0  0
    2.6802   -5.5643    0.0000 C   0  0  0  0  0  0  0  0  0  0  0  0
    3.1172   -4.1951    0.0000 C   0  0  0  0  0  0  0  0  0  0  0  0
    3.4668   -5.8265    0.0000 C   0  0  0  0  0  0  0  0  0  0  0  0
    3.9038   -4.4282    0.0000 C   0  0  0  0  0  0  0  0  0  0  0  0
    4.1077   -5.2730    0.0000 C   0  0  0  0  0  0  0  0  0  0  0  0
  5  1  1  1  0  0  0
  6  1  1  1  0  0  0
  1  7  1  0  0  0  0
  2  7  2  0  0  0  0
  2 13  1  0  0  0  0
  3  7  1  0  0  0  0
  3 14  2  0  0  0  0
  4 10  1  0  0  0  0
  4 11  1  0  0  0  0
  5  9  1  0  0  0  0
  5 10  1  0  0  0  0
  6  8  1  0  0  0  0
  6 11  1  0  0  0  0
  8  9  1  0  0  0  0
 12 13  2  0  0  0  0
 12 14  1  0  0  0  0
 12 15  1  0  0  0  0
 15 16  1  0  0  0  0
 16 17  2  0  0  0  0
 16 18  1  0  0  0  0
 17 19  1  0  0  0  0
 18 20  2  0  0  0  0
 19 21  2  0  0  0  0
 20 21  1  0  0  0  0
M  END
> <PUBCHEM_COMPOUND_ID_TYPE>
0

> <PUBCHEM_TOTAL_CHARGE>
0

> <PUBCHEM_SUBSTANCE_ID>
310932139

> <PUBCHEM_SUBSTANCE_VERSION>
1

> <PUBCHEM_EXT_DATASOURCE_NAME>
4488

> <PUBCHEM_EXT_DATASOURCE_REGID>
SCHEMBL16109492

> <PUBCHEM_SUBSTANCE_COMMENT>
InChI=1S/C17H20N4/c1-2-4-13(5-3-1)8-14-9-19-17(20-10-14)21-15-6-7-16(21)12-18-11-15/h1-5,9-10,15-16,18H,6-8,11-12H2/t15-,16+
InChIKey=NTYKGSKBPOQESB-IYBDPMFKSA-N

> <PUBCHEM_SUBSTANCE_SYNONYM>
SCHEMBL16109492

> <PUBCHEM_XREF_EXT_ID>
SCHEMBL16109492

> <PUBCHEM_EXT_DATASOURCE_URL>
https://www.surechembl.org/

> <PUBCHEM_EXT_SUBSTANCE_URL>
https://www.surechembl.org/chemical/SCHEMBL16109492

> <PUBCHEM_CID_ASSOCIATIONS>
117600749  1

> <PUBCHEM_COORDINATE_TYPE>
1
3

> <PUBCHEM_BONDANNOTATIONS>
5  1  5
6  1  5

$$$$
