310944235
  -OEChem-07211613022D

 39 42  0     0  0  0  0  0  0999 V2000
   -1.8076   -3.0799    0.0000 F   0  0  0  0  0  0  0  0  0  0  0  0
    3.2993    0.6756    0.0000 F   0  0  0  0  0  0  0  0  0  0  0  0
   -2.5973    3.0799    0.0000 F   0  0  0  0  0  0  0  0  0  0  0  0
   -2.5622   -1.1144    0.0000 N   0  0  0  0  0  0  0  0  0  0  0  0
    1.7900   -0.9740    0.0000 N   0  0  0  0  0  0  0  0  0  0  0  0
   -0.4212    2.6412    0.0000 N   0  0  0  0  0  0  0  0  0  0  0  0
    1.7900   -0.9916    0.0000 N   0  0  0  0  0  0  0  0  0  0  0  0
   -0.3510    2.6412    0.0000 N   0  0  0  0  0  0  0  0  0  0  0  0
   -2.5798   -1.0091    0.0000 N   0  0  0  0  0  0  0  0  0  0  0  0
   -0.3686   -0.5353    0.0000 C   0  0  0  0  0  0  0  0  0  0  0  0
    0.3335    0.6932    0.0000 C   0  0  0  0  0  0  0  0  0  0  0  0
   -1.1056    0.6581    0.0000 C   0  0  0  0  0  0  0  0  0  0  0  0
   -0.3686   -1.3952    0.0000 C   0  0  0  0  0  0  0  0  0  0  0  0
    1.0705    1.0968    0.0000 C   0  0  0  0  0  0  0  0  0  0  0  0
   -1.8427    1.0793    0.0000 C   0  0  0  0  0  0  0  0  0  0  0  0
    0.3510   -0.1317    0.0000 C   0  0  0  0  0  0  0  0  0  0  0  0
   -1.0881   -0.1492    0.0000 C   0  0  0  0  0  0  0  0  0  0  0  0
   -0.3861    1.0617    0.0000 C   0  0  0  0  0  0  0  0  0  0  0  0
   -1.0881   -1.7988    0.0000 C   0  0  0  0  0  0  0  0  0  0  0  0
    1.7900    0.6932    0.0000 C   0  0  0  0  0  0  0  0  0  0  0  0
   -1.8427    1.9041    0.0000 C   0  0  0  0  0  0  0  0  0  0  0  0
    0.3686   -1.7812    0.0000 C   0  0  0  0  0  0  0  0  0  0  0  0
    1.0881    1.9041    0.0000 C   0  0  0  0  0  0  0  0  0  0  0  0
   -2.5622    0.6406    0.0000 C   0  0  0  0  0  0  0  0  0  0  0  0
   -1.0881   -2.6061    0.0000 C   0  0  0  0  0  0  0  0  0  0  0  0
    2.5447    1.0968    0.0000 C   0  0  0  0  0  0  0  0  0  0  0  0
   -2.5973    2.2727    0.0000 C   0  0  0  0  0  0  0  0  0  0  0  0
    0.3686   -2.5885    0.0000 C   0  0  0  0  0  0  0  0  0  0  0  0
    1.8252    2.2902    0.0000 C   0  0  0  0  0  0  0  0  0  0  0  0
   -3.2817    1.0442    0.0000 C   0  0  0  0  0  0  0  0  0  0  0  0
   -0.3686   -3.0097    0.0000 C   0  0  0  0  0  0  0  0  0  0  0  0
    2.5622    1.9041    0.0000 C   0  0  0  0  0  0  0  0  0  0  0  0
   -3.2993    1.8515    0.0000 C   0  0  0  0  0  0  0  0  0  0  0  0
   -1.8427   -1.4303    0.0000 C   0  0  0  0  0  0  0  0  0  0  0  0
    1.7900   -0.1667    0.0000 C   0  0  0  0  0  0  0  0  0  0  0  0
   -1.1407    2.2902    0.0000 C   0  0  0  0  0  0  0  0  0  0  0  0
    1.0705   -1.3776    0.0000 C   0  0  0  0  0  0  0  0  0  0  0  0
    0.3510    2.2902    0.0000 C   0  0  0  0  0  0  0  0  0  0  0  0
   -2.5798   -0.2018    0.0000 C   0  0  0  0  0  0  0  0  0  0  0  0
  1 25  1  0  0  0  0
  2 26  1  0  0  0  0
  3 27  1  0  0  0  0
  4 34  3  0  0  0  0
  5 35  3  0  0  0  0
  6 36  3  0  0  0  0
  7 37  3  0  0  0  0
  8 38  3  0  0  0  0
  9 39  3  0  0  0  0
 10 13  1  0  0  0  0
 10 16  2  0  0  0  0
 10 17  1  0  0  0  0
 11 14  1  0  0  0  0
 11 16  1  0  0  0  0
 11 18  2  0  0  0  0
 12 15  1  0  0  0  0
 12 17  2  0  0  0  0
 12 18  1  0  0  0  0
 13 19  2  0  0  0  0
 13 22  1  0  0  0  0
 14 20  2  0  0  0  0
 14 23  1  0  0  0  0
 15 21  1  0  0  0  0
 15 24  2  0  0  0  0
 19 25  1  0  0  0  0
 19 34  1  0  0  0  0
 20 26  1  0  0  0  0
 20 35  1  0  0  0  0
 21 27  2  0  0  0  0
 21 36  1  0  0  0  0
 22 28  2  0  0  0  0
 22 37  1  0  0  0  0
 23 29  2  0  0  0  0
 23 38  1  0  0  0  0
 24 30  1  0  0  0  0
 24 39  1  0  0  0  0
 25 31  2  0  0  0  0
 26 32  2  0  0  0  0
 27 33  1  0  0  0  0
 28 31  1  0  0  0  0
 29 32  1  0  0  0  0
 30 33  2  0  0  0  0
M  END
> <PUBCHEM_COMPOUND_ID_TYPE>
0

> <PUBCHEM_TOTAL_CHARGE>
0

> <PUBCHEM_SUBSTANCE_ID>
310944235

> <PUBCHEM_SUBSTANCE_VERSION>
1

> <PUBCHEM_EXT_DATASOURCE_NAME>
4488

> <PUBCHEM_EXT_DATASOURCE_REGID>
SCHEMBL16122310

> <PUBCHEM_SUBSTANCE_COMMENT>
InChI=1S/C30H9F3N6/c31-25-4-1-16(10-34)28(22(25)13-37)19-7-20(29-17(11-35)2-5-26(32)23(29)14-38)9-21(8-19)30-18(12-36)3-6-27(33)24(30)15-39/h1-9H
InChIKey=RMNDICCDAMZKDE-UHFFFAOYSA-N

> <PUBCHEM_SUBSTANCE_SYNONYM>
SCHEMBL16122310

> <PUBCHEM_XREF_EXT_ID>
SCHEMBL16122310

> <PUBCHEM_EXT_DATASOURCE_URL>
https://www.surechembl.org/

> <PUBCHEM_EXT_SUBSTANCE_URL>
https://www.surechembl.org/chemical/SCHEMBL16122310

> <PUBCHEM_CID_ASSOCIATIONS>
117610506  1

> <PUBCHEM_COORDINATE_TYPE>
1
3

$$$$
