310940383
  -OEChem-07211613022D

 31 33  0     0  0  0  0  0  0999 V2000
   -0.4919   -1.0323    0.0000 O   0  0  0  0  0  0  0  0  0  0  0  0
    4.5795    1.1154    0.0000 O   0  0  0  0  0  0  0  0  0  0  0  0
   -6.0066   -0.9630    0.0000 O   0  0  0  0  0  0  0  0  0  0  0  0
    3.8728    2.3486    0.0000 O   0  0  0  0  0  0  0  0  0  0  0  0
   -5.7849    0.4642    0.0000 O   0  0  0  0  0  0  0  0  0  0  0  0
    0.9907   -0.1178    0.0000 N   0  0  0  0  0  0  0  0  0  0  0  0
   -2.1962   -0.7967    0.0000 N   0  0  0  0  0  0  0  0  0  0  0  0
    0.2841   -1.3509    0.0000 C   0  0  0  0  0  0  0  0  0  0  0  0
   -1.0323   -1.6558    0.0000 C   0  0  0  0  0  0  0  0  0  0  0  0
    1.7250    0.2841    0.0000 C   0  0  0  0  0  0  0  0  0  0  0  0
   -3.0137   -0.6859    0.0000 C   0  0  0  0  0  0  0  0  0  0  0  0
    3.1661    1.1293    0.0000 C   0  0  0  0  0  0  0  0  0  0  0  0
   -4.6626   -0.4365    0.0000 C   0  0  0  0  0  0  0  0  0  0  0  0
    0.1871   -2.1962    0.0000 C   0  0  0  0  0  0  0  0  0  0  0  0
   -0.6305   -2.3486    0.0000 C   0  0  0  0  0  0  0  0  0  0  0  0
    0.9907   -0.9491    0.0000 C   0  0  0  0  0  0  0  0  0  0  0  0
   -1.8636   -1.5449    0.0000 C   0  0  0  0  0  0  0  0  0  0  0  0
    2.4456   -0.1039    0.0000 C   0  0  0  0  0  0  0  0  0  0  0  0
   -3.3185    0.0624    0.0000 C   0  0  0  0  0  0  0  0  0  0  0  0
    1.7250    1.1154    0.0000 C   0  0  0  0  0  0  0  0  0  0  0  0
   -3.5541   -1.3509    0.0000 C   0  0  0  0  0  0  0  0  0  0  0  0
    3.1522    0.3118    0.0000 C   0  0  0  0  0  0  0  0  0  0  0  0
   -4.1361    0.1871    0.0000 C   0  0  0  0  0  0  0  0  0  0  0  0
    2.4456    1.5311    0.0000 C   0  0  0  0  0  0  0  0  0  0  0  0
   -4.3578   -1.2124    0.0000 C   0  0  0  0  0  0  0  0  0  0  0  0
    3.8728    1.5172    0.0000 C   0  0  0  0  0  0  0  0  0  0  0  0
   -5.4801   -0.3118    0.0000 C   0  0  0  0  0  0  0  0  0  0  0  0
    5.2861    1.5172    0.0000 C   0  0  0  0  0  0  0  0  0  0  0  0
   -6.0066   -0.9630    0.0000 C   0  0  0  0  0  0  0  0  0  0  0  0
    6.0066    1.1154    0.0000 C   0  0  0  0  0  0  0  0  0  0  0  0
   -6.0066   -0.9630    0.0000 C   0  0  0  0  0  0  0  0  0  0  0  0
  1  8  1  0  0  0  0
  1  9  1  0  0  0  0
  2 26  1  0  0  0  0
  2 28  1  0  0  0  0
  3 27  1  0  0  0  0
  3 29  1  0  0  0  0
  4 26  2  0  0  0  0
  5 27  2  0  0  0  0
  6 10  1  0  0  0  0
  6 16  2  0  0  0  0
  7 11  1  0  0  0  0
  7 17  2  0  0  0  0
  8 14  2  0  0  0  0
  8 16  1  0  0  0  0
  9 15  2  0  0  0  0
  9 17  1  0  0  0  0
 10 18  2  0  0  0  0
 10 20  1  0  0  0  0
 11 19  2  0  0  0  0
 11 21  1  0  0  0  0
 12 22  2  0  0  0  0
 12 24  1  0  0  0  0
 12 26  1  0  0  0  0
 13 23  2  0  0  0  0
 13 25  1  0  0  0  0
 13 27  1  0  0  0  0
 14 15  1  0  0  0  0
 18 22  1  0  0  0  0
 19 23  1  0  0  0  0
 20 24  2  0  0  0  0
 21 25  2  0  0  0  0
 28 30  1  0  0  0  0
 29 31  1  0  0  0  0
M  END
> <PUBCHEM_COMPOUND_ID_TYPE>
0

> <PUBCHEM_TOTAL_CHARGE>
0

> <PUBCHEM_SUBSTANCE_ID>
310940383

> <PUBCHEM_SUBSTANCE_VERSION>
1

> <PUBCHEM_EXT_DATASOURCE_NAME>
4488

> <PUBCHEM_EXT_DATASOURCE_REGID>
SCHEMBL16118329

> <PUBCHEM_SUBSTANCE_COMMENT>
InChI=1S/C24H22N2O5/c1-3-29-23(27)17-5-9-19(10-6-17)25-15-21-13-14-22(31-21)16-26-20-11-7-18(8-12-20)24(28)30-4-2/h5-16H,3-4H2,1-2H3/b25-15+,26-16+
InChIKey=SXCGCEVCEHVMHA-RYQLWAFASA-N

> <PUBCHEM_SUBSTANCE_SYNONYM>
SCHEMBL16118329

> <PUBCHEM_XREF_EXT_ID>
SCHEMBL16118329

> <PUBCHEM_EXT_DATASOURCE_URL>
https://www.surechembl.org/

> <PUBCHEM_EXT_SUBSTANCE_URL>
https://www.surechembl.org/chemical/SCHEMBL16118329

> <PUBCHEM_CID_ASSOCIATIONS>
117607414  1

> <PUBCHEM_COORDINATE_TYPE>
1
3

> <PUBCHEM_BONDANNOTATIONS>
6  10  3
7  11  3

$$$$
