310948094
  -OEChem-07211613022D

 41 46  0     0  0  0  0  0  0999 V2000
   -0.1070   -2.9499    0.0000 S   0  0  0  0  0  0  0  0  0  0  0  0
    2.4451   -3.1805    0.0000 F   0  0  0  0  0  0  0  0  0  0  0  0
    3.0708   -2.6536    0.0000 F   0  0  0  0  0  0  0  0  0  0  0  0
    0.1070    1.9569    0.0000 O   0  0  0  0  0  0  0  0  0  0  0  0
    2.4946   -1.5833    0.0000 O   0  0  0  0  0  0  0  0  0  0  0  0
    1.4737   -2.4395    0.0000 O   0  0  0  0  0  0  0  0  0  0  0  0
   -0.1070   -2.9499    0.0000 O   0  0  0  0  0  0  0  0  0  0  0  0
   -0.1070   -2.9499    0.0000 O   0  0  0  0  0  0  0  0  0  0  0  0
   -3.0708    3.9163    0.0000 O   0  0  0  0  0  0  0  0  0  0  0  0
    1.3091    1.3640    0.0000 N   0  0  0  0  0  0  0  0  0  0  0  0
   -1.4243    2.0062    0.0000 N   0  0  0  0  0  0  0  0  0  0  0  0
   -2.0665    2.5167    0.0000 N   0  0  0  0  0  0  0  0  0  0  0  0
   -1.8853    4.7231    0.0000 N   0  0  0  0  0  0  0  0  0  0  0  0
   -0.0082    1.1500    0.0000 C   0  0  0  0  0  0  0  0  0  0  0  0
    0.7327    0.7878    0.0000 C   0  0  0  0  0  0  0  0  0  0  0  0
   -0.7327    0.7548    0.0000 C   0  0  0  0  0  0  0  0  0  0  0  0
    0.8644   -0.0355    0.0000 C   0  0  0  0  0  0  0  0  0  0  0  0
   -1.4408    1.1994    0.0000 C   0  0  0  0  0  0  0  0  0  0  0  0
    1.7866   -1.1223    0.0000 C   0  0  0  0  0  0  0  0  0  0  0  0
    1.1609   -1.6656    0.0000 C   0  0  0  0  0  0  0  0  0  0  0  0
   -0.7821   -0.0684    0.0000 C   0  0  0  0  0  0  0  0  0  0  0  0
    1.6548   -0.3319    0.0000 C   0  0  0  0  0  0  0  0  0  0  0  0
    2.2969   -2.3737    0.0000 C   0  0  0  0  0  0  0  0  0  0  0  0
   -1.4902   -0.4636    0.0000 C   0  0  0  0  0  0  0  0  0  0  0  0
    0.9138    2.0886    0.0000 C   0  0  0  0  0  0  0  0  0  0  0  0
    0.2717   -0.5459    0.0000 C   0  0  0  0  0  0  0  0  0  0  0  0
   -2.1652    0.8042    0.0000 C   0  0  0  0  0  0  0  0  0  0  0  0
    0.3870   -1.3692    0.0000 C   0  0  0  0  0  0  0  0  0  0  0  0
   -1.5395   -1.2869    0.0000 C   0  0  0  0  0  0  0  0  0  0  0  0
   -2.1817   -0.0355    0.0000 C   0  0  0  0  0  0  0  0  0  0  0  0
   -0.7327    2.4837    0.0000 C   0  0  0  0  0  0  0  0  0  0  0  0
   -1.7866    3.3070    0.0000 C   0  0  0  0  0  0  0  0  0  0  0  0
   -0.8151   -1.7150    0.0000 C   0  0  0  0  0  0  0  0  0  0  0  0
   -0.9468    3.2576    0.0000 C   0  0  0  0  0  0  0  0  0  0  0  0
   -0.8315   -2.5219    0.0000 C   0  0  0  0  0  0  0  0  0  0  0  0
   -2.2311   -1.6985    0.0000 C   0  0  0  0  0  0  0  0  0  0  0  0
    1.2761    2.8460    0.0000 C   0  0  0  0  0  0  0  0  0  0  0  0
   -2.2311    3.9986    0.0000 C   0  0  0  0  0  0  0  0  0  0  0  0
   -1.5231   -2.9335    0.0000 C   0  0  0  0  0  0  0  0  0  0  0  0
   -2.2311   -2.5383    0.0000 C   0  0  0  0  0  0  0  0  0  0  0  0
    1.6124   -4.7231    0.0000 C   0  0  0  0  0  0  0  0  0  0  0  0
  1  7  2  0  0  0  0
  1  8  2  0  0  0  0
  1 35  1  0  0  0  0
  1 41  1  0  0  0  0
  2 23  1  0  0  0  0
  3 23  1  0  0  0  0
  4 14  1  0  0  0  0
  4 25  1  0  0  0  0
  5 19  1  0  0  0  0
  5 23  1  0  0  0  0
  6 20  1  0  0  0  0
  6 23  1  0  0  0  0
  9 38  2  0  0  0  0
 10 15  1  0  0  0  0
 10 25  2  0  0  0  0
 11 12  1  0  0  0  0
 11 18  1  0  0  0  0
 11 31  1  0  0  0  0
 12 32  2  0  0  0  0
 13 38  1  0  0  0  0
 14 15  2  0  0  0  0
 14 16  1  0  0  0  0
 15 17  1  0  0  0  0
 16 18  1  0  0  0  0
 16 21  2  0  0  0  0
 17 22  2  0  0  0  0
 17 26  1  0  0  0  0
 18 27  2  0  0  0  0
 19 20  2  0  0  0  0
 19 22  1  0  0  0  0
 20 28  1  0  0  0  0
 21 24  1  0  0  0  0
 24 29  1  0  0  0  0
 24 30  2  0  0  0  0
 25 37  1  0  0  0  0
 26 28  2  0  0  0  0
 27 30  1  0  0  0  0
 29 33  2  0  0  0  0
 29 36  1  0  0  0  0
 31 34  2  0  0  0  0
 32 34  1  0  0  0  0
 32 38  1  0  0  0  0
 33 35  1  0  0  0  0
 35 39  2  0  0  0  0
 36 40  2  0  0  0  0
 39 40  1  0  0  0  0
M  END
> <PUBCHEM_COMPOUND_ID_TYPE>
0

> <PUBCHEM_TOTAL_CHARGE>
0

> <PUBCHEM_SUBSTANCE_ID>
310948094

> <PUBCHEM_SUBSTANCE_VERSION>
1

> <PUBCHEM_EXT_DATASOURCE_NAME>
4488

> <PUBCHEM_EXT_DATASOURCE_REGID>
SCHEMBL16126270

> <PUBCHEM_SUBSTANCE_COMMENT>
InChI=1S/C28H20F2N4O6S/c1-15-32-25(18-7-9-23-24(14-18)40-28(29,30)39-23)26(38-15)20-13-17(16-4-3-5-19(12-16)41(2,36)37)6-8-22(20)34-11-10-21(33-34)27(31)35/h3-14H,1-2H3,(H2,31,35)
InChIKey=KIEPOUJMDWWSQH-UHFFFAOYSA-N

> <PUBCHEM_SUBSTANCE_SYNONYM>
SCHEMBL16126270

> <PUBCHEM_XREF_EXT_ID>
SCHEMBL16126270

> <PUBCHEM_EXT_DATASOURCE_URL>
https://www.surechembl.org/

> <PUBCHEM_EXT_SUBSTANCE_URL>
https://www.surechembl.org/chemical/SCHEMBL16126270

> <PUBCHEM_CID_ASSOCIATIONS>
117613713  1

> <PUBCHEM_COORDINATE_TYPE>
1
3

$$$$
