310929835
  -OEChem-07211613022D

 70 78  0     1  0  0  0  0  0999 V2000
    1.5865  -11.2961    0.0000 S   0  0  0  0  0  0  0  0  0  0  0  0
    2.8558  -10.3441    0.0000 O   0  0  0  0  0  0  0  0  0  0  0  0
    1.8404  -10.5346    0.0000 O   0  0  0  0  0  0  0  0  0  0  0  0
    1.2057  -12.0576    0.0000 O   0  0  0  0  0  0  0  0  0  0  0  0
    3.3000   -9.8365    0.0000 O   0  0  0  0  0  0  0  0  0  0  0  0
    3.9346   -7.3615    0.0000 O   0  0  0  0  0  0  0  0  0  0  0  0
    4.8865   -4.5057    0.0000 O   0  0  0  0  0  0  0  0  0  0  0  0
    5.9654  -10.9788    0.0000 O   0  0  0  0  0  0  0  0  0  0  0  0
    4.7596   -4.1250    0.0000 O   0  0  0  0  0  0  0  0  0  0  0  0
    8.6307   -8.5672    0.0000 O   0  0  0  0  0  0  0  0  0  0  0  0
    2.9192   -1.4596    0.0000 O   0  0  0  0  0  0  0  0  0  0  0  0
    8.8211   -9.7730    0.0000 O   0  0  0  0  0  0  0  0  0  0  0  0
    4.1885   -0.9519    0.0000 O   0  0  0  0  0  0  0  0  0  0  0  0
    4.3154  -10.8518    0.0000 N   0  0  0  0  0  0  0  0  0  0  0  0
    2.2846  -11.6134    0.0000 N   0  0  0  0  0  0  0  0  0  0  0  0
    5.2673   -9.9634    0.0000 N   0  0  0  0  0  0  0  0  0  0  0  0
    3.3635   -6.4096    0.0000 N   0  0  0  0  0  0  0  0  0  0  0  0
    7.6153   -9.8365    0.0000 N   0  0  0  0  0  0  0  0  0  0  0  0
    3.9980   -2.3481    0.0000 N   0  0  0  0  0  0  0  0  0  0  0  0
    3.7442  -11.4230    0.0000 C   0  0  3  0  0  0  0  0  0  0  0  0
    3.9980  -12.1845    0.0000 C   0  0  3  0  0  0  0  0  0  0  0  0
    3.2365  -12.1211    0.0000 C   0  0  0  0  0  0  0  0  0  0  0  0
    2.9827  -11.1057    0.0000 C   0  0  0  0  0  0  0  0  0  0  0  0
    0.8250  -10.9788    0.0000 C   0  0  0  0  0  0  0  0  0  0  0  0
    4.1250  -10.0903    0.0000 C   0  0  0  0  0  0  0  0  0  0  0  0
    4.6327  -12.6922    0.0000 C   0  0  0  0  0  0  0  0  0  0  0  0
    0.0000  -11.1057    0.0000 C   0  0  0  0  0  0  0  0  0  0  0  0
    0.3173  -10.3441    0.0000 C   0  0  0  0  0  0  0  0  0  0  0  0
    4.6962   -9.5192    0.0000 C   0  0  3  0  0  0  0  0  0  0  0  0
    0.6981  -11.8038    0.0000 C   0  0  0  0  0  0  0  0  0  0  0  0
    4.1250   -8.8211    0.0000 C   0  0  0  0  0  0  0  0  0  0  0  0
    3.8711   -8.1865    0.0000 C   0  0  3  0  0  0  0  0  0  0  0  0
    6.0288  -10.1538    0.0000 C   0  0  0  0  0  0  0  0  0  0  0  0
    3.9980   -9.4557    0.0000 C   0  0  0  0  0  0  0  0  0  0  0  0
    4.2519   -6.5365    0.0000 C   0  0  0  0  0  0  0  0  0  0  0  0
    4.4423   -5.1404    0.0000 C   0  0  0  0  0  0  0  0  0  0  0  0
    5.3942  -12.3749    0.0000 C   0  0  0  0  0  0  0  0  0  0  0  0
    4.6962   -5.9654    0.0000 C   0  0  0  0  0  0  0  0  0  0  0  0
    6.9173  -10.1538    0.0000 C   0  0  3  0  0  0  0  0  0  0  0  0
    3.6173   -5.0769    0.0000 C   0  0  0  0  0  0  0  0  0  0  0  0
    3.1731   -5.6481    0.0000 C   0  0  0  0  0  0  0  0  0  0  0  0
    4.6327   -3.7442    0.0000 C   0  0  0  0  0  0  0  0  0  0  0  0
    7.0442  -10.9153    0.0000 C   0  0  0  0  0  0  0  0  0  0  0  0
    5.2673   -2.8558    0.0000 C   0  0  3  0  0  0  0  0  0  0  0  0
    3.4903   -3.6173    0.0000 C   0  0  3  0  0  0  0  0  0  0  0  0
    5.4577   -5.5211    0.0000 C   0  0  0  0  0  0  0  0  0  0  0  0
    3.3635   -4.2519    0.0000 C   0  0  0  0  0  0  0  0  0  0  0  0
    2.2846   -5.5846    0.0000 C   0  0  0  0  0  0  0  0  0  0  0  0
    3.4903   -2.8558    0.0000 C   0  0  0  0  0  0  0  0  0  0  0  0
    4.7596   -2.3481    0.0000 C   0  0  0  0  0  0  0  0  0  0  0  0
    8.1865   -9.2653    0.0000 C   0  0  0  0  0  0  0  0  0  0  0  0
    5.2673   -3.6173    0.0000 C   0  0  0  0  0  0  0  0  0  0  0  0
    3.9980   -4.1250    0.0000 C   0  0  0  0  0  0  0  0  0  0  0  0
    2.4750   -4.1885    0.0000 C   0  0  0  0  0  0  0  0  0  0  0  0
    2.0308   -4.7596    0.0000 C   0  0  0  0  0  0  0  0  0  0  0  0
    8.7577   -7.8057    0.0000 C   0  0  3  0  0  0  0  0  0  0  0  0
    6.2826  -11.1057    0.0000 C   0  0  0  0  0  0  0  0  0  0  0  0
    7.2346  -11.7403    0.0000 C   0  0  0  0  0  0  0  0  0  0  0  0
    7.8692  -10.7884    0.0000 C   0  0  0  0  0  0  0  0  0  0  0  0
    3.6808   -1.5865    0.0000 C   0  0  0  0  0  0  0  0  0  0  0  0
    6.2192   -5.2673    0.0000 C   0  0  0  0  0  0  0  0  0  0  0  0
    8.6307   -6.9807    0.0000 C   0  0  3  0  0  0  0  0  0  0  0  0
    9.4557   -7.2980    0.0000 C   0  0  0  0  0  0  0  0  0  0  0  0
    6.9173   -5.3942    0.0000 C   0  0  0  0  0  0  0  0  0  0  0  0
    8.2500   -6.2826    0.0000 C   0  0  0  0  0  0  0  0  0  0  0  0
    7.6788   -5.7749    0.0000 C   0  0  0  0  0  0  0  0  0  0  0  0
    2.6019   -0.7615    0.0000 C   0  0  0  0  0  0  0  0  0  0  0  0
    3.3635   -0.4442    0.0000 C   0  0  0  0  0  0  0  0  0  0  0  0
    2.2846    0.0000    0.0000 C   0  0  0  0  0  0  0  0  0  0  0  0
    1.8404   -1.0789    0.0000 C   0  0  0  0  0  0  0  0  0  0  0  0
  1  3  2  0  0  0  0
  1  4  2  0  0  0  0
  1 15  1  0  0  0  0
  1 24  1  0  0  0  0
  2 23  2  0  0  0  0
  5 25  2  0  0  0  0
  6 32  1  0  0  0  0
  6 35  1  0  0  0  0
  7 36  1  0  0  0  0
  7 42  1  0  0  0  0
  8 33  2  0  0  0  0
  9 52  1  0  0  0  0
  9 53  1  0  0  0  0
 10 51  1  0  0  0  0
 10 56  1  0  0  0  0
 11 60  1  0  0  0  0
 11 67  1  0  0  0  0
 12 51  2  0  0  0  0
 13 60  2  0  0  0  0
 20 14  1  1  0  0  0
 14 25  1  0  0  0  0
 15 23  1  0  0  0  0
 16 29  1  0  0  0  0
 16 33  1  0  0  0  0
 16 34  1  0  0  0  0
 17 35  1  0  0  0  0
 17 41  2  0  0  0  0
 18 39  1  0  0  0  0
 18 51  1  0  0  0  0
 19 49  1  0  0  0  0
 19 50  1  0  0  0  0
 19 60  1  0  0  0  0
 20 21  1  0  0  0  0
 20 22  1  0  0  0  0
 20 23  1  6  0  0  0
 21 22  1  0  0  0  0
 21 26  1  6  0  0  0
 24 27  1  0  0  0  0
 24 28  1  0  0  0  0
 24 30  1  0  0  0  0
 29 25  1  6  0  0  0
 26 37  2  0  0  0  0
 27 28  1  0  0  0  0
 29 31  1  0  0  0  0
 32 31  1  1  0  0  0
 32 34  1  0  0  0  0
 33 39  1  0  0  0  0
 35 38  2  0  0  0  0
 36 38  1  0  0  0  0
 36 40  2  0  0  0  0
 38 46  1  0  0  0  0
 39 43  1  1  0  0  0
 40 41  1  0  0  0  0
 40 47  1  0  0  0  0
 41 48  1  0  0  0  0
 42 44  1  0  0  0  0
 42 45  1  0  0  0  0
 43 57  1  0  0  0  0
 43 58  1  0  0  0  0
 43 59  1  0  0  0  0
 44 50  1  0  0  0  0
 44 52  1  0  0  0  0
 45 49  1  0  0  0  0
 45 53  1  0  0  0  0
 46 61  1  0  0  0  0
 47 54  2  0  0  0  0
 48 55  2  0  0  0  0
 54 55  1  0  0  0  0
 56 62  1  0  0  0  0
 56 63  1  1  0  0  0
 61 64  1  0  0  0  0
 62 63  1  6  0  0  0
 62 65  1  0  0  0  0
 64 66  1  0  0  0  0
 65 66  1  0  0  0  0
 67 68  1  0  0  0  0
 67 69  1  0  0  0  0
 67 70  1  0  0  0  0
M  END
> <PUBCHEM_COMPOUND_ID_TYPE>
0

> <PUBCHEM_TOTAL_CHARGE>
0

> <PUBCHEM_SUBSTANCE_ID>
310929835

> <PUBCHEM_SUBSTANCE_VERSION>
1

> <PUBCHEM_EXT_DATASOURCE_NAME>
4488

> <PUBCHEM_EXT_DATASOURCE_REGID>
SCHEMBL16107045

> <PUBCHEM_SUBSTANCE_COMMENT>
InChI=1S/C51H70N6O12S/c1-9-32-23-51(32,45(60)55-70(63,64)50(8)19-20-50)54-42(58)37-22-33-26-57(37)44(59)41(48(2,3)4)53-46(61)67-38-21-29(38)15-11-10-12-17-35-40(34-16-13-14-18-36(34)52-43(35)66-33)68-39-30-24-56(25-31(39)28-65-27-30)47(62)69-49(5,6)7/h9,13-14,16,18,29-33,37-39,41H,1,10-12,15,17,19-28H2,2-8H3,(H,53,61)(H,54,58)(H,55,60)/t29-,30?,31?,32-,33-,37+,38-,39?,41-,51-/m1/s1
InChIKey=KKXWGBJVTFEPNJ-PALXBYFASA-N

> <PUBCHEM_SUBSTANCE_SYNONYM>
SCHEMBL16107045

> <PUBCHEM_XREF_EXT_ID>
SCHEMBL16107045

> <PUBCHEM_EXT_DATASOURCE_URL>
https://www.surechembl.org/

> <PUBCHEM_EXT_SUBSTANCE_URL>
https://www.surechembl.org/chemical/SCHEMBL16107045

> <PUBCHEM_CID_ASSOCIATIONS>
117599108  1

> <PUBCHEM_COORDINATE_TYPE>
1
3

> <PUBCHEM_BONDANNOTATIONS>
20  14  5
20  23  6
21  26  6
29  25  6
32  31  5
39  43  5
56  63  5
62  63  6

$$$$
