310937708
  -OEChem-07211613022D

 58 62  0     1  0  0  0  0  0999 V2000
    3.2053   -5.6894    0.0000 O   0  0  0  0  0  0  0  0  0  0  0  0
    4.5275   -5.8096    0.0000 O   0  0  0  0  0  0  0  0  0  0  0  0
    4.2470   -3.6861    0.0000 O   0  0  0  0  0  0  0  0  0  0  0  0
    2.8046   -2.8847    0.0000 O   0  0  0  0  0  0  0  0  0  0  0  0
    2.3639   -5.7295    0.0000 O   0  0  0  0  0  0  0  0  0  0  0  0
    2.1235   -4.9281    0.0000 O   0  0  0  0  0  0  0  0  0  0  0  0
    0.6811   -4.1269    0.0000 O   0  0  0  0  0  0  0  0  0  0  0  0
    8.7345   -3.8063    0.0000 O   0  0  0  0  0  0  0  0  0  0  0  0
   10.1768   -2.9649    0.0000 O   0  0  0  0  0  0  0  0  0  0  0  0
   10.8580   -4.2070    0.0000 O   0  0  0  0  0  0  0  0  0  0  0  0
    9.4556   -5.0484    0.0000 O   0  0  0  0  0  0  0  0  0  0  0  0
    1.4023   -2.8847    0.0000 N   0  0  0  0  0  0  0  0  0  0  0  0
    1.4023   -1.2420    0.0000 N   0  0  0  0  0  0  0  0  0  0  0  0
    3.5258   -4.9281    0.0000 C   0  0  3  0  0  0  0  0  0  0  0  0
    3.5258   -4.1269    0.0000 C   0  0  3  0  0  0  0  0  0  0  0  0
    3.8464   -6.2504    0.0000 C   0  0  0  0  0  0  0  0  0  0  0  0
    2.8046   -3.6861    0.0000 C   0  0  3  0  0  0  0  0  0  0  0  0
    4.3672   -5.0083    0.0000 C   0  0  0  0  0  0  0  0  0  0  0  0
    2.7245   -5.0083    0.0000 C   0  0  0  0  0  0  0  0  0  0  0  0
    2.1235   -4.1269    0.0000 C   0  0  3  0  0  0  0  0  0  0  0  0
    1.4023   -3.6861    0.0000 C   0  0  0  0  0  0  0  0  0  0  0  0
    3.7662   -7.0516    0.0000 C   0  0  0  0  0  0  0  0  0  0  0  0
    4.5275   -6.6510    0.0000 C   0  0  0  0  0  0  0  0  0  0  0  0
    4.9682   -4.1269    0.0000 C   0  0  0  0  0  0  0  0  0  0  0  0
    3.5258   -2.4841    0.0000 C   0  0  0  0  0  0  0  0  0  0  0  0
    5.6894   -3.6861    0.0000 C   0  0  0  0  0  0  0  0  0  0  0  0
    1.5626   -5.8096    0.0000 C   0  0  0  0  0  0  0  0  0  0  0  0
    1.4023   -5.3288    0.0000 C   0  0  0  0  0  0  0  0  0  0  0  0
    2.1235   -2.4841    0.0000 C   0  0  0  0  0  0  0  0  0  0  0  0
    0.6811   -2.4841    0.0000 C   0  0  0  0  0  0  0  0  0  0  0  0
    3.5258   -1.6427    0.0000 C   0  0  0  0  0  0  0  0  0  0  0  0
    1.2020   -6.5308    0.0000 C   0  0  0  0  0  0  0  0  0  0  0  0
    1.4023   -6.1702    0.0000 C   0  0  0  0  0  0  0  0  0  0  0  0
    0.6811   -1.6427    0.0000 C   0  0  0  0  0  0  0  0  0  0  0  0
    2.1235   -1.6427    0.0000 C   0  0  0  0  0  0  0  0  0  0  0  0
    6.3705   -4.1269    0.0000 C   0  0  0  0  0  0  0  0  0  0  0  0
    5.6894   -2.8847    0.0000 C   0  0  0  0  0  0  0  0  0  0  0  0
    4.2470   -1.2420    0.0000 C   0  0  0  0  0  0  0  0  0  0  0  0
    2.8046   -1.2420    0.0000 C   0  0  0  0  0  0  0  0  0  0  0  0
    0.3606   -6.6110    0.0000 C   0  0  0  0  0  0  0  0  0  0  0  0
    1.6427   -7.2119    0.0000 C   0  0  0  0  0  0  0  0  0  0  0  0
    0.6811   -6.5708    0.0000 C   0  0  0  0  0  0  0  0  0  0  0  0
    2.1235   -6.5708    0.0000 C   0  0  0  0  0  0  0  0  0  0  0  0
    7.0917   -3.6861    0.0000 C   0  0  0  0  0  0  0  0  0  0  0  0
    6.3705   -2.4841    0.0000 C   0  0  0  0  0  0  0  0  0  0  0  0
    4.2470   -0.4006    0.0000 C   0  0  0  0  0  0  0  0  0  0  0  0
    2.8046   -0.4006    0.0000 C   0  0  0  0  0  0  0  0  0  0  0  0
    7.0917   -2.8847    0.0000 C   0  0  0  0  0  0  0  0  0  0  0  0
    1.4023   -0.4408    0.0000 C   0  0  0  0  0  0  0  0  0  0  0  0
    3.5258    0.0000    0.0000 C   0  0  0  0  0  0  0  0  0  0  0  0
    0.6811   -7.4122    0.0000 C   0  0  0  0  0  0  0  0  0  0  0  0
    2.1235   -7.4122    0.0000 C   0  0  0  0  0  0  0  0  0  0  0  0
    0.0000   -7.3321    0.0000 C   0  0  0  0  0  0  0  0  0  0  0  0
    1.2821   -7.9331    0.0000 C   0  0  0  0  0  0  0  0  0  0  0  0
    1.4023   -7.8129    0.0000 C   0  0  0  0  0  0  0  0  0  0  0  0
    0.4808   -8.0133    0.0000 C   0  0  0  0  0  0  0  0  0  0  0  0
    9.4556   -4.2070    0.0000 C   0  0  0  0  0  0  0  0  0  0  0  0
   10.1768   -3.8063    0.0000 C   0  0  0  0  0  0  0  0  0  0  0  0
  1 14  1  0  0  0  0
  1 16  1  0  0  0  0
  2 16  1  0  0  0  0
  2 18  1  0  0  0  0
 15  3  1  6  0  0  0
  3 24  1  0  0  0  0
 17  4  1  1  0  0  0
  4 25  1  0  0  0  0
  5 19  1  0  0  0  0
  5 27  1  0  0  0  0
 20  6  1  1  0  0  0
  6 28  1  0  0  0  0
  7 21  2  0  0  0  0
  8 57  2  0  0  0  0
  9 58  2  0  0  0  0
 10 58  1  0  0  0  0
 11 57  1  0  0  0  0
 12 21  1  0  0  0  0
 12 29  1  0  0  0  0
 12 30  1  0  0  0  0
 13 34  1  0  0  0  0
 13 35  1  0  0  0  0
 13 49  1  0  0  0  0
 14 15  1  0  0  0  0
 14 18  1  0  0  0  0
 14 19  1  0  0  0  0
 15 17  1  0  0  0  0
 16 22  1  0  0  0  0
 16 23  1  0  0  0  0
 17 20  1  0  0  0  0
 20 21  1  0  0  0  0
 24 26  1  0  0  0  0
 25 31  1  0  0  0  0
 26 36  2  0  0  0  0
 26 37  1  0  0  0  0
 27 32  1  0  0  0  0
 28 33  1  0  0  0  0
 29 35  1  0  0  0  0
 30 34  1  0  0  0  0
 31 38  2  0  0  0  0
 31 39  1  0  0  0  0
 32 40  2  0  0  0  0
 32 41  1  0  0  0  0
 33 42  2  0  0  0  0
 33 43  1  0  0  0  0
 36 44  1  0  0  0  0
 37 45  2  0  0  0  0
 38 46  1  0  0  0  0
 39 47  2  0  0  0  0
 40 53  1  0  0  0  0
 41 54  2  0  0  0  0
 42 51  1  0  0  0  0
 43 52  2  0  0  0  0
 44 48  2  0  0  0  0
 45 48  1  0  0  0  0
 46 50  2  0  0  0  0
 47 50  1  0  0  0  0
 51 55  2  0  0  0  0
 52 55  1  0  0  0  0
 53 56  2  0  0  0  0
 54 56  1  0  0  0  0
 57 58  1  0  0  0  0
M  END
> <PUBCHEM_COMPOUND_ID_TYPE>
0

> <PUBCHEM_TOTAL_CHARGE>
0

> <PUBCHEM_SUBSTANCE_ID>
310937708

> <PUBCHEM_SUBSTANCE_VERSION>
1

> <PUBCHEM_EXT_DATASOURCE_NAME>
4488

> <PUBCHEM_EXT_DATASOURCE_REGID>
SCHEMBL16115502

> <PUBCHEM_SUBSTANCE_COMMENT>
InChI=1S/C43H52N2O7.C2H2O4/c1-42(2)51-33-43(52-42,32-47-28-34-16-8-4-9-17-34)40(50-31-37-22-14-7-15-23-37)38(48-29-35-18-10-5-11-19-35)39(49-30-36-20-12-6-13-21-36)41(46)45-26-24-44(3)25-27-45;3-1(4)2(5)6/h4-23,38-40H,24-33H2,1-3H3;(H,3,4)(H,5,6)/t38-,39-,40+,43?;/m1./s1
InChIKey=XUHXSEWYTGMCOD-RXVWKENOSA-N

> <PUBCHEM_SUBSTANCE_SYNONYM>
SCHEMBL16115502

> <PUBCHEM_XREF_EXT_ID>
SCHEMBL16115502

> <PUBCHEM_EXT_DATASOURCE_URL>
https://www.surechembl.org/

> <PUBCHEM_EXT_SUBSTANCE_URL>
https://www.surechembl.org/chemical/SCHEMBL16115502

> <PUBCHEM_CID_ASSOCIATIONS>
117605386  1
971  2
117605096  2

> <PUBCHEM_COORDINATE_TYPE>
1
3

> <PUBCHEM_BONDANNOTATIONS>
15  3  6
17  4  5
20  6  5

$$$$
