310947800
  -OEChem-07211613022D

 82 86  0     1  0  0  0  0  0999 V2000
    2.6474   -4.5786    0.0000 S   0  0  0  0  0  0  0  0  0  0  0  0
    7.7008    4.5786    0.0000 S   0  0  0  0  0  0  0  0  0  0  0  0
   -1.7461   -0.6196    0.0000 S   0  0  0  0  0  0  0  0  0  0  0  0
    7.3306   -1.0542    0.0000 S   0  0  0  0  0  0  0  0  0  0  0  0
    3.4360   -4.8683    0.0000 O   0  0  0  0  0  0  0  0  0  0  0  0
    2.3899   -5.3511    0.0000 O   0  0  0  0  0  0  0  0  0  0  0  0
    1.8910   -4.3211    0.0000 O   0  0  0  0  0  0  0  0  0  0  0  0
    7.5881    5.3511    0.0000 O   0  0  0  0  0  0  0  0  0  0  0  0
    7.8295    3.7739    0.0000 O   0  0  0  0  0  0  0  0  0  0  0  0
    8.5055    4.6913    0.0000 O   0  0  0  0  0  0  0  0  0  0  0  0
   -2.0197   -1.3760    0.0000 O   0  0  0  0  0  0  0  0  0  0  0  0
   -1.4564    0.1368    0.0000 O   0  0  0  0  0  0  0  0  0  0  0  0
   -2.5026   -0.3460    0.0000 O   0  0  0  0  0  0  0  0  0  0  0  0
   -6.3328    4.2729    0.0000 O   0  0  0  0  0  0  0  0  0  0  0  0
    6.9605   -0.3621    0.0000 O   0  0  0  0  0  0  0  0  0  0  0  0
    7.7168   -1.7784    0.0000 O   0  0  0  0  0  0  0  0  0  0  0  0
    8.0549   -0.6840    0.0000 O   0  0  0  0  0  0  0  0  0  0  0  0
   -4.9005    2.6152    0.0000 O   0  0  0  0  0  0  0  0  0  0  0  0
   -4.8361    4.2084    0.0000 O   0  0  0  0  0  0  0  0  0  0  0  0
   -6.3328    1.7784    0.0000 O   0  0  0  0  0  0  0  0  0  0  0  0
   -7.7813    2.6152    0.0000 O   0  0  0  0  0  0  0  0  0  0  0  0
   -8.5055    3.8544    0.0000 O   0  0  0  0  0  0  0  0  0  0  0  0
    0.1851    2.9693    0.0000 O   0  0  0  0  0  0  0  0  0  0  0  0
   -4.9005    2.6152    0.0000 O   0  0  0  0  0  0  0  0  0  0  0  0
   -2.6796    3.7900    0.0000 O   0  0  0  0  0  0  0  0  0  0  0  0
    3.6130   -1.4564    0.0000 N   0  3  0  0  0  0  0  0  0  0  0  0
    4.4981    3.7739    0.0000 N   0  0  0  0  0  0  0  0  0  0  0  0
   -0.5230    4.2084    0.0000 N   0  0  0  0  0  0  0  0  0  0  0  0
   -4.9005    2.6152    0.0000 N   0  0  0  0  0  0  0  0  0  0  0  0
    2.3738   -1.6174    0.0000 C   0  0  3  0  0  0  0  0  0  0  0  0
    2.7600   -2.3417    0.0000 C   0  0  0  0  0  0  0  0  0  0  0  0
    2.9854   -1.0542    0.0000 C   0  0  0  0  0  0  0  0  0  0  0  0
    3.5647   -2.2611    0.0000 C   0  0  0  0  0  0  0  0  0  0  0  0
    5.3833    2.7762    0.0000 C   0  0  0  0  0  0  0  0  0  0  0  0
    5.8017    3.5165    0.0000 C   0  0  0  0  0  0  0  0  0  0  0  0
    4.5625    2.9854    0.0000 C   0  0  0  0  0  0  0  0  0  0  0  0
    5.2545    4.1280    0.0000 C   0  0  0  0  0  0  0  0  0  0  0  0
    2.4542   -3.1463    0.0000 C   0  0  0  0  0  0  0  0  0  0  0  0
    1.7461   -1.0863    0.0000 C   0  0  0  0  0  0  0  0  0  0  0  0
    2.9532   -3.7739    0.0000 C   0  0  0  0  0  0  0  0  0  0  0  0
    4.0797   -2.8888    0.0000 C   0  0  0  0  0  0  0  0  0  0  0  0
    2.8888   -0.2173    0.0000 C   0  0  0  0  0  0  0  0  0  0  0  0
    1.6013   -1.9232    0.0000 C   0  0  0  0  0  0  0  0  0  0  0  0
    4.4177   -1.0381    0.0000 C   0  0  0  0  0  0  0  0  0  0  0  0
    6.6225    3.6774    0.0000 C   0  0  0  0  0  0  0  0  0  0  0  0
    3.7739   -3.6613    0.0000 C   0  0  0  0  0  0  0  0  0  0  0  0
    6.8961    4.4499    0.0000 C   0  0  0  0  0  0  0  0  0  0  0  0
    5.5442    4.9005    0.0000 C   0  0  0  0  0  0  0  0  0  0  0  0
    3.9510    2.4382    0.0000 C   0  0  0  0  0  0  0  0  0  0  0  0
    3.7739    4.2245    0.0000 C   0  0  0  0  0  0  0  0  0  0  0  0
    6.0592    2.3094    0.0000 C   0  0  0  0  0  0  0  0  0  0  0  0
    5.3028    1.9554    0.0000 C   0  0  0  0  0  0  0  0  0  0  0  0
    6.3489    5.0614    0.0000 C   0  0  0  0  0  0  0  0  0  0  0  0
    0.9736   -1.3760    0.0000 C   0  0  0  0  0  0  0  0  0  0  0  0
    3.5165    0.2816    0.0000 C   0  0  0  0  0  0  0  0  0  0  0  0
    5.1741   -1.4403    0.0000 C   0  0  0  0  0  0  0  0  0  0  0  0
    4.0636    1.6174    0.0000 C   0  0  0  0  0  0  0  0  0  0  0  0
    3.4199    1.1024    0.0000 C   0  0  0  0  0  0  0  0  0  0  0  0
    3.0819    3.8222    0.0000 C   0  0  0  0  0  0  0  0  0  0  0  0
    0.3139   -0.8449    0.0000 C   0  0  0  0  0  0  0  0  0  0  0  0
    5.8661   -1.0381    0.0000 C   0  0  0  0  0  0  0  0  0  0  0  0
    2.3255    4.2245    0.0000 C   0  0  0  0  0  0  0  0  0  0  0  0
   -0.4426   -1.1185    0.0000 C   0  0  0  0  0  0  0  0  0  0  0  0
    6.6064   -1.4403    0.0000 C   0  0  0  0  0  0  0  0  0  0  0  0
    1.6496    3.8222    0.0000 C   0  0  0  0  0  0  0  0  0  0  0  0
   -5.6408    3.0336    0.0000 C   0  0  3  0  0  0  0  0  0  0  0  0
   -6.3328    2.6313    0.0000 C   0  0  3  0  0  0  0  0  0  0  0  0
   -5.6247    3.8705    0.0000 C   0  0  3  0  0  0  0  0  0  0  0  0
   -7.0570    3.0497    0.0000 C   0  0  3  0  0  0  0  0  0  0  0  0
   -7.0570    3.8705    0.0000 C   0  0  3  0  0  0  0  0  0  0  0  0
    0.8932    4.2245    0.0000 C   0  0  0  0  0  0  0  0  0  0  0  0
    0.1851    3.8383    0.0000 C   0  0  0  0  0  0  0  0  0  0  0  0
   -7.7973    4.2729    0.0000 C   0  0  0  0  0  0  0  0  0  0  0  0
   -4.9005    2.6152    0.0000 C   0  0  0  0  0  0  0  0  0  0  0  0
   -4.1119    3.8222    0.0000 C   0  0  0  0  0  0  0  0  0  0  0  0
   -3.4199    4.2245    0.0000 C   0  0  0  0  0  0  0  0  0  0  0  0
   -1.2312    3.8222    0.0000 C   0  0  0  0  0  0  0  0  0  0  0  0
   -2.9371    0.4715    0.0000 C   0  0  0  0  0  0  0  0  0  0  0  0
   -1.9875    4.2245    0.0000 C   0  0  0  0  0  0  0  0  0  0  0  0
   -1.9354    0.4715    0.0000 C   0  0  0  0  0  0  0  0  0  0  0  0
   -1.4545   -0.3499    0.0000 C   0  0  0  0  0  0  0  0  0  0  0  0
   -0.4929   -0.3299    0.0000 C   0  0  0  0  0  0  0  0  0  0  0  0
  1  5  2  0  0  0  0
  1  6  2  0  0  0  0
  1  7  1  0  0  0  0
  1 40  1  0  0  0  0
  2  8  2  0  0  0  0
  2  9  2  0  0  0  0
  2 10  1  0  0  0  0
  2 47  1  0  0  0  0
  3 11  2  0  0  0  0
  3 12  2  0  0  0  0
  3 13  1  0  0  0  0
  3 63  1  0  0  0  0
  4 15  2  0  0  0  0
  4 16  2  0  0  0  0
  4 17  1  0  0  0  0
  4 64  1  0  0  0  0
 14 68  1  0  0  0  0
 14 70  1  0  0  0  0
 66 18  1  1  0  0  0
 18 74  1  0  0  0  0
 68 19  1  6  0  0  0
 19 75  1  0  0  0  0
 67 20  1  1  0  0  0
 69 21  1  6  0  0  0
 22 73  1  0  0  0  0
 23 72  2  0  0  0  0
 24 74  2  0  0  0  0
 25 76  1  0  0  0  0
 25 79  1  0  0  0  0
 26 32  2  0  0  0  0
 26 33  1  0  0  0  0
 26 44  1  0  0  0  0
 27 36  1  0  0  0  0
 27 37  1  0  0  0  0
 27 50  1  0  0  0  0
 28 72  1  0  0  0  0
 28 77  1  0  0  0  0
 29 74  1  0  0  0  0
 29 78  1  0  0  0  0
 30 31  1  0  0  0  0
 30 32  1  0  0  0  0
 30 39  1  0  0  0  0
 30 43  1  0  0  0  0
 31 33  1  0  0  0  0
 31 38  2  0  0  0  0
 32 42  1  0  0  0  0
 33 41  2  0  0  0  0
 34 35  1  0  0  0  0
 34 36  1  0  0  0  0
 34 51  1  0  0  0  0
 34 52  1  0  0  0  0
 35 37  2  0  0  0  0
 35 45  1  0  0  0  0
 36 49  2  0  0  0  0
 37 48  1  0  0  0  0
 38 40  1  0  0  0  0
 39 54  1  0  0  0  0
 40 46  2  0  0  0  0
 41 46  1  0  0  0  0
 42 55  2  0  0  0  0
 44 56  1  0  0  0  0
 45 47  2  0  0  0  0
 47 53  1  0  0  0  0
 48 53  2  0  0  0  0
 49 57  1  0  0  0  0
 50 59  1  0  0  0  0
 54 60  1  0  0  0  0
 55 58  1  0  0  0  0
 56 61  1  0  0  0  0
 57 58  2  0  0  0  0
 59 62  1  0  0  0  0
 60 63  1  0  0  0  0
 61 64  1  0  0  0  0
 62 65  1  0  0  0  0
 65 71  1  0  0  0  0
 66 67  1  0  0  0  0
 66 68  1  0  0  0  0
 67 69  1  0  0  0  0
 69 70  1  0  0  0  0
 70 73  1  1  0  0  0
 71 72  1  0  0  0  0
 75 76  1  0  0  0  0
 77 79  1  0  0  0  0
 78 80  1  0  0  0  0
 80 81  1  0  0  0  0
 81 82  1  0  0  0  0
M  CHG  1  26   1
M  END
> <PUBCHEM_COMPOUND_ID_TYPE>
0

> <PUBCHEM_TOTAL_CHARGE>
1

> <PUBCHEM_SUBSTANCE_ID>
310947800

> <PUBCHEM_SUBSTANCE_VERSION>
1

> <PUBCHEM_EXT_DATASOURCE_NAME>
4488

> <PUBCHEM_EXT_DATASOURCE_REGID>
SCHEMBL16125972

> <PUBCHEM_SUBSTANCE_COMMENT>
InChI=1S/C53H78N4O21S4/c1-5-6-25-55-51(62)78-49-48(61)47(60)43(36-58)77-50(49)76-31-30-75-29-26-54-46(59)19-11-8-13-27-56-41-22-20-37(81(69,70)71)34-39(41)52(2,3)44(56)17-9-7-10-18-45-53(4,24-12-15-32-79(63,64)65)40-35-38(82(72,73)74)21-23-42(40)57(45)28-14-16-33-80(66,67)68/h7,9-10,17-18,20-23,34-35,43,47-50,58,60-61H,5-6,8,11-16,19,24-33,36H2,1-4H3,(H5-,54,55,59,62,63,64,65,66,67,68,69,70,71,72,73,74)/p+1/t43-,47-,48+,49+,50+,53?/m1/s1
InChIKey=HRHYHWMTUYWFFC-LTBDGHAISA-O

> <PUBCHEM_SUBSTANCE_SYNONYM>
SCHEMBL16125972

> <PUBCHEM_XREF_EXT_ID>
SCHEMBL16125972

> <PUBCHEM_EXT_DATASOURCE_URL>
https://www.surechembl.org/

> <PUBCHEM_EXT_SUBSTANCE_URL>
https://www.surechembl.org/chemical/SCHEMBL16125972

> <PUBCHEM_CID_ASSOCIATIONS>
117613469  1

> <PUBCHEM_COORDINATE_TYPE>
1
3

> <PUBCHEM_BONDANNOTATIONS>
66  18  5
68  19  6
67  20  5
69  21  6
70  73  5

$$$$
