310944393
  -OEChem-07211613022D

 15 15  0     0  0  0  0  0  0999 V2000
   -1.9529    0.8038    0.0000 Br  0  0  0  0  0  0  0  0  0  0  0  0
    1.9529    0.3501    0.0000 Cl  0  0  0  0  0  0  0  0  0  0  0  0
   -0.2466   -1.6324    0.0000 Cl  0  0  0  0  0  0  0  0  0  0  0  0
   -0.2367    1.6225    0.0000 F   0  0  0  0  0  0  0  0  0  0  0  0
   -0.2466   -1.6324    0.0000 O   0  0  0  0  0  0  0  0  0  0  0  0
    1.2329    1.6324    0.0000 O   0  0  0  0  0  0  0  0  0  0  0  0
   -0.2466   -1.6324    0.0000 O   0  0  0  0  0  0  0  0  0  0  0  0
    0.4833    0.4192    0.0000 C   0  0  0  0  0  0  0  0  0  0  0  0
   -0.2466    0.8236    0.0000 C   0  0  0  0  0  0  0  0  0  0  0  0
   -0.2466   -0.7940    0.0000 C   0  0  0  0  0  0  0  0  0  0  0  0
   -0.9765    0.4094    0.0000 C   0  0  0  0  0  0  0  0  0  0  0  0
    0.4735   -0.3994    0.0000 C   0  0  0  0  0  0  0  0  0  0  0  0
   -0.9567   -0.3994    0.0000 C   0  0  0  0  0  0  0  0  0  0  0  0
    1.2132    0.8038    0.0000 C   0  0  0  0  0  0  0  0  0  0  0  0
   -0.2466   -1.6324    0.0000 C   0  0  0  0  0  0  0  0  0  0  0  0
  1 11  1  0  0  0  0
  2 14  1  0  0  0  0
  3  5  1  0  0  0  0
  4  9  1  0  0  0  0
  5 15  1  0  0  0  0
  6 14  2  0  0  0  0
  7 15  2  0  0  0  0
  8  9  2  0  0  0  0
  8 12  1  0  0  0  0
  8 14  1  0  0  0  0
  9 11  1  0  0  0  0
 10 12  2  0  0  0  0
 10 13  1  0  0  0  0
 10 15  1  0  0  0  0
 11 13  2  0  0  0  0
M  END
> <PUBCHEM_COMPOUND_ID_TYPE>
0

> <PUBCHEM_TOTAL_CHARGE>
0

> <PUBCHEM_SUBSTANCE_ID>
310944393

> <PUBCHEM_SUBSTANCE_VERSION>
1

> <PUBCHEM_EXT_DATASOURCE_NAME>
4488

> <PUBCHEM_EXT_DATASOURCE_REGID>
SCHEMBL16122468

> <PUBCHEM_SUBSTANCE_COMMENT>
InChI=1S/C8H2BrCl2FO3/c9-5-2-3(8(14)15-11)1-4(6(5)12)7(10)13/h1-2H
InChIKey=UZDZPZFPTRLETP-UHFFFAOYSA-N

> <PUBCHEM_SUBSTANCE_SYNONYM>
SCHEMBL16122468

> <PUBCHEM_XREF_EXT_ID>
SCHEMBL16122468

> <PUBCHEM_EXT_DATASOURCE_URL>
https://www.surechembl.org/

> <PUBCHEM_EXT_SUBSTANCE_URL>
https://www.surechembl.org/chemical/SCHEMBL16122468

> <PUBCHEM_CID_ASSOCIATIONS>
117610650  1

> <PUBCHEM_COORDINATE_TYPE>
1
3

$$$$
