310946681
  -OEChem-07211613022D

 38 40  0     0  0  0  0  0  0999 V2000
    0.0238    0.7837    0.0000 F   0  0  0  0  0  0  0  0  0  0  0  0
   -1.4207    3.2937    0.0000 F   0  0  0  0  0  0  0  0  0  0  0  0
    1.4478    3.3039    0.0000 O   0  0  0  0  0  0  0  0  0  0  0  0
    1.7142   -3.0888    0.0000 O   0  0  0  0  0  0  0  0  0  0  0  0
   -0.8777   -1.9107    0.0000 N   0  0  0  0  0  0  0  0  0  0  0  0
    0.2696   -1.0911    0.0000 N   0  0  0  0  0  0  0  0  0  0  0  0
   -1.4310    0.7837    0.0000 N   0  0  0  0  0  0  0  0  0  0  0  0
   -0.7548   -3.3244    0.0000 N   0  0  0  0  0  0  0  0  0  0  0  0
    1.5707   -1.6545    0.0000 N   0  0  0  0  0  0  0  0  0  0  0  0
    0.8946   -3.1503    0.0000 N   0  0  0  0  0  0  0  0  0  0  0  0
   -0.7651    0.2920    0.0000 N   0  0  0  0  0  0  0  0  0  0  0  0
   -0.7548   -3.3244    0.0000 N   0  0  0  0  0  0  0  0  0  0  0  0
    1.5707   -1.6545    0.0000 N   0  0  0  0  0  0  0  0  0  0  0  0
   -0.7548   -3.3244    0.0000 N   0  0  0  0  0  0  0  0  0  0  0  0
    1.5707   -1.6545    0.0000 N   0  0  0  0  0  0  0  0  0  0  0  0
    3.4389    3.0704    0.0000 N   0  0  0  0  0  0  0  0  0  0  0  0
    3.4106    2.2658    0.0000 N   0  3  0  0  0  0  0  0  0  0  0  0
    3.3824    1.4613    0.0000 N   0  5  0  0  0  0  0  0  0  0  0  0
   -0.5499   -1.1423    0.0000 C   0  0  0  0  0  0  0  0  0  0  0  0
   -1.0109   -0.4866    0.0000 C   0  0  0  0  0  0  0  0  0  0  0  0
    0.4029   -2.4536    0.0000 C   0  0  0  0  0  0  0  0  0  0  0  0
   -0.3860   -2.5356    0.0000 C   0  0  0  0  0  0  0  0  0  0  0  0
    0.7409   -1.7057    0.0000 C   0  0  0  0  0  0  0  0  0  0  0  0
   -1.8715   -0.4764    0.0000 C   0  0  0  0  0  0  0  0  0  0  0  0
   -2.1173    0.3227    0.0000 C   0  0  0  0  0  0  0  0  0  0  0  0
   -0.7241    2.0541    0.0000 C   0  0  0  0  0  0  0  0  0  0  0  0
   -2.4042   -1.0911    0.0000 C   0  0  0  0  0  0  0  0  0  0  0  0
    0.0135    1.6442    0.0000 C   0  0  0  0  0  0  0  0  0  0  0  0
   -0.7138    2.8941    0.0000 C   0  0  0  0  0  0  0  0  0  0  0  0
   -1.4310    1.6647    0.0000 C   0  0  0  0  0  0  0  0  0  0  0  0
   -2.9267    0.4764    0.0000 C   0  0  0  0  0  0  0  0  0  0  0  0
    0.7307    2.8941    0.0000 C   0  0  0  0  0  0  0  0  0  0  0  0
    0.7307    2.0541    0.0000 C   0  0  0  0  0  0  0  0  0  0  0  0
    0.0033    3.2834    0.0000 C   0  0  0  0  0  0  0  0  0  0  0  0
   -3.2238   -0.9271    0.0000 C   0  0  0  0  0  0  0  0  0  0  0  0
   -3.4389   -0.1178    0.0000 C   0  0  0  0  0  0  0  0  0  0  0  0
    2.1649    2.9249    0.0000 C   0  0  0  0  0  0  0  0  0  0  0  0
    2.9025    3.3244    0.0000 C   0  0  0  0  0  0  0  0  0  0  0  0
  1 28  1  0  0  0  0
  2 29  1  0  0  0  0
  3 32  1  0  0  0  0
  3 37  1  0  0  0  0
  4 10  2  0  0  0  0
  5 19  2  0  0  0  0
  5 22  1  0  0  0  0
  6 19  1  0  0  0  0
  6 23  2  0  0  0  0
  7 25  1  0  0  0  0
  7 30  1  0  0  0  0
  8 12  2  3  0  0  0
  8 22  1  0  0  0  0
  9 13  1  0  0  0  0
  9 23  1  0  0  0  0
 10 21  1  0  0  0  0
 11 20  2  3  0  0  0
 12 14  1  0  0  0  0
 13 15  2  3  0  0  0
 16 17  2  0  0  0  0
 16 38  1  0  0  0  0
 17 18  2  0  0  0  0
 19 20  1  0  0  0  0
 20 24  1  0  0  0  0
 21 22  2  0  0  0  0
 21 23  1  0  0  0  0
 24 25  2  0  0  0  0
 24 27  1  0  0  0  0
 25 31  1  0  0  0  0
 26 28  2  0  0  0  0
 26 29  1  0  0  0  0
 26 30  1  0  0  0  0
 27 35  2  0  0  0  0
 28 33  1  0  0  0  0
 29 34  2  0  0  0  0
 31 36  2  0  0  0  0
 32 33  2  0  0  0  0
 32 34  1  0  0  0  0
 35 36  1  0  0  0  0
 37 38  1  0  0  0  0
M  CHG  2  17   1  18  -1
M  END
> <PUBCHEM_COMPOUND_ID_TYPE>
0

> <PUBCHEM_TOTAL_CHARGE>
0

> <PUBCHEM_SUBSTANCE_ID>
310946681

> <PUBCHEM_SUBSTANCE_VERSION>
1

> <PUBCHEM_EXT_DATASOURCE_NAME>
4488

> <PUBCHEM_EXT_DATASOURCE_REGID>
SCHEMBL16124803

> <PUBCHEM_SUBSTANCE_COMMENT>
InChI=1S/C20H18F2N14O2/c21-13-7-10(38-6-5-28-34-24)8-14(22)12(13)9-27-15-4-2-1-3-11(15)16(23)18-29-19(31-35-25)17(33-37)20(30-18)32-36-26/h1-4,7-8,23,27H,5-6,9H2,(H4,25,26,29,30,31,32)
InChIKey=AOUBBTONTSGOGN-UHFFFAOYSA-N

> <PUBCHEM_SUBSTANCE_SYNONYM>
SCHEMBL16124803

> <PUBCHEM_XREF_EXT_ID>
SCHEMBL16124803

> <PUBCHEM_EXT_DATASOURCE_URL>
https://www.surechembl.org/

> <PUBCHEM_EXT_SUBSTANCE_URL>
https://www.surechembl.org/chemical/SCHEMBL16124803

> <PUBCHEM_CID_ASSOCIATIONS>
117612578  1

> <PUBCHEM_COORDINATE_TYPE>
1
3

$$$$
