310949017
  -OEChem-07211613022D

 25 26  0     0  0  0  0  0  0999 V2000
    1.9260    1.9254    0.0000 Cl  0  0  0  0  0  0  0  0  0  0  0  0
   -3.3387   -0.9774    0.0000 S   0  0  0  0  0  0  0  0  0  0  0  0
   -0.9547    1.9364    0.0000 F   0  0  0  0  0  0  0  0  0  0  0  0
   -0.2373   -0.9774    0.0000 F   0  0  0  0  0  0  0  0  0  0  0  0
   -1.6722   -1.8051    0.0000 F   0  0  0  0  0  0  0  0  0  0  0  0
    2.6434    0.6782    0.0000 O   0  0  0  0  0  0  0  0  0  0  0  0
    1.9149   -0.5690    0.0000 O   0  0  0  0  0  0  0  0  0  0  0  0
    0.4801    0.2699    0.0000 N   0  0  0  0  0  0  0  0  0  0  0  0
    0.4801    2.7643    0.0000 N   0  0  0  0  0  0  0  0  0  0  0  0
   -0.2483    0.6893    0.0000 C   0  0  0  0  0  0  0  0  0  0  0  0
   -0.9547    0.2699    0.0000 C   0  0  0  0  0  0  0  0  0  0  0  0
   -0.2373    1.5281    0.0000 C   0  0  0  0  0  0  0  0  0  0  0  0
    1.1975    0.6893    0.0000 C   0  0  0  0  0  0  0  0  0  0  0  0
    0.4690    1.9364    0.0000 C   0  0  0  0  0  0  0  0  0  0  0  0
   -0.9657   -0.5469    0.0000 C   0  0  0  0  0  0  0  0  0  0  0  0
    1.2085    1.5281    0.0000 C   0  0  0  0  0  0  0  0  0  0  0  0
   -1.6722   -0.9663    0.0000 C   0  0  0  0  0  0  0  0  0  0  0  0
   -2.3895   -0.5469    0.0000 C   0  0  0  0  0  0  0  0  0  0  0  0
   -1.6832    0.6782    0.0000 C   0  0  0  0  0  0  0  0  0  0  0  0
    1.9260    0.3030    0.0000 C   0  0  0  0  0  0  0  0  0  0  0  0
   -2.3785    0.2699    0.0000 C   0  0  0  0  0  0  0  0  0  0  0  0
   -1.6059   -2.7643    0.0000 C   0  0  0  0  0  0  0  0  0  0  0  0
    3.3387    0.2257    0.0000 C   0  0  0  0  0  0  0  0  0  0  0  0
   -1.6059   -2.7643    0.0000 C   0  0  0  0  0  0  0  0  0  0  0  0
   -1.6059   -2.7643    0.0000 C   0  0  0  0  0  0  0  0  0  0  0  0
  1 16  1  0  0  0  0
  2 18  1  0  0  0  0
  2 22  1  0  0  0  0
  3 12  1  0  0  0  0
  4 15  1  0  0  0  0
  5 17  1  0  0  0  0
  6 20  1  0  0  0  0
  6 23  1  0  0  0  0
  7 20  2  0  0  0  0
  8 10  2  0  0  0  0
  8 13  1  0  0  0  0
  9 14  1  0  0  0  0
 10 11  1  0  0  0  0
 10 12  1  0  0  0  0
 11 15  1  0  0  0  0
 11 19  2  0  0  0  0
 12 14  2  0  0  0  0
 13 16  2  0  0  0  0
 13 20  1  0  0  0  0
 14 16  1  0  0  0  0
 15 17  2  0  0  0  0
 17 18  1  0  0  0  0
 18 21  2  0  0  0  0
 19 21  1  0  0  0  0
 22 24  1  0  0  0  0
 22 25  1  0  0  0  0
M  END
> <PUBCHEM_COMPOUND_ID_TYPE>
0

> <PUBCHEM_TOTAL_CHARGE>
0

> <PUBCHEM_SUBSTANCE_ID>
310949017

> <PUBCHEM_SUBSTANCE_VERSION>
1

> <PUBCHEM_EXT_DATASOURCE_NAME>
4488

> <PUBCHEM_EXT_DATASOURCE_REGID>
SCHEMBL16127207

> <PUBCHEM_SUBSTANCE_COMMENT>
InChI=1S/C16H14ClF3N2O2S/c1-6(2)25-8-5-4-7(10(18)11(8)19)14-12(20)13(21)9(17)15(22-14)16(23)24-3/h4-6H,1-3H3,(H2,21,22)
InChIKey=IKQSEAWCRIOPQT-UHFFFAOYSA-N

> <PUBCHEM_SUBSTANCE_SYNONYM>
SCHEMBL16127207

> <PUBCHEM_XREF_EXT_ID>
SCHEMBL16127207

> <PUBCHEM_EXT_DATASOURCE_URL>
https://www.surechembl.org/

> <PUBCHEM_EXT_SUBSTANCE_URL>
https://www.surechembl.org/chemical/SCHEMBL16127207

> <PUBCHEM_CID_ASSOCIATIONS>
117614523  1

> <PUBCHEM_COORDINATE_TYPE>
1
3

$$$$
