310948889
  -OEChem-07211613022D

 58 64  0     0  0  0  0  0  0999 V2000
   -2.7842   -0.1181    0.0000 F   0  0  0  0  0  0  0  0  0  0  0  0
    1.8645    1.4232    0.0000 O   0  0  0  0  0  0  0  0  0  0  0  0
   -4.2385   -0.9508    0.0000 O   0  0  0  0  0  0  0  0  0  0  0  0
   -2.7967   -3.4368    0.0000 O   0  0  0  0  0  0  0  0  0  0  0  0
   -0.6215    1.1249    0.0000 N   0  0  0  0  0  0  0  0  0  0  0  0
    0.1616    0.0311    0.0000 N   0  0  0  0  0  0  0  0  0  0  0  0
   -1.3424   -0.9508    0.0000 N   0  0  0  0  0  0  0  0  0  0  0  0
    0.0870   -0.9508    0.0000 N   0  0  0  0  0  0  0  0  0  0  0  0
    1.5288   -0.9508    0.0000 N   0  0  0  0  0  0  0  0  0  0  0  0
    1.5288   -2.6040    0.0000 N   0  0  0  0  0  0  0  0  0  0  0  0
    3.7537    0.1305    0.0000 N   0  0  0  0  0  0  0  0  0  0  0  0
    4.2385   -0.5407    0.0000 N   0  0  0  0  0  0  0  0  0  0  0  0
   -1.2181    1.7091    0.0000 C   0  0  0  0  0  0  0  0  0  0  0  0
   -1.6407    2.4300    0.0000 C   0  0  0  0  0  0  0  0  0  0  0  0
   -2.0136    1.4978    0.0000 C   0  0  0  0  0  0  0  0  0  0  0  0
   -0.6339    0.2921    0.0000 C   0  0  0  0  0  0  0  0  0  0  0  0
   -0.6339    2.3057    0.0000 C   0  0  0  0  0  0  0  0  0  0  0  0
    0.1367    1.3735    0.0000 C   0  0  0  0  0  0  0  0  0  0  0  0
    0.6339    0.7147    0.0000 C   0  0  0  0  0  0  0  0  0  0  0  0
   -1.3424   -0.1181    0.0000 C   0  0  0  0  0  0  0  0  0  0  0  0
   -1.2305    3.1385    0.0000 C   0  0  0  0  0  0  0  0  0  0  0  0
   -2.6102    2.0696    0.0000 C   0  0  0  0  0  0  0  0  0  0  0  0
   -2.4610    2.4424    0.0000 C   0  0  0  0  0  0  0  0  0  0  0  0
   -2.2373    0.6899    0.0000 C   0  0  0  0  0  0  0  0  0  0  0  0
   -0.8328    3.1012    0.0000 C   0  0  0  0  0  0  0  0  0  0  0  0
   -2.0758   -1.3610    0.0000 C   0  0  0  0  0  0  0  0  0  0  0  0
   -0.6339   -1.3610    0.0000 C   0  0  0  0  0  0  0  0  0  0  0  0
    0.1616    2.0820    0.0000 C   0  0  0  0  0  0  0  0  0  0  0  0
   -2.7967   -0.9508    0.0000 C   0  0  0  0  0  0  0  0  0  0  0  0
    1.4667    0.7023    0.0000 C   0  0  0  0  0  0  0  0  0  0  0  0
   -1.6407    3.8469    0.0000 C   0  0  0  0  0  0  0  0  0  0  0  0
   -3.4057    1.8458    0.0000 C   0  0  0  0  0  0  0  0  0  0  0  0
   -2.8712    3.1509    0.0000 C   0  0  0  0  0  0  0  0  0  0  0  0
   -3.0204    0.4786    0.0000 C   0  0  0  0  0  0  0  0  0  0  0  0
    0.7955   -1.3610    0.0000 C   0  0  0  0  0  0  0  0  0  0  0  0
   -2.0758   -2.1938    0.0000 C   0  0  0  0  0  0  0  0  0  0  0  0
   -0.6339   -2.1938    0.0000 C   0  0  0  0  0  0  0  0  0  0  0  0
   -3.5052   -1.3735    0.0000 C   0  0  0  0  0  0  0  0  0  0  0  0
    0.7955   -2.1938    0.0000 C   0  0  0  0  0  0  0  0  0  0  0  0
   -2.4610    3.8469    0.0000 C   0  0  0  0  0  0  0  0  0  0  0  0
   -3.6045    1.0627    0.0000 C   0  0  0  0  0  0  0  0  0  0  0  0
   -0.2610    3.6605    0.0000 C   0  0  0  0  0  0  0  0  0  0  0  0
   -2.7842   -2.5916    0.0000 C   0  0  0  0  0  0  0  0  0  0  0  0
    0.0870   -2.6040    0.0000 C   0  0  0  0  0  0  0  0  0  0  0  0
   -3.4928   -2.1938    0.0000 C   0  0  0  0  0  0  0  0  0  0  0  0
    2.2373   -1.3610    0.0000 C   0  0  0  0  0  0  0  0  0  0  0  0
    2.2373   -2.1938    0.0000 C   0  0  0  0  0  0  0  0  0  0  0  0
    2.9458   -0.9508    0.0000 C   0  0  0  0  0  0  0  0  0  0  0  0
    0.5345    3.4617    0.0000 C   0  0  0  0  0  0  0  0  0  0  0  0
    2.9582   -0.1181    0.0000 C   0  0  0  0  0  0  0  0  0  0  0  0
    3.7413   -1.2119    0.0000 C   0  0  0  0  0  0  0  0  0  0  0  0
    2.7096    1.4232    0.0000 C   0  0  0  0  0  0  0  0  0  0  0  0
    0.7457    2.6661    0.0000 C   0  0  0  0  0  0  0  0  0  0  0  0
   -4.2261   -0.1305    0.0000 C   0  0  0  0  0  0  0  0  0  0  0  0
   -2.0758   -3.8469    0.0000 C   0  0  0  0  0  0  0  0  0  0  0  0
    3.1198    2.1316    0.0000 C   0  0  0  0  0  0  0  0  0  0  0  0
    4.1515    0.8514    0.0000 C   0  0  0  0  0  0  0  0  0  0  0  0
    0.1616    2.0820    0.0000 C   0  0  0  0  0  0  0  0  0  0  0  0
  1 29  1  0  0  0  0
  2 30  1  0  0  0  0
  2 52  1  0  0  0  0
  3 38  1  0  0  0  0
  3 54  1  0  0  0  0
  4 43  1  0  0  0  0
  4 55  1  0  0  0  0
  5 13  1  0  0  0  0
  5 16  1  0  0  0  0
  5 18  1  0  0  0  0
  6 16  2  0  0  0  0
  6 19  1  0  0  0  0
  7 20  1  0  0  0  0
  7 26  1  0  0  0  0
  7 27  1  0  0  0  0
  8 27  2  0  0  0  0
  8 35  1  0  0  0  0
  9 35  1  0  0  0  0
  9 46  2  0  0  0  0
 10 39  1  0  0  0  0
 10 47  2  0  0  0  0
 11 12  1  0  0  0  0
 11 50  1  0  0  0  0
 11 57  1  0  0  0  0
 12 51  2  0  0  0  0
 13 14  1  0  0  0  0
 13 15  1  0  0  0  0
 13 17  1  0  0  0  0
 14 21  2  0  0  0  0
 14 23  1  0  0  0  0
 15 22  2  0  0  0  0
 15 24  1  0  0  0  0
 16 20  1  0  0  0  0
 17 25  1  0  0  0  0
 17 28  2  0  0  0  0
 18 19  2  0  0  0  0
 19 30  1  0  0  0  0
 21 31  1  0  0  0  0
 22 32  1  0  0  0  0
 23 33  2  0  0  0  0
 24 34  2  0  0  0  0
 25 42  2  0  0  0  0
 26 29  2  0  0  0  0
 26 36  1  0  0  0  0
 27 37  1  0  0  0  0
 29 38  1  0  0  0  0
 31 40  2  0  0  0  0
 32 41  2  0  0  0  0
 33 40  1  0  0  0  0
 34 41  1  0  0  0  0
 35 39  2  0  0  0  0
 36 43  2  0  0  0  0
 37 44  2  0  0  0  0
 38 45  2  0  0  0  0
 39 44  1  0  0  0  0
 42 49  1  0  0  0  0
 43 45  1  0  0  0  0
 46 47  1  0  0  0  0
 46 48  1  0  0  0  0
 48 50  2  0  0  0  0
 48 51  1  0  0  0  0
 49 53  2  0  0  0  0
 52 56  1  0  0  0  0
 53 58  1  0  0  0  0
M  END
> <PUBCHEM_COMPOUND_ID_TYPE>
0

> <PUBCHEM_TOTAL_CHARGE>
0

> <PUBCHEM_SUBSTANCE_ID>
310948889

> <PUBCHEM_SUBSTANCE_VERSION>
1

> <PUBCHEM_EXT_DATASOURCE_NAME>
4488

> <PUBCHEM_EXT_DATASOURCE_REGID>
SCHEMBL16127074

> <PUBCHEM_SUBSTANCE_COMMENT>
InChI=1S/C46H45FN8O3/c1-7-9-12-17-32(3)46(34-18-13-10-14-19-34,35-20-15-11-16-21-35)55-29-36(31-58-8-2)50-43(55)30-54(40-24-37(56-5)25-41(57-6)44(40)47)42-23-22-38-45(52-42)51-39(27-48-38)33-26-49-53(4)28-33/h7,9-29H,3,8,30-31H2,1-2,4-6H3/b9-7-,17-12-
InChIKey=OWRMOWFJPAGDMG-JKFBDIMUSA-N

> <PUBCHEM_SUBSTANCE_SYNONYM>
SCHEMBL16127074

> <PUBCHEM_XREF_EXT_ID>
SCHEMBL16127074

> <PUBCHEM_EXT_DATASOURCE_URL>
https://www.surechembl.org/

> <PUBCHEM_EXT_SUBSTANCE_URL>
https://www.surechembl.org/chemical/SCHEMBL16127074

> <PUBCHEM_CID_ASSOCIATIONS>
117614419  1

> <PUBCHEM_COORDINATE_TYPE>
1
3

$$$$
