310937780
  -OEChem-07211613022D

 20 21  0     0  0  0  0  0  0999 V2000
    2.4374    0.0000    0.0000 Cl  0  0  0  0  0  0  0  0  0  0  0  0
    3.8912   -3.6988    0.0000 F   0  0  0  0  0  0  0  0  0  0  0  0
    4.9388   -2.8222    0.0000 F   0  0  0  0  0  0  0  0  0  0  0  0
    0.4062   -3.5705    0.0000 O   0  0  0  0  0  0  0  0  0  0  0  0
    1.6677   -4.2760    0.0000 N   0  0  0  0  0  0  0  0  0  0  0  0
    4.1478   -2.8435    0.0000 N   0  0  0  0  0  0  0  0  0  0  0  0
    2.8863   -2.1380    0.0000 C   0  0  0  0  0  0  0  0  0  0  0  0
    2.4801   -2.8435    0.0000 C   0  0  0  0  0  0  0  0  0  0  0  0
    3.6988   -2.1166    0.0000 C   0  0  0  0  0  0  0  0  0  0  0  0
    2.9077   -3.5705    0.0000 C   0  0  0  0  0  0  0  0  0  0  0  0
    2.4587   -1.4325    0.0000 C   0  0  0  0  0  0  0  0  0  0  0  0
    1.6677   -2.8435    0.0000 C   0  0  0  0  0  0  0  0  0  0  0  0
    1.2400   -3.5705    0.0000 C   0  0  0  0  0  0  0  0  0  0  0  0
    4.2760   -2.9932    0.0000 C   0  0  0  0  0  0  0  0  0  0  0  0
    4.1050   -1.4111    0.0000 C   0  0  0  0  0  0  0  0  0  0  0  0
    2.8649   -0.7055    0.0000 C   0  0  0  0  0  0  0  0  0  0  0  0
    2.4801   -4.2760    0.0000 C   0  0  0  0  0  0  0  0  0  0  0  0
    3.6774   -0.7055    0.0000 C   0  0  0  0  0  0  0  0  0  0  0  0
    3.7415   -3.5705    0.0000 C   0  0  0  0  0  0  0  0  0  0  0  0
    0.0000   -4.2760    0.0000 C   0  0  0  0  0  0  0  0  0  0  0  0
  1 16  1  0  0  0  0
  2 14  1  0  0  0  0
  3 14  1  0  0  0  0
  4 13  1  0  0  0  0
  4 20  1  0  0  0  0
  5 13  2  0  0  0  0
  5 17  1  0  0  0  0
  6 19  3  0  0  0  0
  7  8  1  0  0  0  0
  7  9  1  0  0  0  0
  7 11  2  0  0  0  0
  8 10  1  0  0  0  0
  8 12  2  0  0  0  0
  9 14  1  0  0  0  0
  9 15  2  0  0  0  0
 10 17  2  0  0  0  0
 10 19  1  0  0  0  0
 11 16  1  0  0  0  0
 12 13  1  0  0  0  0
 15 18  1  0  0  0  0
 16 18  2  0  0  0  0
M  END
> <PUBCHEM_COMPOUND_ID_TYPE>
0

> <PUBCHEM_TOTAL_CHARGE>
0

> <PUBCHEM_SUBSTANCE_ID>
310937780

> <PUBCHEM_SUBSTANCE_VERSION>
1

> <PUBCHEM_EXT_DATASOURCE_NAME>
4488

> <PUBCHEM_EXT_DATASOURCE_REGID>
SCHEMBL16115593

> <PUBCHEM_SUBSTANCE_COMMENT>
InChI=1S/C14H9ClF2N2O/c1-20-13-5-11(8(6-18)7-19-13)12-4-9(15)2-3-10(12)14(16)17/h2-5,7,14H,1H3
InChIKey=NKZHLVOHDOWGLX-UHFFFAOYSA-N

> <PUBCHEM_SUBSTANCE_SYNONYM>
SCHEMBL16115593

> <PUBCHEM_XREF_EXT_ID>
SCHEMBL16115593

> <PUBCHEM_EXT_DATASOURCE_URL>
https://www.surechembl.org/

> <PUBCHEM_EXT_SUBSTANCE_URL>
https://www.surechembl.org/chemical/SCHEMBL16115593

> <PUBCHEM_CID_ASSOCIATIONS>
117605435  1

> <PUBCHEM_COORDINATE_TYPE>
1
3

$$$$
