310948328
  -OEChem-07211613022D

 46 50  0     0  0  0  0  0  0999 V2000
    2.8954   -1.6399    0.0000 S   0  0  0  0  0  0  0  0  0  0  0  0
   -4.3691    0.0407    0.0000 F   0  0  0  0  0  0  0  0  0  0  0  0
   -4.6040    1.1430    0.0000 F   0  0  0  0  0  0  0  0  0  0  0  0
   -3.4836    1.3418    0.0000 F   0  0  0  0  0  0  0  0  0  0  0  0
    2.8954    1.2514    0.0000 F   0  0  0  0  0  0  0  0  0  0  0  0
    3.3111    3.4019    0.0000 F   0  0  0  0  0  0  0  0  0  0  0  0
    2.1907    3.0766    0.0000 F   0  0  0  0  0  0  0  0  0  0  0  0
    3.5821    2.2634    0.0000 F   0  0  0  0  0  0  0  0  0  0  0  0
   -1.9837    1.4141    0.0000 O   0  0  0  0  0  0  0  0  0  0  0  0
    2.8954   -1.6399    0.0000 O   0  0  0  0  0  0  0  0  0  0  0  0
    2.8954   -1.6399    0.0000 O   0  0  0  0  0  0  0  0  0  0  0  0
    2.4798    1.9743    0.0000 O   0  0  0  0  0  0  0  0  0  0  0  0
    4.1062   -0.9171    0.0000 O   0  0  0  0  0  0  0  0  0  0  0  0
   -2.0199   -0.1942    0.0000 N   0  0  0  0  0  0  0  0  0  0  0  0
   -2.4897    0.4925    0.0000 N   0  0  0  0  0  0  0  0  0  0  0  0
   -1.3332    2.5887    0.0000 N   0  0  0  0  0  0  0  0  0  0  0  0
   -0.7911    0.5467    0.0000 C   0  0  0  0  0  0  0  0  0  0  0  0
   -1.1886   -0.1762    0.0000 C   0  0  0  0  0  0  0  0  0  0  0  0
   -1.2067    1.2514    0.0000 C   0  0  0  0  0  0  0  0  0  0  0  0
   -0.7911    1.9924    0.0000 C   0  0  0  0  0  0  0  0  0  0  0  0
    0.4378   -0.1762    0.0000 C   0  0  0  0  0  0  0  0  0  0  0  0
    0.0402    0.5105    0.0000 C   0  0  0  0  0  0  0  0  0  0  0  0
    1.2690   -0.1762    0.0000 C   0  0  0  0  0  0  0  0  0  0  0  0
   -3.2487    0.2394    0.0000 C   0  0  0  0  0  0  0  0  0  0  0  0
   -0.7549   -0.8990    0.0000 C   0  0  0  0  0  0  0  0  0  0  0  0
   -3.2668   -0.5918    0.0000 C   0  0  0  0  0  0  0  0  0  0  0  0
   -2.4717   -0.8629    0.0000 C   0  0  0  0  0  0  0  0  0  0  0  0
    0.0402    1.9924    0.0000 C   0  0  0  0  0  0  0  0  0  0  0  0
    2.4798   -0.9171    0.0000 C   0  0  0  0  0  0  0  0  0  0  0  0
    0.0402   -0.8990    0.0000 C   0  0  0  0  0  0  0  0  0  0  0  0
   -2.0561    2.2634    0.0000 C   0  0  0  0  0  0  0  0  0  0  0  0
   -3.9354    0.7093    0.0000 C   0  0  0  0  0  0  0  0  0  0  0  0
    1.6847   -0.8990    0.0000 C   0  0  0  0  0  0  0  0  0  0  0  0
    2.8954   -0.1762    0.0000 C   0  0  0  0  0  0  0  0  0  0  0  0
    1.6666    0.5105    0.0000 C   0  0  0  0  0  0  0  0  0  0  0  0
    2.4798    0.5286    0.0000 C   0  0  0  0  0  0  0  0  0  0  0  0
    0.4558    1.2695    0.0000 C   0  0  0  0  0  0  0  0  0  0  0  0
    0.4378    2.6791    0.0000 C   0  0  0  0  0  0  0  0  0  0  0  0
    3.7267   -0.2123    0.0000 C   0  0  0  0  0  0  0  0  0  0  0  0
   -3.9354   -1.0978    0.0000 C   0  0  0  0  0  0  0  0  0  0  0  0
    1.6486    1.9743    0.0000 C   0  0  0  0  0  0  0  0  0  0  0  0
   -2.7788    2.6429    0.0000 C   0  0  0  0  0  0  0  0  0  0  0  0
    1.2690    1.2695    0.0000 C   0  0  0  0  0  0  0  0  0  0  0  0
    1.2510    2.6972    0.0000 C   0  0  0  0  0  0  0  0  0  0  0  0
    4.6040   -3.4019    0.0000 C   0  0  0  0  0  0  0  0  0  0  0  0
    2.8954    2.6791    0.0000 C   0  0  0  0  0  0  0  0  0  0  0  0
  1 10  2  0  0  0  0
  1 11  2  0  0  0  0
  1 29  1  0  0  0  0
  1 45  1  0  0  0  0
  2 32  1  0  0  0  0
  3 32  1  0  0  0  0
  4 32  1  0  0  0  0
  5 36  1  0  0  0  0
  6 46  1  0  0  0  0
  7 46  1  0  0  0  0
  8 46  1  0  0  0  0
  9 19  1  0  0  0  0
  9 31  1  0  0  0  0
 12 41  1  0  0  0  0
 12 46  1  0  0  0  0
 13 39  1  0  0  0  0
 14 15  1  0  0  0  0
 14 18  1  0  0  0  0
 14 27  1  0  0  0  0
 15 24  2  0  0  0  0
 16 20  1  0  0  0  0
 16 31  2  0  0  0  0
 17 18  1  0  0  0  0
 17 19  1  0  0  0  0
 17 22  2  0  0  0  0
 18 25  2  0  0  0  0
 19 20  2  0  0  0  0
 20 28  1  0  0  0  0
 21 22  1  0  0  0  0
 21 23  1  0  0  0  0
 21 30  2  0  0  0  0
 23 33  2  0  0  0  0
 23 35  1  0  0  0  0
 24 26  1  0  0  0  0
 24 32  1  0  0  0  0
 25 30  1  0  0  0  0
 26 27  2  0  0  0  0
 26 40  1  0  0  0  0
 28 37  2  0  0  0  0
 28 38  1  0  0  0  0
 29 33  1  0  0  0  0
 29 34  2  0  0  0  0
 31 42  1  0  0  0  0
 34 36  1  0  0  0  0
 34 39  1  0  0  0  0
 35 36  2  0  0  0  0
 37 43  1  0  0  0  0
 38 44  2  0  0  0  0
 41 43  2  0  0  0  0
 41 44  1  0  0  0  0
M  END
> <PUBCHEM_COMPOUND_ID_TYPE>
0

> <PUBCHEM_TOTAL_CHARGE>
0

> <PUBCHEM_SUBSTANCE_ID>
310948328

> <PUBCHEM_SUBSTANCE_VERSION>
1

> <PUBCHEM_EXT_DATASOURCE_NAME>
4488

> <PUBCHEM_EXT_DATASOURCE_REGID>
SCHEMBL16126506

> <PUBCHEM_SUBSTANCE_COMMENT>
InChI=1S/C30H22F7N3O5S/c1-15-13-40(39-28(15)29(32,33)34)24-9-6-18(19-11-23(31)22(14-41)25(12-19)46(3,42)43)10-21(24)27-26(38-16(2)44-27)17-4-7-20(8-5-17)45-30(35,36)37/h4-13,41H,14H2,1-3H3
InChIKey=IXOBGEWSVXRRCG-UHFFFAOYSA-N

> <PUBCHEM_SUBSTANCE_SYNONYM>
SCHEMBL16126506

> <PUBCHEM_XREF_EXT_ID>
SCHEMBL16126506

> <PUBCHEM_EXT_DATASOURCE_URL>
https://www.surechembl.org/

> <PUBCHEM_EXT_SUBSTANCE_URL>
https://www.surechembl.org/chemical/SCHEMBL16126506

> <PUBCHEM_CID_ASSOCIATIONS>
117613893  1

> <PUBCHEM_COORDINATE_TYPE>
1
3

$$$$
