310943526
  -OEChem-07211613022D

 27 29  0     1  0  0  0  0  0999 V2000
    1.9602   -1.7152    0.0000 F   0  0  0  0  0  0  0  0  0  0  0  0
    3.3720    1.9835    0.0000 O   0  0  0  0  0  0  0  0  0  0  0  0
   -2.3219   -1.5285    0.0000 N   0  0  3  0  0  0  0  0  0  0  0  0
   -0.1750    1.5635    0.0000 N   0  0  0  0  0  0  0  0  0  0  0  0
   -4.0838   -0.9801    0.0000 N   0  0  3  0  0  0  0  0  0  0  0  0
    4.0838    0.5600    0.0000 N   0  0  0  0  0  0  0  0  0  0  0  0
    0.5250   -0.6767    0.0000 C   0  0  0  0  0  0  0  0  0  0  0  0
    1.2251   -0.2684    0.0000 C   0  0  0  0  0  0  0  0  0  0  0  0
   -0.1983   -0.2800    0.0000 C   0  0  0  0  0  0  0  0  0  0  0  0
    1.9602   -0.6650    0.0000 C   0  0  0  0  0  0  0  0  0  0  0  0
   -0.8985   -1.5051    0.0000 C   0  0  0  0  0  0  0  0  0  0  0  0
    0.5133   -1.5168    0.0000 C   0  0  0  0  0  0  0  0  0  0  0  0
    1.2602    0.5600    0.0000 C   0  0  0  0  0  0  0  0  0  0  0  0
   -0.8868   -0.6883    0.0000 C   0  0  0  0  0  0  0  0  0  0  0  0
    2.6719    0.5600    0.0000 C   0  0  0  0  0  0  0  0  0  0  0  0
    2.6603   -0.2684    0.0000 C   0  0  0  0  0  0  0  0  0  0  0  0
   -0.1867   -1.9252    0.0000 C   0  0  0  0  0  0  0  0  0  0  0  0
    1.9602    0.9568    0.0000 C   0  0  0  0  0  0  0  0  0  0  0  0
   -1.5985   -1.9252    0.0000 C   0  0  0  0  0  0  0  0  0  0  0  0
   -0.1867    0.7468    0.0000 C   0  0  0  0  0  0  0  0  0  0  0  0
    3.3604    0.9568    0.0000 C   0  0  0  0  0  0  0  0  0  0  0  0
   -2.9986   -1.9835    0.0000 C   0  0  0  0  0  0  0  0  0  0  0  0
   -2.2520   -0.7000    0.0000 C   0  0  0  0  0  0  0  0  0  0  0  0
   -3.7921   -1.7385    0.0000 C   0  0  0  0  0  0  0  0  0  0  0  0
   -2.8586   -0.1400    0.0000 C   0  0  0  0  0  0  0  0  0  0  0  0
   -3.6753   -0.2684    0.0000 C   0  0  0  0  0  0  0  0  0  0  0  0
   -4.0838   -0.9801    0.0000 C   0  0  0  0  0  0  0  0  0  0  0  0
  1 10  1  0  0  0  0
  2 21  2  0  0  0  0
  3 19  1  0  0  0  0
  3 22  1  0  0  0  0
  3 23  1  0  0  0  0
  4 20  3  0  0  0  0
  5 24  1  0  0  0  0
  5 26  1  0  0  0  0
  5 27  1  0  0  0  0
  6 21  1  0  0  0  0
  7  8  1  0  0  0  0
  7  9  2  0  0  0  0
  7 12  1  0  0  0  0
  8 10  1  0  0  0  0
  8 13  2  0  0  0  0
  9 14  1  0  0  0  0
  9 20  1  0  0  0  0
 10 16  2  0  0  0  0
 11 14  2  0  0  0  0
 11 17  1  0  0  0  0
 11 19  1  0  0  0  0
 12 17  2  0  0  0  0
 13 18  1  0  0  0  0
 15 16  1  0  0  0  0
 15 18  2  0  0  0  0
 15 21  1  0  0  0  0
 22 24  1  0  0  0  0
 23 25  1  0  0  0  0
 25 26  1  0  0  0  0
M  END
> <PUBCHEM_COMPOUND_ID_TYPE>
0

> <PUBCHEM_TOTAL_CHARGE>
0

> <PUBCHEM_SUBSTANCE_ID>
310943526

> <PUBCHEM_SUBSTANCE_VERSION>
1

> <PUBCHEM_EXT_DATASOURCE_NAME>
4488

> <PUBCHEM_EXT_DATASOURCE_REGID>
SCHEMBL16121592

> <PUBCHEM_SUBSTANCE_COMMENT>
InChI=1S/C21H23FN4O/c1-25-7-2-8-26(10-9-25)14-15-3-5-18(17(11-15)13-23)19-6-4-16(21(24)27)12-20(19)22/h3-6,11-12H,2,7-10,14H2,1H3,(H2,24,27)
InChIKey=NDIGHQPYMPDMPP-UHFFFAOYSA-N

> <PUBCHEM_SUBSTANCE_SYNONYM>
SCHEMBL16121592

> <PUBCHEM_XREF_EXT_ID>
SCHEMBL16121592

> <PUBCHEM_EXT_DATASOURCE_URL>
https://www.surechembl.org/

> <PUBCHEM_EXT_SUBSTANCE_URL>
https://www.surechembl.org/chemical/SCHEMBL16121592

> <PUBCHEM_CID_ASSOCIATIONS>
117609940  1

> <PUBCHEM_COORDINATE_TYPE>
1
3

$$$$
