310942146
  -OEChem-07211613022D

 29 31  0     1  0  0  0  0  0999 V2000
    0.7287    1.2168    0.0000 Cl  0  0  0  0  0  0  0  0  0  0  0  0
   -0.7012   -1.2718    0.0000 F   0  0  0  0  0  0  0  0  0  0  0  0
    0.7150   -0.4468    0.0000 O   0  0  0  0  0  0  0  0  0  0  0  0
    3.5749    1.9868    0.0000 O   0  0  0  0  0  0  0  0  0  0  0  0
   -4.3035    0.8043    0.0000 O   0  0  0  0  0  0  0  0  0  0  0  0
   -4.3035    0.8043    0.0000 O   0  0  0  0  0  0  0  0  0  0  0  0
   -2.8599   -0.0206    0.0000 N   0  0  0  0  0  0  0  0  0  0  0  0
    2.1861    1.2168    0.0000 N   0  0  0  0  0  0  0  0  0  0  0  0
    4.3035    0.7906    0.0000 N   0  0  0  0  0  0  0  0  0  0  0  0
   -1.4299   -0.0206    0.0000 C   0  0  0  0  0  0  0  0  0  0  0  0
   -2.1449   -0.4331    0.0000 C   0  0  3  0  0  0  0  0  0  0  0  0
   -0.7012   -0.4331    0.0000 C   0  0  0  0  0  0  0  0  0  0  0  0
    0.0000   -0.0206    0.0000 C   0  0  0  0  0  0  0  0  0  0  0  0
   -2.1449   -1.3817    0.0000 C   0  0  0  0  0  0  0  0  0  0  0  0
    0.0138    0.8181    0.0000 C   0  0  0  0  0  0  0  0  0  0  0  0
   -1.4162    0.8043    0.0000 C   0  0  0  0  0  0  0  0  0  0  0  0
   -2.5436   -1.9868    0.0000 C   0  0  0  0  0  0  0  0  0  0  0  0
   -1.7324   -1.9868    0.0000 C   0  0  0  0  0  0  0  0  0  0  0  0
   -0.7150    1.2168    0.0000 C   0  0  0  0  0  0  0  0  0  0  0  0
    1.4437   -0.0206    0.0000 C   0  0  0  0  0  0  0  0  0  0  0  0
   -2.8599    0.8043    0.0000 C   0  0  3  0  0  0  0  0  0  0  0  0
    1.4575    0.8043    0.0000 C   0  0  0  0  0  0  0  0  0  0  0  0
    2.1861   -0.4331    0.0000 C   0  0  0  0  0  0  0  0  0  0  0  0
    2.9011    0.8181    0.0000 C   0  0  0  0  0  0  0  0  0  0  0  0
    2.8873   -0.0343    0.0000 C   0  0  0  0  0  0  0  0  0  0  0  0
    3.6023    1.2168    0.0000 C   0  0  0  0  0  0  0  0  0  0  0  0
   -3.6023    1.2168    0.0000 C   0  0  0  0  0  0  0  0  0  0  0  0
   -2.1586    1.2030    0.0000 C   0  0  0  0  0  0  0  0  0  0  0  0
   -4.3035    0.8043    0.0000 C   0  0  0  0  0  0  0  0  0  0  0  0
  1 15  1  0  0  0  0
  2 12  1  0  0  0  0
  3 13  1  0  0  0  0
  3 20  1  0  0  0  0
  4 26  2  0  0  0  0
  5 29  2  0  0  0  0
  6 29  1  0  0  0  0
 11  7  1  1  0  0  0
  7 21  1  0  0  0  0
  8 22  2  0  0  0  0
  8 24  1  0  0  0  0
  9 26  1  0  0  0  0
 10 11  1  0  0  0  0
 10 12  1  0  0  0  0
 10 16  2  0  0  0  0
 11 14  1  0  0  0  0
 12 13  2  0  0  0  0
 13 15  1  0  0  0  0
 14 17  1  0  0  0  0
 14 18  1  0  0  0  0
 15 19  2  0  0  0  0
 16 19  1  0  0  0  0
 17 18  1  0  0  0  0
 20 22  1  0  0  0  0
 20 23  2  0  0  0  0
 21 27  1  0  0  0  0
 21 28  1  0  0  0  0
 23 25  1  0  0  0  0
 24 25  2  0  0  0  0
 24 26  1  0  0  0  0
 27 29  1  0  0  0  0
M  END
> <PUBCHEM_COMPOUND_ID_TYPE>
0

> <PUBCHEM_TOTAL_CHARGE>
0

> <PUBCHEM_SUBSTANCE_ID>
310942146

> <PUBCHEM_SUBSTANCE_VERSION>
1

> <PUBCHEM_EXT_DATASOURCE_NAME>
4488

> <PUBCHEM_EXT_DATASOURCE_REGID>
SCHEMBL16120181

> <PUBCHEM_SUBSTANCE_COMMENT>
InChI=1S/C20H21ClFN3O4/c1-10(8-16(26)27)25-18(11-2-3-11)13-5-6-14(21)19(17(13)22)29-12-4-7-15(20(23)28)24-9-12/h4-7,9-11,18,25H,2-3,8H2,1H3,(H2,23,28)(H,26,27)/t10?,18-/m1/s1
InChIKey=NHOUJUIAWDJIMF-RXUIWSPKSA-N

> <PUBCHEM_SUBSTANCE_SYNONYM>
SCHEMBL16120181

> <PUBCHEM_XREF_EXT_ID>
SCHEMBL16120181

> <PUBCHEM_EXT_DATASOURCE_URL>
https://www.surechembl.org/

> <PUBCHEM_EXT_SUBSTANCE_URL>
https://www.surechembl.org/chemical/SCHEMBL16120181

> <PUBCHEM_CID_ASSOCIATIONS>
117608805  1

> <PUBCHEM_COORDINATE_TYPE>
1
3

> <PUBCHEM_BONDANNOTATIONS>
11  7  5

$$$$
