310948096
  -OEChem-07211613022D

 45 50  0     0  0  0  0  0  0999 V2000
   -0.1144   -2.9526    0.0000 S   0  0  0  0  0  0  0  0  0  0  0  0
    3.0721   -2.6421    0.0000 F   0  0  0  0  0  0  0  0  0  0  0  0
    2.4511   -3.1814    0.0000 F   0  0  0  0  0  0  0  0  0  0  0  0
   -2.9577   -2.9363    0.0000 F   0  0  0  0  0  0  0  0  0  0  0  0
    0.0981    1.9661    0.0000 O   0  0  0  0  0  0  0  0  0  0  0  0
    2.5001   -1.5636    0.0000 O   0  0  0  0  0  0  0  0  0  0  0  0
    1.4706   -2.4296    0.0000 O   0  0  0  0  0  0  0  0  0  0  0  0
   -0.1144   -2.9526    0.0000 O   0  0  0  0  0  0  0  0  0  0  0  0
   -0.1144   -2.9526    0.0000 O   0  0  0  0  0  0  0  0  0  0  0  0
   -3.0721    3.9269    0.0000 O   0  0  0  0  0  0  0  0  0  0  0  0
   -2.2387   -4.1782    0.0000 O   0  0  0  0  0  0  0  0  0  0  0  0
   -1.4217    2.0150    0.0000 N   0  0  0  0  0  0  0  0  0  0  0  0
    1.3073    1.3778    0.0000 N   0  0  0  0  0  0  0  0  0  0  0  0
   -2.0590    2.5379    0.0000 N   0  0  0  0  0  0  0  0  0  0  0  0
   -0.0163    1.1490    0.0000 C   0  0  0  0  0  0  0  0  0  0  0  0
   -0.7353    0.7568    0.0000 C   0  0  0  0  0  0  0  0  0  0  0  0
    0.7353    0.8058    0.0000 C   0  0  0  0  0  0  0  0  0  0  0  0
   -1.4380    1.1980    0.0000 C   0  0  0  0  0  0  0  0  0  0  0  0
    0.8660   -0.0276    0.0000 C   0  0  0  0  0  0  0  0  0  0  0  0
   -1.4870   -0.4525    0.0000 C   0  0  0  0  0  0  0  0  0  0  0  0
   -0.7680   -0.0603    0.0000 C   0  0  0  0  0  0  0  0  0  0  0  0
    1.7975   -1.1225    0.0000 C   0  0  0  0  0  0  0  0  0  0  0  0
    1.1602   -1.6453    0.0000 C   0  0  0  0  0  0  0  0  0  0  0  0
   -1.5360   -1.2858    0.0000 C   0  0  0  0  0  0  0  0  0  0  0  0
    1.6504   -0.3217    0.0000 C   0  0  0  0  0  0  0  0  0  0  0  0
    0.9151    2.0968    0.0000 C   0  0  0  0  0  0  0  0  0  0  0  0
    2.3041   -2.3643    0.0000 C   0  0  0  0  0  0  0  0  0  0  0  0
   -2.1571    0.8058    0.0000 C   0  0  0  0  0  0  0  0  0  0  0  0
   -0.8171   -2.5114    0.0000 C   0  0  0  0  0  0  0  0  0  0  0  0
   -2.1897   -0.0112    0.0000 C   0  0  0  0  0  0  0  0  0  0  0  0
    0.2615   -0.5504    0.0000 C   0  0  0  0  0  0  0  0  0  0  0  0
   -1.5197   -2.9363    0.0000 C   0  0  0  0  0  0  0  0  0  0  0  0
   -0.8171   -1.6943    0.0000 C   0  0  0  0  0  0  0  0  0  0  0  0
    0.3922   -1.3676    0.0000 C   0  0  0  0  0  0  0  0  0  0  0  0
   -1.7812    3.3223    0.0000 C   0  0  0  0  0  0  0  0  0  0  0  0
   -2.2387   -1.6943    0.0000 C   0  0  0  0  0  0  0  0  0  0  0  0
   -2.2387   -2.5277    0.0000 C   0  0  0  0  0  0  0  0  0  0  0  0
   -0.7353    2.4726    0.0000 C   0  0  0  0  0  0  0  0  0  0  0  0
   -0.9478    3.2732    0.0000 C   0  0  0  0  0  0  0  0  0  0  0  0
   -2.2224    4.0087    0.0000 C   0  0  0  0  0  0  0  0  0  0  0  0
    1.2746    2.8484    0.0000 C   0  0  0  0  0  0  0  0  0  0  0  0
   -1.5360   -3.7697    0.0000 C   0  0  0  0  0  0  0  0  0  0  0  0
    1.6069   -4.7276    0.0000 C   0  0  0  0  0  0  0  0  0  0  0  0
   -1.8792    4.7276    0.0000 C   0  0  0  0  0  0  0  0  0  0  0  0
   -1.4217    4.0577    0.0000 C   0  0  0  0  0  0  0  0  0  0  0  0
  1  8  2  0  0  0  0
  1  9  2  0  0  0  0
  1 29  1  0  0  0  0
  1 43  1  0  0  0  0
  2 27  1  0  0  0  0
  3 27  1  0  0  0  0
  4 37  1  0  0  0  0
  5 15  1  0  0  0  0
  5 26  1  0  0  0  0
  6 22  1  0  0  0  0
  6 27  1  0  0  0  0
  7 23  1  0  0  0  0
  7 27  1  0  0  0  0
 10 40  1  0  0  0  0
 11 42  1  0  0  0  0
 12 14  1  0  0  0  0
 12 18  1  0  0  0  0
 12 38  1  0  0  0  0
 13 17  1  0  0  0  0
 13 26  2  0  0  0  0
 14 35  2  0  0  0  0
 15 16  1  0  0  0  0
 15 17  2  0  0  0  0
 16 18  1  0  0  0  0
 16 21  2  0  0  0  0
 17 19  1  0  0  0  0
 18 28  2  0  0  0  0
 19 25  2  0  0  0  0
 19 31  1  0  0  0  0
 20 21  1  0  0  0  0
 20 24  1  0  0  0  0
 20 30  2  0  0  0  0
 22 23  2  0  0  0  0
 22 25  1  0  0  0  0
 23 34  1  0  0  0  0
 24 33  2  0  0  0  0
 24 36  1  0  0  0  0
 26 41  1  0  0  0  0
 28 30  1  0  0  0  0
 29 32  2  0  0  0  0
 29 33  1  0  0  0  0
 31 34  2  0  0  0  0
 32 37  1  0  0  0  0
 32 42  1  0  0  0  0
 35 39  1  0  0  0  0
 35 40  1  0  0  0  0
 36 37  2  0  0  0  0
 38 39  2  0  0  0  0
 40 44  1  0  0  0  0
 40 45  1  0  0  0  0
M  END
> <PUBCHEM_COMPOUND_ID_TYPE>
0

> <PUBCHEM_TOTAL_CHARGE>
0

> <PUBCHEM_SUBSTANCE_ID>
310948096

> <PUBCHEM_SUBSTANCE_VERSION>
1

> <PUBCHEM_EXT_DATASOURCE_NAME>
4488

> <PUBCHEM_EXT_DATASOURCE_REGID>
SCHEMBL16126272

> <PUBCHEM_SUBSTANCE_COMMENT>
InChI=1S/C31H26F3N3O7S/c1-16-35-28(18-6-8-24-25(13-18)44-31(33,34)43-24)29(42-16)20-11-17(5-7-23(20)37-10-9-27(36-37)30(2,3)39)19-12-22(32)21(15-38)26(14-19)45(4,40)41/h5-14,38-39H,15H2,1-4H3
InChIKey=OJQOGULUQICJMA-UHFFFAOYSA-N

> <PUBCHEM_SUBSTANCE_SYNONYM>
SCHEMBL16126272

> <PUBCHEM_XREF_EXT_ID>
SCHEMBL16126272

> <PUBCHEM_EXT_DATASOURCE_URL>
https://www.surechembl.org/

> <PUBCHEM_EXT_SUBSTANCE_URL>
https://www.surechembl.org/chemical/SCHEMBL16126272

> <PUBCHEM_CID_ASSOCIATIONS>
117613715  1

> <PUBCHEM_COORDINATE_TYPE>
1
3

$$$$
