310949440
  -OEChem-07211613022D

 20 21  0     1  0  0  0  0  0999 V2000
    0.4650   -0.6374    0.0000 S   0  0  0  0  0  0  0  0  0  0  0  0
   -2.1298    2.2123    0.0000 P   0  0  0  0  0  0  0  0  0  0  0  0
    1.4548   -1.2374    0.0000 F   0  0  0  0  0  0  0  0  0  0  0  0
    0.9000   -2.2123    0.0000 F   0  0  0  0  0  0  0  0  0  0  0  0
   -0.0750   -1.6423    0.0000 F   0  0  0  0  0  0  0  0  0  0  0  0
    1.0650   -0.0525    0.0000 O   0  0  0  0  0  0  0  0  0  0  0  0
   -0.3150   -0.4275    0.0000 O   0  0  0  0  0  0  0  0  0  0  0  0
    0.2700    0.1575    0.0000 O   0  0  0  0  0  0  0  0  0  0  0  0
    1.2899    1.3874    0.0000 N   0  0  0  0  0  0  0  0  0  0  0  0
    0.7950    2.0624    0.0000 N   0  0  0  0  0  0  0  0  0  0  0  0
   -1.4099    1.8073    0.0000 N   0  0  3  0  0  0  0  0  0  0  0  0
    0.7950    0.7275    0.0000 C   0  0  0  0  0  0  0  0  0  0  0  0
    0.0000    0.9825    0.0000 C   0  0  0  0  0  0  0  0  0  0  0  0
    0.6750   -1.4324    0.0000 C   0  0  0  0  0  0  0  0  0  0  0  0
    0.0150    1.8073    0.0000 C   0  0  0  0  0  0  0  0  0  0  0  0
   -0.6750    0.5774    0.0000 C   0  0  0  0  0  0  0  0  0  0  0  0
   -0.7200    2.2123    0.0000 C   0  0  0  0  0  0  0  0  0  0  0  0
   -1.4099    0.9825    0.0000 C   0  0  0  0  0  0  0  0  0  0  0  0
    2.1298    1.3874    0.0000 C   0  0  0  0  0  0  0  0  0  0  0  0
   -2.1298    2.2123    0.0000 C   0  0  0  0  0  0  0  0  0  0  0  0
  1  6  1  0  0  0  0
  1  7  2  0  0  0  0
  1  8  2  0  0  0  0
  1 14  1  0  0  0  0
  2 20  3  0  0  0  0
  3 14  1  0  0  0  0
  4 14  1  0  0  0  0
  5 14  1  0  0  0  0
  6 12  1  0  0  0  0
  9 10  1  0  0  0  0
  9 12  1  0  0  0  0
  9 19  1  0  0  0  0
 10 15  2  0  0  0  0
 11 17  1  0  0  0  0
 11 18  1  0  0  0  0
 11 20  1  0  0  0  0
 12 13  2  0  0  0  0
 13 15  1  0  0  0  0
 13 16  1  0  0  0  0
 15 17  1  0  0  0  0
 16 18  1  0  0  0  0
M  END
> <PUBCHEM_COMPOUND_ID_TYPE>
0

> <PUBCHEM_TOTAL_CHARGE>
0

> <PUBCHEM_SUBSTANCE_ID>
310949440

> <PUBCHEM_SUBSTANCE_VERSION>
1

> <PUBCHEM_EXT_DATASOURCE_NAME>
4488

> <PUBCHEM_EXT_DATASOURCE_REGID>
SCHEMBL16127634

> <PUBCHEM_SUBSTANCE_COMMENT>
InChI=1S/C9H9F3N3O3PS/c1-14-8(18-20(16,17)9(10,11)12)6-2-3-15(5-19)4-7(6)13-14/h2-4H2,1H3
InChIKey=PEEUWTOLPXJOIV-UHFFFAOYSA-N

> <PUBCHEM_SUBSTANCE_SYNONYM>
SCHEMBL16127634

> <PUBCHEM_XREF_EXT_ID>
SCHEMBL16127634

> <PUBCHEM_EXT_DATASOURCE_URL>
https://www.surechembl.org/

> <PUBCHEM_EXT_SUBSTANCE_URL>
https://www.surechembl.org/chemical/SCHEMBL16127634

> <PUBCHEM_CID_ASSOCIATIONS>
117614888  1

> <PUBCHEM_COORDINATE_TYPE>
1
3

$$$$
