310944006
  -OEChem-07211613022D

 14 14  0     0  0  0  0  0  0999 V2000
    1.1065   -1.2498    0.0000 Br  0  0  0  0  0  0  0  0  0  0  0  0
    1.8179   -0.0247    0.0000 Cl  0  0  0  0  0  0  0  0  0  0  0  0
   -1.8179    0.4101    0.0000 Cl  0  0  0  0  0  0  0  0  0  0  0  0
   -0.3656    1.2498    0.0000 F   0  0  0  0  0  0  0  0  0  0  0  0
    1.0868    1.2202    0.0000 O   0  0  0  0  0  0  0  0  0  0  0  0
   -1.8179    0.4101    0.0000 O   0  0  0  0  0  0  0  0  0  0  0  0
    0.3656    0.0148    0.0000 C   0  0  0  0  0  0  0  0  0  0  0  0
   -0.3853    0.4298    0.0000 C   0  0  0  0  0  0  0  0  0  0  0  0
   -1.0868    0.0247    0.0000 C   0  0  0  0  0  0  0  0  0  0  0  0
    0.3557   -0.8052    0.0000 C   0  0  0  0  0  0  0  0  0  0  0  0
    1.0868    0.4101    0.0000 C   0  0  0  0  0  0  0  0  0  0  0  0
   -1.0868   -0.8052    0.0000 C   0  0  0  0  0  0  0  0  0  0  0  0
   -0.3556   -1.2202    0.0000 C   0  0  0  0  0  0  0  0  0  0  0  0
   -1.8179    0.4101    0.0000 C   0  0  0  0  0  0  0  0  0  0  0  0
  1 10  1  0  0  0  0
  2 11  1  0  0  0  0
  3 14  1  0  0  0  0
  4  8  1  0  0  0  0
  5 11  2  0  0  0  0
  6 14  2  0  0  0  0
  7  8  2  0  0  0  0
  7 10  1  0  0  0  0
  7 11  1  0  0  0  0
  8  9  1  0  0  0  0
  9 12  2  0  0  0  0
  9 14  1  0  0  0  0
 10 13  2  0  0  0  0
 12 13  1  0  0  0  0
M  END
> <PUBCHEM_COMPOUND_ID_TYPE>
0

> <PUBCHEM_TOTAL_CHARGE>
0

> <PUBCHEM_SUBSTANCE_ID>
310944006

> <PUBCHEM_SUBSTANCE_VERSION>
1

> <PUBCHEM_EXT_DATASOURCE_NAME>
4488

> <PUBCHEM_EXT_DATASOURCE_REGID>
SCHEMBL16122077

> <PUBCHEM_SUBSTANCE_COMMENT>
InChI=1S/C8H2BrCl2FO2/c9-4-2-1-3(7(10)13)6(12)5(4)8(11)14/h1-2H
InChIKey=QBHRRKMUKSRQSB-UHFFFAOYSA-N

> <PUBCHEM_SUBSTANCE_SYNONYM>
SCHEMBL16122077

> <PUBCHEM_XREF_EXT_ID>
SCHEMBL16122077

> <PUBCHEM_EXT_DATASOURCE_URL>
https://www.surechembl.org/

> <PUBCHEM_EXT_SUBSTANCE_URL>
https://www.surechembl.org/chemical/SCHEMBL16122077

> <PUBCHEM_CID_ASSOCIATIONS>
117610310  1

> <PUBCHEM_COORDINATE_TYPE>
1
3

$$$$
