310945303
  -OEChem-07211613022D

 36 41  0     1  0  0  0  0  0999 V2000
    2.1070    1.2476    0.0000 S   0  0  0  0  0  0  0  0  0  0  0  0
    3.7333    1.0627    0.0000 O   0  0  0  0  0  0  0  0  0  0  0  0
   -0.6402   -0.7856    0.0000 O   0  0  0  0  0  0  0  0  0  0  0  0
   -1.1373   -1.6029    0.0000 O   0  0  0  0  0  0  0  0  0  0  0  0
   -1.1089    0.6007    0.0000 N   0  0  0  0  0  0  0  0  0  0  0  0
   -2.6615    1.0258    0.0000 N   0  0  0  0  0  0  0  0  0  0  0  0
    1.9221   -0.8780    0.0000 N   0  0  0  0  0  0  0  0  0  0  0  0
    3.7149   -0.3604    0.0000 N   0  0  0  0  0  0  0  0  0  0  0  0
    1.0905    0.3604    0.0000 C   0  0  0  0  0  0  0  0  0  0  0  0
    0.2772    0.2310    0.0000 C   0  0  0  0  0  0  0  0  0  0  0  0
    1.8482   -0.0831    0.0000 C   0  0  0  0  0  0  0  0  0  0  0  0
    1.2752    1.1736    0.0000 C   0  0  0  0  0  0  0  0  0  0  0  0
    2.4582    0.5082    0.0000 C   0  0  0  0  0  0  0  0  0  0  0  0
   -0.3142    0.8225    0.0000 C   0  0  0  0  0  0  0  0  0  0  0  0
   -2.7354    0.1941    0.0000 C   0  0  0  0  0  0  0  0  0  0  0  0
   -2.1439   -0.3974    0.0000 C   0  0  0  0  0  0  0  0  0  0  0  0
   -1.3492   -0.1941    0.0000 C   0  0  0  0  0  0  0  0  0  0  0  0
    0.0555   -0.5821    0.0000 C   0  0  0  0  0  0  0  0  0  0  0  0
    0.7577    1.7465    0.0000 C   0  0  0  0  0  0  0  0  0  0  0  0
   -3.5116   -0.0277    0.0000 C   0  0  0  0  0  0  0  0  0  0  0  0
    3.3083    0.3419    0.0000 C   0  0  0  0  0  0  0  0  0  0  0  0
   -0.0739    1.5987    0.0000 C   0  0  0  0  0  0  0  0  0  0  0  0
   -0.7207   -0.7854    0.0000 C   0  0  0  0  0  0  0  0  0  0  0  0
   -2.3656   -1.1921    0.0000 C   0  0  0  0  0  0  0  0  0  0  0  0
   -3.4377    1.3215    0.0000 C   0  0  0  0  0  0  0  0  0  0  0  0
   -3.9551    0.6746    0.0000 C   0  0  0  0  0  0  0  0  0  0  0  0
   -1.1373   -1.0728    0.0000 C   0  0  0  0  0  0  0  0  0  0  0  0
   -3.7333   -0.8225    0.0000 C   0  0  0  0  0  0  0  0  0  0  0  0
    2.6429   -1.3585    0.0000 C   0  0  0  0  0  0  0  0  0  0  0  0
    3.4192   -1.1366    0.0000 C   0  0  3  0  0  0  0  0  0  0  0  0
   -3.1605   -1.3954    0.0000 C   0  0  0  0  0  0  0  0  0  0  0  0
   -0.6291   -0.2334    0.0000 C   0  0  0  0  0  0  0  0  0  0  0  0
    3.9551   -1.7465    0.0000 C   0  0  0  0  0  0  0  0  0  0  0  0
   -0.1321   -0.2113    0.0000 C   0  0  0  0  0  0  0  0  0  0  0  0
   -1.1373   -0.2334    0.0000 C   0  0  0  0  0  0  0  0  0  0  0  0
   -0.6402    0.3078    0.0000 C   0  0  0  0  0  0  0  0  0  0  0  0
  1 12  1  0  0  0  0
  1 13  1  0  0  0  0
  2 21  2  0  0  0  0
  3 27  1  0  0  0  0
  3 32  1  0  0  0  0
  4 27  2  0  0  0  0
  5 14  1  0  0  0  0
  5 17  2  0  0  0  0
  6 15  1  0  0  0  0
  6 25  1  0  0  0  0
  6 27  1  0  0  0  0
  7 11  1  0  0  0  0
  7 29  1  0  0  0  0
  8 21  1  0  0  0  0
  8 30  1  0  0  0  0
  9 10  1  0  0  0  0
  9 11  1  0  0  0  0
  9 12  2  0  0  0  0
 10 14  2  0  0  0  0
 10 18  1  0  0  0  0
 11 13  2  0  0  0  0
 12 19  1  0  0  0  0
 13 21  1  0  0  0  0
 14 22  1  0  0  0  0
 15 16  1  0  0  0  0
 15 20  2  0  0  0  0
 16 17  1  0  0  0  0
 16 24  2  0  0  0  0
 17 23  1  0  0  0  0
 18 23  2  0  0  0  0
 19 22  2  0  0  0  0
 20 26  1  0  0  0  0
 20 28  1  0  0  0  0
 24 31  1  0  0  0  0
 25 26  1  0  0  0  0
 28 31  2  0  0  0  0
 29 30  1  0  0  0  0
 30 33  1  6  0  0  0
 32 34  1  0  0  0  0
 32 35  1  0  0  0  0
 32 36  1  0  0  0  0
M  END
> <PUBCHEM_COMPOUND_ID_TYPE>
0

> <PUBCHEM_TOTAL_CHARGE>
0

> <PUBCHEM_SUBSTANCE_ID>
310945303

> <PUBCHEM_SUBSTANCE_VERSION>
1

> <PUBCHEM_EXT_DATASOURCE_NAME>
4488

> <PUBCHEM_EXT_DATASOURCE_REGID>
SCHEMBL16123401

> <PUBCHEM_SUBSTANCE_COMMENT>
InChI=1S/C28H28N4O3S/c1-15-14-29-23-22-17-8-9-20(31-19(17)10-11-21(22)36-25(23)26(33)30-15)18-7-5-6-16-12-13-32(24(16)18)27(34)35-28(2,3)4/h5-11,15,29H,12-14H2,1-4H3,(H,30,33)/t15-/m1/s1
InChIKey=NKKKSECFTBGQSU-OAHLLOKOSA-N

> <PUBCHEM_SUBSTANCE_SYNONYM>
SCHEMBL16123401

> <PUBCHEM_XREF_EXT_ID>
SCHEMBL16123401

> <PUBCHEM_EXT_DATASOURCE_URL>
https://www.surechembl.org/

> <PUBCHEM_EXT_SUBSTANCE_URL>
https://www.surechembl.org/chemical/SCHEMBL16123401

> <PUBCHEM_CID_ASSOCIATIONS>
117611362  1

> <PUBCHEM_COORDINATE_TYPE>
1
3

> <PUBCHEM_BONDANNOTATIONS>
30  33  6

$$$$
