310929130
  -OEChem-07211613022D

 59 64  0     0  0  0  0  0  0999 V2000
    1.4558   -0.7279    0.0000 S   0  0  0  0  0  0  0  0  0  0  0  0
    3.7852   -2.1352    0.0000 O   0  0  0  0  0  0  0  0  0  0  0  0
    6.5028   -1.9411    0.0000 O   0  0  0  0  0  0  0  0  0  0  0  0
    2.9117   -4.9013    0.0000 O   0  0  0  0  0  0  0  0  0  0  0  0
    0.9706   -1.5043    0.0000 O   0  0  0  0  0  0  0  0  0  0  0  0
    1.8441    0.0000    0.0000 O   0  0  0  0  0  0  0  0  0  0  0  0
    9.4630   -6.9395    0.0000 O   0  0  0  0  0  0  0  0  0  0  0  0
   10.8703   -3.5911    0.0000 O   0  0  0  0  0  0  0  0  0  0  0  0
   11.5982   -3.1543    0.0000 O   0  0  0  0  0  0  0  0  0  0  0  0
   14.5584   -2.3293    0.0000 O   0  0  0  0  0  0  0  0  0  0  0  0
    3.5911   -3.6396    0.0000 N   0  0  0  0  0  0  0  0  0  0  0  0
    2.1838   -1.1162    0.0000 N   0  0  0  0  0  0  0  0  0  0  0  0
    4.3190   -4.9013    0.0000 N   0  0  0  0  0  0  0  0  0  0  0  0
    7.9586   -4.4161    0.0000 N   0  0  0  0  0  0  0  0  0  0  0  0
    8.7350   -3.1543    0.0000 N   0  0  0  0  0  0  0  0  0  0  0  0
   11.5982   -4.8528    0.0000 N   0  0  0  0  0  0  0  0  0  0  0  0
   13.0540   -3.1543    0.0000 N   0  0  0  0  0  0  0  0  0  0  0  0
    2.8632   -3.2029    0.0000 C   0  0  0  0  0  0  0  0  0  0  0  0
    4.3190   -3.2029    0.0000 C   0  0  0  0  0  0  0  0  0  0  0  0
    4.3190   -2.4264    0.0000 C   0  0  0  0  0  0  0  0  0  0  0  0
    2.8632   -2.3779    0.0000 C   0  0  0  0  0  0  0  0  0  0  0  0
    5.0469   -1.9896    0.0000 C   0  0  0  0  0  0  0  0  0  0  0  0
    2.1352   -1.9896    0.0000 C   0  0  0  0  0  0  0  0  0  0  0  0
    1.4558   -3.2514    0.0000 C   0  0  0  0  0  0  0  0  0  0  0  0
    2.1352   -3.6396    0.0000 C   0  0  0  0  0  0  0  0  0  0  0  0
    5.7748   -2.3779    0.0000 C   0  0  0  0  0  0  0  0  0  0  0  0
    3.5911   -4.4646    0.0000 C   0  0  0  0  0  0  0  0  0  0  0  0
    5.0469   -3.6396    0.0000 C   0  0  0  0  0  0  0  0  0  0  0  0
    1.4558   -2.3779    0.0000 C   0  0  0  0  0  0  0  0  0  0  0  0
    0.6794   -3.6396    0.0000 C   0  0  0  0  0  0  0  0  0  0  0  0
    5.7748   -3.2029    0.0000 C   0  0  0  0  0  0  0  0  0  0  0  0
    3.5911   -1.9896    0.0000 C   0  0  0  0  0  0  0  0  0  0  0  0
    5.0469   -1.1646    0.0000 C   0  0  0  0  0  0  0  0  0  0  0  0
    3.5911   -1.1646    0.0000 C   0  0  0  0  0  0  0  0  0  0  0  0
    4.3190   -0.7279    0.0000 C   0  0  0  0  0  0  0  0  0  0  0  0
    7.2307   -2.3779    0.0000 C   0  0  0  0  0  0  0  0  0  0  0  0
    0.2912   -2.9117    0.0000 C   0  0  0  0  0  0  0  0  0  0  0  0
    0.0000   -4.0763    0.0000 C   0  0  0  0  0  0  0  0  0  0  0  0
    1.1162   -4.3675    0.0000 C   0  0  0  0  0  0  0  0  0  0  0  0
    7.2307   -3.2029    0.0000 C   0  0  0  0  0  0  0  0  0  0  0  0
    3.7366   -1.3102    0.0000 C   0  0  0  0  0  0  0  0  0  0  0  0
    7.9586   -3.5911    0.0000 C   0  0  0  0  0  0  0  0  0  0  0  0
    7.9586   -1.9411    0.0000 C   0  0  0  0  0  0  0  0  0  0  0  0
    0.7279   -0.2912    0.0000 C   0  0  0  0  0  0  0  0  0  0  0  0
    8.7350   -4.8528    0.0000 C   0  0  0  0  0  0  0  0  0  0  0  0
    8.6865   -2.3293    0.0000 C   0  0  0  0  0  0  0  0  0  0  0  0
   10.1424   -4.8528    0.0000 C   0  0  0  0  0  0  0  0  0  0  0  0
    9.4630   -4.4161    0.0000 C   0  0  0  0  0  0  0  0  0  0  0  0
    8.7350   -5.6778    0.0000 C   0  0  0  0  0  0  0  0  0  0  0  0
    9.4630   -6.1145    0.0000 C   0  0  0  0  0  0  0  0  0  0  0  0
   10.1424   -5.6778    0.0000 C   0  0  0  0  0  0  0  0  0  0  0  0
   10.8703   -4.4161    0.0000 C   0  0  0  0  0  0  0  0  0  0  0  0
   12.3262   -4.4161    0.0000 C   0  0  0  0  0  0  0  0  0  0  0  0
   12.3262   -3.5911    0.0000 C   0  0  0  0  0  0  0  0  0  0  0  0
   10.1424   -7.3763    0.0000 C   0  0  0  0  0  0  0  0  0  0  0  0
   13.0540   -2.3293    0.0000 C   0  0  0  0  0  0  0  0  0  0  0  0
   13.7820   -3.5911    0.0000 C   0  0  0  0  0  0  0  0  0  0  0  0
   13.8305   -1.9411    0.0000 C   0  0  0  0  0  0  0  0  0  0  0  0
   14.5099   -3.2029    0.0000 C   0  0  0  0  0  0  0  0  0  0  0  0
  1  5  2  0  0  0  0
  1  6  2  0  0  0  0
  1 12  1  0  0  0  0
  1 44  1  0  0  0  0
  2 21  1  0  0  0  0
  2 41  1  0  0  0  0
  3 26  1  0  0  0  0
  3 36  1  0  0  0  0
  4 27  2  0  0  0  0
  7 50  1  0  0  0  0
  7 55  1  0  0  0  0
  8 52  2  0  0  0  0
  9 54  2  0  0  0  0
 10 58  1  0  0  0  0
 10 59  1  0  0  0  0
 11 18  1  0  0  0  0
 11 19  1  0  0  0  0
 11 27  1  0  0  0  0
 12 23  1  0  0  0  0
 13 27  1  0  0  0  0
 14 42  1  0  0  0  0
 14 45  1  0  0  0  0
 15 42  2  0  0  0  0
 15 46  1  0  0  0  0
 16 52  1  0  0  0  0
 16 53  1  0  0  0  0
 17 54  1  0  0  0  0
 17 56  1  0  0  0  0
 17 57  1  0  0  0  0
 18 21  1  0  0  0  0
 18 25  2  0  0  0  0
 19 20  1  0  0  0  0
 19 28  2  0  0  0  0
 20 22  2  0  0  0  0
 20 32  1  0  0  0  0
 21 23  2  0  0  0  0
 22 26  1  0  0  0  0
 22 33  1  0  0  0  0
 23 29  1  0  0  0  0
 24 25  1  0  0  0  0
 24 29  2  0  0  0  0
 24 30  1  0  0  0  0
 26 31  2  0  0  0  0
 28 31  1  0  0  0  0
 30 37  1  0  0  0  0
 30 38  1  0  0  0  0
 30 39  1  0  0  0  0
 32 34  2  0  0  0  0
 33 35  2  0  0  0  0
 34 35  1  0  0  0  0
 36 40  2  0  0  0  0
 36 43  1  0  0  0  0
 40 42  1  0  0  0  0
 43 46  2  0  0  0  0
 45 48  1  0  0  0  0
 45 49  2  0  0  0  0
 47 48  2  0  0  0  0
 47 51  1  0  0  0  0
 47 52  1  0  0  0  0
 49 50  1  0  0  0  0
 50 51  2  0  0  0  0
 53 54  1  0  0  0  0
 56 58  1  0  0  0  0
 57 59  1  0  0  0  0
M  END
> <PUBCHEM_COMPOUND_ID_TYPE>
0

> <PUBCHEM_TOTAL_CHARGE>
0

> <PUBCHEM_SUBSTANCE_ID>
310929130

> <PUBCHEM_SUBSTANCE_VERSION>
1

> <PUBCHEM_EXT_DATASOURCE_NAME>
4488

> <PUBCHEM_EXT_DATASOURCE_REGID>
SCHEMBL16106293

> <PUBCHEM_SUBSTANCE_COMMENT>
InChI=1S/C42H47N7O9S/c1-42(2,3)27-21-33(47-59(6,53)54)39(56-5)35(22-27)49(41(43)52)34-11-12-36(32-10-8-7-9-31(32)34)58-29-13-14-44-37(24-29)46-28-19-26(20-30(23-28)55-4)40(51)45-25-38(50)48-15-17-57-18-16-48/h7-14,19-24,47H,15-18,25H2,1-6H3,(H2,43,52)(H,44,46)(H,45,51)
InChIKey=ZTDUDLFNLGBUEP-UHFFFAOYSA-N

> <PUBCHEM_SUBSTANCE_SYNONYM>
SCHEMBL16106293

> <PUBCHEM_XREF_EXT_ID>
SCHEMBL16106293

> <PUBCHEM_EXT_DATASOURCE_URL>
https://www.surechembl.org/

> <PUBCHEM_EXT_SUBSTANCE_URL>
https://www.surechembl.org/chemical/SCHEMBL16106293

> <PUBCHEM_CID_ASSOCIATIONS>
117598608  1

> <PUBCHEM_COORDINATE_TYPE>
1
3

$$$$
