310934058
  -OEChem-07211613022D

 27 30  0     0  0  0  0  0  0999 V2000
    2.2014    1.2549    0.0000 Cl  0  0  0  0  0  0  0  0  0  0  0  0
   -0.6131   -0.5520    0.0000 O   0  0  0  0  0  0  0  0  0  0  0  0
   -0.7833    1.1032    0.0000 O   0  0  0  0  0  0  0  0  0  0  0  0
    0.2791    3.8202    0.0000 O   0  0  0  0  0  0  0  0  0  0  0  0
   -1.1471    3.9098    0.0000 O   0  0  0  0  0  0  0  0  0  0  0  0
   -1.2639    2.6400    0.0000 C   0  0  0  0  0  0  0  0  0  0  0  0
   -2.1521    2.7148    0.0000 C   0  0  0  0  0  0  0  0  0  0  0  0
    0.0000    0.0000    0.0000 C   0  0  0  0  0  0  0  0  0  0  0  0
    0.7145   -0.4125    0.0000 C   0  0  0  0  0  0  0  0  0  0  0  0
    0.0000    0.8250    0.0000 C   0  0  0  0  0  0  0  0  0  0  0  0
   -0.2775   -1.3057    0.0000 C   0  0  0  0  0  0  0  0  0  0  0  0
   -0.8439    3.0423    0.0000 C   0  0  0  0  0  0  0  0  0  0  0  0
   -1.5242    1.5672    0.0000 C   0  0  0  0  0  0  0  0  0  0  0  0
   -2.2680    3.1028    0.0000 C   0  0  0  0  0  0  0  0  0  0  0  0
   -0.6103    1.9419    0.0000 C   0  0  0  0  0  0  0  0  0  0  0  0
   -1.5022    3.1981    0.0000 C   0  0  0  0  0  0  0  0  0  0  0  0
   -2.2362    1.8414    0.0000 C   0  0  0  0  0  0  0  0  0  0  0  0
   -2.9164    3.1842    0.0000 C   0  0  0  0  0  0  0  0  0  0  0  0
    0.5429   -1.2195    0.0000 C   0  0  0  0  0  0  0  0  0  0  0  0
    1.4289    0.0000    0.0000 C   0  0  0  0  0  0  0  0  0  0  0  0
    0.7145    1.2375    0.0000 C   0  0  0  0  0  0  0  0  0  0  0  0
    1.4289    0.8250    0.0000 C   0  0  0  0  0  0  0  0  0  0  0  0
   -1.3930    2.1922    0.0000 C   0  0  0  0  0  0  0  0  0  0  0  0
   -1.1037   -1.5863    0.0000 C   0  0  0  0  0  0  0  0  0  0  0  0
   -0.1507   -2.1663    0.0000 C   0  0  0  0  0  0  0  0  0  0  0  0
   -0.5115    2.6299    0.0000 C   0  0  0  0  0  0  0  0  0  0  0  0
   -0.4598    3.4533    0.0000 C   0  0  0  0  0  0  0  0  0  0  0  0
  1 22  1  0  0  0  0
  2  8  1  0  0  0  0
  2 11  1  0  0  0  0
  3 10  1  0  0  0  0
  3 15  1  0  0  0  0
  4 27  2  0  0  0  0
  5 27  1  0  0  0  0
  6 12  1  0  0  0  0
  6 13  1  0  0  0  0
  6 14  1  0  0  0  0
  6 15  1  0  0  0  0
  7 16  1  0  0  0  0
  7 17  1  0  0  0  0
  7 18  1  0  0  0  0
  7 23  1  0  0  0  0
  8  9  2  0  0  0  0
  8 10  1  0  0  0  0
  9 19  1  0  0  0  0
  9 20  1  0  0  0  0
 10 21  2  0  0  0  0
 11 19  1  0  0  0  0
 11 24  1  0  0  0  0
 11 25  1  0  0  0  0
 12 16  1  0  0  0  0
 13 17  1  0  0  0  0
 14 18  1  0  0  0  0
 20 22  2  0  0  0  0
 21 22  1  0  0  0  0
 23 26  2  0  0  0  0
 26 27  1  0  0  0  0
M  END
> <PUBCHEM_COMPOUND_ID_TYPE>
0

> <PUBCHEM_TOTAL_CHARGE>
0

> <PUBCHEM_SUBSTANCE_ID>
310934058

> <PUBCHEM_SUBSTANCE_VERSION>
1

> <PUBCHEM_EXT_DATASOURCE_NAME>
4488

> <PUBCHEM_EXT_DATASOURCE_REGID>
SCHEMBL16111502

> <PUBCHEM_SUBSTANCE_COMMENT>
InChI=1S/C22H27ClO4/c1-20(2)13-15-11-16(23)12-17(19(15)27-20)26-14-22-8-5-21(6-9-22,7-10-22)4-3-18(24)25/h3-4,11-12H,5-10,13-14H2,1-2H3,(H,24,25)/b4-3-
InChIKey=JVQZHMZWLQWMMW-ARJAWSKDSA-N

> <PUBCHEM_SUBSTANCE_SYNONYM>
SCHEMBL16111502

> <PUBCHEM_XREF_EXT_ID>
SCHEMBL16111502

> <PUBCHEM_EXT_DATASOURCE_URL>
https://www.surechembl.org/

> <PUBCHEM_EXT_SUBSTANCE_URL>
https://www.surechembl.org/chemical/SCHEMBL16111502

> <PUBCHEM_CID_ASSOCIATIONS>
117602350  1

> <PUBCHEM_COORDINATE_TYPE>
1
3

> <PUBCHEM_BONDANNOTATIONS>
23  7  3

$$$$
