310949780
  -OEChem-07211613022D

 15 16  0     1  0  0  0  0  0999 V2000
   -2.2079   -1.3321    0.0000 O   0  0  0  0  0  0  0  0  0  0  0  0
   -2.2079   -1.3321    0.0000 N   0  0  0  0  0  0  0  0  0  0  0  0
   -0.0863   -0.0740    0.0000 C   0  0  3  0  0  0  0  0  0  0  0  0
   -0.0863   -0.9004    0.0000 C   0  0  0  0  0  0  0  0  0  0  0  0
    0.6168    0.3207    0.0000 C   0  0  3  0  0  0  0  0  0  0  0  0
   -0.8018    0.3084    0.0000 C   0  0  0  0  0  0  0  0  0  0  0  0
    1.3445   -0.0863    0.0000 C   0  0  3  0  0  0  0  0  0  0  0  0
   -0.7894   -1.3199    0.0000 C   0  0  0  0  0  0  0  0  0  0  0  0
    0.6414   -1.3199    0.0000 C   0  0  0  0  0  0  0  0  0  0  0  0
   -1.5049   -0.9004    0.0000 C   0  0  0  0  0  0  0  0  0  0  0  0
   -1.4925   -0.0863    0.0000 C   0  0  0  0  0  0  0  0  0  0  0  0
    1.3445   -0.9128    0.0000 C   0  0  0  0  0  0  0  0  0  0  0  0
   -0.0740    0.7155    0.0000 C   0  0  0  0  0  0  0  0  0  0  0  0
    0.6414    1.3321    0.0000 C   0  0  0  0  0  0  0  0  0  0  0  0
    2.2079    0.3084    0.0000 C   0  0  0  0  0  0  0  0  0  0  0  0
  1  2  1  0  0  0  0
  2 10  2  3  0  0  0
  3  4  1  0  0  0  0
  3  5  1  0  0  0  0
  3  6  1  0  0  0  0
  3 13  1  1  0  0  0
  4  8  1  0  0  0  0
  4  9  2  0  0  0  0
  5  7  1  0  0  0  0
  5 14  1  0  0  0  0
  6 11  1  0  0  0  0
  7 12  1  0  0  0  0
  7 15  1  0  0  0  0
  8 10  1  0  0  0  0
  9 12  1  0  0  0  0
 10 11  1  0  0  0  0
M  END
> <PUBCHEM_COMPOUND_ID_TYPE>
0

> <PUBCHEM_TOTAL_CHARGE>
0

> <PUBCHEM_SUBSTANCE_ID>
310949780

> <PUBCHEM_SUBSTANCE_VERSION>
1

> <PUBCHEM_EXT_DATASOURCE_NAME>
4488

> <PUBCHEM_EXT_DATASOURCE_REGID>
SCHEMBL16127978

> <PUBCHEM_SUBSTANCE_COMMENT>
InChI=1S/C13H21NO/c1-9-4-5-11-8-12(14-15)6-7-13(11,3)10(9)2/h5,9-10,15H,4,6-8H2,1-3H3/b14-12+/t9?,10?,13-/m1/s1
InChIKey=YLJAPPBRLDSNSY-CDOPDIORSA-N

> <PUBCHEM_SUBSTANCE_SYNONYM>
SCHEMBL16127978

> <PUBCHEM_XREF_EXT_ID>
SCHEMBL16127978

> <PUBCHEM_EXT_DATASOURCE_URL>
https://www.surechembl.org/

> <PUBCHEM_EXT_SUBSTANCE_URL>
https://www.surechembl.org/chemical/SCHEMBL16127978

> <PUBCHEM_CID_ASSOCIATIONS>
117615104  1

> <PUBCHEM_COORDINATE_TYPE>
1
3

> <PUBCHEM_BONDANNOTATIONS>
3  13  5

$$$$
