310948203
  -OEChem-07211613022D

 45 49  0     0  0  0  0  0  0999 V2000
    2.9617   -1.6052    0.0000 S   0  0  0  0  0  0  0  0  0  0  0  0
    3.1300    1.1385    0.0000 F   0  0  0  0  0  0  0  0  0  0  0  0
   -4.3770    1.4583    0.0000 F   0  0  0  0  0  0  0  0  0  0  0  0
   -3.5522    1.4583    0.0000 F   0  0  0  0  0  0  0  0  0  0  0  0
    3.3656    3.3771    0.0000 F   0  0  0  0  0  0  0  0  0  0  0  0
    2.2548    3.0572    0.0000 F   0  0  0  0  0  0  0  0  0  0  0  0
    3.6350    2.2662    0.0000 F   0  0  0  0  0  0  0  0  0  0  0  0
   -2.0036    1.4415    0.0000 O   0  0  0  0  0  0  0  0  0  0  0  0
    2.9617   -1.6052    0.0000 O   0  0  0  0  0  0  0  0  0  0  0  0
    2.9617   -1.6052    0.0000 O   0  0  0  0  0  0  0  0  0  0  0  0
    2.5409    1.9800    0.0000 O   0  0  0  0  0  0  0  0  0  0  0  0
    4.2072    0.5494    0.0000 O   0  0  0  0  0  0  0  0  0  0  0  0
   -2.0205   -0.1576    0.0000 N   0  0  0  0  0  0  0  0  0  0  0  0
   -1.3304    2.6028    0.0000 N   0  0  0  0  0  0  0  0  0  0  0  0
   -2.5087    0.4989    0.0000 N   0  0  0  0  0  0  0  0  0  0  0  0
   -0.7750    0.5661    0.0000 C   0  0  0  0  0  0  0  0  0  0  0  0
   -1.1958    1.2900    0.0000 C   0  0  0  0  0  0  0  0  0  0  0  0
   -1.1958   -0.1576    0.0000 C   0  0  0  0  0  0  0  0  0  0  0  0
   -0.7750    2.0137    0.0000 C   0  0  0  0  0  0  0  0  0  0  0  0
    0.4706   -0.1408    0.0000 C   0  0  0  0  0  0  0  0  0  0  0  0
    0.0666    0.5326    0.0000 C   0  0  0  0  0  0  0  0  0  0  0  0
    1.3122   -0.1408    0.0000 C   0  0  0  0  0  0  0  0  0  0  0  0
    2.5578   -0.8813    0.0000 C   0  0  0  0  0  0  0  0  0  0  0  0
   -0.7581   -0.8645    0.0000 C   0  0  0  0  0  0  0  0  0  0  0  0
    0.0498    1.9968    0.0000 C   0  0  0  0  0  0  0  0  0  0  0  0
    0.0498   -0.8645    0.0000 C   0  0  0  0  0  0  0  0  0  0  0  0
   -2.0710    2.2830    0.0000 C   0  0  0  0  0  0  0  0  0  0  0  0
    2.9448   -0.1576    0.0000 C   0  0  0  0  0  0  0  0  0  0  0  0
    1.7329   -0.8645    0.0000 C   0  0  0  0  0  0  0  0  0  0  0  0
   -3.2829    0.2632    0.0000 C   0  0  0  0  0  0  0  0  0  0  0  0
    2.5409    0.5494    0.0000 C   0  0  0  0  0  0  0  0  0  0  0  0
    1.7161    0.5326    0.0000 C   0  0  0  0  0  0  0  0  0  0  0  0
   -2.4918   -0.8140    0.0000 C   0  0  0  0  0  0  0  0  0  0  0  0
   -3.2997   -0.5616    0.0000 C   0  0  0  0  0  0  0  0  0  0  0  0
   -3.9729    0.7513    0.0000 C   0  0  0  0  0  0  0  0  0  0  0  0
    0.4874    1.2900    0.0000 C   0  0  0  0  0  0  0  0  0  0  0  0
    0.4706    2.6870    0.0000 C   0  0  0  0  0  0  0  0  0  0  0  0
    3.8033   -0.1576    0.0000 C   0  0  0  0  0  0  0  0  0  0  0  0
    1.6992    1.9968    0.0000 C   0  0  0  0  0  0  0  0  0  0  0  0
    1.2954    1.2900    0.0000 C   0  0  0  0  0  0  0  0  0  0  0  0
    1.3122    2.7038    0.0000 C   0  0  0  0  0  0  0  0  0  0  0  0
   -2.8117    2.6702    0.0000 C   0  0  0  0  0  0  0  0  0  0  0  0
    4.6800   -3.3771    0.0000 C   0  0  0  0  0  0  0  0  0  0  0  0
   -4.6800    0.3137    0.0000 C   0  0  0  0  0  0  0  0  0  0  0  0
    2.9617    2.6702    0.0000 C   0  0  0  0  0  0  0  0  0  0  0  0
  1  9  2  0  0  0  0
  1 10  2  0  0  0  0
  1 23  1  0  0  0  0
  1 43  1  0  0  0  0
  2 31  1  0  0  0  0
  3 35  1  0  0  0  0
  4 35  1  0  0  0  0
  5 45  1  0  0  0  0
  6 45  1  0  0  0  0
  7 45  1  0  0  0  0
  8 17  1  0  0  0  0
  8 27  1  0  0  0  0
 11 39  1  0  0  0  0
 11 45  1  0  0  0  0
 12 38  1  0  0  0  0
 13 15  1  0  0  0  0
 13 18  1  0  0  0  0
 13 33  1  0  0  0  0
 14 19  1  0  0  0  0
 14 27  2  0  0  0  0
 15 30  2  0  0  0  0
 16 17  1  0  0  0  0
 16 18  1  0  0  0  0
 16 21  2  0  0  0  0
 17 19  2  0  0  0  0
 18 24  2  0  0  0  0
 19 25  1  0  0  0  0
 20 21  1  0  0  0  0
 20 22  1  0  0  0  0
 20 26  2  0  0  0  0
 22 29  2  0  0  0  0
 22 32  1  0  0  0  0
 23 28  2  0  0  0  0
 23 29  1  0  0  0  0
 24 26  1  0  0  0  0
 25 36  2  0  0  0  0
 25 37  1  0  0  0  0
 27 42  1  0  0  0  0
 28 31  1  0  0  0  0
 28 38  1  0  0  0  0
 30 34  1  0  0  0  0
 30 35  1  0  0  0  0
 31 32  2  0  0  0  0
 33 34  2  0  0  0  0
 35 44  1  0  0  0  0
 36 40  1  0  0  0  0
 37 41  2  0  0  0  0
 39 40  2  0  0  0  0
 39 41  1  0  0  0  0
M  END
> <PUBCHEM_COMPOUND_ID_TYPE>
0

> <PUBCHEM_TOTAL_CHARGE>
0

> <PUBCHEM_SUBSTANCE_ID>
310948203

> <PUBCHEM_SUBSTANCE_VERSION>
1

> <PUBCHEM_EXT_DATASOURCE_NAME>
4488

> <PUBCHEM_EXT_DATASOURCE_REGID>
SCHEMBL16126380

> <PUBCHEM_SUBSTANCE_COMMENT>
InChI=1S/C30H23F6N3O5S/c1-16-37-27(17-4-7-20(8-5-17)44-30(34,35)36)28(43-16)21-12-18(6-9-24(21)39-11-10-26(38-39)29(2,32)33)19-13-23(31)22(15-40)25(14-19)45(3,41)42/h4-14,40H,15H2,1-3H3
InChIKey=UNPFYWVFUKVPHO-UHFFFAOYSA-N

> <PUBCHEM_SUBSTANCE_SYNONYM>
SCHEMBL16126380

> <PUBCHEM_XREF_EXT_ID>
SCHEMBL16126380

> <PUBCHEM_EXT_DATASOURCE_URL>
https://www.surechembl.org/

> <PUBCHEM_EXT_SUBSTANCE_URL>
https://www.surechembl.org/chemical/SCHEMBL16126380

> <PUBCHEM_CID_ASSOCIATIONS>
117613783  1

> <PUBCHEM_COORDINATE_TYPE>
1
3

$$$$
