310944855
  -OEChem-07211613022D

 69 68  0     1  0  0  0  0  0999 V2000
    5.0188    0.0687    0.0000 O   0  5  0  0  0  0  0  0  0  0  0  0
    5.8162   -1.0587    0.0000 O   0  0  0  0  0  0  0  0  0  0  0  0
   -9.9825   -0.2063    0.0000 O   0  0  0  0  0  0  0  0  0  0  0  0
   -7.1638   -1.0175    0.0000 O   0  0  0  0  0  0  0  0  0  0  0  0
   -7.8375   -2.2413    0.0000 O   0  0  0  0  0  0  0  0  0  0  0  0
    8.6213   -1.0862    0.0000 O   0  5  0  0  0  0  0  0  0  0  0  0
    9.3226    0.1238    0.0000 O   0  0  0  0  0  0  0  0  0  0  0  0
  -12.1000   -2.2138    0.0000 O   0  0  0  0  0  0  0  0  0  0  0  0
  -12.8700   -1.0587    0.0000 O   0  0  0  0  0  0  0  0  0  0  0  0
    3.6163    0.9900    0.0000 O   0  0  0  0  0  0  0  0  0  0  0  0
   10.7387    0.9900    0.0000 O   0  0  0  0  0  0  0  0  0  0  0  0
   -8.5663    1.4712    0.0000 O   0  0  0  0  0  0  0  0  0  0  0  0
  -12.8288    1.3750    0.0000 O   0  0  0  0  0  0  0  0  0  0  0  0
  -11.4538    1.4712    0.0000 O   0  0  0  0  0  0  0  0  0  0  0  0
    1.4712    1.3750    0.0000 O   0  0  0  0  0  0  0  0  0  0  0  0
   12.1550    0.1788    0.0000 O   0  0  0  0  0  0  0  0  0  0  0  0
   -1.3613    2.2413    0.0000 O   0  0  0  0  0  0  0  0  0  0  0  0
   11.4263   -0.2475    0.0000 O   0  0  0  0  0  0  0  0  0  0  0  0
   10.0100   -1.0725    0.0000 O   0  0  0  0  0  0  0  0  0  0  0  0
    5.7475   -0.2612    0.0000 N   0  3  0  0  0  0  0  0  0  0  0  0
    5.7475    1.3613    0.0000 N   0  0  0  0  0  0  0  0  0  0  0  0
    8.6213    1.3613    0.0000 N   0  0  0  0  0  0  0  0  0  0  0  0
   -9.2675   -1.4300    0.0000 N   0  0  0  0  0  0  0  0  0  0  0  0
  -10.6838   -1.4300    0.0000 N   0  0  0  0  0  0  0  0  0  0  0  0
    8.6213   -0.2612    0.0000 N   0  3  0  0  0  0  0  0  0  0  0  0
   -7.1225    1.4575    0.0000 N   0  0  0  0  0  0  0  0  0  0  0  0
   -0.6462    0.9763    0.0000 N   0  0  0  0  0  0  0  0  0  0  0  0
   12.1825   -1.5125    0.0000 N   0  0  0  0  0  0  0  0  0  0  0  0
   10.0100   -1.0725    0.0000 N   0  0  0  0  0  0  0  0  0  0  0  0
    6.4763    1.0450    0.0000 C   0  0  0  0  0  0  0  0  0  0  0  0
    6.4487    0.2200    0.0000 C   0  0  0  0  0  0  0  0  0  0  0  0
    7.1775    1.4437    0.0000 C   0  0  0  0  0  0  0  0  0  0  0  0
    7.8926    1.0450    0.0000 C   0  0  0  0  0  0  0  0  0  0  0  0
    7.1913   -0.1788    0.0000 C   0  0  0  0  0  0  0  0  0  0  0  0
    7.8926    0.2337    0.0000 C   0  0  0  0  0  0  0  0  0  0  0  0
   -8.5800   -0.9488    0.0000 C   0  0  3  0  0  0  0  0  0  0  0  0
  -11.4263   -0.9625    0.0000 C   0  0  3  0  0  0  0  0  0  0  0  0
  -10.0100   -0.9763    0.0000 C   0  0  0  0  0  0  0  0  0  0  0  0
    5.0463    1.0450    0.0000 C   0  0  0  0  0  0  0  0  0  0  0  0
   -7.8512   -1.4163    0.0000 C   0  0  0  0  0  0  0  0  0  0  0  0
  -12.1413   -1.4163    0.0000 C   0  0  0  0  0  0  0  0  0  0  0  0
   -8.5525   -0.1238    0.0000 C   0  0  0  0  0  0  0  0  0  0  0  0
  -11.4263   -0.1375    0.0000 C   0  0  0  0  0  0  0  0  0  0  0  0
    9.3226    1.0450    0.0000 C   0  0  0  0  0  0  0  0  0  0  0  0
    7.8787    0.2200    0.0000 C   0  0  0  0  0  0  0  0  0  0  0  0
    4.3312    1.4575    0.0000 C   0  0  0  0  0  0  0  0  0  0  0  0
   -7.8512    0.2887    0.0000 C   0  0  0  0  0  0  0  0  0  0  0  0
  -12.1275    0.2887    0.0000 C   0  0  0  0  0  0  0  0  0  0  0  0
   -7.8375    1.1000    0.0000 C   0  0  0  0  0  0  0  0  0  0  0  0
   10.0238    1.4575    0.0000 C   0  0  0  0  0  0  0  0  0  0  0  0
  -12.1413    1.0312    0.0000 C   0  0  0  0  0  0  0  0  0  0  0  0
    2.9012    1.4575    0.0000 C   0  0  0  0  0  0  0  0  0  0  0  0
   -6.4212    1.1137    0.0000 C   0  0  0  0  0  0  0  0  0  0  0  0
   11.4400    1.4437    0.0000 C   0  0  0  0  0  0  0  0  0  0  0  0
    2.2000    1.0450    0.0000 C   0  0  0  0  0  0  0  0  0  0  0  0
   -5.7063    1.5262    0.0000 C   0  0  0  0  0  0  0  0  0  0  0  0
   12.1550    1.0312    0.0000 C   0  0  0  0  0  0  0  0  0  0  0  0
   -4.9912    1.1137    0.0000 C   0  0  0  0  0  0  0  0  0  0  0  0
    0.7838    1.0450    0.0000 C   0  0  0  0  0  0  0  0  0  0  0  0
   -4.2900    1.5262    0.0000 C   0  0  0  0  0  0  0  0  0  0  0  0
    0.0687    1.4575    0.0000 C   0  0  0  0  0  0  0  0  0  0  0  0
   -1.3750    1.4300    0.0000 C   0  0  0  0  0  0  0  0  0  0  0  0
   12.8700   -0.1925    0.0000 C   0  0  0  0  0  0  0  0  0  0  0  0
   -3.5750    1.1137    0.0000 C   0  0  0  0  0  0  0  0  0  0  0  0
   -2.0625    1.0450    0.0000 C   0  0  0  0  0  0  0  0  0  0  0  0
   -2.8600    1.5262    0.0000 C   0  0  0  0  0  0  0  0  0  0  0  0
   12.8700   -1.0175    0.0000 C   0  0  0  0  0  0  0  0  0  0  0  0
   11.4400   -1.0312    0.0000 C   0  0  0  0  0  0  0  0  0  0  0  0
   10.7526   -1.4163    0.0000 C   0  0  0  0  0  0  0  0  0  0  0  0
  1 20  1  0  0  0  0
  2 20  2  0  0  0  0
  3 38  2  0  0  0  0
  4 40  2  0  0  0  0
  5 40  1  0  0  0  0
  6 25  1  0  0  0  0
  7 25  2  0  0  0  0
  8 41  2  0  0  0  0
  9 41  1  0  0  0  0
 10 46  1  0  0  0  0
 10 52  1  0  0  0  0
 11 50  1  0  0  0  0
 11 54  1  0  0  0  0
 12 49  2  0  0  0  0
 13 51  2  0  0  0  0
 14 51  1  0  0  0  0
 15 55  1  0  0  0  0
 15 59  1  0  0  0  0
 16 57  1  0  0  0  0
 16 63  1  0  0  0  0
 17 62  2  0  0  0  0
 18 68  2  0  0  0  0
 19 29  1  0  0  0  0
 19 69  1  0  0  0  0
 20 31  1  0  0  0  0
 21 30  1  0  0  0  0
 21 39  1  0  0  0  0
 22 33  1  0  0  0  0
 22 44  1  0  0  0  0
 36 23  1  1  0  0  0
 23 38  1  0  0  0  0
 37 24  1  6  0  0  0
 24 38  1  0  0  0  0
 25 35  1  0  0  0  0
 26 49  1  0  0  0  0
 26 53  1  0  0  0  0
 27 61  1  0  0  0  0
 27 62  1  0  0  0  0
 28 67  1  0  0  0  0
 28 68  1  0  0  0  0
 30 31  2  0  0  0  0
 30 32  1  0  0  0  0
 31 34  1  0  0  0  0
 32 33  2  0  0  0  0
 33 35  1  0  0  0  0
 34 45  2  0  0  0  0
 36 40  1  0  0  0  0
 36 42  1  0  0  0  0
 37 41  1  0  0  0  0
 37 43  1  0  0  0  0
 39 46  1  0  0  0  0
 42 47  1  0  0  0  0
 43 48  1  0  0  0  0
 44 50  1  0  0  0  0
 47 49  1  0  0  0  0
 48 51  1  0  0  0  0
 52 55  1  0  0  0  0
 53 56  1  0  0  0  0
 54 57  1  0  0  0  0
 56 58  1  0  0  0  0
 58 60  1  0  0  0  0
 59 61  1  0  0  0  0
 60 64  1  0  0  0  0
 62 65  1  0  0  0  0
 63 67  1  0  0  0  0
 64 66  1  0  0  0  0
 65 66  1  0  0  0  0
 68 69  1  0  0  0  0
M  CHG  4   1  -1   6  -1  20   1  25   1
M  END
> <PUBCHEM_COMPOUND_ID_TYPE>
0

> <PUBCHEM_TOTAL_CHARGE>
0

> <PUBCHEM_SUBSTANCE_ID>
310944855

> <PUBCHEM_SUBSTANCE_VERSION>
1

> <PUBCHEM_EXT_DATASOURCE_NAME>
4488

> <PUBCHEM_EXT_DATASOURCE_REGID>
SCHEMBL16122937

> <PUBCHEM_SUBSTANCE_COMMENT>
InChI=1S/C40H68N10O19/c1-2-33(50(63)64)32(26-29(27-49(61)62)42-14-18-65-22-24-68-21-17-46-36(53)28-69-41)43-15-19-66-23-25-67-20-16-45-34(51)8-6-4-3-5-7-13-44-35(52)11-9-30(38(56)57)47-40(60)48-31(39(58)59)10-12-37(54)55/h2,26,30-31,42-43H,1,3-25,27-28,41H2,(H,44,52)(H,45,51)(H,46,53)(H,54,55)(H,56,57)(H,58,59)(H2,47,48,60)/b29-26+,33-32-/t30-,31-/m0/s1
InChIKey=YLLXICBVQDNKMW-OJDLXXQBSA-N

> <PUBCHEM_SUBSTANCE_SYNONYM>
SCHEMBL16122937

> <PUBCHEM_XREF_EXT_ID>
SCHEMBL16122937

> <PUBCHEM_EXT_DATASOURCE_URL>
https://www.surechembl.org/

> <PUBCHEM_EXT_SUBSTANCE_URL>
https://www.surechembl.org/chemical/SCHEMBL16122937

> <PUBCHEM_CID_ASSOCIATIONS>
117611053  1

> <PUBCHEM_COORDINATE_TYPE>
1
3

> <PUBCHEM_BONDANNOTATIONS>
36  23  5
37  24  6

$$$$
