310936493
  -OEChem-07211613022D

 40 45  0     0  0  0  0  0  0999 V2000
    6.2503   -6.5456    0.0000 F   0  0  0  0  0  0  0  0  0  0  0  0
    0.0000    0.0000    0.0000 F   0  0  0  0  0  0  0  0  0  0  0  0
    1.3288   -3.5927    0.0000 O   0  0  0  0  0  0  0  0  0  0  0  0
    4.0848   -7.8251    0.0000 O   0  0  0  0  0  0  0  0  0  0  0  0
    3.8388   -2.5099    0.0000 O   0  0  0  0  0  0  0  0  0  0  0  0
    4.0356   -6.2010    0.0000 O   0  0  0  0  0  0  0  0  0  0  0  0
    3.3466   -7.4314    0.0000 O   0  0  0  0  0  0  0  0  0  0  0  0
    5.5120   -7.7759    0.0000 N   0  0  0  0  0  0  0  0  0  0  0  0
    2.7560   -1.5256    0.0000 N   0  0  0  0  0  0  0  0  0  0  0  0
    5.5120   -8.6126    0.0000 C   0  0  0  0  0  0  0  0  0  0  0  0
    5.5120   -9.8429    0.0000 C   0  0  0  0  0  0  0  0  0  0  0  0
    6.1519   -9.2523    0.0000 C   0  0  0  0  0  0  0  0  0  0  0  0
    5.1675   -9.2523    0.0000 C   0  0  0  0  0  0  0  0  0  0  0  0
    4.9215   -9.2523    0.0000 C   0  0  0  0  0  0  0  0  0  0  0  0
    2.6576   -3.7403    0.0000 C   0  0  0  0  0  0  0  0  0  0  0  0
    2.4607   -2.9529    0.0000 C   0  0  0  0  0  0  0  0  0  0  0  0
    1.9194   -4.1340    0.0000 C   0  0  0  0  0  0  0  0  0  0  0  0
    1.6733   -2.8544    0.0000 C   0  0  0  0  0  0  0  0  0  0  0  0
    3.3958   -4.9215    0.0000 C   0  0  0  0  0  0  0  0  0  0  0  0
    3.3466   -4.1340    0.0000 C   0  0  0  0  0  0  0  0  0  0  0  0
    2.6576   -5.3644    0.0000 C   0  0  0  0  0  0  0  0  0  0  0  0
    4.8230   -7.3822    0.0000 C   0  0  0  0  0  0  0  0  0  0  0  0
    4.0848   -5.3644    0.0000 C   0  0  0  0  0  0  0  0  0  0  0  0
    4.8230   -6.5456    0.0000 C   0  0  0  0  0  0  0  0  0  0  0  0
    1.9686   -4.9707    0.0000 C   0  0  0  0  0  0  0  0  0  0  0  0
    1.2304   -2.1162    0.0000 C   0  0  0  0  0  0  0  0  0  0  0  0
    3.0021   -2.3131    0.0000 C   0  0  0  0  0  0  0  0  0  0  0  0
    4.2817   -6.3487    0.0000 C   0  0  0  0  0  0  0  0  0  0  0  0
    5.5120   -6.1519    0.0000 C   0  0  0  0  0  0  0  0  0  0  0  0
    4.8230   -4.9215    0.0000 C   0  0  0  0  0  0  0  0  0  0  0  0
    2.6576   -6.2010    0.0000 C   0  0  0  0  0  0  0  0  0  0  0  0
    5.5120   -5.3152    0.0000 C   0  0  0  0  0  0  0  0  0  0  0  0
    0.4430   -2.1162    0.0000 C   0  0  0  0  0  0  0  0  0  0  0  0
    1.6733   -1.4272    0.0000 C   0  0  0  0  0  0  0  0  0  0  0  0
    3.3466   -6.5948    0.0000 C   0  0  0  0  0  0  0  0  0  0  0  0
    0.0000   -1.4272    0.0000 C   0  0  0  0  0  0  0  0  0  0  0  0
    1.2304   -0.6890    0.0000 C   0  0  0  0  0  0  0  0  0  0  0  0
    0.4430   -0.6890    0.0000 C   0  0  0  0  0  0  0  0  0  0  0  0
    3.2974   -0.9351    0.0000 C   0  0  0  0  0  0  0  0  0  0  0  0
    4.9215   -6.7424    0.0000 C   0  0  0  0  0  0  0  0  0  0  0  0
  1 29  1  0  0  0  0
  2 38  1  0  0  0  0
  3 17  1  0  0  0  0
  3 18  1  0  0  0  0
  4 22  2  0  0  0  0
  5 27  2  0  0  0  0
  6 35  1  0  0  0  0
  6 40  1  0  0  0  0
  7 35  2  0  0  0  0
  8 10  1  0  0  0  0
  8 22  1  0  0  0  0
  9 27  1  0  0  0  0
  9 39  1  0  0  0  0
 10 12  1  0  0  0  0
 10 13  1  0  0  0  0
 10 14  1  0  0  0  0
 11 12  1  0  0  0  0
 11 13  1  0  0  0  0
 11 14  1  0  0  0  0
 15 16  1  0  0  0  0
 15 17  2  0  0  0  0
 15 20  1  0  0  0  0
 16 18  2  0  0  0  0
 16 27  1  0  0  0  0
 17 25  1  0  0  0  0
 18 26  1  0  0  0  0
 19 20  2  0  0  0  0
 19 21  1  0  0  0  0
 19 23  1  0  0  0  0
 21 25  2  0  0  0  0
 21 31  1  0  0  0  0
 22 24  1  0  0  0  0
 23 28  1  0  0  0  0
 23 30  2  0  0  0  0
 24 28  2  0  0  0  0
 24 29  1  0  0  0  0
 26 33  2  0  0  0  0
 26 34  1  0  0  0  0
 29 32  2  0  0  0  0
 30 32  1  0  0  0  0
 31 35  1  0  0  0  0
 33 36  1  0  0  0  0
 34 37  2  0  0  0  0
 36 38  2  0  0  0  0
 37 38  1  0  0  0  0
M  END
> <PUBCHEM_COMPOUND_ID_TYPE>
0

> <PUBCHEM_TOTAL_CHARGE>
0

> <PUBCHEM_SUBSTANCE_ID>
310936493

> <PUBCHEM_SUBSTANCE_VERSION>
1

> <PUBCHEM_EXT_DATASOURCE_NAME>
4488

> <PUBCHEM_EXT_DATASOURCE_REGID>
SCHEMBL16114142

> <PUBCHEM_SUBSTANCE_COMMENT>
InChI=1S/C31H26F2N2O5/c1-34-30(38)27-23-12-21(18-5-8-24(33)22(9-18)29(37)35-31-13-16(14-31)15-31)19(11-26(36)39-2)10-25(23)40-28(27)17-3-6-20(32)7-4-17/h3-10,12,16H,11,13-15H2,1-2H3,(H,34,38)(H,35,37)
InChIKey=WOIONKQGPCOXAH-UHFFFAOYSA-N

> <PUBCHEM_SUBSTANCE_SYNONYM>
SCHEMBL16114142

> <PUBCHEM_XREF_EXT_ID>
SCHEMBL16114142

> <PUBCHEM_EXT_DATASOURCE_URL>
https://www.surechembl.org/

> <PUBCHEM_EXT_SUBSTANCE_URL>
https://www.surechembl.org/chemical/SCHEMBL16114142

> <PUBCHEM_CID_ASSOCIATIONS>
85470553  1

> <PUBCHEM_COORDINATE_TYPE>
1
3

$$$$
