310929212
  -OEChem-07211613022D

 62 67  0     0  0  0  0  0  0999 V2000
    4.0382   -6.2354    0.0000 S   0  0  0  0  0  0  0  0  0  0  0  0
    6.5323   -2.0784    0.0000 O   0  0  0  0  0  0  0  0  0  0  0  0
    4.0976   -4.8102    0.0000 O   0  0  0  0  0  0  0  0  0  0  0  0
    2.0784   -2.7317    0.0000 O   0  0  0  0  0  0  0  0  0  0  0  0
    4.0382   -5.3446    0.0000 O   0  0  0  0  0  0  0  0  0  0  0  0
    4.0382   -7.0074    0.0000 O   0  0  0  0  0  0  0  0  0  0  0  0
   11.4019   -2.1972    0.0000 O   0  0  0  0  0  0  0  0  0  0  0  0
    8.9077   -3.5631    0.0000 O   0  0  0  0  0  0  0  0  0  0  0  0
   13.0052   -3.6819    0.0000 O   0  0  0  0  0  0  0  0  0  0  0  0
   15.0837   -3.0286    0.0000 O   0  0  0  0  0  0  0  0  0  0  0  0
   17.3997   -5.8791    0.0000 O   0  0  0  0  0  0  0  0  0  0  0  0
    3.2662   -3.4443    0.0000 N   0  0  0  0  0  0  0  0  0  0  0  0
    3.2662   -2.0191    0.0000 N   0  0  0  0  0  0  0  0  0  0  0  0
    3.2662   -6.2354    0.0000 N   0  0  0  0  0  0  0  0  0  0  0  0
    7.7794   -1.3658    0.0000 N   0  0  0  0  0  0  0  0  0  0  0  0
    9.0265   -0.7126    0.0000 N   0  0  0  0  0  0  0  0  0  0  0  0
    7.7794    0.0000    0.0000 N   0  0  0  0  0  0  0  0  0  0  0  0
   16.6871   -4.4539    0.0000 N   0  0  0  0  0  0  0  0  0  0  0  0
    4.5133   -2.7317    0.0000 C   0  0  0  0  0  0  0  0  0  0  0  0
    2.8505   -4.1570    0.0000 C   0  0  0  0  0  0  0  0  0  0  0  0
    3.2662   -4.8102    0.0000 C   0  0  0  0  0  0  0  0  0  0  0  0
    5.2852   -2.7317    0.0000 C   0  0  0  0  0  0  0  0  0  0  0  0
    2.8505   -5.5228    0.0000 C   0  0  0  0  0  0  0  0  0  0  0  0
    1.6627   -4.8102    0.0000 C   0  0  0  0  0  0  0  0  0  0  0  0
    4.0976   -2.0191    0.0000 C   0  0  0  0  0  0  0  0  0  0  0  0
    5.7009   -2.0191    0.0000 C   0  0  0  0  0  0  0  0  0  0  0  0
    2.0784   -4.0976    0.0000 C   0  0  0  0  0  0  0  0  0  0  0  0
    2.0191   -5.5228    0.0000 C   0  0  0  0  0  0  0  0  0  0  0  0
    0.8314   -4.8102    0.0000 C   0  0  0  0  0  0  0  0  0  0  0  0
    2.8505   -2.7317    0.0000 C   0  0  0  0  0  0  0  0  0  0  0  0
    4.5133   -1.3064    0.0000 C   0  0  0  0  0  0  0  0  0  0  0  0
    5.3446   -1.3658    0.0000 C   0  0  0  0  0  0  0  0  0  0  0  0
    4.0976   -3.3849    0.0000 C   0  0  0  0  0  0  0  0  0  0  0  0
    5.7009   -3.4443    0.0000 C   0  0  0  0  0  0  0  0  0  0  0  0
    6.9480   -1.3658    0.0000 C   0  0  0  0  0  0  0  0  0  0  0  0
    4.6320   -4.2757    0.0000 C   0  0  0  0  0  0  0  0  0  0  0  0
    5.2852   -4.1570    0.0000 C   0  0  0  0  0  0  0  0  0  0  0  0
    0.8314   -3.9788    0.0000 C   0  0  0  0  0  0  0  0  0  0  0  0
    0.0000   -4.8102    0.0000 C   0  0  0  0  0  0  0  0  0  0  0  0
    0.8314   -5.6415    0.0000 C   0  0  0  0  0  0  0  0  0  0  0  0
    8.1951   -0.7126    0.0000 C   0  0  0  0  0  0  0  0  0  0  0  0
    6.5323   -0.6532    0.0000 C   0  0  0  0  0  0  0  0  0  0  0  0
    9.4422   -1.4252    0.0000 C   0  0  0  0  0  0  0  0  0  0  0  0
    4.5133   -4.0976    0.0000 C   0  0  0  0  0  0  0  0  0  0  0  0
    4.8696   -6.2354    0.0000 C   0  0  0  0  0  0  0  0  0  0  0  0
    7.0074    0.0000    0.0000 C   0  0  0  0  0  0  0  0  0  0  0  0
   10.2142   -1.4846    0.0000 C   0  0  0  0  0  0  0  0  0  0  0  0
    8.9671   -2.1378    0.0000 C   0  0  0  0  0  0  0  0  0  0  0  0
   10.6299   -2.1972    0.0000 C   0  0  0  0  0  0  0  0  0  0  0  0
    9.3828   -2.8505    0.0000 C   0  0  0  0  0  0  0  0  0  0  0  0
   10.1548   -2.8505    0.0000 C   0  0  0  0  0  0  0  0  0  0  0  0
   11.8175   -2.9098    0.0000 C   0  0  0  0  0  0  0  0  0  0  0  0
    9.3234   -4.2757    0.0000 C   0  0  0  0  0  0  0  0  0  0  0  0
   12.5895   -2.9692    0.0000 C   0  0  0  0  0  0  0  0  0  0  0  0
   13.7772   -3.6819    0.0000 C   0  0  0  0  0  0  0  0  0  0  0  0
   14.2523   -3.0286    0.0000 C   0  0  0  0  0  0  0  0  0  0  0  0
   16.2714   -3.7412    0.0000 C   0  0  0  0  0  0  0  0  0  0  0  0
   17.4591   -4.4539    0.0000 C   0  0  0  0  0  0  0  0  0  0  0  0
   16.2120   -5.1665    0.0000 C   0  0  0  0  0  0  0  0  0  0  0  0
   15.4400   -3.7412    0.0000 C   0  0  0  0  0  0  0  0  0  0  0  0
   17.8154   -5.2259    0.0000 C   0  0  0  0  0  0  0  0  0  0  0  0
   16.5683   -5.8791    0.0000 C   0  0  0  0  0  0  0  0  0  0  0  0
  1  5  2  0  0  0  0
  1  6  2  0  0  0  0
  1 14  1  0  0  0  0
  1 45  1  0  0  0  0
  2 26  1  0  0  0  0
  2 35  1  0  0  0  0
  3 21  1  0  0  0  0
  3 44  1  0  0  0  0
  4 30  2  0  0  0  0
  7 49  1  0  0  0  0
  7 52  1  0  0  0  0
  8 50  1  0  0  0  0
  8 53  1  0  0  0  0
  9 54  1  0  0  0  0
  9 55  1  0  0  0  0
 10 56  1  0  0  0  0
 10 60  1  0  0  0  0
 11 61  1  0  0  0  0
 11 62  1  0  0  0  0
 12 20  1  0  0  0  0
 12 30  1  0  0  0  0
 13 25  1  0  0  0  0
 13 30  1  0  0  0  0
 14 23  1  0  0  0  0
 15 35  2  0  0  0  0
 15 41  1  0  0  0  0
 16 41  1  0  0  0  0
 16 43  1  0  0  0  0
 17 41  2  0  0  0  0
 17 46  1  0  0  0  0
 18 57  1  0  0  0  0
 18 58  1  0  0  0  0
 18 59  1  0  0  0  0
 19 22  2  0  0  0  0
 19 25  1  0  0  0  0
 19 33  1  0  0  0  0
 20 21  2  0  0  0  0
 20 27  1  0  0  0  0
 21 23  1  0  0  0  0
 22 26  1  0  0  0  0
 22 34  1  0  0  0  0
 23 28  2  0  0  0  0
 24 27  2  0  0  0  0
 24 28  1  0  0  0  0
 24 29  1  0  0  0  0
 25 31  2  0  0  0  0
 26 32  2  0  0  0  0
 29 38  1  0  0  0  0
 29 39  1  0  0  0  0
 29 40  1  0  0  0  0
 31 32  1  0  0  0  0
 33 36  2  0  0  0  0
 34 37  2  0  0  0  0
 35 42  1  0  0  0  0
 36 37  1  0  0  0  0
 42 46  2  0  0  0  0
 43 47  2  0  0  0  0
 43 48  1  0  0  0  0
 47 49  1  0  0  0  0
 48 50  2  0  0  0  0
 49 51  2  0  0  0  0
 50 51  1  0  0  0  0
 52 54  1  0  0  0  0
 55 56  1  0  0  0  0
 57 60  1  0  0  0  0
 58 61  1  0  0  0  0
 59 62  1  0  0  0  0
M  END
> <PUBCHEM_COMPOUND_ID_TYPE>
0

> <PUBCHEM_TOTAL_CHARGE>
0

> <PUBCHEM_SUBSTANCE_ID>
310929212

> <PUBCHEM_SUBSTANCE_VERSION>
1

> <PUBCHEM_EXT_DATASOURCE_NAME>
4488

> <PUBCHEM_EXT_DATASOURCE_REGID>
SCHEMBL16106375

> <PUBCHEM_SUBSTANCE_COMMENT>
InChI=1S/C44H55N7O10S/c1-44(2,3)30-25-37(41(56-5)38(26-30)50-62(6,53)54)48-43(52)47-36-11-12-39(35-10-8-7-9-34(35)36)61-40-13-14-45-42(49-40)46-31-27-32(55-4)29-33(28-31)60-24-23-59-22-21-58-20-17-51-15-18-57-19-16-51/h7-14,25-29,50H,15-24H2,1-6H3,(H,45,46,49)(H2,47,48,52)
InChIKey=VZEBZVKYQRSFDD-UHFFFAOYSA-N

> <PUBCHEM_SUBSTANCE_SYNONYM>
SCHEMBL16106375

> <PUBCHEM_XREF_EXT_ID>
SCHEMBL16106375

> <PUBCHEM_EXT_DATASOURCE_URL>
https://www.surechembl.org/

> <PUBCHEM_EXT_SUBSTANCE_URL>
https://www.surechembl.org/chemical/SCHEMBL16106375

> <PUBCHEM_CID_ASSOCIATIONS>
86275695  1

> <PUBCHEM_COORDINATE_TYPE>
1
3

$$$$
