310940259
  -OEChem-07211613022D

 16 16  0     0  0  0  0  0  0999 V2000
   -3.8175    2.3366    0.0000 Br  0  0  0  0  0  0  0  0  0  0  0  0
   -0.6952    0.6866    0.0000 S   0  0  0  0  0  0  0  0  0  0  0  0
   -0.6952    0.6866    0.0000 O   0  0  0  0  0  0  0  0  0  0  0  0
   -0.6952    0.6866    0.0000 O   0  0  0  0  0  0  0  0  0  0  0  0
   -0.6952    0.6866    0.0000 N   0  0  0  0  0  0  0  0  0  0  0  0
   -1.4060    1.1181    0.0000 C   0  0  0  0  0  0  0  0  0  0  0  0
   -1.3933    1.9305    0.0000 C   0  0  0  0  0  0  0  0  0  0  0  0
   -2.1041    0.6992    0.0000 C   0  0  0  0  0  0  0  0  0  0  0  0
   -2.1167    2.3239    0.0000 C   0  0  0  0  0  0  0  0  0  0  0  0
   -2.8148    1.9305    0.0000 C   0  0  0  0  0  0  0  0  0  0  0  0
   -2.8148    1.1055    0.0000 C   0  0  0  0  0  0  0  0  0  0  0  0
   -0.6698    2.3493    0.0000 C   0  0  0  0  0  0  0  0  0  0  0  0
    1.3150   -1.5083    0.0000 C   0  0  0  0  0  0  0  0  0  0  0  0
    2.3406   -1.5083    0.0000 C   0  0  0  0  0  0  0  0  0  0  0  0
    2.8330   -2.3493    0.0000 C   0  0  0  0  0  0  0  0  0  0  0  0
    3.8175   -2.3287    0.0000 C   0  0  0  0  0  0  0  0  0  0  0  0
  1 10  1  0  0  0  0
  2  3  2  0  0  0  0
  2  4  2  0  0  0  0
  2  5  1  0  0  0  0
  2  6  1  0  0  0  0
  5 13  1  0  0  0  0
  6  7  1  0  0  0  0
  6  8  2  0  0  0  0
  7  9  2  0  0  0  0
  7 12  1  0  0  0  0
  8 11  1  0  0  0  0
  9 10  1  0  0  0  0
 10 11  2  0  0  0  0
 13 14  1  0  0  0  0
 14 15  1  0  0  0  0
 15 16  1  0  0  0  0
M  END
> <PUBCHEM_COMPOUND_ID_TYPE>
0

> <PUBCHEM_TOTAL_CHARGE>
0

> <PUBCHEM_SUBSTANCE_ID>
310940259

> <PUBCHEM_SUBSTANCE_VERSION>
1

> <PUBCHEM_EXT_DATASOURCE_NAME>
4488

> <PUBCHEM_EXT_DATASOURCE_REGID>
SCHEMBL16118202

> <PUBCHEM_SUBSTANCE_COMMENT>
InChI=1S/C11H16BrNO2S/c1-3-4-7-13-16(14,15)11-6-5-10(12)8-9(11)2/h5-6,8,13H,3-4,7H2,1-2H3
InChIKey=XZWZETKBKPHXFZ-UHFFFAOYSA-N

> <PUBCHEM_SUBSTANCE_SYNONYM>
SCHEMBL16118202

> <PUBCHEM_XREF_EXT_ID>
SCHEMBL16118202

> <PUBCHEM_EXT_DATASOURCE_URL>
https://www.surechembl.org/

> <PUBCHEM_EXT_SUBSTANCE_URL>
https://www.surechembl.org/chemical/SCHEMBL16118202

> <PUBCHEM_CID_ASSOCIATIONS>
117607348  1

> <PUBCHEM_COORDINATE_TYPE>
1
3

$$$$
