310940619
  -OEChem-07211613022D

 13 13  0     0  0  0  0  0  0999 V2000
   -0.3824    1.2495    0.0000 O   0  0  0  0  0  0  0  0  0  0  0  0
    1.0395   -1.2495    0.0000 O   0  0  0  0  0  0  0  0  0  0  0  0
   -0.3824    1.2495    0.0000 O   0  0  0  0  0  0  0  0  0  0  0  0
   -0.3824    1.2495    0.0000 N   0  0  0  0  0  0  0  0  0  0  0  0
   -0.4147    0.4093    0.0000 C   0  0  0  0  0  0  0  0  0  0  0  0
   -1.1256    0.0215    0.0000 C   0  0  0  0  0  0  0  0  0  0  0  0
   -0.3824    1.2495    0.0000 C   0  0  0  0  0  0  0  0  0  0  0  0
    0.3393   -0.0108    0.0000 C   0  0  0  0  0  0  0  0  0  0  0  0
    0.3070   -0.8079    0.0000 C   0  0  0  0  0  0  0  0  0  0  0  0
   -1.1364   -0.7971    0.0000 C   0  0  0  0  0  0  0  0  0  0  0  0
   -0.4255   -1.2280    0.0000 C   0  0  0  0  0  0  0  0  0  0  0  0
   -1.7396    0.3770    0.0000 C   0  0  0  0  0  0  0  0  0  0  0  0
    1.7396   -0.8617    0.0000 C   0  0  0  0  0  0  0  0  0  0  0  0
  1  4  1  0  0  0  0
  1  7  1  0  0  0  0
  2  9  1  0  0  0  0
  2 13  1  0  0  0  0
  3  7  2  0  0  0  0
  5  6  1  0  0  0  0
  5  7  1  0  0  0  0
  5  8  2  0  0  0  0
  6 10  2  0  0  0  0
  6 12  1  0  0  0  0
  8  9  1  0  0  0  0
  9 11  2  0  0  0  0
 10 11  1  0  0  0  0
M  END
> <PUBCHEM_COMPOUND_ID_TYPE>
0

> <PUBCHEM_TOTAL_CHARGE>
0

> <PUBCHEM_SUBSTANCE_ID>
310940619

> <PUBCHEM_SUBSTANCE_VERSION>
1

> <PUBCHEM_EXT_DATASOURCE_NAME>
4488

> <PUBCHEM_EXT_DATASOURCE_REGID>
SCHEMBL16118574

> <PUBCHEM_SUBSTANCE_COMMENT>
InChI=1S/C9H11NO3/c1-6-3-4-7(12-2)5-8(6)9(11)13-10/h3-5H,10H2,1-2H3
InChIKey=KOLCVZBCESGUSM-UHFFFAOYSA-N

> <PUBCHEM_SUBSTANCE_SYNONYM>
SCHEMBL16118574

> <PUBCHEM_XREF_EXT_ID>
SCHEMBL16118574

> <PUBCHEM_EXT_DATASOURCE_URL>
https://www.surechembl.org/

> <PUBCHEM_EXT_SUBSTANCE_URL>
https://www.surechembl.org/chemical/SCHEMBL16118574

> <PUBCHEM_CID_ASSOCIATIONS>
117607605  1

> <PUBCHEM_COORDINATE_TYPE>
1
3

$$$$
