310932438
  -OEChem-07211613022D

 35 40  0     1  0  0  0  0  0999 V2000
    4.9940   -3.6153    0.0000 O   0  0  0  0  0  0  0  0  0  0  0  0
    4.9940   -1.9608    0.0000 O   0  0  0  0  0  0  0  0  0  0  0  0
    2.1447   -5.0246    0.0000 N   0  0  0  0  0  0  0  0  0  0  0  0
    2.1447   -4.4425    0.0000 N   0  0  0  0  0  0  0  0  0  0  0  0
    1.4094   -3.1863    0.0000 N   0  0  0  0  0  0  0  0  0  0  0  0
    2.1447   -1.9608    0.0000 N   0  0  0  0  0  0  0  0  0  0  0  0
    2.8493   -3.7378    0.0000 N   0  0  0  0  0  0  0  0  0  0  0  0
    1.4400   -3.7378    0.0000 N   0  0  0  0  0  0  0  0  0  0  0  0
    1.2868   -5.5149    0.0000 C   0  0  3  0  0  0  0  0  0  0  0  0
    3.0025   -5.5149    0.0000 C   0  0  3  0  0  0  0  0  0  0  0  0
    2.1447   -3.6153    0.0000 C   0  0  0  0  0  0  0  0  0  0  0  0
    2.8493   -3.1863    0.0000 C   0  0  0  0  0  0  0  0  0  0  0  0
    1.4400   -4.7796    0.0000 C   0  0  0  0  0  0  0  0  0  0  0  0
    2.8493   -4.7489    0.0000 C   0  0  0  0  0  0  0  0  0  0  0  0
    2.1447   -4.1668    0.0000 C   0  0  0  0  0  0  0  0  0  0  0  0
    2.8493   -2.3591    0.0000 C   0  0  0  0  0  0  0  0  0  0  0  0
    2.5429   -6.1276    0.0000 C   0  0  0  0  0  0  0  0  0  0  0  0
    1.7464   -6.1276    0.0000 C   0  0  0  0  0  0  0  0  0  0  0  0
    3.5540   -3.6153    0.0000 C   0  0  0  0  0  0  0  0  0  0  0  0
    4.2893   -3.1863    0.0000 C   0  0  0  0  0  0  0  0  0  0  0  0
    4.2893   -2.3591    0.0000 C   0  0  0  0  0  0  0  0  0  0  0  0
    3.5540   -1.9608    0.0000 C   0  0  0  0  0  0  0  0  0  0  0  0
    1.4094   -2.3591    0.0000 C   0  0  0  0  0  0  0  0  0  0  0  0
    2.1447   -2.4817    0.0000 C   0  0  0  0  0  0  0  0  0  0  0  0
    2.8493   -2.9413    0.0000 C   0  0  0  0  0  0  0  0  0  0  0  0
    1.4400   -2.9413    0.0000 C   0  0  0  0  0  0  0  0  0  0  0  0
    2.1447   -1.6544    0.0000 C   0  0  0  0  0  0  0  0  0  0  0  0
    1.4094   -1.2562    0.0000 C   0  0  0  0  0  0  0  0  0  0  0  0
    5.6987   -3.1863    0.0000 C   0  0  0  0  0  0  0  0  0  0  0  0
    4.9940   -1.1336    0.0000 C   0  0  0  0  0  0  0  0  0  0  0  0
    1.4400   -0.4289    0.0000 C   0  0  0  0  0  0  0  0  0  0  0  0
    0.7047   -1.6544    0.0000 C   0  0  0  0  0  0  0  0  0  0  0  0
    0.7047    0.0000    0.0000 C   0  0  0  0  0  0  0  0  0  0  0  0
    0.0000   -1.2562    0.0000 C   0  0  0  0  0  0  0  0  0  0  0  0
    0.0000   -0.4289    0.0000 C   0  0  0  0  0  0  0  0  0  0  0  0
  1 20  1  0  0  0  0
  1 29  1  0  0  0  0
  2 21  1  0  0  0  0
  2 30  1  0  0  0  0
  9  3  1  1  0  0  0
 10  3  1  1  0  0  0
  3 15  1  0  0  0  0
  4 11  1  0  0  0  0
  4 13  1  0  0  0  0
  4 14  1  0  0  0  0
  5 11  1  0  0  0  0
  5 23  2  0  0  0  0
  6 16  2  0  0  0  0
  6 23  1  0  0  0  0
  7 15  2  0  0  0  0
  7 25  1  0  0  0  0
  8 15  1  0  0  0  0
  8 26  2  0  0  0  0
  9 13  1  0  0  0  0
  9 18  1  0  0  0  0
 10 14  1  0  0  0  0
 10 17  1  0  0  0  0
 11 12  2  0  0  0  0
 12 16  1  0  0  0  0
 12 19  1  0  0  0  0
 16 22  1  0  0  0  0
 17 18  1  0  0  0  0
 19 20  2  0  0  0  0
 20 21  1  0  0  0  0
 21 22  2  0  0  0  0
 24 25  2  0  0  0  0
 24 26  1  0  0  0  0
 24 27  1  0  0  0  0
 27 28  1  0  0  0  0
 28 31  2  0  0  0  0
 28 32  1  0  0  0  0
 31 33  1  0  0  0  0
 32 34  2  0  0  0  0
 33 35  2  0  0  0  0
 34 35  1  0  0  0  0
M  END
> <PUBCHEM_COMPOUND_ID_TYPE>
0

> <PUBCHEM_TOTAL_CHARGE>
0

> <PUBCHEM_SUBSTANCE_ID>
310932438

> <PUBCHEM_SUBSTANCE_VERSION>
1

> <PUBCHEM_EXT_DATASOURCE_NAME>
4488

> <PUBCHEM_EXT_DATASOURCE_REGID>
SCHEMBL16109806

> <PUBCHEM_SUBSTANCE_COMMENT>
InChI=1S/C27H28N6O2/c1-34-24-11-22-23(12-25(24)35-2)30-17-31-26(22)32-15-20-8-9-21(16-32)33(20)27-28-13-19(14-29-27)10-18-6-4-3-5-7-18/h3-7,11-14,17,20-21H,8-10,15-16H2,1-2H3/t20-,21+
InChIKey=JXTPLHYVUOLWOZ-OYRHEFFESA-N

> <PUBCHEM_SUBSTANCE_SYNONYM>
SCHEMBL16109806

> <PUBCHEM_XREF_EXT_ID>
SCHEMBL16109806

> <PUBCHEM_EXT_DATASOURCE_URL>
https://www.surechembl.org/

> <PUBCHEM_EXT_SUBSTANCE_URL>
https://www.surechembl.org/chemical/SCHEMBL16109806

> <PUBCHEM_CID_ASSOCIATIONS>
117600985  1

> <PUBCHEM_COORDINATE_TYPE>
1
3

> <PUBCHEM_BONDANNOTATIONS>
10  3  5
9  3  5

$$$$
