310941327
  -OEChem-07211613022D

 36 37  0     1  0  0  0  0  0999 V2000
   -0.9360    1.9774    0.0000 O   0  0  0  0  0  0  0  0  0  0  0  0
   -2.3835    1.1058    0.0000 O   0  0  0  0  0  0  0  0  0  0  0  0
    1.3053   -1.8047    0.0000 O   0  0  0  0  0  0  0  0  0  0  0  0
    1.8778   -3.6445    0.0000 O   0  0  0  0  0  0  0  0  0  0  0  0
    1.3053   -1.8047    0.0000 O   0  0  0  0  0  0  0  0  0  0  0  0
    1.3773   -4.4677    0.0000 O   0  0  0  0  0  0  0  0  0  0  0  0
   -0.1578   -1.8203    0.0000 N   0  0  0  0  0  0  0  0  0  0  0  0
   -0.1733   -0.0926    0.0000 C   0  0  0  0  0  0  0  0  0  0  0  0
   -0.9204    1.1370    0.0000 C   0  0  0  0  0  0  0  0  0  0  0  0
   -1.6364    0.7322    0.0000 C   0  0  0  0  0  0  0  0  0  0  0  0
    0.5737   -1.3689    0.0000 C   0  0  3  0  0  0  0  0  0  0  0  0
   -0.1889    0.7322    0.0000 C   0  0  0  0  0  0  0  0  0  0  0  0
    0.5581   -0.5284    0.0000 C   0  0  0  0  0  0  0  0  0  0  0  0
   -0.9049   -0.5284    0.0000 C   0  0  0  0  0  0  0  0  0  0  0  0
    1.3053   -1.8047    0.0000 C   0  0  0  0  0  0  0  0  0  0  0  0
   -1.6208   -0.1238    0.0000 C   0  0  0  0  0  0  0  0  0  0  0  0
    1.3773   -3.9338    0.0000 C   0  0  0  0  0  0  0  0  0  0  0  0
    1.8890   -3.0884    0.0000 C   0  0  0  0  0  0  0  0  0  0  0  0
    3.3130   -4.3693    0.0000 C   0  0  0  0  0  0  0  0  0  0  0  0
    4.0164   -3.9736    0.0000 C   0  0  0  0  0  0  0  0  0  0  0  0
   -1.6208    2.3821    0.0000 C   0  0  0  0  0  0  0  0  0  0  0  0
   -3.0528    0.6544    0.0000 C   0  0  0  0  0  0  0  0  0  0  0  0
    4.0164   -3.2555    0.0000 C   0  0  0  0  0  0  0  0  0  0  0  0
    4.6319   -4.3253    0.0000 C   0  0  0  0  0  0  0  0  0  0  0  0
    2.3896   -3.0662    0.0000 C   0  0  0  0  0  0  0  0  0  0  0  0
    1.3773   -3.0884    0.0000 C   0  0  0  0  0  0  0  0  0  0  0  0
    1.8778   -2.5434    0.0000 C   0  0  0  0  0  0  0  0  0  0  0  0
   -1.6052    3.2070    0.0000 C   0  0  0  0  0  0  0  0  0  0  0  0
   -3.7998    1.0280    0.0000 C   0  0  0  0  0  0  0  0  0  0  0  0
    4.6319   -2.8892    0.0000 C   0  0  0  0  0  0  0  0  0  0  0  0
    5.2473   -3.9590    0.0000 C   0  0  0  0  0  0  0  0  0  0  0  0
    5.2473   -3.2409    0.0000 C   0  0  0  0  0  0  0  0  0  0  0  0
   -2.3368    3.6273    0.0000 C   0  0  0  0  0  0  0  0  0  0  0  0
   -4.5003    0.5610    0.0000 C   0  0  0  0  0  0  0  0  0  0  0  0
   -2.3212    4.4677    0.0000 C   0  0  0  0  0  0  0  0  0  0  0  0
   -5.2473    0.9502    0.0000 C   0  0  0  0  0  0  0  0  0  0  0  0
  1  9  1  0  0  0  0
  1 21  1  0  0  0  0
  2 10  1  0  0  0  0
  2 22  1  0  0  0  0
  3 15  1  0  0  0  0
  3 19  1  0  0  0  0
  4 17  1  0  0  0  0
  4 18  1  0  0  0  0
  5 15  2  0  0  0  0
  6 17  2  0  0  0  0
 11  7  1  1  0  0  0
  7 17  1  0  0  0  0
  8 12  2  0  0  0  0
  8 13  1  0  0  0  0
  8 14  1  0  0  0  0
  9 10  2  0  0  0  0
  9 12  1  0  0  0  0
 10 16  1  0  0  0  0
 11 13  1  0  0  0  0
 11 15  1  0  0  0  0
 14 16  2  0  0  0  0
 18 25  1  0  0  0  0
 18 26  1  0  0  0  0
 18 27  1  0  0  0  0
 19 20  1  0  0  0  0
 20 23  2  0  0  0  0
 20 24  1  0  0  0  0
 21 28  1  0  0  0  0
 22 29  1  0  0  0  0
 23 30  1  0  0  0  0
 24 31  2  0  0  0  0
 28 33  1  0  0  0  0
 29 34  1  0  0  0  0
 30 32  2  0  0  0  0
 31 32  1  0  0  0  0
 33 35  1  0  0  0  0
 34 36  1  0  0  0  0
M  END
> <PUBCHEM_COMPOUND_ID_TYPE>
0

> <PUBCHEM_TOTAL_CHARGE>
0

> <PUBCHEM_SUBSTANCE_ID>
310941327

> <PUBCHEM_SUBSTANCE_VERSION>
1

> <PUBCHEM_EXT_DATASOURCE_NAME>
4488

> <PUBCHEM_EXT_DATASOURCE_REGID>
SCHEMBL16119287

> <PUBCHEM_SUBSTANCE_COMMENT>
InChI=1S/C29H41NO6/c1-6-8-17-33-25-16-15-23(20-26(25)34-18-9-7-2)19-24(30-28(32)36-29(3,4)5)27(31)35-21-22-13-11-10-12-14-22/h10-16,20,24H,6-9,17-19,21H2,1-5H3,(H,30,32)/t24-/m0/s1
InChIKey=ZQANCOYQIACDTF-DEOSSOPVSA-N

> <PUBCHEM_SUBSTANCE_SYNONYM>
SCHEMBL16119287

> <PUBCHEM_XREF_EXT_ID>
SCHEMBL16119287

> <PUBCHEM_EXT_DATASOURCE_URL>
https://www.surechembl.org/

> <PUBCHEM_EXT_SUBSTANCE_URL>
https://www.surechembl.org/chemical/SCHEMBL16119287

> <PUBCHEM_CID_ASSOCIATIONS>
117608172  1

> <PUBCHEM_COORDINATE_TYPE>
1
3

> <PUBCHEM_BONDANNOTATIONS>
11  7  5

$$$$
