310932668
  -OEChem-07211613022D

 28 31  0     1  0  0  0  0  0999 V2000
    2.0683   -2.8257    0.0000 O   0  0  0  0  0  0  0  0  0  0  0  0
    0.6700   -3.1462    0.0000 O   0  0  0  0  0  0  0  0  0  0  0  0
    0.9613   -1.1944    0.0000 N   0  0  0  0  0  0  0  0  0  0  0  0
    1.1070   -1.7770    0.0000 N   0  0  0  0  0  0  0  0  0  0  0  0
    0.5535   -2.6218    0.0000 N   0  0  0  0  0  0  0  0  0  0  0  0
    1.9518   -2.3014    0.0000 N   0  0  0  0  0  0  0  0  0  0  0  0
    1.7187   -0.4952    0.0000 C   0  0  3  0  0  0  0  0  0  0  0  0
    0.0000   -0.9031    0.0000 C   0  0  3  0  0  0  0  0  0  0  0  0
    1.1361   -2.0100    0.0000 C   0  0  0  0  0  0  0  0  0  0  0  0
    1.7187   -1.2817    0.0000 C   0  0  0  0  0  0  0  0  0  0  0  0
    0.3205   -1.6022    0.0000 C   0  0  0  0  0  0  0  0  0  0  0  0
    0.3205   -0.1748    0.0000 C   0  0  0  0  0  0  0  0  0  0  0  0
    1.1070    0.0000    0.0000 C   0  0  0  0  0  0  0  0  0  0  0  0
    1.2817   -2.5927    0.0000 C   0  0  0  0  0  0  0  0  0  0  0  0
    1.5148   -3.6705    0.0000 C   0  0  0  0  0  0  0  0  0  0  0  0
    0.7283   -3.4084    0.0000 C   0  0  0  0  0  0  0  0  0  0  0  0
    2.1266   -3.0879    0.0000 C   0  0  0  0  0  0  0  0  0  0  0  0
    2.6801   -2.2722    0.0000 C   0  0  0  0  0  0  0  0  0  0  0  0
    1.7187   -4.5153    0.0000 C   0  0  0  0  0  0  0  0  0  0  0  0
    2.5053   -4.7484    0.0000 C   0  0  0  0  0  0  0  0  0  0  0  0
    3.2627   -2.8840    0.0000 C   0  0  0  0  0  0  0  0  0  0  0  0
    3.2918   -1.7187    0.0000 C   0  0  0  0  0  0  0  0  0  0  0  0
    2.1266   -1.6605    0.0000 C   0  0  0  0  0  0  0  0  0  0  0  0
    2.6801   -5.5640    0.0000 C   0  0  0  0  0  0  0  0  0  0  0  0
    3.1170   -4.1949    0.0000 C   0  0  0  0  0  0  0  0  0  0  0  0
    3.4958   -5.8262    0.0000 C   0  0  0  0  0  0  0  0  0  0  0  0
    3.9327   -4.4279    0.0000 C   0  0  0  0  0  0  0  0  0  0  0  0
    4.1075   -5.2727    0.0000 C   0  0  0  0  0  0  0  0  0  0  0  0
  1 14  1  0  0  0  0
  1 18  1  0  0  0  0
  2 14  2  0  0  0  0
  3  7  1  0  0  0  0
  3  8  1  0  0  0  0
  3  9  1  0  0  0  0
  4 10  1  0  0  0  0
  4 11  1  0  0  0  0
  4 14  1  0  0  0  0
  5  9  2  0  0  0  0
  5 16  1  0  0  0  0
  6  9  1  0  0  0  0
  6 17  2  0  0  0  0
  7 10  1  0  0  0  0
  7 13  1  0  0  0  0
  8 11  1  0  0  0  0
  8 12  1  0  0  0  0
 12 13  1  0  0  0  0
 15 16  2  0  0  0  0
 15 17  1  0  0  0  0
 15 19  1  0  0  0  0
 18 21  1  0  0  0  0
 18 22  1  0  0  0  0
 18 23  1  0  0  0  0
 19 20  1  0  0  0  0
 20 24  2  0  0  0  0
 20 25  1  0  0  0  0
 24 26  1  0  0  0  0
 25 27  2  0  0  0  0
 26 28  2  0  0  0  0
 27 28  1  0  0  0  0
M  END
> <PUBCHEM_COMPOUND_ID_TYPE>
0

> <PUBCHEM_TOTAL_CHARGE>
0

> <PUBCHEM_SUBSTANCE_ID>
310932668

> <PUBCHEM_SUBSTANCE_VERSION>
1

> <PUBCHEM_EXT_DATASOURCE_NAME>
4488

> <PUBCHEM_EXT_DATASOURCE_REGID>
SCHEMBL16110048

> <PUBCHEM_SUBSTANCE_COMMENT>
InChI=1S/C22H28N4O2/c1-22(2,3)28-21(27)25-14-18-9-10-19(15-25)26(18)20-23-12-17(13-24-20)11-16-7-5-4-6-8-16/h4-8,12-13,18-19H,9-11,14-15H2,1-3H3
InChIKey=HIKIIQLKYYOHIK-UHFFFAOYSA-N

> <PUBCHEM_SUBSTANCE_SYNONYM>
SCHEMBL16110048

> <PUBCHEM_XREF_EXT_ID>
SCHEMBL16110048

> <PUBCHEM_EXT_DATASOURCE_URL>
https://www.surechembl.org/

> <PUBCHEM_EXT_SUBSTANCE_URL>
https://www.surechembl.org/chemical/SCHEMBL16110048

> <PUBCHEM_CID_ASSOCIATIONS>
117601183  1

> <PUBCHEM_COORDINATE_TYPE>
1
3

$$$$
