310944391
  -OEChem-07211613022D

 16 16  0     0  0  0  0  0  0999 V2000
    1.0852   -0.8213    0.0000 Br  0  0  0  0  0  0  0  0  0  0  0  0
    1.0752    0.8214    0.0000 Cl  0  0  0  0  0  0  0  0  0  0  0  0
   -0.3783   -1.6477    0.0000 Cl  0  0  0  0  0  0  0  0  0  0  0  0
   -0.3684    1.6477    0.0000 F   0  0  0  0  0  0  0  0  0  0  0  0
    1.0752    0.8214    0.0000 O   0  0  0  0  0  0  0  0  0  0  0  0
   -0.3783   -1.6477    0.0000 O   0  0  0  0  0  0  0  0  0  0  0  0
    1.0752    0.8214    0.0000 O   0  0  0  0  0  0  0  0  0  0  0  0
   -0.3783   -1.6477    0.0000 O   0  0  0  0  0  0  0  0  0  0  0  0
    0.3485    0.4231    0.0000 C   0  0  0  0  0  0  0  0  0  0  0  0
    0.3485   -0.3932    0.0000 C   0  0  0  0  0  0  0  0  0  0  0  0
   -0.3783   -0.8014    0.0000 C   0  0  0  0  0  0  0  0  0  0  0  0
   -0.3783    0.8413    0.0000 C   0  0  0  0  0  0  0  0  0  0  0  0
    1.0752    0.8214    0.0000 C   0  0  0  0  0  0  0  0  0  0  0  0
   -1.0852   -0.3932    0.0000 C   0  0  0  0  0  0  0  0  0  0  0  0
   -0.3783   -1.6477    0.0000 C   0  0  0  0  0  0  0  0  0  0  0  0
   -1.0852    0.4231    0.0000 C   0  0  0  0  0  0  0  0  0  0  0  0
  1 10  1  0  0  0  0
  2  5  1  0  0  0  0
  3  6  1  0  0  0  0
  4 12  1  0  0  0  0
  5 13  1  0  0  0  0
  6 15  1  0  0  0  0
  7 13  2  0  0  0  0
  8 15  2  0  0  0  0
  9 10  1  0  0  0  0
  9 12  2  0  0  0  0
  9 13  1  0  0  0  0
 10 11  2  0  0  0  0
 11 14  1  0  0  0  0
 11 15  1  0  0  0  0
 12 16  1  0  0  0  0
 14 16  2  0  0  0  0
M  END
> <PUBCHEM_COMPOUND_ID_TYPE>
0

> <PUBCHEM_TOTAL_CHARGE>
0

> <PUBCHEM_SUBSTANCE_ID>
310944391

> <PUBCHEM_SUBSTANCE_VERSION>
1

> <PUBCHEM_EXT_DATASOURCE_NAME>
4488

> <PUBCHEM_EXT_DATASOURCE_REGID>
SCHEMBL16122466

> <PUBCHEM_SUBSTANCE_COMMENT>
InChI=1S/C8H2BrCl2FO4/c9-6-3(7(13)15-10)1-2-4(12)5(6)8(14)16-11/h1-2H
InChIKey=KBOMZWNNYGCGJF-UHFFFAOYSA-N

> <PUBCHEM_SUBSTANCE_SYNONYM>
SCHEMBL16122466

> <PUBCHEM_XREF_EXT_ID>
SCHEMBL16122466

> <PUBCHEM_EXT_DATASOURCE_URL>
https://www.surechembl.org/

> <PUBCHEM_EXT_SUBSTANCE_URL>
https://www.surechembl.org/chemical/SCHEMBL16122466

> <PUBCHEM_CID_ASSOCIATIONS>
117610648  1

> <PUBCHEM_COORDINATE_TYPE>
1
3

$$$$
