310948089
  -OEChem-07211613022D

 43 47  0     0  0  0  0  0  0999 V2000
   -0.0524   -2.9015    0.0000 S   0  0  0  0  0  0  0  0  0  0  0  0
   -1.2369    4.4600    0.0000 F   0  0  0  0  0  0  0  0  0  0  0  0
   -0.1274    4.6699    0.0000 F   0  0  0  0  0  0  0  0  0  0  0  0
    0.0524    3.5454    0.0000 F   0  0  0  0  0  0  0  0  0  0  0  0
    2.9461   -2.8565    0.0000 F   0  0  0  0  0  0  0  0  0  0  0  0
    2.4213   -1.8220    0.0000 F   0  0  0  0  0  0  0  0  0  0  0  0
    1.8966   -3.3363    0.0000 F   0  0  0  0  0  0  0  0  0  0  0  0
    0.0375    2.0612    0.0000 O   0  0  0  0  0  0  0  0  0  0  0  0
    1.3868   -2.3317    0.0000 O   0  0  0  0  0  0  0  0  0  0  0  0
   -0.0524   -2.9015    0.0000 O   0  0  0  0  0  0  0  0  0  0  0  0
   -0.0524   -2.9015    0.0000 O   0  0  0  0  0  0  0  0  0  0  0  0
   -1.4918    2.0761    0.0000 N   0  0  0  0  0  0  0  0  0  0  0  0
   -0.8171    2.5559    0.0000 N   0  0  0  0  0  0  0  0  0  0  0  0
    1.2519    1.5214    0.0000 N   0  0  0  0  0  0  0  0  0  0  0  0
   -0.7721    0.8317    0.0000 C   0  0  0  0  0  0  0  0  0  0  0  0
   -1.4768    1.2365    0.0000 C   0  0  0  0  0  0  0  0  0  0  0  0
   -0.0524    1.2516    0.0000 C   0  0  0  0  0  0  0  0  0  0  0  0
    0.6972    0.9067    0.0000 C   0  0  0  0  0  0  0  0  0  0  0  0
   -0.7721    0.0071    0.0000 C   0  0  0  0  0  0  0  0  0  0  0  0
   -2.1664    2.5559    0.0000 C   0  0  0  0  0  0  0  0  0  0  0  0
   -1.4768   -0.3977    0.0000 C   0  0  0  0  0  0  0  0  0  0  0  0
   -1.0720    3.3356    0.0000 C   0  0  0  0  0  0  0  0  0  0  0  0
   -2.1965    0.8317    0.0000 C   0  0  0  0  0  0  0  0  0  0  0  0
    0.8771    0.0971    0.0000 C   0  0  0  0  0  0  0  0  0  0  0  0
    0.8471    2.2261    0.0000 C   0  0  0  0  0  0  0  0  0  0  0  0
   -1.8966    3.3505    0.0000 C   0  0  0  0  0  0  0  0  0  0  0  0
   -2.1965    0.0071    0.0000 C   0  0  0  0  0  0  0  0  0  0  0  0
   -1.4918   -1.2372    0.0000 C   0  0  0  0  0  0  0  0  0  0  0  0
   -0.5922    4.0102    0.0000 C   0  0  0  0  0  0  0  0  0  0  0  0
    0.2774   -0.4576    0.0000 C   0  0  0  0  0  0  0  0  0  0  0  0
    1.6567   -0.1728    0.0000 C   0  0  0  0  0  0  0  0  0  0  0  0
   -0.7721   -1.6721    0.0000 C   0  0  0  0  0  0  0  0  0  0  0  0
   -0.7871   -2.4667    0.0000 C   0  0  0  0  0  0  0  0  0  0  0  0
   -2.1965   -1.6571    0.0000 C   0  0  0  0  0  0  0  0  0  0  0  0
   -2.9461    2.2860    0.0000 C   0  0  0  0  0  0  0  0  0  0  0  0
    1.2219   -1.5221    0.0000 C   0  0  0  0  0  0  0  0  0  0  0  0
    0.4273   -1.2523    0.0000 C   0  0  0  0  0  0  0  0  0  0  0  0
    1.8217   -0.9674    0.0000 C   0  0  0  0  0  0  0  0  0  0  0  0
    1.1769    3.0057    0.0000 C   0  0  0  0  0  0  0  0  0  0  0  0
   -1.4768   -2.8865    0.0000 C   0  0  0  0  0  0  0  0  0  0  0  0
   -2.1965   -2.4817    0.0000 C   0  0  0  0  0  0  0  0  0  0  0  0
    2.1664   -2.5866    0.0000 C   0  0  0  0  0  0  0  0  0  0  0  0
    1.6624   -4.6699    0.0000 C   0  0  0  0  0  0  0  0  0  0  0  0
  1 10  2  0  0  0  0
  1 11  2  0  0  0  0
  1 33  1  0  0  0  0
  1 43  1  0  0  0  0
  2 29  1  0  0  0  0
  3 29  1  0  0  0  0
  4 29  1  0  0  0  0
  5 42  1  0  0  0  0
  6 42  1  0  0  0  0
  7 42  1  0  0  0  0
  8 17  1  0  0  0  0
  8 25  1  0  0  0  0
  9 36  1  0  0  0  0
  9 42  1  0  0  0  0
 12 13  1  0  0  0  0
 12 16  1  0  0  0  0
 12 20  1  0  0  0  0
 13 22  2  0  0  0  0
 14 18  1  0  0  0  0
 14 25  2  0  0  0  0
 15 16  1  0  0  0  0
 15 17  1  0  0  0  0
 15 19  2  0  0  0  0
 16 23  2  0  0  0  0
 17 18  2  0  0  0  0
 18 24  1  0  0  0  0
 19 21  1  0  0  0  0
 20 26  2  0  0  0  0
 20 35  1  0  0  0  0
 21 27  2  0  0  0  0
 21 28  1  0  0  0  0
 22 26  1  0  0  0  0
 22 29  1  0  0  0  0
 23 27  1  0  0  0  0
 24 30  2  0  0  0  0
 24 31  1  0  0  0  0
 25 39  1  0  0  0  0
 28 32  2  0  0  0  0
 28 34  1  0  0  0  0
 30 37  1  0  0  0  0
 31 38  2  0  0  0  0
 32 33  1  0  0  0  0
 33 40  2  0  0  0  0
 34 41  2  0  0  0  0
 36 37  2  0  0  0  0
 36 38  1  0  0  0  0
 40 41  1  0  0  0  0
M  END
> <PUBCHEM_COMPOUND_ID_TYPE>
0

> <PUBCHEM_TOTAL_CHARGE>
0

> <PUBCHEM_SUBSTANCE_ID>
310948089

> <PUBCHEM_SUBSTANCE_VERSION>
1

> <PUBCHEM_EXT_DATASOURCE_NAME>
4488

> <PUBCHEM_EXT_DATASOURCE_REGID>
SCHEMBL16126265

> <PUBCHEM_SUBSTANCE_COMMENT>
InChI=1S/C29H21F6N3O4S/c1-16-13-25(28(30,31)32)37-38(16)24-12-9-20(19-5-4-6-22(14-19)43(3,39)40)15-23(24)27-26(36-17(2)41-27)18-7-10-21(11-8-18)42-29(33,34)35/h4-15H,1-3H3
InChIKey=ZBJBUXURPTZCLH-UHFFFAOYSA-N

> <PUBCHEM_SUBSTANCE_SYNONYM>
SCHEMBL16126265

> <PUBCHEM_XREF_EXT_ID>
SCHEMBL16126265

> <PUBCHEM_EXT_DATASOURCE_URL>
https://www.surechembl.org/

> <PUBCHEM_EXT_SUBSTANCE_URL>
https://www.surechembl.org/chemical/SCHEMBL16126265

> <PUBCHEM_CID_ASSOCIATIONS>
117613708  1

> <PUBCHEM_COORDINATE_TYPE>
1
3

$$$$
