310948217
  -OEChem-07211613022D

 42 46  0     0  0  0  0  0  0999 V2000
    3.0738   -1.7842    0.0000 Cl  0  0  0  0  0  0  0  0  0  0  0  0
   -2.4338   -3.4519    0.0000 S   0  0  0  0  0  0  0  0  0  0  0  0
   -0.7660    3.9174    0.0000 F   0  0  0  0  0  0  0  0  0  0  0  0
    0.3393    4.1307    0.0000 F   0  0  0  0  0  0  0  0  0  0  0  0
    0.5139    3.0059    0.0000 F   0  0  0  0  0  0  0  0  0  0  0  0
    1.8520   -2.8896    0.0000 F   0  0  0  0  0  0  0  0  0  0  0  0
    1.8520   -2.8896    0.0000 F   0  0  0  0  0  0  0  0  0  0  0  0
    1.7163    0.9696    0.0000 O   0  0  0  0  0  0  0  0  0  0  0  0
    1.8520   -2.8896    0.0000 O   0  0  0  0  0  0  0  0  0  0  0  0
   -2.8217   -2.8120    0.0000 O   0  0  0  0  0  0  0  0  0  0  0  0
   -2.0266   -4.1307    0.0000 O   0  0  0  0  0  0  0  0  0  0  0  0
   -1.0181    1.5321    0.0000 N   0  0  0  0  0  0  0  0  0  0  0  0
    0.4945    1.5321    0.0000 N   0  0  0  0  0  0  0  0  0  0  0  0
   -0.3393    2.0169    0.0000 N   0  0  0  0  0  0  0  0  0  0  0  0
   -0.3006    0.3103    0.0000 C   0  0  0  0  0  0  0  0  0  0  0  0
    0.4170    0.7176    0.0000 C   0  0  0  0  0  0  0  0  0  0  0  0
   -1.0181    0.7176    0.0000 C   0  0  0  0  0  0  0  0  0  0  0  0
    1.1733    0.3685    0.0000 C   0  0  0  0  0  0  0  0  0  0  0  0
   -0.3200   -0.5430    0.0000 C   0  0  0  0  0  0  0  0  0  0  0  0
    1.3478   -0.4266    0.0000 C   0  0  0  0  0  0  0  0  0  0  0  0
   -1.0181   -0.9503    0.0000 C   0  0  0  0  0  0  0  0  0  0  0  0
    1.3091    1.7260    0.0000 C   0  0  0  0  0  0  0  0  0  0  0  0
   -1.6969    0.2909    0.0000 C   0  0  0  0  0  0  0  0  0  0  0  0
   -0.6109    2.7926    0.0000 C   0  0  0  0  0  0  0  0  0  0  0  0
   -1.0181   -1.7842    0.0000 C   0  0  0  0  0  0  0  0  0  0  0  0
   -1.7163   -0.5430    0.0000 C   0  0  0  0  0  0  0  0  0  0  0  0
   -1.6581    2.0169    0.0000 C   0  0  0  0  0  0  0  0  0  0  0  0
    2.1429   -0.7369    0.0000 C   0  0  0  0  0  0  0  0  0  0  0  0
   -0.1260    3.4713    0.0000 C   0  0  0  0  0  0  0  0  0  0  0  0
   -1.4060    2.8120    0.0000 C   0  0  0  0  0  0  0  0  0  0  0  0
    0.7466   -0.9891    0.0000 C   0  0  0  0  0  0  0  0  0  0  0  0
    2.2980   -1.5127    0.0000 C   0  0  0  0  0  0  0  0  0  0  0  0
   -1.6969   -2.1914    0.0000 C   0  0  0  0  0  0  0  0  0  0  0  0
    1.6775   -2.0557    0.0000 C   0  0  0  0  0  0  0  0  0  0  0  0
   -1.7357   -3.0253    0.0000 C   0  0  0  0  0  0  0  0  0  0  0  0
   -0.3006   -2.1914    0.0000 C   0  0  0  0  0  0  0  0  0  0  0  0
    0.9018   -1.8035    0.0000 C   0  0  0  0  0  0  0  0  0  0  0  0
    1.6387    2.4823    0.0000 C   0  0  0  0  0  0  0  0  0  0  0  0
   -0.9988   -3.4326    0.0000 C   0  0  0  0  0  0  0  0  0  0  0  0
   -0.3006   -3.0253    0.0000 C   0  0  0  0  0  0  0  0  0  0  0  0
    1.8520   -2.8896    0.0000 C   0  0  0  0  0  0  0  0  0  0  0  0
   -3.0738   -3.8592    0.0000 C   0  0  0  0  0  0  0  0  0  0  0  0
  1 32  1  0  0  0  0
  2 10  2  0  0  0  0
  2 11  2  0  0  0  0
  2 35  1  0  0  0  0
  2 42  1  0  0  0  0
  3 29  1  0  0  0  0
  4 29  1  0  0  0  0
  5 29  1  0  0  0  0
  6 41  1  0  0  0  0
  7 41  1  0  0  0  0
  8 18  1  0  0  0  0
  8 22  1  0  0  0  0
  9 34  1  0  0  0  0
  9 41  1  0  0  0  0
 12 14  1  0  0  0  0
 12 17  1  0  0  0  0
 12 27  1  0  0  0  0
 13 16  1  0  0  0  0
 13 22  2  0  0  0  0
 14 24  2  0  0  0  0
 15 16  1  0  0  0  0
 15 17  2  0  0  0  0
 15 19  1  0  0  0  0
 16 18  2  0  0  0  0
 17 23  1  0  0  0  0
 18 20  1  0  0  0  0
 19 21  2  0  0  0  0
 20 28  1  0  0  0  0
 20 31  2  0  0  0  0
 21 25  1  0  0  0  0
 21 26  1  0  0  0  0
 22 38  1  0  0  0  0
 23 26  2  0  0  0  0
 24 29  1  0  0  0  0
 24 30  1  0  0  0  0
 25 33  2  0  0  0  0
 25 36  1  0  0  0  0
 27 30  2  0  0  0  0
 28 32  2  0  0  0  0
 31 37  1  0  0  0  0
 32 34  1  0  0  0  0
 33 35  1  0  0  0  0
 34 37  2  0  0  0  0
 35 39  2  0  0  0  0
 36 40  2  0  0  0  0
 39 40  1  0  0  0  0
M  END
> <PUBCHEM_COMPOUND_ID_TYPE>
0

> <PUBCHEM_TOTAL_CHARGE>
0

> <PUBCHEM_SUBSTANCE_ID>
310948217

> <PUBCHEM_SUBSTANCE_VERSION>
1

> <PUBCHEM_EXT_DATASOURCE_NAME>
4488

> <PUBCHEM_EXT_DATASOURCE_REGID>
SCHEMBL16126394

> <PUBCHEM_SUBSTANCE_COMMENT>
InChI=1S/C28H19ClF5N3O4S/c1-15-35-25(26(40-15)18-7-9-23(21(29)14-18)41-27(30)31)20-13-17(16-4-3-5-19(12-16)42(2,38)39)6-8-22(20)37-11-10-24(36-37)28(32,33)34/h3-14,27H,1-2H3
InChIKey=AOKXUJFLGQTFJY-UHFFFAOYSA-N

> <PUBCHEM_SUBSTANCE_SYNONYM>
SCHEMBL16126394

> <PUBCHEM_XREF_EXT_ID>
SCHEMBL16126394

> <PUBCHEM_EXT_DATASOURCE_URL>
https://www.surechembl.org/

> <PUBCHEM_EXT_SUBSTANCE_URL>
https://www.surechembl.org/chemical/SCHEMBL16126394

> <PUBCHEM_CID_ASSOCIATIONS>
117613797  1

> <PUBCHEM_COORDINATE_TYPE>
1
3

$$$$
