310949189
  -OEChem-07211613022D

 11 11  0     0  0  0  0  0  0999 V2000
   -0.2548    0.3667    0.0000 N   0  0  0  0  0  0  0  0  0  0  0  0
   -0.2673   -1.0379    0.0000 N   0  0  0  0  0  0  0  0  0  0  0  0
    1.3735    1.7464    0.0000 N   0  0  0  0  0  0  0  0  0  0  0  0
    0.9509   -1.7464    0.0000 N   0  0  0  0  0  0  0  0  0  0  0  0
    0.5407    0.3791    0.0000 C   0  0  0  0  0  0  0  0  0  0  0  0
    0.5283   -1.0254    0.0000 C   0  0  0  0  0  0  0  0  0  0  0  0
   -0.6650   -0.3045    0.0000 C   0  0  0  0  0  0  0  0  0  0  0  0
    0.9757   -0.3170    0.0000 C   0  0  0  0  0  0  0  0  0  0  0  0
    0.9633    1.0876    0.0000 C   0  0  0  0  0  0  0  0  0  0  0  0
    0.9509   -1.7464    0.0000 C   0  0  0  0  0  0  0  0  0  0  0  0
   -1.3735   -0.3045    0.0000 C   0  0  0  0  0  0  0  0  0  0  0  0
  1  5  2  0  0  0  0
  1  7  1  0  0  0  0
  2  6  1  0  0  0  0
  2  7  2  0  0  0  0
  3  9  3  0  0  0  0
  4 10  2  3  0  0  0
  5  8  1  0  0  0  0
  5  9  1  0  0  0  0
  6  8  2  0  0  0  0
  6 10  1  0  0  0  0
  7 11  1  0  0  0  0
M  END
> <PUBCHEM_COMPOUND_ID_TYPE>
0

> <PUBCHEM_TOTAL_CHARGE>
0

> <PUBCHEM_SUBSTANCE_ID>
310949189

> <PUBCHEM_SUBSTANCE_VERSION>
1

> <PUBCHEM_EXT_DATASOURCE_NAME>
4488

> <PUBCHEM_EXT_DATASOURCE_REGID>
SCHEMBL16127379

> <PUBCHEM_SUBSTANCE_COMMENT>
InChI=1S/C7H6N4/c1-5-10-6(3-8)2-7(4-9)11-5/h2-3,8H,1H3
InChIKey=CHPXPFSEWLWQJM-UHFFFAOYSA-N

> <PUBCHEM_SUBSTANCE_SYNONYM>
SCHEMBL16127379

> <PUBCHEM_XREF_EXT_ID>
SCHEMBL16127379

> <PUBCHEM_EXT_DATASOURCE_URL>
https://www.surechembl.org/

> <PUBCHEM_EXT_SUBSTANCE_URL>
https://www.surechembl.org/chemical/SCHEMBL16127379

> <PUBCHEM_CID_ASSOCIATIONS>
117614679  1

> <PUBCHEM_COORDINATE_TYPE>
1
3

$$$$
