310940893
  -OEChem-07211613022D

 22 22  0     1  0  0  0  0  0999 V2000
    1.2483    2.8196    0.0000 F   0  0  0  0  0  0  0  0  0  0  0  0
    1.6674    2.1089    0.0000 F   0  0  0  0  0  0  0  0  0  0  0  0
    0.3706   -1.9955    0.0000 O   0  0  0  0  0  0  0  0  0  0  0  0
    0.5193    0.2501    0.0000 O   0  0  0  0  0  0  0  0  0  0  0  0
    0.5193   -1.4264    0.0000 O   0  0  0  0  0  0  0  0  0  0  0  0
   -0.1305   -2.8196    0.0000 O   0  0  0  0  0  0  0  0  0  0  0  0
   -1.6674   -0.1690    0.0000 N   0  0  0  0  0  0  0  0  0  0  0  0
   -0.2096   -1.0073    0.0000 N   0  0  0  0  0  0  0  0  0  0  0  0
    0.8110    2.1453    0.0000 C   0  0  0  0  0  0  0  0  0  0  0  0
   -0.2096    1.5439    0.0000 C   0  0  0  0  0  0  0  0  0  0  0  0
    0.0091    2.3275    0.0000 C   0  0  0  0  0  0  0  0  0  0  0  0
    0.5922    1.3253    0.0000 C   0  0  0  0  0  0  0  0  0  0  0  0
   -0.9568    0.2866    0.0000 C   0  0  3  0  0  0  0  0  0  0  0  0
   -0.9203    1.1249    0.0000 C   0  0  0  0  0  0  0  0  0  0  0  0
   -0.2278   -0.1326    0.0000 C   0  0  0  0  0  0  0  0  0  0  0  0
   -0.1305   -2.2851    0.0000 C   0  0  0  0  0  0  0  0  0  0  0  0
    0.3817   -1.4386    0.0000 C   0  0  0  0  0  0  0  0  0  0  0  0
   -0.9203   -1.4264    0.0000 C   0  0  0  0  0  0  0  0  0  0  0  0
    0.8830   -1.4163    0.0000 C   0  0  0  0  0  0  0  0  0  0  0  0
   -0.1305   -1.4386    0.0000 C   0  0  0  0  0  0  0  0  0  0  0  0
    0.3706   -0.8929    0.0000 C   0  0  0  0  0  0  0  0  0  0  0  0
    1.2118   -0.9708    0.0000 C   0  0  0  0  0  0  0  0  0  0  0  0
  1  9  1  0  0  0  0
  2  9  1  0  0  0  0
  3 16  1  0  0  0  0
  3 17  1  0  0  0  0
  4 15  2  0  0  0  0
  5  8  1  0  0  0  0
  5 22  1  0  0  0  0
  6 16  2  0  0  0  0
 13  7  1  1  0  0  0
  7 16  1  0  0  0  0
  8 15  1  0  0  0  0
  8 18  1  0  0  0  0
  9 11  1  0  0  0  0
  9 12  1  0  0  0  0
 10 11  1  0  0  0  0
 10 12  1  0  0  0  0
 10 14  1  0  0  0  0
 13 14  1  0  0  0  0
 13 15  1  0  0  0  0
 17 19  1  0  0  0  0
 17 20  1  0  0  0  0
 17 21  1  0  0  0  0
M  END
> <PUBCHEM_COMPOUND_ID_TYPE>
0

> <PUBCHEM_TOTAL_CHARGE>
0

> <PUBCHEM_SUBSTANCE_ID>
310940893

> <PUBCHEM_SUBSTANCE_VERSION>
1

> <PUBCHEM_EXT_DATASOURCE_NAME>
4488

> <PUBCHEM_EXT_DATASOURCE_REGID>
SCHEMBL16118852

> <PUBCHEM_SUBSTANCE_COMMENT>
InChI=1S/C14H24F2N2O4/c1-13(2,3)22-12(20)17-10(11(19)18(4)21-5)6-9-7-14(15,16)8-9/h9-10H,6-8H2,1-5H3,(H,17,20)/t10-/m0/s1
InChIKey=CUSUBBYRXIGNDX-JTQLQIEISA-N

> <PUBCHEM_SUBSTANCE_SYNONYM>
SCHEMBL16118852

> <PUBCHEM_XREF_EXT_ID>
SCHEMBL16118852

> <PUBCHEM_EXT_DATASOURCE_URL>
https://www.surechembl.org/

> <PUBCHEM_EXT_SUBSTANCE_URL>
https://www.surechembl.org/chemical/SCHEMBL16118852

> <PUBCHEM_CID_ASSOCIATIONS>
117607810  1

> <PUBCHEM_COORDINATE_TYPE>
1
3

> <PUBCHEM_BONDANNOTATIONS>
13  7  5

$$$$
