310948232
  -OEChem-07211613022D

 44 48  0     0  0  0  0  0  0999 V2000
    2.4218   -1.9923    0.0000 S   0  0  0  0  0  0  0  0  0  0  0  0
    3.2944    0.6076    0.0000 F   0  0  0  0  0  0  0  0  0  0  0  0
   -4.1848    1.5336    0.0000 F   0  0  0  0  0  0  0  0  0  0  0  0
   -4.1136    2.6377    0.0000 F   0  0  0  0  0  0  0  0  0  0  0  0
   -2.9917    2.5308    0.0000 F   0  0  0  0  0  0  0  0  0  0  0  0
    2.9561    1.5692    0.0000 F   0  0  0  0  0  0  0  0  0  0  0  0
    2.9561    1.5692    0.0000 F   0  0  0  0  0  0  0  0  0  0  0  0
   -1.5315    2.2281    0.0000 O   0  0  0  0  0  0  0  0  0  0  0  0
    2.4218   -1.9923    0.0000 O   0  0  0  0  0  0  0  0  0  0  0  0
    2.4218   -1.9923    0.0000 O   0  0  0  0  0  0  0  0  0  0  0  0
    2.9561    1.5692    0.0000 O   0  0  0  0  0  0  0  0  0  0  0  0
    4.1848   -0.2472    0.0000 O   0  0  0  0  0  0  0  0  0  0  0  0
   -1.9766    0.6789    0.0000 N   0  0  0  0  0  0  0  0  0  0  0  0
   -0.5877    3.1719    0.0000 N   0  0  0  0  0  0  0  0  0  0  0  0
   -2.2616    1.4624    0.0000 N   0  0  0  0  0  0  0  0  0  0  0  0
   -0.6054    1.0706    0.0000 C   0  0  0  0  0  0  0  0  0  0  0  0
   -0.8013    1.8542    0.0000 C   0  0  0  0  0  0  0  0  0  0  0  0
   -1.1753    0.4651    0.0000 C   0  0  0  0  0  0  0  0  0  0  0  0
   -0.2315    2.4596    0.0000 C   0  0  0  0  0  0  0  0  0  0  0  0
    0.4095    0.0556    0.0000 C   0  0  0  0  0  0  0  0  0  0  0  0
    0.1959    0.8391    0.0000 C   0  0  0  0  0  0  0  0  0  0  0  0
    1.2109   -0.1760    0.0000 C   0  0  0  0  0  0  0  0  0  0  0  0
    2.2082   -1.1910    0.0000 C   0  0  0  0  0  0  0  0  0  0  0  0
   -0.9438   -0.3184    0.0000 C   0  0  0  0  0  0  0  0  0  0  0  0
    0.5699    2.2281    0.0000 C   0  0  0  0  0  0  0  0  0  0  0  0
   -0.1602   -0.5321    0.0000 C   0  0  0  0  0  0  0  0  0  0  0  0
    2.7958   -0.6033    0.0000 C   0  0  0  0  0  0  0  0  0  0  0  0
   -1.4068    3.0473    0.0000 C   0  0  0  0  0  0  0  0  0  0  0  0
    1.4424   -0.9773    0.0000 C   0  0  0  0  0  0  0  0  0  0  0  0
   -3.0807    1.4268    0.0000 C   0  0  0  0  0  0  0  0  0  0  0  0
    2.6000    0.1980    0.0000 C   0  0  0  0  0  0  0  0  0  0  0  0
    1.7986    0.3939    0.0000 C   0  0  0  0  0  0  0  0  0  0  0  0
   -2.6000    0.1624    0.0000 C   0  0  0  0  0  0  0  0  0  0  0  0
   -3.5972    2.0500    0.0000 C   0  0  0  0  0  0  0  0  0  0  0  0
   -3.2944    0.6254    0.0000 C   0  0  0  0  0  0  0  0  0  0  0  0
    0.7835    1.4445    0.0000 C   0  0  0  0  0  0  0  0  0  0  0  0
    1.1575    2.7980    0.0000 C   0  0  0  0  0  0  0  0  0  0  0  0
    3.6149   -0.8170    0.0000 C   0  0  0  0  0  0  0  0  0  0  0  0
   -1.9945    3.6349    0.0000 C   0  0  0  0  0  0  0  0  0  0  0  0
    1.6027    1.2309    0.0000 C   0  0  0  0  0  0  0  0  0  0  0  0
    1.9589    2.5665    0.0000 C   0  0  0  0  0  0  0  0  0  0  0  0
    2.1548    1.8007    0.0000 C   0  0  0  0  0  0  0  0  0  0  0  0
    4.0147   -3.6349    0.0000 C   0  0  0  0  0  0  0  0  0  0  0  0
    2.9561    1.5692    0.0000 C   0  0  0  0  0  0  0  0  0  0  0  0
  1  9  2  0  0  0  0
  1 10  2  0  0  0  0
  1 23  1  0  0  0  0
  1 43  1  0  0  0  0
  2 31  1  0  0  0  0
  3 34  1  0  0  0  0
  4 34  1  0  0  0  0
  5 34  1  0  0  0  0
  6 44  1  0  0  0  0
  7 44  1  0  0  0  0
  8 17  1  0  0  0  0
  8 28  1  0  0  0  0
 11 42  1  0  0  0  0
 11 44  1  0  0  0  0
 12 38  1  0  0  0  0
 13 15  1  0  0  0  0
 13 18  1  0  0  0  0
 13 33  1  0  0  0  0
 14 19  1  0  0  0  0
 14 28  2  0  0  0  0
 15 30  2  0  0  0  0
 16 17  1  0  0  0  0
 16 18  1  0  0  0  0
 16 21  2  0  0  0  0
 17 19  2  0  0  0  0
 18 24  2  0  0  0  0
 19 25  1  0  0  0  0
 20 21  1  0  0  0  0
 20 22  1  0  0  0  0
 20 26  2  0  0  0  0
 22 29  2  0  0  0  0
 22 32  1  0  0  0  0
 23 27  2  0  0  0  0
 23 29  1  0  0  0  0
 24 26  1  0  0  0  0
 25 36  2  0  0  0  0
 25 37  1  0  0  0  0
 27 31  1  0  0  0  0
 27 38  1  0  0  0  0
 28 39  1  0  0  0  0
 30 34  1  0  0  0  0
 30 35  1  0  0  0  0
 31 32  2  0  0  0  0
 33 35  2  0  0  0  0
 36 40  1  0  0  0  0
 37 41  2  0  0  0  0
 40 42  2  0  0  0  0
 41 42  1  0  0  0  0
M  END
> <PUBCHEM_COMPOUND_ID_TYPE>
0

> <PUBCHEM_TOTAL_CHARGE>
0

> <PUBCHEM_SUBSTANCE_ID>
310948232

> <PUBCHEM_SUBSTANCE_VERSION>
1

> <PUBCHEM_EXT_DATASOURCE_NAME>
4488

> <PUBCHEM_EXT_DATASOURCE_REGID>
SCHEMBL16126409

> <PUBCHEM_SUBSTANCE_COMMENT>
InChI=1S/C29H21F6N3O5S/c1-15-36-26(16-3-6-19(7-4-16)43-28(31)32)27(42-15)20-11-17(5-8-23(20)38-10-9-25(37-38)29(33,34)35)18-12-22(30)21(14-39)24(13-18)44(2,40)41/h3-13,28,39H,14H2,1-2H3
InChIKey=BBCUESQZIOXKTD-UHFFFAOYSA-N

> <PUBCHEM_SUBSTANCE_SYNONYM>
SCHEMBL16126409

> <PUBCHEM_XREF_EXT_ID>
SCHEMBL16126409

> <PUBCHEM_EXT_DATASOURCE_URL>
https://www.surechembl.org/

> <PUBCHEM_EXT_SUBSTANCE_URL>
https://www.surechembl.org/chemical/SCHEMBL16126409

> <PUBCHEM_CID_ASSOCIATIONS>
117613812  1

> <PUBCHEM_COORDINATE_TYPE>
1
3

$$$$
