310939503
  -OEChem-07211613022D

 25 30  0     1  0  0  0  0  0999 V2000
    1.9627  -15.8333    0.0000 S   0  0  0  0  0  0  0  0  0  0  0  0
    2.2255  -17.0287    0.0000 O   0  0  0  0  0  0  0  0  0  0  0  0
    1.8162  -15.0533    0.0000 O   0  0  0  0  0  0  0  0  0  0  0  0
   -1.0156  -16.5846    0.0000 O   0  0  0  0  0  0  0  0  0  0  0  0
    1.1659  -15.6197    0.0000 O   0  0  0  0  0  0  0  0  0  0  0  0
    2.7596  -16.0468    0.0000 O   0  0  0  0  0  0  0  0  0  0  0  0
    1.1278  -13.6972    0.0000 O   0  0  0  0  0  0  0  0  0  0  0  0
    0.8259  -17.2992    0.0000 O   0  0  0  0  0  0  0  0  0  0  0  0
    2.8087  -16.0177    0.0000 C   0  0  3  0  0  0  0  0  0  0  0  0
    2.0120  -16.2318    0.0000 C   0  0  3  0  0  0  0  0  0  0  0  0
    3.6055  -16.2318    0.0000 C   0  0  3  0  0  0  0  0  0  0  0  0
    2.4257  -15.5181    0.0000 C   0  0  3  0  0  0  0  0  0  0  0  0
    0.4134  -15.7597    0.0000 C   0  0  3  0  0  0  0  0  0  0  0  0
    0.4134  -14.9347    0.0000 C   0  0  3  0  0  0  0  0  0  0  0  0
    3.2224  -15.3040    0.0000 C   0  0  3  0  0  0  0  0  0  0  0  0
   -0.3011  -16.1722    0.0000 C   0  0  3  0  0  0  0  0  0  0  0  0
   -0.3011  -14.5222    0.0000 C   0  0  3  0  0  0  0  0  0  0  0  0
   -1.0156  -15.7597    0.0000 C   0  0  3  0  0  0  0  0  0  0  0  0
   -1.0156  -14.9347    0.0000 C   0  0  3  0  0  0  0  0  0  0  0  0
    2.8102  -14.5903    0.0000 C   0  0  0  0  0  0  0  0  0  0  0  0
    4.0191  -15.5181    0.0000 C   0  0  0  0  0  0  0  0  0  0  0  0
    1.1278  -14.5222    0.0000 C   0  0  0  0  0  0  0  0  0  0  0  0
   -0.0785  -15.3413    0.0000 C   0  0  0  0  0  0  0  0  0  0  0  0
    0.4134  -16.5846    0.0000 C   0  0  0  0  0  0  0  0  0  0  0  0
   -1.2291  -14.1378    0.0000 C   0  0  0  0  0  0  0  0  0  0  0  0
  1  2  1  0  0  0  0
  1  5  2  0  0  0  0
  1  6  2  0  0  0  0
  1 11  1  0  0  0  0
  2 10  1  0  0  0  0
  3 12  1  0  0  0  0
  3 22  1  0  0  0  0
  4 18  1  0  0  0  0
  4 24  1  0  0  0  0
  7 22  2  0  0  0  0
  8 24  2  0  0  0  0
  9 10  1  0  0  0  0
  9 11  1  0  0  0  0
  9 20  1  0  0  0  0
 10 12  1  0  0  0  0
 11 21  1  0  0  0  0
 12 15  1  0  0  0  0
 13 14  1  0  0  0  0
 13 16  1  0  0  0  0
 13 24  1  0  0  0  0
 14 17  1  0  0  0  0
 14 22  1  0  0  0  0
 15 20  1  0  0  0  0
 15 21  1  0  0  0  0
 16 18  1  0  0  0  0
 16 23  1  0  0  0  0
 17 19  1  0  0  0  0
 17 23  1  0  0  0  0
 18 19  1  0  0  0  0
 19 25  1  0  0  0  0
M  END
> <PUBCHEM_COMPOUND_ID_TYPE>
0

> <PUBCHEM_TOTAL_CHARGE>
0

> <PUBCHEM_SUBSTANCE_ID>
310939503

> <PUBCHEM_SUBSTANCE_VERSION>
1

> <PUBCHEM_EXT_DATASOURCE_NAME>
4488

> <PUBCHEM_EXT_DATASOURCE_REGID>
SCHEMBL16117432

> <PUBCHEM_SUBSTANCE_COMMENT>
InChI=1S/C17H20O7S/c1-5-7-4-9-12(17(19)22-13(5)9)11(7)16(18)23-14-6-2-8-10(3-6)25(20,21)24-15(8)14/h5-15H,2-4H2,1H3
InChIKey=CRYKGOSYLIUDRV-UHFFFAOYSA-N

> <PUBCHEM_SUBSTANCE_SYNONYM>
SCHEMBL16117432

> <PUBCHEM_XREF_EXT_ID>
SCHEMBL16117432

> <PUBCHEM_EXT_DATASOURCE_URL>
https://www.surechembl.org/

> <PUBCHEM_EXT_SUBSTANCE_URL>
https://www.surechembl.org/chemical/SCHEMBL16117432

> <PUBCHEM_CID_ASSOCIATIONS>
117606804  1

> <PUBCHEM_COORDINATE_TYPE>
1
3

$$$$
