310943834
  -OEChem-07211613022D

 20 21  0     1  0  0  0  0  0999 V2000
   -2.8164    2.1019    0.0000 I   0  0  0  0  0  0  0  0  0  0  0  0
   -2.8164    2.1019    0.0000 O   0  0  0  0  0  0  0  0  0  0  0  0
   -1.5122   -1.5469    0.0000 N   0  0  0  0  0  0  0  0  0  0  0  0
   -0.9018   -2.1019    0.0000 N   0  0  0  0  0  0  0  0  0  0  0  0
    0.9851   -0.4093    0.0000 N   0  0  3  0  0  0  0  0  0  0  0  0
    2.8164    0.7700    0.0000 N   0  0  0  0  0  0  0  0  0  0  0  0
   -1.1515   -0.7839    0.0000 C   0  0  0  0  0  0  0  0  0  0  0  0
   -0.3607   -0.8393    0.0000 C   0  0  0  0  0  0  0  0  0  0  0  0
   -1.5817   -0.0347    0.0000 C   0  0  0  0  0  0  0  0  0  0  0  0
   -0.1803   -1.6441    0.0000 C   0  0  0  0  0  0  0  0  0  0  0  0
    0.1803   -0.2151    0.0000 C   0  0  0  0  0  0  0  0  0  0  0  0
   -2.4002   -0.0347    0.0000 C   0  0  0  0  0  0  0  0  0  0  0  0
   -1.1792    0.7007    0.0000 C   0  0  0  0  0  0  0  0  0  0  0  0
   -2.4002    1.4082    0.0000 C   0  0  0  0  0  0  0  0  0  0  0  0
   -2.7886    0.6729    0.0000 C   0  0  0  0  0  0  0  0  0  0  0  0
   -1.5817    1.4082    0.0000 C   0  0  0  0  0  0  0  0  0  0  0  0
    1.4984    0.2705    0.0000 C   0  0  0  0  0  0  0  0  0  0  0  0
    1.2625   -1.2001    0.0000 C   0  0  0  0  0  0  0  0  0  0  0  0
    2.3169    0.1457    0.0000 C   0  0  0  0  0  0  0  0  0  0  0  0
    2.5251    1.5886    0.0000 C   0  0  0  0  0  0  0  0  0  0  0  0
  1  2  1  0  0  0  0
 14  2  1  6  0  0  0
  3  4  1  0  0  0  0
  3  7  2  0  0  0  0
  4 10  1  0  0  0  0
  5 11  1  0  0  0  0
  5 17  1  0  0  0  0
  5 18  1  0  0  0  0
  6 19  1  0  0  0  0
  6 20  1  0  0  0  0
  7  8  1  0  0  0  0
  9  7  1  1  0  0  0
  8 10  2  0  0  0  0
  8 11  1  0  0  0  0
  9 12  1  0  0  0  0
  9 13  1  0  0  0  0
 12 15  1  0  0  0  0
 13 16  1  0  0  0  0
 14 15  1  0  0  0  0
 14 16  1  0  0  0  0
 17 19  1  0  0  0  0
M  END
> <PUBCHEM_COMPOUND_ID_TYPE>
0

> <PUBCHEM_TOTAL_CHARGE>
0

> <PUBCHEM_SUBSTANCE_ID>
310943834

> <PUBCHEM_SUBSTANCE_VERSION>
1

> <PUBCHEM_EXT_DATASOURCE_NAME>
4488

> <PUBCHEM_EXT_DATASOURCE_REGID>
SCHEMBL16121905

> <PUBCHEM_SUBSTANCE_COMMENT>
InChI=1S/C14H25IN4O/c1-16-7-8-19(2)10-12-9-17-18-14(12)11-3-5-13(20-15)6-4-11/h9,11,13,16H,3-8,10H2,1-2H3,(H,17,18)/t11-,13-
InChIKey=ZEFQLOFNCCJLOB-AULYBMBSSA-N

> <PUBCHEM_SUBSTANCE_SYNONYM>
SCHEMBL16121905

> <PUBCHEM_XREF_EXT_ID>
SCHEMBL16121905

> <PUBCHEM_EXT_DATASOURCE_URL>
https://www.surechembl.org/

> <PUBCHEM_EXT_SUBSTANCE_URL>
https://www.surechembl.org/chemical/SCHEMBL16121905

> <PUBCHEM_CID_ASSOCIATIONS>
117610172  1

> <PUBCHEM_COORDINATE_TYPE>
1
3

> <PUBCHEM_BONDANNOTATIONS>
14  2  6
9  7  5

$$$$
