310948883
  -OEChem-07211613022D

 79 83  0     1  0  0  0  0  0999 V2000
    2.6385   -4.5734    0.0000 S   0  0  0  0  0  0  0  0  0  0  0  0
    7.6810    4.5567    0.0000 S   0  0  0  0  0  0  0  0  0  0  0  0
   -1.7506   -0.6199    0.0000 S   0  0  0  0  0  0  0  0  0  0  0  0
    7.3125   -1.0387    0.0000 S   0  0  0  0  0  0  0  0  0  0  0  0
    3.4091   -4.8582    0.0000 O   0  0  0  0  0  0  0  0  0  0  0  0
    2.3872   -5.3440    0.0000 O   0  0  0  0  0  0  0  0  0  0  0  0
    1.8846   -4.3221    0.0000 O   0  0  0  0  0  0  0  0  0  0  0  0
    7.5805    5.3440    0.0000 O   0  0  0  0  0  0  0  0  0  0  0  0
    7.7983    3.7526    0.0000 O   0  0  0  0  0  0  0  0  0  0  0  0
    8.4852    4.6572    0.0000 O   0  0  0  0  0  0  0  0  0  0  0  0
   -6.3240    4.2551    0.0000 O   0  0  0  0  0  0  0  0  0  0  0  0
   -2.0187   -1.3737    0.0000 O   0  0  0  0  0  0  0  0  0  0  0  0
   -1.4491    0.1340    0.0000 O   0  0  0  0  0  0  0  0  0  0  0  0
   -2.5045   -0.3351    0.0000 O   0  0  0  0  0  0  0  0  0  0  0  0
   -4.9001    2.6134    0.0000 O   0  0  0  0  0  0  0  0  0  0  0  0
    6.9271   -0.3518    0.0000 O   0  0  0  0  0  0  0  0  0  0  0  0
    7.7145   -1.7590    0.0000 O   0  0  0  0  0  0  0  0  0  0  0  0
    8.0328   -0.6533    0.0000 O   0  0  0  0  0  0  0  0  0  0  0  0
   -4.8331    4.2049    0.0000 O   0  0  0  0  0  0  0  0  0  0  0  0
   -6.3240    1.7758    0.0000 O   0  0  0  0  0  0  0  0  0  0  0  0
   -7.7648    2.6134    0.0000 O   0  0  0  0  0  0  0  0  0  0  0  0
   -8.4852    3.8531    0.0000 O   0  0  0  0  0  0  0  0  0  0  0  0
   -4.9001    2.6134    0.0000 O   0  0  0  0  0  0  0  0  0  0  0  0
    0.1759    2.9485    0.0000 O   0  0  0  0  0  0  0  0  0  0  0  0
   -2.6888    3.7861    0.0000 O   0  0  0  0  0  0  0  0  0  0  0  0
    3.5934   -1.4575    0.0000 N   0  3  0  0  0  0  0  0  0  0  0  0
    4.4813    3.7693    0.0000 N   0  0  0  0  0  0  0  0  0  0  0  0
   -4.9001    2.6134    0.0000 N   0  0  0  0  0  0  0  0  0  0  0  0
   -0.5444    4.1881    0.0000 N   0  0  0  0  0  0  0  0  0  0  0  0
    2.3705   -1.6250    0.0000 C   0  0  3  0  0  0  0  0  0  0  0  0
    2.7390   -2.3454    0.0000 C   0  0  0  0  0  0  0  0  0  0  0  0
    2.9568   -1.0554    0.0000 C   0  0  0  0  0  0  0  0  0  0  0  0
    3.5599   -2.2448    0.0000 C   0  0  0  0  0  0  0  0  0  0  0  0
    5.3692    2.7809    0.0000 C   0  0  0  0  0  0  0  0  0  0  0  0
    5.7880    3.5013    0.0000 C   0  0  0  0  0  0  0  0  0  0  0  0
    4.5483    2.9652    0.0000 C   0  0  0  0  0  0  0  0  0  0  0  0
    5.2351    4.1044    0.0000 C   0  0  0  0  0  0  0  0  0  0  0  0
    2.4543   -3.1328    0.0000 C   0  0  0  0  0  0  0  0  0  0  0  0
    1.7339   -1.0889    0.0000 C   0  0  0  0  0  0  0  0  0  0  0  0
    2.9401   -3.7693    0.0000 C   0  0  0  0  0  0  0  0  0  0  0  0
    4.0624   -2.9149    0.0000 C   0  0  0  0  0  0  0  0  0  0  0  0
    2.8731   -0.2178    0.0000 C   0  0  0  0  0  0  0  0  0  0  0  0
    1.5831   -1.9098    0.0000 C   0  0  0  0  0  0  0  0  0  0  0  0
    4.4143   -1.0387    0.0000 C   0  0  0  0  0  0  0  0  0  0  0  0
    6.5921    3.6520    0.0000 C   0  0  0  0  0  0  0  0  0  0  0  0
    3.7609   -3.6520    0.0000 C   0  0  0  0  0  0  0  0  0  0  0  0
    6.8602    4.4394    0.0000 C   0  0  0  0  0  0  0  0  0  0  0  0
    5.5199    4.8918    0.0000 C   0  0  0  0  0  0  0  0  0  0  0  0
    3.9452    2.4291    0.0000 C   0  0  0  0  0  0  0  0  0  0  0  0
    3.7609    4.2049    0.0000 C   0  0  0  0  0  0  0  0  0  0  0  0
    6.0393    2.2784    0.0000 C   0  0  0  0  0  0  0  0  0  0  0  0
    5.2854    1.9433    0.0000 C   0  0  0  0  0  0  0  0  0  0  0  0
    6.3408    5.0258    0.0000 C   0  0  0  0  0  0  0  0  0  0  0  0
    0.9632   -1.3737    0.0000 C   0  0  0  0  0  0  0  0  0  0  0  0
    3.5096    0.2681    0.0000 C   0  0  0  0  0  0  0  0  0  0  0  0
    5.1514   -1.4407    0.0000 C   0  0  0  0  0  0  0  0  0  0  0  0
    4.0458    1.6083    0.0000 C   0  0  0  0  0  0  0  0  0  0  0  0
    3.4091    1.1057    0.0000 C   0  0  0  0  0  0  0  0  0  0  0  0
    3.0741    3.8029    0.0000 C   0  0  0  0  0  0  0  0  0  0  0  0
    0.3267   -0.8376    0.0000 C   0  0  0  0  0  0  0  0  0  0  0  0
    5.8550   -1.0387    0.0000 C   0  0  0  0  0  0  0  0  0  0  0  0
    2.3202    4.2049    0.0000 C   0  0  0  0  0  0  0  0  0  0  0  0
   -0.4440   -1.1225    0.0000 C   0  0  0  0  0  0  0  0  0  0  0  0
    6.5921   -1.4407    0.0000 C   0  0  0  0  0  0  0  0  0  0  0  0
    1.5999    3.8029    0.0000 C   0  0  0  0  0  0  0  0  0  0  0  0
   -5.6205    3.0322    0.0000 C   0  0  3  0  0  0  0  0  0  0  0  0
   -6.3240    2.6302    0.0000 C   0  0  3  0  0  0  0  0  0  0  0  0
   -5.6205    3.8531    0.0000 C   0  0  3  0  0  0  0  0  0  0  0  0
   -7.0444    3.0322    0.0000 C   0  0  3  0  0  0  0  0  0  0  0  0
   -7.0444    3.8698    0.0000 C   0  0  3  0  0  0  0  0  0  0  0  0
    0.8795    4.2049    0.0000 C   0  0  0  0  0  0  0  0  0  0  0  0
   -7.7815    4.2719    0.0000 C   0  0  0  0  0  0  0  0  0  0  0  0
   -4.9001    2.6134    0.0000 C   0  0  0  0  0  0  0  0  0  0  0  0
    0.1759    3.8195    0.0000 C   0  0  0  0  0  0  0  0  0  0  0  0
   -4.0960    3.8029    0.0000 C   0  0  0  0  0  0  0  0  0  0  0  0
   -3.4259    4.2049    0.0000 C   0  0  0  0  0  0  0  0  0  0  0  0
   -1.2313    3.8029    0.0000 C   0  0  0  0  0  0  0  0  0  0  0  0
   -2.5875    0.2286    0.0000 C   0  0  0  0  0  0  0  0  0  0  0  0
   -1.9852    4.2049    0.0000 C   0  0  0  0  0  0  0  0  0  0  0  0
  1  5  2  0  0  0  0
  1  6  2  0  0  0  0
  1  7  1  0  0  0  0
  1 40  1  0  0  0  0
  2  8  2  0  0  0  0
  2  9  2  0  0  0  0
  2 10  1  0  0  0  0
  2 47  1  0  0  0  0
  3 12  2  0  0  0  0
  3 13  2  0  0  0  0
  3 14  1  0  0  0  0
  3 63  1  0  0  0  0
  4 16  2  0  0  0  0
  4 17  2  0  0  0  0
  4 18  1  0  0  0  0
  4 64  1  0  0  0  0
 11 68  1  0  0  0  0
 11 70  1  0  0  0  0
 66 15  1  1  0  0  0
 15 73  1  0  0  0  0
 68 19  1  6  0  0  0
 19 75  1  0  0  0  0
 67 20  1  1  0  0  0
 69 21  1  6  0  0  0
 22 72  1  0  0  0  0
 23 73  2  0  0  0  0
 24 74  2  0  0  0  0
 25 76  1  0  0  0  0
 25 79  1  0  0  0  0
 26 32  2  0  0  0  0
 26 33  1  0  0  0  0
 26 44  1  0  0  0  0
 27 36  1  0  0  0  0
 27 37  1  0  0  0  0
 27 50  1  0  0  0  0
 28 73  1  0  0  0  0
 28 78  1  0  0  0  0
 29 74  1  0  0  0  0
 29 77  1  0  0  0  0
 30 31  1  0  0  0  0
 30 32  1  0  0  0  0
 30 39  1  0  0  0  0
 30 43  1  0  0  0  0
 31 33  1  0  0  0  0
 31 38  2  0  0  0  0
 32 42  1  0  0  0  0
 33 41  2  0  0  0  0
 34 35  1  0  0  0  0
 34 36  1  0  0  0  0
 34 51  1  0  0  0  0
 34 52  1  0  0  0  0
 35 37  2  0  0  0  0
 35 45  1  0  0  0  0
 36 49  2  0  0  0  0
 37 48  1  0  0  0  0
 38 40  1  0  0  0  0
 39 54  1  0  0  0  0
 40 46  2  0  0  0  0
 41 46  1  0  0  0  0
 42 55  2  0  0  0  0
 44 56  1  0  0  0  0
 45 47  2  0  0  0  0
 47 53  1  0  0  0  0
 48 53  2  0  0  0  0
 49 57  1  0  0  0  0
 50 59  1  0  0  0  0
 54 60  1  0  0  0  0
 55 58  1  0  0  0  0
 56 61  1  0  0  0  0
 57 58  2  0  0  0  0
 59 62  1  0  0  0  0
 60 63  1  0  0  0  0
 61 64  1  0  0  0  0
 62 65  1  0  0  0  0
 65 71  1  0  0  0  0
 66 67  1  0  0  0  0
 66 68  1  0  0  0  0
 67 69  1  0  0  0  0
 69 70  1  0  0  0  0
 70 72  1  1  0  0  0
 71 74  1  0  0  0  0
 75 76  1  0  0  0  0
 77 79  1  0  0  0  0
M  CHG  1  26   1
M  END
> <PUBCHEM_COMPOUND_ID_TYPE>
0

> <PUBCHEM_TOTAL_CHARGE>
1

> <PUBCHEM_SUBSTANCE_ID>
310948883

> <PUBCHEM_SUBSTANCE_VERSION>
1

> <PUBCHEM_EXT_DATASOURCE_NAME>
4488

> <PUBCHEM_EXT_DATASOURCE_REGID>
SCHEMBL16127068

> <PUBCHEM_SUBSTANCE_COMMENT>
InChI=1S/C50H72N4O21S4/c1-49(2)36-31-34(78(66,67)68)18-20-38(36)53(24-11-6-9-17-43(56)52-23-26-72-27-28-73-47-46(75-48(59)51-4)45(58)44(57)40(33-55)74-47)41(49)15-7-5-8-16-42-50(3,22-10-13-29-76(60,61)62)37-32-35(79(69,70)71)19-21-39(37)54(42)25-12-14-30-77(63,64)65/h5,7-8,15-16,18-21,31-32,40,44-47,55,57-58H,6,9-14,17,22-30,33H2,1-4H3,(H5-,51,52,56,59,60,61,62,63,64,65,66,67,68,69,70,71)/p+1/t40-,44-,45+,46+,47+,50?/m1/s1
InChIKey=WXYCLFIRLZHTEC-GPSPUFJPSA-O

> <PUBCHEM_SUBSTANCE_SYNONYM>
SCHEMBL16127068

> <PUBCHEM_XREF_EXT_ID>
SCHEMBL16127068

> <PUBCHEM_EXT_DATASOURCE_URL>
https://www.surechembl.org/

> <PUBCHEM_EXT_SUBSTANCE_URL>
https://www.surechembl.org/chemical/SCHEMBL16127068

> <PUBCHEM_CID_ASSOCIATIONS>
117614413  1

> <PUBCHEM_COORDINATE_TYPE>
1
3

> <PUBCHEM_BONDANNOTATIONS>
66  15  5
68  19  6
67  20  5
69  21  6
70  72  5

$$$$
