310948491
  -OEChem-07211613022D

 43 47  0     0  0  0  0  0  0999 V2000
    3.1381    0.5479    0.0000 S   0  0  0  0  0  0  0  0  0  0  0  0
    3.4353    3.4642    0.0000 F   0  0  0  0  0  0  0  0  0  0  0  0
    2.2837    3.1298    0.0000 F   0  0  0  0  0  0  0  0  0  0  0  0
    3.7139    2.2940    0.0000 F   0  0  0  0  0  0  0  0  0  0  0  0
   -1.8214    0.6409    0.0000 O   0  0  0  0  0  0  0  0  0  0  0  0
    2.5809    1.9968    0.0000 O   0  0  0  0  0  0  0  0  0  0  0  0
    3.1381    0.5479    0.0000 O   0  0  0  0  0  0  0  0  0  0  0  0
    3.1381    0.5479    0.0000 O   0  0  0  0  0  0  0  0  0  0  0  0
   -1.8214   -0.8824    0.0000 N   0  0  0  0  0  0  0  0  0  0  0  0
   -1.2641    1.8668    0.0000 N   0  0  0  0  0  0  0  0  0  0  0  0
   -2.3042   -1.5509    0.0000 N   0  0  0  0  0  0  0  0  0  0  0  0
   -3.6045   -3.4642    0.0000 N   0  0  0  0  0  0  0  0  0  0  0  0
   -0.5768   -0.1579    0.0000 C   0  0  0  0  0  0  0  0  0  0  0  0
   -1.0041    0.5665    0.0000 C   0  0  0  0  0  0  0  0  0  0  0  0
   -0.9855   -0.8638    0.0000 C   0  0  0  0  0  0  0  0  0  0  0  0
   -0.6326    1.3281    0.0000 C   0  0  0  0  0  0  0  0  0  0  0  0
    0.2590   -0.1764    0.0000 C   0  0  0  0  0  0  0  0  0  0  0  0
    0.6677   -0.8638    0.0000 C   0  0  0  0  0  0  0  0  0  0  0  0
    0.1662    1.4952    0.0000 C   0  0  0  0  0  0  0  0  0  0  0  0
   -0.5582   -1.5881    0.0000 C   0  0  0  0  0  0  0  0  0  0  0  0
   -1.9700    1.4395    0.0000 C   0  0  0  0  0  0  0  0  0  0  0  0
   -3.1030   -1.2910    0.0000 C   0  0  0  0  0  0  0  0  0  0  0  0
    1.4849   -0.8824    0.0000 C   0  0  0  0  0  0  0  0  0  0  0  0
    0.2590   -1.5881    0.0000 C   0  0  0  0  0  0  0  0  0  0  0  0
   -2.2857   -0.2136    0.0000 C   0  0  0  0  0  0  0  0  0  0  0  0
   -3.7531   -1.7553    0.0000 C   0  0  0  0  0  0  0  0  0  0  0  0
   -3.0658   -0.4551    0.0000 C   0  0  0  0  0  0  0  0  0  0  0  0
    0.4262    2.2754    0.0000 C   0  0  0  0  0  0  0  0  0  0  0  0
    0.7048    0.8824    0.0000 C   0  0  0  0  0  0  0  0  0  0  0  0
    1.9122   -0.1764    0.0000 C   0  0  0  0  0  0  0  0  0  0  0  0
    2.7108   -0.1579    0.0000 C   0  0  0  0  0  0  0  0  0  0  0  0
    1.9122   -1.5881    0.0000 C   0  0  0  0  0  0  0  0  0  0  0  0
    1.7635    1.8482    0.0000 C   0  0  0  0  0  0  0  0  0  0  0  0
    1.2249    2.4426    0.0000 C   0  0  0  0  0  0  0  0  0  0  0  0
    1.5035    1.0495    0.0000 C   0  0  0  0  0  0  0  0  0  0  0  0
   -3.1216    1.7924    0.0000 C   0  0  0  0  0  0  0  0  0  0  0  0
   -3.6788   -2.6283    0.0000 C   0  0  0  0  0  0  0  0  0  0  0  0
    3.1195   -0.8638    0.0000 C   0  0  0  0  0  0  0  0  0  0  0  0
    2.7480   -1.5881    0.0000 C   0  0  0  0  0  0  0  0  0  0  0  0
   -4.2361   -0.9566    0.0000 C   0  0  0  0  0  0  0  0  0  0  0  0
   -4.9047   -1.4581    0.0000 C   0  0  0  0  0  0  0  0  0  0  0  0
    3.0080    2.7211    0.0000 C   0  0  0  0  0  0  0  0  0  0  0  0
    4.9047   -1.2739    0.0000 C   0  0  0  0  0  0  0  0  0  0  0  0
  1  7  2  0  0  0  0
  1  8  2  0  0  0  0
  1 31  1  0  0  0  0
  1 43  1  0  0  0  0
  2 42  1  0  0  0  0
  3 42  1  0  0  0  0
  4 42  1  0  0  0  0
  5 14  1  0  0  0  0
  5 21  1  0  0  0  0
  6 33  1  0  0  0  0
  6 42  1  0  0  0  0
  9 11  1  0  0  0  0
  9 15  1  0  0  0  0
  9 25  1  0  0  0  0
 10 16  1  0  0  0  0
 10 21  2  0  0  0  0
 11 22  2  0  0  0  0
 12 37  3  0  0  0  0
 13 14  1  0  0  0  0
 13 15  1  0  0  0  0
 13 17  2  0  0  0  0
 14 16  2  0  0  0  0
 15 20  2  0  0  0  0
 16 19  1  0  0  0  0
 17 18  1  0  0  0  0
 18 23  1  0  0  0  0
 18 24  2  0  0  0  0
 19 28  2  0  0  0  0
 19 29  1  0  0  0  0
 20 24  1  0  0  0  0
 21 36  1  0  0  0  0
 22 26  1  0  0  0  0
 22 27  1  0  0  0  0
 23 30  2  0  0  0  0
 23 32  1  0  0  0  0
 25 27  2  0  0  0  0
 26 37  1  0  0  0  0
 26 40  1  0  0  0  0
 26 41  1  0  0  0  0
 28 34  1  0  0  0  0
 29 35  2  0  0  0  0
 30 31  1  0  0  0  0
 31 38  2  0  0  0  0
 32 39  2  0  0  0  0
 33 34  2  0  0  0  0
 33 35  1  0  0  0  0
 38 39  1  0  0  0  0
M  END
> <PUBCHEM_COMPOUND_ID_TYPE>
0

> <PUBCHEM_TOTAL_CHARGE>
0

> <PUBCHEM_SUBSTANCE_ID>
310948491

> <PUBCHEM_SUBSTANCE_VERSION>
1

> <PUBCHEM_EXT_DATASOURCE_NAME>
4488

> <PUBCHEM_EXT_DATASOURCE_REGID>
SCHEMBL16126673

> <PUBCHEM_SUBSTANCE_COMMENT>
InChI=1S/C31H25F3N4O4S/c1-19-36-28(20-8-11-23(12-9-20)42-31(32,33)34)29(41-19)25-17-22(21-6-5-7-24(16-21)43(4,39)40)10-13-26(25)38-15-14-27(37-38)30(2,3)18-35/h5-17H,1-4H3
InChIKey=SCRNUBKAUOMYRE-UHFFFAOYSA-N

> <PUBCHEM_SUBSTANCE_SYNONYM>
SCHEMBL16126673

> <PUBCHEM_XREF_EXT_ID>
SCHEMBL16126673

> <PUBCHEM_EXT_DATASOURCE_URL>
https://www.surechembl.org/

> <PUBCHEM_EXT_SUBSTANCE_URL>
https://www.surechembl.org/chemical/SCHEMBL16126673

> <PUBCHEM_CID_ASSOCIATIONS>
117614048  1

> <PUBCHEM_COORDINATE_TYPE>
1
3

$$$$
