310939538
  -OEChem-07211613022D

 13 13  0     1  0  0  0  0  0999 V2000
    1.3605   10.5705    0.0000 O   0  0  0  0  0  0  0  0  0  0  0  0
    1.0585    9.4435    0.0000 O   0  0  0  0  0  0  0  0  0  0  0  0
    0.6460   12.6330    0.0000 O   0  0  0  0  0  0  0  0  0  0  0  0
    1.3605   11.3955    0.0000 O   0  0  0  0  0  0  0  0  0  0  0  0
   -0.0684   10.5705    0.0000 C   0  0  3  0  0  0  0  0  0  0  0  0
   -0.0684   11.3955    0.0000 C   0  0  3  0  0  0  0  0  0  0  0  0
    0.6460   10.1580    0.0000 C   0  0  0  0  0  0  0  0  0  0  0  0
    0.6460   11.8080    0.0000 C   0  0  0  0  0  0  0  0  0  0  0  0
   -0.7829   10.1580    0.0000 C   0  0  0  0  0  0  0  0  0  0  0  0
   -0.7829   11.8080    0.0000 C   0  0  0  0  0  0  0  0  0  0  0  0
   -1.4974   10.5705    0.0000 C   0  0  0  0  0  0  0  0  0  0  0  0
   -1.4974   11.3955    0.0000 C   0  0  0  0  0  0  0  0  0  0  0  0
    1.3605   11.3955    0.0000 C   0  0  0  0  0  0  0  0  0  0  0  0
  1  7  1  0  0  0  0
  1 13  1  0  0  0  0
  2  7  2  0  0  0  0
  3  8  2  0  0  0  0
  4  8  1  0  0  0  0
  5  6  1  0  0  0  0
  5  7  1  0  0  0  0
  5  9  1  0  0  0  0
  6  8  1  1  0  0  0
  6 10  1  0  0  0  0
  9 11  1  0  0  0  0
 10 12  1  0  0  0  0
 11 12  1  0  0  0  0
M  END
> <PUBCHEM_COMPOUND_ID_TYPE>
0

> <PUBCHEM_TOTAL_CHARGE>
0

> <PUBCHEM_SUBSTANCE_ID>
310939538

> <PUBCHEM_SUBSTANCE_VERSION>
1

> <PUBCHEM_EXT_DATASOURCE_NAME>
4488

> <PUBCHEM_EXT_DATASOURCE_REGID>
SCHEMBL16117467

> <PUBCHEM_SUBSTANCE_COMMENT>
InChI=1S/C9H14O4/c1-13-9(12)7-5-3-2-4-6(7)8(10)11/h6-7H,2-5H2,1H3,(H,10,11)/t6-,7?/m1/s1
InChIKey=BOVPVRGRPPYECC-ULUSZKPHSA-N

> <PUBCHEM_SUBSTANCE_SYNONYM>
SCHEMBL16117467

> <PUBCHEM_XREF_EXT_ID>
SCHEMBL16117467

> <PUBCHEM_EXT_DATASOURCE_URL>
https://www.surechembl.org/

> <PUBCHEM_EXT_SUBSTANCE_URL>
https://www.surechembl.org/chemical/SCHEMBL16117467

> <PUBCHEM_CID_ASSOCIATIONS>
117606835  1

> <PUBCHEM_COORDINATE_TYPE>
1
3

> <PUBCHEM_BONDANNOTATIONS>
6  8  5

$$$$
