310940145
  -OEChem-07211613022D

 45 49  0     0  0  0  0  0  0999 V2000
    2.4062   -4.0069    0.0000 S   0  0  0  0  0  0  0  0  0  0  0  0
   -1.8753    4.6965    0.0000 F   0  0  0  0  0  0  0  0  0  0  0  0
   -1.0857    5.4861    0.0000 F   0  0  0  0  0  0  0  0  0  0  0  0
   -0.2961    4.6965    0.0000 F   0  0  0  0  0  0  0  0  0  0  0  0
   -2.5246   -5.0773    0.0000 O   0  0  0  0  0  0  0  0  0  0  0  0
   -2.5246    1.3626    0.0000 O   0  0  0  0  0  0  0  0  0  0  0  0
    2.4062   -4.0069    0.0000 O   0  0  0  0  0  0  0  0  0  0  0  0
    2.4062   -4.0069    0.0000 O   0  0  0  0  0  0  0  0  0  0  0  0
   -1.8051   -2.3926    0.0000 N   0  0  0  0  0  0  0  0  0  0  0  0
   -1.1208   -2.8838    0.0000 N   0  0  0  0  0  0  0  0  0  0  0  0
   -0.8927   -4.3402    0.0000 N   0  0  0  0  0  0  0  0  0  0  0  0
   -3.5774   -4.1122    0.0000 N   0  0  0  0  0  0  0  0  0  0  0  0
   -1.8051    0.1167    0.0000 N   0  0  0  0  0  0  0  0  0  0  0  0
    2.4062   -4.0069    0.0000 N   0  0  0  0  0  0  0  0  0  0  0  0
    0.3532   -1.2169    0.0000 N   0  0  0  0  0  0  0  0  0  0  0  0
   -1.7876   -1.5502    0.0000 C   0  0  0  0  0  0  0  0  0  0  0  0
   -2.4719   -2.8838    0.0000 C   0  0  0  0  0  0  0  0  0  0  0  0
   -2.2263   -3.6383    0.0000 C   0  0  0  0  0  0  0  0  0  0  0  0
   -1.3840   -3.6734    0.0000 C   0  0  0  0  0  0  0  0  0  0  0  0
   -2.7878   -4.2701    0.0000 C   0  0  0  0  0  0  0  0  0  0  0  0
   -2.5246   -1.1292    0.0000 C   0  0  0  0  0  0  0  0  0  0  0  0
   -1.0857   -1.1292    0.0000 C   0  0  0  0  0  0  0  0  0  0  0  0
   -3.2792   -2.7084    0.0000 C   0  0  0  0  0  0  0  0  0  0  0  0
   -1.0506   -1.9539    0.0000 C   0  0  0  0  0  0  0  0  0  0  0  0
   -2.5070   -0.2869    0.0000 C   0  0  0  0  0  0  0  0  0  0  0  0
   -1.0682   -0.3044    0.0000 C   0  0  0  0  0  0  0  0  0  0  0  0
   -3.8406   -3.3401    0.0000 C   0  0  0  0  0  0  0  0  0  0  0  0
   -0.0680   -4.2350    0.0000 C   0  0  0  0  0  0  0  0  0  0  0  0
   -1.7876    0.9414    0.0000 C   0  0  0  0  0  0  0  0  0  0  0  0
   -0.3663   -1.5677    0.0000 C   0  0  0  0  0  0  0  0  0  0  0  0
    1.5639   -4.0771    0.0000 C   0  0  0  0  0  0  0  0  0  0  0  0
    0.4234   -4.9193    0.0000 C   0  0  0  0  0  0  0  0  0  0  0  0
    0.2654   -3.4980    0.0000 C   0  0  0  0  0  0  0  0  0  0  0  0
    1.2306   -4.8316    0.0000 C   0  0  0  0  0  0  0  0  0  0  0  0
    1.0901   -3.4102    0.0000 C   0  0  0  0  0  0  0  0  0  0  0  0
   -1.1032    1.3626    0.0000 C   0  0  0  0  0  0  0  0  0  0  0  0
   -1.0857    2.2048    0.0000 C   0  0  0  0  0  0  0  0  0  0  0  0
   -1.0857    3.8718    0.0000 C   0  0  0  0  0  0  0  0  0  0  0  0
   -0.3663    2.6259    0.0000 C   0  0  0  0  0  0  0  0  0  0  0  0
   -1.7876    2.6259    0.0000 C   0  0  0  0  0  0  0  0  0  0  0  0
   -1.0857    4.6965    0.0000 C   0  0  0  0  0  0  0  0  0  0  0  0
   -0.3663    3.4331    0.0000 C   0  0  0  0  0  0  0  0  0  0  0  0
   -1.7876    3.4506    0.0000 C   0  0  0  0  0  0  0  0  0  0  0  0
    3.8406   -5.4861    0.0000 C   0  0  0  0  0  0  0  0  0  0  0  0
    3.8406   -5.4861    0.0000 C   0  0  0  0  0  0  0  0  0  0  0  0
  1  7  2  0  0  0  0
  1  8  2  0  0  0  0
  1 14  1  0  0  0  0
  1 31  1  0  0  0  0
  2 41  1  0  0  0  0
  3 41  1  0  0  0  0
  4 41  1  0  0  0  0
  5 20  2  0  0  0  0
  6 29  2  0  0  0  0
  9 10  1  0  0  0  0
  9 16  1  0  0  0  0
  9 17  1  0  0  0  0
 10 19  2  0  0  0  0
 11 19  1  0  0  0  0
 11 28  1  0  0  0  0
 12 20  1  0  0  0  0
 12 27  1  0  0  0  0
 13 25  1  0  0  0  0
 13 26  1  0  0  0  0
 13 29  1  0  0  0  0
 14 44  1  0  0  0  0
 14 45  1  0  0  0  0
 15 30  3  0  0  0  0
 16 21  1  0  0  0  0
 16 22  1  0  0  0  0
 16 24  1  0  0  0  0
 17 18  2  0  0  0  0
 17 23  1  0  0  0  0
 18 19  1  0  0  0  0
 18 20  1  0  0  0  0
 21 25  1  0  0  0  0
 22 26  1  0  0  0  0
 23 27  2  0  0  0  0
 24 30  1  0  0  0  0
 28 32  2  0  0  0  0
 28 33  1  0  0  0  0
 29 36  1  0  0  0  0
 31 34  2  0  0  0  0
 31 35  1  0  0  0  0
 32 34  1  0  0  0  0
 33 35  2  0  0  0  0
 36 37  1  0  0  0  0
 37 39  2  0  0  0  0
 37 40  1  0  0  0  0
 38 41  1  0  0  0  0
 38 42  2  0  0  0  0
 38 43  1  0  0  0  0
 39 42  1  0  0  0  0
 40 43  2  0  0  0  0
M  END
> <PUBCHEM_COMPOUND_ID_TYPE>
0

> <PUBCHEM_TOTAL_CHARGE>
0

> <PUBCHEM_SUBSTANCE_ID>
310940145

> <PUBCHEM_SUBSTANCE_VERSION>
1

> <PUBCHEM_EXT_DATASOURCE_NAME>
4488

> <PUBCHEM_EXT_DATASOURCE_REGID>
SCHEMBL16118078

> <PUBCHEM_SUBSTANCE_COMMENT>
InChI=1S/C30H30F3N7O4S/c1-38(2)45(43,44)23-9-7-22(8-10-23)36-27-26-24(11-16-35-28(26)42)40(37-27)29(12-15-34)13-17-39(18-14-29)25(41)19-20-3-5-21(6-4-20)30(31,32)33/h3-11,16H,12-14,17-19H2,1-2H3,(H,35,42)(H,36,37)
InChIKey=SHSPNKQTOGFDMI-UHFFFAOYSA-N

> <PUBCHEM_SUBSTANCE_SYNONYM>
SCHEMBL16118078

> <PUBCHEM_XREF_EXT_ID>
SCHEMBL16118078

> <PUBCHEM_EXT_DATASOURCE_URL>
https://www.surechembl.org/

> <PUBCHEM_EXT_SUBSTANCE_URL>
https://www.surechembl.org/chemical/SCHEMBL16118078

> <PUBCHEM_CID_ASSOCIATIONS>
117607269  1

> <PUBCHEM_COORDINATE_TYPE>
1
3

$$$$
