310936535
  -OEChem-07211613022D

 70 77  0     1  0  0  0  0  0999 V2000
    1.3922   -2.8360    0.0000 Cl  0  0  0  0  0  0  0  0  0  0  0  0
    3.1969   -7.9923    0.0000 O   0  0  0  0  0  0  0  0  0  0  0  0
    4.4860   -8.1470    0.0000 O   0  0  0  0  0  0  0  0  0  0  0  0
    4.1766   -6.0844    0.0000 O   0  0  0  0  0  0  0  0  0  0  0  0
    2.7844   -5.2594    0.0000 O   0  0  0  0  0  0  0  0  0  0  0  0
    2.1141   -7.2704    0.0000 O   0  0  0  0  0  0  0  0  0  0  0  0
    2.3203   -8.0438    0.0000 O   0  0  0  0  0  0  0  0  0  0  0  0
    0.7219   -6.4454    0.0000 O   0  0  0  0  0  0  0  0  0  0  0  0
    3.6610   -4.1766    0.0000 O   0  0  0  0  0  0  0  0  0  0  0  0
    2.7844   -0.4125    0.0000 O   0  0  0  0  0  0  0  0  0  0  0  0
    3.5063   -7.2704    0.0000 C   0  0  3  0  0  0  0  0  0  0  0  0
    3.5063   -6.4454    0.0000 C   0  0  3  0  0  0  0  0  0  0  0  0
    3.7641   -8.5594    0.0000 C   0  0  0  0  0  0  0  0  0  0  0  0
    2.7844   -6.0844    0.0000 C   0  0  3  0  0  0  0  0  0  0  0  0
    4.3313   -7.3220    0.0000 C   0  0  0  0  0  0  0  0  0  0  0  0
    2.1141   -6.4454    0.0000 C   0  0  3  0  0  0  0  0  0  0  0  0
    2.6813   -7.3220    0.0000 C   0  0  0  0  0  0  0  0  0  0  0  0
    1.3922   -6.0844    0.0000 C   0  0  0  0  0  0  0  0  0  0  0  0
    1.3922   -5.2594    0.0000 C   0  0  0  0  0  0  0  0  0  0  0  0
    3.7125   -9.3329    0.0000 C   0  0  0  0  0  0  0  0  0  0  0  0
    4.4860   -8.9720    0.0000 C   0  0  0  0  0  0  0  0  0  0  0  0
    2.1141   -4.0219    0.0000 C   0  0  0  0  0  0  0  0  0  0  0  0
    4.8985   -6.4454    0.0000 C   0  0  0  0  0  0  0  0  0  0  0  0
    2.1141   -4.8469    0.0000 C   0  0  0  0  0  0  0  0  0  0  0  0
    0.7219   -4.8469    0.0000 C   0  0  0  0  0  0  0  0  0  0  0  0
    3.5063   -4.8469    0.0000 C   0  0  0  0  0  0  0  0  0  0  0  0
    2.9391   -3.8157    0.0000 C   0  0  3  0  0  0  0  0  0  0  0  0
    1.3922   -3.6610    0.0000 C   0  0  0  0  0  0  0  0  0  0  0  0
    5.6204   -6.0844    0.0000 C   0  0  0  0  0  0  0  0  0  0  0  0
    1.3922   -7.6829    0.0000 C   0  0  0  0  0  0  0  0  0  0  0  0
    0.7219   -4.0219    0.0000 C   0  0  0  0  0  0  0  0  0  0  0  0
    1.5469   -8.1470    0.0000 C   0  0  0  0  0  0  0  0  0  0  0  0
    2.9391   -2.9907    0.0000 C   0  0  0  0  0  0  0  0  0  0  0  0
    3.5063   -4.0219    0.0000 C   0  0  0  0  0  0  0  0  0  0  0  0
    1.3922   -8.5079    0.0000 C   0  0  0  0  0  0  0  0  0  0  0  0
    1.1860   -8.8688    0.0000 C   0  0  0  0  0  0  0  0  0  0  0  0
    6.2907   -6.4454    0.0000 C   0  0  0  0  0  0  0  0  0  0  0  0
    5.6204   -5.2594    0.0000 C   0  0  0  0  0  0  0  0  0  0  0  0
    2.1141   -2.4235    0.0000 C   0  0  0  0  0  0  0  0  0  0  0  0
    3.6610   -2.5781    0.0000 C   0  0  0  0  0  0  0  0  0  0  0  0
    4.1766   -3.6094    0.0000 C   0  0  0  0  0  0  0  0  0  0  0  0
    2.7844   -3.6094    0.0000 C   0  0  0  0  0  0  0  0  0  0  0  0
    3.6610   -5.0016    0.0000 C   0  0  0  0  0  0  0  0  0  0  0  0
    0.7219   -8.9204    0.0000 C   0  0  0  0  0  0  0  0  0  0  0  0
    2.1141   -8.9204    0.0000 C   0  0  0  0  0  0  0  0  0  0  0  0
    2.7844   -1.1860    0.0000 C   0  0  0  0  0  0  0  0  0  0  0  0
    2.1141   -1.5984    0.0000 C   0  0  0  0  0  0  0  0  0  0  0  0
    3.5063   -1.5984    0.0000 C   0  0  0  0  0  0  0  0  0  0  0  0
    0.3610   -8.9204    0.0000 C   0  0  0  0  0  0  0  0  0  0  0  0
    1.6500   -9.5392    0.0000 C   0  0  0  0  0  0  0  0  0  0  0  0
    7.0126   -6.0844    0.0000 C   0  0  0  0  0  0  0  0  0  0  0  0
    6.2907   -4.8469    0.0000 C   0  0  0  0  0  0  0  0  0  0  0  0
    4.1766   -5.2594    0.0000 C   0  0  0  0  0  0  0  0  0  0  0  0
    4.1766   -2.8360    0.0000 C   0  0  0  0  0  0  0  0  0  0  0  0
    2.7844   -2.8360    0.0000 C   0  0  0  0  0  0  0  0  0  0  0  0
    7.0126   -5.2594    0.0000 C   0  0  0  0  0  0  0  0  0  0  0  0
    0.7219   -9.6939    0.0000 C   0  0  0  0  0  0  0  0  0  0  0  0
    2.1141   -9.6939    0.0000 C   0  0  0  0  0  0  0  0  0  0  0  0
    3.5063   -2.4235    0.0000 C   0  0  0  0  0  0  0  0  0  0  0  0
    0.0000   -9.6423    0.0000 C   0  0  0  0  0  0  0  0  0  0  0  0
    1.2891  -10.2611    0.0000 C   0  0  0  0  0  0  0  0  0  0  0  0
    1.3922  -10.1064    0.0000 C   0  0  0  0  0  0  0  0  0  0  0  0
    0.4640  -10.3126    0.0000 C   0  0  0  0  0  0  0  0  0  0  0  0
    4.3313   -6.2391    0.0000 C   0  0  0  0  0  0  0  0  0  0  0  0
    4.8985   -4.8469    0.0000 C   0  0  0  0  0  0  0  0  0  0  0  0
    2.1141    0.0000    0.0000 C   0  0  0  0  0  0  0  0  0  0  0  0
    5.0532   -6.6516    0.0000 C   0  0  0  0  0  0  0  0  0  0  0  0
    5.7751   -5.4141    0.0000 C   0  0  0  0  0  0  0  0  0  0  0  0
    5.7751   -6.2391    0.0000 C   0  0  0  0  0  0  0  0  0  0  0  0
    1.3922   -0.3610    0.0000 C   0  0  0  0  0  0  0  0  0  0  0  0
  1 28  1  0  0  0  0
  2 11  1  0  0  0  0
  2 13  1  0  0  0  0
  3 13  1  0  0  0  0
  3 15  1  0  0  0  0
 12  4  1  6  0  0  0
  4 23  1  0  0  0  0
 14  5  1  1  0  0  0
  5 26  1  0  0  0  0
 16  6  1  1  0  0  0
  6 30  1  0  0  0  0
  7 17  1  0  0  0  0
  7 32  1  0  0  0  0
  8 18  2  0  0  0  0
  9 27  1  0  0  0  0
  9 43  1  0  0  0  0
 10 46  1  0  0  0  0
 10 66  1  0  0  0  0
 11 12  1  0  0  0  0
 11 15  1  0  0  0  0
 11 17  1  0  0  0  0
 12 14  1  0  0  0  0
 13 20  1  0  0  0  0
 13 21  1  0  0  0  0
 14 16  1  0  0  0  0
 16 18  1  0  0  0  0
 18 19  1  0  0  0  0
 19 24  1  0  0  0  0
 19 25  2  0  0  0  0
 22 24  2  0  0  0  0
 22 27  1  0  0  0  0
 22 28  1  0  0  0  0
 23 29  1  0  0  0  0
 25 31  1  0  0  0  0
 26 34  1  0  0  0  0
 27 33  1  0  0  0  0
 28 31  2  0  0  0  0
 29 37  2  0  0  0  0
 29 38  1  0  0  0  0
 30 35  1  0  0  0  0
 32 36  1  0  0  0  0
 33 39  2  0  0  0  0
 33 40  1  0  0  0  0
 34 41  2  0  0  0  0
 34 42  1  0  0  0  0
 35 44  2  0  0  0  0
 35 45  1  0  0  0  0
 36 49  2  0  0  0  0
 36 50  1  0  0  0  0
 37 51  1  0  0  0  0
 38 52  2  0  0  0  0
 39 47  1  0  0  0  0
 40 48  2  0  0  0  0
 41 54  1  0  0  0  0
 42 55  2  0  0  0  0
 43 53  1  0  0  0  0
 44 57  1  0  0  0  0
 45 58  2  0  0  0  0
 46 47  2  0  0  0  0
 46 48  1  0  0  0  0
 49 60  1  0  0  0  0
 50 61  2  0  0  0  0
 51 56  2  0  0  0  0
 52 56  1  0  0  0  0
 53 64  2  0  0  0  0
 53 65  1  0  0  0  0
 54 59  2  0  0  0  0
 55 59  1  0  0  0  0
 57 62  2  0  0  0  0
 58 62  1  0  0  0  0
 60 63  2  0  0  0  0
 61 63  1  0  0  0  0
 64 67  1  0  0  0  0
 65 68  2  0  0  0  0
 66 70  1  0  0  0  0
 67 69  2  0  0  0  0
 68 69  1  0  0  0  0
M  END
> <PUBCHEM_COMPOUND_ID_TYPE>
0

> <PUBCHEM_TOTAL_CHARGE>
0

> <PUBCHEM_SUBSTANCE_ID>
310936535

> <PUBCHEM_SUBSTANCE_VERSION>
1

> <PUBCHEM_EXT_DATASOURCE_NAME>
4488

> <PUBCHEM_EXT_DATASOURCE_REGID>
SCHEMBL16114187

> <PUBCHEM_SUBSTANCE_COMMENT>
InChI=1S/C60H61ClO9/c1-4-64-51-33-30-49(31-34-51)55(65-38-45-22-12-6-13-23-45)52-36-50(32-35-53(52)61)54(62)56(66-39-46-24-14-7-15-25-46)57(67-40-47-26-16-8-17-27-47)58(68-41-48-28-18-9-19-29-48)60(43-69-59(2,3)70-60)42-63-37-44-20-10-5-11-21-44/h5-36,55-58H,4,37-43H2,1-3H3/t55?,56-,57+,58-,60?/m0/s1
InChIKey=GWQIHTSMWVGONB-JNTWSQTPSA-N

> <PUBCHEM_SUBSTANCE_SYNONYM>
SCHEMBL16114187

> <PUBCHEM_XREF_EXT_ID>
SCHEMBL16114187

> <PUBCHEM_EXT_DATASOURCE_URL>
https://www.surechembl.org/

> <PUBCHEM_EXT_SUBSTANCE_URL>
https://www.surechembl.org/chemical/SCHEMBL16114187

> <PUBCHEM_CID_ASSOCIATIONS>
86272565  1

> <PUBCHEM_COORDINATE_TYPE>
1
3

> <PUBCHEM_BONDANNOTATIONS>
12  4  6
14  5  5
16  6  5

$$$$
