310940554
  -OEChem-07211613022D

 11 11  0     0  0  0  0  0  0999 V2000
    0.4290    0.1403    0.0000 S   0  0  0  0  0  0  0  0  0  0  0  0
    0.8414    0.8827    0.0000 O   0  0  0  0  0  0  0  0  0  0  0  0
   -0.1815    0.7507    0.0000 O   0  0  0  0  0  0  0  0  0  0  0  0
   -1.2869    0.9982    0.0000 O   0  0  0  0  0  0  0  0  0  0  0  0
   -0.4290   -0.2887    0.0000 N   0  0  0  0  0  0  0  0  0  0  0  0
   -0.4290   -0.2887    0.0000 N   0  0  0  0  0  0  0  0  0  0  0  0
    1.1879   -0.3052    0.0000 C   0  0  0  0  0  0  0  0  0  0  0  0
    2.0129   -0.3052    0.0000 C   0  0  0  0  0  0  0  0  0  0  0  0
    1.6004   -0.9982    0.0000 C   0  0  0  0  0  0  0  0  0  0  0  0
   -1.3034    0.1403    0.0000 C   0  0  0  0  0  0  0  0  0  0  0  0
   -2.0129   -0.3052    0.0000 C   0  0  0  0  0  0  0  0  0  0  0  0
  1  2  2  0  0  0  0
  1  3  2  0  0  0  0
  1  5  1  0  0  0  0
  1  7  1  0  0  0  0
  4 10  2  0  0  0  0
  5  6  2  3  0  0  0
  6 10  1  0  0  0  0
  7  8  1  0  0  0  0
  7  9  1  0  0  0  0
  8  9  1  0  0  0  0
 10 11  1  0  0  0  0
M  END
> <PUBCHEM_COMPOUND_ID_TYPE>
0

> <PUBCHEM_TOTAL_CHARGE>
0

> <PUBCHEM_SUBSTANCE_ID>
310940554

> <PUBCHEM_SUBSTANCE_VERSION>
1

> <PUBCHEM_EXT_DATASOURCE_NAME>
4488

> <PUBCHEM_EXT_DATASOURCE_REGID>
SCHEMBL16118508

> <PUBCHEM_SUBSTANCE_COMMENT>
InChI=1S/C5H8N2O3S/c1-4(8)6-7-11(9,10)5-2-3-5/h5H,2-3H2,1H3/b7-6-
InChIKey=HVPRMJNDNUXQMN-SREVYHEPSA-N

> <PUBCHEM_SUBSTANCE_SYNONYM>
SCHEMBL16118508

> <PUBCHEM_XREF_EXT_ID>
SCHEMBL16118508

> <PUBCHEM_EXT_DATASOURCE_URL>
https://www.surechembl.org/

> <PUBCHEM_EXT_SUBSTANCE_URL>
https://www.surechembl.org/chemical/SCHEMBL16118508

> <PUBCHEM_CID_ASSOCIATIONS>
117607552  1

> <PUBCHEM_COORDINATE_TYPE>
1
3

$$$$
