310948618
  -OEChem-07211613022D

 31 33  0     0  0  0  0  0  0999 V2000
   -4.5807   -0.3339    0.0000 O   0  0  0  0  0  0  0  0  0  0  0  0
   -3.7386    1.1179    0.0000 O   0  0  0  0  0  0  0  0  0  0  0  0
   -1.2413   -0.3339    0.0000 N   0  0  0  0  0  0  0  0  0  0  0  0
   -3.7386    1.1179    0.0000 N   0  0  0  0  0  0  0  0  0  0  0  0
    2.0835   -0.3339    0.0000 N   0  0  0  0  0  0  0  0  0  0  0  0
   -2.4900   -1.0454    0.0000 C   0  0  0  0  0  0  0  0  0  0  0  0
   -3.3176   -1.0454    0.0000 C   0  0  0  0  0  0  0  0  0  0  0  0
   -2.0980   -0.3194    0.0000 C   0  0  0  0  0  0  0  0  0  0  0  0
   -3.7241   -0.3339    0.0000 C   0  0  0  0  0  0  0  0  0  0  0  0
   -3.3321    0.4065    0.0000 C   0  0  0  0  0  0  0  0  0  0  0  0
   -2.4755    0.3775    0.0000 C   0  0  0  0  0  0  0  0  0  0  0  0
   -3.7386    1.1179    0.0000 C   0  0  0  0  0  0  0  0  0  0  0  0
   -2.0835   -1.7859    0.0000 C   0  0  0  0  0  0  0  0  0  0  0  0
   -3.7241   -1.7568    0.0000 C   0  0  0  0  0  0  0  0  0  0  0  0
   -0.3993   -0.3339    0.0000 C   0  0  0  0  0  0  0  0  0  0  0  0
   -2.4900   -2.4973    0.0000 C   0  0  0  0  0  0  0  0  0  0  0  0
   -3.3176   -2.4973    0.0000 C   0  0  0  0  0  0  0  0  0  0  0  0
    1.2559   -0.3194    0.0000 C   0  0  0  0  0  0  0  0  0  0  0  0
    0.0072   -1.0454    0.0000 C   0  0  0  0  0  0  0  0  0  0  0  0
    0.0072    0.3775    0.0000 C   0  0  0  0  0  0  0  0  0  0  0  0
    0.8494   -1.0454    0.0000 C   0  0  0  0  0  0  0  0  0  0  0  0
    0.8348    0.3775    0.0000 C   0  0  0  0  0  0  0  0  0  0  0  0
    2.5045    0.3920    0.0000 C   0  0  0  0  0  0  0  0  0  0  0  0
    2.5045   -1.0454    0.0000 C   0  0  0  0  0  0  0  0  0  0  0  0
   -3.7386    1.1179    0.0000 C   0  0  0  0  0  0  0  0  0  0  0  0
    3.3466   -1.0454    0.0000 C   0  0  0  0  0  0  0  0  0  0  0  0
    2.1125    1.1179    0.0000 C   0  0  0  0  0  0  0  0  0  0  0  0
    3.7677   -1.7133    0.0000 C   0  0  0  0  0  0  0  0  0  0  0  0
    2.5045    1.7859    0.0000 C   0  0  0  0  0  0  0  0  0  0  0  0
    4.5807   -1.6842    0.0000 C   0  0  0  0  0  0  0  0  0  0  0  0
    2.0980    2.4973    0.0000 C   0  0  0  0  0  0  0  0  0  0  0  0
  1  9  2  0  0  0  0
  2 12  2  0  0  0  0
  3  8  2  3  0  0  0
  3 15  1  0  0  0  0
  4 12  1  0  0  0  0
  4 25  1  0  0  0  0
  5 18  1  0  0  0  0
  5 23  1  0  0  0  0
  5 24  1  0  0  0  0
  6  7  1  0  0  0  0
  6  8  1  0  0  0  0
  6 13  2  0  0  0  0
  7  9  1  0  0  0  0
  7 14  2  0  0  0  0
  8 11  1  0  0  0  0
  9 10  1  0  0  0  0
 10 11  2  0  0  0  0
 10 12  1  0  0  0  0
 13 16  1  0  0  0  0
 14 17  1  0  0  0  0
 15 19  2  0  0  0  0
 15 20  1  0  0  0  0
 16 17  2  0  0  0  0
 18 21  2  0  0  0  0
 18 22  1  0  0  0  0
 19 21  1  0  0  0  0
 20 22  2  0  0  0  0
 23 27  1  0  0  0  0
 24 26  1  0  0  0  0
 26 28  1  0  0  0  0
 27 29  1  0  0  0  0
 28 30  1  0  0  0  0
 29 31  1  0  0  0  0
M  END
> <PUBCHEM_COMPOUND_ID_TYPE>
0

> <PUBCHEM_TOTAL_CHARGE>
0

> <PUBCHEM_SUBSTANCE_ID>
310948618

> <PUBCHEM_SUBSTANCE_VERSION>
1

> <PUBCHEM_EXT_DATASOURCE_NAME>
4488

> <PUBCHEM_EXT_DATASOURCE_REGID>
SCHEMBL16126801

> <PUBCHEM_SUBSTANCE_COMMENT>
InChI=1S/C26H31N3O2/c1-4-6-16-29(17-7-5-2)20-14-12-19(13-15-20)28-24-18-23(26(31)27-3)25(30)22-11-9-8-10-21(22)24/h8-15,18H,4-7,16-17H2,1-3H3,(H,27,31)/b28-24+
InChIKey=NMASUERPEIUHMT-ZZIIXHQDSA-N

> <PUBCHEM_SUBSTANCE_SYNONYM>
SCHEMBL16126801

> <PUBCHEM_XREF_EXT_ID>
SCHEMBL16126801

> <PUBCHEM_EXT_DATASOURCE_URL>
https://www.surechembl.org/

> <PUBCHEM_EXT_SUBSTANCE_URL>
https://www.surechembl.org/chemical/SCHEMBL16126801

> <PUBCHEM_CID_ASSOCIATIONS>
117614162  1

> <PUBCHEM_COORDINATE_TYPE>
1
3

$$$$
