310940897
  -OEChem-07211613022D

 19 19  0     1  0  0  0  0  0999 V2000
   -1.8414    0.7397    0.0000 O   0  0  0  0  0  0  0  0  0  0  0  0
   -1.8606   -0.8908    0.0000 O   0  0  0  0  0  0  0  0  0  0  0  0
   -1.8606   -0.8908    0.0000 O   0  0  0  0  0  0  0  0  0  0  0  0
    1.8031    1.8522    0.0000 O   0  0  0  0  0  0  0  0  0  0  0  0
   -1.0933   -2.1375    0.0000 O   0  0  0  0  0  0  0  0  0  0  0  0
   -0.4029   -0.9099    0.0000 N   0  0  0  0  0  0  0  0  0  0  0  0
   -1.0933    0.3560    0.0000 C   0  0  3  0  0  0  0  0  0  0  0  0
   -1.1125   -0.4688    0.0000 C   0  0  3  0  0  0  0  0  0  0  0  0
   -0.3836    0.7397    0.0000 C   0  0  0  0  0  0  0  0  0  0  0  0
   -1.8606   -0.8908    0.0000 C   0  0  0  0  0  0  0  0  0  0  0  0
    0.3452    0.3177    0.0000 C   0  0  0  0  0  0  0  0  0  0  0  0
   -0.3261    1.5645    0.0000 C   0  0  0  0  0  0  0  0  0  0  0  0
    1.0933    1.5070    0.0000 C   0  0  0  0  0  0  0  0  0  0  0  0
    1.0358    0.6821    0.0000 C   0  0  0  0  0  0  0  0  0  0  0  0
    0.3645    1.9290    0.0000 C   0  0  0  0  0  0  0  0  0  0  0  0
   -0.4029   -1.7155    0.0000 C   0  0  0  0  0  0  0  0  0  0  0  0
    0.2686   -2.0992    0.0000 C   0  0  0  0  0  0  0  0  0  0  0  0
   -0.1657   -2.6387    0.0000 C   0  0  0  0  0  0  0  0  0  0  0  0
    1.8606    2.6387    0.0000 C   0  0  0  0  0  0  0  0  0  0  0  0
  7  1  1  1  0  0  0
  2 10  1  0  0  0  0
  2 18  1  0  0  0  0
  3 10  2  0  0  0  0
  4 13  1  0  0  0  0
  4 19  1  0  0  0  0
  5 16  2  0  0  0  0
  8  6  1  6  0  0  0
  6 16  1  0  0  0  0
  7  8  1  0  0  0  0
  7  9  1  0  0  0  0
  8 10  1  0  0  0  0
  9 11  2  0  0  0  0
  9 12  1  0  0  0  0
 11 14  1  0  0  0  0
 12 15  2  0  0  0  0
 13 14  2  0  0  0  0
 13 15  1  0  0  0  0
 16 17  1  0  0  0  0
M  END
> <PUBCHEM_COMPOUND_ID_TYPE>
0

> <PUBCHEM_TOTAL_CHARGE>
0

> <PUBCHEM_SUBSTANCE_ID>
310940897

> <PUBCHEM_SUBSTANCE_VERSION>
1

> <PUBCHEM_EXT_DATASOURCE_NAME>
4488

> <PUBCHEM_EXT_DATASOURCE_REGID>
SCHEMBL16118856

> <PUBCHEM_SUBSTANCE_COMMENT>
InChI=1S/C13H17NO5/c1-8(15)14-11(13(17)19-3)12(16)9-4-6-10(18-2)7-5-9/h4-7,11-12,16H,1-3H3,(H,14,15)/t11-,12-/m0/s1
InChIKey=DFUUKQGSZMOLKR-RYUDHWBXSA-N

> <PUBCHEM_SUBSTANCE_SYNONYM>
SCHEMBL16118856

> <PUBCHEM_XREF_EXT_ID>
SCHEMBL16118856

> <PUBCHEM_EXT_DATASOURCE_URL>
https://www.surechembl.org/

> <PUBCHEM_EXT_SUBSTANCE_URL>
https://www.surechembl.org/chemical/SCHEMBL16118856

> <PUBCHEM_CID_ASSOCIATIONS>
117607814  1

> <PUBCHEM_COORDINATE_TYPE>
1
3

> <PUBCHEM_BONDANNOTATIONS>
7  1  5
8  6  6

$$$$
