310940777
  -OEChem-07211613022D

 22 23  0     1  0  0  0  0  0999 V2000
    0.5723    0.4509    0.0000 O   0  0  0  0  0  0  0  0  0  0  0  0
   -1.6475    1.7445    0.0000 O   0  0  0  0  0  0  0  0  0  0  0  0
   -4.6023    1.7445    0.0000 O   0  0  0  0  0  0  0  0  0  0  0  0
    0.5723    0.4509    0.0000 O   0  0  0  0  0  0  0  0  0  0  0  0
   -3.1175    0.8772    0.0000 N   0  0  0  0  0  0  0  0  0  0  0  0
   -0.8977    0.4509    0.0000 N   0  0  0  0  0  0  0  0  0  0  0  0
   -0.1774    0.8772    0.0000 C   0  0  3  0  0  0  0  0  0  0  0  0
   -1.6475    0.8625    0.0000 C   0  0  0  0  0  0  0  0  0  0  0  0
    0.5723    0.4509    0.0000 C   0  0  0  0  0  0  0  0  0  0  0  0
   -2.3531    0.4656    0.0000 C   0  0  0  0  0  0  0  0  0  0  0  0
    3.3438   -1.7663    0.0000 C   0  0  0  0  0  0  0  0  0  0  0  0
   -3.1323    1.7445    0.0000 C   0  0  0  0  0  0  0  0  0  0  0  0
   -3.8379    0.4656    0.0000 C   0  0  0  0  0  0  0  0  0  0  0  0
    2.6248   -2.1708    0.0000 C   0  0  0  0  0  0  0  0  0  0  0  0
   -3.8672    2.1708    0.0000 C   0  0  0  0  0  0  0  0  0  0  0  0
   -4.6023    0.8919    0.0000 C   0  0  0  0  0  0  0  0  0  0  0  0
   -0.1628    1.7445    0.0000 C   0  0  0  0  0  0  0  0  0  0  0  0
    3.3438   -1.0323    0.0000 C   0  0  0  0  0  0  0  0  0  0  0  0
    3.9731   -2.1259    0.0000 C   0  0  0  0  0  0  0  0  0  0  0  0
    3.9731   -0.6577    0.0000 C   0  0  0  0  0  0  0  0  0  0  0  0
    4.6023   -1.7514    0.0000 C   0  0  0  0  0  0  0  0  0  0  0  0
    4.6023   -1.0173    0.0000 C   0  0  0  0  0  0  0  0  0  0  0  0
  1  9  1  0  0  0  0
  1 14  1  0  0  0  0
  2  8  2  0  0  0  0
  3 15  1  0  0  0  0
  3 16  1  0  0  0  0
  4  9  2  0  0  0  0
  5 10  1  0  0  0  0
  5 12  1  0  0  0  0
  5 13  1  0  0  0  0
  6  7  1  0  0  0  0
  6  8  1  0  0  0  0
  7  9  1  0  0  0  0
  7 17  1  1  0  0  0
  8 10  1  0  0  0  0
 11 14  1  0  0  0  0
 11 18  2  0  0  0  0
 11 19  1  0  0  0  0
 12 15  1  0  0  0  0
 13 16  1  0  0  0  0
 18 20  1  0  0  0  0
 19 21  2  0  0  0  0
 20 22  2  0  0  0  0
 21 22  1  0  0  0  0
M  END
> <PUBCHEM_COMPOUND_ID_TYPE>
0

> <PUBCHEM_TOTAL_CHARGE>
0

> <PUBCHEM_SUBSTANCE_ID>
310940777

> <PUBCHEM_SUBSTANCE_VERSION>
1

> <PUBCHEM_EXT_DATASOURCE_NAME>
4488

> <PUBCHEM_EXT_DATASOURCE_REGID>
SCHEMBL16118736

> <PUBCHEM_SUBSTANCE_COMMENT>
InChI=1S/C16H22N2O4/c1-13(16(20)22-12-14-5-3-2-4-6-14)17-15(19)11-18-7-9-21-10-8-18/h2-6,13H,7-12H2,1H3,(H,17,19)/t13-/m0/s1
InChIKey=GJOJCCXWVDNTIR-ZDUSSCGKSA-N

> <PUBCHEM_SUBSTANCE_SYNONYM>
SCHEMBL16118736

> <PUBCHEM_XREF_EXT_ID>
SCHEMBL16118736

> <PUBCHEM_EXT_DATASOURCE_URL>
https://www.surechembl.org/

> <PUBCHEM_EXT_SUBSTANCE_URL>
https://www.surechembl.org/chemical/SCHEMBL16118736

> <PUBCHEM_CID_ASSOCIATIONS>
117607729  1

> <PUBCHEM_COORDINATE_TYPE>
1
3

> <PUBCHEM_BONDANNOTATIONS>
7  17  5

$$$$
