310949009
  -OEChem-07211613022D

  7  6  0     0  0  0  0  0  0999 V2000
    0.4120   -0.1575    0.0000 S   0  0  0  0  0  0  0  0  0  0  0  0
   -0.3029   -0.5573    0.0000 O   0  0  0  0  0  0  0  0  0  0  0  0
    0.8239    0.5573    0.0000 O   0  0  0  0  0  0  0  0  0  0  0  0
   -0.1697    0.4240    0.0000 O   0  0  0  0  0  0  0  0  0  0  0  0
    1.1390   -0.5573    0.0000 N   0  0  0  0  0  0  0  0  0  0  0  0
    1.1390   -0.5573    0.0000 N   0  0  0  0  0  0  0  0  0  0  0  0
   -1.1390   -0.2059    0.0000 C   0  0  0  0  0  0  0  0  0  0  0  0
  1  2  1  0  0  0  0
  1  3  2  0  0  0  0
  1  4  2  0  0  0  0
  1  5  1  0  0  0  0
  2  7  1  0  0  0  0
  5  6  1  0  0  0  0
M  END
> <PUBCHEM_COMPOUND_ID_TYPE>
0

> <PUBCHEM_TOTAL_CHARGE>
0

> <PUBCHEM_SUBSTANCE_ID>
310949009

> <PUBCHEM_SUBSTANCE_VERSION>
1

> <PUBCHEM_EXT_DATASOURCE_NAME>
4488

> <PUBCHEM_EXT_DATASOURCE_REGID>
SCHEMBL16127198

> <PUBCHEM_SUBSTANCE_COMMENT>
InChI=1S/CH6N2O3S/c1-6-7(4,5)3-2/h3H,2H2,1H3
InChIKey=JMKPEPUDKSGSLV-UHFFFAOYSA-N

> <PUBCHEM_SUBSTANCE_SYNONYM>
SCHEMBL16127198

> <PUBCHEM_XREF_EXT_ID>
SCHEMBL16127198

> <PUBCHEM_EXT_DATASOURCE_URL>
https://www.surechembl.org/

> <PUBCHEM_EXT_SUBSTANCE_URL>
https://www.surechembl.org/chemical/SCHEMBL16127198

> <PUBCHEM_CID_ASSOCIATIONS>
117614517  1

> <PUBCHEM_COORDINATE_TYPE>
1
3

$$$$
