310941431
  -OEChem-07211613022D

 36 38  0     0  0  0  0  0  0999 V2000
   -3.1300   -2.7324    0.0000 Cl  0  0  0  0  0  0  0  0  0  0  0  0
   -2.1726    2.5850    0.0000 F   0  0  0  0  0  0  0  0  0  0  0  0
   -2.1726    2.5850    0.0000 F   0  0  0  0  0  0  0  0  0  0  0  0
   -2.1726    2.5850    0.0000 F   0  0  0  0  0  0  0  0  0  0  0  0
   -2.1726    2.5850    0.0000 F   0  0  0  0  0  0  0  0  0  0  0  0
   -2.1726    2.5850    0.0000 F   0  0  0  0  0  0  0  0  0  0  0  0
   -0.2578   -0.0221    0.0000 F   0  0  0  0  0  0  0  0  0  0  0  0
   -0.0810    2.7324    0.0000 F   0  0  0  0  0  0  0  0  0  0  0  0
   -0.9206    1.2741    0.0000 O   0  0  0  0  0  0  0  0  0  0  0  0
    3.8370    0.6996    0.0000 O   0  0  0  0  0  0  0  0  0  0  0  0
    3.8370    0.6996    0.0000 O   0  0  0  0  0  0  0  0  0  0  0  0
   -3.1153    0.5966    0.0000 N   0  0  0  0  0  0  0  0  0  0  0  0
   -2.1726    2.5850    0.0000 C   0  0  0  0  0  0  0  0  0  0  0  0
   -2.6587    1.9222    0.0000 C   0  0  0  0  0  0  0  0  0  0  0  0
   -2.4378    1.1563    0.0000 C   0  0  0  0  0  0  0  0  0  0  0  0
   -2.1726    2.5850    0.0000 C   0  0  0  0  0  0  0  0  0  0  0  0
   -3.4835    1.9222    0.0000 C   0  0  0  0  0  0  0  0  0  0  0  0
   -3.7634    1.1121    0.0000 C   0  0  0  0  0  0  0  0  0  0  0  0
   -3.1300   -0.2283    0.0000 C   0  0  0  0  0  0  0  0  0  0  0  0
   -1.6276    0.8764    0.0000 C   0  0  0  0  0  0  0  0  0  0  0  0
   -0.0810    1.2888    0.0000 C   0  0  0  0  0  0  0  0  0  0  0  0
   -3.8370   -0.6407    0.0000 C   0  0  0  0  0  0  0  0  0  0  0  0
   -2.4083   -0.6407    0.0000 C   0  0  0  0  0  0  0  0  0  0  0  0
    0.3314    0.5966    0.0000 C   0  0  0  0  0  0  0  0  0  0  0  0
    0.3314    2.0106    0.0000 C   0  0  0  0  0  0  0  0  0  0  0  0
   -3.8370   -1.4656    0.0000 C   0  0  0  0  0  0  0  0  0  0  0  0
   -2.4083   -1.4656    0.0000 C   0  0  0  0  0  0  0  0  0  0  0  0
    1.5834    1.3036    0.0000 C   0  0  0  0  0  0  0  0  0  0  0  0
    1.1563    0.5818    0.0000 C   0  0  0  0  0  0  0  0  0  0  0  0
    1.1710    1.9959    0.0000 C   0  0  0  0  0  0  0  0  0  0  0  0
   -3.1153   -1.8780    0.0000 C   0  0  0  0  0  0  0  0  0  0  0  0
    2.4378    1.2741    0.0000 C   0  0  0  0  0  0  0  0  0  0  0  0
    2.9975    0.7144    0.0000 C   0  0  0  0  0  0  0  0  0  0  0  0
    3.8370    0.6996    0.0000 C   0  0  0  0  0  0  0  0  0  0  0  0
    3.8370    0.6996    0.0000 C   0  0  0  0  0  0  0  0  0  0  0  0
    3.8370    0.6996    0.0000 C   0  0  0  0  0  0  0  0  0  0  0  0
  1 31  1  0  0  0  0
  2 13  1  0  0  0  0
  3 13  1  0  0  0  0
  4 16  1  0  0  0  0
  5 16  1  0  0  0  0
  6 16  1  0  0  0  0
  7 24  1  0  0  0  0
  8 25  1  0  0  0  0
  9 20  1  0  0  0  0
  9 21  1  0  0  0  0
 10 34  1  0  0  0  0
 10 35  1  0  0  0  0
 11 34  2  0  0  0  0
 12 15  1  0  0  0  0
 12 18  1  0  0  0  0
 12 19  1  0  0  0  0
 13 14  1  0  0  0  0
 13 16  1  0  0  0  0
 14 15  2  0  0  0  0
 14 17  1  0  0  0  0
 15 20  1  0  0  0  0
 17 18  2  0  0  0  0
 19 22  2  0  0  0  0
 19 23  1  0  0  0  0
 21 24  2  0  0  0  0
 21 25  1  0  0  0  0
 22 26  1  0  0  0  0
 23 27  2  0  0  0  0
 24 29  1  0  0  0  0
 25 30  2  0  0  0  0
 26 31  2  0  0  0  0
 27 31  1  0  0  0  0
 28 29  2  0  0  0  0
 28 30  1  0  0  0  0
 28 32  1  0  0  0  0
 32 33  1  0  0  0  0
 33 34  1  0  0  0  0
 35 36  1  0  0  0  0
M  END
> <PUBCHEM_COMPOUND_ID_TYPE>
0

> <PUBCHEM_TOTAL_CHARGE>
0

> <PUBCHEM_SUBSTANCE_ID>
310941431

> <PUBCHEM_SUBSTANCE_VERSION>
1

> <PUBCHEM_EXT_DATASOURCE_NAME>
4488

> <PUBCHEM_EXT_DATASOURCE_REGID>
SCHEMBL16119391

> <PUBCHEM_SUBSTANCE_COMMENT>
InChI=1S/C24H19ClF7NO3/c1-2-35-21(34)8-3-14-11-18(26)22(19(27)12-14)36-13-20-17(23(28,29)24(30,31)32)9-10-33(20)16-6-4-15(25)5-7-16/h4-7,9-12H,2-3,8,13H2,1H3
InChIKey=IKHHNJKMPJHFBN-UHFFFAOYSA-N

> <PUBCHEM_SUBSTANCE_SYNONYM>
SCHEMBL16119391

> <PUBCHEM_XREF_EXT_ID>
SCHEMBL16119391

> <PUBCHEM_EXT_DATASOURCE_URL>
https://www.surechembl.org/

> <PUBCHEM_EXT_SUBSTANCE_URL>
https://www.surechembl.org/chemical/SCHEMBL16119391

> <PUBCHEM_CID_ASSOCIATIONS>
117608256  1

> <PUBCHEM_COORDINATE_TYPE>
1
3

$$$$
