310948167
  -OEChem-07211613022D

 47 53  0     0  0  0  0  0  0999 V2000
    3.2853   -2.1902    0.0000 S   0  0  0  0  0  0  0  0  0  0  0  0
    3.0495    3.9693    0.0000 F   0  0  0  0  0  0  0  0  0  0  0  0
    3.5906    3.3311    0.0000 F   0  0  0  0  0  0  0  0  0  0  0  0
    3.3824    0.7091    0.0000 F   0  0  0  0  0  0  0  0  0  0  0  0
   -1.5563    0.9589    0.0000 O   0  0  0  0  0  0  0  0  0  0  0  0
    1.9674    3.3727    0.0000 O   0  0  0  0  0  0  0  0  0  0  0  0
    2.8276    2.3323    0.0000 O   0  0  0  0  0  0  0  0  0  0  0  0
    3.2853   -2.1902    0.0000 O   0  0  0  0  0  0  0  0  0  0  0  0
    3.2853   -2.1902    0.0000 O   0  0  0  0  0  0  0  0  0  0  0  0
    4.6032   -0.0677    0.0000 O   0  0  0  0  0  0  0  0  0  0  0  0
   -2.1250   -1.2191    0.0000 N   0  0  0  0  0  0  0  0  0  0  0  0
   -2.9020   -0.9278    0.0000 N   0  0  0  0  0  0  0  0  0  0  0  0
   -0.9736    2.1797    0.0000 N   0  0  0  0  0  0  0  0  0  0  0  0
   -5.0105   -0.2481    0.0000 N   0  0  0  0  0  0  0  0  0  0  0  0
   -3.5261    0.4318    0.0000 C   0  0  0  0  0  0  0  0  0  0  0  0
   -2.8603   -0.0954    0.0000 C   0  0  0  0  0  0  0  0  0  0  0  0
   -0.3494    0.1127    0.0000 C   0  0  0  0  0  0  0  0  0  0  0  0
   -0.7932   -0.5810    0.0000 C   0  0  0  0  0  0  0  0  0  0  0  0
   -1.6118   -0.5533    0.0000 C   0  0  0  0  0  0  0  0  0  0  0  0
   -0.7377    0.8479    0.0000 C   0  0  0  0  0  0  0  0  0  0  0  0
   -0.3771    1.6110    0.0000 C   0  0  0  0  0  0  0  0  0  0  0  0
   -2.0834    0.1127    0.0000 C   0  0  0  0  0  0  0  0  0  0  0  0
   -3.8175    1.1809    0.0000 C   0  0  0  0  0  0  0  0  0  0  0  0
   -3.0268    1.0699    0.0000 C   0  0  0  0  0  0  0  0  0  0  0  0
    0.4554    1.7497    0.0000 C   0  0  0  0  0  0  0  0  0  0  0  0
    0.8576   -0.6364    0.0000 C   0  0  0  0  0  0  0  0  0  0  0  0
    0.4692    0.0849    0.0000 C   0  0  0  0  0  0  0  0  0  0  0  0
   -0.3910   -1.3162    0.0000 C   0  0  0  0  0  0  0  0  0  0  0  0
   -4.2892    0.0849    0.0000 C   0  0  0  0  0  0  0  0  0  0  0  0
    1.6900   -0.6919    0.0000 C   0  0  0  0  0  0  0  0  0  0  0  0
    1.5374    2.6653    0.0000 C   0  0  0  0  0  0  0  0  0  0  0  0
   -1.6811    1.7914    0.0000 C   0  0  0  0  0  0  0  0  0  0  0  0
    2.0645    2.0410    0.0000 C   0  0  0  0  0  0  0  0  0  0  0  0
    0.4276   -1.3439    0.0000 C   0  0  0  0  0  0  0  0  0  0  0  0
    0.7328    2.5266    0.0000 C   0  0  0  0  0  0  0  0  0  0  0  0
    2.7860    3.1924    0.0000 C   0  0  0  0  0  0  0  0  0  0  0  0
    2.9108   -1.4411    0.0000 C   0  0  0  0  0  0  0  0  0  0  0  0
    0.9685    1.1115    0.0000 C   0  0  0  0  0  0  0  0  0  0  0  0
    2.0784   -1.3994    0.0000 C   0  0  0  0  0  0  0  0  0  0  0  0
    3.3408   -0.7335    0.0000 C   0  0  0  0  0  0  0  0  0  0  0  0
    1.7871    1.2641    0.0000 C   0  0  0  0  0  0  0  0  0  0  0  0
    2.1338    0.0156    0.0000 C   0  0  0  0  0  0  0  0  0  0  0  0
    2.9524   -0.0122    0.0000 C   0  0  0  0  0  0  0  0  0  0  0  0
   -1.8752   -2.0376    0.0000 C   0  0  0  0  0  0  0  0  0  0  0  0
   -2.4441    2.1381    0.0000 C   0  0  0  0  0  0  0  0  0  0  0  0
    4.1733   -0.7612    0.0000 C   0  0  0  0  0  0  0  0  0  0  0  0
    5.0105   -3.9693    0.0000 C   0  0  0  0  0  0  0  0  0  0  0  0
  1  8  2  0  0  0  0
  1  9  2  0  0  0  0
  1 37  1  0  0  0  0
  1 47  1  0  0  0  0
  2 36  1  0  0  0  0
  3 36  1  0  0  0  0
  4 43  1  0  0  0  0
  5 20  1  0  0  0  0
  5 32  1  0  0  0  0
  6 31  1  0  0  0  0
  6 36  1  0  0  0  0
  7 33  1  0  0  0  0
  7 36  1  0  0  0  0
 10 46  1  0  0  0  0
 11 12  1  0  0  0  0
 11 19  1  0  0  0  0
 11 44  1  0  0  0  0
 12 16  2  0  0  0  0
 13 21  1  0  0  0  0
 13 32  2  0  0  0  0
 14 29  3  0  0  0  0
 15 16  1  0  0  0  0
 15 23  1  0  0  0  0
 15 24  1  0  0  0  0
 15 29  1  0  0  0  0
 16 22  1  0  0  0  0
 17 18  1  0  0  0  0
 17 20  1  0  0  0  0
 17 27  2  0  0  0  0
 18 19  1  0  0  0  0
 18 28  2  0  0  0  0
 19 22  2  0  0  0  0
 20 21  2  0  0  0  0
 21 25  1  0  0  0  0
 23 24  1  0  0  0  0
 25 35  1  0  0  0  0
 25 38  2  0  0  0  0
 26 27  1  0  0  0  0
 26 30  1  0  0  0  0
 26 34  2  0  0  0  0
 28 34  1  0  0  0  0
 30 39  1  0  0  0  0
 30 42  2  0  0  0  0
 31 33  1  0  0  0  0
 31 35  2  0  0  0  0
 32 45  1  0  0  0  0
 33 41  2  0  0  0  0
 37 39  2  0  0  0  0
 37 40  1  0  0  0  0
 38 41  1  0  0  0  0
 40 43  2  0  0  0  0
 40 46  1  0  0  0  0
 42 43  1  0  0  0  0
M  END
> <PUBCHEM_COMPOUND_ID_TYPE>
0

> <PUBCHEM_TOTAL_CHARGE>
0

> <PUBCHEM_SUBSTANCE_ID>
310948167

> <PUBCHEM_SUBSTANCE_VERSION>
1

> <PUBCHEM_EXT_DATASOURCE_NAME>
4488

> <PUBCHEM_EXT_DATASOURCE_REGID>
SCHEMBL16126344

> <PUBCHEM_SUBSTANCE_COMMENT>
InChI=1S/C33H25F3N4O6S/c1-17-38-30(19-5-7-26-27(12-19)46-33(35,36)45-26)31(44-17)22-10-18(20-11-24(34)23(15-41)28(13-20)47(3,42)43)4-6-21(22)25-14-29(39-40(25)2)32(16-37)8-9-32/h4-7,10-14,41H,8-9,15H2,1-3H3
InChIKey=QAMFXMVJIKEVKU-UHFFFAOYSA-N

> <PUBCHEM_SUBSTANCE_SYNONYM>
SCHEMBL16126344

> <PUBCHEM_XREF_EXT_ID>
SCHEMBL16126344

> <PUBCHEM_EXT_DATASOURCE_URL>
https://www.surechembl.org/

> <PUBCHEM_EXT_SUBSTANCE_URL>
https://www.surechembl.org/chemical/SCHEMBL16126344

> <PUBCHEM_CID_ASSOCIATIONS>
86275924  1

> <PUBCHEM_COORDINATE_TYPE>
1
3

$$$$
