310948833
  -OEChem-07211613022D

 87 92  0     1  0  0  0  0  0999 V2000
    5.1210   -5.9026    0.0000 S   0  0  0  0  0  0  0  0  0  0  0  0
    6.0397    5.1347    0.0000 S   0  0  0  0  0  0  0  0  0  0  0  0
    0.6650   -4.8194    0.0000 S   0  0  0  0  0  0  0  0  0  0  0  0
    2.6120    0.4319    0.0000 S   0  0  0  0  0  0  0  0  0  0  0  0
    5.1210   -5.9026    0.0000 O   0  0  0  0  0  0  0  0  0  0  0  0
    5.1210   -5.9026    0.0000 O   0  0  0  0  0  0  0  0  0  0  0  0
    5.1210   -5.9026    0.0000 O   0  0  0  0  0  0  0  0  0  0  0  0
    5.2856    5.3267    0.0000 O   0  0  0  0  0  0  0  0  0  0  0  0
    6.8212    4.9291    0.0000 O   0  0  0  0  0  0  0  0  0  0  0  0
    6.2316    5.9026    0.0000 O   0  0  0  0  0  0  0  0  0  0  0  0
   -3.7636   -0.3634    0.0000 O   0  0  0  0  0  0  0  0  0  0  0  0
   -4.4766   -1.5973    0.0000 O   0  0  0  0  0  0  0  0  0  0  0  0
   -5.1896    1.2820    0.0000 O   0  0  0  0  0  0  0  0  0  0  0  0
   -3.7636    1.2820    0.0000 O   0  0  0  0  0  0  0  0  0  0  0  0
   -2.3514   -1.1860    0.0000 O   0  0  0  0  0  0  0  0  0  0  0  0
   -5.1896   -1.1860    0.0000 O   0  0  0  0  0  0  0  0  0  0  0  0
    1.3094   -5.3404    0.0000 O   0  0  0  0  0  0  0  0  0  0  0  0
    0.1851   -5.4638    0.0000 O   0  0  0  0  0  0  0  0  0  0  0  0
    0.0343   -4.3395    0.0000 O   0  0  0  0  0  0  0  0  0  0  0  0
   -2.3514   -2.8176    0.0000 O   0  0  0  0  0  0  0  0  0  0  0  0
   -6.6018   -0.3634    0.0000 O   0  0  0  0  0  0  0  0  0  0  0  0
   -3.7636   -3.6402    0.0000 O   0  0  0  0  0  0  0  0  0  0  0  0
    1.8990    0.0343    0.0000 O   0  0  0  0  0  0  0  0  0  0  0  0
    2.2280    1.1175    0.0000 O   0  0  0  0  0  0  0  0  0  0  0  0
    3.3112    0.8158    0.0000 O   0  0  0  0  0  0  0  0  0  0  0  0
   -7.3148    0.8707    0.0000 O   0  0  0  0  0  0  0  0  0  0  0  0
   -5.1896   -3.6402    0.0000 O   0  0  0  0  0  0  0  0  0  0  0  0
    1.1175    2.6393    0.0000 O   0  0  0  0  0  0  0  0  0  0  0  0
   -1.6384    0.8707    0.0000 O   0  0  0  0  0  0  0  0  0  0  0  0
    4.2024   -2.2691    0.0000 N   0  3  0  0  0  0  0  0  0  0  0  0
    5.3541    1.8716    0.0000 N   0  0  0  0  0  0  0  0  0  0  0  0
    0.4868    1.2820    0.0000 N   0  0  0  0  0  0  0  0  0  0  0  0
    3.8048   -3.1604    0.0000 C   0  0  3  0  0  0  0  0  0  0  0  0
    4.4218   -3.7636    0.0000 C   0  0  0  0  0  0  0  0  0  0  0  0
    5.1759   -3.3797    0.0000 C   0  0  0  0  0  0  0  0  0  0  0  0
    5.0388   -2.5434    0.0000 C   0  0  0  0  0  0  0  0  0  0  0  0
    6.6840    2.2143    0.0000 C   0  0  0  0  0  0  0  0  0  0  0  0
    6.2042    2.9273    0.0000 C   0  0  0  0  0  0  0  0  0  0  0  0
    6.1356    1.5562    0.0000 C   0  0  0  0  0  0  0  0  0  0  0  0
    5.3952    2.7216    0.0000 C   0  0  0  0  0  0  0  0  0  0  0  0
    4.4218   -4.6138    0.0000 C   0  0  0  0  0  0  0  0  0  0  0  0
    3.2975   -3.8048    0.0000 C   0  0  0  0  0  0  0  0  0  0  0  0
    5.1622   -5.0799    0.0000 C   0  0  0  0  0  0  0  0  0  0  0  0
    5.9300   -3.8596    0.0000 C   0  0  0  0  0  0  0  0  0  0  0  0
    3.8322   -1.6933    0.0000 C   0  0  0  0  0  0  0  0  0  0  0  0
    3.1329   -2.7216    0.0000 C   0  0  0  0  0  0  0  0  0  0  0  0
    5.6147   -1.9538    0.0000 C   0  0  0  0  0  0  0  0  0  0  0  0
    6.4236    3.7499    0.0000 C   0  0  0  0  0  0  0  0  0  0  0  0
    5.9300   -4.6960    0.0000 C   0  0  0  0  0  0  0  0  0  0  0  0
    5.8203    4.3532    0.0000 C   0  0  0  0  0  0  0  0  0  0  0  0
    4.8057    3.2975    0.0000 C   0  0  0  0  0  0  0  0  0  0  0  0
    6.3550    0.7609    0.0000 C   0  0  0  0  0  0  0  0  0  0  0  0
    4.6686    1.4191    0.0000 C   0  0  0  0  0  0  0  0  0  0  0  0
    7.3148    2.7490    0.0000 C   0  0  0  0  0  0  0  0  0  0  0  0
    7.2599    1.6111    0.0000 C   0  0  0  0  0  0  0  0  0  0  0  0
    5.0113    4.1201    0.0000 C   0  0  0  0  0  0  0  0  0  0  0  0
    2.4886   -3.6814    0.0000 C   0  0  0  0  0  0  0  0  0  0  0  0
    5.4227   -1.1723    0.0000 C   0  0  0  0  0  0  0  0  0  0  0  0
    4.2298   -0.9529    0.0000 C   0  0  0  0  0  0  0  0  0  0  0  0
    5.7929    0.2125    0.0000 C   0  0  0  0  0  0  0  0  0  0  0  0
    5.9848   -0.5964    0.0000 C   0  0  0  0  0  0  0  0  0  0  0  0
    3.9282    1.8167    0.0000 C   0  0  0  0  0  0  0  0  0  0  0  0
    1.9812   -4.3121    0.0000 C   0  0  0  0  0  0  0  0  0  0  0  0
    3.8459   -0.2811    0.0000 C   0  0  0  0  0  0  0  0  0  0  0  0
    3.2563    1.4191    0.0000 C   0  0  0  0  0  0  0  0  0  0  0  0
    1.1723   -4.1887    0.0000 C   0  0  0  0  0  0  0  0  0  0  0  0
    3.0095   -0.2536    0.0000 C   0  0  0  0  0  0  0  0  0  0  0  0
   -4.4904    0.0480    0.0000 C   0  0  3  0  0  0  0  0  0  0  0  0
   -3.7636   -1.1723    0.0000 C   0  0  3  0  0  0  0  0  0  0  0  0
   -3.0507   -1.5836    0.0000 C   0  0  3  0  0  0  0  0  0  0  0  0
   -5.1759   -0.3496    0.0000 C   0  0  3  0  0  0  0  0  0  0  0  0
   -4.4629    0.8432    0.0000 C   0  0  3  0  0  0  0  0  0  0  0  0
   -3.0644   -2.4063    0.0000 C   0  0  3  0  0  0  0  0  0  0  0  0
   -5.9026    0.0617    0.0000 C   0  0  3  0  0  0  0  0  0  0  0  0
   -3.7499   -2.8039    0.0000 C   0  0  3  0  0  0  0  0  0  0  0  0
   -5.8888    0.8707    0.0000 C   0  0  3  0  0  0  0  0  0  0  0  0
   -4.4766   -2.4063    0.0000 C   0  0  3  0  0  0  0  0  0  0  0  0
    2.5159    1.8167    0.0000 C   0  0  0  0  0  0  0  0  0  0  0  0
   -6.5881    1.2682    0.0000 C   0  0  0  0  0  0  0  0  0  0  0  0
   -5.1759   -2.8039    0.0000 C   0  0  0  0  0  0  0  0  0  0  0  0
    1.8441    1.4191    0.0000 C   0  0  0  0  0  0  0  0  0  0  0  0
   -3.0370    0.8843    0.0000 C   0  0  0  0  0  0  0  0  0  0  0  0
    1.1175    1.8030    0.0000 C   0  0  0  0  0  0  0  0  0  0  0  0
   -2.3514   -1.1860    0.0000 C   0  0  0  0  0  0  0  0  0  0  0  0
   -2.3652    1.2820    0.0000 C   0  0  0  0  0  0  0  0  0  0  0  0
   -0.1988    0.8843    0.0000 C   0  0  0  0  0  0  0  0  0  0  0  0
   -0.9392    1.2820    0.0000 C   0  0  0  0  0  0  0  0  0  0  0  0
  1  5  2  0  0  0  0
  1  6  2  0  0  0  0
  1  7  1  0  0  0  0
  1 43  1  0  0  0  0
  2  8  2  0  0  0  0
  2  9  2  0  0  0  0
  2 10  1  0  0  0  0
  2 50  1  0  0  0  0
  3 17  2  0  0  0  0
  3 18  2  0  0  0  0
  3 19  1  0  0  0  0
  3 66  1  0  0  0  0
  4 23  2  0  0  0  0
  4 24  2  0  0  0  0
  4 25  1  0  0  0  0
  4 67  1  0  0  0  0
 68 11  1  1  0  0  0
 69 11  1  6  0  0  0
 12 69  1  0  0  0  0
 12 77  1  0  0  0  0
 13 72  1  0  0  0  0
 13 76  1  0  0  0  0
 14 72  1  0  0  0  0
 14 82  1  0  0  0  0
 70 15  1  1  0  0  0
 15 84  1  0  0  0  0
 71 16  1  1  0  0  0
 73 20  1  1  0  0  0
 74 21  1  6  0  0  0
 75 22  1  6  0  0  0
 26 79  1  0  0  0  0
 27 80  1  0  0  0  0
 28 83  2  0  0  0  0
 29 85  1  0  0  0  0
 29 87  1  0  0  0  0
 30 33  1  0  0  0  0
 30 36  2  0  0  0  0
 30 45  1  0  0  0  0
 31 39  1  0  0  0  0
 31 40  1  0  0  0  0
 31 53  1  0  0  0  0
 32 83  1  0  0  0  0
 32 86  1  0  0  0  0
 33 34  1  0  0  0  0
 33 42  1  0  0  0  0
 33 46  1  0  0  0  0
 34 35  2  0  0  0  0
 34 41  1  0  0  0  0
 35 36  1  0  0  0  0
 35 44  1  0  0  0  0
 36 47  1  0  0  0  0
 37 38  1  0  0  0  0
 37 39  1  0  0  0  0
 37 54  1  0  0  0  0
 37 55  1  0  0  0  0
 38 40  2  0  0  0  0
 38 48  1  0  0  0  0
 39 52  2  0  0  0  0
 40 51  1  0  0  0  0
 41 43  2  0  0  0  0
 42 57  1  0  0  0  0
 43 49  1  0  0  0  0
 44 49  2  0  0  0  0
 45 59  1  0  0  0  0
 47 58  2  0  0  0  0
 48 50  2  0  0  0  0
 50 56  1  0  0  0  0
 51 56  2  0  0  0  0
 52 60  1  0  0  0  0
 53 62  1  0  0  0  0
 57 63  1  0  0  0  0
 58 61  1  0  0  0  0
 59 64  1  0  0  0  0
 60 61  2  0  0  0  0
 62 65  1  0  0  0  0
 63 66  1  0  0  0  0
 64 67  1  0  0  0  0
 65 78  1  0  0  0  0
 68 71  1  0  0  0  0
 68 72  1  0  0  0  0
 69 70  1  0  0  0  0
 70 73  1  0  0  0  0
 71 74  1  0  0  0  0
 73 75  1  0  0  0  0
 74 76  1  0  0  0  0
 75 77  1  0  0  0  0
 76 79  1  6  0  0  0
 77 80  1  1  0  0  0
 78 81  1  0  0  0  0
 81 83  1  0  0  0  0
 82 85  1  0  0  0  0
 86 87  1  0  0  0  0
M  CHG  1  30   1
M  END
> <PUBCHEM_COMPOUND_ID_TYPE>
0

> <PUBCHEM_TOTAL_CHARGE>
1

> <PUBCHEM_SUBSTANCE_ID>
310948833

> <PUBCHEM_SUBSTANCE_VERSION>
1

> <PUBCHEM_EXT_DATASOURCE_NAME>
4488

> <PUBCHEM_EXT_DATASOURCE_REGID>
SCHEMBL16127017

> <PUBCHEM_SUBSTANCE_COMMENT>
InChI=1S/C55H81N3O25S4/c1-54(2)39-32-36(87(75,76)77)19-21-41(39)57(24-11-6-9-17-45(61)56-23-26-79-27-28-80-52-51(49(65)47(63)42(33-59)81-52)83-53-50(78-4)48(64)46(62)43(34-60)82-53)44(54)16-8-5-7-15-40-37-20-18-35(86(72,73)74)31-38(37)55(3,22-10-13-29-84(66,67)68)58(40)25-12-14-30-85(69,70)71/h5,7-8,15-16,18-21,31-32,42-43,46-53,59-60,62-65H,6,9-14,17,22-30,33-34H2,1-4H3,(H4-,56,61,66,67,68,69,70,71,72,73,74,75,76,77)/p+1/t42-,43+,46+,47+,48-,49-,50-,51-,52?,53+,55?/m0/s1
InChIKey=JLFJMVSKCDIGJW-NQJNHVHJSA-O

> <PUBCHEM_SUBSTANCE_SYNONYM>
SCHEMBL16127017

> <PUBCHEM_XREF_EXT_ID>
SCHEMBL16127017

> <PUBCHEM_EXT_DATASOURCE_URL>
https://www.surechembl.org/

> <PUBCHEM_EXT_SUBSTANCE_URL>
https://www.surechembl.org/chemical/SCHEMBL16127017

> <PUBCHEM_CID_ASSOCIATIONS>
117614370  1

> <PUBCHEM_COORDINATE_TYPE>
1
3

> <PUBCHEM_BONDANNOTATIONS>
68  11  5
69  11  6
14  72  3
70  15  5
71  16  5
73  20  5
74  21  6
75  22  6
76  79  6
77  80  5

$$$$
