310946931
  -OEChem-07211613022D

 37 39  0     0  0  0  0  0  0999 V2000
    0.0244    0.7786    0.0000 F   0  0  0  0  0  0  0  0  0  0  0  0
   -1.4201    3.2987    0.0000 F   0  0  0  0  0  0  0  0  0  0  0  0
    1.4484    3.2987    0.0000 O   0  0  0  0  0  0  0  0  0  0  0  0
    0.2702   -1.0859    0.0000 N   0  0  0  0  0  0  0  0  0  0  0  0
   -0.8771   -1.9054    0.0000 N   0  0  0  0  0  0  0  0  0  0  0  0
   -1.4304    0.7786    0.0000 N   0  0  0  0  0  0  0  0  0  0  0  0
    1.5712   -1.6596    0.0000 N   0  0  0  0  0  0  0  0  0  0  0  0
   -0.7543   -3.3192    0.0000 N   0  0  0  0  0  0  0  0  0  0  0  0
   -0.7645    0.2971    0.0000 N   0  0  0  0  0  0  0  0  0  0  0  0
    0.8951   -3.1655    0.0000 N   0  0  0  0  0  0  0  0  0  0  0  0
    1.5712   -1.6596    0.0000 N   0  0  0  0  0  0  0  0  0  0  0  0
   -0.7543   -3.3192    0.0000 N   0  0  0  0  0  0  0  0  0  0  0  0
    1.5712   -1.6596    0.0000 N   0  0  0  0  0  0  0  0  0  0  0  0
   -0.7543   -3.3192    0.0000 N   0  0  0  0  0  0  0  0  0  0  0  0
    3.4383    3.0657    0.0000 N   0  0  0  0  0  0  0  0  0  0  0  0
    3.4101    2.2628    0.0000 N   0  3  0  0  0  0  0  0  0  0  0  0
    3.3820    1.4601    0.0000 N   0  5  0  0  0  0  0  0  0  0  0  0
   -0.5493   -1.1371    0.0000 C   0  0  0  0  0  0  0  0  0  0  0  0
   -1.0103   -0.4815    0.0000 C   0  0  0  0  0  0  0  0  0  0  0  0
   -1.8709   -0.4712    0.0000 C   0  0  0  0  0  0  0  0  0  0  0  0
    0.7414   -1.7108    0.0000 C   0  0  0  0  0  0  0  0  0  0  0  0
   -0.4161   -2.5304    0.0000 C   0  0  0  0  0  0  0  0  0  0  0  0
    0.3932   -2.4587    0.0000 C   0  0  0  0  0  0  0  0  0  0  0  0
   -2.1065    0.3176    0.0000 C   0  0  0  0  0  0  0  0  0  0  0  0
   -0.7132    2.0591    0.0000 C   0  0  0  0  0  0  0  0  0  0  0  0
   -2.4036   -1.0859    0.0000 C   0  0  0  0  0  0  0  0  0  0  0  0
    0.0141    1.6391    0.0000 C   0  0  0  0  0  0  0  0  0  0  0  0
   -0.7132    2.8889    0.0000 C   0  0  0  0  0  0  0  0  0  0  0  0
   -1.4201    1.6698    0.0000 C   0  0  0  0  0  0  0  0  0  0  0  0
   -2.9363    0.4815    0.0000 C   0  0  0  0  0  0  0  0  0  0  0  0
    0.7414    2.8992    0.0000 C   0  0  0  0  0  0  0  0  0  0  0  0
    0.7312    2.0591    0.0000 C   0  0  0  0  0  0  0  0  0  0  0  0
   -0.0064    3.2783    0.0000 C   0  0  0  0  0  0  0  0  0  0  0  0
   -3.2334   -0.9220    0.0000 C   0  0  0  0  0  0  0  0  0  0  0  0
   -3.4383   -0.1024    0.0000 C   0  0  0  0  0  0  0  0  0  0  0  0
    2.1859    2.9197    0.0000 C   0  0  0  0  0  0  0  0  0  0  0  0
    2.9030    3.3192    0.0000 C   0  0  0  0  0  0  0  0  0  0  0  0
  1 27  1  0  0  0  0
  2 28  1  0  0  0  0
  3 31  1  0  0  0  0
  3 36  1  0  0  0  0
  4 18  1  0  0  0  0
  4 21  2  0  0  0  0
  5 18  2  0  0  0  0
  5 22  1  0  0  0  0
  6 24  1  0  0  0  0
  6 29  1  0  0  0  0
  7 11  1  0  0  0  0
  7 21  1  0  0  0  0
  8 12  1  0  0  0  0
  8 22  1  0  0  0  0
  9 19  2  3  0  0  0
 10 23  1  0  0  0  0
 11 13  2  3  0  0  0
 12 14  2  3  0  0  0
 15 16  2  0  0  0  0
 15 37  1  0  0  0  0
 16 17  2  0  0  0  0
 18 19  1  0  0  0  0
 19 20  1  0  0  0  0
 20 24  2  0  0  0  0
 20 26  1  0  0  0  0
 21 23  1  0  0  0  0
 22 23  2  0  0  0  0
 24 30  1  0  0  0  0
 25 27  2  0  0  0  0
 25 28  1  0  0  0  0
 25 29  1  0  0  0  0
 26 34  2  0  0  0  0
 27 32  1  0  0  0  0
 28 33  2  0  0  0  0
 30 35  2  0  0  0  0
 31 32  2  0  0  0  0
 31 33  1  0  0  0  0
 34 35  1  0  0  0  0
 36 37  1  0  0  0  0
M  CHG  2  16   1  17  -1
M  END
> <PUBCHEM_COMPOUND_ID_TYPE>
0

> <PUBCHEM_TOTAL_CHARGE>
0

> <PUBCHEM_SUBSTANCE_ID>
310946931

> <PUBCHEM_SUBSTANCE_VERSION>
1

> <PUBCHEM_EXT_DATASOURCE_NAME>
4488

> <PUBCHEM_EXT_DATASOURCE_REGID>
SCHEMBL16125056

> <PUBCHEM_SUBSTANCE_COMMENT>
InChI=1S/C20H20F2N14O/c21-13-7-10(37-6-5-29-34-25)8-14(22)12(13)9-28-15-4-2-1-3-11(15)16(23)18-30-19(32-35-26)17(24)20(31-18)33-36-27/h1-4,7-8,23,28H,5-6,9,24H2,(H4,26,27,30,31,32,33)
InChIKey=UIHQDSVHNVGVLR-UHFFFAOYSA-N

> <PUBCHEM_SUBSTANCE_SYNONYM>
SCHEMBL16125056

> <PUBCHEM_XREF_EXT_ID>
SCHEMBL16125056

> <PUBCHEM_EXT_DATASOURCE_URL>
https://www.surechembl.org/

> <PUBCHEM_EXT_SUBSTANCE_URL>
https://www.surechembl.org/chemical/SCHEMBL16125056

> <PUBCHEM_CID_ASSOCIATIONS>
117612786  1

> <PUBCHEM_COORDINATE_TYPE>
1
3

$$$$
