310945744
  -OEChem-07211613022D

 15 15  0     0  0  0  0  0  0999 V2000
    0.7865    2.0395    0.0000 O   0  0  0  0  0  0  0  0  0  0  0  0
    0.7865    2.0395    0.0000 O   0  0  0  0  0  0  0  0  0  0  0  0
   -0.6425    2.0528    0.0000 N   0  0  0  0  0  0  0  0  0  0  0  0
   -1.3637    0.8242    0.0000 N   0  0  0  0  0  0  0  0  0  0  0  0
    1.9646    1.4815    0.0000 N   0  0  0  0  0  0  0  0  0  0  0  0
    1.9026   -0.2857    0.0000 N   0  3  0  0  0  0  0  0  0  0  0  0
    1.8406   -2.0528    0.0000 N   0  5  0  0  0  0  0  0  0  0  0  0
    0.0653    1.6389    0.0000 C   0  0  0  0  0  0  0  0  0  0  0  0
    0.7865    2.0395    0.0000 C   0  0  0  0  0  0  0  0  0  0  0  0
    0.0787    0.8375    0.0000 C   0  0  0  0  0  0  0  0  0  0  0  0
   -1.3770    1.6522    0.0000 C   0  0  0  0  0  0  0  0  0  0  0  0
   -0.6425    0.4236    0.0000 C   0  0  0  0  0  0  0  0  0  0  0  0
    0.7865    2.0395    0.0000 C   0  0  0  0  0  0  0  0  0  0  0  0
   -1.9646    1.9994    0.0000 C   0  0  0  0  0  0  0  0  0  0  0  0
   -0.6291   -0.4045    0.0000 C   0  0  0  0  0  0  0  0  0  0  0  0
  1  9  1  0  0  0  0
  1 13  1  0  0  0  0
  2  9  2  0  0  0  0
  3  8  2  0  0  0  0
  3 11  1  0  0  0  0
  4 11  2  0  0  0  0
  4 12  1  0  0  0  0
  5  6  2  0  0  0  0
  5 13  1  0  0  0  0
  6  7  2  0  0  0  0
  8  9  1  0  0  0  0
  8 10  1  0  0  0  0
 10 12  2  0  0  0  0
 11 14  1  0  0  0  0
 12 15  1  0  0  0  0
M  CHG  2   6   1   7  -1
M  END
> <PUBCHEM_COMPOUND_ID_TYPE>
0

> <PUBCHEM_TOTAL_CHARGE>
0

> <PUBCHEM_SUBSTANCE_ID>
310945744

> <PUBCHEM_SUBSTANCE_VERSION>
1

> <PUBCHEM_EXT_DATASOURCE_NAME>
4488

> <PUBCHEM_EXT_DATASOURCE_REGID>
SCHEMBL16123848

> <PUBCHEM_SUBSTANCE_COMMENT>
InChI=1S/C8H9N5O2/c1-5-3-7(12-6(2)11-5)8(14)15-4-10-13-9/h3H,4H2,1-2H3
InChIKey=JJUJDBONZRGYQR-UHFFFAOYSA-N

> <PUBCHEM_SUBSTANCE_SYNONYM>
SCHEMBL16123848

> <PUBCHEM_XREF_EXT_ID>
SCHEMBL16123848

> <PUBCHEM_EXT_DATASOURCE_URL>
https://www.surechembl.org/

> <PUBCHEM_EXT_SUBSTANCE_URL>
https://www.surechembl.org/chemical/SCHEMBL16123848

> <PUBCHEM_CID_ASSOCIATIONS>
117611737  1

> <PUBCHEM_COORDINATE_TYPE>
1
3

$$$$
