310940783
  -OEChem-07211613022D

 18 19  0     0  0  0  0  0  0999 V2000
   -0.4531    0.2886    0.0000 O   0  0  0  0  0  0  0  0  0  0  0  0
   -3.5105    1.5652    0.0000 O   0  0  0  0  0  0  0  0  0  0  0  0
   -0.4531    0.2886    0.0000 O   0  0  0  0  0  0  0  0  0  0  0  0
   -2.6438    1.5652    0.0000 C   0  0  0  0  0  0  0  0  0  0  0  0
   -1.1939    0.7299    0.0000 C   0  0  0  0  0  0  0  0  0  0  0  0
   -0.4531    0.2886    0.0000 C   0  0  0  0  0  0  0  0  0  0  0  0
   -1.1939    1.5652    0.0000 C   0  0  0  0  0  0  0  0  0  0  0  0
   -1.9188    0.3043    0.0000 C   0  0  0  0  0  0  0  0  0  0  0  0
   -2.6438    0.7141    0.0000 C   0  0  0  0  0  0  0  0  0  0  0  0
   -1.9188    1.9591    0.0000 C   0  0  0  0  0  0  0  0  0  0  0  0
    2.2727   -1.8922    0.0000 C   0  0  0  0  0  0  0  0  0  0  0  0
    1.5656   -2.2900    0.0000 C   0  0  0  0  0  0  0  0  0  0  0  0
   -3.0692    2.2900    0.0000 C   0  0  0  0  0  0  0  0  0  0  0  0
    2.2727   -1.1702    0.0000 C   0  0  0  0  0  0  0  0  0  0  0  0
    2.8916   -2.2458    0.0000 C   0  0  0  0  0  0  0  0  0  0  0  0
    2.8916   -0.8018    0.0000 C   0  0  0  0  0  0  0  0  0  0  0  0
    3.5105   -1.8774    0.0000 C   0  0  0  0  0  0  0  0  0  0  0  0
    3.5105   -1.1554    0.0000 C   0  0  0  0  0  0  0  0  0  0  0  0
  1  6  1  0  0  0  0
  1 12  1  0  0  0  0
  4  2  1  6  0  0  0
  3  6  2  0  0  0  0
  4  9  1  0  0  0  0
  4 10  1  0  0  0  0
  4 13  1  1  0  0  0
  5  6  1  1  0  0  0
  5  7  1  0  0  0  0
  5  8  1  0  0  0  0
  7 10  1  0  0  0  0
  8  9  1  0  0  0  0
 11 12  1  0  0  0  0
 11 14  2  0  0  0  0
 11 15  1  0  0  0  0
 14 16  1  0  0  0  0
 15 17  2  0  0  0  0
 16 18  2  0  0  0  0
 17 18  1  0  0  0  0
M  END
> <PUBCHEM_COMPOUND_ID_TYPE>
0

> <PUBCHEM_TOTAL_CHARGE>
0

> <PUBCHEM_SUBSTANCE_ID>
310940783

> <PUBCHEM_SUBSTANCE_VERSION>
1

> <PUBCHEM_EXT_DATASOURCE_NAME>
4488

> <PUBCHEM_EXT_DATASOURCE_REGID>
SCHEMBL16118742

> <PUBCHEM_SUBSTANCE_COMMENT>
InChI=1S/C15H20O3/c1-15(17)9-7-13(8-10-15)14(16)18-11-12-5-3-2-4-6-12/h2-6,13,17H,7-11H2,1H3/t13-,15-
InChIKey=WNBKJJIRTLOCNH-CTYIDZIISA-N

> <PUBCHEM_SUBSTANCE_SYNONYM>
SCHEMBL16118742

> <PUBCHEM_XREF_EXT_ID>
SCHEMBL16118742

> <PUBCHEM_EXT_DATASOURCE_URL>
https://www.surechembl.org/

> <PUBCHEM_EXT_SUBSTANCE_URL>
https://www.surechembl.org/chemical/SCHEMBL16118742

> <PUBCHEM_CID_ASSOCIATIONS>
117607734  1

> <PUBCHEM_COORDINATE_TYPE>
1
3

> <PUBCHEM_BONDANNOTATIONS>
4  2  6
4  13  5
5  6  5

$$$$
