310948580
  -OEChem-07211613022D

119122  0     1  0  0  0  0  0999 V2000
   -3.5855    7.2697    0.0000 O   0  0  0  0  0  0  0  0  0  0  0  0
   -6.4401    1.4185    0.0000 O   0  0  0  0  0  0  0  0  0  0  0  0
   -1.1209   -6.0640    0.0000 O   0  0  0  0  0  0  0  0  0  0  0  0
   -4.8976    5.1242    0.0000 O   0  0  0  0  0  0  0  0  0  0  0  0
   -6.4401   -1.0816    0.0000 O   0  0  0  0  0  0  0  0  0  0  0  0
    0.9891   -7.4115    0.0000 O   0  0  0  0  0  0  0  0  0  0  0  0
   -5.6955    6.5959    0.0000 O   0  0  0  0  0  0  0  0  0  0  0  0
   -7.8941   -0.2483    0.0000 O   0  0  0  0  0  0  0  0  0  0  0  0
   -0.4826   -8.2094    0.0000 O   0  0  0  0  0  0  0  0  0  0  0  0
   -3.2309    5.0887    0.0000 O   0  0  0  0  0  0  0  0  0  0  0  0
   -5.0040   -0.2483    0.0000 O   0  0  0  0  0  0  0  0  0  0  0  0
    1.0423   -5.7448    0.0000 O   0  0  0  0  0  0  0  0  0  0  0  0
   -0.3230   -4.8760    0.0000 O   0  0  0  0  0  0  0  0  0  0  0  0
   -2.3621    6.5072    0.0000 O   0  0  0  0  0  0  0  0  0  0  0  0
   -4.9508    1.3653    0.0000 O   0  0  0  0  0  0  0  0  0  0  0  0
   -5.6600    8.0498    0.0000 O   0  0  0  0  0  0  0  0  0  0  0  0
   -8.6034    1.0107    0.0000 O   0  0  0  0  0  0  0  0  0  0  0  0
   -1.9011   -8.1562    0.0000 O   0  0  0  0  0  0  0  0  0  0  0  0
   -4.8976    5.1242    0.0000 O   0  0  0  0  0  0  0  0  0  0  0  0
   -6.4401   -1.0816    0.0000 O   0  0  0  0  0  0  0  0  0  0  0  0
    0.9891   -7.4115    0.0000 O   0  0  0  0  0  0  0  0  0  0  0  0
   -1.8656   -8.2626    0.0000 O   0  0  0  0  0  0  0  0  0  0  0  0
   -8.5501   -1.4894    0.0000 O   0  0  0  0  0  0  0  0  0  0  0  0
   -5.6600    7.9789    0.0000 O   0  0  0  0  0  0  0  0  0  0  0  0
    1.7338   -6.9682    0.0000 O   0  0  0  0  0  0  0  0  0  0  0  0
   -5.6423   -1.4894    0.0000 O   0  0  0  0  0  0  0  0  0  0  0  0
   -1.9720    4.4504    0.0000 O   0  0  0  0  0  0  0  0  0  0  0  0
    1.2196   -3.2980    0.0000 O   0  0  0  0  0  0  0  0  0  0  0  0
   -0.7308    5.0179    0.0000 O   0  0  0  0  0  0  0  0  0  0  0  0
   -2.7876    0.9398    0.0000 O   0  0  0  0  0  0  0  0  0  0  0  0
   -3.2841   -8.2094    0.0000 O   0  0  0  0  0  0  0  0  0  0  0  0
   -9.3480    2.1809    0.0000 O   0  0  0  0  0  0  0  0  0  0  0  0
   -5.6245    9.4328    0.0000 O   0  0  0  0  0  0  0  0  0  0  0  0
    0.1026    0.1064    0.0000 O   0  0  0  0  0  0  0  0  0  0  0  0
    2.5494    3.4930    0.0000 O   0  0  0  0  0  0  0  0  0  0  0  0
    3.5246   -1.3653    0.0000 O   0  0  0  0  0  0  0  0  0  0  0  0
    3.8083    2.2341    0.0000 O   0  0  0  0  0  0  0  0  0  0  0  0
    7.1575   -0.2880    0.0000 O   0  0  0  0  0  0  0  0  0  0  0  0
    6.4815    0.8269    0.0000 O   0  0  0  0  0  0  0  0  0  0  0  0
   -4.8976    5.1242    0.0000 N   0  0  0  0  0  0  0  0  0  0  0  0
   -6.4401   -1.0816    0.0000 N   0  0  0  0  0  0  0  0  0  0  0  0
    0.9891   -7.4115    0.0000 N   0  0  0  0  0  0  0  0  0  0  0  0
    3.0813    0.9929    0.0000 N   0  0  0  0  0  0  0  0  0  0  0  0
    2.0884   -1.2589    0.0000 N   0  0  0  0  0  0  0  0  0  0  0  0
    1.3260    4.2554    0.0000 N   0  0  0  0  0  0  0  0  0  0  0  0
   -0.6244    1.3653    0.0000 N   0  0  0  0  0  0  0  0  0  0  0  0
    5.9715    0.9929    0.0000 N   0  0  0  0  0  0  0  0  0  0  0  0
   -4.4721    5.8689    0.0000 C   0  0  3  0  0  0  0  0  0  0  0  0
   -6.4401   -0.2305    0.0000 C   0  0  3  0  0  0  0  0  0  0  0  0
    0.2444   -6.9859    0.0000 C   0  0  3  0  0  0  0  0  0  0  0  0
   -4.8621    6.5604    0.0000 C   0  0  3  0  0  0  0  0  0  0  0  0
   -7.1671    0.1773    0.0000 C   0  0  3  0  0  0  0  0  0  0  0  0
   -0.4826   -7.3406    0.0000 C   0  0  3  0  0  0  0  0  0  0  0  0
   -3.6387    5.8335    0.0000 C   0  0  3  0  0  0  0  0  0  0  0  0
   -5.7486    0.1773    0.0000 C   0  0  3  0  0  0  0  0  0  0  0  0
    0.3153   -6.1349    0.0000 C   0  0  3  0  0  0  0  0  0  0  0  0
   -4.4366    7.3051    0.0000 C   0  0  3  0  0  0  0  0  0  0  0  0
   -7.1671    1.0284    0.0000 C   0  0  3  0  0  0  0  0  0  0  0  0
   -1.1918   -6.8796    0.0000 C   0  0  3  0  0  0  0  0  0  0  0  0
   -3.2131    6.5604    0.0000 C   0  0  3  0  0  0  0  0  0  0  0  0
   -5.7309    1.0107    0.0000 C   0  0  3  0  0  0  0  0  0  0  0  0
   -0.3939   -5.6916    0.0000 C   0  0  3  0  0  0  0  0  0  0  0  0
   -4.8267    8.0143    0.0000 C   0  0  0  0  0  0  0  0  0  0  0  0
   -7.9118    1.4362    0.0000 C   0  0  0  0  0  0  0  0  0  0  0  0
   -1.9011   -7.3051    0.0000 C   0  0  0  0  0  0  0  0  0  0  0  0
   -4.8976    5.1242    0.0000 C   0  0  0  0  0  0  0  0  0  0  0  0
   -6.4401   -1.0816    0.0000 C   0  0  0  0  0  0  0  0  0  0  0  0
    0.9891   -7.4115    0.0000 C   0  0  0  0  0  0  0  0  0  0  0  0
   -1.2096   -8.6350    0.0000 C   0  0  0  0  0  0  0  0  0  0  0  0
   -7.8941   -1.0993    0.0000 C   0  0  0  0  0  0  0  0  0  0  0  0
   -6.0678    7.3406    0.0000 C   0  0  0  0  0  0  0  0  0  0  0  0
    1.7692   -6.2058    0.0000 C   0  0  0  0  0  0  0  0  0  0  0  0
   -5.0040   -1.0993    0.0000 C   0  0  0  0  0  0  0  0  0  0  0  0
   -2.3798    5.0887    0.0000 C   0  0  0  0  0  0  0  0  0  0  0  0
    0.4040   -4.4859    0.0000 C   0  0  0  0  0  0  0  0  0  0  0  0
   -1.9897    5.8157    0.0000 C   0  0  0  0  0  0  0  0  0  0  0  0
   -4.2238    0.9574    0.0000 C   0  0  0  0  0  0  0  0  0  0  0  0
   -2.6280   -8.5817    0.0000 C   0  0  0  0  0  0  0  0  0  0  0  0
   -9.3303    1.4185    0.0000 C   0  0  0  0  0  0  0  0  0  0  0  0
   -6.0324    8.7945    0.0000 C   0  0  0  0  0  0  0  0  0  0  0  0
   -1.1741   -9.4328    0.0000 C   0  0  0  0  0  0  0  0  0  0  0  0
   -7.2026   -1.4894    0.0000 C   0  0  0  0  0  0  0  0  0  0  0  0
   -6.8657    7.3583    0.0000 C   0  0  0  0  0  0  0  0  0  0  0  0
    2.4607   -5.8157    0.0000 C   0  0  0  0  0  0  0  0  0  0  0  0
   -4.2947   -1.4716    0.0000 C   0  0  0  0  0  0  0  0  0  0  0  0
   -2.0074    5.7980    0.0000 C   0  0  0  0  0  0  0  0  0  0  0  0
    0.4926   -3.6526    0.0000 C   0  0  0  0  0  0  0  0  0  0  0  0
   -1.1386    5.7625    0.0000 C   0  0  0  0  0  0  0  0  0  0  0  0
   -3.5145    1.3830    0.0000 C   0  0  0  0  0  0  0  0  0  0  0  0
   -2.5926   -9.3796    0.0000 C   0  0  0  0  0  0  0  0  0  0  0  0
  -10.0040    0.9929    0.0000 C   0  0  0  0  0  0  0  0  0  0  0  0
   -6.8302    8.8123    0.0000 C   0  0  0  0  0  0  0  0  0  0  0  0
    1.2905   -2.4469    0.0000 C   0  0  0  0  0  0  0  0  0  0  0  0
    0.1026    5.0001    0.0000 C   0  0  0  0  0  0  0  0  0  0  0  0
   -2.0606    1.3830    0.0000 C   0  0  0  0  0  0  0  0  0  0  0  0
    2.2480    1.3653    0.0000 C   0  0  0  0  0  0  0  0  0  0  0  0
    2.0175   -2.0923    0.0000 C   0  0  0  0  0  0  0  0  0  0  0  0
    0.4926    4.2909    0.0000 C   0  0  0  0  0  0  0  0  0  0  0  0
   -1.3159    0.9752    0.0000 C   0  0  0  0  0  0  0  0  0  0  0  0
    2.1948    0.4078    0.0000 C   0  0  0  0  0  0  0  0  0  0  0  0
    1.5387    0.9574    0.0000 C   0  0  0  0  0  0  0  0  0  0  0  0
    2.2657    2.1986    0.0000 C   0  0  0  0  0  0  0  0  0  0  0  0
    2.7976   -0.8688    0.0000 C   0  0  0  0  0  0  0  0  0  0  0  0
    0.1026    0.9929    0.0000 C   0  0  0  0  0  0  0  0  0  0  0  0
    1.7160    3.5462    0.0000 C   0  0  0  0  0  0  0  0  0  0  0  0
    2.8863   -0.0532    0.0000 C   0  0  0  0  0  0  0  0  0  0  0  0
    0.8118    1.3830    0.0000 C   0  0  0  0  0  0  0  0  0  0  0  0
    1.5387    2.6242    0.0000 C   0  0  0  0  0  0  0  0  0  0  0  0
    3.7905    1.4008    0.0000 C   0  0  0  0  0  0  0  0  0  0  0  0
    4.5530    1.0107    0.0000 C   0  0  0  0  0  0  0  0  0  0  0  0
    5.2445    1.4185    0.0000 C   0  0  0  0  0  0  0  0  0  0  0  0
    6.4934    0.1153    0.0000 C   0  0  0  0  0  0  0  0  0  0  0  0
    7.9048    0.1390    0.0000 C   0  0  0  0  0  0  0  0  0  0  0  0
    8.5926   -0.3117    0.0000 C   0  0  0  0  0  0  0  0  0  0  0  0
    8.5926   -1.1301    0.0000 C   0  0  0  0  0  0  0  0  0  0  0  0
    9.2924    0.1034    0.0000 C   0  0  0  0  0  0  0  0  0  0  0  0
    9.2924   -1.5334    0.0000 C   0  0  0  0  0  0  0  0  0  0  0  0
   10.0041   -0.2999    0.0000 C   0  0  0  0  0  0  0  0  0  0  0  0
   10.0041   -1.1183    0.0000 C   0  0  0  0  0  0  0  0  0  0  0  0
  1 57  1  0  0  0  0
  1 60  1  0  0  0  0
  2 58  1  0  0  0  0
  2 61  1  0  0  0  0
  3 59  1  0  0  0  0
  3 62  1  0  0  0  0
 48  4  1  1  0  0  0
  4 66  1  0  0  0  0
 49  5  1  1  0  0  0
  5 67  1  0  0  0  0
 50  6  1  1  0  0  0
  6 68  1  0  0  0  0
 51  7  1  6  0  0  0
  7 71  1  0  0  0  0
 52  8  1  6  0  0  0
  8 70  1  0  0  0  0
 53  9  1  6  0  0  0
  9 69  1  0  0  0  0
 54 10  1  1  0  0  0
 10 74  1  0  0  0  0
 55 11  1  1  0  0  0
 11 73  1  0  0  0  0
 56 12  1  1  0  0  0
 12 72  1  0  0  0  0
 62 13  1  6  0  0  0
 13 75  1  0  0  0  0
 60 14  1  6  0  0  0
 14 76  1  0  0  0  0
 61 15  1  6  0  0  0
 15 77  1  0  0  0  0
 16 63  1  0  0  0  0
 16 80  1  0  0  0  0
 17 64  1  0  0  0  0
 17 79  1  0  0  0  0
 18 65  1  0  0  0  0
 18 78  1  0  0  0  0
 19 66  2  0  0  0  0
 20 67  2  0  0  0  0
 21 68  2  0  0  0  0
 22 69  2  0  0  0  0
 23 70  2  0  0  0  0
 24 71  2  0  0  0  0
 25 72  2  0  0  0  0
 26 73  2  0  0  0  0
 27 74  2  0  0  0  0
 28 87  1  0  0  0  0
 28 93  1  0  0  0  0
 29 88  1  0  0  0  0
 29 94  1  0  0  0  0
 30 89  1  0  0  0  0
 30 95  1  0  0  0  0
 31 78  2  0  0  0  0
 32 79  2  0  0  0  0
 33 80  2  0  0  0  0
 34104  2  0  0  0  0
 35105  2  0  0  0  0
 36103  2  0  0  0  0
 37109  2  0  0  0  0
 38112  1  0  0  0  0
 38113  1  0  0  0  0
 39112  2  0  0  0  0
 40 66  1  0  0  0  0
 41 67  1  0  0  0  0
 42 68  1  0  0  0  0
 43 96  1  0  0  0  0
 43109  1  0  0  0  0
 44 97  1  0  0  0  0
 44103  1  0  0  0  0
 45 98  1  0  0  0  0
 45105  1  0  0  0  0
 46 99  1  0  0  0  0
 46104  1  0  0  0  0
 47111  1  0  0  0  0
 47112  1  0  0  0  0
 48 51  1  0  0  0  0
 48 54  1  0  0  0  0
 49 52  1  0  0  0  0
 49 55  1  0  0  0  0
 50 53  1  0  0  0  0
 50 56  1  0  0  0  0
 51 57  1  0  0  0  0
 52 58  1  0  0  0  0
 53 59  1  0  0  0  0
 54 60  1  0  0  0  0
 55 61  1  0  0  0  0
 56 62  1  0  0  0  0
 57 63  1  1  0  0  0
 58 64  1  1  0  0  0
 59 65  1  1  0  0  0
 69 81  1  0  0  0  0
 70 82  1  0  0  0  0
 71 83  1  0  0  0  0
 72 84  1  0  0  0  0
 73 85  1  0  0  0  0
 74 86  1  0  0  0  0
 75 87  1  0  0  0  0
 76 88  1  0  0  0  0
 77 89  1  0  0  0  0
 78 90  1  0  0  0  0
 79 91  1  0  0  0  0
 80 92  1  0  0  0  0
 93 97  1  0  0  0  0
 94 98  1  0  0  0  0
 95 99  1  0  0  0  0
 96100  1  0  0  0  0
 96101  1  0  0  0  0
 96102  1  0  0  0  0
100106  1  0  0  0  0
101107  1  0  0  0  0
102108  1  0  0  0  0
103106  1  0  0  0  0
104107  1  0  0  0  0
105108  1  0  0  0  0
109110  1  0  0  0  0
110111  1  0  0  0  0
113114  1  0  0  0  0
114115  2  0  0  0  0
114116  1  0  0  0  0
115117  1  0  0  0  0
116118  2  0  0  0  0
117119  2  0  0  0  0
118119  1  0  0  0  0
M  END
> <PUBCHEM_COMPOUND_ID_TYPE>
0

> <PUBCHEM_TOTAL_CHARGE>
0

> <PUBCHEM_SUBSTANCE_ID>
310948580

> <PUBCHEM_SUBSTANCE_VERSION>
1

> <PUBCHEM_EXT_DATASOURCE_NAME>
4488

> <PUBCHEM_EXT_DATASOURCE_REGID>
SCHEMBL16126763

> <PUBCHEM_SUBSTANCE_COMMENT>
InChI=1S/C72H106N8O39/c1-39(81)104-36-49-56(108-42(4)84)59(117-68(73)94)62(111-45(7)87)65(114-49)101-32-29-98-26-23-76-52(90)15-19-72(80-55(93)18-22-79-71(97)107-35-48-13-11-10-12-14-48,20-16-53(91)77-24-27-99-30-33-102-66-63(112-46(8)88)60(118-69(74)95)57(109-43(5)85)50(115-66)37-105-40(2)82)21-17-54(92)78-25-28-100-31-34-103-67-64(113-47(9)89)61(119-70(75)96)58(110-44(6)86)51(116-67)38-106-41(3)83/h10-14,49-51,56-67H,15-38H2,1-9H3,(H2,73,94)(H2,74,95)(H2,75,96)(H,76,90)(H,77,91)(H,78,92)(H,79,97)(H,80,93)/t49-,50-,51-,56-,57-,58-,59+,60+,61+,62+,63+,64+,65+,66+,67+/m1/s1
InChIKey=ZDDUHZBGRAHYNU-AXSBWCCGSA-N

> <PUBCHEM_SUBSTANCE_SYNONYM>
SCHEMBL16126763

> <PUBCHEM_XREF_EXT_ID>
SCHEMBL16126763

> <PUBCHEM_EXT_DATASOURCE_URL>
https://www.surechembl.org/

> <PUBCHEM_EXT_SUBSTANCE_URL>
https://www.surechembl.org/chemical/SCHEMBL16126763

> <PUBCHEM_CID_ASSOCIATIONS>
117614129  1

> <PUBCHEM_COORDINATE_TYPE>
1
3

> <PUBCHEM_BONDANNOTATIONS>
54  10  5
55  11  5
56  12  5
62  13  6
60  14  6
61  15  6
48  4  5
49  5  5
57  63  5
58  64  5
59  65  5
50  6  5
51  7  6
52  8  6
53  9  6

$$$$
