310949016
  -OEChem-07211613022D

 24 25  0     0  0  0  0  0  0999 V2000
    1.9028    1.9202    0.0000 Cl  0  0  0  0  0  0  0  0  0  0  0  0
   -3.3037   -0.9809    0.0000 S   0  0  0  0  0  0  0  0  0  0  0  0
   -0.9541    1.9202    0.0000 F   0  0  0  0  0  0  0  0  0  0  0  0
   -1.6601   -1.8081    0.0000 F   0  0  0  0  0  0  0  0  0  0  0  0
    2.6087    0.6737    0.0000 O   0  0  0  0  0  0  0  0  0  0  0  0
    1.8918   -0.5727    0.0000 O   0  0  0  0  0  0  0  0  0  0  0  0
    0.4688    0.2656    0.0000 N   0  0  0  0  0  0  0  0  0  0  0  0
    0.4688    2.7585    0.0000 N   0  0  0  0  0  0  0  0  0  0  0  0
   -0.2482    0.6737    0.0000 C   0  0  0  0  0  0  0  0  0  0  0  0
   -0.2371    1.5120    0.0000 C   0  0  0  0  0  0  0  0  0  0  0  0
    1.1748    0.6737    0.0000 C   0  0  0  0  0  0  0  0  0  0  0  0
   -0.9431    0.2656    0.0000 C   0  0  0  0  0  0  0  0  0  0  0  0
    0.4688    1.9312    0.0000 C   0  0  0  0  0  0  0  0  0  0  0  0
    1.1858    1.5120    0.0000 C   0  0  0  0  0  0  0  0  0  0  0  0
    1.8918    0.2877    0.0000 C   0  0  0  0  0  0  0  0  0  0  0  0
   -0.9541   -0.5617    0.0000 C   0  0  0  0  0  0  0  0  0  0  0  0
   -1.6601    0.6627    0.0000 C   0  0  0  0  0  0  0  0  0  0  0  0
   -1.6601   -0.9698    0.0000 C   0  0  0  0  0  0  0  0  0  0  0  0
   -2.3771   -0.5617    0.0000 C   0  0  0  0  0  0  0  0  0  0  0  0
   -2.3660    0.2656    0.0000 C   0  0  0  0  0  0  0  0  0  0  0  0
   -1.5799   -2.7585    0.0000 C   0  0  0  0  0  0  0  0  0  0  0  0
    3.3037    0.2215    0.0000 C   0  0  0  0  0  0  0  0  0  0  0  0
   -1.5799   -2.7585    0.0000 C   0  0  0  0  0  0  0  0  0  0  0  0
   -1.5799   -2.7585    0.0000 C   0  0  0  0  0  0  0  0  0  0  0  0
  1 14  1  0  0  0  0
  2 19  1  0  0  0  0
  2 21  1  0  0  0  0
  3 10  1  0  0  0  0
  4 18  1  0  0  0  0
  5 15  1  0  0  0  0
  5 22  1  0  0  0  0
  6 15  2  0  0  0  0
  7  9  2  0  0  0  0
  7 11  1  0  0  0  0
  8 13  1  0  0  0  0
  9 10  1  0  0  0  0
  9 12  1  0  0  0  0
 10 13  2  0  0  0  0
 11 14  2  0  0  0  0
 11 15  1  0  0  0  0
 12 16  1  0  0  0  0
 12 17  2  0  0  0  0
 13 14  1  0  0  0  0
 16 18  2  0  0  0  0
 17 20  1  0  0  0  0
 18 19  1  0  0  0  0
 19 20  2  0  0  0  0
 21 23  1  0  0  0  0
 21 24  1  0  0  0  0
M  END
> <PUBCHEM_COMPOUND_ID_TYPE>
0

> <PUBCHEM_TOTAL_CHARGE>
0

> <PUBCHEM_SUBSTANCE_ID>
310949016

> <PUBCHEM_SUBSTANCE_VERSION>
1

> <PUBCHEM_EXT_DATASOURCE_NAME>
4488

> <PUBCHEM_EXT_DATASOURCE_REGID>
SCHEMBL16127206

> <PUBCHEM_SUBSTANCE_COMMENT>
InChI=1S/C16H15ClF2N2O2S/c1-7(2)24-10-5-4-8(6-9(10)18)14-12(19)13(20)11(17)15(21-14)16(22)23-3/h4-7H,1-3H3,(H2,20,21)
InChIKey=IKWIQXNAYSTLSI-UHFFFAOYSA-N

> <PUBCHEM_SUBSTANCE_SYNONYM>
SCHEMBL16127206

> <PUBCHEM_XREF_EXT_ID>
SCHEMBL16127206

> <PUBCHEM_EXT_DATASOURCE_URL>
https://www.surechembl.org/

> <PUBCHEM_EXT_SUBSTANCE_URL>
https://www.surechembl.org/chemical/SCHEMBL16127206

> <PUBCHEM_CID_ASSOCIATIONS>
117614522  1

> <PUBCHEM_COORDINATE_TYPE>
1
3

$$$$
