310941466
  -OEChem-07211613022D

 19 19  0     1  0  0  0  0  0999 V2000
   -0.5243    1.8255    0.0000 P   0  0  3  0  0  0  0  0  0  0  0  0
   -0.1006   -0.3308    0.0000 O   0  0  0  0  0  0  0  0  0  0  0  0
   -0.1006   -0.3308    0.0000 O   0  0  0  0  0  0  0  0  0  0  0  0
   -0.5243    2.6606    0.0000 O   0  0  0  0  0  0  0  0  0  0  0  0
    0.2982    1.8255    0.0000 O   0  0  0  0  0  0  0  0  0  0  0  0
   -3.0296   -2.4870    0.0000 O   0  0  0  0  0  0  0  0  0  0  0  0
    0.0365    1.1026    0.0000 N   0  0  0  0  0  0  0  0  0  0  0  0
   -0.5243    0.3797    0.0000 C   0  0  3  0  0  0  0  0  0  0  0  0
   -1.7708   -0.3308    0.0000 C   0  0  0  0  0  0  0  0  0  0  0  0
   -0.1006   -0.3308    0.0000 C   0  0  0  0  0  0  0  0  0  0  0  0
   -1.3469    0.3922    0.0000 C   0  0  0  0  0  0  0  0  0  0  0  0
   -2.5934   -0.3432    0.0000 C   0  0  0  0  0  0  0  0  0  0  0  0
   -1.3469   -1.0536    0.0000 C   0  0  0  0  0  0  0  0  0  0  0  0
   -2.5934   -1.7641    0.0000 C   0  0  0  0  0  0  0  0  0  0  0  0
   -3.0046   -1.0412    0.0000 C   0  0  0  0  0  0  0  0  0  0  0  0
   -1.7583   -1.7641    0.0000 C   0  0  0  0  0  0  0  0  0  0  0  0
    1.6423   -2.2337    0.0000 C   0  0  0  0  0  0  0  0  0  0  0  0
    2.3360   -2.6606    0.0000 C   0  0  0  0  0  0  0  0  0  0  0  0
    3.0296   -2.2337    0.0000 C   0  0  0  0  0  0  0  0  0  0  0  0
  1  4  2  0  0  0  0
  1  5  1  0  0  0  0
  1  7  1  0  0  0  0
  2 10  1  0  0  0  0
  2 17  1  0  0  0  0
  3 10  2  0  0  0  0
  6 14  1  0  0  0  0
  7  8  1  0  0  0  0
  8 10  1  0  0  0  0
  8 11  1  0  0  0  0
  9 11  1  0  0  0  0
  9 12  2  0  0  0  0
  9 13  1  0  0  0  0
 12 15  1  0  0  0  0
 13 16  2  0  0  0  0
 14 15  2  0  0  0  0
 14 16  1  0  0  0  0
 17 18  1  0  0  0  0
 18 19  1  0  0  0  0
M  END
> <PUBCHEM_COMPOUND_ID_TYPE>
0

> <PUBCHEM_TOTAL_CHARGE>
0

> <PUBCHEM_SUBSTANCE_ID>
310941466

> <PUBCHEM_SUBSTANCE_VERSION>
1

> <PUBCHEM_EXT_DATASOURCE_NAME>
4488

> <PUBCHEM_EXT_DATASOURCE_REGID>
SCHEMBL16119497

> <PUBCHEM_SUBSTANCE_COMMENT>
InChI=1S/C12H18NO5P/c1-2-7-18-12(15)11(13-19(16)17)8-9-3-5-10(14)6-4-9/h3-6,11,14,19H,2,7-8H2,1H3,(H2,13,16,17)
InChIKey=CZSBIDJBHBVXCE-UHFFFAOYSA-N

> <PUBCHEM_SUBSTANCE_SYNONYM>
SCHEMBL16119497

> <PUBCHEM_XREF_EXT_ID>
SCHEMBL16119497

> <PUBCHEM_EXT_DATASOURCE_URL>
https://www.surechembl.org/

> <PUBCHEM_EXT_SUBSTANCE_URL>
https://www.surechembl.org/chemical/SCHEMBL16119497

> <PUBCHEM_CID_ASSOCIATIONS>
117608288  1

> <PUBCHEM_COORDINATE_TYPE>
1
3

$$$$
