310939985
  -OEChem-07211613022D

 37 39  0     0  0  0  0  0  0999 V2000
   -3.8971   -3.3418    0.0000 Br  0  0  0  0  0  0  0  0  0  0  0  0
   -3.8971   -4.9918    0.0000 Cl  0  0  0  0  0  0  0  0  0  0  0  0
   -1.0392   -4.9918    0.0000 O   0  0  0  0  0  0  0  0  0  0  0  0
    0.3897   -2.5168    0.0000 O   0  0  0  0  0  0  0  0  0  0  0  0
    2.1759   -5.1981    0.0000 O   0  0  0  0  0  0  0  0  0  0  0  0
    2.8904   -3.9606    0.0000 O   0  0  0  0  0  0  0  0  0  0  0  0
    1.3252   -7.4372    0.0000 O   0  0  0  0  0  0  0  0  0  0  0  0
   -0.3248   -3.7543    0.0000 N   0  0  0  0  0  0  0  0  0  0  0  0
    1.4614   -3.9606    0.0000 N   0  0  0  0  0  0  0  0  0  0  0  0
   -1.7537   -3.7543    0.0000 C   0  0  0  0  0  0  0  0  0  0  0  0
    0.3897   -3.3418    0.0000 C   0  0  0  0  0  0  0  0  0  0  0  0
    1.1042   -3.7543    0.0000 C   0  0  0  0  0  0  0  0  0  0  0  0
   -1.0392   -3.3418    0.0000 C   0  0  0  0  0  0  0  0  0  0  0  0
   -1.7537   -4.5793    0.0000 C   0  0  0  0  0  0  0  0  0  0  0  0
   -0.3248   -4.5793    0.0000 C   0  0  0  0  0  0  0  0  0  0  0  0
    0.0877   -5.2938    0.0000 C   0  0  0  0  0  0  0  0  0  0  0  0
   -2.4682   -3.3418    0.0000 C   0  0  0  0  0  0  0  0  0  0  0  0
   -3.1827   -3.7543    0.0000 C   0  0  0  0  0  0  0  0  0  0  0  0
   -3.1827   -4.5793    0.0000 C   0  0  0  0  0  0  0  0  0  0  0  0
   -2.4682   -4.9918    0.0000 C   0  0  0  0  0  0  0  0  0  0  0  0
    1.1042   -4.5793    0.0000 C   0  0  0  0  0  0  0  0  0  0  0  0
    1.8187   -3.3418    0.0000 C   0  0  0  0  0  0  0  0  0  0  0  0
   -0.3248   -6.0083    0.0000 C   0  0  0  0  0  0  0  0  0  0  0  0
    1.8187   -4.9918    0.0000 C   0  0  0  0  0  0  0  0  0  0  0  0
    2.5332   -3.7543    0.0000 C   0  0  0  0  0  0  0  0  0  0  0  0
    2.1759   -4.3731    0.0000 C   0  0  0  0  0  0  0  0  0  0  0  0
    0.9127   -5.2938    0.0000 C   0  0  0  0  0  0  0  0  0  0  0  0
    0.0877   -6.7228    0.0000 C   0  0  0  0  0  0  0  0  0  0  0  0
    0.9127   -6.7228    0.0000 C   0  0  0  0  0  0  0  0  0  0  0  0
    1.3252   -6.0083    0.0000 C   0  0  0  0  0  0  0  0  0  0  0  0
    2.8904   -5.6106    0.0000 C   0  0  0  0  0  0  0  0  0  0  0  0
   -1.1498   -6.0083    0.0000 C   0  0  0  0  0  0  0  0  0  0  0  0
   -0.0866   -4.4418    0.0000 C   0  0  0  0  0  0  0  0  0  0  0  0
    3.6048   -5.1981    0.0000 C   0  0  0  0  0  0  0  0  0  0  0  0
    3.6048   -6.0231    0.0000 C   0  0  0  0  0  0  0  0  0  0  0  0
    2.8904   -6.4356    0.0000 C   0  0  0  0  0  0  0  0  0  0  0  0
    2.1502   -7.4372    0.0000 C   0  0  0  0  0  0  0  0  0  0  0  0
  1 18  1  0  0  0  0
  2 19  1  0  0  0  0
  3 14  1  0  0  0  0
  3 33  1  0  0  0  0
  4 11  2  0  0  0  0
  5 26  1  0  0  0  0
  5 31  1  0  0  0  0
  6 26  2  0  0  0  0
  7 29  1  0  0  0  0
  7 37  1  0  0  0  0
  8 11  1  0  0  0  0
  8 13  1  0  0  0  0
  8 15  1  0  0  0  0
  9 24  1  0  0  0  0
  9 25  1  0  0  0  0
  9 26  1  0  0  0  0
 10 13  1  0  0  0  0
 10 14  1  0  0  0  0
 10 17  2  0  0  0  0
 11 12  1  0  0  0  0
 12 21  1  0  0  0  0
 12 22  1  0  0  0  0
 14 20  2  0  0  0  0
 15 16  1  0  0  0  0
 16 23  2  0  0  0  0
 16 27  1  0  0  0  0
 17 18  1  0  0  0  0
 18 19  2  0  0  0  0
 19 20  1  0  0  0  0
 21 24  1  0  0  0  0
 22 25  1  0  0  0  0
 23 28  1  0  0  0  0
 23 32  1  0  0  0  0
 27 30  2  0  0  0  0
 28 29  2  0  0  0  0
 29 30  1  0  0  0  0
 31 34  1  0  0  0  0
 31 35  1  0  0  0  0
 31 36  1  0  0  0  0
M  END
> <PUBCHEM_COMPOUND_ID_TYPE>
0

> <PUBCHEM_TOTAL_CHARGE>
0

> <PUBCHEM_SUBSTANCE_ID>
310939985

> <PUBCHEM_SUBSTANCE_VERSION>
1

> <PUBCHEM_EXT_DATASOURCE_NAME>
4488

> <PUBCHEM_EXT_DATASOURCE_REGID>
SCHEMBL16117915

> <PUBCHEM_SUBSTANCE_COMMENT>
InChI=1S/C28H36BrClN2O5/c1-18-13-22(35-5)8-7-20(18)16-32(17-21-14-23(29)24(30)15-25(21)36-6)26(33)19-9-11-31(12-10-19)27(34)37-28(2,3)4/h7-8,13-15,19H,9-12,16-17H2,1-6H3
InChIKey=VUBLNDGHSLUSRC-UHFFFAOYSA-N

> <PUBCHEM_SUBSTANCE_SYNONYM>
SCHEMBL16117915

> <PUBCHEM_XREF_EXT_ID>
SCHEMBL16117915

> <PUBCHEM_EXT_DATASOURCE_URL>
https://www.surechembl.org/

> <PUBCHEM_EXT_SUBSTANCE_URL>
https://www.surechembl.org/chemical/SCHEMBL16117915

> <PUBCHEM_CID_ASSOCIATIONS>
117607151  1

> <PUBCHEM_COORDINATE_TYPE>
1
3

$$$$
