310945425
  -OEChem-07211613022D

 17 17  0     0  0  0  0  0  0999 V2000
   -0.3506    1.6637    0.0000 O   0  0  0  0  0  0  0  0  0  0  0  0
   -0.3781   -1.6637    0.0000 O   0  0  0  0  0  0  0  0  0  0  0  0
    1.0381   -1.6774    0.0000 O   0  0  0  0  0  0  0  0  0  0  0  0
    0.3231   -0.4125    0.0000 N   0  0  0  0  0  0  0  0  0  0  0  0
   -0.3506    1.6637    0.0000 N   0  0  0  0  0  0  0  0  0  0  0  0
    1.7806    1.2375    0.0000 N   0  0  0  0  0  0  0  0  0  0  0  0
    0.3506    1.2787    0.0000 C   0  0  0  0  0  0  0  0  0  0  0  0
    1.0656    0.8524    0.0000 C   0  0  0  0  0  0  0  0  0  0  0  0
   -0.3369    0.8800    0.0000 C   0  0  0  0  0  0  0  0  0  0  0  0
    0.2956   -1.2100    0.0000 C   0  0  0  0  0  0  0  0  0  0  0  0
    1.0518    0.0550    0.0000 C   0  0  0  0  0  0  0  0  0  0  0  0
   -0.3781    0.0550    0.0000 C   0  0  0  0  0  0  0  0  0  0  0  0
    1.0518    1.6774    0.0000 C   0  0  0  0  0  0  0  0  0  0  0  0
   -1.0931   -1.1962    0.0000 C   0  0  0  0  0  0  0  0  0  0  0  0
   -0.3643   -0.7700    0.0000 C   0  0  0  0  0  0  0  0  0  0  0  0
   -1.0931   -0.3712    0.0000 C   0  0  0  0  0  0  0  0  0  0  0  0
   -1.7806   -1.6224    0.0000 C   0  0  0  0  0  0  0  0  0  0  0  0
  1  5  1  0  0  0  0
  1  7  1  0  0  0  0
  2 10  1  0  0  0  0
  2 14  1  0  0  0  0
  3 10  2  0  0  0  0
  4 10  1  0  0  0  0
  4 11  1  0  0  0  0
  4 12  1  0  0  0  0
  6 13  1  0  0  0  0
  7  8  1  0  0  0  0
  7  9  1  0  0  0  0
  7 13  1  0  0  0  0
  8 11  1  0  0  0  0
  9 12  1  0  0  0  0
 14 15  1  0  0  0  0
 14 16  1  0  0  0  0
 14 17  1  0  0  0  0
M  END
> <PUBCHEM_COMPOUND_ID_TYPE>
0

> <PUBCHEM_TOTAL_CHARGE>
0

> <PUBCHEM_SUBSTANCE_ID>
310945425

> <PUBCHEM_SUBSTANCE_VERSION>
1

> <PUBCHEM_EXT_DATASOURCE_NAME>
4488

> <PUBCHEM_EXT_DATASOURCE_REGID>
SCHEMBL16123523

> <PUBCHEM_SUBSTANCE_COMMENT>
InChI=1S/C11H23N3O3/c1-10(2,3)16-9(15)14-6-4-11(8-12,17-13)5-7-14/h4-8,12-13H2,1-3H3
InChIKey=SKQWUZLVPCNCIC-UHFFFAOYSA-N

> <PUBCHEM_SUBSTANCE_SYNONYM>
SCHEMBL16123523

> <PUBCHEM_XREF_EXT_ID>
SCHEMBL16123523

> <PUBCHEM_EXT_DATASOURCE_URL>
https://www.surechembl.org/

> <PUBCHEM_EXT_SUBSTANCE_URL>
https://www.surechembl.org/chemical/SCHEMBL16123523

> <PUBCHEM_CID_ASSOCIATIONS>
117611471  1

> <PUBCHEM_COORDINATE_TYPE>
1
3

$$$$
