310930965
  -OEChem-07211613022D

 32 35  0     0  0  0  0  0  0999 V2000
    1.4279   -3.2692    0.0000 O   0  0  0  0  0  0  0  0  0  0  0  0
    4.2087   -0.6764    0.0000 O   0  0  0  0  0  0  0  0  0  0  0  0
    0.7892   -1.0897    0.0000 O   0  0  0  0  0  0  0  0  0  0  0  0
    1.9540   -4.6220    0.0000 N   0  0  0  0  0  0  0  0  0  0  0  0
    3.2317   -4.3590    0.0000 N   0  0  0  0  0  0  0  0  0  0  0  0
    2.8559   -5.7870    0.0000 N   0  0  0  0  0  0  0  0  0  0  0  0
    2.6680   -5.0354    0.0000 N   0  0  0  0  0  0  0  0  0  0  0  0
    2.8559   -3.6450    0.0000 C   0  0  0  0  0  0  0  0  0  0  0  0
    2.0292   -3.8329    0.0000 C   0  0  0  0  0  0  0  0  0  0  0  0
    3.1941   -2.8935    0.0000 C   0  0  0  0  0  0  0  0  0  0  0  0
    2.3298   -3.0062    0.0000 C   0  0  0  0  0  0  0  0  0  0  0  0
    2.8559   -5.1481    0.0000 C   0  0  0  0  0  0  0  0  0  0  0  0
    1.2401   -5.0354    0.0000 C   0  0  0  0  0  0  0  0  0  0  0  0
    2.7056   -2.2547    0.0000 C   0  0  0  0  0  0  0  0  0  0  0  0
    1.5031   -3.1190    0.0000 C   0  0  0  0  0  0  0  0  0  0  0  0
    3.9833   -2.8183    0.0000 C   0  0  0  0  0  0  0  0  0  0  0  0
    2.7807   -2.4049    0.0000 C   0  0  0  0  0  0  0  0  0  0  0  0
    1.2401   -5.8621    0.0000 C   0  0  0  0  0  0  0  0  0  0  0  0
    3.0438   -1.5031    0.0000 C   0  0  0  0  0  0  0  0  0  0  0  0
    1.0146   -2.4801    0.0000 C   0  0  0  0  0  0  0  0  0  0  0  0
    4.3214   -2.0668    0.0000 C   0  0  0  0  0  0  0  0  0  0  0  0
    2.1420   -1.6158    0.0000 C   0  0  0  0  0  0  0  0  0  0  0  0
    3.8705   -1.3904    0.0000 C   0  0  0  0  0  0  0  0  0  0  0  0
    1.3152   -1.7286    0.0000 C   0  0  0  0  0  0  0  0  0  0  0  0
    1.9540   -6.2755    0.0000 C   0  0  0  0  0  0  0  0  0  0  0  0
    0.5261   -6.2755    0.0000 C   0  0  0  0  0  0  0  0  0  0  0  0
    1.9540   -7.1022    0.0000 C   0  0  0  0  0  0  0  0  0  0  0  0
    2.6680   -5.8621    0.0000 C   0  0  0  0  0  0  0  0  0  0  0  0
    0.5261   -7.1022    0.0000 C   0  0  0  0  0  0  0  0  0  0  0  0
    1.2401   -7.5155    0.0000 C   0  0  0  0  0  0  0  0  0  0  0  0
    3.7202    0.0000    0.0000 C   0  0  0  0  0  0  0  0  0  0  0  0
    0.0000   -1.2025    0.0000 C   0  0  0  0  0  0  0  0  0  0  0  0
  1  9  2  0  0  0  0
  2 23  1  0  0  0  0
  2 31  1  0  0  0  0
  3 24  1  0  0  0  0
  3 32  1  0  0  0  0
  4  9  1  0  0  0  0
  4 12  1  0  0  0  0
  4 13  1  0  0  0  0
  5  8  1  0  0  0  0
  5 12  1  0  0  0  0
  6 12  2  3  0  0  0
  7 28  3  0  0  0  0
  8  9  1  0  0  0  0
  8 10  1  0  0  0  0
  8 11  1  0  0  0  0
 10 14  2  0  0  0  0
 10 16  1  0  0  0  0
 11 15  2  0  0  0  0
 11 17  1  0  0  0  0
 13 18  1  0  0  0  0
 14 19  1  0  0  0  0
 15 20  1  0  0  0  0
 16 21  2  0  0  0  0
 17 22  2  0  0  0  0
 18 25  2  0  0  0  0
 18 26  1  0  0  0  0
 19 23  2  0  0  0  0
 20 24  2  0  0  0  0
 21 23  1  0  0  0  0
 22 24  1  0  0  0  0
 25 27  1  0  0  0  0
 25 28  1  0  0  0  0
 26 29  2  0  0  0  0
 27 30  2  0  0  0  0
 29 30  1  0  0  0  0
M  END
> <PUBCHEM_COMPOUND_ID_TYPE>
0

> <PUBCHEM_TOTAL_CHARGE>
0

> <PUBCHEM_SUBSTANCE_ID>
310930965

> <PUBCHEM_SUBSTANCE_VERSION>
1

> <PUBCHEM_EXT_DATASOURCE_NAME>
4488

> <PUBCHEM_EXT_DATASOURCE_REGID>
SCHEMBL16108265

> <PUBCHEM_SUBSTANCE_COMMENT>
InChI=1S/C25H22N4O3/c1-31-21-11-7-19(8-12-21)25(20-9-13-22(32-2)14-10-20)23(30)29(24(27)28-25)16-18-6-4-3-5-17(18)15-26/h3-14H,16H2,1-2H3,(H2,27,28)
InChIKey=YZQVDBNBXVVWJA-UHFFFAOYSA-N

> <PUBCHEM_SUBSTANCE_SYNONYM>
SCHEMBL16108265

> <PUBCHEM_XREF_EXT_ID>
SCHEMBL16108265

> <PUBCHEM_EXT_DATASOURCE_URL>
https://www.surechembl.org/

> <PUBCHEM_EXT_SUBSTANCE_URL>
https://www.surechembl.org/chemical/SCHEMBL16108265

> <PUBCHEM_CID_ASSOCIATIONS>
117599905  1

> <PUBCHEM_COORDINATE_TYPE>
1
3

$$$$
