310940502
  -OEChem-07211613022D

 26 29  0     0  0  0  0  0  0999 V2000
    0.1133    1.6339    0.0000 F   0  0  0  0  0  0  0  0  0  0  0  0
   -2.0221   -2.0706    0.0000 O   0  0  0  0  0  0  0  0  0  0  0  0
    2.0221   -0.6956    0.0000 O   0  0  0  0  0  0  0  0  0  0  0  0
    0.2427   -1.9736    0.0000 N   0  0  0  0  0  0  0  0  0  0  0  0
   -1.2941   -0.8412    0.0000 N   0  0  0  0  0  0  0  0  0  0  0  0
   -0.7442   -2.8956    0.0000 N   0  0  0  0  0  0  0  0  0  0  0  0
   -0.0324   -3.2677    0.0000 N   0  0  0  0  0  0  0  0  0  0  0  0
   -0.5985   -2.0544    0.0000 C   0  0  0  0  0  0  0  0  0  0  0  0
    0.5824   -2.7015    0.0000 C   0  0  0  0  0  0  0  0  0  0  0  0
   -1.3265   -1.6501    0.0000 C   0  0  0  0  0  0  0  0  0  0  0  0
    0.7118   -1.3103    0.0000 C   0  0  0  0  0  0  0  0  0  0  0  0
    1.4074   -2.7662    0.0000 C   0  0  0  0  0  0  0  0  0  0  0  0
    1.5206   -1.3751    0.0000 C   0  0  0  0  0  0  0  0  0  0  0  0
   -1.3427    0.8089    0.0000 C   0  0  0  0  0  0  0  0  0  0  0  0
   -0.5824   -0.4368    0.0000 C   0  0  0  0  0  0  0  0  0  0  0  0
   -2.0221   -0.4368    0.0000 C   0  0  0  0  0  0  0  0  0  0  0  0
   -1.3265    1.6501    0.0000 C   0  0  0  0  0  0  0  0  0  0  0  0
    1.8765   -2.1192    0.0000 C   0  0  0  0  0  0  0  0  0  0  0  0
   -0.5824    0.3882    0.0000 C   0  0  0  0  0  0  0  0  0  0  0  0
   -2.0221    0.4044    0.0000 C   0  0  0  0  0  0  0  0  0  0  0  0
   -0.5985    2.0544    0.0000 C   0  0  0  0  0  0  0  0  0  0  0  0
   -2.0221    2.0383    0.0000 C   0  0  0  0  0  0  0  0  0  0  0  0
   -0.5985    2.8795    0.0000 C   0  0  0  0  0  0  0  0  0  0  0  0
    0.1133    1.6339    0.0000 C   0  0  0  0  0  0  0  0  0  0  0  0
   -2.0221    2.8633    0.0000 C   0  0  0  0  0  0  0  0  0  0  0  0
   -1.3103    3.2677    0.0000 C   0  0  0  0  0  0  0  0  0  0  0  0
  1 24  1  0  0  0  0
  2 10  2  0  0  0  0
  3 13  1  0  0  0  0
  4  8  1  0  0  0  0
  4  9  1  0  0  0  0
  4 11  1  0  0  0  0
  5 10  1  0  0  0  0
  5 15  1  0  0  0  0
  5 16  1  0  0  0  0
  6  7  1  0  0  0  0
  6  8  2  0  0  0  0
  7  9  2  0  0  0  0
  8 10  1  0  0  0  0
  9 12  1  0  0  0  0
 11 13  2  0  0  0  0
 12 18  2  0  0  0  0
 13 18  1  0  0  0  0
 14 17  1  0  0  0  0
 14 19  1  0  0  0  0
 14 20  1  0  0  0  0
 15 19  1  0  0  0  0
 16 20  1  0  0  0  0
 17 21  2  0  0  0  0
 17 22  1  0  0  0  0
 21 23  1  0  0  0  0
 21 24  1  0  0  0  0
 22 25  2  0  0  0  0
 23 26  2  0  0  0  0
 25 26  1  0  0  0  0
M  END
> <PUBCHEM_COMPOUND_ID_TYPE>
0

> <PUBCHEM_TOTAL_CHARGE>
0

> <PUBCHEM_SUBSTANCE_ID>
310940502

> <PUBCHEM_SUBSTANCE_VERSION>
1

> <PUBCHEM_EXT_DATASOURCE_NAME>
4488

> <PUBCHEM_EXT_DATASOURCE_REGID>
SCHEMBL16118456

> <PUBCHEM_SUBSTANCE_COMMENT>
InChI=1S/C19H19FN4O2/c20-11-14-3-1-2-4-16(14)13-7-9-23(10-8-13)19(26)18-22-21-17-6-5-15(25)12-24(17)18/h1-6,12-13,25H,7-11H2
InChIKey=BMKBWRNKSFNZTO-UHFFFAOYSA-N

> <PUBCHEM_SUBSTANCE_SYNONYM>
SCHEMBL16118456

> <PUBCHEM_XREF_EXT_ID>
SCHEMBL16118456

> <PUBCHEM_EXT_DATASOURCE_URL>
https://www.surechembl.org/

> <PUBCHEM_EXT_SUBSTANCE_URL>
https://www.surechembl.org/chemical/SCHEMBL16118456

> <PUBCHEM_CID_ASSOCIATIONS>
117607517  1

> <PUBCHEM_COORDINATE_TYPE>
1
3

$$$$
