310941909
  -OEChem-07211613022D

 32 37  0     1  0  0  0  0  0999 V2000
   -0.2872   -0.3440    0.0000 O   0  0  0  0  0  0  0  0  0  0  0  0
   -2.1144   -0.8647    0.0000 O   0  0  0  0  0  0  0  0  0  0  0  0
   -2.7834    0.2384    0.0000 O   0  0  0  0  0  0  0  0  0  0  0  0
   -3.2879    0.4028    0.0000 N   0  0  0  0  0  0  0  0  0  0  0  0
    1.9527    0.9483    0.0000 N   0  0  0  0  0  0  0  0  0  0  0  0
    2.7710   -0.1860    0.0000 N   0  0  0  0  0  0  0  0  0  0  0  0
    3.2879    0.5175    0.0000 N   0  0  0  0  0  0  0  0  0  0  0  0
    0.4738    0.9483    0.0000 C   0  0  0  0  0  0  0  0  0  0  0  0
   -2.8429   -0.3153    0.0000 C   0  0  3  0  0  0  0  0  0  0  0  0
   -2.8429    1.1206    0.0000 C   0  0  3  0  0  0  0  0  0  0  0  0
    0.4450    0.0869    0.0000 C   0  0  0  0  0  0  0  0  0  0  0  0
   -0.2872    1.3933    0.0000 C   0  0  0  0  0  0  0  0  0  0  0  0
    1.9383    0.0869    0.0000 C   0  0  0  0  0  0  0  0  0  0  0  0
   -1.5793    0.3884    0.0000 C   0  0  0  0  0  0  0  0  0  0  0  0
    1.1917    1.3790    0.0000 C   0  0  0  0  0  0  0  0  0  0  0  0
    1.2348   -0.3296    0.0000 C   0  0  0  0  0  0  0  0  0  0  0  0
   -2.0101    1.1493    0.0000 C   0  0  0  0  0  0  0  0  0  0  0  0
   -1.9957   -0.3296    0.0000 C   0  0  0  0  0  0  0  0  0  0  0  0
   -2.7716   -0.4656    0.0000 C   0  0  0  0  0  0  0  0  0  0  0  0
   -2.4838    0.0437    0.0000 C   0  0  0  0  0  0  0  0  0  0  0  0
   -2.4695    0.6755    0.0000 C   0  0  0  0  0  0  0  0  0  0  0  0
   -1.1199    1.4077    0.0000 C   0  0  0  0  0  0  0  0  0  0  0  0
   -0.7179    2.0970    0.0000 C   0  0  0  0  0  0  0  0  0  0  0  0
   -0.7322    0.4028    0.0000 C   0  0  0  0  0  0  0  0  0  0  0  0
    2.7423    1.2211    0.0000 C   0  0  0  0  0  0  0  0  0  0  0  0
   -1.3751   -0.4422    0.0000 C   0  0  0  0  0  0  0  0  0  0  0  0
   -0.6944   -0.8882    0.0000 C   0  0  0  0  0  0  0  0  0  0  0  0
   -0.6944   -1.6979    0.0000 C   0  0  0  0  0  0  0  0  0  0  0  0
   -0.0021   -0.4774    0.0000 C   0  0  0  0  0  0  0  0  0  0  0  0
   -0.0021   -2.0970    0.0000 C   0  0  0  0  0  0  0  0  0  0  0  0
    0.7020   -0.8764    0.0000 C   0  0  0  0  0  0  0  0  0  0  0  0
    0.7020   -1.6862    0.0000 C   0  0  0  0  0  0  0  0  0  0  0  0
  1 11  1  0  0  0  0
  1 24  1  0  0  0  0
  2 19  1  0  0  0  0
  2 26  1  0  0  0  0
  3 19  2  0  0  0  0
  4  9  1  0  0  0  0
  4 10  1  0  0  0  0
  4 19  1  0  0  0  0
  5 13  1  0  0  0  0
  5 15  1  0  0  0  0
  5 25  1  0  0  0  0
  6  7  1  0  0  0  0
  6 13  2  0  0  0  0
  7 25  2  0  0  0  0
  8 11  1  0  0  0  0
  8 12  1  0  0  0  0
  8 15  2  0  0  0  0
  9 18  1  6  0  0  0
  9 20  1  0  0  0  0
 10 17  1  6  0  0  0
 10 21  1  0  0  0  0
 11 16  2  0  0  0  0
 12 22  1  0  0  0  0
 12 23  1  0  0  0  0
 13 16  1  0  0  0  0
 14 17  1  0  0  0  0
 14 18  1  0  0  0  0
 14 24  1  6  0  0  0
 20 21  1  0  0  0  0
 22 23  1  0  0  0  0
 26 27  1  0  0  0  0
 27 28  2  0  0  0  0
 27 29  1  0  0  0  0
 28 30  1  0  0  0  0
 29 31  2  0  0  0  0
 30 32  2  0  0  0  0
 31 32  1  0  0  0  0
M  END
> <PUBCHEM_COMPOUND_ID_TYPE>
0

> <PUBCHEM_TOTAL_CHARGE>
0

> <PUBCHEM_SUBSTANCE_ID>
310941909

> <PUBCHEM_SUBSTANCE_VERSION>
1

> <PUBCHEM_EXT_DATASOURCE_NAME>
4488

> <PUBCHEM_EXT_DATASOURCE_REGID>
SCHEMBL16119941

> <PUBCHEM_SUBSTANCE_COMMENT>
InChI=1S/C25H28N4O3/c30-25(32-14-17-4-2-1-3-5-17)29-20-8-9-21(29)11-18(10-20)15-31-23-12-24-27-26-16-28(24)13-22(23)19-6-7-19/h1-5,12-13,16,18-21H,6-11,14-15H2/t18-,20-,21+
InChIKey=UUFCPWSLUYNDMT-ZKTXZKFHSA-N

> <PUBCHEM_SUBSTANCE_SYNONYM>
SCHEMBL16119941

> <PUBCHEM_XREF_EXT_ID>
SCHEMBL16119941

> <PUBCHEM_EXT_DATASOURCE_URL>
https://www.surechembl.org/

> <PUBCHEM_EXT_SUBSTANCE_URL>
https://www.surechembl.org/chemical/SCHEMBL16119941

> <PUBCHEM_CID_ASSOCIATIONS>
117608641  1

> <PUBCHEM_COORDINATE_TYPE>
1
3

> <PUBCHEM_BONDANNOTATIONS>
10  17  6
14  24  6
9  18  6

$$$$
