310948295
  -OEChem-07211613022D

 47 52  0     0  0  0  0  0  0999 V2000
    3.1511   -2.1782    0.0000 S   0  0  0  0  0  0  0  0  0  0  0  0
    2.5430    3.9539    0.0000 F   0  0  0  0  0  0  0  0  0  0  0  0
    3.2694    3.1262    0.0000 F   0  0  0  0  0  0  0  0  0  0  0  0
    3.1511    0.6767    0.0000 F   0  0  0  0  0  0  0  0  0  0  0  0
   -1.2580    1.9943    0.0000 O   0  0  0  0  0  0  0  0  0  0  0  0
    1.6477    3.2951    0.0000 O   0  0  0  0  0  0  0  0  0  0  0  0
    2.5430    2.2984    0.0000 O   0  0  0  0  0  0  0  0  0  0  0  0
    3.1511   -2.1782    0.0000 O   0  0  0  0  0  0  0  0  0  0  0  0
    3.1511   -2.1782    0.0000 O   0  0  0  0  0  0  0  0  0  0  0  0
   -4.8730   -0.6072    0.0000 O   0  0  0  0  0  0  0  0  0  0  0  0
    4.3843   -0.0328    0.0000 O   0  0  0  0  0  0  0  0  0  0  0  0
   -1.7985    0.7780    0.0000 N   0  0  0  0  0  0  0  0  0  0  0  0
   -2.2884   -1.4180    0.0000 N   0  0  0  0  0  0  0  0  0  0  0  0
   -3.0655   -1.1646    0.0000 N   0  0  0  0  0  0  0  0  0  0  0  0
   -0.5653   -0.0159    0.0000 C   0  0  0  0  0  0  0  0  0  0  0  0
   -0.9708    0.6936    0.0000 C   0  0  0  0  0  0  0  0  0  0  0  0
   -0.9708   -0.7254    0.0000 C   0  0  0  0  0  0  0  0  0  0  0  0
   -0.6329    1.4538    0.0000 C   0  0  0  0  0  0  0  0  0  0  0  0
   -1.7985   -0.7254    0.0000 C   0  0  0  0  0  0  0  0  0  0  0  0
    0.1780    1.6227    0.0000 C   0  0  0  0  0  0  0  0  0  0  0  0
    0.6848   -0.7254    0.0000 C   0  0  0  0  0  0  0  0  0  0  0  0
    0.2793   -0.0497    0.0000 C   0  0  0  0  0  0  0  0  0  0  0  0
    1.2253    2.5855    0.0000 C   0  0  0  0  0  0  0  0  0  0  0  0
    1.4956   -0.7423    0.0000 C   0  0  0  0  0  0  0  0  0  0  0  0
    1.7828    1.9774    0.0000 C   0  0  0  0  0  0  0  0  0  0  0  0
   -0.5485   -1.4518    0.0000 C   0  0  0  0  0  0  0  0  0  0  0  0
   -3.0655   -0.3200    0.0000 C   0  0  0  0  0  0  0  0  0  0  0  0
   -1.9674    1.5889    0.0000 C   0  0  0  0  0  0  0  0  0  0  0  0
    0.4313    2.4167    0.0000 C   0  0  0  0  0  0  0  0  0  0  0  0
   -2.2884   -0.0835    0.0000 C   0  0  0  0  0  0  0  0  0  0  0  0
    2.4416    3.1430    0.0000 C   0  0  0  0  0  0  0  0  0  0  0  0
    0.2625   -1.4518    0.0000 C   0  0  0  0  0  0  0  0  0  0  0  0
    2.7457   -1.4687    0.0000 C   0  0  0  0  0  0  0  0  0  0  0  0
    0.7185    1.0146    0.0000 C   0  0  0  0  0  0  0  0  0  0  0  0
   -3.7242    0.1699    0.0000 C   0  0  0  0  0  0  0  0  0  0  0  0
    1.9179   -1.4518    0.0000 C   0  0  0  0  0  0  0  0  0  0  0  0
    3.1342   -0.7423    0.0000 C   0  0  0  0  0  0  0  0  0  0  0  0
    1.5294    1.2004    0.0000 C   0  0  0  0  0  0  0  0  0  0  0  0
    1.9179   -0.0497    0.0000 C   0  0  0  0  0  0  0  0  0  0  0  0
    2.7287   -0.0328    0.0000 C   0  0  0  0  0  0  0  0  0  0  0  0
   -2.0012   -2.2120    0.0000 C   0  0  0  0  0  0  0  0  0  0  0  0
   -2.7276    1.9099    0.0000 C   0  0  0  0  0  0  0  0  0  0  0  0
   -4.0453   -0.5902    0.0000 C   0  0  0  0  0  0  0  0  0  0  0  0
    3.9788   -0.7423    0.0000 C   0  0  0  0  0  0  0  0  0  0  0  0
   -4.2141    0.8119    0.0000 C   0  0  0  0  0  0  0  0  0  0  0  0
   -3.3019    0.8963    0.0000 C   0  0  0  0  0  0  0  0  0  0  0  0
    4.8730   -3.9539    0.0000 C   0  0  0  0  0  0  0  0  0  0  0  0
  1  8  2  0  0  0  0
  1  9  2  0  0  0  0
  1 33  1  0  0  0  0
  1 47  1  0  0  0  0
  2 31  1  0  0  0  0
  3 31  1  0  0  0  0
  4 40  1  0  0  0  0
  5 18  1  0  0  0  0
  5 28  1  0  0  0  0
  6 23  1  0  0  0  0
  6 31  1  0  0  0  0
  7 25  1  0  0  0  0
  7 31  1  0  0  0  0
 10 43  1  0  0  0  0
 11 44  1  0  0  0  0
 12 16  1  0  0  0  0
 12 28  2  0  0  0  0
 13 14  1  0  0  0  0
 13 19  1  0  0  0  0
 13 41  1  0  0  0  0
 14 27  2  0  0  0  0
 15 16  1  0  0  0  0
 15 17  1  0  0  0  0
 15 22  2  0  0  0  0
 16 18  2  0  0  0  0
 17 19  1  0  0  0  0
 17 26  2  0  0  0  0
 18 20  1  0  0  0  0
 19 30  2  0  0  0  0
 20 29  1  0  0  0  0
 20 34  2  0  0  0  0
 21 22  1  0  0  0  0
 21 24  1  0  0  0  0
 21 32  2  0  0  0  0
 23 25  1  0  0  0  0
 23 29  2  0  0  0  0
 24 36  2  0  0  0  0
 24 39  1  0  0  0  0
 25 38  2  0  0  0  0
 26 32  1  0  0  0  0
 27 30  1  0  0  0  0
 27 35  1  0  0  0  0
 28 42  1  0  0  0  0
 33 36  1  0  0  0  0
 33 37  2  0  0  0  0
 34 38  1  0  0  0  0
 35 43  1  0  0  0  0
 35 45  1  0  0  0  0
 35 46  1  0  0  0  0
 37 40  1  0  0  0  0
 37 44  1  0  0  0  0
 39 40  2  0  0  0  0
M  END
> <PUBCHEM_COMPOUND_ID_TYPE>
0

> <PUBCHEM_TOTAL_CHARGE>
0

> <PUBCHEM_SUBSTANCE_ID>
310948295

> <PUBCHEM_SUBSTANCE_VERSION>
1

> <PUBCHEM_EXT_DATASOURCE_NAME>
4488

> <PUBCHEM_EXT_DATASOURCE_REGID>
SCHEMBL16126472

> <PUBCHEM_SUBSTANCE_COMMENT>
InChI=1S/C33H30F3N3O7S/c1-17-37-30(31(44-17)19-7-9-26-27(12-19)46-33(35,36)45-26)22-10-18(20-11-24(34)23(15-40)28(13-20)47(5,42)43)6-8-21(22)25-14-29(38-39(25)4)32(2,3)16-41/h6-14,40-41H,15-16H2,1-5H3
InChIKey=CCYDBVPTFKUSAY-UHFFFAOYSA-N

> <PUBCHEM_SUBSTANCE_SYNONYM>
SCHEMBL16126472

> <PUBCHEM_XREF_EXT_ID>
SCHEMBL16126472

> <PUBCHEM_EXT_DATASOURCE_URL>
https://www.surechembl.org/

> <PUBCHEM_EXT_SUBSTANCE_URL>
https://www.surechembl.org/chemical/SCHEMBL16126472

> <PUBCHEM_CID_ASSOCIATIONS>
86275921  1

> <PUBCHEM_COORDINATE_TYPE>
1
3

$$$$
