310938938
  -OEChem-07211613022D

 34 35  0     1  0  0  0  0  0999 V2000
    0.9054   -1.3860    0.0000 O   0  0  0  0  0  0  0  0  0  0  0  0
    0.1909   -0.1485    0.0000 O   0  0  0  0  0  0  0  0  0  0  0  0
   -1.9525    1.0890    0.0000 O   0  0  0  0  0  0  0  0  0  0  0  0
   -2.6669   -0.1485    0.0000 O   0  0  0  0  0  0  0  0  0  0  0  0
   -0.5235   -2.2110    0.0000 N   0  0  0  0  0  0  0  0  0  0  0  0
   -1.2380   -0.1485    0.0000 N   0  0  0  0  0  0  0  0  0  0  0  0
   -0.5235   -1.3860    0.0000 C   0  0  3  0  0  0  0  0  0  0  0  0
    0.1909   -2.6235    0.0000 C   0  0  0  0  0  0  0  0  0  0  0  0
   -1.2380   -0.9735    0.0000 C   0  0  3  0  0  0  0  0  0  0  0  0
    0.1909   -0.9735    0.0000 C   0  0  0  0  0  0  0  0  0  0  0  0
    0.9054   -2.2110    0.0000 C   0  0  0  0  0  0  0  0  0  0  0  0
    0.1909   -3.4485    0.0000 C   0  0  0  0  0  0  0  0  0  0  0  0
   -1.9525   -1.3860    0.0000 C   0  0  0  0  0  0  0  0  0  0  0  0
    1.6199   -0.9735    0.0000 C   0  0  0  0  0  0  0  0  0  0  0  0
   -1.9525    0.2640    0.0000 C   0  0  0  0  0  0  0  0  0  0  0  0
    1.6199   -2.6235    0.0000 C   0  0  0  0  0  0  0  0  0  0  0  0
   -0.5235   -3.8610    0.0000 C   0  0  0  0  0  0  0  0  0  0  0  0
    0.9054   -1.3860    0.0000 C   0  0  0  0  0  0  0  0  0  0  0  0
    0.9054   -3.8610    0.0000 C   0  0  0  0  0  0  0  0  0  0  0  0
   -2.6669    1.5015    0.0000 C   0  0  0  0  0  0  0  0  0  0  0  0
    2.3344   -2.2110    0.0000 C   0  0  0  0  0  0  0  0  0  0  0  0
   -0.5235   -4.6860    0.0000 C   0  0  0  0  0  0  0  0  0  0  0  0
    1.6199   -0.9735    0.0000 C   0  0  0  0  0  0  0  0  0  0  0  0
    0.9054   -4.6860    0.0000 C   0  0  0  0  0  0  0  0  0  0  0  0
   -2.6669   -0.9735    0.0000 C   0  0  0  0  0  0  0  0  0  0  0  0
   -1.9525   -2.2110    0.0000 C   0  0  0  0  0  0  0  0  0  0  0  0
    2.3344   -1.3860    0.0000 C   0  0  0  0  0  0  0  0  0  0  0  0
    0.1909   -5.0985    0.0000 C   0  0  0  0  0  0  0  0  0  0  0  0
    2.3344   -1.3860    0.0000 C   0  0  0  0  0  0  0  0  0  0  0  0
    2.3344   -0.5610    0.0000 C   0  0  0  0  0  0  0  0  0  0  0  0
    1.6199   -0.1485    0.0000 C   0  0  0  0  0  0  0  0  0  0  0  0
   -2.6669    2.3265    0.0000 C   0  0  0  0  0  0  0  0  0  0  0  0
   -3.3814    1.9140    0.0000 C   0  0  0  0  0  0  0  0  0  0  0  0
   -3.3814    1.0890    0.0000 C   0  0  0  0  0  0  0  0  0  0  0  0
  1 10  1  0  0  0  0
  1 14  1  0  0  0  0
  2 10  2  0  0  0  0
  3 15  1  0  0  0  0
  3 20  1  0  0  0  0
  4 15  2  0  0  0  0
  7  5  1  1  0  0  0
  5  8  2  0  0  0  0
  9  6  1  1  0  0  0
  6 15  1  0  0  0  0
  7  9  1  0  0  0  0
  7 10  1  0  0  0  0
  8 11  1  0  0  0  0
  8 12  1  0  0  0  0
  9 13  1  0  0  0  0
 11 16  2  0  0  0  0
 11 18  1  0  0  0  0
 12 17  2  0  0  0  0
 12 19  1  0  0  0  0
 13 25  1  0  0  0  0
 13 26  1  0  0  0  0
 14 29  1  0  0  0  0
 14 30  1  0  0  0  0
 14 31  1  0  0  0  0
 16 21  1  0  0  0  0
 17 22  1  0  0  0  0
 18 23  2  0  0  0  0
 19 24  2  0  0  0  0
 20 32  1  0  0  0  0
 20 33  1  0  0  0  0
 20 34  1  0  0  0  0
 21 27  2  0  0  0  0
 22 28  2  0  0  0  0
 23 27  1  0  0  0  0
 24 28  1  0  0  0  0
M  END
> <PUBCHEM_COMPOUND_ID_TYPE>
0

> <PUBCHEM_TOTAL_CHARGE>
0

> <PUBCHEM_SUBSTANCE_ID>
310938938

> <PUBCHEM_SUBSTANCE_VERSION>
1

> <PUBCHEM_EXT_DATASOURCE_NAME>
4488

> <PUBCHEM_EXT_DATASOURCE_REGID>
SCHEMBL16116857

> <PUBCHEM_SUBSTANCE_COMMENT>
InChI=1S/C28H38N2O4/c1-19(2)22(30-26(32)34-28(6,7)8)24(25(31)33-27(3,4)5)29-23(20-15-11-9-12-16-20)21-17-13-10-14-18-21/h9-19,22,24H,1-8H3,(H,30,32)/t22-,24+/m1/s1
InChIKey=BSUMDVKUUIIRDE-VWNXMTODSA-N

> <PUBCHEM_SUBSTANCE_SYNONYM>
SCHEMBL16116857

> <PUBCHEM_XREF_EXT_ID>
SCHEMBL16116857

> <PUBCHEM_EXT_DATASOURCE_URL>
https://www.surechembl.org/

> <PUBCHEM_EXT_SUBSTANCE_URL>
https://www.surechembl.org/chemical/SCHEMBL16116857

> <PUBCHEM_CID_ASSOCIATIONS>
117606333  1

> <PUBCHEM_COORDINATE_TYPE>
1
3

> <PUBCHEM_BONDANNOTATIONS>
7  5  5
9  6  5

$$$$
