310946680
  -OEChem-07211613022D

 10  9  0     0  0  0  0  0  0999 V2000
   -1.4327   -0.6223    0.0000 N   0  0  0  0  0  0  0  0  0  0  0  0
    0.0065   -0.6223    0.0000 N   0  0  0  0  0  0  0  0  0  0  0  0
   -0.7196    0.6223    0.0000 N   0  0  0  0  0  0  0  0  0  0  0  0
   -1.4327   -0.6223    0.0000 N   0  0  0  0  0  0  0  0  0  0  0  0
    0.7196    0.6223    0.0000 N   0  0  0  0  0  0  0  0  0  0  0  0
   -0.7196    0.6223    0.0000 N   0  0  0  0  0  0  0  0  0  0  0  0
   -1.4327   -0.6223    0.0000 N   0  0  0  0  0  0  0  0  0  0  0  0
    0.7196    0.6223    0.0000 N   0  0  0  0  0  0  0  0  0  0  0  0
   -0.7196   -0.2075    0.0000 C   0  0  0  0  0  0  0  0  0  0  0  0
    0.6936   -0.1945    0.0000 C   0  0  0  0  0  0  0  0  0  0  0  0
  1  4  1  0  0  0  0
  1  9  1  0  0  0  0
  2  9  1  0  0  0  0
  2 10  1  0  0  0  0
  3  6  1  0  0  0  0
  3  9  2  3  0  0  0
  4  7  2  3  0  0  0
  5  8  1  0  0  0  0
  5 10  2  3  0  0  0
M  END
> <PUBCHEM_COMPOUND_ID_TYPE>
0

> <PUBCHEM_TOTAL_CHARGE>
0

> <PUBCHEM_SUBSTANCE_ID>
310946680

> <PUBCHEM_SUBSTANCE_VERSION>
1

> <PUBCHEM_EXT_DATASOURCE_NAME>
4488

> <PUBCHEM_EXT_DATASOURCE_REGID>
SCHEMBL16124802

> <PUBCHEM_SUBSTANCE_COMMENT>
InChI=1S/C2H8N8/c3-7-1-6-2(8-4)9-10-5/h1H,3-4H2,(H3,5,6,7,8,9)
InChIKey=IVVGEIPNCJRWSV-UHFFFAOYSA-N

> <PUBCHEM_SUBSTANCE_SYNONYM>
SCHEMBL16124802

> <PUBCHEM_XREF_EXT_ID>
SCHEMBL16124802

> <PUBCHEM_EXT_DATASOURCE_URL>
https://www.surechembl.org/

> <PUBCHEM_EXT_SUBSTANCE_URL>
https://www.surechembl.org/chemical/SCHEMBL16124802

> <PUBCHEM_CID_ASSOCIATIONS>
117612577  1

> <PUBCHEM_COORDINATE_TYPE>
1
3

$$$$
