310948556
  -OEChem-07211613022D

 27 28  0     1  0  0  0  0  0999 V2000
   -0.1529    0.7813    0.0000 O   0  0  0  0  0  0  0  0  0  0  0  0
   -0.8833   -0.4416    0.0000 O   0  0  0  0  0  0  0  0  0  0  0  0
   -1.5967    2.4460    0.0000 O   0  0  0  0  0  0  0  0  0  0  0  0
    2.1232   -1.6816    0.0000 O   0  0  0  0  0  0  0  0  0  0  0  0
    1.2739   -0.0340    0.0000 O   0  0  0  0  0  0  0  0  0  0  0  0
   -0.1529   -2.5139    0.0000 O   0  0  0  0  0  0  0  0  0  0  0  0
   -1.5967   -0.0170    0.0000 O   0  0  0  0  0  0  0  0  0  0  0  0
   -3.0405    0.7983    0.0000 O   0  0  0  0  0  0  0  0  0  0  0  0
   -1.5967   -2.4970    0.0000 O   0  0  0  0  0  0  0  0  0  0  0  0
    2.1232   -1.6816    0.0000 O   0  0  0  0  0  0  0  0  0  0  0  0
   -3.7539    2.0384    0.0000 O   0  0  0  0  0  0  0  0  0  0  0  0
    2.1232   -1.6816    0.0000 N   0  0  0  0  0  0  0  0  0  0  0  0
   -0.1699   -0.0340    0.0000 C   0  0  3  0  0  0  0  0  0  0  0  0
    0.5605   -0.4416    0.0000 C   0  0  3  0  0  0  0  0  0  0  0  0
    0.5435   -1.2739    0.0000 C   0  0  3  0  0  0  0  0  0  0  0  0
   -0.8833    1.2230    0.0000 C   0  0  3  0  0  0  0  0  0  0  0  0
   -0.1529   -1.6816    0.0000 C   0  0  3  0  0  0  0  0  0  0  0  0
   -0.9003   -1.2569    0.0000 C   0  0  3  0  0  0  0  0  0  0  0  0
   -1.5967    0.8153    0.0000 C   0  0  3  0  0  0  0  0  0  0  0  0
   -0.8663    2.0384    0.0000 C   0  0  3  0  0  0  0  0  0  0  0  0
   -2.3102    1.2060    0.0000 C   0  0  3  0  0  0  0  0  0  0  0  0
   -2.3102    2.0554    0.0000 C   0  0  3  0  0  0  0  0  0  0  0  0
   -1.5967   -1.6646    0.0000 C   0  0  0  0  0  0  0  0  0  0  0  0
    2.1232   -1.6816    0.0000 C   0  0  0  0  0  0  0  0  0  0  0  0
   -3.0236    2.4630    0.0000 C   0  0  0  0  0  0  0  0  0  0  0  0
   -0.1359    2.4290    0.0000 C   0  0  0  0  0  0  0  0  0  0  0  0
    3.7539   -1.8515    0.0000 C   0  0  0  0  0  0  0  0  0  0  0  0
 13  1  1  6  0  0  0
 16  1  1  1  0  0  0
  2 13  1  0  0  0  0
  2 18  1  0  0  0  0
  3 20  1  0  0  0  0
  3 22  1  0  0  0  0
 15  4  1  1  0  0  0
  4 24  1  0  0  0  0
 14  5  1  1  0  0  0
 17  6  1  6  0  0  0
 19  7  1  1  0  0  0
 21  8  1  6  0  0  0
  9 23  1  0  0  0  0
 10 24  2  0  0  0  0
 11 25  1  0  0  0  0
 12 24  1  0  0  0  0
 12 27  1  0  0  0  0
 13 14  1  0  0  0  0
 14 15  1  0  0  0  0
 15 17  1  0  0  0  0
 16 19  1  0  0  0  0
 16 20  1  0  0  0  0
 17 18  1  0  0  0  0
 18 23  1  1  0  0  0
 19 21  1  0  0  0  0
 20 26  1  0  0  0  0
 21 22  1  0  0  0  0
 22 25  1  6  0  0  0
M  END
> <PUBCHEM_COMPOUND_ID_TYPE>
0

> <PUBCHEM_TOTAL_CHARGE>
0

> <PUBCHEM_SUBSTANCE_ID>
310948556

> <PUBCHEM_SUBSTANCE_VERSION>
1

> <PUBCHEM_EXT_DATASOURCE_NAME>
4488

> <PUBCHEM_EXT_DATASOURCE_REGID>
SCHEMBL16126738

> <PUBCHEM_SUBSTANCE_COMMENT>
InChI=1S/C15H27NO11/c1-5-12(10(21)8(19)6(3-17)24-5)26-14-11(22)13(27-15(23)16-2)9(20)7(4-18)25-14/h5-14,17-22H,3-4H2,1-2H3,(H,16,23)/t5?,6-,7+,8+,9+,10-,11-,12+,13-,14+/m0/s1
InChIKey=ODERNYPELYLFLT-LRCUDOAVSA-N

> <PUBCHEM_SUBSTANCE_SYNONYM>
SCHEMBL16126738

> <PUBCHEM_XREF_EXT_ID>
SCHEMBL16126738

> <PUBCHEM_EXT_DATASOURCE_URL>
https://www.surechembl.org/

> <PUBCHEM_EXT_SUBSTANCE_URL>
https://www.surechembl.org/chemical/SCHEMBL16126738

> <PUBCHEM_CID_ASSOCIATIONS>
117614107  1

> <PUBCHEM_COORDINATE_TYPE>
1
3

> <PUBCHEM_BONDANNOTATIONS>
13  1  6
16  1  5
12  27  3
18  23  5
22  25  6
15  4  5
14  5  5
17  6  6
19  7  5
21  8  6

$$$$
