310934318
  -OEChem-07211613022D

 65 72  0     0  0  0  0  0  0999 V2000
    2.0711   -4.6237    0.0000 F   0  0  0  0  0  0  0  0  0  0  0  0
    3.2234   -4.8066    0.0000 F   0  0  0  0  0  0  0  0  0  0  0  0
    2.2540   -3.4714    0.0000 F   0  0  0  0  0  0  0  0  0  0  0  0
    3.6809   -0.4158    0.0000 O   0  0  0  0  0  0  0  0  0  0  0  0
   -1.1098    1.2477    0.0000 O   0  0  0  0  0  0  0  0  0  0  0  0
    1.6029    2.9003    0.0000 O   0  0  0  0  0  0  0  0  0  0  0  0
    2.8555    1.3459    0.0000 O   0  0  0  0  0  0  0  0  0  0  0  0
   -2.1297    1.5028    0.0000 O   0  0  0  0  0  0  0  0  0  0  0  0
   -1.7818   -4.4275    0.0000 O   0  0  0  0  0  0  0  0  0  0  0  0
    1.6969   -1.2872    0.0000 N   0  0  0  0  0  0  0  0  0  0  0  0
    0.9123   -1.5422    0.0000 N   0  0  0  0  0  0  0  0  0  0  0  0
    3.0318   -1.2872    0.0000 N   0  0  0  0  0  0  0  0  0  0  0  0
   -0.1676   -2.3268    0.0000 N   0  0  0  0  0  0  0  0  0  0  0  0
    2.1782   -2.6206    0.0000 N   0  0  0  0  0  0  0  0  0  0  0  0
    0.9691   -3.1304    0.0000 N   0  0  0  0  0  0  0  0  0  0  0  0
    1.9519   -0.5026    0.0000 C   0  0  0  0  0  0  0  0  0  0  0  0
    0.2449   -1.0572    0.0000 C   0  0  0  0  0  0  0  0  0  0  0  0
    2.7769   -0.5026    0.0000 C   0  0  0  0  0  0  0  0  0  0  0  0
    2.3644   -1.7721    0.0000 C   0  0  0  0  0  0  0  0  0  0  0  0
    0.6574   -2.3268    0.0000 C   0  0  0  0  0  0  0  0  0  0  0  0
    1.2018   -0.1592    0.0000 C   0  0  0  0  0  0  0  0  0  0  0  0
    1.8571    0.3169    0.0000 C   0  0  0  0  0  0  0  0  0  0  0  0
   -0.4226   -1.5422    0.0000 C   0  0  0  0  0  0  0  0  0  0  0  0
    0.7969   -0.4441    0.0000 C   0  0  0  0  0  0  0  0  0  0  0  0
   -0.3071   -0.4441    0.0000 C   0  0  0  0  0  0  0  0  0  0  0  0
    3.8931   -1.5106    0.0000 C   0  0  0  0  0  0  0  0  0  0  0  0
    0.5293   -0.6371    0.0000 C   0  0  0  0  0  0  0  0  0  0  0  0
    1.0999    0.6446    0.0000 C   0  0  0  0  0  0  0  0  0  0  0  0
    1.4737    0.6438    0.0000 C   0  0  0  0  0  0  0  0  0  0  0  0
    2.5194    0.8088    0.0000 C   0  0  0  0  0  0  0  0  0  0  0  0
   -0.6120   -3.0868    0.0000 C   0  0  0  0  0  0  0  0  0  0  0  0
    1.6039   -0.6157    0.0000 C   0  0  0  0  0  0  0  0  0  0  0  0
   -1.1141   -0.6157    0.0000 C   0  0  0  0  0  0  0  0  0  0  0  0
    0.5420    0.3405    0.0000 C   0  0  0  0  0  0  0  0  0  0  0  0
   -0.0522    0.3405    0.0000 C   0  0  0  0  0  0  0  0  0  0  0  0
    3.9880   -2.3491    0.0000 C   0  0  0  0  0  0  0  0  0  0  0  0
   -0.2147   -0.1771    0.0000 C   0  0  0  0  0  0  0  0  0  0  0  0
    1.0051    1.4641    0.0000 C   0  0  0  0  0  0  0  0  0  0  0  0
    0.3740    1.0056    0.0000 C   0  0  0  0  0  0  0  0  0  0  0  0
    2.4246    1.6283    0.0000 C   0  0  0  0  0  0  0  0  0  0  0  0
   -1.4730   -2.9080    0.0000 C   0  0  0  0  0  0  0  0  0  0  0  0
   -0.2985    0.5277    0.0000 C   0  0  0  0  0  0  0  0  0  0  0  0
    1.6674    1.9560    0.0000 C   0  0  0  0  0  0  0  0  0  0  0  0
    2.1559   -0.0026    0.0000 C   0  0  0  0  0  0  0  0  0  0  0  0
   -1.6662   -0.0026    0.0000 C   0  0  0  0  0  0  0  0  0  0  0  0
    1.0940    0.9536    0.0000 C   0  0  0  0  0  0  0  0  0  0  0  0
   -0.6042    0.9536    0.0000 C   0  0  0  0  0  0  0  0  0  0  0  0
    1.9010    0.7820    0.0000 C   0  0  0  0  0  0  0  0  0  0  0  0
   -1.4112    0.7820    0.0000 C   0  0  0  0  0  0  0  0  0  0  0  0
    3.3204   -2.8338    0.0000 C   0  0  0  0  0  0  0  0  0  0  0  0
   -1.9579   -3.5754    0.0000 C   0  0  0  0  0  0  0  0  0  0  0  0
    4.7415   -2.6850    0.0000 C   0  0  0  0  0  0  0  0  0  0  0  0
   -1.8086   -2.1543    0.0000 C   0  0  0  0  0  0  0  0  0  0  0  0
    3.4063   -3.6543    0.0000 C   0  0  0  0  0  0  0  0  0  0  0  0
    4.8275   -3.5055    0.0000 C   0  0  0  0  0  0  0  0  0  0  0  0
   -2.7784   -3.4892    0.0000 C   0  0  0  0  0  0  0  0  0  0  0  0
    4.1599   -3.9902    0.0000 C   0  0  0  0  0  0  0  0  0  0  0  0
    2.7387   -4.1390    0.0000 C   0  0  0  0  0  0  0  0  0  0  0  0
   -2.6291   -2.0681    0.0000 C   0  0  0  0  0  0  0  0  0  0  0  0
   -3.1140   -2.7355    0.0000 C   0  0  0  0  0  0  0  0  0  0  0  0
   -1.3296    2.1380    0.0000 C   0  0  0  0  0  0  0  0  0  0  0  0
    2.2272    3.4880    0.0000 C   0  0  0  0  0  0  0  0  0  0  0  0
    3.7582    1.5569    0.0000 C   0  0  0  0  0  0  0  0  0  0  0  0
   -2.3522    2.3545    0.0000 C   0  0  0  0  0  0  0  0  0  0  0  0
   -2.3029   -5.1011    0.0000 C   0  0  0  0  0  0  0  0  0  0  0  0
  1 58  1  0  0  0  0
  2 58  1  0  0  0  0
  3 58  1  0  0  0  0
  4 18  2  0  0  0  0
  5 42  1  0  0  0  0
  5 61  1  0  0  0  0
  6 43  1  0  0  0  0
  6 62  1  0  0  0  0
  7 48  1  0  0  0  0
  7 63  1  0  0  0  0
  8 49  1  0  0  0  0
  8 64  1  0  0  0  0
  9 51  1  0  0  0  0
  9 65  1  0  0  0  0
 10 11  1  0  0  0  0
 10 16  1  0  0  0  0
 10 19  1  0  0  0  0
 11 17  1  0  0  0  0
 11 20  1  0  0  0  0
 12 18  1  0  0  0  0
 12 19  1  0  0  0  0
 12 26  1  0  0  0  0
 13 20  1  0  0  0  0
 13 23  1  0  0  0  0
 13 31  1  0  0  0  0
 14 19  2  3  0  0  0
 15 20  2  3  0  0  0
 16 18  1  0  0  0  0
 16 21  1  0  0  0  0
 16 22  1  0  0  0  0
 17 23  1  0  0  0  0
 17 24  1  0  0  0  0
 17 25  1  0  0  0  0
 21 27  2  0  0  0  0
 21 29  1  0  0  0  0
 22 28  2  0  0  0  0
 22 30  1  0  0  0  0
 24 32  2  0  0  0  0
 24 34  1  0  0  0  0
 25 33  2  0  0  0  0
 25 35  1  0  0  0  0
 26 36  1  0  0  0  0
 27 37  1  0  0  0  0
 28 38  1  0  0  0  0
 29 39  2  0  0  0  0
 30 40  2  0  0  0  0
 31 41  1  0  0  0  0
 32 44  1  0  0  0  0
 33 45  1  0  0  0  0
 34 46  2  0  0  0  0
 35 47  2  0  0  0  0
 36 50  2  0  0  0  0
 36 52  1  0  0  0  0
 37 42  2  0  0  0  0
 38 43  2  0  0  0  0
 39 42  1  0  0  0  0
 40 43  1  0  0  0  0
 41 51  2  0  0  0  0
 41 53  1  0  0  0  0
 44 48  2  0  0  0  0
 45 49  2  0  0  0  0
 46 48  1  0  0  0  0
 47 49  1  0  0  0  0
 50 54  1  0  0  0  0
 51 56  1  0  0  0  0
 52 55  2  0  0  0  0
 53 59  2  0  0  0  0
 54 57  2  0  0  0  0
 54 58  1  0  0  0  0
 55 57  1  0  0  0  0
 56 60  2  0  0  0  0
 59 60  1  0  0  0  0
M  END
> <PUBCHEM_COMPOUND_ID_TYPE>
0

> <PUBCHEM_TOTAL_CHARGE>
0

> <PUBCHEM_SUBSTANCE_ID>
310934318

> <PUBCHEM_SUBSTANCE_VERSION>
1

> <PUBCHEM_EXT_DATASOURCE_NAME>
4488

> <PUBCHEM_EXT_DATASOURCE_REGID>
SCHEMBL16111777

> <PUBCHEM_SUBSTANCE_COMMENT>
InChI=1S/C50H47F3N6O6/c1-61-40-21-13-35(14-22-40)48(36-15-23-41(62-2)24-16-36)32-56(31-34-10-6-7-12-44(34)65-5)46(54)58(48)59-47(55)57(30-33-9-8-11-39(29-33)50(51,52)53)45(60)49(59,37-17-25-42(63-3)26-18-37)38-19-27-43(64-4)28-20-38/h6-29,54-55H,30-32H2,1-5H3
InChIKey=QBBOZBMCMFOHGR-UHFFFAOYSA-N

> <PUBCHEM_SUBSTANCE_SYNONYM>
SCHEMBL16111777

> <PUBCHEM_XREF_EXT_ID>
SCHEMBL16111777

> <PUBCHEM_EXT_DATASOURCE_URL>
https://www.surechembl.org/

> <PUBCHEM_EXT_SUBSTANCE_URL>
https://www.surechembl.org/chemical/SCHEMBL16111777

> <PUBCHEM_CID_ASSOCIATIONS>
117602558  1

> <PUBCHEM_COORDINATE_TYPE>
1
3

$$$$
