310949839
  -OEChem-07211613022D

 32 34  0     0  0  0  0  0  0999 V2000
   -3.6934    0.4125    0.0000 O   0  0  0  0  0  0  0  0  0  0  0  0
   -2.9685    2.4997    0.0000 O   0  0  0  0  0  0  0  0  0  0  0  0
    2.0810    0.4125    0.0000 O   0  0  0  0  0  0  0  0  0  0  0  0
    4.2559    2.4997    0.0000 O   0  0  0  0  0  0  0  0  0  0  0  0
    5.1182    1.2499    0.0000 O   0  0  0  0  0  0  0  0  0  0  0  0
   -2.2185    0.4125    0.0000 N   0  0  0  0  0  0  0  0  0  0  0  0
   -4.3933   -0.8374    0.0000 N   0  0  0  0  0  0  0  0  0  0  0  0
    1.3811    1.6623    0.0000 N   0  0  0  0  0  0  0  0  0  0  0  0
    3.5434    1.2499    0.0000 N   0  0  0  0  0  0  0  0  0  0  0  0
    5.1182    1.2499    0.0000 N   0  0  0  0  0  0  0  0  0  0  0  0
   -2.9685   -0.8374    0.0000 C   0  0  0  0  0  0  0  0  0  0  0  0
   -3.6809   -1.2499    0.0000 C   0  0  0  0  0  0  0  0  0  0  0  0
   -2.9309    0.0000    0.0000 C   0  0  0  0  0  0  0  0  0  0  0  0
   -3.6809   -2.0748    0.0000 C   0  0  0  0  0  0  0  0  0  0  0  0
   -2.2310   -1.2499    0.0000 C   0  0  0  0  0  0  0  0  0  0  0  0
   -2.9435   -2.4872    0.0000 C   0  0  0  0  0  0  0  0  0  0  0  0
   -1.5061    0.0000    0.0000 C   0  0  0  0  0  0  0  0  0  0  0  0
   -4.3808   -2.4997    0.0000 C   0  0  0  0  0  0  0  0  0  0  0  0
   -2.2310   -2.0748    0.0000 C   0  0  0  0  0  0  0  0  0  0  0  0
   -0.7936    0.4250    0.0000 C   0  0  0  0  0  0  0  0  0  0  0  0
   -2.2310    1.2499    0.0000 C   0  0  0  0  0  0  0  0  0  0  0  0
   -5.1058   -1.2499    0.0000 C   0  0  0  0  0  0  0  0  0  0  0  0
   -5.1182   -2.0748    0.0000 C   0  0  0  0  0  0  0  0  0  0  0  0
    0.6562    1.2624    0.0000 C   0  0  0  0  0  0  0  0  0  0  0  0
   -0.7812    1.2499    0.0000 C   0  0  0  0  0  0  0  0  0  0  0  0
   -0.0562    0.0125    0.0000 C   0  0  0  0  0  0  0  0  0  0  0  0
   -0.0687    1.6623    0.0000 C   0  0  0  0  0  0  0  0  0  0  0  0
    0.6562    0.4250    0.0000 C   0  0  0  0  0  0  0  0  0  0  0  0
   -2.9435    1.6623    0.0000 C   0  0  0  0  0  0  0  0  0  0  0  0
    2.0935    1.2749    0.0000 C   0  0  0  0  0  0  0  0  0  0  0  0
    2.8059    1.6623    0.0000 C   0  0  0  0  0  0  0  0  0  0  0  0
    4.2559    1.6498    0.0000 C   0  0  0  0  0  0  0  0  0  0  0  0
  1 13  2  0  0  0  0
  2 29  1  0  0  0  0
  3 30  2  0  0  0  0
  4 32  2  0  0  0  0
  5 10  1  0  0  0  0
  6 13  1  0  0  0  0
  6 17  1  0  0  0  0
  6 21  1  0  0  0  0
  7 12  1  0  0  0  0
  7 22  2  0  0  0  0
  8 24  1  0  0  0  0
  8 30  1  0  0  0  0
  9 31  1  0  0  0  0
  9 32  1  0  0  0  0
 10 32  1  0  0  0  0
 11 12  2  0  0  0  0
 11 13  1  0  0  0  0
 11 15  1  0  0  0  0
 12 14  1  0  0  0  0
 14 16  2  0  0  0  0
 14 18  1  0  0  0  0
 15 19  2  0  0  0  0
 16 19  1  0  0  0  0
 17 20  1  0  0  0  0
 18 23  2  0  0  0  0
 20 25  2  0  0  0  0
 20 26  1  0  0  0  0
 21 29  1  0  0  0  0
 22 23  1  0  0  0  0
 24 27  2  0  0  0  0
 24 28  1  0  0  0  0
 25 27  1  0  0  0  0
 26 28  2  0  0  0  0
 30 31  1  0  0  0  0
M  END
> <PUBCHEM_COMPOUND_ID_TYPE>
0

> <PUBCHEM_TOTAL_CHARGE>
0

> <PUBCHEM_SUBSTANCE_ID>
310949839

> <PUBCHEM_SUBSTANCE_VERSION>
1

> <PUBCHEM_EXT_DATASOURCE_NAME>
4488

> <PUBCHEM_EXT_DATASOURCE_REGID>
SCHEMBL16128041

> <PUBCHEM_SUBSTANCE_COMMENT>
InChI=1S/C22H23N5O5/c28-12-11-27(21(30)18-5-1-3-16-4-2-10-23-20(16)18)14-15-6-8-17(9-7-15)25-19(29)13-24-22(31)26-32/h1-10,28,32H,11-14H2,(H,25,29)(H2,24,26,31)
InChIKey=ZOWVOQIAWUOQEG-UHFFFAOYSA-N

> <PUBCHEM_SUBSTANCE_SYNONYM>
SCHEMBL16128041

> <PUBCHEM_XREF_EXT_ID>
SCHEMBL16128041

> <PUBCHEM_EXT_DATASOURCE_URL>
https://www.surechembl.org/

> <PUBCHEM_EXT_SUBSTANCE_URL>
https://www.surechembl.org/chemical/SCHEMBL16128041

> <PUBCHEM_CID_ASSOCIATIONS>
71523505  1

> <PUBCHEM_COORDINATE_TYPE>
1
3

$$$$
