310949101
  -OEChem-07211613022D

 30 34  0     1  0  0  0  0  0999 V2000
    0.2558    3.0290    0.0000 F   0  0  0  0  0  0  0  0  0  0  0  0
    0.5832    1.9238    0.0000 F   0  0  0  0  0  0  0  0  0  0  0  0
   -0.5219    1.5963    0.0000 F   0  0  0  0  0  0  0  0  0  0  0  0
   -2.4047   -2.3126    0.0000 O   0  0  0  0  0  0  0  0  0  0  0  0
   -1.6680   -1.0437    0.0000 N   0  0  0  0  0  0  0  0  0  0  0  0
    0.7470   -2.5583    0.0000 N   0  0  0  0  0  0  0  0  0  0  0  0
   -0.8903   -3.1109    0.0000 N   0  0  0  0  0  0  0  0  0  0  0  0
    0.7470   -2.5583    0.0000 N   0  0  0  0  0  0  0  0  0  0  0  0
   -1.2177    0.2046    0.0000 C   0  0  3  0  0  0  0  0  0  0  0  0
   -2.0364    0.2661    0.0000 C   0  0  3  0  0  0  0  0  0  0  0  0
   -1.5861    1.4940    0.0000 C   0  0  0  0  0  0  0  0  0  0  0  0
   -1.6884   -1.8624    0.0000 C   0  0  0  0  0  0  0  0  0  0  0  0
   -1.5657    2.3945    0.0000 C   0  0  0  0  0  0  0  0  0  0  0  0
   -0.9516   -2.3126    0.0000 C   0  0  0  0  0  0  0  0  0  0  0  0
   -0.9926   -0.5935    0.0000 C   0  0  0  0  0  0  0  0  0  0  0  0
   -2.2820   -0.5526    0.0000 C   0  0  0  0  0  0  0  0  0  0  0  0
   -0.9516    1.0028    0.0000 C   0  0  0  0  0  0  0  0  0  0  0  0
   -2.2615    1.0233    0.0000 C   0  0  0  0  0  0  0  0  0  0  0  0
   -0.8698    2.7425    0.0000 C   0  0  0  0  0  0  0  0  0  0  0  0
   -0.0921   -3.2746    0.0000 C   0  0  0  0  0  0  0  0  0  0  0  0
   -0.2354   -1.9443    0.0000 C   0  0  0  0  0  0  0  0  0  0  0  0
   -0.1535    2.3127    0.0000 C   0  0  0  0  0  0  0  0  0  0  0  0
   -2.2615    2.7834    0.0000 C   0  0  0  0  0  0  0  0  0  0  0  0
    0.3172   -3.9908    0.0000 C   0  0  0  0  0  0  0  0  0  0  0  0
   -0.8289    3.5611    0.0000 C   0  0  0  0  0  0  0  0  0  0  0  0
    1.5657   -3.2951    0.0000 C   0  0  0  0  0  0  0  0  0  0  0  0
    1.1564   -4.0114    0.0000 C   0  0  0  0  0  0  0  0  0  0  0  0
   -2.2206    3.6225    0.0000 C   0  0  0  0  0  0  0  0  0  0  0  0
   -1.5452    4.0114    0.0000 C   0  0  0  0  0  0  0  0  0  0  0  0
    2.4047   -3.2951    0.0000 C   0  0  0  0  0  0  0  0  0  0  0  0
  1 22  1  0  0  0  0
  2 22  1  0  0  0  0
  3 22  1  0  0  0  0
  4 12  2  0  0  0  0
  5 12  1  0  0  0  0
  5 15  1  0  0  0  0
  5 16  1  0  0  0  0
  6  8  1  0  0  0  0
  6 20  1  0  0  0  0
  6 21  1  0  0  0  0
  7 14  1  0  0  0  0
  7 20  2  0  0  0  0
  8 26  2  0  0  0  0
  9 10  1  0  0  0  0
  9 15  1  0  0  0  0
  9 17  1  1  0  0  0
 10 16  1  0  0  0  0
 10 18  1  0  0  0  0
 11 13  1  0  0  0  0
 11 17  1  0  0  0  0
 11 18  1  1  0  0  0
 12 14  1  0  0  0  0
 13 19  2  0  0  0  0
 13 23  1  0  0  0  0
 14 21  2  0  0  0  0
 19 22  1  0  0  0  0
 19 25  1  0  0  0  0
 20 24  1  0  0  0  0
 23 28  2  0  0  0  0
 24 27  2  0  0  0  0
 25 29  2  0  0  0  0
 26 27  1  0  0  0  0
 26 30  1  0  0  0  0
 28 29  1  0  0  0  0
M  END
> <PUBCHEM_COMPOUND_ID_TYPE>
0

> <PUBCHEM_TOTAL_CHARGE>
0

> <PUBCHEM_SUBSTANCE_ID>
310949101

> <PUBCHEM_SUBSTANCE_VERSION>
1

> <PUBCHEM_EXT_DATASOURCE_NAME>
4488

> <PUBCHEM_EXT_DATASOURCE_REGID>
SCHEMBL16127291

> <PUBCHEM_SUBSTANCE_COMMENT>
InChI=1S/C22H21F3N4O/c1-13-6-7-20-26-19(12-29(20)27-13)21(30)28-10-15-8-14(9-16(15)11-28)17-4-2-3-5-18(17)22(23,24)25/h2-7,12,14-16H,8-11H2,1H3/t14-,15-,16?/m0/s1
InChIKey=DSTMBQKFACASMG-KSCSMHSMSA-N

> <PUBCHEM_SUBSTANCE_SYNONYM>
SCHEMBL16127291

> <PUBCHEM_XREF_EXT_ID>
SCHEMBL16127291

> <PUBCHEM_EXT_DATASOURCE_URL>
https://www.surechembl.org/

> <PUBCHEM_EXT_SUBSTANCE_URL>
https://www.surechembl.org/chemical/SCHEMBL16127291

> <PUBCHEM_CID_ASSOCIATIONS>
117614603  1

> <PUBCHEM_COORDINATE_TYPE>
1
3

> <PUBCHEM_BONDANNOTATIONS>
11  18  5
9  17  5

$$$$
