310942202
  -OEChem-07211613022D

 30 31  0     1  0  0  0  0  0999 V2000
    0.5714    1.7303    0.0000 Cl  0  0  0  0  0  0  0  0  0  0  0  0
   -0.8659   -0.7693    0.0000 F   0  0  0  0  0  0  0  0  0  0  0  0
    3.4584    1.7303    0.0000 F   0  0  0  0  0  0  0  0  0  0  0  0
    0.5714    0.0556    0.0000 O   0  0  0  0  0  0  0  0  0  0  0  0
    3.4584    0.0556    0.0000 O   0  0  0  0  0  0  0  0  0  0  0  0
   -4.4154    0.4931    0.0000 O   0  0  0  0  0  0  0  0  0  0  0  0
   -3.0281    0.4805    0.0000 N   0  0  0  0  0  0  0  0  0  0  0  0
    3.4584    0.0556    0.0000 N   0  0  0  0  0  0  0  0  0  0  0  0
   -5.1902    1.7179    0.0000 N   0  0  0  0  0  0  0  0  0  0  0  0
   -0.1536    0.4931    0.0000 C   0  0  0  0  0  0  0  0  0  0  0  0
   -0.8659    0.0681    0.0000 C   0  0  0  0  0  0  0  0  0  0  0  0
   -1.5908    0.4805    0.0000 C   0  0  0  0  0  0  0  0  0  0  0  0
   -0.1410    1.3179    0.0000 C   0  0  0  0  0  0  0  0  0  0  0  0
    1.2962    0.4805    0.0000 C   0  0  0  0  0  0  0  0  0  0  0  0
   -2.3032    0.0681    0.0000 C   0  0  3  0  0  0  0  0  0  0  0  0
   -1.5783    1.3054    0.0000 C   0  0  0  0  0  0  0  0  0  0  0  0
    2.7335    0.4931    0.0000 C   0  0  0  0  0  0  0  0  0  0  0  0
   -0.8659    1.7179    0.0000 C   0  0  0  0  0  0  0  0  0  0  0  0
    2.0337    0.0681    0.0000 C   0  0  0  0  0  0  0  0  0  0  0  0
    2.7460    1.3179    0.0000 C   0  0  0  0  0  0  0  0  0  0  0  0
    1.3087    1.3054    0.0000 C   0  0  0  0  0  0  0  0  0  0  0  0
    3.4584    0.0556    0.0000 C   0  0  0  0  0  0  0  0  0  0  0  0
    2.0087    1.7179    0.0000 C   0  0  0  0  0  0  0  0  0  0  0  0
   -2.3032   -0.7693    0.0000 C   0  0  0  0  0  0  0  0  0  0  0  0
   -3.0281    1.3179    0.0000 C   0  0  3  0  0  0  0  0  0  0  0  0
   -3.7404    1.7303    0.0000 C   0  0  0  0  0  0  0  0  0  0  0  0
   -1.5908   -1.1817    0.0000 C   0  0  0  0  0  0  0  0  0  0  0  0
   -2.3157    1.7303    0.0000 C   0  0  0  0  0  0  0  0  0  0  0  0
   -4.4654    1.3054    0.0000 C   0  0  0  0  0  0  0  0  0  0  0  0
    5.1902   -1.7303    0.0000 C   0  0  0  0  0  0  0  0  0  0  0  0
  1 13  1  0  0  0  0
  2 11  1  0  0  0  0
  3 20  1  0  0  0  0
  4 10  1  0  0  0  0
  4 14  1  0  0  0  0
  5 22  2  0  0  0  0
  6 29  2  0  0  0  0
 15  7  1  1  0  0  0
  7 25  1  0  0  0  0
  8 22  1  0  0  0  0
  8 30  1  0  0  0  0
  9 29  1  0  0  0  0
 10 11  2  0  0  0  0
 10 13  1  0  0  0  0
 11 12  1  0  0  0  0
 12 15  1  0  0  0  0
 12 16  2  0  0  0  0
 13 18  2  0  0  0  0
 14 19  2  0  0  0  0
 14 21  1  0  0  0  0
 15 24  1  0  0  0  0
 16 18  1  0  0  0  0
 17 19  1  0  0  0  0
 17 20  2  0  0  0  0
 17 22  1  0  0  0  0
 20 23  1  0  0  0  0
 21 23  2  0  0  0  0
 24 27  1  0  0  0  0
 25 26  1  0  0  0  0
 25 28  1  1  0  0  0
 26 29  1  0  0  0  0
M  END
> <PUBCHEM_COMPOUND_ID_TYPE>
0

> <PUBCHEM_TOTAL_CHARGE>
0

> <PUBCHEM_SUBSTANCE_ID>
310942202

> <PUBCHEM_SUBSTANCE_VERSION>
1

> <PUBCHEM_EXT_DATASOURCE_NAME>
4488

> <PUBCHEM_EXT_DATASOURCE_REGID>
SCHEMBL16120237

> <PUBCHEM_SUBSTANCE_COMMENT>
InChI=1S/C21H24ClF2N3O3/c1-4-17(27-11(2)9-18(25)28)13-6-7-15(22)20(19(13)24)30-12-5-8-16(23)14(10-12)21(29)26-3/h5-8,10-11,17,27H,4,9H2,1-3H3,(H2,25,28)(H,26,29)/t11-,17-/m1/s1
InChIKey=RPCGXTNUOMIKFD-PIGZYNQJSA-N

> <PUBCHEM_SUBSTANCE_SYNONYM>
SCHEMBL16120237

> <PUBCHEM_XREF_EXT_ID>
SCHEMBL16120237

> <PUBCHEM_EXT_DATASOURCE_URL>
https://www.surechembl.org/

> <PUBCHEM_EXT_SUBSTANCE_URL>
https://www.surechembl.org/chemical/SCHEMBL16120237

> <PUBCHEM_CID_ASSOCIATIONS>
117608853  1

> <PUBCHEM_COORDINATE_TYPE>
1
3

> <PUBCHEM_BONDANNOTATIONS>
25  28  5
15  7  5

$$$$
