310940836
  -OEChem-07211613022D

 19 19  0     1  0  0  0  0  0999 V2000
    0.4372   -1.8211    0.0000 O   0  0  0  0  0  0  0  0  0  0  0  0
   -0.1433   -0.0806    0.0000 O   0  0  0  0  0  0  0  0  0  0  0  0
   -0.1433   -0.0806    0.0000 O   0  0  0  0  0  0  0  0  0  0  0  0
   -0.0642   -2.6457    0.0000 O   0  0  0  0  0  0  0  0  0  0  0  0
   -1.6020    0.0063    0.0000 N   0  0  0  0  0  0  0  0  0  0  0  0
   -0.8553    0.3883    0.0000 C   0  0  3  0  0  0  0  0  0  0  0  0
   -0.1433   -0.0806    0.0000 C   0  0  0  0  0  0  0  0  0  0  0  0
   -0.0642   -2.1108    0.0000 C   0  0  0  0  0  0  0  0  0  0  0  0
   -0.8206    1.2392    0.0000 C   0  0  0  0  0  0  0  0  0  0  0  0
   -0.1086    1.6559    0.0000 C   0  0  0  0  0  0  0  0  0  0  0  0
    0.4483   -1.2640    0.0000 C   0  0  0  0  0  0  0  0  0  0  0  0
   -0.0045    2.4894    0.0000 C   0  0  0  0  0  0  0  0  0  0  0  0
    0.6901    1.3260    0.0000 C   0  0  0  0  0  0  0  0  0  0  0  0
    0.8117    2.6457    0.0000 C   0  0  0  0  0  0  0  0  0  0  0  0
    1.2284    1.9337    0.0000 C   0  0  0  0  0  0  0  0  0  0  0  0
    0.9497   -1.2417    0.0000 C   0  0  0  0  0  0  0  0  0  0  0  0
   -0.0642   -1.2640    0.0000 C   0  0  0  0  0  0  0  0  0  0  0  0
    0.4372   -0.7180    0.0000 C   0  0  0  0  0  0  0  0  0  0  0  0
    1.6020   -1.8804    0.0000 C   0  0  0  0  0  0  0  0  0  0  0  0
  1  8  1  0  0  0  0
  1 11  1  0  0  0  0
  2  7  1  0  0  0  0
  2 19  1  0  0  0  0
  3  7  2  0  0  0  0
  4  8  2  0  0  0  0
  6  5  1  1  0  0  0
  5  8  1  0  0  0  0
  6  7  1  0  0  0  0
  6  9  1  0  0  0  0
  9 10  1  0  0  0  0
 10 12  1  0  0  0  0
 10 13  1  0  0  0  0
 11 16  1  0  0  0  0
 11 17  1  0  0  0  0
 11 18  1  0  0  0  0
 12 14  1  0  0  0  0
 13 15  1  0  0  0  0
 14 15  2  0  0  0  0
M  END
> <PUBCHEM_COMPOUND_ID_TYPE>
0

> <PUBCHEM_TOTAL_CHARGE>
0

> <PUBCHEM_SUBSTANCE_ID>
310940836

> <PUBCHEM_SUBSTANCE_VERSION>
1

> <PUBCHEM_EXT_DATASOURCE_NAME>
4488

> <PUBCHEM_EXT_DATASOURCE_REGID>
SCHEMBL16118795

> <PUBCHEM_SUBSTANCE_COMMENT>
InChI=1S/C14H23NO4/c1-14(2,3)19-13(17)15-11(12(16)18-4)9-10-7-5-6-8-10/h5-6,10-11H,7-9H2,1-4H3,(H,15,17)/t11-/m0/s1
InChIKey=QQRAUWYRQUWQQD-NSHDSACASA-N

> <PUBCHEM_SUBSTANCE_SYNONYM>
SCHEMBL16118795

> <PUBCHEM_XREF_EXT_ID>
SCHEMBL16118795

> <PUBCHEM_EXT_DATASOURCE_URL>
https://www.surechembl.org/

> <PUBCHEM_EXT_SUBSTANCE_URL>
https://www.surechembl.org/chemical/SCHEMBL16118795

> <PUBCHEM_CID_ASSOCIATIONS>
117607755  1

> <PUBCHEM_COORDINATE_TYPE>
1
3

> <PUBCHEM_BONDANNOTATIONS>
6  5  5

$$$$
