310948113
  -OEChem-07211613022D

 43 48  0     0  0  0  0  0  0999 V2000
   -4.6173   -0.9127    0.0000 Cl  0  0  0  0  0  0  0  0  0  0  0  0
    2.8911   -0.4422    0.0000 S   0  0  0  0  0  0  0  0  0  0  0  0
    3.5874    1.8912    0.0000 F   0  0  0  0  0  0  0  0  0  0  0  0
    3.8132    1.1008    0.0000 F   0  0  0  0  0  0  0  0  0  0  0  0
   -4.4479    0.3293    0.0000 F   0  0  0  0  0  0  0  0  0  0  0  0
   -4.3539    1.4396    0.0000 F   0  0  0  0  0  0  0  0  0  0  0  0
   -3.2436    1.3267    0.0000 F   0  0  0  0  0  0  0  0  0  0  0  0
   -1.7946    1.0068    0.0000 O   0  0  0  0  0  0  0  0  0  0  0  0
    2.3642    1.8348    0.0000 O   0  0  0  0  0  0  0  0  0  0  0  0
    2.7029    0.5175    0.0000 O   0  0  0  0  0  0  0  0  0  0  0  0
    2.8911   -0.4422    0.0000 O   0  0  0  0  0  0  0  0  0  0  0  0
    2.8911   -0.4422    0.0000 O   0  0  0  0  0  0  0  0  0  0  0  0
   -2.2274   -0.5363    0.0000 N   0  0  0  0  0  0  0  0  0  0  0  0
   -0.8537    1.9665    0.0000 N   0  0  0  0  0  0  0  0  0  0  0  0
   -2.5097    0.2352    0.0000 N   0  0  0  0  0  0  0  0  0  0  0  0
   -0.8349   -0.1600    0.0000 C   0  0  0  0  0  0  0  0  0  0  0  0
   -1.0607    0.6492    0.0000 C   0  0  0  0  0  0  0  0  0  0  0  0
   -0.4773    1.2326    0.0000 C   0  0  0  0  0  0  0  0  0  0  0  0
   -1.4182   -0.7621    0.0000 C   0  0  0  0  0  0  0  0  0  0  0  0
    0.3131    1.0068    0.0000 C   0  0  0  0  0  0  0  0  0  0  0  0
    1.7055    1.3831    0.0000 C   0  0  0  0  0  0  0  0  0  0  0  0
   -0.0633   -0.3858    0.0000 C   0  0  0  0  0  0  0  0  0  0  0  0
   -3.3188    0.1976    0.0000 C   0  0  0  0  0  0  0  0  0  0  0  0
    0.1437   -1.1761    0.0000 C   0  0  0  0  0  0  0  0  0  0  0  0
    1.8937    0.5927    0.0000 C   0  0  0  0  0  0  0  0  0  0  0  0
    0.8776    1.5713    0.0000 C   0  0  0  0  0  0  0  0  0  0  0  0
   -1.6629    1.8348    0.0000 C   0  0  0  0  0  0  0  0  0  0  0  0
   -1.2112   -1.5525    0.0000 C   0  0  0  0  0  0  0  0  0  0  0  0
   -3.5635   -0.6116    0.0000 C   0  0  0  0  0  0  0  0  0  0  0  0
   -2.8296   -1.0444    0.0000 C   0  0  0  0  0  0  0  0  0  0  0  0
    3.0228    1.3267    0.0000 C   0  0  0  0  0  0  0  0  0  0  0  0
    0.5389    0.1976    0.0000 C   0  0  0  0  0  0  0  0  0  0  0  0
   -3.8457    0.8374    0.0000 C   0  0  0  0  0  0  0  0  0  0  0  0
   -0.4021   -1.7595    0.0000 C   0  0  0  0  0  0  0  0  0  0  0  0
    0.9529   -1.4019    0.0000 C   0  0  0  0  0  0  0  0  0  0  0  0
    1.3104   -0.0094    0.0000 C   0  0  0  0  0  0  0  0  0  0  0  0
    1.5174   -0.8374    0.0000 C   0  0  0  0  0  0  0  0  0  0  0  0
    2.3266   -1.0444    0.0000 C   0  0  0  0  0  0  0  0  0  0  0  0
    1.1787   -2.1923    0.0000 C   0  0  0  0  0  0  0  0  0  0  0  0
   -2.2462    2.4182    0.0000 C   0  0  0  0  0  0  0  0  0  0  0  0
    2.5335   -1.8348    0.0000 C   0  0  0  0  0  0  0  0  0  0  0  0
    1.9502   -2.4182    0.0000 C   0  0  0  0  0  0  0  0  0  0  0  0
    4.6173   -2.2223    0.0000 C   0  0  0  0  0  0  0  0  0  0  0  0
  1 29  1  0  0  0  0
  2 11  2  0  0  0  0
  2 12  2  0  0  0  0
  2 38  1  0  0  0  0
  2 43  1  0  0  0  0
  3 31  1  0  0  0  0
  4 31  1  0  0  0  0
  5 33  1  0  0  0  0
  6 33  1  0  0  0  0
  7 33  1  0  0  0  0
  8 17  1  0  0  0  0
  8 27  1  0  0  0  0
  9 21  1  0  0  0  0
  9 31  1  0  0  0  0
 10 25  1  0  0  0  0
 10 31  1  0  0  0  0
 13 15  1  0  0  0  0
 13 19  1  0  0  0  0
 13 30  1  0  0  0  0
 14 18  1  0  0  0  0
 14 27  2  0  0  0  0
 15 23  2  0  0  0  0
 16 17  1  0  0  0  0
 16 19  1  0  0  0  0
 16 22  2  0  0  0  0
 17 18  2  0  0  0  0
 18 20  1  0  0  0  0
 19 28  2  0  0  0  0
 20 26  2  0  0  0  0
 20 32  1  0  0  0  0
 21 25  2  0  0  0  0
 21 26  1  0  0  0  0
 22 24  1  0  0  0  0
 23 29  1  0  0  0  0
 23 33  1  0  0  0  0
 24 34  2  0  0  0  0
 24 35  1  0  0  0  0
 25 36  1  0  0  0  0
 27 40  1  0  0  0  0
 28 34  1  0  0  0  0
 29 30  2  0  0  0  0
 32 36  2  0  0  0  0
 35 37  2  0  0  0  0
 35 39  1  0  0  0  0
 37 38  1  0  0  0  0
 38 41  2  0  0  0  0
 39 42  2  0  0  0  0
 41 42  1  0  0  0  0
M  END
> <PUBCHEM_COMPOUND_ID_TYPE>
0

> <PUBCHEM_TOTAL_CHARGE>
0

> <PUBCHEM_SUBSTANCE_ID>
310948113

> <PUBCHEM_SUBSTANCE_VERSION>
1

> <PUBCHEM_EXT_DATASOURCE_NAME>
4488

> <PUBCHEM_EXT_DATASOURCE_REGID>
SCHEMBL16126289

> <PUBCHEM_SUBSTANCE_COMMENT>
InChI=1S/C28H17ClF5N3O5S/c1-14-35-24(17-7-9-22-23(12-17)42-28(33,34)41-22)25(40-14)19-11-16(15-4-3-5-18(10-15)43(2,38)39)6-8-21(19)37-13-20(29)26(36-37)27(30,31)32/h3-13H,1-2H3
InChIKey=UIRRCPHCAYKBOQ-UHFFFAOYSA-N

> <PUBCHEM_SUBSTANCE_SYNONYM>
SCHEMBL16126289

> <PUBCHEM_XREF_EXT_ID>
SCHEMBL16126289

> <PUBCHEM_EXT_DATASOURCE_URL>
https://www.surechembl.org/

> <PUBCHEM_EXT_SUBSTANCE_URL>
https://www.surechembl.org/chemical/SCHEMBL16126289

> <PUBCHEM_CID_ASSOCIATIONS>
117613730  1

> <PUBCHEM_COORDINATE_TYPE>
1
3

$$$$
