310948304
  -OEChem-07211613022D

 49 54  0     0  0  0  0  0  0999 V2000
    3.6286   -2.1737    0.0000 S   0  0  0  0  0  0  0  0  0  0  0  0
    3.3891    3.9576    0.0000 F   0  0  0  0  0  0  0  0  0  0  0  0
    3.9283    3.3186    0.0000 F   0  0  0  0  0  0  0  0  0  0  0  0
    3.7285    0.7023    0.0000 F   0  0  0  0  0  0  0  0  0  0  0  0
   -1.2444    0.9619    0.0000 O   0  0  0  0  0  0  0  0  0  0  0  0
    2.2906    3.3786    0.0000 O   0  0  0  0  0  0  0  0  0  0  0  0
    3.1693    2.3400    0.0000 O   0  0  0  0  0  0  0  0  0  0  0  0
    3.6286   -2.1737    0.0000 O   0  0  0  0  0  0  0  0  0  0  0  0
    3.6286   -2.1737    0.0000 O   0  0  0  0  0  0  0  0  0  0  0  0
   -3.1018    1.2415    0.0000 O   0  0  0  0  0  0  0  0  0  0  0  0
    4.9468   -0.0567    0.0000 O   0  0  0  0  0  0  0  0  0  0  0  0
   -0.6452    2.1802    0.0000 N   0  0  0  0  0  0  0  0  0  0  0  0
   -1.8036   -1.2151    0.0000 N   0  0  0  0  0  0  0  0  0  0  0  0
   -2.5825   -0.9354    0.0000 N   0  0  0  0  0  0  0  0  0  0  0  0
   -3.9806    0.1031    0.0000 N   0  0  0  0  0  0  0  0  0  0  0  0
   -0.0261    0.1431    0.0000 C   0  0  0  0  0  0  0  0  0  0  0  0
   -0.4056    0.8620    0.0000 C   0  0  0  0  0  0  0  0  0  0  0  0
   -0.0261    1.6209    0.0000 C   0  0  0  0  0  0  0  0  0  0  0  0
   -0.4456   -0.5959    0.0000 C   0  0  0  0  0  0  0  0  0  0  0  0
   -1.3044   -0.5359    0.0000 C   0  0  0  0  0  0  0  0  0  0  0  0
    0.7527    1.7608    0.0000 C   0  0  0  0  0  0  0  0  0  0  0  0
    1.1922   -0.6358    0.0000 C   0  0  0  0  0  0  0  0  0  0  0  0
    0.8127    0.0832    0.0000 C   0  0  0  0  0  0  0  0  0  0  0  0
    1.8712    2.6595    0.0000 C   0  0  0  0  0  0  0  0  0  0  0  0
    2.0310   -0.6758    0.0000 C   0  0  0  0  0  0  0  0  0  0  0  0
    2.4105    2.0404    0.0000 C   0  0  0  0  0  0  0  0  0  0  0  0
   -0.0661   -1.3149    0.0000 C   0  0  0  0  0  0  0  0  0  0  0  0
   -1.3643    1.8007    0.0000 C   0  0  0  0  0  0  0  0  0  0  0  0
    1.0723    2.5196    0.0000 C   0  0  0  0  0  0  0  0  0  0  0  0
    3.1294    3.1988    0.0000 C   0  0  0  0  0  0  0  0  0  0  0  0
    0.7527   -1.3349    0.0000 C   0  0  0  0  0  0  0  0  0  0  0  0
   -1.7637    0.1231    0.0000 C   0  0  0  0  0  0  0  0  0  0  0  0
    3.2293   -1.4348    0.0000 C   0  0  0  0  0  0  0  0  0  0  0  0
    1.3120    1.1217    0.0000 C   0  0  0  0  0  0  0  0  0  0  0  0
   -2.5426   -0.0966    0.0000 C   0  0  0  0  0  0  0  0  0  0  0  0
    2.4305   -1.3948    0.0000 C   0  0  0  0  0  0  0  0  0  0  0  0
    3.6686   -0.7157    0.0000 C   0  0  0  0  0  0  0  0  0  0  0  0
    2.1108    1.2615    0.0000 C   0  0  0  0  0  0  0  0  0  0  0  0
    2.4704    0.0232    0.0000 C   0  0  0  0  0  0  0  0  0  0  0  0
    3.2892    0.0032    0.0000 C   0  0  0  0  0  0  0  0  0  0  0  0
   -3.2217    0.4027    0.0000 C   0  0  0  0  0  0  0  0  0  0  0  0
   -2.1232    2.1403    0.0000 C   0  0  0  0  0  0  0  0  0  0  0  0
   -1.5440   -2.0339    0.0000 C   0  0  0  0  0  0  0  0  0  0  0  0
    4.5074   -0.7557    0.0000 C   0  0  0  0  0  0  0  0  0  0  0  0
    5.3586   -3.9576    0.0000 C   0  0  0  0  0  0  0  0  0  0  0  0
   -4.6197    0.6223    0.0000 C   0  0  0  0  0  0  0  0  0  0  0  0
   -4.5197    1.4413    0.0000 C   0  0  0  0  0  0  0  0  0  0  0  0
   -5.3586    0.2829    0.0000 C   0  0  0  0  0  0  0  0  0  0  0  0
   -3.8408    0.9419    0.0000 C   0  0  0  0  0  0  0  0  0  0  0  0
  1  8  2  0  0  0  0
  1  9  2  0  0  0  0
  1 33  1  0  0  0  0
  1 45  1  0  0  0  0
  2 30  1  0  0  0  0
  3 30  1  0  0  0  0
  4 40  1  0  0  0  0
  5 17  1  0  0  0  0
  5 28  1  0  0  0  0
  6 24  1  0  0  0  0
  6 30  1  0  0  0  0
  7 26  1  0  0  0  0
  7 30  1  0  0  0  0
 10 41  2  0  0  0  0
 11 44  1  0  0  0  0
 12 18  1  0  0  0  0
 12 28  2  0  0  0  0
 13 14  1  0  0  0  0
 13 20  1  0  0  0  0
 13 43  1  0  0  0  0
 14 35  2  0  0  0  0
 15 41  1  0  0  0  0
 15 46  1  0  0  0  0
 16 17  1  0  0  0  0
 16 19  1  0  0  0  0
 16 23  2  0  0  0  0
 17 18  2  0  0  0  0
 18 21  1  0  0  0  0
 19 20  1  0  0  0  0
 19 27  2  0  0  0  0
 20 32  2  0  0  0  0
 21 29  1  0  0  0  0
 21 34  2  0  0  0  0
 22 23  1  0  0  0  0
 22 25  1  0  0  0  0
 22 31  2  0  0  0  0
 24 26  1  0  0  0  0
 24 29  2  0  0  0  0
 25 36  1  0  0  0  0
 25 39  2  0  0  0  0
 26 38  2  0  0  0  0
 27 31  1  0  0  0  0
 28 42  1  0  0  0  0
 32 35  1  0  0  0  0
 33 36  2  0  0  0  0
 33 37  1  0  0  0  0
 34 38  1  0  0  0  0
 35 41  1  0  0  0  0
 37 40  2  0  0  0  0
 37 44  1  0  0  0  0
 39 40  1  0  0  0  0
 46 47  1  0  0  0  0
 46 48  1  0  0  0  0
 46 49  1  0  0  0  0
M  END
> <PUBCHEM_COMPOUND_ID_TYPE>
0

> <PUBCHEM_TOTAL_CHARGE>
0

> <PUBCHEM_SUBSTANCE_ID>
310948304

> <PUBCHEM_SUBSTANCE_VERSION>
1

> <PUBCHEM_EXT_DATASOURCE_NAME>
4488

> <PUBCHEM_EXT_DATASOURCE_REGID>
SCHEMBL16126482

> <PUBCHEM_SUBSTANCE_COMMENT>
InChI=1S/C34H31F3N4O7S/c1-17-38-30(19-8-10-27-28(13-19)48-34(36,37)47-27)31(46-17)22-11-18(20-12-24(35)23(16-42)29(14-20)49(6,44)45)7-9-21(22)26-15-25(40-41(26)5)32(43)39-33(2,3)4/h7-15,42H,16H2,1-6H3,(H,39,43)
InChIKey=ODSJJEHBLNDVGM-UHFFFAOYSA-N

> <PUBCHEM_SUBSTANCE_SYNONYM>
SCHEMBL16126482

> <PUBCHEM_XREF_EXT_ID>
SCHEMBL16126482

> <PUBCHEM_EXT_DATASOURCE_URL>
https://www.surechembl.org/

> <PUBCHEM_EXT_SUBSTANCE_URL>
https://www.surechembl.org/chemical/SCHEMBL16126482

> <PUBCHEM_CID_ASSOCIATIONS>
117613870  1

> <PUBCHEM_COORDINATE_TYPE>
1
3

$$$$
