310942481
  -OEChem-07211613022D

 34 37  0     1  0  0  0  0  0999 V2000
    3.9038   -0.2651    0.0000 I   0  0  0  0  0  0  0  0  0  0  0  0
   -1.7383    0.5745    0.0000 O   0  0  0  0  0  0  0  0  0  0  0  0
   -3.9038    1.8268    0.0000 O   0  0  0  0  0  0  0  0  0  0  0  0
   -1.7383   -0.2504    0.0000 O   0  0  0  0  0  0  0  0  0  0  0  0
   -3.1673   -1.0754    0.0000 O   0  0  0  0  0  0  0  0  0  0  0  0
   -2.4307   -2.3276    0.0000 O   0  0  0  0  0  0  0  0  0  0  0  0
    1.8562    0.1768    0.0000 O   0  0  0  0  0  0  0  0  0  0  0  0
   -1.7088    1.4584    0.0000 C   0  0  3  0  0  0  0  0  0  0  0  0
   -2.4307    1.0607    0.0000 C   0  0  3  0  0  0  0  0  0  0  0  0
   -3.1820    1.4878    0.0000 C   0  0  3  0  0  0  0  0  0  0  0  0
   -1.0459    1.0607    0.0000 C   0  0  3  0  0  0  0  0  0  0  0  0
   -2.4454    0.2357    0.0000 C   0  0  3  0  0  0  0  0  0  0  0  0
   -3.1673    2.2981    0.0000 C   0  0  0  0  0  0  0  0  0  0  0  0
   -3.8743    1.0607    0.0000 C   0  0  0  0  0  0  0  0  0  0  0  0
   -3.1525   -0.1768    0.0000 C   0  0  3  0  0  0  0  0  0  0  0  0
   -1.7088    2.3276    0.0000 C   0  0  0  0  0  0  0  0  0  0  0  0
   -3.8596    0.2357    0.0000 C   0  0  0  0  0  0  0  0  0  0  0  0
   -0.2946    1.4732    0.0000 C   0  0  0  0  0  0  0  0  0  0  0  0
    0.4567    1.0754    0.0000 C   0  0  0  0  0  0  0  0  0  0  0  0
   -2.4307   -1.3994    0.0000 C   0  0  0  0  0  0  0  0  0  0  0  0
   -1.7825   -1.0607    0.0000 C   0  0  0  0  0  0  0  0  0  0  0  0
    1.1343    1.4878    0.0000 C   0  0  0  0  0  0  0  0  0  0  0  0
   -1.7383   -1.0165    0.0000 C   0  0  0  0  0  0  0  0  0  0  0  0
    1.1638    2.3276    0.0000 C   0  0  0  0  0  0  0  0  0  0  0  0
    1.8856    1.0754    0.0000 C   0  0  0  0  0  0  0  0  0  0  0  0
   -0.9871   -1.4142    0.0000 C   0  0  0  0  0  0  0  0  0  0  0  0
   -0.2946   -1.0165    0.0000 C   0  0  0  0  0  0  0  0  0  0  0  0
    0.4125   -1.4142    0.0000 C   0  0  0  0  0  0  0  0  0  0  0  0
   -0.2651   -0.1768    0.0000 C   0  0  0  0  0  0  0  0  0  0  0  0
    1.1638   -0.1768    0.0000 C   0  0  0  0  0  0  0  0  0  0  0  0
    1.1491   -1.0017    0.0000 C   0  0  0  0  0  0  0  0  0  0  0  0
    0.4272    0.2210    0.0000 C   0  0  0  0  0  0  0  0  0  0  0  0
    2.5927   -0.1768    0.0000 C   0  0  0  0  0  0  0  0  0  0  0  0
    3.2999    0.2357    0.0000 C   0  0  0  0  0  0  0  0  0  0  0  0
  1 34  1  0  0  0  0
  2  8  1  0  0  0  0
  2 11  1  0  0  0  0
 10  3  1  1  0  0  0
  3 13  1  0  0  0  0
 12  4  1  6  0  0  0
  4 21  1  0  0  0  0
 15  5  1  6  0  0  0
  5 20  1  0  0  0  0
  6 20  2  0  0  0  0
  7 30  1  0  0  0  0
  7 33  1  0  0  0  0
  8  9  1  0  0  0  0
  8 11  1  0  0  0  0
  8 16  1  1  0  0  0
  9 10  1  1  0  0  0
  9 12  1  0  0  0  0
 10 13  1  0  0  0  0
 10 14  1  0  0  0  0
 11 18  1  1  0  0  0
 12 15  1  0  0  0  0
 14 17  1  0  0  0  0
 15 17  1  0  0  0  0
 18 19  1  0  0  0  0
 19 22  2  0  0  0  0
 20 23  1  0  0  0  0
 22 24  1  0  0  0  0
 22 25  1  0  0  0  0
 23 26  2  0  0  0  0
 26 27  1  0  0  0  0
 27 28  2  0  0  0  0
 27 29  1  0  0  0  0
 28 31  1  0  0  0  0
 29 32  2  0  0  0  0
 30 31  2  0  0  0  0
 30 32  1  0  0  0  0
 33 34  1  0  0  0  0
M  END
> <PUBCHEM_COMPOUND_ID_TYPE>
0

> <PUBCHEM_TOTAL_CHARGE>
0

> <PUBCHEM_SUBSTANCE_ID>
310942481

> <PUBCHEM_SUBSTANCE_VERSION>
1

> <PUBCHEM_EXT_DATASOURCE_NAME>
4488

> <PUBCHEM_EXT_DATASOURCE_REGID>
SCHEMBL16120517

> <PUBCHEM_SUBSTANCE_COMMENT>
InChI=1S/C27H35IO6/c1-18(2)5-11-22-26(3,34-22)25-24(30-4)21(13-14-27(25)17-32-27)33-23(29)12-8-19-6-9-20(10-7-19)31-16-15-28/h5-10,12,21-22,24-25H,11,13-17H2,1-4H3/b12-8+/t21-,22-,24-,25-,26+,27+/m1/s1
InChIKey=RJQYJGOVEVSHGT-OFXSMXEFSA-N

> <PUBCHEM_SUBSTANCE_SYNONYM>
SCHEMBL16120517

> <PUBCHEM_XREF_EXT_ID>
SCHEMBL16120517

> <PUBCHEM_EXT_DATASOURCE_URL>
https://www.surechembl.org/

> <PUBCHEM_EXT_SUBSTANCE_URL>
https://www.surechembl.org/chemical/SCHEMBL16120517

> <PUBCHEM_CID_ASSOCIATIONS>
117609052  1

> <PUBCHEM_COORDINATE_TYPE>
1
3

> <PUBCHEM_BONDANNOTATIONS>
11  18  5
10  3  5
12  4  6
15  5  6
8  16  5
9  10  5

$$$$
