310946822
  -OEChem-07211613022D

 41 42  0     1  0  0  0  0  0999 V2000
   -4.4859    2.7670    0.0000 O   0  0  0  0  0  0  0  0  0  0  0  0
   -1.1859    2.7670    0.0000 N   0  0  0  0  0  0  0  0  0  0  0  0
    2.1141    2.7670    0.0000 N   0  0  0  0  0  0  0  0  0  0  0  0
   -2.0109    2.7670    0.0000 C   0  0  0  0  0  0  0  0  0  0  0  0
   -2.4234    2.0525    0.0000 C   0  0  0  0  0  0  0  0  0  0  0  0
   -0.3609    2.7670    0.0000 C   0  0  0  0  0  0  0  0  0  0  0  0
   -3.2484    2.0525    0.0000 C   0  0  0  0  0  0  0  0  0  0  0  0
   -3.6609    2.7670    0.0000 C   0  0  0  0  0  0  0  0  0  0  0  0
   -3.2484    3.4814    0.0000 C   0  0  0  0  0  0  0  0  0  0  0  0
    0.0516    2.0525    0.0000 C   0  0  0  0  0  0  0  0  0  0  0  0
    0.0516    3.4814    0.0000 C   0  0  0  0  0  0  0  0  0  0  0  0
   -2.4234    3.4814    0.0000 C   0  0  0  0  0  0  0  0  0  0  0  0
    1.2891    2.7670    0.0000 C   0  0  0  0  0  0  0  0  0  0  0  0
    0.8766    2.0525    0.0000 C   0  0  0  0  0  0  0  0  0  0  0  0
    0.8766    3.4814    0.0000 C   0  0  0  0  0  0  0  0  0  0  0  0
   -2.0109    1.3380    0.0000 C   0  0  0  0  0  0  0  0  0  0  0  0
   -3.6609    1.3380    0.0000 C   0  0  0  0  0  0  0  0  0  0  0  0
   -3.6609    4.1959    0.0000 C   0  0  0  0  0  0  0  0  0  0  0  0
    2.5266    2.0525    0.0000 C   0  0  0  0  0  0  0  0  0  0  0  0
    2.5266    3.4814    0.0000 C   0  0  0  0  0  0  0  0  0  0  0  0
   -0.3609    1.3380    0.0000 C   0  0  0  0  0  0  0  0  0  0  0  0
   -0.3609    4.1959    0.0000 C   0  0  0  0  0  0  0  0  0  0  0  0
    2.1141    1.3380    0.0000 C   0  0  3  0  0  0  0  0  0  0  0  0
    3.3516    3.4814    0.0000 C   0  0  3  0  0  0  0  0  0  0  0  0
   -4.4859    4.1959    0.0000 C   0  0  0  0  0  0  0  0  0  0  0  0
   -1.1859    1.3380    0.0000 C   0  0  0  0  0  0  0  0  0  0  0  0
   -3.2484    0.6235    0.0000 C   0  0  0  0  0  0  0  0  0  0  0  0
    2.5266    0.6235    0.0000 C   0  0  0  0  0  0  0  0  0  0  0  0
    3.7641    4.1959    0.0000 C   0  0  0  0  0  0  0  0  0  0  0  0
    1.2891    1.3380    0.0000 C   0  0  0  0  0  0  0  0  0  0  0  0
    3.7641    2.7670    0.0000 C   0  0  0  0  0  0  0  0  0  0  0  0
   -4.8984    4.9104    0.0000 C   0  0  0  0  0  0  0  0  0  0  0  0
    2.1141   -0.0909    0.0000 C   0  0  0  0  0  0  0  0  0  0  0  0
    4.5891    4.1959    0.0000 C   0  0  0  0  0  0  0  0  0  0  0  0
    0.8766    2.0525    0.0000 C   0  0  0  0  0  0  0  0  0  0  0  0
    3.3516    2.0525    0.0000 C   0  0  0  0  0  0  0  0  0  0  0  0
   -5.7234    4.9104    0.0000 C   0  0  0  0  0  0  0  0  0  0  0  0
    2.5266   -0.8054    0.0000 C   0  0  0  0  0  0  0  0  0  0  0  0
    5.0016    4.9104    0.0000 C   0  0  0  0  0  0  0  0  0  0  0  0
    2.1141   -1.5199    0.0000 C   0  0  0  0  0  0  0  0  0  0  0  0
    5.8266    4.9104    0.0000 C   0  0  0  0  0  0  0  0  0  0  0  0
  1  8  2  0  0  0  0
  2  4  2  3  0  0  0
  2  6  1  0  0  0  0
  3 13  1  0  0  0  0
  3 19  1  0  0  0  0
  3 20  1  0  0  0  0
  4  5  1  0  0  0  0
  4 12  1  0  0  0  0
  5  7  2  0  0  0  0
  5 16  1  0  0  0  0
  6 10  2  0  0  0  0
  6 11  1  0  0  0  0
  7  8  1  0  0  0  0
  7 17  1  0  0  0  0
  8  9  1  0  0  0  0
  9 12  2  0  0  0  0
  9 18  1  0  0  0  0
 10 14  1  0  0  0  0
 10 21  1  0  0  0  0
 11 15  2  0  0  0  0
 11 22  1  0  0  0  0
 13 14  2  0  0  0  0
 13 15  1  0  0  0  0
 16 26  1  0  0  0  0
 17 27  1  0  0  0  0
 18 25  1  0  0  0  0
 19 23  1  0  0  0  0
 20 24  1  0  0  0  0
 23 28  1  0  0  0  0
 23 30  1  0  0  0  0
 24 29  1  0  0  0  0
 24 31  1  0  0  0  0
 25 32  1  0  0  0  0
 28 33  1  0  0  0  0
 29 34  1  0  0  0  0
 30 35  1  0  0  0  0
 31 36  1  0  0  0  0
 32 37  1  0  0  0  0
 33 38  1  0  0  0  0
 34 39  1  0  0  0  0
 38 40  1  0  0  0  0
 39 41  1  0  0  0  0
M  END
> <PUBCHEM_COMPOUND_ID_TYPE>
0

> <PUBCHEM_TOTAL_CHARGE>
0

> <PUBCHEM_SUBSTANCE_ID>
310946822

> <PUBCHEM_SUBSTANCE_VERSION>
1

> <PUBCHEM_EXT_DATASOURCE_NAME>
4488

> <PUBCHEM_EXT_DATASOURCE_REGID>
SCHEMBL16124946

> <PUBCHEM_SUBSTANCE_COMMENT>
InChI=1S/C38H62N2O/c1-10-17-20-30(13-4)26-40(27-31(14-5)21-18-11-2)33-23-28(8)37(29(9)24-33)39-36-25-32(22-19-12-3)38(41)35(16-7)34(36)15-6/h23-25,30-31H,10-22,26-27H2,1-9H3
InChIKey=NPQXQBDBEFVVDQ-UHFFFAOYSA-N

> <PUBCHEM_SUBSTANCE_SYNONYM>
SCHEMBL16124946

> <PUBCHEM_XREF_EXT_ID>
SCHEMBL16124946

> <PUBCHEM_EXT_DATASOURCE_URL>
https://www.surechembl.org/

> <PUBCHEM_EXT_SUBSTANCE_URL>
https://www.surechembl.org/chemical/SCHEMBL16124946

> <PUBCHEM_CID_ASSOCIATIONS>
117612682  1

> <PUBCHEM_COORDINATE_TYPE>
1
3

$$$$
