310948987
  -OEChem-07211613022D

 11 11  0     0  0  0  0  0  0999 V2000
   -0.3834    1.4640    0.0000 N   0  0  0  0  0  0  0  0  0  0  0  0
    0.9691    1.4919    0.0000 N   0  0  0  0  0  0  0  0  0  0  0  0
   -0.3834    1.4640    0.0000 N   0  0  0  0  0  0  0  0  0  0  0  0
    0.2998    0.1534    0.0000 C   0  0  0  0  0  0  0  0  0  0  0  0
    0.2859    0.9760    0.0000 C   0  0  0  0  0  0  0  0  0  0  0  0
   -0.4113   -0.2649    0.0000 C   0  0  0  0  0  0  0  0  0  0  0  0
    1.0248   -0.2510    0.0000 C   0  0  0  0  0  0  0  0  0  0  0  0
   -0.4113   -1.1154    0.0000 C   0  0  0  0  0  0  0  0  0  0  0  0
    1.0388   -1.0597    0.0000 C   0  0  0  0  0  0  0  0  0  0  0  0
    0.3416   -1.4919    0.0000 C   0  0  0  0  0  0  0  0  0  0  0  0
   -1.0388    0.0697    0.0000 C   0  0  0  0  0  0  0  0  0  0  0  0
  1  3  2  3  0  0  0
  1  5  1  0  0  0  0
  2  5  2  3  0  0  0
  4  5  1  0  0  0  0
  4  6  1  0  0  0  0
  4  7  2  0  0  0  0
  6  8  2  0  0  0  0
  6 11  1  0  0  0  0
  7  9  1  0  0  0  0
  8 10  1  0  0  0  0
  9 10  2  0  0  0  0
M  END
> <PUBCHEM_COMPOUND_ID_TYPE>
0

> <PUBCHEM_TOTAL_CHARGE>
0

> <PUBCHEM_SUBSTANCE_ID>
310948987

> <PUBCHEM_SUBSTANCE_VERSION>
1

> <PUBCHEM_EXT_DATASOURCE_NAME>
4488

> <PUBCHEM_EXT_DATASOURCE_REGID>
SCHEMBL16127175

> <PUBCHEM_SUBSTANCE_COMMENT>
InChI=1S/C8H9N3/c1-6-4-2-3-5-7(6)8(9)11-10/h2-5,9-10H,1H3
InChIKey=AMGSHETUWIRFOM-UHFFFAOYSA-N

> <PUBCHEM_SUBSTANCE_SYNONYM>
SCHEMBL16127175

> <PUBCHEM_XREF_EXT_ID>
SCHEMBL16127175

> <PUBCHEM_EXT_DATASOURCE_URL>
https://www.surechembl.org/

> <PUBCHEM_EXT_SUBSTANCE_URL>
https://www.surechembl.org/chemical/SCHEMBL16127175

> <PUBCHEM_CID_ASSOCIATIONS>
117614496  1

> <PUBCHEM_COORDINATE_TYPE>
1
3

$$$$
