310948497
  -OEChem-07211613022D

 46 50  0     0  0  0  0  0  0999 V2000
   -0.5475    4.0120    0.0000 Cl  0  0  0  0  0  0  0  0  0  0  0  0
   -0.0075   -2.8578    0.0000 S   0  0  0  0  0  0  0  0  0  0  0  0
   -2.9925    3.5170    0.0000 F   0  0  0  0  0  0  0  0  0  0  0  0
   -2.8574    4.6270    0.0000 F   0  0  0  0  0  0  0  0  0  0  0  0
   -1.7324    4.4770    0.0000 F   0  0  0  0  0  0  0  0  0  0  0  0
   -2.9024   -2.8578    0.0000 F   0  0  0  0  0  0  0  0  0  0  0  0
    2.9925   -2.8128    0.0000 F   0  0  0  0  0  0  0  0  0  0  0  0
    2.4674   -1.7779    0.0000 F   0  0  0  0  0  0  0  0  0  0  0  0
    1.9424   -3.2928    0.0000 F   0  0  0  0  0  0  0  0  0  0  0  0
    0.0675    2.0770    0.0000 O   0  0  0  0  0  0  0  0  0  0  0  0
   -0.0075   -2.8578    0.0000 O   0  0  0  0  0  0  0  0  0  0  0  0
   -0.0075   -2.8578    0.0000 O   0  0  0  0  0  0  0  0  0  0  0  0
    1.4325   -2.2878    0.0000 O   0  0  0  0  0  0  0  0  0  0  0  0
   -0.7425   -4.1028    0.0000 O   0  0  0  0  0  0  0  0  0  0  0  0
   -1.4474    2.0921    0.0000 N   0  0  0  0  0  0  0  0  0  0  0  0
   -2.1224    2.5720    0.0000 N   0  0  0  0  0  0  0  0  0  0  0  0
    1.3125    1.5371    0.0000 N   0  0  0  0  0  0  0  0  0  0  0  0
   -0.7274    0.8621    0.0000 C   0  0  0  0  0  0  0  0  0  0  0  0
   -1.4474    1.2671    0.0000 C   0  0  0  0  0  0  0  0  0  0  0  0
   -0.0225    1.2821    0.0000 C   0  0  0  0  0  0  0  0  0  0  0  0
    0.7575    0.9221    0.0000 C   0  0  0  0  0  0  0  0  0  0  0  0
   -1.4474   -0.3679    0.0000 C   0  0  0  0  0  0  0  0  0  0  0  0
   -0.7274    0.0521    0.0000 C   0  0  0  0  0  0  0  0  0  0  0  0
   -1.8674    3.3670    0.0000 C   0  0  0  0  0  0  0  0  0  0  0  0
   -1.4474   -1.2079    0.0000 C   0  0  0  0  0  0  0  0  0  0  0  0
   -2.1675    0.8621    0.0000 C   0  0  0  0  0  0  0  0  0  0  0  0
   -1.0425    3.3520    0.0000 C   0  0  0  0  0  0  0  0  0  0  0  0
   -0.7725    2.5870    0.0000 C   0  0  0  0  0  0  0  0  0  0  0  0
    0.9225    0.1421    0.0000 C   0  0  0  0  0  0  0  0  0  0  0  0
   -0.7425   -2.4229    0.0000 C   0  0  0  0  0  0  0  0  0  0  0  0
   -2.1675    0.0521    0.0000 C   0  0  0  0  0  0  0  0  0  0  0  0
    0.9074    2.2421    0.0000 C   0  0  0  0  0  0  0  0  0  0  0  0
   -2.3624    4.0120    0.0000 C   0  0  0  0  0  0  0  0  0  0  0  0
   -0.7274   -1.6278    0.0000 C   0  0  0  0  0  0  0  0  0  0  0  0
   -1.4474   -2.8428    0.0000 C   0  0  0  0  0  0  0  0  0  0  0  0
   -2.1675   -1.6129    0.0000 C   0  0  0  0  0  0  0  0  0  0  0  0
   -2.1675   -2.4378    0.0000 C   0  0  0  0  0  0  0  0  0  0  0  0
    1.7175   -0.1279    0.0000 C   0  0  0  0  0  0  0  0  0  0  0  0
    0.3375   -0.4129    0.0000 C   0  0  0  0  0  0  0  0  0  0  0  0
   -1.4474   -3.6678    0.0000 C   0  0  0  0  0  0  0  0  0  0  0  0
    1.2674   -1.4778    0.0000 C   0  0  0  0  0  0  0  0  0  0  0  0
    1.2224    3.0070    0.0000 C   0  0  0  0  0  0  0  0  0  0  0  0
    1.8825   -0.9229    0.0000 C   0  0  0  0  0  0  0  0  0  0  0  0
    0.4875   -1.2229    0.0000 C   0  0  0  0  0  0  0  0  0  0  0  0
    1.7080   -4.6270    0.0000 C   0  0  0  0  0  0  0  0  0  0  0  0
    2.2125   -2.5428    0.0000 C   0  0  0  0  0  0  0  0  0  0  0  0
  1 27  1  0  0  0  0
  2 11  2  0  0  0  0
  2 12  2  0  0  0  0
  2 30  1  0  0  0  0
  2 45  1  0  0  0  0
  3 33  1  0  0  0  0
  4 33  1  0  0  0  0
  5 33  1  0  0  0  0
  6 37  1  0  0  0  0
  7 46  1  0  0  0  0
  8 46  1  0  0  0  0
  9 46  1  0  0  0  0
 10 20  1  0  0  0  0
 10 32  1  0  0  0  0
 13 41  1  0  0  0  0
 13 46  1  0  0  0  0
 14 40  1  0  0  0  0
 15 16  1  0  0  0  0
 15 19  1  0  0  0  0
 15 28  1  0  0  0  0
 16 24  2  0  0  0  0
 17 21  1  0  0  0  0
 17 32  2  0  0  0  0
 18 19  1  0  0  0  0
 18 20  1  0  0  0  0
 18 23  2  0  0  0  0
 19 26  2  0  0  0  0
 20 21  2  0  0  0  0
 21 29  1  0  0  0  0
 22 23  1  0  0  0  0
 22 25  1  0  0  0  0
 22 31  2  0  0  0  0
 24 27  1  0  0  0  0
 24 33  1  0  0  0  0
 25 34  2  0  0  0  0
 25 36  1  0  0  0  0
 26 31  1  0  0  0  0
 27 28  2  0  0  0  0
 29 38  2  0  0  0  0
 29 39  1  0  0  0  0
 30 34  1  0  0  0  0
 30 35  2  0  0  0  0
 32 42  1  0  0  0  0
 35 37  1  0  0  0  0
 35 40  1  0  0  0  0
 36 37  2  0  0  0  0
 38 43  1  0  0  0  0
 39 44  2  0  0  0  0
 41 43  2  0  0  0  0
 41 44  1  0  0  0  0
M  END
> <PUBCHEM_COMPOUND_ID_TYPE>
0

> <PUBCHEM_TOTAL_CHARGE>
0

> <PUBCHEM_SUBSTANCE_ID>
310948497

> <PUBCHEM_SUBSTANCE_VERSION>
1

> <PUBCHEM_EXT_DATASOURCE_NAME>
4488

> <PUBCHEM_EXT_DATASOURCE_REGID>
SCHEMBL16126679

> <PUBCHEM_SUBSTANCE_COMMENT>
InChI=1S/C29H19ClF7N3O5S/c1-14-38-25(15-3-6-18(7-4-15)45-29(35,36)37)26(44-14)19-9-16(17-10-22(31)20(13-41)24(11-17)46(2,42)43)5-8-23(19)40-12-21(30)27(39-40)28(32,33)34/h3-12,41H,13H2,1-2H3
InChIKey=NUDLPJQGROIQHO-UHFFFAOYSA-N

> <PUBCHEM_SUBSTANCE_SYNONYM>
SCHEMBL16126679

> <PUBCHEM_XREF_EXT_ID>
SCHEMBL16126679

> <PUBCHEM_EXT_DATASOURCE_URL>
https://www.surechembl.org/

> <PUBCHEM_EXT_SUBSTANCE_URL>
https://www.surechembl.org/chemical/SCHEMBL16126679

> <PUBCHEM_CID_ASSOCIATIONS>
117614054  1

> <PUBCHEM_COORDINATE_TYPE>
1
3

$$$$
