310948222
  -OEChem-07211613022D

 45 49  0     0  0  0  0  0  0999 V2000
   -2.0439   -3.1645    0.0000 S   0  0  0  0  0  0  0  0  0  0  0  0
   -0.3227    4.2582    0.0000 F   0  0  0  0  0  0  0  0  0  0  0  0
    0.7889    4.4195    0.0000 F   0  0  0  0  0  0  0  0  0  0  0  0
    0.9323    3.3079    0.0000 F   0  0  0  0  0  0  0  0  0  0  0  0
    0.8247   -3.1645    0.0000 F   0  0  0  0  0  0  0  0  0  0  0  0
    2.2770   -2.6087    0.0000 F   0  0  0  0  0  0  0  0  0  0  0  0
    2.2770   -2.6087    0.0000 F   0  0  0  0  0  0  0  0  0  0  0  0
    0.9144    1.8377    0.0000 O   0  0  0  0  0  0  0  0  0  0  0  0
   -2.4205   -2.5011    0.0000 O   0  0  0  0  0  0  0  0  0  0  0  0
   -1.6315   -3.8637    0.0000 O   0  0  0  0  0  0  0  0  0  0  0  0
    2.2770   -2.6087    0.0000 O   0  0  0  0  0  0  0  0  0  0  0  0
    0.1075   -4.4195    0.0000 O   0  0  0  0  0  0  0  0  0  0  0  0
   -0.6096    1.8377    0.0000 N   0  0  0  0  0  0  0  0  0  0  0  0
    0.0717    2.3397    0.0000 N   0  0  0  0  0  0  0  0  0  0  0  0
    2.1515    1.2819    0.0000 N   0  0  0  0  0  0  0  0  0  0  0  0
    0.1255    0.6007    0.0000 C   0  0  0  0  0  0  0  0  0  0  0  0
   -0.6096    1.0130    0.0000 C   0  0  0  0  0  0  0  0  0  0  0  0
    0.8247    1.0130    0.0000 C   0  0  0  0  0  0  0  0  0  0  0  0
    1.5957    0.6365    0.0000 C   0  0  0  0  0  0  0  0  0  0  0  0
   -0.5917   -0.6544    0.0000 C   0  0  0  0  0  0  0  0  0  0  0  0
    0.1075   -0.2421    0.0000 C   0  0  0  0  0  0  0  0  0  0  0  0
   -0.6096   -1.4971    0.0000 C   0  0  0  0  0  0  0  0  0  0  0  0
   -1.2909    2.3397    0.0000 C   0  0  0  0  0  0  0  0  0  0  0  0
   -1.3088    0.6007    0.0000 C   0  0  0  0  0  0  0  0  0  0  0  0
   -0.1972    3.1286    0.0000 C   0  0  0  0  0  0  0  0  0  0  0  0
   -1.3447   -2.7521    0.0000 C   0  0  0  0  0  0  0  0  0  0  0  0
   -1.3088   -0.2421    0.0000 C   0  0  0  0  0  0  0  0  0  0  0  0
    1.7750   -0.1344    0.0000 C   0  0  0  0  0  0  0  0  0  0  0  0
    1.7212    1.9991    0.0000 C   0  0  0  0  0  0  0  0  0  0  0  0
   -1.0041    3.1286    0.0000 C   0  0  0  0  0  0  0  0  0  0  0  0
   -1.3088   -1.9094    0.0000 C   0  0  0  0  0  0  0  0  0  0  0  0
   -0.5917   -3.1645    0.0000 C   0  0  0  0  0  0  0  0  0  0  0  0
    0.3048    3.7920    0.0000 C   0  0  0  0  0  0  0  0  0  0  0  0
    0.1075   -1.9094    0.0000 C   0  0  0  0  0  0  0  0  0  0  0  0
    0.1075   -2.7342    0.0000 C   0  0  0  0  0  0  0  0  0  0  0  0
    1.1833   -0.6724    0.0000 C   0  0  0  0  0  0  0  0  0  0  0  0
    2.5639   -0.4392    0.0000 C   0  0  0  0  0  0  0  0  0  0  0  0
   -2.0619    2.0529    0.0000 C   0  0  0  0  0  0  0  0  0  0  0  0
   -0.5917   -3.9893    0.0000 C   0  0  0  0  0  0  0  0  0  0  0  0
    2.0798    2.7880    0.0000 C   0  0  0  0  0  0  0  0  0  0  0  0
    1.3268   -1.5150    0.0000 C   0  0  0  0  0  0  0  0  0  0  0  0
    2.7073   -1.2281    0.0000 C   0  0  0  0  0  0  0  0  0  0  0  0
    2.0977   -1.7840    0.0000 C   0  0  0  0  0  0  0  0  0  0  0  0
   -2.7073   -3.5590    0.0000 C   0  0  0  0  0  0  0  0  0  0  0  0
    2.2770   -2.6087    0.0000 C   0  0  0  0  0  0  0  0  0  0  0  0
  1  9  2  0  0  0  0
  1 10  2  0  0  0  0
  1 26  1  0  0  0  0
  1 44  1  0  0  0  0
  2 33  1  0  0  0  0
  3 33  1  0  0  0  0
  4 33  1  0  0  0  0
  5 35  1  0  0  0  0
  6 45  1  0  0  0  0
  7 45  1  0  0  0  0
  8 18  1  0  0  0  0
  8 29  1  0  0  0  0
 11 43  1  0  0  0  0
 11 45  1  0  0  0  0
 12 39  1  0  0  0  0
 13 14  1  0  0  0  0
 13 17  1  0  0  0  0
 13 23  1  0  0  0  0
 14 25  2  0  0  0  0
 15 19  1  0  0  0  0
 15 29  2  0  0  0  0
 16 17  1  0  0  0  0
 16 18  1  0  0  0  0
 16 21  2  0  0  0  0
 17 24  2  0  0  0  0
 18 19  2  0  0  0  0
 19 28  1  0  0  0  0
 20 21  1  0  0  0  0
 20 22  1  0  0  0  0
 20 27  2  0  0  0  0
 22 31  2  0  0  0  0
 22 34  1  0  0  0  0
 23 30  2  0  0  0  0
 23 38  1  0  0  0  0
 24 27  1  0  0  0  0
 25 30  1  0  0  0  0
 25 33  1  0  0  0  0
 26 31  1  0  0  0  0
 26 32  2  0  0  0  0
 28 36  2  0  0  0  0
 28 37  1  0  0  0  0
 29 40  1  0  0  0  0
 32 35  1  0  0  0  0
 32 39  1  0  0  0  0
 34 35  2  0  0  0  0
 36 41  1  0  0  0  0
 37 42  2  0  0  0  0
 41 43  2  0  0  0  0
 42 43  1  0  0  0  0
M  END
> <PUBCHEM_COMPOUND_ID_TYPE>
0

> <PUBCHEM_TOTAL_CHARGE>
0

> <PUBCHEM_SUBSTANCE_ID>
310948222

> <PUBCHEM_SUBSTANCE_VERSION>
1

> <PUBCHEM_EXT_DATASOURCE_NAME>
4488

> <PUBCHEM_EXT_DATASOURCE_REGID>
SCHEMBL16126399

> <PUBCHEM_SUBSTANCE_COMMENT>
InChI=1S/C30H23F6N3O5S/c1-15-10-26(30(34,35)36)38-39(15)24-9-6-18(19-12-23(31)22(14-40)25(13-19)45(3,41)42)11-21(24)28-27(37-16(2)43-28)17-4-7-20(8-5-17)44-29(32)33/h4-13,29,40H,14H2,1-3H3
InChIKey=BJZWQXQMVRQCGM-UHFFFAOYSA-N

> <PUBCHEM_SUBSTANCE_SYNONYM>
SCHEMBL16126399

> <PUBCHEM_XREF_EXT_ID>
SCHEMBL16126399

> <PUBCHEM_EXT_DATASOURCE_URL>
https://www.surechembl.org/

> <PUBCHEM_EXT_SUBSTANCE_URL>
https://www.surechembl.org/chemical/SCHEMBL16126399

> <PUBCHEM_CID_ASSOCIATIONS>
117613802  1

> <PUBCHEM_COORDINATE_TYPE>
1
3

$$$$
