310933687
  -OEChem-07211613022D

 47 52  0     1  0  0  0  0  0999 V2000
    7.5219   -0.5823    0.0000 Cl  0  0  0  0  0  0  0  0  0  0  0  0
    6.8424   -2.0867    0.0000 F   0  0  0  0  0  0  0  0  0  0  0  0
    5.2410   -3.7367    0.0000 O   0  0  0  0  0  0  0  0  0  0  0  0
    2.9117   -3.2028    0.0000 O   0  0  0  0  0  0  0  0  0  0  0  0
    5.0469   -3.6396    0.0000 O   0  0  0  0  0  0  0  0  0  0  0  0
    0.0000   -8.0556    0.0000 O   0  0  0  0  0  0  0  0  0  0  0  0
    8.5894   -2.3778    0.0000 O   0  0  0  0  0  0  0  0  0  0  0  0
    9.2688   -3.6396    0.0000 O   0  0  0  0  0  0  0  0  0  0  0  0
    3.6396   -4.4160    0.0000 N   0  0  0  0  0  0  0  0  0  0  0  0
    5.7263   -4.8528    0.0000 N   0  0  0  0  0  0  0  0  0  0  0  0
    5.6293   -2.9602    0.0000 N   0  0  0  0  0  0  0  0  0  0  0  0
    2.1352   -8.4924    0.0000 N   0  0  0  0  0  0  0  0  0  0  0  0
    0.6794   -9.3173    0.0000 N   0  0  0  0  0  0  0  0  0  0  0  0
    4.3190   -4.8528    0.0000 C   0  0  3  0  0  0  0  0  0  0  0  0
    4.3190   -5.6778    0.0000 C   0  0  0  0  0  0  0  0  0  0  0  0
    3.6396   -6.0660    0.0000 C   0  0  0  0  0  0  0  0  0  0  0  0
    3.5910   -6.8910    0.0000 C   0  0  0  0  0  0  0  0  0  0  0  0
    3.6396   -3.6396    0.0000 C   0  0  0  0  0  0  0  0  0  0  0  0
    5.0469   -4.4646    0.0000 C   0  0  0  0  0  0  0  0  0  0  0  0
    2.9117   -4.8528    0.0000 C   0  0  0  0  0  0  0  0  0  0  0  0
    2.9117   -5.6778    0.0000 C   0  0  0  0  0  0  0  0  0  0  0  0
    4.3675   -3.2028    0.0000 C   0  0  3  0  0  0  0  0  0  0  0  0
    5.0469   -6.0660    0.0000 C   0  0  0  0  0  0  0  0  0  0  0  0
    2.9117   -7.2792    0.0000 C   0  0  0  0  0  0  0  0  0  0  0  0
    5.2410   -2.2323    0.0000 C   0  0  0  0  0  0  0  0  0  0  0  0
    4.3190   -7.2792    0.0000 C   0  0  0  0  0  0  0  0  0  0  0  0
    4.4160   -2.3778    0.0000 C   0  0  0  0  0  0  0  0  0  0  0  0
    5.0469   -6.8910    0.0000 C   0  0  0  0  0  0  0  0  0  0  0  0
    5.5807   -1.5044    0.0000 C   0  0  0  0  0  0  0  0  0  0  0  0
    2.8631   -8.1041    0.0000 C   0  0  0  0  0  0  0  0  0  0  0  0
    2.1838   -6.8910    0.0000 C   0  0  0  0  0  0  0  0  0  0  0  0
    6.3572   -1.4073    0.0000 C   0  0  0  0  0  0  0  0  0  0  0  0
    6.4542   -4.4646    0.0000 C   0  0  0  0  0  0  0  0  0  0  0  0
    5.0954   -0.8250    0.0000 C   0  0  0  0  0  0  0  0  0  0  0  0
    6.6969   -0.6794    0.0000 C   0  0  0  0  0  0  0  0  0  0  0  0
    1.4073   -8.1041    0.0000 C   0  0  0  0  0  0  0  0  0  0  0  0
    1.4559   -7.2792    0.0000 C   0  0  0  0  0  0  0  0  0  0  0  0
    5.4351   -0.0970    0.0000 C   0  0  0  0  0  0  0  0  0  0  0  0
    6.4542   -3.6396    0.0000 C   0  0  0  0  0  0  0  0  0  0  0  0
    7.1822   -4.8528    0.0000 C   0  0  0  0  0  0  0  0  0  0  0  0
    6.2601    0.0000    0.0000 C   0  0  0  0  0  0  0  0  0  0  0  0
    0.7279   -8.4924    0.0000 C   0  0  0  0  0  0  0  0  0  0  0  0
    7.8615   -3.6396    0.0000 C   0  0  0  0  0  0  0  0  0  0  0  0
    7.1822   -3.2028    0.0000 C   0  0  0  0  0  0  0  0  0  0  0  0
    7.8615   -4.4646    0.0000 C   0  0  0  0  0  0  0  0  0  0  0  0
    8.5894   -3.2028    0.0000 C   0  0  0  0  0  0  0  0  0  0  0  0
    0.0000   -9.7056    0.0000 C   0  0  0  0  0  0  0  0  0  0  0  0
  1 35  1  0  0  0  0
  2 32  1  0  0  0  0
  3 11  1  0  0  0  0
  3 22  1  0  0  0  0
  4 18  2  0  0  0  0
  5 19  2  0  0  0  0
  6 42  2  0  0  0  0
  7 46  2  0  0  0  0
  8 46  1  0  0  0  0
  9 14  1  0  0  0  0
  9 18  1  0  0  0  0
  9 20  1  0  0  0  0
 10 19  1  0  0  0  0
 10 33  1  0  0  0  0
 11 25  2  0  0  0  0
 12 30  1  0  0  0  0
 12 36  2  0  0  0  0
 13 42  1  0  0  0  0
 13 47  1  0  0  0  0
 14 15  1  0  0  0  0
 14 19  1  1  0  0  0
 15 16  2  0  0  0  0
 15 23  1  0  0  0  0
 16 17  1  0  0  0  0
 16 21  1  0  0  0  0
 17 24  1  0  0  0  0
 17 26  2  0  0  0  0
 22 18  1  1  0  0  0
 20 21  1  0  0  0  0
 22 27  1  0  0  0  0
 23 28  2  0  0  0  0
 24 30  2  0  0  0  0
 24 31  1  0  0  0  0
 25 27  1  0  0  0  0
 25 29  1  0  0  0  0
 26 28  1  0  0  0  0
 29 32  1  0  0  0  0
 29 34  2  0  0  0  0
 31 37  2  0  0  0  0
 32 35  2  0  0  0  0
 33 39  2  0  0  0  0
 33 40  1  0  0  0  0
 34 38  1  0  0  0  0
 35 41  1  0  0  0  0
 36 37  1  0  0  0  0
 36 42  1  0  0  0  0
 38 41  2  0  0  0  0
 39 44  1  0  0  0  0
 40 45  2  0  0  0  0
 43 44  2  0  0  0  0
 43 45  1  0  0  0  0
 43 46  1  0  0  0  0
M  END
> <PUBCHEM_COMPOUND_ID_TYPE>
0

> <PUBCHEM_TOTAL_CHARGE>
0

> <PUBCHEM_SUBSTANCE_ID>
310933687

> <PUBCHEM_SUBSTANCE_VERSION>
1

> <PUBCHEM_EXT_DATASOURCE_NAME>
4488

> <PUBCHEM_EXT_DATASOURCE_REGID>
SCHEMBL16111122

> <PUBCHEM_SUBSTANCE_COMMENT>
InChI=1S/C34H27ClFN5O6/c1-37-31(42)26-13-10-19(17-38-26)21-4-2-5-23-22(21)14-15-41(30(23)32(43)39-20-11-8-18(9-12-20)34(45)46)33(44)28-16-27(40-47-28)24-6-3-7-25(35)29(24)36/h2-13,17,28,30H,14-16H2,1H3,(H,37,42)(H,39,43)(H,45,46)/t28-,30-/m1/s1
InChIKey=RZCBNXHMENKKFK-PQHLKRTFSA-N

> <PUBCHEM_SUBSTANCE_SYNONYM>
SCHEMBL16111122

> <PUBCHEM_XREF_EXT_ID>
SCHEMBL16111122

> <PUBCHEM_EXT_DATASOURCE_URL>
https://www.surechembl.org/

> <PUBCHEM_EXT_SUBSTANCE_URL>
https://www.surechembl.org/chemical/SCHEMBL16111122

> <PUBCHEM_CID_ASSOCIATIONS>
117602054  1

> <PUBCHEM_COORDINATE_TYPE>
1
3

> <PUBCHEM_BONDANNOTATIONS>
14  19  5
22  18  5

$$$$
