310948510
  -OEChem-07211613022D

 47 52  0     0  0  0  0  0  0999 V2000
    3.0118   -1.9617    0.0000 S   0  0  0  0  0  0  0  0  0  0  0  0
    3.0322    0.9240    0.0000 F   0  0  0  0  0  0  0  0  0  0  0  0
    3.2778    3.7280    0.0000 F   0  0  0  0  0  0  0  0  0  0  0  0
    2.1726    3.4414    0.0000 F   0  0  0  0  0  0  0  0  0  0  0  0
    3.5234    2.6432    0.0000 F   0  0  0  0  0  0  0  0  0  0  0  0
   -1.9820    1.0059    0.0000 O   0  0  0  0  0  0  0  0  0  0  0  0
   -3.8035   -2.1868    0.0000 O   0  0  0  0  0  0  0  0  0  0  0  0
    3.0118   -1.9617    0.0000 O   0  0  0  0  0  0  0  0  0  0  0  0
    3.0118   -1.9617    0.0000 O   0  0  0  0  0  0  0  0  0  0  0  0
    2.4591    2.3567    0.0000 O   0  0  0  0  0  0  0  0  0  0  0  0
    4.2807    0.1873    0.0000 O   0  0  0  0  0  0  0  0  0  0  0  0
   -1.9820   -0.5085    0.0000 N   0  0  0  0  0  0  0  0  0  0  0  0
   -2.4732    0.1463    0.0000 N   0  0  0  0  0  0  0  0  0  0  0  0
   -1.4295    2.2339    0.0000 N   0  0  0  0  0  0  0  0  0  0  0  0
   -4.7041   -1.1634    0.0000 N   0  0  0  0  0  0  0  0  0  0  0  0
   -0.7336    0.2282    0.0000 C   0  0  0  0  0  0  0  0  0  0  0  0
   -1.1429   -0.4881    0.0000 C   0  0  0  0  0  0  0  0  0  0  0  0
   -1.1429    0.9240    0.0000 C   0  0  0  0  0  0  0  0  0  0  0  0
   -3.2509   -0.0788    0.0000 C   0  0  0  0  0  0  0  0  0  0  0  0
   -0.8154    1.7018    0.0000 C   0  0  0  0  0  0  0  0  0  0  0  0
    0.5149   -0.4881    0.0000 C   0  0  0  0  0  0  0  0  0  0  0  0
   -3.2714   -0.9179    0.0000 C   0  0  0  0  0  0  0  0  0  0  0  0
    0.1056    0.1873    0.0000 C   0  0  0  0  0  0  0  0  0  0  0  0
   -2.4732   -1.1839    0.0000 C   0  0  0  0  0  0  0  0  0  0  0  0
    1.3540   -0.5085    0.0000 C   0  0  0  0  0  0  0  0  0  0  0  0
   -3.9672    0.4124    0.0000 C   0  0  0  0  0  0  0  0  0  0  0  0
   -0.7131   -1.2044    0.0000 C   0  0  0  0  0  0  0  0  0  0  0  0
   -0.0173    1.8655    0.0000 C   0  0  0  0  0  0  0  0  0  0  0  0
    0.1260   -1.2044    0.0000 C   0  0  0  0  0  0  0  0  0  0  0  0
    2.6229   -1.2248    0.0000 C   0  0  0  0  0  0  0  0  0  0  0  0
   -2.1458    1.8246    0.0000 C   0  0  0  0  0  0  0  0  0  0  0  0
    1.7838   -1.2248    0.0000 C   0  0  0  0  0  0  0  0  0  0  0  0
    3.0118   -0.5085    0.0000 C   0  0  0  0  0  0  0  0  0  0  0  0
    1.7838    0.1873    0.0000 C   0  0  0  0  0  0  0  0  0  0  0  0
    2.6024    0.2077    0.0000 C   0  0  0  0  0  0  0  0  0  0  0  0
   -3.9467   -1.4295    0.0000 C   0  0  0  0  0  0  0  0  0  0  0  0
   -4.7245    0.4738    0.0000 C   0  0  0  0  0  0  0  0  0  0  0  0
   -4.2947    1.1083    0.0000 C   0  0  0  0  0  0  0  0  0  0  0  0
    0.5763    1.2516    0.0000 C   0  0  0  0  0  0  0  0  0  0  0  0
    0.2897    2.6227    0.0000 C   0  0  0  0  0  0  0  0  0  0  0  0
    3.8713   -0.5085    0.0000 C   0  0  0  0  0  0  0  0  0  0  0  0
    1.6405    2.2134    0.0000 C   0  0  0  0  0  0  0  0  0  0  0  0
   -2.9235    2.1520    0.0000 C   0  0  0  0  0  0  0  0  0  0  0  0
    1.3745    1.4152    0.0000 C   0  0  0  0  0  0  0  0  0  0  0  0
    1.0879    2.7865    0.0000 C   0  0  0  0  0  0  0  0  0  0  0  0
    4.7245   -3.7280    0.0000 C   0  0  0  0  0  0  0  0  0  0  0  0
    2.8685    3.0321    0.0000 C   0  0  0  0  0  0  0  0  0  0  0  0
  1  8  2  0  0  0  0
  1  9  2  0  0  0  0
  1 30  1  0  0  0  0
  1 46  1  0  0  0  0
  2 35  1  0  0  0  0
  3 47  1  0  0  0  0
  4 47  1  0  0  0  0
  5 47  1  0  0  0  0
  6 18  1  0  0  0  0
  6 31  1  0  0  0  0
  7 36  2  0  0  0  0
 10 42  1  0  0  0  0
 10 47  1  0  0  0  0
 11 41  1  0  0  0  0
 12 13  1  0  0  0  0
 12 17  1  0  0  0  0
 12 24  1  0  0  0  0
 13 19  2  0  0  0  0
 14 20  1  0  0  0  0
 14 31  2  0  0  0  0
 15 36  1  0  0  0  0
 16 17  1  0  0  0  0
 16 18  1  0  0  0  0
 16 23  2  0  0  0  0
 17 27  2  0  0  0  0
 18 20  2  0  0  0  0
 19 22  1  0  0  0  0
 19 26  1  0  0  0  0
 20 28  1  0  0  0  0
 21 23  1  0  0  0  0
 21 25  1  0  0  0  0
 21 29  2  0  0  0  0
 22 24  2  0  0  0  0
 22 36  1  0  0  0  0
 25 32  2  0  0  0  0
 25 34  1  0  0  0  0
 26 37  1  0  0  0  0
 26 38  1  0  0  0  0
 27 29  1  0  0  0  0
 28 39  2  0  0  0  0
 28 40  1  0  0  0  0
 30 32  1  0  0  0  0
 30 33  2  0  0  0  0
 31 43  1  0  0  0  0
 33 35  1  0  0  0  0
 33 41  1  0  0  0  0
 34 35  2  0  0  0  0
 37 38  1  0  0  0  0
 39 44  1  0  0  0  0
 40 45  2  0  0  0  0
 42 44  2  0  0  0  0
 42 45  1  0  0  0  0
M  END
> <PUBCHEM_COMPOUND_ID_TYPE>
0

> <PUBCHEM_TOTAL_CHARGE>
0

> <PUBCHEM_SUBSTANCE_ID>
310948510

> <PUBCHEM_SUBSTANCE_VERSION>
1

> <PUBCHEM_EXT_DATASOURCE_NAME>
4488

> <PUBCHEM_EXT_DATASOURCE_REGID>
SCHEMBL16126692

> <PUBCHEM_SUBSTANCE_COMMENT>
InChI=1S/C32H26F4N4O6S/c1-16-38-29(18-5-8-21(9-6-18)46-32(34,35)36)30(45-16)22-11-19(20-12-25(33)24(15-41)27(13-20)47(2,43)44)7-10-26(22)40-14-23(31(37)42)28(39-40)17-3-4-17/h5-14,17,41H,3-4,15H2,1-2H3,(H2,37,42)
InChIKey=RWFMSGWLRHIJPP-UHFFFAOYSA-N

> <PUBCHEM_SUBSTANCE_SYNONYM>
SCHEMBL16126692

> <PUBCHEM_XREF_EXT_ID>
SCHEMBL16126692

> <PUBCHEM_EXT_DATASOURCE_URL>
https://www.surechembl.org/

> <PUBCHEM_EXT_SUBSTANCE_URL>
https://www.surechembl.org/chemical/SCHEMBL16126692

> <PUBCHEM_CID_ASSOCIATIONS>
117614067  1

> <PUBCHEM_COORDINATE_TYPE>
1
3

$$$$
