310949002
  -OEChem-07211613022D

 25 26  0     0  0  0  0  0  0999 V2000
    2.6196    2.3477    0.0000 Cl  0  0  0  0  0  0  0  0  0  0  0  0
   -4.0424   -1.4023    0.0000 S   0  0  0  0  0  0  0  0  0  0  0  0
   -0.2482    2.3477    0.0000 F   0  0  0  0  0  0  0  0  0  0  0  0
    3.3365    1.1014    0.0000 O   0  0  0  0  0  0  0  0  0  0  0  0
    2.6196   -0.1559    0.0000 O   0  0  0  0  0  0  0  0  0  0  0  0
    1.1857    0.6823    0.0000 N   0  0  0  0  0  0  0  0  0  0  0  0
    1.1857    3.1861    0.0000 N   0  0  0  0  0  0  0  0  0  0  0  0
    0.4688    1.1014    0.0000 C   0  0  0  0  0  0  0  0  0  0  0  0
    1.9027    1.1014    0.0000 C   0  0  0  0  0  0  0  0  0  0  0  0
    0.4798    1.9397    0.0000 C   0  0  0  0  0  0  0  0  0  0  0  0
    1.9137    1.9397    0.0000 C   0  0  0  0  0  0  0  0  0  0  0  0
    1.1857    2.3588    0.0000 C   0  0  0  0  0  0  0  0  0  0  0  0
   -0.2372    0.6823    0.0000 C   0  0  0  0  0  0  0  0  0  0  0  0
    2.6196    0.7044    0.0000 C   0  0  0  0  0  0  0  0  0  0  0  0
   -0.9541    1.0904    0.0000 C   0  0  0  0  0  0  0  0  0  0  0  0
   -0.2482   -0.1450    0.0000 C   0  0  0  0  0  0  0  0  0  0  0  0
   -1.6710   -0.1559    0.0000 C   0  0  0  0  0  0  0  0  0  0  0  0
   -1.6600    0.6823    0.0000 C   0  0  0  0  0  0  0  0  0  0  0  0
   -0.9541   -0.5641    0.0000 C   0  0  0  0  0  0  0  0  0  0  0  0
   -2.3769   -0.5531    0.0000 C   0  0  0  0  0  0  0  0  0  0  0  0
    4.0424    0.6713    0.0000 C   0  0  0  0  0  0  0  0  0  0  0  0
   -3.0939   -0.9831    0.0000 C   0  0  0  0  0  0  0  0  0  0  0  0
   -2.3127   -3.1861    0.0000 C   0  0  0  0  0  0  0  0  0  0  0  0
   -2.3127   -3.1861    0.0000 C   0  0  0  0  0  0  0  0  0  0  0  0
   -2.3127   -3.1861    0.0000 C   0  0  0  0  0  0  0  0  0  0  0  0
  1 11  1  0  0  0  0
  2 22  1  0  0  0  0
  2 23  1  0  0  0  0
  3 10  1  0  0  0  0
  4 14  1  0  0  0  0
  4 21  1  0  0  0  0
  5 14  2  0  0  0  0
  6  8  2  0  0  0  0
  6  9  1  0  0  0  0
  7 12  1  0  0  0  0
  8 10  1  0  0  0  0
  8 13  1  0  0  0  0
  9 11  2  0  0  0  0
  9 14  1  0  0  0  0
 10 12  2  0  0  0  0
 11 12  1  0  0  0  0
 13 15  2  0  0  0  0
 13 16  1  0  0  0  0
 15 18  1  0  0  0  0
 16 19  2  0  0  0  0
 17 18  2  0  0  0  0
 17 19  1  0  0  0  0
 17 20  1  0  0  0  0
 20 22  3  0  0  0  0
 23 24  1  0  0  0  0
 23 25  1  0  0  0  0
M  END
> <PUBCHEM_COMPOUND_ID_TYPE>
0

> <PUBCHEM_TOTAL_CHARGE>
0

> <PUBCHEM_SUBSTANCE_ID>
310949002

> <PUBCHEM_SUBSTANCE_VERSION>
1

> <PUBCHEM_EXT_DATASOURCE_NAME>
4488

> <PUBCHEM_EXT_DATASOURCE_REGID>
SCHEMBL16127190

> <PUBCHEM_SUBSTANCE_COMMENT>
InChI=1S/C18H16ClFN2O2S/c1-10(2)25-9-8-11-4-6-12(7-5-11)16-14(20)15(21)13(19)17(22-16)18(23)24-3/h4-7,10H,1-3H3,(H2,21,22)
InChIKey=MYOJDRCUMMCTED-UHFFFAOYSA-N

> <PUBCHEM_SUBSTANCE_SYNONYM>
SCHEMBL16127190

> <PUBCHEM_XREF_EXT_ID>
SCHEMBL16127190

> <PUBCHEM_EXT_DATASOURCE_URL>
https://www.surechembl.org/

> <PUBCHEM_EXT_SUBSTANCE_URL>
https://www.surechembl.org/chemical/SCHEMBL16127190

> <PUBCHEM_CID_ASSOCIATIONS>
117614511  1

> <PUBCHEM_COORDINATE_TYPE>
1
3

$$$$
