310932808
  -OEChem-07211613022D

 30 33  0     0  0  0  0  0  0999 V2000
    2.8578   -2.1213    0.0000 O   0  0  0  0  0  0  0  0  0  0  0  0
    7.2183   -2.2981    0.0000 O   0  0  0  0  0  0  0  0  0  0  0  0
    7.3656   -2.2097    0.0000 O   0  0  0  0  0  0  0  0  0  0  0  0
    0.1473   -2.3570    0.0000 O   0  0  0  0  0  0  0  0  0  0  0  0
    3.7712   -0.9723    0.0000 N   0  0  0  0  0  0  0  0  0  0  0  0
    3.6828   -0.1473    0.0000 N   0  0  0  0  0  0  0  0  0  0  0  0
    5.2149   -0.9723    0.0000 N   0  0  0  0  0  0  0  0  0  0  0  0
    6.6290   -3.4471    0.0000 N   0  0  0  0  0  0  0  0  0  0  0  0
    0.0000   -0.9723    0.0000 N   0  0  0  0  0  0  0  0  0  0  0  0
    2.4454   -0.7071    0.0000 C   0  0  0  0  0  0  0  0  0  0  0  0
    3.0346   -1.2963    0.0000 C   0  0  0  0  0  0  0  0  0  0  0  0
    8.0727   -3.4471    0.0000 C   0  0  0  0  0  0  0  0  0  0  0  0
    4.4783   -1.3847    0.0000 C   0  0  0  0  0  0  0  0  0  0  0  0
    1.6205   -0.7955    0.0000 C   0  0  0  0  0  0  0  0  0  0  0  0
    2.8578    0.0000    0.0000 C   0  0  0  0  0  0  0  0  0  0  0  0
    8.8387   -3.1525    0.0000 C   0  0  0  0  0  0  0  0  0  0  0  0
    8.7503   -3.9479    0.0000 C   0  0  0  0  0  0  0  0  0  0  0  0
    7.3656   -3.8596    0.0000 C   0  0  0  0  0  0  0  0  0  0  0  0
    5.9220   -2.2097    0.0000 C   0  0  0  0  0  0  0  0  0  0  0  0
    4.4783   -2.2097    0.0000 C   0  0  0  0  0  0  0  0  0  0  0  0
    7.9843   -2.6221    0.0000 C   0  0  0  0  0  0  0  0  0  0  0  0
    1.2963   -1.5615    0.0000 C   0  0  0  0  0  0  0  0  0  0  0  0
    6.6290   -2.6221    0.0000 C   0  0  0  0  0  0  0  0  0  0  0  0
    1.1490   -0.1473    0.0000 C   0  0  0  0  0  0  0  0  0  0  0  0
    5.9220   -1.3847    0.0000 C   0  0  0  0  0  0  0  0  0  0  0  0
    5.2149   -2.6221    0.0000 C   0  0  0  0  0  0  0  0  0  0  0  0
    0.4714   -1.6205    0.0000 C   0  0  0  0  0  0  0  0  0  0  0  0
    0.3241   -0.2062    0.0000 C   0  0  0  0  0  0  0  0  0  0  0  0
    6.5701   -2.7989    0.0000 C   0  0  0  0  0  0  0  0  0  0  0  0
    0.6187   -3.0346    0.0000 C   0  0  0  0  0  0  0  0  0  0  0  0
  1 11  1  0  0  0  0
  2 21  1  0  0  0  0
  2 29  1  0  0  0  0
  3 23  2  0  0  0  0
  4 27  1  0  0  0  0
  4 30  1  0  0  0  0
  5  6  1  0  0  0  0
  5 11  1  0  0  0  0
  5 13  1  0  0  0  0
  6 15  2  0  0  0  0
  7 13  2  0  0  0  0
  7 25  1  0  0  0  0
  8 18  1  0  0  0  0
  8 23  1  0  0  0  0
  9 27  1  0  0  0  0
  9 28  2  0  0  0  0
 10 11  2  0  0  0  0
 10 14  1  0  0  0  0
 10 15  1  0  0  0  0
 12 16  1  0  0  0  0
 12 17  1  0  0  0  0
 12 18  1  0  0  0  0
 12 21  1  0  0  0  0
 13 20  1  0  0  0  0
 14 22  1  0  0  0  0
 14 24  2  0  0  0  0
 16 17  1  0  0  0  0
 19 23  1  0  0  0  0
 19 25  2  0  0  0  0
 19 26  1  0  0  0  0
 20 26  2  0  0  0  0
 22 27  2  0  0  0  0
 24 28  1  0  0  0  0
M  END
> <PUBCHEM_COMPOUND_ID_TYPE>
0

> <PUBCHEM_TOTAL_CHARGE>
0

> <PUBCHEM_SUBSTANCE_ID>
310932808

> <PUBCHEM_SUBSTANCE_VERSION>
1

> <PUBCHEM_EXT_DATASOURCE_NAME>
4488

> <PUBCHEM_EXT_DATASOURCE_REGID>
SCHEMBL16110196

> <PUBCHEM_SUBSTANCE_COMMENT>
InChI=1S/C21H23N5O4/c1-29-13-21(6-7-21)12-24-19(27)15-3-4-17(23-10-15)26-20(28)16(11-25-26)14-5-8-22-18(9-14)30-2/h3-5,8-11,28H,6-7,12-13H2,1-2H3,(H,24,27)
InChIKey=XYMBTKAFLWWLFO-UHFFFAOYSA-N

> <PUBCHEM_SUBSTANCE_SYNONYM>
SCHEMBL16110196

> <PUBCHEM_XREF_EXT_ID>
SCHEMBL16110196

> <PUBCHEM_EXT_DATASOURCE_URL>
https://www.surechembl.org/

> <PUBCHEM_EXT_SUBSTANCE_URL>
https://www.surechembl.org/chemical/SCHEMBL16110196

> <PUBCHEM_CID_ASSOCIATIONS>
117601298  1

> <PUBCHEM_COORDINATE_TYPE>
1
3

$$$$
