310948482
  -OEChem-07211613022D

 44 49  0     0  0  0  0  0  0999 V2000
   -0.1031   -2.9524    0.0000 S   0  0  0  0  0  0  0  0  0  0  0  0
    3.0582   -2.6603    0.0000 F   0  0  0  0  0  0  0  0  0  0  0  0
    2.4397   -3.1930    0.0000 F   0  0  0  0  0  0  0  0  0  0  0  0
   -2.9379   -2.9524    0.0000 F   0  0  0  0  0  0  0  0  0  0  0  0
    0.1031    1.9613    0.0000 O   0  0  0  0  0  0  0  0  0  0  0  0
    2.4913   -1.5779    0.0000 O   0  0  0  0  0  0  0  0  0  0  0  0
    1.4604   -2.4370    0.0000 O   0  0  0  0  0  0  0  0  0  0  0  0
   -0.1031   -2.9524    0.0000 O   0  0  0  0  0  0  0  0  0  0  0  0
   -0.1031   -2.9524    0.0000 O   0  0  0  0  0  0  0  0  0  0  0  0
   -2.2336   -4.1894    0.0000 O   0  0  0  0  0  0  0  0  0  0  0  0
   -3.0582    3.9199    0.0000 O   0  0  0  0  0  0  0  0  0  0  0  0
   -1.4088    2.0129    0.0000 N   0  0  0  0  0  0  0  0  0  0  0  0
    1.3058    1.3772    0.0000 N   0  0  0  0  0  0  0  0  0  0  0  0
   -2.0617    2.5284    0.0000 N   0  0  0  0  0  0  0  0  0  0  0  0
   -1.8727    4.7274    0.0000 N   0  0  0  0  0  0  0  0  0  0  0  0
   -0.0172    1.1538    0.0000 C   0  0  0  0  0  0  0  0  0  0  0  0
   -0.7387    0.7587    0.0000 C   0  0  0  0  0  0  0  0  0  0  0  0
    0.7215    0.7758    0.0000 C   0  0  0  0  0  0  0  0  0  0  0  0
   -1.4432    1.1882    0.0000 C   0  0  0  0  0  0  0  0  0  0  0  0
    0.8590   -0.0316    0.0000 C   0  0  0  0  0  0  0  0  0  0  0  0
   -1.4948   -0.4440    0.0000 C   0  0  0  0  0  0  0  0  0  0  0  0
    1.7696   -1.1312    0.0000 C   0  0  0  0  0  0  0  0  0  0  0  0
   -0.7731   -0.0660    0.0000 C   0  0  0  0  0  0  0  0  0  0  0  0
    1.1511   -1.6638    0.0000 C   0  0  0  0  0  0  0  0  0  0  0  0
   -1.5292   -1.2859    0.0000 C   0  0  0  0  0  0  0  0  0  0  0  0
    1.6322   -0.3238    0.0000 C   0  0  0  0  0  0  0  0  0  0  0  0
    0.9106    2.0988    0.0000 C   0  0  0  0  0  0  0  0  0  0  0  0
    2.2851   -2.3854    0.0000 C   0  0  0  0  0  0  0  0  0  0  0  0
   -0.8246   -2.5230    0.0000 C   0  0  0  0  0  0  0  0  0  0  0  0
   -2.1476    0.8102    0.0000 C   0  0  0  0  0  0  0  0  0  0  0  0
    0.2577   -0.5642    0.0000 C   0  0  0  0  0  0  0  0  0  0  0  0
   -2.1820   -0.0144    0.0000 C   0  0  0  0  0  0  0  0  0  0  0  0
   -1.5120   -2.9352    0.0000 C   0  0  0  0  0  0  0  0  0  0  0  0
   -0.8074   -1.6981    0.0000 C   0  0  0  0  0  0  0  0  0  0  0  0
    0.3781   -1.3718    0.0000 C   0  0  0  0  0  0  0  0  0  0  0  0
   -2.2336   -2.5230    0.0000 C   0  0  0  0  0  0  0  0  0  0  0  0
   -2.2164   -1.6981    0.0000 C   0  0  0  0  0  0  0  0  0  0  0  0
   -0.7215    2.4768    0.0000 C   0  0  0  0  0  0  0  0  0  0  0  0
   -1.7696    3.3186    0.0000 C   0  0  0  0  0  0  0  0  0  0  0  0
   -0.9450    3.2671    0.0000 C   0  0  0  0  0  0  0  0  0  0  0  0
    1.2714    2.8547    0.0000 C   0  0  0  0  0  0  0  0  0  0  0  0
   -1.5292   -3.7943    0.0000 C   0  0  0  0  0  0  0  0  0  0  0  0
   -2.2336    3.9886    0.0000 C   0  0  0  0  0  0  0  0  0  0  0  0
    1.6181   -4.7274    0.0000 C   0  0  0  0  0  0  0  0  0  0  0  0
  1  8  2  0  0  0  0
  1  9  2  0  0  0  0
  1 29  1  0  0  0  0
  1 44  1  0  0  0  0
  2 28  1  0  0  0  0
  3 28  1  0  0  0  0
  4 36  1  0  0  0  0
  5 16  1  0  0  0  0
  5 27  1  0  0  0  0
  6 22  1  0  0  0  0
  6 28  1  0  0  0  0
  7 24  1  0  0  0  0
  7 28  1  0  0  0  0
 10 42  1  0  0  0  0
 11 43  2  0  0  0  0
 12 14  1  0  0  0  0
 12 19  1  0  0  0  0
 12 38  1  0  0  0  0
 13 18  1  0  0  0  0
 13 27  2  0  0  0  0
 14 39  2  0  0  0  0
 15 43  1  0  0  0  0
 16 17  1  0  0  0  0
 16 18  2  0  0  0  0
 17 19  1  0  0  0  0
 17 23  2  0  0  0  0
 18 20  1  0  0  0  0
 19 30  2  0  0  0  0
 20 26  2  0  0  0  0
 20 31  1  0  0  0  0
 21 23  1  0  0  0  0
 21 25  1  0  0  0  0
 21 32  2  0  0  0  0
 22 24  2  0  0  0  0
 22 26  1  0  0  0  0
 24 35  1  0  0  0  0
 25 34  2  0  0  0  0
 25 37  1  0  0  0  0
 27 41  1  0  0  0  0
 29 33  2  0  0  0  0
 29 34  1  0  0  0  0
 30 32  1  0  0  0  0
 31 35  2  0  0  0  0
 33 36  1  0  0  0  0
 33 42  1  0  0  0  0
 36 37  2  0  0  0  0
 38 40  2  0  0  0  0
 39 40  1  0  0  0  0
 39 43  1  0  0  0  0
M  END
> <PUBCHEM_COMPOUND_ID_TYPE>
0

> <PUBCHEM_TOTAL_CHARGE>
0

> <PUBCHEM_SUBSTANCE_ID>
310948482

> <PUBCHEM_SUBSTANCE_VERSION>
1

> <PUBCHEM_EXT_DATASOURCE_NAME>
4488

> <PUBCHEM_EXT_DATASOURCE_REGID>
SCHEMBL16126664

> <PUBCHEM_SUBSTANCE_COMMENT>
InChI=1S/C29H21F3N4O7S/c1-14-34-26(16-4-6-23-24(11-16)43-29(31,32)42-23)27(41-14)18-9-15(3-5-22(18)36-8-7-21(35-36)28(33)38)17-10-20(30)19(13-37)25(12-17)44(2,39)40/h3-12,37H,13H2,1-2H3,(H2,33,38)
InChIKey=SNZLVBWPMGNGDH-UHFFFAOYSA-N

> <PUBCHEM_SUBSTANCE_SYNONYM>
SCHEMBL16126664

> <PUBCHEM_XREF_EXT_ID>
SCHEMBL16126664

> <PUBCHEM_EXT_DATASOURCE_URL>
https://www.surechembl.org/

> <PUBCHEM_EXT_SUBSTANCE_URL>
https://www.surechembl.org/chemical/SCHEMBL16126664

> <PUBCHEM_CID_ASSOCIATIONS>
117614040  1

> <PUBCHEM_COORDINATE_TYPE>
1
3

$$$$
