310940148
  -OEChem-07211613022D

 41 45  0     0  0  0  0  0  0999 V2000
   -0.3649    1.5466    0.0000 Cl  0  0  0  0  0  0  0  0  0  0  0  0
    2.3906   -2.5363    0.0000 S   0  0  0  0  0  0  0  0  0  0  0  0
   -2.5154   -3.6284    0.0000 O   0  0  0  0  0  0  0  0  0  0  0  0
   -2.5154    2.7899    0.0000 O   0  0  0  0  0  0  0  0  0  0  0  0
    2.3906   -2.5363    0.0000 O   0  0  0  0  0  0  0  0  0  0  0  0
    2.3906   -2.5363    0.0000 O   0  0  0  0  0  0  0  0  0  0  0  0
   -1.7930   -0.9401    0.0000 N   0  0  0  0  0  0  0  0  0  0  0  0
   -1.1210   -1.4273    0.0000 N   0  0  0  0  0  0  0  0  0  0  0  0
   -0.9025   -2.8890    0.0000 N   0  0  0  0  0  0  0  0  0  0  0  0
   -1.7930    1.5466    0.0000 N   0  0  0  0  0  0  0  0  0  0  0  0
   -3.5740   -2.6707    0.0000 N   0  0  0  0  0  0  0  0  0  0  0  0
    2.3906   -2.5363    0.0000 N   0  0  0  0  0  0  0  0  0  0  0  0
    0.3408    0.2529    0.0000 N   0  0  0  0  0  0  0  0  0  0  0  0
   -1.7762   -0.1168    0.0000 C   0  0  0  0  0  0  0  0  0  0  0  0
   -2.4651   -1.4441    0.0000 C   0  0  0  0  0  0  0  0  0  0  0  0
   -2.2130   -2.2002    0.0000 C   0  0  0  0  0  0  0  0  0  0  0  0
   -1.3898   -2.2170    0.0000 C   0  0  0  0  0  0  0  0  0  0  0  0
   -2.7843   -2.8219    0.0000 C   0  0  0  0  0  0  0  0  0  0  0  0
   -2.5154    0.3033    0.0000 C   0  0  0  0  0  0  0  0  0  0  0  0
   -1.0873    0.3033    0.0000 C   0  0  0  0  0  0  0  0  0  0  0  0
   -3.2715   -1.2593    0.0000 C   0  0  0  0  0  0  0  0  0  0  0  0
   -1.0873   -0.5200    0.0000 C   0  0  0  0  0  0  0  0  0  0  0  0
   -2.5154    1.1433    0.0000 C   0  0  0  0  0  0  0  0  0  0  0  0
   -1.0705    1.1265    0.0000 C   0  0  0  0  0  0  0  0  0  0  0  0
   -3.8260   -1.8642    0.0000 C   0  0  0  0  0  0  0  0  0  0  0  0
   -0.0960   -2.7883    0.0000 C   0  0  0  0  0  0  0  0  0  0  0  0
   -1.7762    2.3699    0.0000 C   0  0  0  0  0  0  0  0  0  0  0  0
   -0.3649   -0.1168    0.0000 C   0  0  0  0  0  0  0  0  0  0  0  0
   -1.0873    2.7899    0.0000 C   0  0  0  0  0  0  0  0  0  0  0  0
    1.5674   -2.6202    0.0000 C   0  0  0  0  0  0  0  0  0  0  0  0
    0.4248   -3.4604    0.0000 C   0  0  0  0  0  0  0  0  0  0  0  0
    0.2736   -2.0490    0.0000 C   0  0  0  0  0  0  0  0  0  0  0  0
    1.2313   -3.3763    0.0000 C   0  0  0  0  0  0  0  0  0  0  0  0
    1.0969   -1.9649    0.0000 C   0  0  0  0  0  0  0  0  0  0  0  0
   -0.3649    2.3867    0.0000 C   0  0  0  0  0  0  0  0  0  0  0  0
   -1.0537    3.6300    0.0000 C   0  0  0  0  0  0  0  0  0  0  0  0
    0.3408    2.7899    0.0000 C   0  0  0  0  0  0  0  0  0  0  0  0
   -0.3649    4.0164    0.0000 C   0  0  0  0  0  0  0  0  0  0  0  0
    0.3408    3.6132    0.0000 C   0  0  0  0  0  0  0  0  0  0  0  0
    3.8260   -4.0164    0.0000 C   0  0  0  0  0  0  0  0  0  0  0  0
    3.8260   -4.0164    0.0000 C   0  0  0  0  0  0  0  0  0  0  0  0
  1 35  1  0  0  0  0
  2  5  2  0  0  0  0
  2  6  2  0  0  0  0
  2 12  1  0  0  0  0
  2 30  1  0  0  0  0
  3 18  2  0  0  0  0
  4 27  2  0  0  0  0
  7  8  1  0  0  0  0
  7 14  1  0  0  0  0
  7 15  1  0  0  0  0
  8 17  2  0  0  0  0
  9 17  1  0  0  0  0
  9 26  1  0  0  0  0
 10 23  1  0  0  0  0
 10 24  1  0  0  0  0
 10 27  1  0  0  0  0
 11 18  1  0  0  0  0
 11 25  1  0  0  0  0
 12 40  1  0  0  0  0
 12 41  1  0  0  0  0
 13 28  3  0  0  0  0
 14 19  1  0  0  0  0
 14 20  1  0  0  0  0
 14 22  1  0  0  0  0
 15 16  2  0  0  0  0
 15 21  1  0  0  0  0
 16 17  1  0  0  0  0
 16 18  1  0  0  0  0
 19 23  1  0  0  0  0
 20 24  1  0  0  0  0
 21 25  2  0  0  0  0
 22 28  1  0  0  0  0
 26 31  2  0  0  0  0
 26 32  1  0  0  0  0
 27 29  1  0  0  0  0
 29 35  2  0  0  0  0
 29 36  1  0  0  0  0
 30 33  2  0  0  0  0
 30 34  1  0  0  0  0
 31 33  1  0  0  0  0
 32 34  2  0  0  0  0
 35 37  1  0  0  0  0
 36 38  2  0  0  0  0
 37 39  2  0  0  0  0
 38 39  1  0  0  0  0
M  END
> <PUBCHEM_COMPOUND_ID_TYPE>
0

> <PUBCHEM_TOTAL_CHARGE>
0

> <PUBCHEM_SUBSTANCE_ID>
310940148

> <PUBCHEM_SUBSTANCE_VERSION>
1

> <PUBCHEM_EXT_DATASOURCE_NAME>
4488

> <PUBCHEM_EXT_DATASOURCE_REGID>
SCHEMBL16118081

> <PUBCHEM_SUBSTANCE_COMMENT>
InChI=1S/C28H28ClN7O4S/c1-34(2)41(39,40)20-9-7-19(8-10-20)32-25-24-23(11-16-31-26(24)37)36(33-25)28(12-15-30)13-17-35(18-14-28)27(38)21-5-3-4-6-22(21)29/h3-11,16H,12-14,17-18H2,1-2H3,(H,31,37)(H,32,33)
InChIKey=SIKBFCGLWXZOLL-UHFFFAOYSA-N

> <PUBCHEM_SUBSTANCE_SYNONYM>
SCHEMBL16118081

> <PUBCHEM_XREF_EXT_ID>
SCHEMBL16118081

> <PUBCHEM_EXT_DATASOURCE_URL>
https://www.surechembl.org/

> <PUBCHEM_EXT_SUBSTANCE_URL>
https://www.surechembl.org/chemical/SCHEMBL16118081

> <PUBCHEM_CID_ASSOCIATIONS>
117607272  1

> <PUBCHEM_COORDINATE_TYPE>
1
3

$$$$
