310930205
  -OEChem-07211613022D

 23 24  0     1  0  0  0  0  0999 V2000
    2.3958   -1.9638    0.0000 S   0  0  0  0  0  0  0  0  0  0  0  0
    2.3958   -1.1390    0.0000 O   0  0  0  0  0  0  0  0  0  0  0  0
    2.3958   -2.7885    0.0000 O   0  0  0  0  0  0  0  0  0  0  0  0
    3.2205   -1.9638    0.0000 O   0  0  0  0  0  0  0  0  0  0  0  0
    1.5710   -1.9638    0.0000 O   0  0  0  0  0  0  0  0  0  0  0  0
    2.7100    0.0000    0.0000 N   0  0  0  0  0  0  0  0  0  0  0  0
    2.0816   -3.9275    0.0000 N   0  0  0  0  0  0  0  0  0  0  0  0
    3.1224   -0.7266    0.0000 C   0  0  3  0  0  0  0  0  0  0  0  0
    1.6692   -3.2009    0.0000 C   0  0  3  0  0  0  0  0  0  0  0  0
    3.5348   -1.4335    0.0000 C   0  0  0  0  0  0  0  0  0  0  0  0
    1.2568   -2.4940    0.0000 C   0  0  0  0  0  0  0  0  0  0  0  0
    4.3595   -1.4531    0.0000 C   0  0  0  0  0  0  0  0  0  0  0  0
    0.4124   -2.4743    0.0000 C   0  0  0  0  0  0  0  0  0  0  0  0
    3.1224   -2.1602    0.0000 C   0  0  0  0  0  0  0  0  0  0  0  0
    1.6692   -1.7674    0.0000 C   0  0  0  0  0  0  0  0  0  0  0  0
    3.5348    0.0000    0.0000 C   0  0  0  0  0  0  0  0  0  0  0  0
    1.2568   -3.9275    0.0000 C   0  0  0  0  0  0  0  0  0  0  0  0
    4.7719   -2.1602    0.0000 C   0  0  0  0  0  0  0  0  0  0  0  0
    0.0000   -1.7674    0.0000 C   0  0  0  0  0  0  0  0  0  0  0  0
    3.5348   -2.8671    0.0000 C   0  0  0  0  0  0  0  0  0  0  0  0
    1.2568   -1.0604    0.0000 C   0  0  0  0  0  0  0  0  0  0  0  0
    4.3595   -2.8867    0.0000 C   0  0  0  0  0  0  0  0  0  0  0  0
    0.4320   -1.0408    0.0000 C   0  0  0  0  0  0  0  0  0  0  0  0
  1  2  1  0  0  0  0
  1  3  1  0  0  0  0
  1  4  2  0  0  0  0
  1  5  2  0  0  0  0
  2  8  1  0  0  0  0
  3  9  1  0  0  0  0
  6  8  1  0  0  0  0
  7  9  1  0  0  0  0
  8 10  1  0  0  0  0
  8 16  1  0  0  0  0
  9 11  1  0  0  0  0
  9 17  1  0  0  0  0
 10 12  2  0  0  0  0
 10 14  1  0  0  0  0
 11 13  2  0  0  0  0
 11 15  1  0  0  0  0
 12 18  1  0  0  0  0
 13 19  1  0  0  0  0
 14 20  2  0  0  0  0
 15 21  2  0  0  0  0
 18 22  2  0  0  0  0
 19 23  2  0  0  0  0
 20 22  1  0  0  0  0
 21 23  1  0  0  0  0
M  END
> <PUBCHEM_COMPOUND_ID_TYPE>
0

> <PUBCHEM_TOTAL_CHARGE>
0

> <PUBCHEM_SUBSTANCE_ID>
310930205

> <PUBCHEM_SUBSTANCE_VERSION>
1

> <PUBCHEM_EXT_DATASOURCE_NAME>
4488

> <PUBCHEM_EXT_DATASOURCE_REGID>
SCHEMBL16107471

> <PUBCHEM_SUBSTANCE_COMMENT>
InChI=1S/C16H20N2O4S/c1-15(17,13-9-5-3-6-10-13)21-23(19,20)22-16(2,18)14-11-7-4-8-12-14/h3-12H,17-18H2,1-2H3
InChIKey=BOWKJFAFYVAFKZ-UHFFFAOYSA-N

> <PUBCHEM_SUBSTANCE_SYNONYM>
SCHEMBL16107471

> <PUBCHEM_XREF_EXT_ID>
SCHEMBL16107471

> <PUBCHEM_EXT_DATASOURCE_URL>
https://www.surechembl.org/

> <PUBCHEM_EXT_SUBSTANCE_URL>
https://www.surechembl.org/chemical/SCHEMBL16107471

> <PUBCHEM_CID_ASSOCIATIONS>
117599412  1

> <PUBCHEM_COORDINATE_TYPE>
1
3

$$$$
