310940613
  -OEChem-07211613022D

 14 14  0     0  0  0  0  0  0999 V2000
    0.0560    0.4125    0.0000 S   0  0  0  0  0  0  0  0  0  0  0  0
   -0.4894    1.0137    0.0000 O   0  0  0  0  0  0  0  0  0  0  0  0
    0.4894    1.0976    0.0000 O   0  0  0  0  0  0  0  0  0  0  0  0
   -1.5381    1.2654    0.0000 O   0  0  0  0  0  0  0  0  0  0  0  0
   -0.7411    0.0070    0.0000 N   0  0  0  0  0  0  0  0  0  0  0  0
   -0.7411    0.0070    0.0000 N   0  0  0  0  0  0  0  0  0  0  0  0
    0.7690   -0.0070    0.0000 C   0  0  0  0  0  0  0  0  0  0  0  0
    0.7690   -0.8320    0.0000 C   0  0  0  0  0  0  0  0  0  0  0  0
    1.4961    0.3845    0.0000 C   0  0  0  0  0  0  0  0  0  0  0  0
    1.4961   -1.2654    0.0000 C   0  0  0  0  0  0  0  0  0  0  0  0
    2.2092   -0.0349    0.0000 C   0  0  0  0  0  0  0  0  0  0  0  0
   -1.5660    0.4265    0.0000 C   0  0  0  0  0  0  0  0  0  0  0  0
    2.2092   -0.8599    0.0000 C   0  0  0  0  0  0  0  0  0  0  0  0
   -2.2092    0.0769    0.0000 C   0  0  0  0  0  0  0  0  0  0  0  0
  1  2  2  0  0  0  0
  1  3  2  0  0  0  0
  1  5  1  0  0  0  0
  1  7  1  0  0  0  0
  4 12  2  0  0  0  0
  5  6  2  3  0  0  0
  6 12  1  0  0  0  0
  7  8  2  0  0  0  0
  7  9  1  0  0  0  0
  8 10  1  0  0  0  0
  9 11  2  0  0  0  0
 10 13  2  0  0  0  0
 11 13  1  0  0  0  0
 12 14  1  0  0  0  0
M  END
> <PUBCHEM_COMPOUND_ID_TYPE>
0

> <PUBCHEM_TOTAL_CHARGE>
0

> <PUBCHEM_SUBSTANCE_ID>
310940613

> <PUBCHEM_SUBSTANCE_VERSION>
1

> <PUBCHEM_EXT_DATASOURCE_NAME>
4488

> <PUBCHEM_EXT_DATASOURCE_REGID>
SCHEMBL16118567

> <PUBCHEM_SUBSTANCE_COMMENT>
InChI=1S/C8H8N2O3S/c1-7(11)9-10-14(12,13)8-5-3-2-4-6-8/h2-6H,1H3/b10-9-
InChIKey=YWNYCNNLZDFIKZ-KTKRTIGZSA-N

> <PUBCHEM_SUBSTANCE_SYNONYM>
SCHEMBL16118567

> <PUBCHEM_XREF_EXT_ID>
SCHEMBL16118567

> <PUBCHEM_EXT_DATASOURCE_URL>
https://www.surechembl.org/

> <PUBCHEM_EXT_SUBSTANCE_URL>
https://www.surechembl.org/chemical/SCHEMBL16118567

> <PUBCHEM_CID_ASSOCIATIONS>
117607599  1

> <PUBCHEM_COORDINATE_TYPE>
1
3

$$$$
