310943573
  -OEChem-07211613022D

 28 30  0     1  0  0  0  0  0999 V2000
    2.8717    1.2926    0.0000 S   0  0  0  0  0  0  0  0  0  0  0  0
    2.4524    2.0193    0.0000 O   0  0  0  0  0  0  0  0  0  0  0  0
    3.6123    2.0332    0.0000 O   0  0  0  0  0  0  0  0  0  0  0  0
    3.7939    0.7756    0.0000 N   0  0  0  0  0  0  0  0  0  0  0  0
   -2.8995   -1.2087    0.0000 N   0  0  3  0  0  0  0  0  0  0  0  0
    1.4463   -2.0332    0.0000 N   0  0  0  0  0  0  0  0  0  0  0  0
   -4.6883   -0.6638    0.0000 N   0  0  3  0  0  0  0  0  0  0  0  0
   -0.0070   -0.3703    0.0000 C   0  0  0  0  0  0  0  0  0  0  0  0
    0.7196    0.0629    0.0000 C   0  0  0  0  0  0  0  0  0  0  0  0
    2.1450    0.8873    0.0000 C   0  0  0  0  0  0  0  0  0  0  0  0
   -0.0210   -1.1808    0.0000 C   0  0  0  0  0  0  0  0  0  0  0  0
   -1.4603   -1.1948    0.0000 C   0  0  0  0  0  0  0  0  0  0  0  0
    1.4184   -0.3563    0.0000 C   0  0  0  0  0  0  0  0  0  0  0  0
    0.7476    0.8873    0.0000 C   0  0  0  0  0  0  0  0  0  0  0  0
   -0.7196    0.0349    0.0000 C   0  0  0  0  0  0  0  0  0  0  0  0
   -0.7337   -1.6000    0.0000 C   0  0  0  0  0  0  0  0  0  0  0  0
    2.1450    0.0629    0.0000 C   0  0  0  0  0  0  0  0  0  0  0  0
    1.4323    1.2786    0.0000 C   0  0  0  0  0  0  0  0  0  0  0  0
   -1.4323   -0.3703    0.0000 C   0  0  0  0  0  0  0  0  0  0  0  0
   -2.1590   -1.6140    0.0000 C   0  0  0  0  0  0  0  0  0  0  0  0
    0.7196   -1.6140    0.0000 C   0  0  0  0  0  0  0  0  0  0  0  0
   -3.5843   -1.6699    0.0000 C   0  0  0  0  0  0  0  0  0  0  0  0
   -2.8298   -0.3563    0.0000 C   0  0  0  0  0  0  0  0  0  0  0  0
   -4.3808   -1.4184    0.0000 C   0  0  0  0  0  0  0  0  0  0  0  0
    4.6883    1.2926    0.0000 C   0  0  0  0  0  0  0  0  0  0  0  0
   -3.4585    0.1886    0.0000 C   0  0  0  0  0  0  0  0  0  0  0  0
   -4.2551    0.0768    0.0000 C   0  0  0  0  0  0  0  0  0  0  0  0
   -4.6883   -0.6638    0.0000 C   0  0  0  0  0  0  0  0  0  0  0  0
  1  2  2  0  0  0  0
  1  3  2  0  0  0  0
  1  4  1  0  0  0  0
  1 10  1  0  0  0  0
  4 25  1  0  0  0  0
  5 20  1  0  0  0  0
  5 22  1  0  0  0  0
  5 23  1  0  0  0  0
  6 21  3  0  0  0  0
  7 24  1  0  0  0  0
  7 27  1  0  0  0  0
  7 28  1  0  0  0  0
  8  9  1  0  0  0  0
  8 11  1  0  0  0  0
  8 15  2  0  0  0  0
  9 13  2  0  0  0  0
  9 14  1  0  0  0  0
 10 17  2  0  0  0  0
 10 18  1  0  0  0  0
 11 16  2  0  0  0  0
 11 21  1  0  0  0  0
 12 16  1  0  0  0  0
 12 19  2  0  0  0  0
 12 20  1  0  0  0  0
 13 17  1  0  0  0  0
 14 18  2  0  0  0  0
 15 19  1  0  0  0  0
 22 24  1  0  0  0  0
 23 26  1  0  0  0  0
 26 27  1  0  0  0  0
M  END
> <PUBCHEM_COMPOUND_ID_TYPE>
0

> <PUBCHEM_TOTAL_CHARGE>
0

> <PUBCHEM_SUBSTANCE_ID>
310943573

> <PUBCHEM_SUBSTANCE_VERSION>
1

> <PUBCHEM_EXT_DATASOURCE_NAME>
4488

> <PUBCHEM_EXT_DATASOURCE_REGID>
SCHEMBL16121640

> <PUBCHEM_SUBSTANCE_COMMENT>
InChI=1S/C21H26N4O2S/c1-23-28(26,27)20-7-5-18(6-8-20)21-9-4-17(14-19(21)15-22)16-25-11-3-10-24(2)12-13-25/h4-9,14,23H,3,10-13,16H2,1-2H3
InChIKey=IFAUTCKOFDWEKR-UHFFFAOYSA-N

> <PUBCHEM_SUBSTANCE_SYNONYM>
SCHEMBL16121640

> <PUBCHEM_XREF_EXT_ID>
SCHEMBL16121640

> <PUBCHEM_EXT_DATASOURCE_URL>
https://www.surechembl.org/

> <PUBCHEM_EXT_SUBSTANCE_URL>
https://www.surechembl.org/chemical/SCHEMBL16121640

> <PUBCHEM_CID_ASSOCIATIONS>
117609981  1

> <PUBCHEM_COORDINATE_TYPE>
1
3

$$$$
