310943570
  -OEChem-07211613022D

 43 47  0     1  0  0  0  0  0999 V2000
    1.0259   -3.1553    0.0000 S   0  0  0  0  0  0  0  0  0  0  0  0
    2.4714    3.1553    0.0000 O   0  0  0  0  0  0  0  0  0  0  0  0
    1.0259   -3.1553    0.0000 O   0  0  0  0  0  0  0  0  0  0  0  0
    1.0259   -3.1553    0.0000 O   0  0  0  0  0  0  0  0  0  0  0  0
    3.2640    1.6786    0.0000 N   0  0  0  0  0  0  0  0  0  0  0  0
   -3.3107   -0.3575    0.0000 N   0  0  3  0  0  0  0  0  0  0  0  0
   -1.1657    2.7356    0.0000 N   0  0  0  0  0  0  0  0  0  0  0  0
    5.0359    1.1502    0.0000 N   0  0  3  0  0  0  0  0  0  0  0  0
   -5.0981    0.1865    0.0000 N   0  0  3  0  0  0  0  0  0  0  0  0
    0.2953    0.9015    0.0000 C   0  0  0  0  0  0  0  0  0  0  0  0
    1.0259    0.4974    0.0000 C   0  0  0  0  0  0  0  0  0  0  0  0
   -0.4352    0.4663    0.0000 C   0  0  0  0  0  0  0  0  0  0  0  0
    1.0259   -0.4352    0.0000 C   0  0  0  0  0  0  0  0  0  0  0  0
    1.7408    1.7253    0.0000 C   0  0  0  0  0  0  0  0  0  0  0  0
    1.7408    0.8860    0.0000 C   0  0  0  0  0  0  0  0  0  0  0  0
   -1.1657    0.8860    0.0000 C   0  0  0  0  0  0  0  0  0  0  0  0
    0.3109    1.7253    0.0000 C   0  0  0  0  0  0  0  0  0  0  0  0
    1.0259    2.1294    0.0000 C   0  0  0  0  0  0  0  0  0  0  0  0
    2.4558    2.1139    0.0000 C   0  0  0  0  0  0  0  0  0  0  0  0
   -0.4352   -0.3575    0.0000 C   0  0  0  0  0  0  0  0  0  0  0  0
    1.7408   -0.8860    0.0000 C   0  0  0  0  0  0  0  0  0  0  0  0
    0.3264   -0.8549    0.0000 C   0  0  0  0  0  0  0  0  0  0  0  0
   -1.8496    0.4818    0.0000 C   0  0  0  0  0  0  0  0  0  0  0  0
   -1.8652   -0.3575    0.0000 C   0  0  0  0  0  0  0  0  0  0  0  0
    1.0259   -2.0983    0.0000 C   0  0  0  0  0  0  0  0  0  0  0  0
   -1.1346   -0.7616    0.0000 C   0  0  0  0  0  0  0  0  0  0  0  0
    1.7253   -1.7097    0.0000 C   0  0  0  0  0  0  0  0  0  0  0  0
    0.3264   -1.7097    0.0000 C   0  0  0  0  0  0  0  0  0  0  0  0
   -1.1657    1.9118    0.0000 C   0  0  0  0  0  0  0  0  0  0  0  0
   -2.5646   -0.7616    0.0000 C   0  0  0  0  0  0  0  0  0  0  0  0
    3.5749    0.9170    0.0000 C   0  0  0  0  0  0  0  0  0  0  0  0
    3.6837    2.4092    0.0000 C   0  0  0  0  0  0  0  0  0  0  0  0
    1.0259   -3.1553    0.0000 C   0  0  0  0  0  0  0  0  0  0  0  0
    4.3676    0.6839    0.0000 C   0  0  0  0  0  0  0  0  0  0  0  0
    4.5075    2.5336    0.0000 C   0  0  0  0  0  0  0  0  0  0  0  0
   -3.9946   -0.8238    0.0000 C   0  0  0  0  0  0  0  0  0  0  0  0
   -3.2640    0.4818    0.0000 C   0  0  0  0  0  0  0  0  0  0  0  0
    5.0981    1.9739    0.0000 C   0  0  0  0  0  0  0  0  0  0  0  0
   -4.7873   -0.5751    0.0000 C   0  0  0  0  0  0  0  0  0  0  0  0
   -3.8702    1.0414    0.0000 C   0  0  0  0  0  0  0  0  0  0  0  0
   -4.6785    0.9170    0.0000 C   0  0  0  0  0  0  0  0  0  0  0  0
    5.9374    0.6217    0.0000 C   0  0  0  0  0  0  0  0  0  0  0  0
   -5.9374    0.1865    0.0000 C   0  0  0  0  0  0  0  0  0  0  0  0
  1  3  2  0  0  0  0
  1  4  2  0  0  0  0
  1 25  1  0  0  0  0
  1 33  1  0  0  0  0
  2 19  2  0  0  0  0
  5 19  1  0  0  0  0
  5 31  1  0  0  0  0
  5 32  1  0  0  0  0
  6 30  1  0  0  0  0
  6 36  1  0  0  0  0
  6 37  1  0  0  0  0
  7 29  3  0  0  0  0
  8 34  1  0  0  0  0
  8 38  1  0  0  0  0
  8 42  1  0  0  0  0
  9 39  1  0  0  0  0
  9 41  1  0  0  0  0
  9 43  1  0  0  0  0
 10 11  2  0  0  0  0
 10 12  1  0  0  0  0
 10 17  1  0  0  0  0
 11 13  1  0  0  0  0
 11 15  1  0  0  0  0
 12 16  2  0  0  0  0
 12 20  1  0  0  0  0
 13 21  2  0  0  0  0
 13 22  1  0  0  0  0
 14 15  2  0  0  0  0
 14 18  1  0  0  0  0
 14 19  1  0  0  0  0
 16 23  1  0  0  0  0
 16 29  1  0  0  0  0
 17 18  2  0  0  0  0
 20 26  2  0  0  0  0
 21 27  1  0  0  0  0
 22 28  2  0  0  0  0
 23 24  2  0  0  0  0
 24 26  1  0  0  0  0
 24 30  1  0  0  0  0
 25 27  2  0  0  0  0
 25 28  1  0  0  0  0
 31 34  1  0  0  0  0
 32 35  1  0  0  0  0
 35 38  1  0  0  0  0
 36 39  1  0  0  0  0
 37 40  1  0  0  0  0
 40 41  1  0  0  0  0
M  END
> <PUBCHEM_COMPOUND_ID_TYPE>
0

> <PUBCHEM_TOTAL_CHARGE>
0

> <PUBCHEM_SUBSTANCE_ID>
310943570

> <PUBCHEM_SUBSTANCE_VERSION>
1

> <PUBCHEM_EXT_DATASOURCE_NAME>
4488

> <PUBCHEM_EXT_DATASOURCE_REGID>
SCHEMBL16121637

> <PUBCHEM_SUBSTANCE_COMMENT>
InChI=1S/C34H41N5O3S/c1-36-14-4-16-38(20-18-36)25-26-6-12-31(29(22-26)24-35)32-13-9-28(34(40)39-17-5-15-37(2)19-21-39)23-33(32)27-7-10-30(11-8-27)43(3,41)42/h6-13,22-23H,4-5,14-21,25H2,1-3H3
InChIKey=NZLIYBBEPNERHA-UHFFFAOYSA-N

> <PUBCHEM_SUBSTANCE_SYNONYM>
SCHEMBL16121637

> <PUBCHEM_XREF_EXT_ID>
SCHEMBL16121637

> <PUBCHEM_EXT_DATASOURCE_URL>
https://www.surechembl.org/

> <PUBCHEM_EXT_SUBSTANCE_URL>
https://www.surechembl.org/chemical/SCHEMBL16121637

> <PUBCHEM_CID_ASSOCIATIONS>
86301844  1

> <PUBCHEM_COORDINATE_TYPE>
1
3

$$$$
