310948302
  -OEChem-07211613022D

 50 55  0     0  0  0  0  0  0999 V2000
    3.5385   -2.1912    0.0000 S   0  0  0  0  0  0  0  0  0  0  0  0
    3.2950    3.9527    0.0000 F   0  0  0  0  0  0  0  0  0  0  0  0
    3.8195    3.3159    0.0000 F   0  0  0  0  0  0  0  0  0  0  0  0
    3.6322    0.6934    0.0000 F   0  0  0  0  0  0  0  0  0  0  0  0
   -5.2466    1.5176    0.0000 F   0  0  0  0  0  0  0  0  0  0  0  0
   -4.3662    2.2106    0.0000 F   0  0  0  0  0  0  0  0  0  0  0  0
   -3.6731    1.3115    0.0000 F   0  0  0  0  0  0  0  0  0  0  0  0
   -1.2567    0.9556    0.0000 O   0  0  0  0  0  0  0  0  0  0  0  0
    2.2273    3.3533    0.0000 O   0  0  0  0  0  0  0  0  0  0  0  0
    3.0703    2.3230    0.0000 O   0  0  0  0  0  0  0  0  0  0  0  0
    3.5385   -2.1912    0.0000 O   0  0  0  0  0  0  0  0  0  0  0  0
    3.5385   -2.1912    0.0000 O   0  0  0  0  0  0  0  0  0  0  0  0
   -3.0738    1.2179    0.0000 O   0  0  0  0  0  0  0  0  0  0  0  0
    4.8310   -0.0746    0.0000 O   0  0  0  0  0  0  0  0  0  0  0  0
   -0.6574    2.1732    0.0000 N   0  0  0  0  0  0  0  0  0  0  0  0
   -1.8000   -1.2172    0.0000 N   0  0  0  0  0  0  0  0  0  0  0  0
   -2.5680   -0.9362    0.0000 N   0  0  0  0  0  0  0  0  0  0  0  0
   -3.9354    0.0940    0.0000 N   0  0  0  0  0  0  0  0  0  0  0  0
   -0.0579    0.1315    0.0000 C   0  0  0  0  0  0  0  0  0  0  0  0
   -0.4513    0.8620    0.0000 C   0  0  0  0  0  0  0  0  0  0  0  0
   -0.0579    1.5925    0.0000 C   0  0  0  0  0  0  0  0  0  0  0  0
   -0.4888   -0.5804    0.0000 C   0  0  0  0  0  0  0  0  0  0  0  0
    0.7100    1.7611    0.0000 C   0  0  0  0  0  0  0  0  0  0  0  0
   -1.3129   -0.5429    0.0000 C   0  0  0  0  0  0  0  0  0  0  0  0
    1.1221   -0.6365    0.0000 C   0  0  0  0  0  0  0  0  0  0  0  0
    0.7662    0.0753    0.0000 C   0  0  0  0  0  0  0  0  0  0  0  0
    1.7965    2.6602    0.0000 C   0  0  0  0  0  0  0  0  0  0  0  0
    1.9464   -0.6740    0.0000 C   0  0  0  0  0  0  0  0  0  0  0  0
    2.3397    2.0421    0.0000 C   0  0  0  0  0  0  0  0  0  0  0  0
   -1.3691    1.7986    0.0000 C   0  0  0  0  0  0  0  0  0  0  0  0
   -0.0954   -1.3109    0.0000 C   0  0  0  0  0  0  0  0  0  0  0  0
    1.0098    2.5104    0.0000 C   0  0  0  0  0  0  0  0  0  0  0  0
    3.0328    3.1847    0.0000 C   0  0  0  0  0  0  0  0  0  0  0  0
    0.7100   -1.3484    0.0000 C   0  0  0  0  0  0  0  0  0  0  0  0
   -1.7251    0.0940    0.0000 C   0  0  0  0  0  0  0  0  0  0  0  0
    3.1452   -1.4420    0.0000 C   0  0  0  0  0  0  0  0  0  0  0  0
    1.2533    1.1242    0.0000 C   0  0  0  0  0  0  0  0  0  0  0  0
   -2.5118   -0.0933    0.0000 C   0  0  0  0  0  0  0  0  0  0  0  0
    2.3397   -1.4046    0.0000 C   0  0  0  0  0  0  0  0  0  0  0  0
    3.5760   -0.7302    0.0000 C   0  0  0  0  0  0  0  0  0  0  0  0
    2.0400    1.2553    0.0000 C   0  0  0  0  0  0  0  0  0  0  0  0
    2.3959    0.0191    0.0000 C   0  0  0  0  0  0  0  0  0  0  0  0
    3.1827    0.0003    0.0000 C   0  0  0  0  0  0  0  0  0  0  0  0
   -3.2049    0.3937    0.0000 C   0  0  0  0  0  0  0  0  0  0  0  0
   -2.1184    2.1170    0.0000 C   0  0  0  0  0  0  0  0  0  0  0  0
   -1.5565   -2.0414    0.0000 C   0  0  0  0  0  0  0  0  0  0  0  0
    4.4002   -0.7676    0.0000 C   0  0  0  0  0  0  0  0  0  0  0  0
    5.2466   -3.9527    0.0000 C   0  0  0  0  0  0  0  0  0  0  0  0
   -4.5723    0.6185    0.0000 C   0  0  0  0  0  0  0  0  0  0  0  0
   -4.4599    1.4239    0.0000 C   0  0  0  0  0  0  0  0  0  0  0  0
  1 11  2  0  0  0  0
  1 12  2  0  0  0  0
  1 36  1  0  0  0  0
  1 48  1  0  0  0  0
  2 33  1  0  0  0  0
  3 33  1  0  0  0  0
  4 43  1  0  0  0  0
  5 50  1  0  0  0  0
  6 50  1  0  0  0  0
  7 50  1  0  0  0  0
  8 20  1  0  0  0  0
  8 30  1  0  0  0  0
  9 27  1  0  0  0  0
  9 33  1  0  0  0  0
 10 29  1  0  0  0  0
 10 33  1  0  0  0  0
 13 44  2  0  0  0  0
 14 47  1  0  0  0  0
 15 21  1  0  0  0  0
 15 30  2  0  0  0  0
 16 17  1  0  0  0  0
 16 24  1  0  0  0  0
 16 46  1  0  0  0  0
 17 38  2  0  0  0  0
 18 44  1  0  0  0  0
 18 49  1  0  0  0  0
 19 20  1  0  0  0  0
 19 22  1  0  0  0  0
 19 26  2  0  0  0  0
 20 21  2  0  0  0  0
 21 23  1  0  0  0  0
 22 24  1  0  0  0  0
 22 31  2  0  0  0  0
 23 32  1  0  0  0  0
 23 37  2  0  0  0  0
 24 35  2  0  0  0  0
 25 26  1  0  0  0  0
 25 28  1  0  0  0  0
 25 34  2  0  0  0  0
 27 29  1  0  0  0  0
 27 32  2  0  0  0  0
 28 39  1  0  0  0  0
 28 42  2  0  0  0  0
 29 41  2  0  0  0  0
 30 45  1  0  0  0  0
 31 34  1  0  0  0  0
 35 38  1  0  0  0  0
 36 39  2  0  0  0  0
 36 40  1  0  0  0  0
 37 41  1  0  0  0  0
 38 44  1  0  0  0  0
 40 43  2  0  0  0  0
 40 47  1  0  0  0  0
 42 43  1  0  0  0  0
 49 50  1  0  0  0  0
M  END
> <PUBCHEM_COMPOUND_ID_TYPE>
0

> <PUBCHEM_TOTAL_CHARGE>
0

> <PUBCHEM_SUBSTANCE_ID>
310948302

> <PUBCHEM_SUBSTANCE_VERSION>
1

> <PUBCHEM_EXT_DATASOURCE_NAME>
4488

> <PUBCHEM_EXT_DATASOURCE_REGID>
SCHEMBL16126479

> <PUBCHEM_SUBSTANCE_COMMENT>
InChI=1S/C32H24F6N4O7S/c1-15-40-28(17-5-7-25-26(10-17)49-32(37,38)48-25)29(47-15)20-8-16(18-9-22(33)21(13-43)27(11-18)50(3,45)46)4-6-19(20)24-12-23(41-42(24)2)30(44)39-14-31(34,35)36/h4-12,43H,13-14H2,1-3H3,(H,39,44)
InChIKey=MCAGTUCCRNETGP-UHFFFAOYSA-N

> <PUBCHEM_SUBSTANCE_SYNONYM>
SCHEMBL16126479

> <PUBCHEM_XREF_EXT_ID>
SCHEMBL16126479

> <PUBCHEM_EXT_DATASOURCE_URL>
https://www.surechembl.org/

> <PUBCHEM_EXT_SUBSTANCE_URL>
https://www.surechembl.org/chemical/SCHEMBL16126479

> <PUBCHEM_CID_ASSOCIATIONS>
117613868  1

> <PUBCHEM_COORDINATE_TYPE>
1
3

$$$$
