310934159
  -OEChem-07211613022D

 49 55  0     1  0  0  0  0  0999 V2000
    7.2308   -0.5823    0.0000 Cl  0  0  0  0  0  0  0  0  0  0  0  0
    6.5514   -2.0867    0.0000 F   0  0  0  0  0  0  0  0  0  0  0  0
    2.6206   -3.2029    0.0000 O   0  0  0  0  0  0  0  0  0  0  0  0
    1.7955   -9.3661    0.0000 O   0  0  0  0  0  0  0  0  0  0  0  0
    4.7558   -3.5912    0.0000 O   0  0  0  0  0  0  0  0  0  0  0  0
    8.2984   -2.3779    0.0000 O   0  0  0  0  0  0  0  0  0  0  0  0
    8.9779   -3.5912    0.0000 O   0  0  0  0  0  0  0  0  0  0  0  0
    3.3485   -4.4161    0.0000 N   0  0  0  0  0  0  0  0  0  0  0  0
    2.6206   -7.2308    0.0000 N   0  0  0  0  0  0  0  0  0  0  0  0
    0.3883   -8.9779    0.0000 N   0  0  0  0  0  0  0  0  0  0  0  0
    4.9499   -2.2323    0.0000 N   0  0  0  0  0  0  0  0  0  0  0  0
    4.9499   -3.6882    0.0000 N   0  0  0  0  0  0  0  0  0  0  0  0
    5.4838   -4.8529    0.0000 N   0  0  0  0  0  0  0  0  0  0  0  0
    5.3382   -2.9117    0.0000 N   0  0  0  0  0  0  0  0  0  0  0  0
    4.0764   -5.6294    0.0000 C   0  0  0  0  0  0  0  0  0  0  0  0
    4.0764   -4.8529    0.0000 C   0  0  3  0  0  0  0  0  0  0  0  0
    3.3485   -6.0661    0.0000 C   0  0  0  0  0  0  0  0  0  0  0  0
    3.3485   -6.8426    0.0000 C   0  0  0  0  0  0  0  0  0  0  0  0
    1.1647   -8.0558    0.0000 C   0  0  0  0  0  0  0  0  0  0  0  0
    3.3485   -3.5912    0.0000 C   0  0  0  0  0  0  0  0  0  0  0  0
    2.6206   -5.6294    0.0000 C   0  0  0  0  0  0  0  0  0  0  0  0
    1.2132   -8.8323    0.0000 C   0  0  0  0  0  0  0  0  0  0  0  0
    4.7558   -4.4161    0.0000 C   0  0  0  0  0  0  0  0  0  0  0  0
    2.6206   -4.8044    0.0000 C   0  0  0  0  0  0  0  0  0  0  0  0
    4.7558   -6.0661    0.0000 C   0  0  0  0  0  0  0  0  0  0  0  0
    4.0764   -3.2029    0.0000 C   0  0  0  0  0  0  0  0  0  0  0  0
    1.2132   -7.2308    0.0000 C   0  0  0  0  0  0  0  0  0  0  0  0
    1.8926   -8.4926    0.0000 C   0  0  0  0  0  0  0  0  0  0  0  0
    4.0279   -7.2793    0.0000 C   0  0  0  0  0  0  0  0  0  0  0  0
    1.9411   -6.8426    0.0000 C   0  0  0  0  0  0  0  0  0  0  0  0
    2.6206   -8.0558    0.0000 C   0  0  0  0  0  0  0  0  0  0  0  0
    0.5338   -7.6191    0.0000 C   0  0  0  0  0  0  0  0  0  0  0  0
    4.7558   -6.8911    0.0000 C   0  0  0  0  0  0  0  0  0  0  0  0
    4.1249   -2.3779    0.0000 C   0  0  0  0  0  0  0  0  0  0  0  0
    0.0000   -8.2499    0.0000 C   0  0  0  0  0  0  0  0  0  0  0  0
    5.2897   -1.5044    0.0000 C   0  0  0  0  0  0  0  0  0  0  0  0
    6.0661   -1.4074    0.0000 C   0  0  0  0  0  0  0  0  0  0  0  0
    6.1632   -4.4161    0.0000 C   0  0  0  0  0  0  0  0  0  0  0  0
    0.0000   -9.7058    0.0000 C   0  0  0  0  0  0  0  0  0  0  0  0
    4.8044   -0.8250    0.0000 C   0  0  0  0  0  0  0  0  0  0  0  0
    6.4058   -0.6794    0.0000 C   0  0  0  0  0  0  0  0  0  0  0  0
    6.1632   -3.5912    0.0000 C   0  0  0  0  0  0  0  0  0  0  0  0
    6.8911   -4.8529    0.0000 C   0  0  0  0  0  0  0  0  0  0  0  0
    5.1441   -0.0971    0.0000 C   0  0  0  0  0  0  0  0  0  0  0  0
    5.9690    0.0000    0.0000 C   0  0  0  0  0  0  0  0  0  0  0  0
    7.5705   -3.5912    0.0000 C   0  0  0  0  0  0  0  0  0  0  0  0
    6.8911   -3.2029    0.0000 C   0  0  0  0  0  0  0  0  0  0  0  0
    7.5705   -4.4161    0.0000 C   0  0  0  0  0  0  0  0  0  0  0  0
    8.2984   -3.2029    0.0000 C   0  0  0  0  0  0  0  0  0  0  0  0
  1 41  1  0  0  0  0
  2 37  1  0  0  0  0
  3 20  2  0  0  0  0
  4 22  2  0  0  0  0
  5 23  2  0  0  0  0
  6 49  2  0  0  0  0
  7 49  1  0  0  0  0
  8 16  1  0  0  0  0
  8 20  1  0  0  0  0
  8 24  1  0  0  0  0
  9 18  1  0  0  0  0
  9 30  1  0  0  0  0
  9 31  1  0  0  0  0
 10 22  1  0  0  0  0
 10 35  1  0  0  0  0
 10 39  1  0  0  0  0
 11 14  1  0  0  0  0
 11 34  1  0  0  0  0
 11 36  1  0  0  0  0
 12 14  2  0  0  0  0
 12 26  1  0  0  0  0
 13 23  1  0  0  0  0
 13 38  1  0  0  0  0
 15 16  1  0  0  0  0
 15 17  2  0  0  0  0
 15 25  1  0  0  0  0
 16 23  1  0  0  0  0
 17 18  1  0  0  0  0
 17 21  1  0  0  0  0
 18 29  2  0  0  0  0
 19 22  1  0  0  0  0
 19 27  1  0  0  0  0
 19 28  1  0  0  0  0
 19 32  1  0  0  0  0
 20 26  1  0  0  0  0
 21 24  1  0  0  0  0
 25 33  2  0  0  0  0
 26 34  2  0  0  0  0
 27 30  1  0  0  0  0
 28 31  1  0  0  0  0
 29 33  1  0  0  0  0
 32 35  1  0  0  0  0
 36 37  1  0  0  0  0
 36 40  2  0  0  0  0
 37 41  2  0  0  0  0
 38 42  2  0  0  0  0
 38 43  1  0  0  0  0
 40 44  1  0  0  0  0
 41 45  1  0  0  0  0
 42 47  1  0  0  0  0
 43 48  2  0  0  0  0
 44 45  2  0  0  0  0
 46 47  2  0  0  0  0
 46 48  1  0  0  0  0
 46 49  1  0  0  0  0
M  END
> <PUBCHEM_COMPOUND_ID_TYPE>
0

> <PUBCHEM_TOTAL_CHARGE>
0

> <PUBCHEM_SUBSTANCE_ID>
310934159

> <PUBCHEM_SUBSTANCE_VERSION>
1

> <PUBCHEM_EXT_DATASOURCE_NAME>
4488

> <PUBCHEM_EXT_DATASOURCE_REGID>
SCHEMBL16111610

> <PUBCHEM_SUBSTANCE_COMMENT>
InChI=1S/C35H33ClFN7O5/c1-41-17-13-35(34(41)49)14-18-42(19-15-35)27-6-2-4-24-23(27)12-16-43(30(24)31(45)38-22-10-8-21(9-11-22)33(47)48)32(46)26-20-44(40-39-26)28-7-3-5-25(36)29(28)37/h2-11,20,30H,12-19H2,1H3,(H,38,45)(H,47,48)
InChIKey=LDBRXJJCOCLPDO-UHFFFAOYSA-N

> <PUBCHEM_SUBSTANCE_SYNONYM>
SCHEMBL16111610

> <PUBCHEM_XREF_EXT_ID>
SCHEMBL16111610

> <PUBCHEM_EXT_DATASOURCE_URL>
https://www.surechembl.org/

> <PUBCHEM_EXT_SUBSTANCE_URL>
https://www.surechembl.org/chemical/SCHEMBL16111610

> <PUBCHEM_CID_ASSOCIATIONS>
117602434  1

> <PUBCHEM_COORDINATE_TYPE>
1
3

$$$$
