310929952
  -OEChem-07211613022D

 68 76  0     1  0  0  0  0  0999 V2000
    5.4590   -0.9099    0.0000 S   0  0  0  0  0  0  0  0  0  0  0  0
    3.7000  -11.4032    0.0000 S   0  0  0  0  0  0  0  0  0  0  0  0
    5.0343   -2.5475    0.0000 O   0  0  0  0  0  0  0  0  0  0  0  0
    5.7015   -1.7590    0.0000 O   0  0  0  0  0  0  0  0  0  0  0  0
    5.2164   -0.1213    0.0000 O   0  0  0  0  0  0  0  0  0  0  0  0
    4.9737   -3.2147    0.0000 O   0  0  0  0  0  0  0  0  0  0  0  0
    6.1262   -5.5196    0.0000 O   0  0  0  0  0  0  0  0  0  0  0  0
    2.1836   -4.0033    0.0000 O   0  0  0  0  0  0  0  0  0  0  0  0
    7.1573   -8.4311    0.0000 O   0  0  0  0  0  0  0  0  0  0  0  0
    1.6377   -7.5819    0.0000 O   0  0  0  0  0  0  0  0  0  0  0  0
    0.7278   -6.7327    0.0000 O   0  0  0  0  0  0  0  0  0  0  0  0
    3.2753  -10.7360    0.0000 O   0  0  0  0  0  0  0  0  0  0  0  0
    4.1246  -12.1310    0.0000 O   0  0  0  0  0  0  0  0  0  0  0  0
    3.5787   -3.0328    0.0000 N   0  0  0  0  0  0  0  0  0  0  0  0
    4.6705   -1.1525    0.0000 N   0  0  0  0  0  0  0  0  0  0  0  0
    3.3967   -4.3065    0.0000 N   0  0  0  0  0  0  0  0  0  0  0  0
    7.1573   -5.9442    0.0000 N   0  0  0  0  0  0  0  0  0  0  0  0
    1.6377   -5.9442    0.0000 N   0  0  0  0  0  0  0  0  0  0  0  0
    5.0950   -9.7048    0.0000 N   0  0  0  0  0  0  0  0  0  0  0  0
    3.6393   -2.2443    0.0000 C   0  0  3  0  0  0  0  0  0  0  0  0
    2.9721   -1.8197    0.0000 C   0  0  3  0  0  0  0  0  0  0  0  0
    3.6393   -1.3950    0.0000 C   0  0  0  0  0  0  0  0  0  0  0  0
    4.4278   -2.0016    0.0000 C   0  0  0  0  0  0  0  0  0  0  0  0
    6.2474   -0.7278    0.0000 C   0  0  0  0  0  0  0  0  0  0  0  0
    4.2459   -3.5180    0.0000 C   0  0  0  0  0  0  0  0  0  0  0  0
    2.1230   -1.8803    0.0000 C   0  0  0  0  0  0  0  0  0  0  0  0
    6.7934   -0.1213    0.0000 C   0  0  0  0  0  0  0  0  0  0  0  0
    7.0360   -0.9099    0.0000 C   0  0  0  0  0  0  0  0  0  0  0  0
    4.1246   -4.3065    0.0000 C   0  0  3  0  0  0  0  0  0  0  0  0
    5.7623    0.0000    0.0000 C   0  0  0  0  0  0  0  0  0  0  0  0
    4.9737   -4.4884    0.0000 C   0  0  0  0  0  0  0  0  0  0  0  0
    5.6409   -4.9131    0.0000 C   0  0  3  0  0  0  0  0  0  0  0  0
    4.6705   -3.9426    0.0000 C   0  0  0  0  0  0  0  0  0  0  0  0
    2.6688   -4.7311    0.0000 C   0  0  0  0  0  0  0  0  0  0  0  0
    1.7590   -2.6081    0.0000 C   0  0  0  0  0  0  0  0  0  0  0  0
    6.3688   -6.3688    0.0000 C   0  0  0  0  0  0  0  0  0  0  0  0
    2.0016   -5.2770    0.0000 C   0  0  3  0  0  0  0  0  0  0  0  0
    6.3688   -7.1573    0.0000 C   0  0  0  0  0  0  0  0  0  0  0  0
    7.1573   -7.5819    0.0000 C   0  0  0  0  0  0  0  0  0  0  0  0
    7.8245   -7.1573    0.0000 C   0  0  0  0  0  0  0  0  0  0  0  0
    7.8245   -6.3688    0.0000 C   0  0  0  0  0  0  0  0  0  0  0  0
    1.3950   -4.7311    0.0000 C   0  0  0  0  0  0  0  0  0  0  0  0
    6.1262   -7.9458    0.0000 C   0  0  0  0  0  0  0  0  0  0  0  0
    8.5524   -7.5819    0.0000 C   0  0  0  0  0  0  0  0  0  0  0  0
    8.5524   -5.9442    0.0000 C   0  0  0  0  0  0  0  0  0  0  0  0
    1.5164   -6.7327    0.0000 C   0  0  0  0  0  0  0  0  0  0  0  0
    0.6066   -4.9737    0.0000 C   0  0  0  0  0  0  0  0  0  0  0  0
    1.5164   -3.9426    0.0000 C   0  0  0  0  0  0  0  0  0  0  0  0
    6.4295   -8.8557    0.0000 C   0  0  0  0  0  0  0  0  0  0  0  0
    2.0016   -8.2491    0.0000 C   0  0  3  0  0  0  0  0  0  0  0  0
    2.6688   -8.7950    0.0000 C   0  0  3  0  0  0  0  0  0  0  0  0
    9.2802   -7.1573    0.0000 C   0  0  0  0  0  0  0  0  0  0  0  0
    9.2802   -6.3688    0.0000 C   0  0  0  0  0  0  0  0  0  0  0  0
    5.6409   -8.6130    0.0000 C   0  0  0  0  0  0  0  0  0  0  0  0
    1.8197   -9.0983    0.0000 C   0  0  0  0  0  0  0  0  0  0  0  0
    0.0000   -4.4884    0.0000 C   0  0  0  0  0  0  0  0  0  0  0  0
    0.9099   -3.3967    0.0000 C   0  0  0  0  0  0  0  0  0  0  0  0
    5.7015   -8.4311    0.0000 C   0  0  0  0  0  0  0  0  0  0  0  0
    6.4901   -9.7048    0.0000 C   0  0  0  0  0  0  0  0  0  0  0  0
    3.3967   -9.1589    0.0000 C   0  0  0  0  0  0  0  0  0  0  0  0
    0.0606   -3.7000    0.0000 C   0  0  0  0  0  0  0  0  0  0  0  0
    4.9737   -8.9770    0.0000 C   0  0  0  0  0  0  0  0  0  0  0  0
    4.1246   -9.1589    0.0000 C   0  0  0  0  0  0  0  0  0  0  0  0
    5.0343   -8.9163    0.0000 C   0  0  0  0  0  0  0  0  0  0  0  0
    5.7623  -10.1294    0.0000 C   0  0  0  0  0  0  0  0  0  0  0  0
    4.3672  -10.1294    0.0000 C   0  0  0  0  0  0  0  0  0  0  0  0
    4.4278  -10.9786    0.0000 C   0  0  0  0  0  0  0  0  0  0  0  0
    3.0328  -11.8278    0.0000 C   0  0  0  0  0  0  0  0  0  0  0  0
  1  4  2  0  0  0  0
  1  5  2  0  0  0  0
  1 15  1  0  0  0  0
  1 24  1  0  0  0  0
  2 12  2  0  0  0  0
  2 13  2  0  0  0  0
  2 67  1  0  0  0  0
  2 68  1  0  0  0  0
  3 23  2  0  0  0  0
  6 25  2  0  0  0  0
  7 32  1  0  0  0  0
  7 36  1  0  0  0  0
  8 34  2  0  0  0  0
  9 39  1  0  0  0  0
  9 49  1  0  0  0  0
 10 46  1  0  0  0  0
 10 50  1  0  0  0  0
 11 46  2  0  0  0  0
 20 14  1  1  0  0  0
 14 25  1  0  0  0  0
 15 23  1  0  0  0  0
 16 29  1  0  0  0  0
 16 33  1  0  0  0  0
 16 34  1  0  0  0  0
 17 36  1  0  0  0  0
 17 41  2  0  0  0  0
 18 37  1  0  0  0  0
 18 46  1  0  0  0  0
 19 64  1  0  0  0  0
 19 65  1  0  0  0  0
 19 66  1  0  0  0  0
 20 21  1  0  0  0  0
 20 22  1  0  0  0  0
 20 23  1  6  0  0  0
 21 22  1  0  0  0  0
 21 26  1  6  0  0  0
 24 27  1  0  0  0  0
 24 28  1  0  0  0  0
 24 30  1  0  0  0  0
 29 25  1  6  0  0  0
 26 35  2  0  0  0  0
 27 28  1  0  0  0  0
 29 31  1  0  0  0  0
 32 31  1  1  0  0  0
 32 33  1  0  0  0  0
 37 34  1  1  0  0  0
 36 38  2  0  0  0  0
 37 42  1  0  0  0  0
 38 39  1  0  0  0  0
 38 43  1  0  0  0  0
 39 40  2  0  0  0  0
 40 41  1  0  0  0  0
 40 44  1  0  0  0  0
 41 45  1  0  0  0  0
 42 47  1  0  0  0  0
 42 48  1  0  0  0  0
 43 54  1  0  0  0  0
 44 52  2  0  0  0  0
 45 53  2  0  0  0  0
 47 56  1  0  0  0  0
 48 57  1  0  0  0  0
 49 58  1  0  0  0  0
 49 59  1  0  0  0  0
 50 51  1  0  0  0  0
 50 55  1  1  0  0  0
 51 55  1  6  0  0  0
 51 60  1  0  0  0  0
 52 53  1  0  0  0  0
 54 62  1  0  0  0  0
 56 61  1  0  0  0  0
 57 61  1  0  0  0  0
 58 64  1  0  0  0  0
 59 65  1  0  0  0  0
 60 63  1  0  0  0  0
 62 63  1  0  0  0  0
 66 67  1  0  0  0  0
M  END
> <PUBCHEM_COMPOUND_ID_TYPE>
0

> <PUBCHEM_TOTAL_CHARGE>
0

> <PUBCHEM_SUBSTANCE_ID>
310929952

> <PUBCHEM_SUBSTANCE_VERSION>
1

> <PUBCHEM_EXT_DATASOURCE_NAME>
4488

> <PUBCHEM_EXT_DATASOURCE_REGID>
SCHEMBL16107178

> <PUBCHEM_SUBSTANCE_COMMENT>
InChI=1S/C49H68N6O11S2/c1-4-33-29-49(33,46(58)53-68(62,63)48(2)21-22-48)52-43(56)39-28-35-30-55(39)45(57)41(31-13-7-5-8-14-31)51-47(59)66-40-27-32(40)15-9-6-10-17-37-42(36-16-11-12-18-38(36)50-44(37)65-35)64-34-19-23-54(24-20-34)25-26-67(3,60)61/h4,11-12,16,18,31-35,39-41H,1,5-10,13-15,17,19-30H2,2-3H3,(H,51,59)(H,52,56)(H,53,58)/t32-,33-,35-,39+,40-,41+,49-/m1/s1
InChIKey=HNPVDMKKTBSQIX-PRCZGDHOSA-N

> <PUBCHEM_SUBSTANCE_SYNONYM>
SCHEMBL16107178

> <PUBCHEM_XREF_EXT_ID>
SCHEMBL16107178

> <PUBCHEM_EXT_DATASOURCE_URL>
https://www.surechembl.org/

> <PUBCHEM_EXT_SUBSTANCE_URL>
https://www.surechembl.org/chemical/SCHEMBL16107178

> <PUBCHEM_CID_ASSOCIATIONS>
76317949  1

> <PUBCHEM_COORDINATE_TYPE>
1
3

> <PUBCHEM_BONDANNOTATIONS>
20  14  5
20  23  6
21  26  6
29  25  6
32  31  5
37  34  5
50  55  5
51  55  6

$$$$
