310948112
  -OEChem-07211613022D

 42 46  0     0  0  0  0  0  0999 V2000
    2.9359   -1.6320    0.0000 S   0  0  0  0  0  0  0  0  0  0  0  0
   -4.6538    1.1594    0.0000 F   0  0  0  0  0  0  0  0  0  0  0  0
   -3.7233    1.5426    0.0000 F   0  0  0  0  0  0  0  0  0  0  0  0
    3.3373    3.4035    0.0000 F   0  0  0  0  0  0  0  0  0  0  0  0
    2.2244    3.0933    0.0000 F   0  0  0  0  0  0  0  0  0  0  0  0
    3.5927    2.2906    0.0000 F   0  0  0  0  0  0  0  0  0  0  0  0
   -1.9901    1.4513    0.0000 O   0  0  0  0  0  0  0  0  0  0  0  0
    2.5162    1.9986    0.0000 O   0  0  0  0  0  0  0  0  0  0  0  0
    2.9359   -1.6320    0.0000 O   0  0  0  0  0  0  0  0  0  0  0  0
    2.9359   -1.6320    0.0000 O   0  0  0  0  0  0  0  0  0  0  0  0
   -2.0083   -0.1906    0.0000 N   0  0  0  0  0  0  0  0  0  0  0  0
   -1.3333    2.6190    0.0000 N   0  0  0  0  0  0  0  0  0  0  0  0
   -2.5009    0.5026    0.0000 N   0  0  0  0  0  0  0  0  0  0  0  0
   -0.7677    0.5573    0.0000 C   0  0  0  0  0  0  0  0  0  0  0  0
   -1.1873    1.2871    0.0000 C   0  0  0  0  0  0  0  0  0  0  0  0
   -1.1691   -0.1906    0.0000 C   0  0  0  0  0  0  0  0  0  0  0  0
   -0.7860    2.0169    0.0000 C   0  0  0  0  0  0  0  0  0  0  0  0
    0.0533    0.5209    0.0000 C   0  0  0  0  0  0  0  0  0  0  0  0
    0.4547   -0.1724    0.0000 C   0  0  0  0  0  0  0  0  0  0  0  0
    0.0533    1.9986    0.0000 C   0  0  0  0  0  0  0  0  0  0  0  0
   -0.7677   -0.8839    0.0000 C   0  0  0  0  0  0  0  0  0  0  0  0
   -2.0631    2.2723    0.0000 C   0  0  0  0  0  0  0  0  0  0  0  0
    1.2939   -0.1724    0.0000 C   0  0  0  0  0  0  0  0  0  0  0  0
   -3.2489    0.2472    0.0000 C   0  0  0  0  0  0  0  0  0  0  0  0
    0.0533   -0.8839    0.0000 C   0  0  0  0  0  0  0  0  0  0  0  0
   -2.4827   -0.8474    0.0000 C   0  0  0  0  0  0  0  0  0  0  0  0
   -3.9422    0.7581    0.0000 C   0  0  0  0  0  0  0  0  0  0  0  0
   -3.2672   -0.5921    0.0000 C   0  0  0  0  0  0  0  0  0  0  0  0
    0.4912    1.2871    0.0000 C   0  0  0  0  0  0  0  0  0  0  0  0
    0.4729    2.7102    0.0000 C   0  0  0  0  0  0  0  0  0  0  0  0
    1.6953   -0.8839    0.0000 C   0  0  0  0  0  0  0  0  0  0  0  0
    2.5162   -0.9022    0.0000 C   0  0  0  0  0  0  0  0  0  0  0  0
    1.6953    0.5209    0.0000 C   0  0  0  0  0  0  0  0  0  0  0  0
    1.6953    1.9986    0.0000 C   0  0  0  0  0  0  0  0  0  0  0  0
    1.2939    1.2871    0.0000 C   0  0  0  0  0  0  0  0  0  0  0  0
    1.2939    2.7284    0.0000 C   0  0  0  0  0  0  0  0  0  0  0  0
   -2.7928    2.6920    0.0000 C   0  0  0  0  0  0  0  0  0  0  0  0
    2.9176   -0.1542    0.0000 C   0  0  0  0  0  0  0  0  0  0  0  0
    2.5345    0.5391    0.0000 C   0  0  0  0  0  0  0  0  0  0  0  0
   -4.5260    0.1560    0.0000 C   0  0  0  0  0  0  0  0  0  0  0  0
    2.9359    2.6920    0.0000 C   0  0  0  0  0  0  0  0  0  0  0  0
    4.6538   -3.4035    0.0000 C   0  0  0  0  0  0  0  0  0  0  0  0
  1  9  2  0  0  0  0
  1 10  2  0  0  0  0
  1 32  1  0  0  0  0
  1 42  1  0  0  0  0
  2 27  1  0  0  0  0
  3 27  1  0  0  0  0
  4 41  1  0  0  0  0
  5 41  1  0  0  0  0
  6 41  1  0  0  0  0
  7 15  1  0  0  0  0
  7 22  1  0  0  0  0
  8 34  1  0  0  0  0
  8 41  1  0  0  0  0
 11 13  1  0  0  0  0
 11 16  1  0  0  0  0
 11 26  1  0  0  0  0
 12 17  1  0  0  0  0
 12 22  2  0  0  0  0
 13 24  2  0  0  0  0
 14 15  1  0  0  0  0
 14 16  1  0  0  0  0
 14 18  2  0  0  0  0
 15 17  2  0  0  0  0
 16 21  2  0  0  0  0
 17 20  1  0  0  0  0
 18 19  1  0  0  0  0
 19 23  1  0  0  0  0
 19 25  2  0  0  0  0
 20 29  2  0  0  0  0
 20 30  1  0  0  0  0
 21 25  1  0  0  0  0
 22 37  1  0  0  0  0
 23 31  2  0  0  0  0
 23 33  1  0  0  0  0
 24 27  1  0  0  0  0
 24 28  1  0  0  0  0
 26 28  2  0  0  0  0
 27 40  1  0  0  0  0
 29 35  1  0  0  0  0
 30 36  2  0  0  0  0
 31 32  1  0  0  0  0
 32 38  2  0  0  0  0
 33 39  2  0  0  0  0
 34 35  2  0  0  0  0
 34 36  1  0  0  0  0
 38 39  1  0  0  0  0
M  END
> <PUBCHEM_COMPOUND_ID_TYPE>
0

> <PUBCHEM_TOTAL_CHARGE>
0

> <PUBCHEM_SUBSTANCE_ID>
310948112

> <PUBCHEM_SUBSTANCE_VERSION>
1

> <PUBCHEM_EXT_DATASOURCE_NAME>
4488

> <PUBCHEM_EXT_DATASOURCE_REGID>
SCHEMBL16126288

> <PUBCHEM_SUBSTANCE_COMMENT>
InChI=1S/C29H22F5N3O4S/c1-17-35-26(18-7-10-21(11-8-18)41-29(32,33)34)27(40-17)23-16-20(19-5-4-6-22(15-19)42(3,38)39)9-12-24(23)37-14-13-25(36-37)28(2,30)31/h4-16H,1-3H3
InChIKey=RLQGQRCKKVAQIG-UHFFFAOYSA-N

> <PUBCHEM_SUBSTANCE_SYNONYM>
SCHEMBL16126288

> <PUBCHEM_XREF_EXT_ID>
SCHEMBL16126288

> <PUBCHEM_EXT_DATASOURCE_URL>
https://www.surechembl.org/

> <PUBCHEM_EXT_SUBSTANCE_URL>
https://www.surechembl.org/chemical/SCHEMBL16126288

> <PUBCHEM_CID_ASSOCIATIONS>
117613729  1

> <PUBCHEM_COORDINATE_TYPE>
1
3

$$$$
