310949846
  -OEChem-07211613022D

 28 29  0     0  0  0  0  0  0999 V2000
   -2.5905    1.2392    0.0000 O   0  0  0  0  0  0  0  0  0  0  0  0
    1.7311    0.4172    0.0000 O   0  0  0  0  0  0  0  0  0  0  0  0
   -4.7450    1.6626    0.0000 O   0  0  0  0  0  0  0  0  0  0  0  0
    3.8856    2.4846    0.0000 O   0  0  0  0  0  0  0  0  0  0  0  0
    4.7450    1.2392    0.0000 O   0  0  0  0  0  0  0  0  0  0  0  0
   -3.2879    0.0062    0.0000 N   0  0  0  0  0  0  0  0  0  0  0  0
    1.0212    1.6626    0.0000 N   0  0  0  0  0  0  0  0  0  0  0  0
    3.1882    1.2516    0.0000 N   0  0  0  0  0  0  0  0  0  0  0  0
    4.7450    1.2392    0.0000 N   0  0  0  0  0  0  0  0  0  0  0  0
   -2.5780    0.4047    0.0000 C   0  0  0  0  0  0  0  0  0  0  0  0
   -3.3003   -0.8282    0.0000 C   0  0  0  0  0  0  0  0  0  0  0  0
   -1.1334    0.4172    0.0000 C   0  0  0  0  0  0  0  0  0  0  0  0
   -1.8432    0.0062    0.0000 C   0  0  0  0  0  0  0  0  0  0  0  0
    0.2989    1.2516    0.0000 C   0  0  0  0  0  0  0  0  0  0  0  0
   -1.1209    1.2516    0.0000 C   0  0  0  0  0  0  0  0  0  0  0  0
   -0.4110    0.0062    0.0000 C   0  0  0  0  0  0  0  0  0  0  0  0
   -4.0102    0.4172    0.0000 C   0  0  0  0  0  0  0  0  0  0  0  0
   -0.4235    1.6501    0.0000 C   0  0  0  0  0  0  0  0  0  0  0  0
    0.2989    0.4172    0.0000 C   0  0  0  0  0  0  0  0  0  0  0  0
   -3.9978   -1.2392    0.0000 C   0  0  0  0  0  0  0  0  0  0  0  0
   -2.5780   -1.2392    0.0000 C   0  0  0  0  0  0  0  0  0  0  0  0
    1.7436    1.2641    0.0000 C   0  0  0  0  0  0  0  0  0  0  0  0
   -3.9978   -2.0736    0.0000 C   0  0  0  0  0  0  0  0  0  0  0  0
   -2.5780   -2.0736    0.0000 C   0  0  0  0  0  0  0  0  0  0  0  0
   -3.2879   -2.4846    0.0000 C   0  0  0  0  0  0  0  0  0  0  0  0
   -4.0102    1.2392    0.0000 C   0  0  0  0  0  0  0  0  0  0  0  0
    2.4535    1.6626    0.0000 C   0  0  0  0  0  0  0  0  0  0  0  0
    3.8856    1.6501    0.0000 C   0  0  0  0  0  0  0  0  0  0  0  0
  1 10  2  0  0  0  0
  2 22  2  0  0  0  0
  3 26  1  0  0  0  0
  4 28  2  0  0  0  0
  5  9  1  0  0  0  0
  6 10  1  0  0  0  0
  6 11  1  0  0  0  0
  6 17  1  0  0  0  0
  7 14  1  0  0  0  0
  7 22  1  0  0  0  0
  8 27  1  0  0  0  0
  8 28  1  0  0  0  0
  9 28  1  0  0  0  0
 10 13  1  0  0  0  0
 11 20  2  0  0  0  0
 11 21  1  0  0  0  0
 12 13  1  0  0  0  0
 12 15  2  0  0  0  0
 12 16  1  0  0  0  0
 14 18  2  0  0  0  0
 14 19  1  0  0  0  0
 15 18  1  0  0  0  0
 16 19  2  0  0  0  0
 17 26  1  0  0  0  0
 20 23  1  0  0  0  0
 21 24  2  0  0  0  0
 22 27  1  0  0  0  0
 23 25  2  0  0  0  0
 24 25  1  0  0  0  0
M  END
> <PUBCHEM_COMPOUND_ID_TYPE>
0

> <PUBCHEM_TOTAL_CHARGE>
0

> <PUBCHEM_SUBSTANCE_ID>
310949846

> <PUBCHEM_SUBSTANCE_VERSION>
1

> <PUBCHEM_EXT_DATASOURCE_NAME>
4488

> <PUBCHEM_EXT_DATASOURCE_REGID>
SCHEMBL16128050

> <PUBCHEM_SUBSTANCE_COMMENT>
InChI=1S/C19H22N4O5/c24-11-10-23(16-4-2-1-3-5-16)18(26)12-14-6-8-15(9-7-14)21-17(25)13-20-19(27)22-28/h1-9,24,28H,10-13H2,(H,21,25)(H2,20,22,27)
InChIKey=YLBMMSAGJYYBFK-UHFFFAOYSA-N

> <PUBCHEM_SUBSTANCE_SYNONYM>
SCHEMBL16128050

> <PUBCHEM_XREF_EXT_ID>
SCHEMBL16128050

> <PUBCHEM_EXT_DATASOURCE_URL>
https://www.surechembl.org/

> <PUBCHEM_EXT_SUBSTANCE_URL>
https://www.surechembl.org/chemical/SCHEMBL16128050

> <PUBCHEM_CID_ASSOCIATIONS>
71523296  1

> <PUBCHEM_COORDINATE_TYPE>
1
3

$$$$
