310944234
  -OEChem-07211613022D

 16 16  0     0  0  0  0  0  0999 V2000
    0.0129    1.6493    0.0000 F   0  0  0  0  0  0  0  0  0  0  0  0
   -0.0258   -1.6493    0.0000 N   0  0  0  0  0  0  0  0  0  0  0  0
    2.1776    1.1854    0.0000 N   0  0  0  0  0  0  0  0  0  0  0  0
   -0.7344   -0.3994    0.0000 C   0  0  0  0  0  0  0  0  0  0  0  0
   -0.0129   -0.7989    0.0000 C   0  0  0  0  0  0  0  0  0  0  0  0
    0.7087   -0.3994    0.0000 C   0  0  0  0  0  0  0  0  0  0  0  0
    0.7344    0.4252    0.0000 C   0  0  0  0  0  0  0  0  0  0  0  0
   -1.4431   -0.7989    0.0000 C   0  0  0  0  0  0  0  0  0  0  0  0
   -0.0129    0.8247    0.0000 C   0  0  0  0  0  0  0  0  0  0  0  0
   -0.7087    0.4252    0.0000 C   0  0  0  0  0  0  0  0  0  0  0  0
   -0.0258   -1.6493    0.0000 C   0  0  0  0  0  0  0  0  0  0  0  0
    1.4431    0.8117    0.0000 C   0  0  0  0  0  0  0  0  0  0  0  0
    1.4431   -0.8375    0.0000 C   0  0  0  0  0  0  0  0  0  0  0  0
   -1.4431    0.0129    0.0000 C   0  0  0  0  0  0  0  0  0  0  0  0
   -2.1776   -0.3994    0.0000 C   0  0  0  0  0  0  0  0  0  0  0  0
   -1.4431   -1.6364    0.0000 C   0  0  0  0  0  0  0  0  0  0  0  0
  1  9  1  0  0  0  0
  2 11  2  3  0  0  0
  3 12  3  0  0  0  0
  4  5  1  0  0  0  0
  4  8  1  0  0  0  0
  4 10  2  0  0  0  0
  5  6  2  0  0  0  0
  5 11  1  0  0  0  0
  6  7  1  0  0  0  0
  6 13  1  0  0  0  0
  7  9  2  0  0  0  0
  7 12  1  0  0  0  0
  8 14  1  0  0  0  0
  8 15  1  0  0  0  0
  8 16  1  0  0  0  0
  9 10  1  0  0  0  0
M  END
> <PUBCHEM_COMPOUND_ID_TYPE>
0

> <PUBCHEM_TOTAL_CHARGE>
0

> <PUBCHEM_SUBSTANCE_ID>
310944234

> <PUBCHEM_SUBSTANCE_VERSION>
1

> <PUBCHEM_EXT_DATASOURCE_NAME>
4488

> <PUBCHEM_EXT_DATASOURCE_REGID>
SCHEMBL16122309

> <PUBCHEM_SUBSTANCE_COMMENT>
InChI=1S/C13H15FN2/c1-8-9(6-15)11(13(2,3)4)5-12(14)10(8)7-16/h5-6,15H,1-4H3
InChIKey=LRFQBLSNUHBSPD-UHFFFAOYSA-N

> <PUBCHEM_SUBSTANCE_SYNONYM>
SCHEMBL16122309

> <PUBCHEM_XREF_EXT_ID>
SCHEMBL16122309

> <PUBCHEM_EXT_DATASOURCE_URL>
https://www.surechembl.org/

> <PUBCHEM_EXT_SUBSTANCE_URL>
https://www.surechembl.org/chemical/SCHEMBL16122309

> <PUBCHEM_CID_ASSOCIATIONS>
117610505  1

> <PUBCHEM_COORDINATE_TYPE>
1
3

$$$$
