310948170
  -OEChem-07211613022D

 48 53  0     0  0  0  0  0  0999 V2000
    3.2999   -2.1565    0.0000 S   0  0  0  0  0  0  0  0  0  0  0  0
    2.6850    3.9273    0.0000 F   0  0  0  0  0  0  0  0  0  0  0  0
    3.4292    3.1182    0.0000 F   0  0  0  0  0  0  0  0  0  0  0  0
    3.3160    0.6912    0.0000 F   0  0  0  0  0  0  0  0  0  0  0  0
   -1.6675    0.7883    0.0000 O   0  0  0  0  0  0  0  0  0  0  0  0
    1.7789    3.2800    0.0000 O   0  0  0  0  0  0  0  0  0  0  0  0
    2.6688    2.2931    0.0000 O   0  0  0  0  0  0  0  0  0  0  0  0
    3.2999   -2.1565    0.0000 O   0  0  0  0  0  0  0  0  0  0  0  0
    3.2999   -2.1565    0.0000 O   0  0  0  0  0  0  0  0  0  0  0  0
   -4.3858   -1.0240    0.0000 O   0  0  0  0  0  0  0  0  0  0  0  0
    4.5296   -0.0208    0.0000 O   0  0  0  0  0  0  0  0  0  0  0  0
   -2.1367   -1.3961    0.0000 N   0  0  0  0  0  0  0  0  0  0  0  0
   -1.1012    2.0018    0.0000 N   0  0  0  0  0  0  0  0  0  0  0  0
   -2.9296   -1.1372    0.0000 N   0  0  0  0  0  0  0  0  0  0  0  0
   -5.0169    0.2381    0.0000 N   0  0  0  0  0  0  0  0  0  0  0  0
   -0.4217    0.0116    0.0000 C   0  0  0  0  0  0  0  0  0  0  0  0
   -0.8261    0.7074    0.0000 C   0  0  0  0  0  0  0  0  0  0  0  0
   -0.8261   -0.7165    0.0000 C   0  0  0  0  0  0  0  0  0  0  0  0
   -0.4702    1.4678    0.0000 C   0  0  0  0  0  0  0  0  0  0  0  0
   -1.6514   -0.7003    0.0000 C   0  0  0  0  0  0  0  0  0  0  0  0
    0.3227    1.6296    0.0000 C   0  0  0  0  0  0  0  0  0  0  0  0
    0.8242   -0.7003    0.0000 C   0  0  0  0  0  0  0  0  0  0  0  0
    0.4197   -0.0045    0.0000 C   0  0  0  0  0  0  0  0  0  0  0  0
   -2.9296   -0.2797    0.0000 C   0  0  0  0  0  0  0  0  0  0  0  0
    1.3906    2.5681    0.0000 C   0  0  0  0  0  0  0  0  0  0  0  0
    1.6494   -0.7165    0.0000 C   0  0  0  0  0  0  0  0  0  0  0  0
   -2.1206   -0.0531    0.0000 C   0  0  0  0  0  0  0  0  0  0  0  0
   -0.4055   -1.4123    0.0000 C   0  0  0  0  0  0  0  0  0  0  0  0
    1.9407    2.0018    0.0000 C   0  0  0  0  0  0  0  0  0  0  0  0
   -1.8293    1.5973    0.0000 C   0  0  0  0  0  0  0  0  0  0  0  0
    0.5815    2.4063    0.0000 C   0  0  0  0  0  0  0  0  0  0  0  0
   -3.6091    0.1896    0.0000 C   0  0  0  0  0  0  0  0  0  0  0  0
    0.4197   -1.4123    0.0000 C   0  0  0  0  0  0  0  0  0  0  0  0
    2.6041    3.1344    0.0000 C   0  0  0  0  0  0  0  0  0  0  0  0
    2.8953   -1.4285    0.0000 C   0  0  0  0  0  0  0  0  0  0  0  0
    0.8566    1.0309    0.0000 C   0  0  0  0  0  0  0  0  0  0  0  0
    2.0702   -1.4123    0.0000 C   0  0  0  0  0  0  0  0  0  0  0  0
    3.2999   -0.7165    0.0000 C   0  0  0  0  0  0  0  0  0  0  0  0
    1.6818    1.2089    0.0000 C   0  0  0  0  0  0  0  0  0  0  0  0
    2.0702   -0.0208    0.0000 C   0  0  0  0  0  0  0  0  0  0  0  0
    2.8791   -0.0045    0.0000 C   0  0  0  0  0  0  0  0  0  0  0  0
   -4.3049   -0.1988    0.0000 C   0  0  0  0  0  0  0  0  0  0  0  0
   -1.8617   -2.1728    0.0000 C   0  0  0  0  0  0  0  0  0  0  0  0
   -2.5736    1.9209    0.0000 C   0  0  0  0  0  0  0  0  0  0  0  0
   -4.0946    0.8368    0.0000 C   0  0  0  0  0  0  0  0  0  0  0  0
   -2.9943    0.7397    0.0000 C   0  0  0  0  0  0  0  0  0  0  0  0
    4.1412   -0.7165    0.0000 C   0  0  0  0  0  0  0  0  0  0  0  0
    5.0169   -3.9273    0.0000 C   0  0  0  0  0  0  0  0  0  0  0  0
  1  8  2  0  0  0  0
  1  9  2  0  0  0  0
  1 35  1  0  0  0  0
  1 48  1  0  0  0  0
  2 34  1  0  0  0  0
  3 34  1  0  0  0  0
  4 41  1  0  0  0  0
  5 17  1  0  0  0  0
  5 30  1  0  0  0  0
  6 25  1  0  0  0  0
  6 34  1  0  0  0  0
  7 29  1  0  0  0  0
  7 34  1  0  0  0  0
 10 42  2  0  0  0  0
 11 47  1  0  0  0  0
 12 14  1  0  0  0  0
 12 20  1  0  0  0  0
 12 43  1  0  0  0  0
 13 19  1  0  0  0  0
 13 30  2  0  0  0  0
 14 24  2  0  0  0  0
 15 42  1  0  0  0  0
 16 17  1  0  0  0  0
 16 18  1  0  0  0  0
 16 23  2  0  0  0  0
 17 19  2  0  0  0  0
 18 20  1  0  0  0  0
 18 28  2  0  0  0  0
 19 21  1  0  0  0  0
 20 27  2  0  0  0  0
 21 31  1  0  0  0  0
 21 36  2  0  0  0  0
 22 23  1  0  0  0  0
 22 26  1  0  0  0  0
 22 33  2  0  0  0  0
 24 27  1  0  0  0  0
 24 32  1  0  0  0  0
 25 29  1  0  0  0  0
 25 31  2  0  0  0  0
 26 37  1  0  0  0  0
 26 40  2  0  0  0  0
 28 33  1  0  0  0  0
 29 39  2  0  0  0  0
 30 44  1  0  0  0  0
 32 42  1  0  0  0  0
 32 45  1  0  0  0  0
 32 46  1  0  0  0  0
 35 37  2  0  0  0  0
 35 38  1  0  0  0  0
 36 39  1  0  0  0  0
 38 41  2  0  0  0  0
 38 47  1  0  0  0  0
 40 41  1  0  0  0  0
M  END
> <PUBCHEM_COMPOUND_ID_TYPE>
0

> <PUBCHEM_TOTAL_CHARGE>
0

> <PUBCHEM_SUBSTANCE_ID>
310948170

> <PUBCHEM_SUBSTANCE_VERSION>
1

> <PUBCHEM_EXT_DATASOURCE_NAME>
4488

> <PUBCHEM_EXT_DATASOURCE_REGID>
SCHEMBL16126347

> <PUBCHEM_SUBSTANCE_COMMENT>
InChI=1S/C33H29F3N4O7S/c1-16-38-29(18-7-9-25-26(12-18)47-33(35,36)46-25)30(45-16)21-10-17(19-11-23(34)22(15-41)27(13-19)48(5,43)44)6-8-20(21)24-14-28(39-40(24)4)32(2,3)31(37)42/h6-14,41H,15H2,1-5H3,(H2,37,42)
InChIKey=SXBHHDNDQNOYMJ-UHFFFAOYSA-N

> <PUBCHEM_SUBSTANCE_SYNONYM>
SCHEMBL16126347

> <PUBCHEM_XREF_EXT_ID>
SCHEMBL16126347

> <PUBCHEM_EXT_DATASOURCE_URL>
https://www.surechembl.org/

> <PUBCHEM_EXT_SUBSTANCE_URL>
https://www.surechembl.org/chemical/SCHEMBL16126347

> <PUBCHEM_CID_ASSOCIATIONS>
86275903  1

> <PUBCHEM_COORDINATE_TYPE>
1
3

$$$$
