310934595
  -OEChem-07211613022D

 32 34  0     1  0  0  0  0  0999 V2000
    2.9713   -4.8813    0.0000 O   0  0  0  0  0  0  0  0  0  0  0  0
    0.7782   -2.0162    0.0000 O   0  0  0  0  0  0  0  0  0  0  0  0
    2.8651    0.0000    0.0000 O   0  0  0  0  0  0  0  0  0  0  0  0
    3.5372   -1.1673    0.0000 O   0  0  0  0  0  0  0  0  0  0  0  0
    1.5210   -3.2188    0.0000 N   0  0  0  0  0  0  0  0  0  0  0  0
    1.5210   -4.8813    0.0000 N   0  0  0  0  0  0  0  0  0  0  0  0
    2.1930   -1.9808    0.0000 N   0  0  0  0  0  0  0  0  0  0  0  0
    2.3699   -6.9329    0.0000 N   0  0  0  0  0  0  0  0  0  0  0  0
    3.5726   -6.3669    0.0000 N   0  0  0  0  0  0  0  0  0  0  0  0
    2.2284   -3.6433    0.0000 C   0  0  3  0  0  0  0  0  0  0  0  0
    2.2284   -4.4569    0.0000 C   0  0  0  0  0  0  0  0  0  0  0  0
    1.4856   -2.4053    0.0000 C   0  0  0  0  0  0  0  0  0  0  0  0
    0.8136   -3.6433    0.0000 C   0  0  0  0  0  0  0  0  0  0  0  0
    0.8136   -4.4922    0.0000 C   0  0  0  0  0  0  0  0  0  0  0  0
    2.9359   -3.2188    0.0000 C   0  0  0  0  0  0  0  0  0  0  0  0
    1.5563   -5.6949    0.0000 C   0  0  0  0  0  0  0  0  0  0  0  0
    2.2992   -6.1194    0.0000 C   0  0  0  0  0  0  0  0  0  0  0  0
    2.9359   -2.3699    0.0000 C   0  0  0  0  0  0  0  0  0  0  0  0
    3.0066   -5.7657    0.0000 C   0  0  0  0  0  0  0  0  0  0  0  0
    2.1930   -1.1673    0.0000 C   0  0  3  0  0  0  0  0  0  0  0  0
    3.6080   -1.9455    0.0000 C   0  0  0  0  0  0  0  0  0  0  0  0
    2.3699   -2.1577    0.0000 C   0  0  0  0  0  0  0  0  0  0  0  0
    3.1835   -7.0744    0.0000 C   0  0  0  0  0  0  0  0  0  0  0  0
    2.8651   -0.7782    0.0000 C   0  0  0  0  0  0  0  0  0  0  0  0
    1.4856   -0.8136    0.0000 C   0  0  0  0  0  0  0  0  0  0  0  0
    3.1835   -4.9521    0.0000 C   0  0  0  0  0  0  0  0  0  0  0  0
    3.7848   -1.3088    0.0000 C   0  0  0  0  0  0  0  0  0  0  0  0
    2.3699   -1.3088    0.0000 C   0  0  0  0  0  0  0  0  0  0  0  0
    0.7428   -1.2734    0.0000 C   0  0  0  0  0  0  0  0  0  0  0  0
    3.0420   -0.8843    0.0000 C   0  0  0  0  0  0  0  0  0  0  0  0
    0.0000   -0.7074    0.0000 C   0  0  0  0  0  0  0  0  0  0  0  0
    0.8843   -2.2638    0.0000 C   0  0  0  0  0  0  0  0  0  0  0  0
  1 11  2  0  0  0  0
  2 12  2  0  0  0  0
  3 24  2  0  0  0  0
  4 24  1  0  0  0  0
  5 10  1  0  0  0  0
  5 12  1  0  0  0  0
  5 13  1  0  0  0  0
  6 11  1  0  0  0  0
  6 14  1  0  0  0  0
  6 16  1  0  0  0  0
  7 12  1  0  0  0  0
 20  7  1  1  0  0  0
  8 17  1  0  0  0  0
  8 23  1  0  0  0  0
  9 19  1  0  0  0  0
  9 23  2  0  0  0  0
 10 11  1  0  0  0  0
 10 15  1  1  0  0  0
 13 14  1  0  0  0  0
 15 18  1  0  0  0  0
 16 17  1  0  0  0  0
 17 19  2  0  0  0  0
 18 21  2  0  0  0  0
 18 22  1  0  0  0  0
 19 26  1  0  0  0  0
 20 24  1  0  0  0  0
 20 25  1  0  0  0  0
 21 27  1  0  0  0  0
 22 28  2  0  0  0  0
 25 29  1  0  0  0  0
 27 30  2  0  0  0  0
 28 30  1  0  0  0  0
 29 31  1  0  0  0  0
 29 32  1  0  0  0  0
M  END
> <PUBCHEM_COMPOUND_ID_TYPE>
0

> <PUBCHEM_TOTAL_CHARGE>
0

> <PUBCHEM_SUBSTANCE_ID>
310934595

> <PUBCHEM_SUBSTANCE_VERSION>
1

> <PUBCHEM_EXT_DATASOURCE_NAME>
4488

> <PUBCHEM_EXT_DATASOURCE_REGID>
SCHEMBL16112087

> <PUBCHEM_SUBSTANCE_COMMENT>
InChI=1S/C23H31N5O4/c1-15(2)11-18(22(30)31)26-23(32)28-10-9-27(13-19-16(3)24-14-25-19)21(29)20(28)12-17-7-5-4-6-8-17/h4-8,14-15,18,20H,9-13H2,1-3H3,(H,24,25)(H,26,32)(H,30,31)/t18-,20-/m0/s1
InChIKey=COLCNDRDBCLVOC-ICSRJNTNSA-N

> <PUBCHEM_SUBSTANCE_SYNONYM>
SCHEMBL16112087

> <PUBCHEM_XREF_EXT_ID>
SCHEMBL16112087

> <PUBCHEM_EXT_DATASOURCE_URL>
https://www.surechembl.org/

> <PUBCHEM_EXT_SUBSTANCE_URL>
https://www.surechembl.org/chemical/SCHEMBL16112087

> <PUBCHEM_CID_ASSOCIATIONS>
11539477  1

> <PUBCHEM_COORDINATE_TYPE>
1
3

> <PUBCHEM_BONDANNOTATIONS>
10  15  5
20  7  5

$$$$
