310949989
  -OEChem-07211613022D

 29 28  0     1  0  0  0  0  0999 V2000
   -0.7197   -2.7440    0.0000 O   0  0  0  0  0  0  0  0  0  0  0  0
    2.6990    0.4949    0.0000 O   0  0  0  0  0  0  0  0  0  0  0  0
    1.3945    2.7440    0.0000 O   0  0  0  0  0  0  0  0  0  0  0  0
    1.0121   -1.0121    0.0000 N   0  0  0  0  0  0  0  0  0  0  0  0
   -0.2474   -1.0121    0.0000 N   0  0  0  0  0  0  0  0  0  0  0  0
    0.1350    0.4949    0.0000 N   0  0  0  0  0  0  0  0  0  0  0  0
   -2.9688    0.6972    0.0000 N   0  0  0  0  0  0  0  0  0  0  0  0
   -3.3287    2.1817    0.0000 N   0  0  0  0  0  0  0  0  0  0  0  0
   -4.3634    1.1695    0.0000 N   0  0  0  0  0  0  0  0  0  0  0  0
   -1.0796   -1.2595    0.0000 C   0  0  3  0  0  0  0  0  0  0  0  0
   -1.3045   -2.1141    0.0000 C   0  0  0  0  0  0  0  0  0  0  0  0
    2.6090   -0.9446    0.0000 C   0  0  3  0  0  0  0  0  0  0  0  0
   -1.7318   -0.5847    0.0000 C   0  0  0  0  0  0  0  0  0  0  0  0
    2.9014   -0.3824    0.0000 C   0  0  0  0  0  0  0  0  0  0  0  0
    2.7890   -1.5294    0.0000 C   0  0  0  0  0  0  0  0  0  0  0  0
    1.4170    1.2371    0.0000 C   0  0  0  0  0  0  0  0  0  0  0  0
   -1.4170    0.2474    0.0000 C   0  0  0  0  0  0  0  0  0  0  0  0
    3.2838   -0.1575    0.0000 C   0  0  0  0  0  0  0  0  0  0  0  0
   -2.1141    0.9221    0.0000 C   0  0  0  0  0  0  0  0  0  0  0  0
    3.1263   -1.7993    0.0000 C   0  0  0  0  0  0  0  0  0  0  0  0
    3.6886   -0.1575    0.0000 C   0  0  0  0  0  0  0  0  0  0  0  0
    3.4862    0.9221    0.0000 C   0  0  0  0  0  0  0  0  0  0  0  0
   -3.5536    1.3270    0.0000 C   0  0  0  0  0  0  0  0  0  0  0  0
    3.5761   -1.8892    0.0000 C   0  0  0  0  0  0  0  0  0  0  0  0
    4.0709   -0.3824    0.0000 C   0  0  0  0  0  0  0  0  0  0  0  0
    4.2733    0.4724    0.0000 C   0  0  0  0  0  0  0  0  0  0  0  0
    4.0484   -1.6644    0.0000 C   0  0  0  0  0  0  0  0  0  0  0  0
    4.3634   -0.9671    0.0000 C   0  0  0  0  0  0  0  0  0  0  0  0
    3.9135   -1.7543    0.0000 C   0  0  0  0  0  0  0  0  0  0  0  0
  1 11  2  0  0  0  0
  2 16  1  0  0  0  0
  2 22  1  0  0  0  0
  3 16  2  0  0  0  0
  4 11  1  0  0  0  0
  4 12  1  0  0  0  0
  5  6  1  0  0  0  0
 10  5  1  6  0  0  0
  6 16  1  0  0  0  0
  7 19  1  0  0  0  0
  7 23  1  0  0  0  0
  8 23  1  0  0  0  0
  9 23  1  0  0  0  0
 10 11  1  0  0  0  0
 10 13  1  0  0  0  0
 12 14  1  0  0  0  0
 12 15  1  0  0  0  0
 13 17  1  0  0  0  0
 14 18  1  0  0  0  0
 15 20  1  0  0  0  0
 17 19  1  0  0  0  0
 18 21  1  0  0  0  0
 20 24  1  0  0  0  0
 21 25  1  0  0  0  0
 22 26  1  0  0  0  0
 24 27  1  0  0  0  0
 25 28  1  0  0  0  0
 28 29  1  0  0  0  0
M  END
> <PUBCHEM_COMPOUND_ID_TYPE>
0

> <PUBCHEM_TOTAL_CHARGE>
0

> <PUBCHEM_SUBSTANCE_ID>
310949989

> <PUBCHEM_SUBSTANCE_VERSION>
1

> <PUBCHEM_EXT_DATASOURCE_NAME>
4488

> <PUBCHEM_EXT_DATASOURCE_REGID>
SCHEMBL16128218

> <PUBCHEM_SUBSTANCE_COMMENT>
InChI=1S/C20H44N6O3/c1-4-7-9-10-13-16(12-8-5-2)24-18(27)17(14-11-15-23-19(21)22)25-26-20(28)29-6-3/h16-17,19,23,25H,4-15,21-22H2,1-3H3,(H,24,27)(H,26,28)/t16?,17-/m0/s1
InChIKey=HUVJYQIFFPQLTE-DJNXLDHESA-N

> <PUBCHEM_SUBSTANCE_SYNONYM>
SCHEMBL16128218

> <PUBCHEM_XREF_EXT_ID>
SCHEMBL16128218

> <PUBCHEM_EXT_DATASOURCE_URL>
https://www.surechembl.org/

> <PUBCHEM_EXT_SUBSTANCE_URL>
https://www.surechembl.org/chemical/SCHEMBL16128218

> <PUBCHEM_CID_ASSOCIATIONS>
117615229  1

> <PUBCHEM_COORDINATE_TYPE>
1
3

> <PUBCHEM_BONDANNOTATIONS>
10  5  6

$$$$
