310948881
  -OEChem-07211613022D

 78 82  0     1  0  0  0  0  0999 V2000
    2.6268   -4.5923    0.0000 S   0  0  0  0  0  0  0  0  0  0  0  0
    7.6756    4.5550    0.0000 S   0  0  0  0  0  0  0  0  0  0  0  0
   -1.7512   -0.6428    0.0000 S   0  0  0  0  0  0  0  0  0  0  0  0
    7.3030   -1.0712    0.0000 S   0  0  0  0  0  0  0  0  0  0  0  0
    3.4093   -4.8904    0.0000 O   0  0  0  0  0  0  0  0  0  0  0  0
    2.3660   -5.3561    0.0000 O   0  0  0  0  0  0  0  0  0  0  0  0
    1.8816   -4.3315    0.0000 O   0  0  0  0  0  0  0  0  0  0  0  0
    7.5824    5.3561    0.0000 O   0  0  0  0  0  0  0  0  0  0  0  0
    7.7873    3.7540    0.0000 O   0  0  0  0  0  0  0  0  0  0  0  0
    8.4766    4.6668    0.0000 O   0  0  0  0  0  0  0  0  0  0  0  0
   -6.3342    4.2570    0.0000 O   0  0  0  0  0  0  0  0  0  0  0  0
   -2.0307   -1.4065    0.0000 O   0  0  0  0  0  0  0  0  0  0  0  0
   -1.4718    0.0838    0.0000 O   0  0  0  0  0  0  0  0  0  0  0  0
   -2.4964   -0.3819    0.0000 O   0  0  0  0  0  0  0  0  0  0  0  0
   -6.3342    1.7605    0.0000 O   0  0  0  0  0  0  0  0  0  0  0  0
    6.9303   -0.3819    0.0000 O   0  0  0  0  0  0  0  0  0  0  0  0
    7.6942   -1.7791    0.0000 O   0  0  0  0  0  0  0  0  0  0  0  0
    8.0109   -0.6800    0.0000 O   0  0  0  0  0  0  0  0  0  0  0  0
   -4.8438    4.2011    0.0000 O   0  0  0  0  0  0  0  0  0  0  0  0
   -4.8997    2.5989    0.0000 O   0  0  0  0  0  0  0  0  0  0  0  0
   -7.7687    2.5989    0.0000 O   0  0  0  0  0  0  0  0  0  0  0  0
   -8.4766    3.8285    0.0000 O   0  0  0  0  0  0  0  0  0  0  0  0
   -6.3342    1.7605    0.0000 O   0  0  0  0  0  0  0  0  0  0  0  0
    0.1863    2.9342    0.0000 O   0  0  0  0  0  0  0  0  0  0  0  0
   -2.6828    3.7726    0.0000 O   0  0  0  0  0  0  0  0  0  0  0  0
    3.5956   -1.4625    0.0000 N   0  3  0  0  0  0  0  0  0  0  0  0
    4.4712    3.7540    0.0000 N   0  0  0  0  0  0  0  0  0  0  0  0
   -0.5403    4.1824    0.0000 N   0  0  0  0  0  0  0  0  0  0  0  0
   -6.3342    1.7605    0.0000 N   0  0  0  0  0  0  0  0  0  0  0  0
    2.3660   -1.6301    0.0000 C   0  0  3  0  0  0  0  0  0  0  0  0
    2.7386   -2.3753    0.0000 C   0  0  0  0  0  0  0  0  0  0  0  0
    2.9621   -1.0526    0.0000 C   0  0  0  0  0  0  0  0  0  0  0  0
    3.5583   -2.2635    0.0000 C   0  0  0  0  0  0  0  0  0  0  0  0
    5.3468    2.7666    0.0000 C   0  0  0  0  0  0  0  0  0  0  0  0
    5.7753    3.4931    0.0000 C   0  0  0  0  0  0  0  0  0  0  0  0
    4.5271    2.9715    0.0000 C   0  0  0  0  0  0  0  0  0  0  0  0
    5.2350    4.1079    0.0000 C   0  0  0  0  0  0  0  0  0  0  0  0
    2.4406   -3.1578    0.0000 C   0  0  0  0  0  0  0  0  0  0  0  0
    1.7140   -1.1085    0.0000 C   0  0  0  0  0  0  0  0  0  0  0  0
    2.9435   -3.7912    0.0000 C   0  0  0  0  0  0  0  0  0  0  0  0
    4.0613   -2.9156    0.0000 C   0  0  0  0  0  0  0  0  0  0  0  0
    2.8690   -0.2329    0.0000 C   0  0  0  0  0  0  0  0  0  0  0  0
    1.5836   -1.9469    0.0000 C   0  0  0  0  0  0  0  0  0  0  0  0
    6.5950    3.6608    0.0000 C   0  0  0  0  0  0  0  0  0  0  0  0
    4.3966   -1.0526    0.0000 C   0  0  0  0  0  0  0  0  0  0  0  0
    3.7633   -3.6608    0.0000 C   0  0  0  0  0  0  0  0  0  0  0  0
    6.8559    4.4433    0.0000 C   0  0  0  0  0  0  0  0  0  0  0  0
    5.5145    4.8904    0.0000 C   0  0  0  0  0  0  0  0  0  0  0  0
    3.9309    2.4312    0.0000 C   0  0  0  0  0  0  0  0  0  0  0  0
    3.7447    4.2011    0.0000 C   0  0  0  0  0  0  0  0  0  0  0  0
    6.0175    2.2635    0.0000 C   0  0  0  0  0  0  0  0  0  0  0  0
    5.2536    1.9469    0.0000 C   0  0  0  0  0  0  0  0  0  0  0  0
    6.3155    5.0394    0.0000 C   0  0  0  0  0  0  0  0  0  0  0  0
    0.9501   -1.3693    0.0000 C   0  0  0  0  0  0  0  0  0  0  0  0
    3.4838    0.2515    0.0000 C   0  0  0  0  0  0  0  0  0  0  0  0
    5.1605   -1.4625    0.0000 C   0  0  0  0  0  0  0  0  0  0  0  0
    4.0427    1.6115    0.0000 C   0  0  0  0  0  0  0  0  0  0  0  0
    3.3907    1.0712    0.0000 C   0  0  0  0  0  0  0  0  0  0  0  0
    3.0553    3.7912    0.0000 C   0  0  0  0  0  0  0  0  0  0  0  0
    0.2981   -0.8663    0.0000 C   0  0  0  0  0  0  0  0  0  0  0  0
    5.8312   -1.0526    0.0000 C   0  0  0  0  0  0  0  0  0  0  0  0
    2.3101    4.2011    0.0000 C   0  0  0  0  0  0  0  0  0  0  0  0
   -0.4285   -1.1457    0.0000 C   0  0  0  0  0  0  0  0  0  0  0  0
    6.5950   -1.4625    0.0000 C   0  0  0  0  0  0  0  0  0  0  0  0
    1.6208    3.7912    0.0000 C   0  0  0  0  0  0  0  0  0  0  0  0
   -6.3155    2.6175    0.0000 C   0  0  3  0  0  0  0  0  0  0  0  0
   -5.6076    3.0274    0.0000 C   0  0  3  0  0  0  0  0  0  0  0  0
   -7.0421    3.0274    0.0000 C   0  0  3  0  0  0  0  0  0  0  0  0
   -5.6076    3.8471    0.0000 C   0  0  3  0  0  0  0  0  0  0  0  0
   -7.0421    3.8657    0.0000 C   0  0  3  0  0  0  0  0  0  0  0  0
    0.8756    4.2011    0.0000 C   0  0  0  0  0  0  0  0  0  0  0  0
   -7.7687    4.2570    0.0000 C   0  0  0  0  0  0  0  0  0  0  0  0
    0.1863    3.8285    0.0000 C   0  0  0  0  0  0  0  0  0  0  0  0
   -6.3342    1.7605    0.0000 C   0  0  0  0  0  0  0  0  0  0  0  0
   -4.1173    3.7912    0.0000 C   0  0  0  0  0  0  0  0  0  0  0  0
   -3.4279    4.2011    0.0000 C   0  0  0  0  0  0  0  0  0  0  0  0
   -1.2482    3.7912    0.0000 C   0  0  0  0  0  0  0  0  0  0  0  0
   -1.9934    4.2011    0.0000 C   0  0  0  0  0  0  0  0  0  0  0  0
  1  5  2  0  0  0  0
  1  6  2  0  0  0  0
  1  7  1  0  0  0  0
  1 40  1  0  0  0  0
  2  8  2  0  0  0  0
  2  9  2  0  0  0  0
  2 10  1  0  0  0  0
  2 47  1  0  0  0  0
  3 12  2  0  0  0  0
  3 13  2  0  0  0  0
  3 14  1  0  0  0  0
  3 63  1  0  0  0  0
  4 16  2  0  0  0  0
  4 17  2  0  0  0  0
  4 18  1  0  0  0  0
  4 64  1  0  0  0  0
 11 69  1  0  0  0  0
 11 70  1  0  0  0  0
 66 15  1  1  0  0  0
 15 74  1  0  0  0  0
 69 19  1  6  0  0  0
 19 75  1  0  0  0  0
 67 20  1  1  0  0  0
 68 21  1  6  0  0  0
 22 72  1  0  0  0  0
 23 74  2  0  0  0  0
 24 73  2  0  0  0  0
 25 76  1  0  0  0  0
 25 78  1  0  0  0  0
 26 32  2  0  0  0  0
 26 33  1  0  0  0  0
 26 45  1  0  0  0  0
 27 36  1  0  0  0  0
 27 37  1  0  0  0  0
 27 50  1  0  0  0  0
 28 73  1  0  0  0  0
 28 77  1  0  0  0  0
 29 74  1  0  0  0  0
 30 31  1  0  0  0  0
 30 32  1  0  0  0  0
 30 39  1  0  0  0  0
 30 43  1  0  0  0  0
 31 33  1  0  0  0  0
 31 38  2  0  0  0  0
 32 42  1  0  0  0  0
 33 41  2  0  0  0  0
 34 35  1  0  0  0  0
 34 36  1  0  0  0  0
 34 51  1  0  0  0  0
 34 52  1  0  0  0  0
 35 37  2  0  0  0  0
 35 44  1  0  0  0  0
 36 49  2  0  0  0  0
 37 48  1  0  0  0  0
 38 40  1  0  0  0  0
 39 54  1  0  0  0  0
 40 46  2  0  0  0  0
 41 46  1  0  0  0  0
 42 55  2  0  0  0  0
 44 47  2  0  0  0  0
 45 56  1  0  0  0  0
 47 53  1  0  0  0  0
 48 53  2  0  0  0  0
 49 57  1  0  0  0  0
 50 59  1  0  0  0  0
 54 60  1  0  0  0  0
 55 58  1  0  0  0  0
 56 61  1  0  0  0  0
 57 58  2  0  0  0  0
 59 62  1  0  0  0  0
 60 63  1  0  0  0  0
 61 64  1  0  0  0  0
 62 65  1  0  0  0  0
 65 71  1  0  0  0  0
 66 67  1  0  0  0  0
 66 68  1  0  0  0  0
 67 69  1  0  0  0  0
 68 70  1  0  0  0  0
 70 72  1  1  0  0  0
 71 73  1  0  0  0  0
 75 76  1  0  0  0  0
 77 78  1  0  0  0  0
M  CHG  1  26   1
M  END
> <PUBCHEM_COMPOUND_ID_TYPE>
0

> <PUBCHEM_TOTAL_CHARGE>
1

> <PUBCHEM_SUBSTANCE_ID>
310948881

> <PUBCHEM_SUBSTANCE_VERSION>
1

> <PUBCHEM_EXT_DATASOURCE_NAME>
4488

> <PUBCHEM_EXT_DATASOURCE_REGID>
SCHEMBL16127066

> <PUBCHEM_SUBSTANCE_COMMENT>
InChI=1S/C49H70N4O21S4/c1-48(2)35-30-33(77(65,66)67)17-19-37(35)52(23-10-5-8-16-42(55)51-22-25-71-26-27-72-46-44(57)45(74-47(50)58)43(56)39(32-54)73-46)40(48)14-6-4-7-15-41-49(3,21-9-12-28-75(59,60)61)36-31-34(78(68,69)70)18-20-38(36)53(41)24-11-13-29-76(62,63)64/h4,6-7,14-15,17-20,30-31,39,43-46,54,56-57H,5,8-13,16,21-29,32H2,1-3H3,(H6-,50,51,55,58,59,60,61,62,63,64,65,66,67,68,69,70)/p+1/t39-,43-,44+,45+,46+,49?/m1/s1
InChIKey=IPDFVMGWVNEHJA-NPIDHFGPSA-O

> <PUBCHEM_SUBSTANCE_SYNONYM>
SCHEMBL16127066

> <PUBCHEM_XREF_EXT_ID>
SCHEMBL16127066

> <PUBCHEM_EXT_DATASOURCE_URL>
https://www.surechembl.org/

> <PUBCHEM_EXT_SUBSTANCE_URL>
https://www.surechembl.org/chemical/SCHEMBL16127066

> <PUBCHEM_CID_ASSOCIATIONS>
117614411  1

> <PUBCHEM_COORDINATE_TYPE>
1
3

> <PUBCHEM_BONDANNOTATIONS>
66  15  5
69  19  6
67  20  5
68  21  6
70  72  5

$$$$
