310934492
  -OEChem-07211613022D

 18 19  0     0  0  0  0  0  0999 V2000
    0.0000   -0.9102    0.0000 F   0  0  0  0  0  0  0  0  0  0  0  0
    4.2666   -1.2942    0.0000 O   0  0  0  0  0  0  0  0  0  0  0  0
    3.6693    0.0000    0.0000 O   0  0  0  0  0  0  0  0  0  0  0  0
    2.8444   -1.1662    0.0000 C   0  0  0  0  0  0  0  0  0  0  0  0
    2.0906   -1.5076    0.0000 C   0  0  0  0  0  0  0  0  0  0  0  0
    1.4222   -1.0382    0.0000 C   0  0  0  0  0  0  0  0  0  0  0  0
    3.5982   -0.8107    0.0000 C   0  0  0  0  0  0  0  0  0  0  0  0
    2.8444   -1.9911    0.0000 C   0  0  0  0  0  0  0  0  0  0  0  0
    2.2186   -0.6400    0.0000 C   0  0  0  0  0  0  0  0  0  0  0  0
    2.0195   -2.3466    0.0000 C   0  0  0  0  0  0  0  0  0  0  0  0
    0.6827   -1.3795    0.0000 C   0  0  0  0  0  0  0  0  0  0  0  0
    1.2657   -2.6879    0.0000 C   0  0  0  0  0  0  0  0  0  0  0  0
    0.5973   -2.2044    0.0000 C   0  0  0  0  0  0  0  0  0  0  0  0
    2.2186   -2.4888    0.0000 C   0  0  0  0  0  0  0  0  0  0  0  0
    1.4222   -0.7964    0.0000 C   0  0  0  0  0  0  0  0  0  0  0  0
    1.4933   -0.2133    0.0000 C   0  0  0  0  0  0  0  0  0  0  0  0
    1.4222   -2.3324    0.0000 C   0  0  0  0  0  0  0  0  0  0  0  0
    1.0524   -1.5644    0.0000 C   0  0  0  0  0  0  0  0  0  0  0  0
  1 11  1  0  0  0  0
  2  7  2  0  0  0  0
  3  7  1  0  0  0  0
  4  5  1  0  0  0  0
  4  7  1  0  0  0  0
  4  8  1  0  0  0  0
  4  9  1  0  0  0  0
  5  6  1  0  0  0  0
  5 10  2  0  0  0  0
  6 11  2  0  0  0  0
  6 16  1  0  0  0  0
  8 14  1  0  0  0  0
  9 15  1  0  0  0  0
 10 12  1  0  0  0  0
 11 13  1  0  0  0  0
 12 13  2  0  0  0  0
 14 17  1  0  0  0  0
 15 18  1  0  0  0  0
 17 18  1  0  0  0  0
M  END
> <PUBCHEM_COMPOUND_ID_TYPE>
0

> <PUBCHEM_TOTAL_CHARGE>
0

> <PUBCHEM_SUBSTANCE_ID>
310934492

> <PUBCHEM_SUBSTANCE_VERSION>
1

> <PUBCHEM_EXT_DATASOURCE_NAME>
4488

> <PUBCHEM_EXT_DATASOURCE_REGID>
SCHEMBL16111974

> <PUBCHEM_SUBSTANCE_COMMENT>
InChI=1S/C15H19FO2/c1-11-12(7-6-8-13(11)16)15(14(17)18)9-4-2-3-5-10-15/h6-8H,2-5,9-10H2,1H3,(H,17,18)
InChIKey=XZNQNVZXKWBHNK-UHFFFAOYSA-N

> <PUBCHEM_SUBSTANCE_SYNONYM>
SCHEMBL16111974

> <PUBCHEM_XREF_EXT_ID>
SCHEMBL16111974

> <PUBCHEM_EXT_DATASOURCE_URL>
https://www.surechembl.org/

> <PUBCHEM_EXT_SUBSTANCE_URL>
https://www.surechembl.org/chemical/SCHEMBL16111974

> <PUBCHEM_CID_ASSOCIATIONS>
117602693  1

> <PUBCHEM_COORDINATE_TYPE>
1
3

$$$$
