310932617
  -OEChem-07211613022D

 14 16  0     1  0  0  0  0  0999 V2000
    0.4210    0.0000    0.0000 O   0  0  0  0  0  0  0  0  0  0  0  0
    1.5322   -1.9699    0.0000 O   0  0  0  0  0  0  0  0  0  0  0  0
    2.2562   -0.7240    0.0000 O   0  0  0  0  0  0  0  0  0  0  0  0
    0.8250   -0.7240    0.0000 C   0  0  3  0  0  0  0  0  0  0  0  0
    0.0000   -0.7240    0.0000 C   0  0  3  0  0  0  0  0  0  0  0  0
    1.5322   -1.1281    0.0000 C   0  0  0  0  0  0  0  0  0  0  0  0
    0.6230   -0.6061    0.0000 C   0  0  0  0  0  0  0  0  0  0  0  0
    0.2020   -0.6061    0.0000 C   0  0  0  0  0  0  0  0  0  0  0  0
    0.4210   -0.7240    0.0000 C   0  0  0  0  0  0  0  0  0  0  0  0
    2.2562   -2.3740    0.0000 C   0  0  0  0  0  0  0  0  0  0  0  0
    3.0139   -2.0373    0.0000 C   0  0  0  0  0  0  0  0  0  0  0  0
    2.3404   -3.1991    0.0000 C   0  0  0  0  0  0  0  0  0  0  0  0
    3.5695   -2.6434    0.0000 C   0  0  0  0  0  0  0  0  0  0  0  0
    3.1485   -3.3675    0.0000 C   0  0  0  0  0  0  0  0  0  0  0  0
  1  4  1  0  0  0  0
  1  5  1  0  0  0  0
  2  6  1  0  0  0  0
  2 10  1  0  0  0  0
  3  6  2  0  0  0  0
  4  5  1  0  0  0  0
  4  6  1  0  0  0  0
  4  7  1  0  0  0  0
  5  8  1  0  0  0  0
  7  9  1  0  0  0  0
  8  9  1  0  0  0  0
 10 11  1  0  0  0  0
 10 12  1  0  0  0  0
 11 13  1  0  0  0  0
 12 14  1  0  0  0  0
 13 14  1  0  0  0  0
M  END
> <PUBCHEM_COMPOUND_ID_TYPE>
0

> <PUBCHEM_TOTAL_CHARGE>
0

> <PUBCHEM_SUBSTANCE_ID>
310932617

> <PUBCHEM_SUBSTANCE_VERSION>
1

> <PUBCHEM_EXT_DATASOURCE_NAME>
4488

> <PUBCHEM_EXT_DATASOURCE_REGID>
SCHEMBL16109995

> <PUBCHEM_SUBSTANCE_COMMENT>
InChI=1S/C11H16O3/c12-10(13-8-4-1-2-5-8)11-7-3-6-9(11)14-11/h8-9H,1-7H2
InChIKey=DJHMGYWHSWCHNN-UHFFFAOYSA-N

> <PUBCHEM_SUBSTANCE_SYNONYM>
SCHEMBL16109995

> <PUBCHEM_XREF_EXT_ID>
SCHEMBL16109995

> <PUBCHEM_EXT_DATASOURCE_URL>
https://www.surechembl.org/

> <PUBCHEM_EXT_SUBSTANCE_URL>
https://www.surechembl.org/chemical/SCHEMBL16109995

> <PUBCHEM_CID_ASSOCIATIONS>
117601138  1

> <PUBCHEM_COORDINATE_TYPE>
1
3

$$$$
