310949987
  -OEChem-07211613022D

 18 17  0     1  0  0  0  0  0999 V2000
    2.1385    0.3493    0.0000 O   0  0  0  0  0  0  0  0  0  0  0  0
   -0.0855   -2.2027    0.0000 O   0  0  0  0  0  0  0  0  0  0  0  0
    1.3259    1.7749    0.0000 O   0  0  0  0  0  0  0  0  0  0  0  0
    0.2994   -0.6059    0.0000 N   0  0  0  0  0  0  0  0  0  0  0  0
    0.5132    0.3493    0.0000 N   0  0  0  0  0  0  0  0  0  0  0  0
   -2.2668    0.8625    0.0000 N   0  0  0  0  0  0  0  0  0  0  0  0
   -2.6375    2.2027    0.0000 N   0  0  0  0  0  0  0  0  0  0  0  0
   -3.5357    1.2332    0.0000 N   0  0  0  0  0  0  0  0  0  0  0  0
   -0.4705   -0.8483    0.0000 C   0  0  3  0  0  0  0  0  0  0  0  0
   -0.6415   -1.6467    0.0000 C   0  0  0  0  0  0  0  0  0  0  0  0
   -1.0835   -0.2780    0.0000 C   0  0  0  0  0  0  0  0  0  0  0  0
    1.3259    0.8198    0.0000 C   0  0  0  0  0  0  0  0  0  0  0  0
   -0.8269    0.5061    0.0000 C   0  0  0  0  0  0  0  0  0  0  0  0
   -1.4827    1.1049    0.0000 C   0  0  0  0  0  0  0  0  0  0  0  0
    0.0428   -0.6629    0.0000 C   0  0  0  0  0  0  0  0  0  0  0  0
    2.8228    0.7343    0.0000 C   0  0  0  0  0  0  0  0  0  0  0  0
   -2.8085    1.4043    0.0000 C   0  0  0  0  0  0  0  0  0  0  0  0
    3.5357    0.3350    0.0000 C   0  0  0  0  0  0  0  0  0  0  0  0
  1 12  1  0  0  0  0
  1 16  1  0  0  0  0
  2 10  2  0  0  0  0
  3 12  2  0  0  0  0
  4  5  1  0  0  0  0
  9  4  1  6  0  0  0
  5 12  1  0  0  0  0
  6 14  1  0  0  0  0
  6 17  1  0  0  0  0
  7 17  1  0  0  0  0
  8 17  1  0  0  0  0
  9 10  1  0  0  0  0
  9 11  1  0  0  0  0
 10 15  1  0  0  0  0
 11 13  1  0  0  0  0
 13 14  1  0  0  0  0
 16 18  1  0  0  0  0
M  END
> <PUBCHEM_COMPOUND_ID_TYPE>
0

> <PUBCHEM_TOTAL_CHARGE>
0

> <PUBCHEM_SUBSTANCE_ID>
310949987

> <PUBCHEM_SUBSTANCE_VERSION>
1

> <PUBCHEM_EXT_DATASOURCE_NAME>
4488

> <PUBCHEM_EXT_DATASOURCE_REGID>
SCHEMBL16128216

> <PUBCHEM_SUBSTANCE_COMMENT>
InChI=1S/C10H23N5O3/c1-3-18-10(17)15-14-8(7(2)16)5-4-6-13-9(11)12/h8-9,13-14H,3-6,11-12H2,1-2H3,(H,15,17)/t8-/m0/s1
InChIKey=MXEHMWNIXGWXKK-QMMMGPOBSA-N

> <PUBCHEM_SUBSTANCE_SYNONYM>
SCHEMBL16128216

> <PUBCHEM_XREF_EXT_ID>
SCHEMBL16128216

> <PUBCHEM_EXT_DATASOURCE_URL>
https://www.surechembl.org/

> <PUBCHEM_EXT_SUBSTANCE_URL>
https://www.surechembl.org/chemical/SCHEMBL16128216

> <PUBCHEM_CID_ASSOCIATIONS>
117615227  1

> <PUBCHEM_COORDINATE_TYPE>
1
3

> <PUBCHEM_BONDANNOTATIONS>
9  4  6

$$$$
