310946387
  -OEChem-07211613022D

 28 29  0     1  0  0  0  0  0999 V2000
    0.0840   -8.1679    0.0000 I   0  0  0  0  0  0  0  0  0  0  0  0
    1.5129   -5.6929    0.0000 I   0  0  0  0  0  0  0  0  0  0  0  0
    0.0840   -6.5179    0.0000 O   0  0  0  0  0  0  0  0  0  0  0  0
    2.9418   -5.6929    0.0000 O   0  0  0  0  0  0  0  0  0  0  0  0
    2.2274   -6.9304    0.0000 O   0  0  0  0  0  0  0  0  0  0  0  0
    5.0853   -7.7554    0.0000 O   0  0  0  0  0  0  0  0  0  0  0  0
    3.6563   -6.9304    0.0000 N   0  0  0  0  0  0  0  0  0  0  0  0
    0.7984   -6.9304    0.0000 C   0  0  0  0  0  0  0  0  0  0  0  0
    0.7984   -7.7554    0.0000 C   0  0  0  0  0  0  0  0  0  0  0  0
    1.5129   -6.5179    0.0000 C   0  0  0  0  0  0  0  0  0  0  0  0
    2.2274   -7.7554    0.0000 C   0  0  0  0  0  0  0  0  0  0  0  0
    1.5129   -8.1679    0.0000 C   0  0  0  0  0  0  0  0  0  0  0  0
    2.2274   -6.9304    0.0000 C   0  0  0  0  0  0  0  0  0  0  0  0
   -0.6305   -6.9304    0.0000 C   0  0  0  0  0  0  0  0  0  0  0  0
    2.9418   -8.1679    0.0000 C   0  0  0  0  0  0  0  0  0  0  0  0
    3.6563   -7.7554    0.0000 C   0  0  3  0  0  0  0  0  0  0  0  0
   -1.3450   -6.5179    0.0000 C   0  0  0  0  0  0  0  0  0  0  0  0
   -0.6305   -7.7554    0.0000 C   0  0  0  0  0  0  0  0  0  0  0  0
    2.9418   -6.5179    0.0000 C   0  0  0  0  0  0  0  0  0  0  0  0
    2.2274   -5.2804    0.0000 C   0  0  0  0  0  0  0  0  0  0  0  0
   -2.0595   -7.7554    0.0000 C   0  0  0  0  0  0  0  0  0  0  0  0
    4.3708   -8.1679    0.0000 C   0  0  0  0  0  0  0  0  0  0  0  0
   -2.0595   -6.9304    0.0000 C   0  0  0  0  0  0  0  0  0  0  0  0
   -1.3450   -8.1679    0.0000 C   0  0  0  0  0  0  0  0  0  0  0  0
    2.2274   -4.4554    0.0000 C   0  0  0  0  0  0  0  0  0  0  0  0
    1.5129   -4.8679    0.0000 C   0  0  0  0  0  0  0  0  0  0  0  0
    1.5129   -5.6929    0.0000 C   0  0  0  0  0  0  0  0  0  0  0  0
   -2.7739   -8.1679    0.0000 C   0  0  0  0  0  0  0  0  0  0  0  0
  1  9  1  0  0  0  0
  2 10  1  0  0  0  0
  3  8  1  0  0  0  0
  3 14  1  0  0  0  0
  4 19  1  0  0  0  0
  4 20  1  0  0  0  0
  5 19  2  0  0  0  0
  6 22  1  0  0  0  0
 16  7  1  1  0  0  0
  7 19  1  0  0  0  0
  8  9  2  0  0  0  0
  8 10  1  0  0  0  0
  9 12  1  0  0  0  0
 10 13  2  0  0  0  0
 11 12  2  0  0  0  0
 11 13  1  0  0  0  0
 11 15  1  0  0  0  0
 14 17  2  0  0  0  0
 14 18  1  0  0  0  0
 15 16  1  0  0  0  0
 16 22  1  0  0  0  0
 17 23  1  0  0  0  0
 18 24  2  0  0  0  0
 20 25  1  0  0  0  0
 20 26  1  0  0  0  0
 20 27  1  0  0  0  0
 21 23  2  0  0  0  0
 21 24  1  0  0  0  0
 21 28  1  0  0  0  0
M  END
> <PUBCHEM_COMPOUND_ID_TYPE>
0

> <PUBCHEM_TOTAL_CHARGE>
0

> <PUBCHEM_SUBSTANCE_ID>
310946387

> <PUBCHEM_SUBSTANCE_VERSION>
1

> <PUBCHEM_EXT_DATASOURCE_NAME>
4488

> <PUBCHEM_EXT_DATASOURCE_REGID>
SCHEMBL16124507

> <PUBCHEM_SUBSTANCE_COMMENT>
InChI=1S/C21H25I2NO4/c1-13-5-7-16(8-6-13)27-19-17(22)10-14(11-18(19)23)9-15(12-25)24-20(26)28-21(2,3)4/h5-8,10-11,15,25H,9,12H2,1-4H3,(H,24,26)/t15-/m1/s1
InChIKey=XAERYZBFWIDLHW-OAHLLOKOSA-N

> <PUBCHEM_SUBSTANCE_SYNONYM>
SCHEMBL16124507

> <PUBCHEM_XREF_EXT_ID>
SCHEMBL16124507

> <PUBCHEM_EXT_DATASOURCE_URL>
https://www.surechembl.org/

> <PUBCHEM_EXT_SUBSTANCE_URL>
https://www.surechembl.org/chemical/SCHEMBL16124507

> <PUBCHEM_CID_ASSOCIATIONS>
117612309  1

> <PUBCHEM_COORDINATE_TYPE>
1
3

> <PUBCHEM_BONDANNOTATIONS>
16  7  5

$$$$
