310948723
  -OEChem-07211613022D

 28 28  0     1  0  0  0  0  0999 V2000
   -0.0209    1.1179    0.0000 O   0  0  0  0  0  0  0  0  0  0  0  0
   -0.0209   -1.3834    0.0000 O   0  0  0  0  0  0  0  0  0  0  0  0
    1.4183   -0.5450    0.0000 O   0  0  0  0  0  0  0  0  0  0  0  0
   -1.4603   -0.5450    0.0000 O   0  0  0  0  0  0  0  0  0  0  0  0
    1.4183    1.1179    0.0000 O   0  0  0  0  0  0  0  0  0  0  0  0
   -1.4742    1.9423    0.0000 O   0  0  0  0  0  0  0  0  0  0  0  0
   -1.4044   -1.4254    0.0000 O   0  0  0  0  0  0  0  0  0  0  0  0
    2.8436   -0.5171    0.0000 O   0  0  0  0  0  0  0  0  0  0  0  0
    2.1729   -0.0978    0.0000 O   0  0  0  0  0  0  0  0  0  0  0  0
   -2.2008    3.1022    0.0000 O   0  0  0  0  0  0  0  0  0  0  0  0
   -0.0209   -0.5450    0.0000 C   0  0  3  0  0  0  0  0  0  0  0  0
    0.6776   -0.1258    0.0000 C   0  0  3  0  0  0  0  0  0  0  0  0
   -0.7475   -0.1258    0.0000 C   0  0  3  0  0  0  0  0  0  0  0  0
    0.7056    0.6987    0.0000 C   0  0  3  0  0  0  0  0  0  0  0  0
   -0.7335    0.7126    0.0000 C   0  0  3  0  0  0  0  0  0  0  0  0
   -1.4742    1.1319    0.0000 C   0  0  0  0  0  0  0  0  0  0  0  0
   -0.7335   -1.8166    0.0000 C   0  0  0  0  0  0  0  0  0  0  0  0
    2.1729   -0.1258    0.0000 C   0  0  0  0  0  0  0  0  0  0  0  0
    2.1729    0.6847    0.0000 C   0  0  0  0  0  0  0  0  0  0  0  0
   -1.4323   -1.3555    0.0000 C   0  0  0  0  0  0  0  0  0  0  0  0
   -2.2008    2.3476    0.0000 C   0  0  0  0  0  0  0  0  0  0  0  0
   -0.7196   -2.5992    0.0000 C   0  0  0  0  0  0  0  0  0  0  0  0
    2.1310    0.6847    0.0000 C   0  0  0  0  0  0  0  0  0  0  0  0
   -2.1170   -1.8026    0.0000 C   0  0  0  0  0  0  0  0  0  0  0  0
    2.8576    1.1179    0.0000 C   0  0  0  0  0  0  0  0  0  0  0  0
   -2.0751   -2.6411    0.0000 C   0  0  0  0  0  0  0  0  0  0  0  0
   -2.8576    1.9423    0.0000 C   0  0  0  0  0  0  0  0  0  0  0  0
   -2.7737   -3.1022    0.0000 C   0  0  0  0  0  0  0  0  0  0  0  0
  1 14  1  0  0  0  0
  1 15  1  0  0  0  0
 11  2  1  1  0  0  0
  2 17  1  0  0  0  0
 12  3  1  1  0  0  0
  3 18  1  0  0  0  0
 13  4  1  6  0  0  0
  4 20  1  0  0  0  0
 14  5  1  6  0  0  0
  5 19  1  0  0  0  0
  6 16  1  0  0  0  0
  6 21  1  0  0  0  0
  7 17  2  0  0  0  0
  8 18  2  0  0  0  0
  9 19  2  0  0  0  0
 10 21  2  0  0  0  0
 11 12  1  0  0  0  0
 11 13  1  0  0  0  0
 12 14  1  0  0  0  0
 13 15  1  0  0  0  0
 15 16  1  1  0  0  0
 17 22  1  0  0  0  0
 18 23  1  0  0  0  0
 19 25  1  0  0  0  0
 20 24  1  0  0  0  0
 21 27  1  0  0  0  0
 24 26  1  0  0  0  0
 26 28  1  0  0  0  0
M  END
> <PUBCHEM_COMPOUND_ID_TYPE>
0

> <PUBCHEM_TOTAL_CHARGE>
0

> <PUBCHEM_SUBSTANCE_ID>
310948723

> <PUBCHEM_SUBSTANCE_VERSION>
1

> <PUBCHEM_EXT_DATASOURCE_NAME>
4488

> <PUBCHEM_EXT_DATASOURCE_REGID>
SCHEMBL16126907

> <PUBCHEM_SUBSTANCE_COMMENT>
InChI=1S/C18H28O10/c1-6-7-8-23-15-14(9-24-10(2)19)28-18(27-13(5)22)17(26-12(4)21)16(15)25-11(3)20/h14-18H,6-9H2,1-5H3/t14-,15-,16+,17+,18+/m1/s1
InChIKey=FHHBPXDGXKMVHT-ZBRFXRBCSA-N

> <PUBCHEM_SUBSTANCE_SYNONYM>
SCHEMBL16126907

> <PUBCHEM_XREF_EXT_ID>
SCHEMBL16126907

> <PUBCHEM_EXT_DATASOURCE_URL>
https://www.surechembl.org/

> <PUBCHEM_EXT_SUBSTANCE_URL>
https://www.surechembl.org/chemical/SCHEMBL16126907

> <PUBCHEM_CID_ASSOCIATIONS>
117614264  1

> <PUBCHEM_COORDINATE_TYPE>
1
3

> <PUBCHEM_BONDANNOTATIONS>
15  16  5
11  2  5
12  3  5
13  4  6
14  5  6

$$$$
