310949125
  -OEChem-07211613022D

 43 49  0     0  0  0  0  0  0999 V2000
    1.2903    2.4994    0.0000 F   0  0  0  0  0  0  0  0  0  0  0  0
    1.7769    1.4377    0.0000 F   0  0  0  0  0  0  0  0  0  0  0  0
    0.7005    0.9659    0.0000 F   0  0  0  0  0  0  0  0  0  0  0  0
    4.1510   -0.7151    0.0000 F   0  0  0  0  0  0  0  0  0  0  0  0
    1.2313   -0.7005    0.0000 F   0  0  0  0  0  0  0  0  0  0  0  0
    1.2313   -2.3373    0.0000 F   0  0  0  0  0  0  0  0  0  0  0  0
    4.1657   -2.3667    0.0000 F   0  0  0  0  0  0  0  0  0  0  0  0
    2.6911   -3.1630    0.0000 F   0  0  0  0  0  0  0  0  0  0  0  0
    0.3465    0.2581    0.0000 N   0  0  0  0  0  0  0  0  0  0  0  0
   -0.4055    0.6562    0.0000 C   0  0  0  0  0  0  0  0  0  0  0  0
   -0.9806    0.0811    0.0000 C   0  0  0  0  0  0  0  0  0  0  0  0
   -1.4820    1.6442    0.0000 C   0  0  0  0  0  0  0  0  0  0  0  0
    1.9686    0.5234    0.0000 C   0  0  0  0  0  0  0  0  0  0  0  0
   -2.0571    1.0396    0.0000 C   0  0  0  0  0  0  0  0  0  0  0  0
    0.2138   -0.5234    0.0000 C   0  0  0  0  0  0  0  0  0  0  0  0
   -1.8802    2.3815    0.0000 C   0  0  0  0  0  0  0  0  0  0  0  0
   -0.6120   -0.6562    0.0000 C   0  0  0  0  0  0  0  0  0  0  0  0
   -0.6415    1.4377    0.0000 C   0  0  0  0  0  0  0  0  0  0  0  0
   -2.7796    1.4083    0.0000 C   0  0  0  0  0  0  0  0  0  0  0  0
   -2.6617    2.2046    0.0000 C   0  0  0  0  0  0  0  0  0  0  0  0
   -1.8211    0.2728    0.0000 C   0  0  0  0  0  0  0  0  0  0  0  0
    2.7059    0.1401    0.0000 C   0  0  0  0  0  0  0  0  0  0  0  0
    1.9686    1.3345    0.0000 C   0  0  0  0  0  0  0  0  0  0  0  0
    2.6764   -0.6857    0.0000 C   0  0  0  0  0  0  0  0  0  0  0  0
    0.7594   -1.1576    0.0000 C   0  0  0  0  0  0  0  0  0  0  0  0
   -0.8774   -1.4377    0.0000 C   0  0  0  0  0  0  0  0  0  0  0  0
    0.9953    1.7327    0.0000 C   0  0  0  0  0  0  0  0  0  0  0  0
    3.4285   -1.0838    0.0000 C   0  0  0  0  0  0  0  0  0  0  0  0
    1.9538   -1.0838    0.0000 C   0  0  0  0  0  0  0  0  0  0  0  0
    3.4137    0.5234    0.0000 C   0  0  0  0  0  0  0  0  0  0  0  0
   -3.5169    1.1133    0.0000 C   0  0  0  0  0  0  0  0  0  0  0  0
   -3.3400    2.7059    0.0000 C   0  0  0  0  0  0  0  0  0  0  0  0
    2.7059    1.7474    0.0000 C   0  0  0  0  0  0  0  0  0  0  0  0
   -2.0865    3.1630    0.0000 C   0  0  0  0  0  0  0  0  0  0  0  0
   -1.1281    2.7944    0.0000 C   0  0  0  0  0  0  0  0  0  0  0  0
    1.9538   -1.9096    0.0000 C   0  0  0  0  0  0  0  0  0  0  0  0
    3.4137   -1.9244    0.0000 C   0  0  0  0  0  0  0  0  0  0  0  0
    3.4137    1.3493    0.0000 C   0  0  0  0  0  0  0  0  0  0  0  0
    0.4792   -1.9244    0.0000 C   0  0  0  0  0  0  0  0  0  0  0  0
    2.6911   -2.3078    0.0000 C   0  0  0  0  0  0  0  0  0  0  0  0
   -0.3318   -2.0423    0.0000 C   0  0  0  0  0  0  0  0  0  0  0  0
   -4.1657    1.5704    0.0000 C   0  0  0  0  0  0  0  0  0  0  0  0
   -4.0773    2.3815    0.0000 C   0  0  0  0  0  0  0  0  0  0  0  0
  1 27  1  0  0  0  0
  2 27  1  0  0  0  0
  3 27  1  0  0  0  0
  4 28  1  0  0  0  0
  5 29  1  0  0  0  0
  6 36  1  0  0  0  0
  7 37  1  0  0  0  0
  8 40  1  0  0  0  0
  9 10  1  0  0  0  0
  9 13  1  0  0  0  0
  9 15  1  0  0  0  0
 10 11  2  0  0  0  0
 10 18  1  0  0  0  0
 11 17  1  0  0  0  0
 11 21  1  0  0  0  0
 12 14  1  0  0  0  0
 12 16  1  0  0  0  0
 12 18  2  0  0  0  0
 13 22  1  0  0  0  0
 13 23  2  0  0  0  0
 14 19  1  0  0  0  0
 14 21  2  0  0  0  0
 15 17  2  0  0  0  0
 15 25  1  0  0  0  0
 16 20  1  0  0  0  0
 16 34  1  0  0  0  0
 16 35  1  0  0  0  0
 17 26  1  0  0  0  0
 19 20  2  0  0  0  0
 19 31  1  0  0  0  0
 20 32  1  0  0  0  0
 22 24  1  0  0  0  0
 22 30  2  0  0  0  0
 23 27  1  0  0  0  0
 23 33  1  0  0  0  0
 24 28  2  0  0  0  0
 24 29  1  0  0  0  0
 25 39  2  0  0  0  0
 26 41  2  0  0  0  0
 28 37  1  0  0  0  0
 29 36  2  0  0  0  0
 30 38  1  0  0  0  0
 31 42  2  0  0  0  0
 32 43  2  0  0  0  0
 33 38  2  0  0  0  0
 36 40  1  0  0  0  0
 37 40  2  0  0  0  0
 39 41  1  0  0  0  0
 42 43  1  0  0  0  0
M  END
> <PUBCHEM_COMPOUND_ID_TYPE>
0

> <PUBCHEM_TOTAL_CHARGE>
0

> <PUBCHEM_SUBSTANCE_ID>
310949125

> <PUBCHEM_SUBSTANCE_VERSION>
1

> <PUBCHEM_EXT_DATASOURCE_NAME>
4488

> <PUBCHEM_EXT_DATASOURCE_REGID>
SCHEMBL16127315

> <PUBCHEM_SUBSTANCE_COMMENT>
InChI=1S/C34H19F8N/c1-33(2)21-11-5-3-8-16(21)19-14-20-17-9-4-6-13-24(17)43(25(20)15-23(19)33)32-18(10-7-12-22(32)34(40,41)42)26-27(35)29(37)31(39)30(38)28(26)36/h3-15H,1-2H3
InChIKey=POQFTVITQLCICL-UHFFFAOYSA-N

> <PUBCHEM_SUBSTANCE_SYNONYM>
SCHEMBL16127315

> <PUBCHEM_XREF_EXT_ID>
SCHEMBL16127315

> <PUBCHEM_EXT_DATASOURCE_URL>
https://www.surechembl.org/

> <PUBCHEM_EXT_SUBSTANCE_URL>
https://www.surechembl.org/chemical/SCHEMBL16127315

> <PUBCHEM_CID_ASSOCIATIONS>
117614622  1

> <PUBCHEM_COORDINATE_TYPE>
1
3

$$$$
