310946875
  -OEChem-07211613022D

 40 44  0     0  0  0  0  0  0999 V2000
   -0.6150    3.9489    0.0000 F   0  0  0  0  0  0  0  0  0  0  0  0
    0.1295    1.1652    0.0000 F   0  0  0  0  0  0  0  0  0  0  0  0
   -0.4532   -2.9940    0.0000 O   0  0  0  0  0  0  0  0  0  0  0  0
   -2.4276   -3.9489    0.0000 O   0  0  0  0  0  0  0  0  0  0  0  0
    2.1525    3.1883    0.0000 O   0  0  0  0  0  0  0  0  0  0  0  0
   -0.2914   -0.8254    0.0000 N   0  0  0  0  0  0  0  0  0  0  0  0
   -1.6993   -1.1976    0.0000 N   0  0  0  0  0  0  0  0  0  0  0  0
    0.7283   -1.8288    0.0000 N   0  0  0  0  0  0  0  0  0  0  0  0
   -2.0554   -2.5732    0.0000 N   0  0  0  0  0  0  0  0  0  0  0  0
    0.7283   -1.8288    0.0000 N   0  0  0  0  0  0  0  0  0  0  0  0
   -0.8092    0.8740    0.0000 N   0  0  0  0  0  0  0  0  0  0  0  0
   -1.2947    1.5537    0.0000 N   0  0  0  0  0  0  0  0  0  0  0  0
    2.5247   -0.0809    0.0000 N   0  0  0  0  0  0  0  0  0  0  0  0
   -0.6797   -2.1849    0.0000 C   0  0  0  0  0  0  0  0  0  0  0  0
   -0.0809   -1.5699    0.0000 C   0  0  0  0  0  0  0  0  0  0  0  0
   -1.4890   -1.9259    0.0000 C   0  0  0  0  0  0  0  0  0  0  0  0
   -1.0843   -0.5503    0.0000 C   0  0  0  0  0  0  0  0  0  0  0  0
   -1.3109    0.2104    0.0000 C   0  0  0  0  0  0  0  0  0  0  0  0
   -2.0716    0.5017    0.0000 C   0  0  0  0  0  0  0  0  0  0  0  0
    1.3109   -1.1976    0.0000 C   0  0  0  0  0  0  0  0  0  0  0  0
   -2.0878    1.3271    0.0000 C   0  0  0  0  0  0  0  0  0  0  0  0
   -1.8288   -3.3177    0.0000 C   0  0  0  0  0  0  0  0  0  0  0  0
   -1.0358   -3.5443    0.0000 C   0  0  0  0  0  0  0  0  0  0  0  0
   -2.7998    0.0809    0.0000 C   0  0  0  0  0  0  0  0  0  0  0  0
   -0.2914    2.5895    0.0000 C   0  0  0  0  0  0  0  0  0  0  0  0
    1.1491   -0.3884    0.0000 C   0  0  0  0  0  0  0  0  0  0  0  0
    2.1363   -1.4403    0.0000 C   0  0  0  0  0  0  0  0  0  0  0  0
   -2.8322    1.7155    0.0000 C   0  0  0  0  0  0  0  0  0  0  0  0
   -1.0520    2.3790    0.0000 C   0  0  0  0  0  0  0  0  0  0  0  0
   -0.0324    3.3825    0.0000 C   0  0  0  0  0  0  0  0  0  0  0  0
    0.3237    1.9906    0.0000 C   0  0  0  0  0  0  0  0  0  0  0  0
   -3.5281    0.4855    0.0000 C   0  0  0  0  0  0  0  0  0  0  0  0
   -3.5443    1.3109    0.0000 C   0  0  0  0  0  0  0  0  0  0  0  0
    1.3271    3.0102    0.0000 C   0  0  0  0  0  0  0  0  0  0  0  0
    0.7444    3.5928    0.0000 C   0  0  0  0  0  0  0  0  0  0  0  0
    1.1167    2.2172    0.0000 C   0  0  0  0  0  0  0  0  0  0  0  0
    1.6993    0.1618    0.0000 C   0  0  0  0  0  0  0  0  0  0  0  0
    2.7189   -0.8577    0.0000 C   0  0  0  0  0  0  0  0  0  0  0  0
    2.7513    2.6380    0.0000 C   0  0  0  0  0  0  0  0  0  0  0  0
    3.5443    2.8160    0.0000 C   0  0  0  0  0  0  0  0  0  0  0  0
  1 30  1  0  0  0  0
  2 31  1  0  0  0  0
  3 14  1  0  0  0  0
  3 23  1  0  0  0  0
  4 22  2  0  0  0  0
  5 34  1  0  0  0  0
  5 39  1  0  0  0  0
  6 15  1  0  0  0  0
  6 17  2  0  0  0  0
  7 16  2  0  0  0  0
  7 17  1  0  0  0  0
  8 10  1  0  0  0  0
  8 15  1  0  0  0  0
  8 20  1  0  0  0  0
  9 16  1  0  0  0  0
  9 22  1  0  0  0  0
 11 18  2  3  0  0  0
 12 21  1  0  0  0  0
 12 29  1  0  0  0  0
 13 37  2  0  0  0  0
 13 38  1  0  0  0  0
 14 15  2  0  0  0  0
 14 16  1  0  0  0  0
 17 18  1  0  0  0  0
 18 19  1  0  0  0  0
 19 21  2  0  0  0  0
 19 24  1  0  0  0  0
 20 26  2  0  0  0  0
 20 27  1  0  0  0  0
 21 28  1  0  0  0  0
 22 23  1  0  0  0  0
 24 32  2  0  0  0  0
 25 29  1  0  0  0  0
 25 30  2  0  0  0  0
 25 31  1  0  0  0  0
 26 37  1  0  0  0  0
 27 38  2  0  0  0  0
 28 33  2  0  0  0  0
 30 35  1  0  0  0  0
 31 36  2  0  0  0  0
 32 33  1  0  0  0  0
 34 35  2  0  0  0  0
 34 36  1  0  0  0  0
 39 40  1  0  0  0  0
M  END
> <PUBCHEM_COMPOUND_ID_TYPE>
0

> <PUBCHEM_TOTAL_CHARGE>
0

> <PUBCHEM_SUBSTANCE_ID>
310946875

> <PUBCHEM_SUBSTANCE_VERSION>
1

> <PUBCHEM_EXT_DATASOURCE_NAME>
4488

> <PUBCHEM_EXT_DATASOURCE_REGID>
SCHEMBL16124999

> <PUBCHEM_SUBSTANCE_COMMENT>
InChI=1S/C27H24F2N8O3/c1-2-39-16-11-19(28)18(20(29)12-16)13-33-21-6-4-3-5-17(21)23(30)25-35-26-24(40-14-22(38)34-26)27(36-25)37(31)15-7-9-32-10-8-15/h3-12,30,33H,2,13-14,31H2,1H3,(H,34,35,36,38)
InChIKey=XKZRYQIHZLTXCA-UHFFFAOYSA-N

> <PUBCHEM_SUBSTANCE_SYNONYM>
SCHEMBL16124999

> <PUBCHEM_XREF_EXT_ID>
SCHEMBL16124999

> <PUBCHEM_EXT_DATASOURCE_URL>
https://www.surechembl.org/

> <PUBCHEM_EXT_SUBSTANCE_URL>
https://www.surechembl.org/chemical/SCHEMBL16124999

> <PUBCHEM_CID_ASSOCIATIONS>
117612733  1

> <PUBCHEM_COORDINATE_TYPE>
1
3

$$$$
