310948233
  -OEChem-07211613022D

 42 46  0     0  0  0  0  0  0999 V2000
   -4.2895    0.4025    0.0000 Cl  0  0  0  0  0  0  0  0  0  0  0  0
    2.5580   -1.9138    0.0000 S   0  0  0  0  0  0  0  0  0  0  0  0
   -4.1373    1.6198    0.0000 F   0  0  0  0  0  0  0  0  0  0  0  0
   -4.0697    2.7357    0.0000 F   0  0  0  0  0  0  0  0  0  0  0  0
   -2.9369    2.6512    0.0000 F   0  0  0  0  0  0  0  0  0  0  0  0
    3.2851    2.4314    0.0000 F   0  0  0  0  0  0  0  0  0  0  0  0
    3.8768    1.4846    0.0000 F   0  0  0  0  0  0  0  0  0  0  0  0
    2.8961    0.9097    0.0000 F   0  0  0  0  0  0  0  0  0  0  0  0
   -1.4491    2.3130    0.0000 O   0  0  0  0  0  0  0  0  0  0  0  0
    2.5580   -1.9138    0.0000 O   0  0  0  0  0  0  0  0  0  0  0  0
    2.5580   -1.9138    0.0000 O   0  0  0  0  0  0  0  0  0  0  0  0
   -1.8887    0.7575    0.0000 N   0  0  0  0  0  0  0  0  0  0  0  0
   -2.1761    1.5353    0.0000 N   0  0  0  0  0  0  0  0  0  0  0  0
   -0.5023    3.2599    0.0000 N   0  0  0  0  0  0  0  0  0  0  0  0
   -0.5023    1.1464    0.0000 C   0  0  0  0  0  0  0  0  0  0  0  0
   -1.0771    0.5546    0.0000 C   0  0  0  0  0  0  0  0  0  0  0  0
   -0.7051    1.9241    0.0000 C   0  0  0  0  0  0  0  0  0  0  0  0
   -0.1302    2.5497    0.0000 C   0  0  0  0  0  0  0  0  0  0  0  0
   -3.0045    1.5015    0.0000 C   0  0  0  0  0  0  0  0  0  0  0  0
    0.3093    0.9097    0.0000 C   0  0  0  0  0  0  0  0  0  0  0  0
    0.5291    0.1320    0.0000 C   0  0  0  0  0  0  0  0  0  0  0  0
   -3.2412    0.7068    0.0000 C   0  0  0  0  0  0  0  0  0  0  0  0
    0.6813    2.3130    0.0000 C   0  0  0  0  0  0  0  0  0  0  0  0
   -2.5142    0.2503    0.0000 C   0  0  0  0  0  0  0  0  0  0  0  0
   -0.8573   -0.2569    0.0000 C   0  0  0  0  0  0  0  0  0  0  0  0
   -1.3307    3.1584    0.0000 C   0  0  0  0  0  0  0  0  0  0  0  0
   -3.5455    2.1440    0.0000 C   0  0  0  0  0  0  0  0  0  0  0  0
   -0.0626   -0.4598    0.0000 C   0  0  0  0  0  0  0  0  0  0  0  0
    1.3238   -0.0878    0.0000 C   0  0  0  0  0  0  0  0  0  0  0  0
    0.9011    1.5184    0.0000 C   0  0  0  0  0  0  0  0  0  0  0  0
    1.2731    2.8878    0.0000 C   0  0  0  0  0  0  0  0  0  0  0  0
    1.5605   -0.8994    0.0000 C   0  0  0  0  0  0  0  0  0  0  0  0
    2.2706    1.8903    0.0000 C   0  0  0  0  0  0  0  0  0  0  0  0
    2.3382   -1.1023    0.0000 C   0  0  0  0  0  0  0  0  0  0  0  0
    1.9155    0.4870    0.0000 C   0  0  0  0  0  0  0  0  0  0  0  0
    1.6957    1.2986    0.0000 C   0  0  0  0  0  0  0  0  0  0  0  0
    2.0677    2.6850    0.0000 C   0  0  0  0  0  0  0  0  0  0  0  0
    3.0821    1.6705    0.0000 C   0  0  0  0  0  0  0  0  0  0  0  0
   -1.9056    3.6994    0.0000 C   0  0  0  0  0  0  0  0  0  0  0  0
    2.9299   -0.5105    0.0000 C   0  0  0  0  0  0  0  0  0  0  0  0
    2.7102    0.2672    0.0000 C   0  0  0  0  0  0  0  0  0  0  0  0
    4.2895   -3.6994    0.0000 C   0  0  0  0  0  0  0  0  0  0  0  0
  1 22  1  0  0  0  0
  2 10  2  0  0  0  0
  2 11  2  0  0  0  0
  2 34  1  0  0  0  0
  2 42  1  0  0  0  0
  3 27  1  0  0  0  0
  4 27  1  0  0  0  0
  5 27  1  0  0  0  0
  6 38  1  0  0  0  0
  7 38  1  0  0  0  0
  8 38  1  0  0  0  0
  9 17  1  0  0  0  0
  9 26  1  0  0  0  0
 12 13  1  0  0  0  0
 12 16  1  0  0  0  0
 12 24  1  0  0  0  0
 13 19  2  0  0  0  0
 14 18  1  0  0  0  0
 14 26  2  0  0  0  0
 15 16  1  0  0  0  0
 15 17  1  0  0  0  0
 15 20  2  0  0  0  0
 16 25  2  0  0  0  0
 17 18  2  0  0  0  0
 18 23  1  0  0  0  0
 19 22  1  0  0  0  0
 19 27  1  0  0  0  0
 20 21  1  0  0  0  0
 21 28  2  0  0  0  0
 21 29  1  0  0  0  0
 22 24  2  0  0  0  0
 23 30  2  0  0  0  0
 23 31  1  0  0  0  0
 25 28  1  0  0  0  0
 26 39  1  0  0  0  0
 29 32  2  0  0  0  0
 29 35  1  0  0  0  0
 30 36  1  0  0  0  0
 31 37  2  0  0  0  0
 32 34  1  0  0  0  0
 33 36  2  0  0  0  0
 33 37  1  0  0  0  0
 33 38  1  0  0  0  0
 34 40  2  0  0  0  0
 35 41  2  0  0  0  0
 40 41  1  0  0  0  0
M  END
> <PUBCHEM_COMPOUND_ID_TYPE>
0

> <PUBCHEM_TOTAL_CHARGE>
0

> <PUBCHEM_SUBSTANCE_ID>
310948233

> <PUBCHEM_SUBSTANCE_VERSION>
1

> <PUBCHEM_EXT_DATASOURCE_NAME>
4488

> <PUBCHEM_EXT_DATASOURCE_REGID>
SCHEMBL16126410

> <PUBCHEM_SUBSTANCE_COMMENT>
InChI=1S/C28H18ClF6N3O3S/c1-15-36-24(16-6-9-19(10-7-16)27(30,31)32)25(41-15)21-13-18(17-4-3-5-20(12-17)42(2,39)40)8-11-23(21)38-14-22(29)26(37-38)28(33,34)35/h3-14H,1-2H3
InChIKey=JNHNTQVTWLBEJP-UHFFFAOYSA-N

> <PUBCHEM_SUBSTANCE_SYNONYM>
SCHEMBL16126410

> <PUBCHEM_XREF_EXT_ID>
SCHEMBL16126410

> <PUBCHEM_EXT_DATASOURCE_URL>
https://www.surechembl.org/

> <PUBCHEM_EXT_SUBSTANCE_URL>
https://www.surechembl.org/chemical/SCHEMBL16126410

> <PUBCHEM_CID_ASSOCIATIONS>
117613813  1

> <PUBCHEM_COORDINATE_TYPE>
1
3

$$$$
