310948938
  -OEChem-07211613022D

 24 25  0     0  0  0  0  0  0999 V2000
   -3.3196   -0.9781    0.0000 S   0  0  0  0  0  0  0  0  0  0  0  0
   -0.2359   -0.9781    0.0000 F   0  0  0  0  0  0  0  0  0  0  0  0
    1.9040    1.9190    0.0000 O   0  0  0  0  0  0  0  0  0  0  0  0
    2.6283    0.6790    0.0000 O   0  0  0  0  0  0  0  0  0  0  0  0
    1.9040   -0.5611    0.0000 O   0  0  0  0  0  0  0  0  0  0  0  0
    0.4773    0.2619    0.0000 N   0  0  0  0  0  0  0  0  0  0  0  0
   -0.2359    1.5020    0.0000 N   0  0  0  0  0  0  0  0  0  0  0  0
    0.4773    2.7530    0.0000 N   0  0  0  0  0  0  0  0  0  0  0  0
   -0.2359    0.6790    0.0000 C   0  0  0  0  0  0  0  0  0  0  0  0
    1.1907    0.6900    0.0000 C   0  0  0  0  0  0  0  0  0  0  0  0
   -0.9492    0.2619    0.0000 C   0  0  0  0  0  0  0  0  0  0  0  0
    1.2016    1.5020    0.0000 C   0  0  0  0  0  0  0  0  0  0  0  0
    0.4664    1.9190    0.0000 C   0  0  0  0  0  0  0  0  0  0  0  0
   -0.9602   -0.5501    0.0000 C   0  0  0  0  0  0  0  0  0  0  0  0
    1.9149    0.2948    0.0000 C   0  0  0  0  0  0  0  0  0  0  0  0
   -1.6735    0.6680    0.0000 C   0  0  0  0  0  0  0  0  0  0  0  0
   -2.3759   -0.5611    0.0000 C   0  0  0  0  0  0  0  0  0  0  0  0
   -1.6735   -0.9671    0.0000 C   0  0  0  0  0  0  0  0  0  0  0  0
   -2.3648    0.2619    0.0000 C   0  0  0  0  0  0  0  0  0  0  0  0
    1.9040    2.7311    0.0000 C   0  0  0  0  0  0  0  0  0  0  0  0
   -1.5984   -2.7530    0.0000 C   0  0  0  0  0  0  0  0  0  0  0  0
    3.3196    0.2290    0.0000 C   0  0  0  0  0  0  0  0  0  0  0  0
   -1.5984   -2.7530    0.0000 C   0  0  0  0  0  0  0  0  0  0  0  0
   -1.5984   -2.7530    0.0000 C   0  0  0  0  0  0  0  0  0  0  0  0
  1 17  1  0  0  0  0
  1 21  1  0  0  0  0
  2 14  1  0  0  0  0
  3 12  1  0  0  0  0
  3 20  1  0  0  0  0
  4 15  1  0  0  0  0
  4 22  1  0  0  0  0
  5 15  2  0  0  0  0
  6  9  2  0  0  0  0
  6 10  1  0  0  0  0
  7  9  1  0  0  0  0
  7 13  2  0  0  0  0
  8 13  1  0  0  0  0
  9 11  1  0  0  0  0
 10 12  2  0  0  0  0
 10 15  1  0  0  0  0
 11 14  1  0  0  0  0
 11 16  2  0  0  0  0
 12 13  1  0  0  0  0
 14 18  2  0  0  0  0
 16 19  1  0  0  0  0
 17 18  1  0  0  0  0
 17 19  2  0  0  0  0
 21 23  1  0  0  0  0
 21 24  1  0  0  0  0
M  END
> <PUBCHEM_COMPOUND_ID_TYPE>
0

> <PUBCHEM_TOTAL_CHARGE>
0

> <PUBCHEM_SUBSTANCE_ID>
310948938

> <PUBCHEM_SUBSTANCE_VERSION>
1

> <PUBCHEM_EXT_DATASOURCE_NAME>
4488

> <PUBCHEM_EXT_DATASOURCE_REGID>
SCHEMBL16127125

> <PUBCHEM_SUBSTANCE_COMMENT>
InChI=1S/C16H18FN3O3S/c1-8(2)24-9-5-6-10(11(17)7-9)15-19-12(16(21)23-4)13(22-3)14(18)20-15/h5-8H,1-4H3,(H2,18,19,20)
InChIKey=BMTQQPVLYZHJBL-UHFFFAOYSA-N

> <PUBCHEM_SUBSTANCE_SYNONYM>
SCHEMBL16127125

> <PUBCHEM_XREF_EXT_ID>
SCHEMBL16127125

> <PUBCHEM_EXT_DATASOURCE_URL>
https://www.surechembl.org/

> <PUBCHEM_EXT_SUBSTANCE_URL>
https://www.surechembl.org/chemical/SCHEMBL16127125

> <PUBCHEM_CID_ASSOCIATIONS>
117614449  1

> <PUBCHEM_COORDINATE_TYPE>
1
3

$$$$
