310944932
  -OEChem-07211613022D

 24 27  0     1  0  0  0  0  0999 V2000
    1.6440    1.8245    0.0000 Cl  0  0  0  0  0  0  0  0  0  0  0  0
   -2.7150   -1.6501    0.0000 O   0  0  0  0  0  0  0  0  0  0  0  0
    1.0959   -1.3637    0.0000 O   0  0  0  0  0  0  0  0  0  0  0  0
   -3.2131   -0.2304    0.0000 O   0  0  0  0  0  0  0  0  0  0  0  0
    1.9428    0.0685    0.0000 N   0  0  3  0  0  0  0  0  0  0  0  0
    1.6440    1.8245    0.0000 N   0  0  3  0  0  0  0  0  0  0  0  0
    2.4285    0.7410    0.0000 C   0  0  3  0  0  0  0  0  0  0  0  0
   -1.3824   -1.3513    0.0000 C   0  0  0  0  0  0  0  0  0  0  0  0
   -0.1494   -0.6413    0.0000 C   0  0  0  0  0  0  0  0  0  0  0  0
   -1.7934   -0.6413    0.0000 C   0  0  0  0  0  0  0  0  0  0  0  0
   -0.5604   -1.3637    0.0000 C   0  0  0  0  0  0  0  0  0  0  0  0
    0.6974   -0.6413    0.0000 C   0  0  3  0  0  0  0  0  0  0  0  0
    1.6440    1.0025    0.0000 C   0  0  0  0  0  0  0  0  0  0  0  0
    3.2131    0.4795    0.0000 C   0  0  0  0  0  0  0  0  0  0  0  0
    2.9142    1.4135    0.0000 C   0  0  0  0  0  0  0  0  0  0  0  0
    1.1084    0.0685    0.0000 C   0  0  0  0  0  0  0  0  0  0  0  0
   -2.6029   -0.8282    0.0000 C   0  0  0  0  0  0  0  0  0  0  0  0
    2.4410   -0.6040    0.0000 C   0  0  0  0  0  0  0  0  0  0  0  0
   -0.5604    0.0685    0.0000 C   0  0  0  0  0  0  0  0  0  0  0  0
   -1.3824    0.0685    0.0000 C   0  0  0  0  0  0  0  0  0  0  0  0
   -1.9303   -1.9864    0.0000 C   0  0  0  0  0  0  0  0  0  0  0  0
    3.2131   -0.3425    0.0000 C   0  0  0  0  0  0  0  0  0  0  0  0
    2.4285    2.0735    0.0000 C   0  0  0  0  0  0  0  0  0  0  0  0
   -0.1370   -2.0735    0.0000 C   0  0  0  0  0  0  0  0  0  0  0  0
  1  6  1  0  0  0  0
  2 17  1  0  0  0  0
  2 21  1  0  0  0  0
 12  3  1  6  0  0  0
  4 17  2  0  0  0  0
  5  7  1  0  0  0  0
  5 16  1  0  0  0  0
  5 18  1  0  0  0  0
  6 13  1  0  0  0  0
  6 23  1  0  0  0  0
  7 13  1  0  0  0  0
  7 14  1  0  0  0  0
  7 15  1  0  0  0  0
  8 10  1  0  0  0  0
  8 11  2  0  0  0  0
  8 21  1  0  0  0  0
  9 11  1  0  0  0  0
  9 12  1  0  0  0  0
  9 19  2  0  0  0  0
 10 17  1  0  0  0  0
 10 20  2  0  0  0  0
 11 24  1  0  0  0  0
 12 16  1  0  0  0  0
 14 22  1  0  0  0  0
 15 23  1  0  0  0  0
 18 22  1  0  0  0  0
 19 20  1  0  0  0  0
M  END
> <PUBCHEM_COMPOUND_ID_TYPE>
0

> <PUBCHEM_TOTAL_CHARGE>
0

> <PUBCHEM_SUBSTANCE_ID>
310944932

> <PUBCHEM_SUBSTANCE_VERSION>
1

> <PUBCHEM_EXT_DATASOURCE_NAME>
4488

> <PUBCHEM_EXT_DATASOURCE_REGID>
SCHEMBL16123017

> <PUBCHEM_SUBSTANCE_COMMENT>
InChI=1S/C18H23ClN2O3/c1-12-13(3-4-14-15(12)10-24-17(14)23)16(22)9-20-7-2-5-18(20)6-8-21(19)11-18/h3-4,16,22H,2,5-11H2,1H3/t16-,18?/m0/s1
InChIKey=WYOWWIMKFURRQP-ATNAJCNCSA-N

> <PUBCHEM_SUBSTANCE_SYNONYM>
SCHEMBL16123017

> <PUBCHEM_XREF_EXT_ID>
SCHEMBL16123017

> <PUBCHEM_EXT_DATASOURCE_URL>
https://www.surechembl.org/

> <PUBCHEM_EXT_SUBSTANCE_URL>
https://www.surechembl.org/chemical/SCHEMBL16123017

> <PUBCHEM_CID_ASSOCIATIONS>
117611093  1

> <PUBCHEM_COORDINATE_TYPE>
1
3

> <PUBCHEM_BONDANNOTATIONS>
12  3  6

$$$$
