310943582
  -OEChem-07211613022D

 29 31  0     1  0  0  0  0  0999 V2000
    4.5241    0.0146    0.0000 O   0  0  0  0  0  0  0  0  0  0  0  0
   -3.6325   -1.0524    0.0000 N   0  0  3  0  0  0  0  0  0  0  0  0
   -5.4012   -0.4970    0.0000 N   0  0  3  0  0  0  0  0  0  0  0  0
    0.0950   -1.5641    0.0000 N   0  0  0  0  0  0  0  0  0  0  0  0
    3.6471    1.5641    0.0000 N   0  0  0  0  0  0  0  0  0  0  0  0
   -0.7966   -0.2047    0.0000 C   0  0  0  0  0  0  0  0  0  0  0  0
   -0.8113   -1.0378    0.0000 C   0  0  0  0  0  0  0  0  0  0  0  0
   -0.0950    0.2192    0.0000 C   0  0  0  0  0  0  0  0  0  0  0  0
   -2.2292   -1.0524    0.0000 C   0  0  0  0  0  0  0  0  0  0  0  0
   -1.4837   -1.4618    0.0000 C   0  0  0  0  0  0  0  0  0  0  0  0
   -1.5129    0.1901    0.0000 C   0  0  0  0  0  0  0  0  0  0  0  0
   -2.1999   -0.2192    0.0000 C   0  0  0  0  0  0  0  0  0  0  0  0
   -0.0658    1.0378    0.0000 C   0  0  0  0  0  0  0  0  0  0  0  0
    0.6505   -0.1901    0.0000 C   0  0  0  0  0  0  0  0  0  0  0  0
   -2.9016   -1.4618    0.0000 C   0  0  0  0  0  0  0  0  0  0  0  0
    0.0950   -1.5641    0.0000 C   0  0  0  0  0  0  0  0  0  0  0  0
    1.3375    1.0524    0.0000 C   0  0  0  0  0  0  0  0  0  0  0  0
    0.6212    1.4472    0.0000 C   0  0  0  0  0  0  0  0  0  0  0  0
    1.3375    0.2047    0.0000 C   0  0  0  0  0  0  0  0  0  0  0  0
   -4.2902   -1.5203    0.0000 C   0  0  0  0  0  0  0  0  0  0  0  0
   -3.5740   -0.2192    0.0000 C   0  0  0  0  0  0  0  0  0  0  0  0
    2.0391    1.4618    0.0000 C   0  0  0  0  0  0  0  0  0  0  0  0
   -5.1088   -1.2718    0.0000 C   0  0  0  0  0  0  0  0  0  0  0  0
   -4.1586    0.3216    0.0000 C   0  0  0  0  0  0  0  0  0  0  0  0
   -4.9772    0.2192    0.0000 C   0  0  0  0  0  0  0  0  0  0  0  0
    2.7699    1.0524    0.0000 C   0  0  0  0  0  0  0  0  0  0  0  0
   -5.4012   -0.4970    0.0000 C   0  0  0  0  0  0  0  0  0  0  0  0
    4.5241    1.0817    0.0000 C   0  0  0  0  0  0  0  0  0  0  0  0
    5.4012    1.5641    0.0000 C   0  0  0  0  0  0  0  0  0  0  0  0
  1 28  2  0  0  0  0
  2 15  1  0  0  0  0
  2 20  1  0  0  0  0
  2 21  1  0  0  0  0
  3 23  1  0  0  0  0
  3 25  1  0  0  0  0
  3 27  1  0  0  0  0
  4 16  2  3  0  0  0
  5 26  1  0  0  0  0
  5 28  1  0  0  0  0
  6  7  1  0  0  0  0
  6  8  1  0  0  0  0
  6 11  2  0  0  0  0
  7 10  2  0  0  0  0
  7 16  1  0  0  0  0
  8 13  2  0  0  0  0
  8 14  1  0  0  0  0
  9 10  1  0  0  0  0
  9 12  2  0  0  0  0
  9 15  1  0  0  0  0
 11 12  1  0  0  0  0
 13 18  1  0  0  0  0
 14 19  2  0  0  0  0
 17 18  2  0  0  0  0
 17 19  1  0  0  0  0
 17 22  1  0  0  0  0
 20 23  1  0  0  0  0
 21 24  1  0  0  0  0
 22 26  1  0  0  0  0
 24 25  1  0  0  0  0
 28 29  1  0  0  0  0
M  END
> <PUBCHEM_COMPOUND_ID_TYPE>
0

> <PUBCHEM_TOTAL_CHARGE>
0

> <PUBCHEM_SUBSTANCE_ID>
310943582

> <PUBCHEM_SUBSTANCE_VERSION>
1

> <PUBCHEM_EXT_DATASOURCE_NAME>
4488

> <PUBCHEM_EXT_DATASOURCE_REGID>
SCHEMBL16121649

> <PUBCHEM_SUBSTANCE_COMMENT>
InChI=1S/C24H32N4O/c1-19(29)26-11-10-20-4-7-22(8-5-20)24-9-6-21(16-23(24)17-25)18-28-13-3-12-27(2)14-15-28/h4-9,16-17,25H,3,10-15,18H2,1-2H3,(H,26,29)
InChIKey=BFUFDAPMZAHHLH-UHFFFAOYSA-N

> <PUBCHEM_SUBSTANCE_SYNONYM>
SCHEMBL16121649

> <PUBCHEM_XREF_EXT_ID>
SCHEMBL16121649

> <PUBCHEM_EXT_DATASOURCE_URL>
https://www.surechembl.org/

> <PUBCHEM_EXT_SUBSTANCE_URL>
https://www.surechembl.org/chemical/SCHEMBL16121649

> <PUBCHEM_CID_ASSOCIATIONS>
117609986  1

> <PUBCHEM_COORDINATE_TYPE>
1
3

$$$$
