310949431
  -OEChem-07211613022D

 27 30  0     0  0  0  0  0  0999 V2000
   -2.8751   -1.0767    0.0000 O   0  0  0  0  0  0  0  0  0  0  0  0
    3.5394   -0.8018    0.0000 O   0  0  0  0  0  0  0  0  0  0  0  0
   -1.4318    0.5957    0.0000 N   0  0  0  0  0  0  0  0  0  0  0  0
    0.0114    0.5957    0.0000 N   0  0  0  0  0  0  0  0  0  0  0  0
   -2.8751    0.5957    0.0000 N   0  0  0  0  0  0  0  0  0  0  0  0
   -1.4318    2.2451    0.0000 N   0  0  0  0  0  0  0  0  0  0  0  0
    2.3710   -1.4433    0.0000 N   0  0  0  0  0  0  0  0  0  0  0  0
    3.6082   -2.2451    0.0000 N   0  0  0  0  0  0  0  0  0  0  0  0
   -0.7217    1.0080    0.0000 C   0  0  0  0  0  0  0  0  0  0  0  0
   -0.6987    1.8327    0.0000 C   0  0  0  0  0  0  0  0  0  0  0  0
   -2.1649    1.0080    0.0000 C   0  0  0  0  0  0  0  0  0  0  0  0
    0.7445    1.0080    0.0000 C   0  0  0  0  0  0  0  0  0  0  0  0
    1.4776    0.5957    0.0000 C   0  0  0  0  0  0  0  0  0  0  0  0
   -0.0114    2.2222    0.0000 C   0  0  0  0  0  0  0  0  0  0  0  0
   -2.1191    1.8327    0.0000 C   0  0  0  0  0  0  0  0  0  0  0  0
    0.7445    1.8327    0.0000 C   0  0  0  0  0  0  0  0  0  0  0  0
    1.5005   -0.2291    0.0000 C   0  0  0  0  0  0  0  0  0  0  0  0
   -3.5853    0.1833    0.0000 C   0  0  0  0  0  0  0  0  0  0  0  0
   -2.1420    0.1604    0.0000 C   0  0  0  0  0  0  0  0  0  0  0  0
    2.1878    0.9851    0.0000 C   0  0  0  0  0  0  0  0  0  0  0  0
    2.2107   -0.6414    0.0000 C   0  0  0  0  0  0  0  0  0  0  0  0
   -3.6082   -0.6414    0.0000 C   0  0  0  0  0  0  0  0  0  0  0  0
   -2.1420   -0.6414    0.0000 C   0  0  0  0  0  0  0  0  0  0  0  0
    2.9208    0.5957    0.0000 C   0  0  0  0  0  0  0  0  0  0  0  0
    3.1958   -1.5578    0.0000 C   0  0  0  0  0  0  0  0  0  0  0  0
    2.9208   -0.2291    0.0000 C   0  0  0  0  0  0  0  0  0  0  0  0
    2.8980   -0.2291    0.0000 C   0  0  0  0  0  0  0  0  0  0  0  0
  1 22  1  0  0  0  0
  1 23  1  0  0  0  0
  2 25  1  0  0  0  0
  2 26  1  0  0  0  0
  3  9  2  0  0  0  0
  3 11  1  0  0  0  0
  4  9  1  0  0  0  0
  4 12  2  0  0  0  0
  5 11  1  0  0  0  0
  5 18  1  0  0  0  0
  5 19  1  0  0  0  0
  6 10  2  0  0  0  0
  6 15  1  0  0  0  0
  7 21  1  0  0  0  0
  7 25  2  0  0  0  0
  8 25  1  0  0  0  0
  9 10  1  0  0  0  0
 10 14  1  0  0  0  0
 11 15  2  0  0  0  0
 12 13  1  0  0  0  0
 12 16  1  0  0  0  0
 13 17  2  0  0  0  0
 13 20  1  0  0  0  0
 14 16  2  0  0  0  0
 17 21  1  0  0  0  0
 18 22  1  0  0  0  0
 19 23  1  0  0  0  0
 20 24  2  0  0  0  0
 21 27  2  0  0  0  0
 24 26  1  0  0  0  0
M  END
> <PUBCHEM_COMPOUND_ID_TYPE>
0

> <PUBCHEM_TOTAL_CHARGE>
0

> <PUBCHEM_SUBSTANCE_ID>
310949431

> <PUBCHEM_SUBSTANCE_VERSION>
1

> <PUBCHEM_EXT_DATASOURCE_NAME>
4488

> <PUBCHEM_EXT_DATASOURCE_REGID>
SCHEMBL16127625

> <PUBCHEM_SUBSTANCE_COMMENT>
InChI=1S/C19H20N6O2/c1-13-11-14(3-2-8-27-19(20)22-13)15-4-5-16-18(23-15)24-17(12-21-16)25-6-9-26-10-7-25/h2-5,11-12H,1,6-10H2,(H2,20,22)/b3-2-,14-11+
InChIKey=NTFTVPMJPOAIKK-GNRBKEDQSA-N

> <PUBCHEM_SUBSTANCE_SYNONYM>
SCHEMBL16127625

> <PUBCHEM_XREF_EXT_ID>
SCHEMBL16127625

> <PUBCHEM_EXT_DATASOURCE_URL>
https://www.surechembl.org/

> <PUBCHEM_EXT_SUBSTANCE_URL>
https://www.surechembl.org/chemical/SCHEMBL16127625

> <PUBCHEM_CID_ASSOCIATIONS>
117614882  1

> <PUBCHEM_COORDINATE_TYPE>
1
3

$$$$
