310948704
  -OEChem-07211613022D

 21 21  0     1  0  0  0  0  0999 V2000
    3.8043    0.9595    0.0000 I   0  0  0  0  0  0  0  0  0  0  0  0
   -1.6497    1.2456    0.0000 O   0  0  0  0  0  0  0  0  0  0  0  0
   -1.6497   -1.2456    0.0000 O   0  0  0  0  0  0  0  0  0  0  0  0
   -0.1515    1.1952    0.0000 O   0  0  0  0  0  0  0  0  0  0  0  0
   -0.2188   -0.4209    0.0000 O   0  0  0  0  0  0  0  0  0  0  0  0
   -3.0804   -0.4209    0.0000 O   0  0  0  0  0  0  0  0  0  0  0  0
   -3.8043    0.8248    0.0000 O   0  0  0  0  0  0  0  0  0  0  0  0
   -1.6497   -1.2456    0.0000 O   0  0  0  0  0  0  0  0  0  0  0  0
    2.0031    0.7743    0.0000 O   0  0  0  0  0  0  0  0  0  0  0  0
   -1.6497   -1.2456    0.0000 N   0  0  0  0  0  0  0  0  0  0  0  0
   -1.6497   -0.4040    0.0000 C   0  0  3  0  0  0  0  0  0  0  0  0
   -0.9426    0.0000    0.0000 C   0  0  3  0  0  0  0  0  0  0  0  0
   -2.3734    0.0000    0.0000 C   0  0  3  0  0  0  0  0  0  0  0  0
   -0.9258    0.8248    0.0000 C   0  0  3  0  0  0  0  0  0  0  0  0
   -2.3734    0.8416    0.0000 C   0  0  3  0  0  0  0  0  0  0  0  0
   -3.0973    1.2456    0.0000 C   0  0  0  0  0  0  0  0  0  0  0  0
   -1.6497   -1.2456    0.0000 C   0  0  0  0  0  0  0  0  0  0  0  0
    0.5892    0.7911    0.0000 C   0  0  0  0  0  0  0  0  0  0  0  0
    1.2793    1.1952    0.0000 C   0  0  0  0  0  0  0  0  0  0  0  0
    2.7101    1.1952    0.0000 C   0  0  0  0  0  0  0  0  0  0  0  0
    3.4171    0.7743    0.0000 C   0  0  0  0  0  0  0  0  0  0  0  0
  1 21  1  0  0  0  0
  2 14  1  0  0  0  0
  2 15  1  0  0  0  0
 11  3  1  1  0  0  0
  3 17  1  0  0  0  0
 14  4  1  6  0  0  0
  4 18  1  0  0  0  0
 12  5  1  1  0  0  0
 13  6  1  6  0  0  0
  7 16  1  0  0  0  0
  8 17  2  0  0  0  0
  9 19  1  0  0  0  0
  9 20  1  0  0  0  0
 10 17  1  0  0  0  0
 11 12  1  0  0  0  0
 11 13  1  0  0  0  0
 12 14  1  0  0  0  0
 13 15  1  0  0  0  0
 15 16  1  1  0  0  0
 18 19  1  0  0  0  0
 20 21  1  0  0  0  0
M  END
> <PUBCHEM_COMPOUND_ID_TYPE>
0

> <PUBCHEM_TOTAL_CHARGE>
0

> <PUBCHEM_SUBSTANCE_ID>
310948704

> <PUBCHEM_SUBSTANCE_VERSION>
1

> <PUBCHEM_EXT_DATASOURCE_NAME>
4488

> <PUBCHEM_EXT_DATASOURCE_REGID>
SCHEMBL16126888

> <PUBCHEM_SUBSTANCE_COMMENT>
InChI=1S/C11H20INO8/c12-1-2-18-3-4-19-10-8(16)9(21-11(13)17)7(15)6(5-14)20-10/h6-10,14-16H,1-5H2,(H2,13,17)/t6-,7-,8+,9+,10+/m1/s1
InChIKey=HHQSOWMOORQAIK-ZJDVBMNYSA-N

> <PUBCHEM_SUBSTANCE_SYNONYM>
SCHEMBL16126888

> <PUBCHEM_XREF_EXT_ID>
SCHEMBL16126888

> <PUBCHEM_EXT_DATASOURCE_URL>
https://www.surechembl.org/

> <PUBCHEM_EXT_SUBSTANCE_URL>
https://www.surechembl.org/chemical/SCHEMBL16126888

> <PUBCHEM_CID_ASSOCIATIONS>
117614245  1

> <PUBCHEM_COORDINATE_TYPE>
1
3

> <PUBCHEM_BONDANNOTATIONS>
15  16  5
11  3  5
14  4  6
12  5  5
13  6  6

$$$$
