310948199
  -OEChem-07211613022D

 45 50  0     0  0  0  0  0  0999 V2000
    2.9639   -0.2141    0.0000 S   0  0  0  0  0  0  0  0  0  0  0  0
    3.2208    3.0406    0.0000 F   0  0  0  0  0  0  0  0  0  0  0  0
    3.6319    2.3211    0.0000 F   0  0  0  0  0  0  0  0  0  0  0  0
    2.3815   -3.0406    0.0000 F   0  0  0  0  0  0  0  0  0  0  0  0
   -1.8496    0.8994    0.0000 O   0  0  0  0  0  0  0  0  0  0  0  0
    2.0389    2.6637    0.0000 O   0  0  0  0  0  0  0  0  0  0  0  0
    2.7070    1.4988    0.0000 O   0  0  0  0  0  0  0  0  0  0  0  0
    2.9639   -0.2141    0.0000 O   0  0  0  0  0  0  0  0  0  0  0  0
    2.9639   -0.2141    0.0000 O   0  0  0  0  0  0  0  0  0  0  0  0
   -3.6310    1.4988    0.0000 O   0  0  0  0  0  0  0  0  0  0  0  0
    3.7348   -2.5952    0.0000 O   0  0  0  0  0  0  0  0  0  0  0  0
   -1.0616    1.9956    0.0000 N   0  0  0  0  0  0  0  0  0  0  0  0
   -2.7917   -1.1391    0.0000 N   0  0  0  0  0  0  0  0  0  0  0  0
   -3.5112   -0.7280    0.0000 N   0  0  0  0  0  0  0  0  0  0  0  0
   -0.8218   -0.1113    0.0000 C   0  0  0  0  0  0  0  0  0  0  0  0
   -1.0616    0.6423    0.0000 C   0  0  0  0  0  0  0  0  0  0  0  0
   -0.5819    1.3447    0.0000 C   0  0  0  0  0  0  0  0  0  0  0  0
   -1.3699   -0.7622    0.0000 C   0  0  0  0  0  0  0  0  0  0  0  0
    0.2403    1.3276    0.0000 C   0  0  0  0  0  0  0  0  0  0  0  0
   -2.1750   -0.5738    0.0000 C   0  0  0  0  0  0  0  0  0  0  0  0
    0.2403   -1.1049    0.0000 C   0  0  0  0  0  0  0  0  0  0  0  0
   -0.0166   -0.3169    0.0000 C   0  0  0  0  0  0  0  0  0  0  0  0
    1.4907    2.0470    0.0000 C   0  0  0  0  0  0  0  0  0  0  0  0
    1.0626   -1.2762    0.0000 C   0  0  0  0  0  0  0  0  0  0  0  0
    1.9018    1.3447    0.0000 C   0  0  0  0  0  0  0  0  0  0  0  0
    0.6685    2.0299    0.0000 C   0  0  0  0  0  0  0  0  0  0  0  0
   -1.8496    1.7558    0.0000 C   0  0  0  0  0  0  0  0  0  0  0  0
   -1.0959   -1.5503    0.0000 C   0  0  0  0  0  0  0  0  0  0  0  0
    2.7926    2.3382    0.0000 C   0  0  0  0  0  0  0  0  0  0  0  0
    2.4330   -0.8480    0.0000 C   0  0  0  0  0  0  0  0  0  0  0  0
   -0.2907   -1.7044    0.0000 C   0  0  0  0  0  0  0  0  0  0  0  0
    0.6685    0.6252    0.0000 C   0  0  0  0  0  0  0  0  0  0  0  0
   -2.5006    0.1627    0.0000 C   0  0  0  0  0  0  0  0  0  0  0  0
    1.6107   -0.6766    0.0000 C   0  0  0  0  0  0  0  0  0  0  0  0
    2.6728   -1.6188    0.0000 C   0  0  0  0  0  0  0  0  0  0  0  0
    1.4907    0.6252    0.0000 C   0  0  0  0  0  0  0  0  0  0  0  0
   -3.3227    0.0942    0.0000 C   0  0  0  0  0  0  0  0  0  0  0  0
    1.3195   -2.0641    0.0000 C   0  0  0  0  0  0  0  0  0  0  0  0
    2.1245   -2.2354    0.0000 C   0  0  0  0  0  0  0  0  0  0  0  0
   -3.8880    0.6937    0.0000 C   0  0  0  0  0  0  0  0  0  0  0  0
   -2.5348    2.2183    0.0000 C   0  0  0  0  0  0  0  0  0  0  0  0
    3.4949   -1.8071    0.0000 C   0  0  0  0  0  0  0  0  0  0  0  0
   -2.6889   -1.9956    0.0000 C   0  0  0  0  0  0  0  0  0  0  0  0
    4.6931   -1.9973    0.0000 C   0  0  0  0  0  0  0  0  0  0  0  0
   -4.6931    0.5224    0.0000 C   0  0  0  0  0  0  0  0  0  0  0  0
  1  8  2  0  0  0  0
  1  9  2  0  0  0  0
  1 30  1  0  0  0  0
  1 44  1  0  0  0  0
  2 29  1  0  0  0  0
  3 29  1  0  0  0  0
  4 39  1  0  0  0  0
  5 16  1  0  0  0  0
  5 27  1  0  0  0  0
  6 23  1  0  0  0  0
  6 29  1  0  0  0  0
  7 25  1  0  0  0  0
  7 29  1  0  0  0  0
 10 40  2  0  0  0  0
 11 42  1  0  0  0  0
 12 17  1  0  0  0  0
 12 27  2  0  0  0  0
 13 14  1  0  0  0  0
 13 20  1  0  0  0  0
 13 43  1  0  0  0  0
 14 37  2  0  0  0  0
 15 16  1  0  0  0  0
 15 18  2  0  0  0  0
 15 22  1  0  0  0  0
 16 17  2  0  0  0  0
 17 19  1  0  0  0  0
 18 20  1  0  0  0  0
 18 28  1  0  0  0  0
 19 26  1  0  0  0  0
 19 32  2  0  0  0  0
 20 33  2  0  0  0  0
 21 22  2  0  0  0  0
 21 24  1  0  0  0  0
 21 31  1  0  0  0  0
 23 25  1  0  0  0  0
 23 26  2  0  0  0  0
 24 34  2  0  0  0  0
 24 38  1  0  0  0  0
 25 36  2  0  0  0  0
 27 41  1  0  0  0  0
 28 31  2  0  0  0  0
 30 34  1  0  0  0  0
 30 35  2  0  0  0  0
 32 36  1  0  0  0  0
 33 37  1  0  0  0  0
 35 39  1  0  0  0  0
 35 42  1  0  0  0  0
 37 40  1  0  0  0  0
 38 39  2  0  0  0  0
 40 45  1  0  0  0  0
M  END
> <PUBCHEM_COMPOUND_ID_TYPE>
0

> <PUBCHEM_TOTAL_CHARGE>
0

> <PUBCHEM_SUBSTANCE_ID>
310948199

> <PUBCHEM_SUBSTANCE_VERSION>
1

> <PUBCHEM_EXT_DATASOURCE_NAME>
4488

> <PUBCHEM_EXT_DATASOURCE_REGID>
SCHEMBL16126376

> <PUBCHEM_SUBSTANCE_COMMENT>
InChI=1S/C31H24F3N3O7S/c1-15(39)24-13-25(37(3)36-24)20-7-5-17(19-10-23(32)22(14-38)28(12-19)45(4,40)41)9-21(20)30-29(35-16(2)42-30)18-6-8-26-27(11-18)44-31(33,34)43-26/h5-13,38H,14H2,1-4H3
InChIKey=WGMSDYWTKAQRQG-UHFFFAOYSA-N

> <PUBCHEM_SUBSTANCE_SYNONYM>
SCHEMBL16126376

> <PUBCHEM_XREF_EXT_ID>
SCHEMBL16126376

> <PUBCHEM_EXT_DATASOURCE_URL>
https://www.surechembl.org/

> <PUBCHEM_EXT_SUBSTANCE_URL>
https://www.surechembl.org/chemical/SCHEMBL16126376

> <PUBCHEM_CID_ASSOCIATIONS>
117613779  1

> <PUBCHEM_COORDINATE_TYPE>
1
3

$$$$
