310941445
  -OEChem-07211613022D

 87 94  0     0  0  0  0  0  0999 V2000
  -11.2304   -2.0561    0.0000 Cl  0  0  0  0  0  0  0  0  0  0  0  0
   -0.7062    2.4061    0.0000 S   0  0  0  0  0  0  0  0  0  0  0  0
    1.7811    3.8435    0.0000 S   0  0  0  0  0  0  0  0  0  0  0  0
   10.4180    2.4061    0.0000 S   0  0  0  0  0  0  0  0  0  0  0  0
    7.9182    3.8435    0.0000 S   0  0  0  0  0  0  0  0  0  0  0  0
   -0.7062    1.5687    0.0000 O   0  0  0  0  0  0  0  0  0  0  0  0
   -1.5061    2.3811    0.0000 O   0  0  0  0  0  0  0  0  0  0  0  0
   -0.7187    3.2060    0.0000 O   0  0  0  0  0  0  0  0  0  0  0  0
    1.0937    4.2185    0.0000 O   0  0  0  0  0  0  0  0  0  0  0  0
    2.4936    3.4560    0.0000 O   0  0  0  0  0  0  0  0  0  0  0  0
    2.1561    4.5434    0.0000 O   0  0  0  0  0  0  0  0  0  0  0  0
   10.4180    3.1935    0.0000 O   0  0  0  0  0  0  0  0  0  0  0  0
   10.4180    1.5936    0.0000 O   0  0  0  0  0  0  0  0  0  0  0  0
   11.2304    2.4061    0.0000 O   0  0  0  0  0  0  0  0  0  0  0  0
    7.9182    3.8435    0.0000 O   0  0  0  0  0  0  0  0  0  0  0  0
    7.9182    3.8435    0.0000 O   0  0  0  0  0  0  0  0  0  0  0  0
    7.9182    3.8435    0.0000 O   0  0  0  0  0  0  0  0  0  0  0  0
   -2.4061    0.4562    0.0000 O   0  0  0  0  0  0  0  0  0  0  0  0
   -5.2933   -0.3812    0.0000 O   0  0  0  0  0  0  0  0  0  0  0  0
    1.9436   -0.3812    0.0000 N   0  0  0  0  0  0  0  0  0  0  0  0
   -3.1185   -0.7937    0.0000 N   0  0  0  0  0  0  0  0  0  0  0  0
    1.7811    0.9562    0.0000 C   0  0  0  0  0  0  0  0  0  0  0  0
    2.6186    0.7937    0.0000 C   0  0  0  0  0  0  0  0  0  0  0  0
    1.3687    0.2437    0.0000 C   0  0  0  0  0  0  0  0  0  0  0  0
    1.3687    1.6811    0.0000 C   0  0  0  0  0  0  0  0  0  0  0  0
    2.6811   -0.0313    0.0000 C   0  0  0  0  0  0  0  0  0  0  0  0
    0.5437    1.6936    0.0000 C   0  0  0  0  0  0  0  0  0  0  0  0
    0.1313    2.4061    0.0000 C   0  0  0  0  0  0  0  0  0  0  0  0
    0.5437    0.2562    0.0000 C   0  0  0  0  0  0  0  0  0  0  0  0
    1.7811    2.3936    0.0000 C   0  0  0  0  0  0  0  0  0  0  0  0
    0.1313    0.9687    0.0000 C   0  0  0  0  0  0  0  0  0  0  0  0
    1.3687    3.1185    0.0000 C   0  0  0  0  0  0  0  0  0  0  0  0
    0.5437    3.1185    0.0000 C   0  0  0  0  0  0  0  0  0  0  0  0
    3.4185   -0.4562    0.0000 C   0  0  0  0  0  0  0  0  0  0  0  0
    3.0185    1.5061    0.0000 C   0  0  0  0  0  0  0  0  0  0  0  0
    3.4435    0.7937    0.0000 C   0  0  0  0  0  0  0  0  0  0  0  0
    1.2186   -0.7937    0.0000 C   0  0  0  0  0  0  0  0  0  0  0  0
    4.1309   -0.0438    0.0000 C   0  0  0  0  0  0  0  0  0  0  0  0
    8.3432    1.6811    0.0000 C   0  0  0  0  0  0  0  0  0  0  0  0
    7.9306    0.9687    0.0000 C   0  0  0  0  0  0  0  0  0  0  0  0
    0.4812   -0.3812    0.0000 C   0  0  0  0  0  0  0  0  0  0  0  0
    9.1681    1.6811    0.0000 C   0  0  0  0  0  0  0  0  0  0  0  0
    7.1057    0.7937    0.0000 C   0  0  0  0  0  0  0  0  0  0  0  0
    9.5806    2.4061    0.0000 C   0  0  0  0  0  0  0  0  0  0  0  0
    8.3432    0.2562    0.0000 C   0  0  0  0  0  0  0  0  0  0  0  0
    8.3307    3.1435    0.0000 C   0  0  0  0  0  0  0  0  0  0  0  0
    7.9306    2.4061    0.0000 C   0  0  0  0  0  0  0  0  0  0  0  0
    9.1805    3.1185    0.0000 C   0  0  0  0  0  0  0  0  0  0  0  0
    7.0057   -0.0313    0.0000 C   0  0  0  0  0  0  0  0  0  0  0  0
    9.5806    0.9562    0.0000 C   0  0  0  0  0  0  0  0  0  0  0  0
    4.8684   -0.4562    0.0000 C   0  0  0  0  0  0  0  0  0  0  0  0
    9.1681    0.2437    0.0000 C   0  0  0  0  0  0  0  0  0  0  0  0
   -0.2313   -0.7937    0.0000 C   0  0  0  0  0  0  0  0  0  0  0  0
    6.3058   -0.4562    0.0000 C   0  0  0  0  0  0  0  0  0  0  0  0
    6.2933    0.7812    0.0000 C   0  0  0  0  0  0  0  0  0  0  0  0
    6.6933    1.4936    0.0000 C   0  0  0  0  0  0  0  0  0  0  0  0
    5.5683   -0.0438    0.0000 C   0  0  0  0  0  0  0  0  0  0  0  0
    8.0057   -0.1562    0.0000 C   0  0  0  0  0  0  0  0  0  0  0  0
    7.5432   -0.2062    0.0000 C   0  0  0  0  0  0  0  0  0  0  0  0
   -0.9687   -0.3812    0.0000 C   0  0  0  0  0  0  0  0  0  0  0  0
   -1.6811   -0.7937    0.0000 C   0  0  0  0  0  0  0  0  0  0  0  0
   -2.4061   -0.3812    0.0000 C   0  0  0  0  0  0  0  0  0  0  0  0
   -8.1681   -2.0436    0.0000 C   0  0  0  0  0  0  0  0  0  0  0  0
   -8.9056   -1.6187    0.0000 C   0  0  0  0  0  0  0  0  0  0  0  0
   -7.4557   -1.6311    0.0000 C   0  0  0  0  0  0  0  0  0  0  0  0
   -8.1681   -2.8810    0.0000 C   0  0  0  0  0  0  0  0  0  0  0  0
   -8.8806   -0.7812    0.0000 C   0  0  0  0  0  0  0  0  0  0  0  0
   -3.8559   -0.3812    0.0000 C   0  0  0  0  0  0  0  0  0  0  0  0
   -6.7307   -2.0436    0.0000 C   0  0  0  0  0  0  0  0  0  0  0  0
   -7.4432   -0.7937    0.0000 C   0  0  0  0  0  0  0  0  0  0  0  0
   -9.6180   -2.0436    0.0000 C   0  0  0  0  0  0  0  0  0  0  0  0
   -6.0058   -0.7937    0.0000 C   0  0  0  0  0  0  0  0  0  0  0  0
   -8.8806   -3.2935    0.0000 C   0  0  0  0  0  0  0  0  0  0  0  0
   -7.4557   -3.2935    0.0000 C   0  0  0  0  0  0  0  0  0  0  0  0
   -3.1061   -1.6311    0.0000 C   0  0  0  0  0  0  0  0  0  0  0  0
   -6.0058   -1.6187    0.0000 C   0  0  0  0  0  0  0  0  0  0  0  0
   -6.7433   -0.3937    0.0000 C   0  0  0  0  0  0  0  0  0  0  0  0
   -9.6055   -0.3688    0.0000 C   0  0  0  0  0  0  0  0  0  0  0  0
   -8.1681   -0.3688    0.0000 C   0  0  0  0  0  0  0  0  0  0  0  0
   -4.5559   -0.7937    0.0000 C   0  0  0  0  0  0  0  0  0  0  0  0
   -8.8806   -4.1309    0.0000 C   0  0  0  0  0  0  0  0  0  0  0  0
   -7.4557   -4.1309    0.0000 C   0  0  0  0  0  0  0  0  0  0  0  0
   -9.6055    0.4562    0.0000 C   0  0  0  0  0  0  0  0  0  0  0  0
   -8.1681    0.4562    0.0000 C   0  0  0  0  0  0  0  0  0  0  0  0
  -10.3430   -1.6311    0.0000 C   0  0  0  0  0  0  0  0  0  0  0  0
   -8.1681   -4.5434    0.0000 C   0  0  0  0  0  0  0  0  0  0  0  0
   -8.9056    0.8562    0.0000 C   0  0  0  0  0  0  0  0  0  0  0  0
  1 85  1  0  0  0  0
  2  6  2  0  0  0  0
  2  7  2  0  0  0  0
  2  8  1  0  0  0  0
  2 28  1  0  0  0  0
  3  9  2  0  0  0  0
  3 10  2  0  0  0  0
  3 11  1  0  0  0  0
  3 32  1  0  0  0  0
  4 12  2  0  0  0  0
  4 13  2  0  0  0  0
  4 14  1  0  0  0  0
  4 44  1  0  0  0  0
  5 15  2  0  0  0  0
  5 16  2  0  0  0  0
  5 17  1  0  0  0  0
  5 46  1  0  0  0  0
 18 62  2  0  0  0  0
 19 72  1  0  0  0  0
 19 80  1  0  0  0  0
 20 24  1  0  0  0  0
 20 26  1  0  0  0  0
 20 37  1  0  0  0  0
 21 62  1  0  0  0  0
 21 68  1  0  0  0  0
 21 75  1  0  0  0  0
 22 23  1  0  0  0  0
 22 24  2  0  0  0  0
 22 25  1  0  0  0  0
 23 26  1  0  0  0  0
 23 35  1  0  0  0  0
 23 36  1  0  0  0  0
 24 29  1  0  0  0  0
 25 27  2  0  0  0  0
 25 30  1  0  0  0  0
 26 34  2  0  0  0  0
 27 28  1  0  0  0  0
 27 31  1  0  0  0  0
 28 33  2  0  0  0  0
 29 31  2  0  0  0  0
 30 32  2  0  0  0  0
 32 33  1  0  0  0  0
 34 38  1  0  0  0  0
 37 41  1  0  0  0  0
 38 51  2  0  0  0  0
 39 40  1  0  0  0  0
 39 42  1  0  0  0  0
 39 47  2  0  0  0  0
 40 43  1  0  0  0  0
 40 45  2  0  0  0  0
 41 53  1  0  0  0  0
 42 44  2  0  0  0  0
 42 50  1  0  0  0  0
 43 49  1  0  0  0  0
 43 55  1  0  0  0  0
 43 56  1  0  0  0  0
 44 48  1  0  0  0  0
 45 52  1  0  0  0  0
 45 58  1  0  0  0  0
 46 47  1  0  0  0  0
 46 48  2  0  0  0  0
 49 54  1  0  0  0  0
 49 59  2  0  0  0  0
 50 52  2  0  0  0  0
 51 57  1  0  0  0  0
 53 60  1  0  0  0  0
 54 57  2  0  0  0  0
 60 61  1  0  0  0  0
 61 62  1  0  0  0  0
 63 64  2  0  0  0  0
 63 65  1  0  0  0  0
 63 66  1  0  0  0  0
 64 67  1  0  0  0  0
 64 71  1  0  0  0  0
 65 69  2  0  0  0  0
 65 70  1  0  0  0  0
 66 73  2  0  0  0  0
 66 74  1  0  0  0  0
 67 78  2  0  0  0  0
 67 79  1  0  0  0  0
 68 80  1  0  0  0  0
 69 76  1  0  0  0  0
 70 77  2  0  0  0  0
 71 85  1  0  0  0  0
 72 76  2  0  0  0  0
 72 77  1  0  0  0  0
 73 81  1  0  0  0  0
 74 82  2  0  0  0  0
 78 83  1  0  0  0  0
 79 84  2  0  0  0  0
 81 86  2  0  0  0  0
 82 86  1  0  0  0  0
 83 87  2  0  0  0  0
 84 87  1  0  0  0  0
M  END
> <PUBCHEM_COMPOUND_ID_TYPE>
0

> <PUBCHEM_TOTAL_CHARGE>
0

> <PUBCHEM_SUBSTANCE_ID>
310941445

> <PUBCHEM_SUBSTANCE_VERSION>
1

> <PUBCHEM_EXT_DATASOURCE_NAME>
4488

> <PUBCHEM_EXT_DATASOURCE_REGID>
SCHEMBL16119405

> <PUBCHEM_SUBSTANCE_COMMENT>
InChI=1S/C66H69ClN2O14S4/c1-44-27-32-53-55(40-50(84(71,72)73)42-58(53)86(77,78)79)63(44)65(3,4)45(2)20-12-8-17-25-60-66(5,6)64-56-41-51(85(74,75)76)43-59(87(80,81)82)54(56)33-34-57(64)69(60)37-19-11-18-26-61(70)68(7)38-39-83-49-30-28-48(29-31-49)62(47-23-15-10-16-24-47)52(35-36-67)46-21-13-9-14-22-46/h8-10,12-17,20-25,27-34,40-43H,2,11,18-19,26,35-39H2,1,3-7H3,(H,71,72,73)(H,74,75,76)(H,77,78,79)(H,80,81,82)/b17-8+,20-12+,60-25+,62-52-
InChIKey=JXFXAVGOCMGNTA-KHAKLKJXSA-N

> <PUBCHEM_SUBSTANCE_SYNONYM>
SCHEMBL16119405

> <PUBCHEM_XREF_EXT_ID>
SCHEMBL16119405

> <PUBCHEM_EXT_DATASOURCE_URL>
https://www.surechembl.org/

> <PUBCHEM_EXT_SUBSTANCE_URL>
https://www.surechembl.org/chemical/SCHEMBL16119405

> <PUBCHEM_CID_ASSOCIATIONS>
117608269  1

> <PUBCHEM_COORDINATE_TYPE>
1
3

$$$$
