310944240
  -OEChem-07211613022D

 61 72  0     0  0  0  0  0  0999 V2000
   -0.2432    3.2699    0.0000 F   0  0  0  0  0  0  0  0  0  0  0  0
   -1.7295    0.5945    0.0000 N   0  0  0  0  0  0  0  0  0  0  0  0
    1.5944    0.6486    0.0000 N   0  0  0  0  0  0  0  0  0  0  0  0
   -2.4321    2.8105    0.0000 N   0  0  0  0  0  0  0  0  0  0  0  0
    1.2431    2.4051    0.0000 N   0  0  0  0  0  0  0  0  0  0  0  0
   -0.9999    1.1891    0.0000 C   0  0  0  0  0  0  0  0  0  0  0  0
    0.4594    1.2161    0.0000 C   0  0  0  0  0  0  0  0  0  0  0  0
   -0.2162    0.7837    0.0000 C   0  0  0  0  0  0  0  0  0  0  0  0
   -2.5132    0.7026    0.0000 C   0  0  0  0  0  0  0  0  0  0  0  0
    2.5132    0.7837    0.0000 C   0  0  0  0  0  0  0  0  0  0  0  0
   -2.8916    0.0000    0.0000 C   0  0  0  0  0  0  0  0  0  0  0  0
    2.8105    0.0270    0.0000 C   0  0  0  0  0  0  0  0  0  0  0  0
   -1.5674   -0.2162    0.0000 C   0  0  0  0  0  0  0  0  0  0  0  0
    1.4593   -0.1621    0.0000 C   0  0  0  0  0  0  0  0  0  0  0  0
   -3.8374    1.3512    0.0000 C   0  0  0  0  0  0  0  0  0  0  0  0
    3.8374    1.3242    0.0000 C   0  0  0  0  0  0  0  0  0  0  0  0
   -2.2970   -0.5675    0.0000 C   0  0  0  0  0  0  0  0  0  0  0  0
    2.1889   -0.5405    0.0000 C   0  0  0  0  0  0  0  0  0  0  0  0
   -4.1887    0.6216    0.0000 C   0  0  0  0  0  0  0  0  0  0  0  0
    4.1617    0.6216    0.0000 C   0  0  0  0  0  0  0  0  0  0  0  0
   -0.9999    2.0268    0.0000 C   0  0  0  0  0  0  0  0  0  0  0  0
    0.5134    2.0268    0.0000 C   0  0  0  0  0  0  0  0  0  0  0  0
   -4.4319    1.9187    0.0000 C   0  0  0  0  0  0  0  0  0  0  0  0
    4.4319    1.9187    0.0000 C   0  0  0  0  0  0  0  0  0  0  0  0
   -2.9996    1.3782    0.0000 C   0  0  0  0  0  0  0  0  0  0  0  0
    2.9726    1.4052    0.0000 C   0  0  0  0  0  0  0  0  0  0  0  0
   -0.2432    2.4321    0.0000 C   0  0  0  0  0  0  0  0  0  0  0  0
   -5.0534    0.7296    0.0000 C   0  0  0  0  0  0  0  0  0  0  0  0
    4.9993    0.7296    0.0000 C   0  0  0  0  0  0  0  0  0  0  0  0
   -5.1615    1.5133    0.0000 C   0  0  0  0  0  0  0  0  0  0  0  0
    5.1615    1.4863    0.0000 C   0  0  0  0  0  0  0  0  0  0  0  0
   -3.7293   -0.0270    0.0000 C   0  0  0  0  0  0  0  0  0  0  0  0
    3.6752   -0.0270    0.0000 C   0  0  0  0  0  0  0  0  0  0  0  0
   -0.2432   -1.6484    0.0000 C   0  0  0  0  0  0  0  0  0  0  0  0
   -0.8377   -0.6756    0.0000 C   0  0  0  0  0  0  0  0  0  0  0  0
    0.7567   -0.5945    0.0000 C   0  0  0  0  0  0  0  0  0  0  0  0
   -2.2700   -1.4052    0.0000 C   0  0  0  0  0  0  0  0  0  0  0  0
    2.1889   -1.3782    0.0000 C   0  0  0  0  0  0  0  0  0  0  0  0
   -1.7295    2.4321    0.0000 C   0  0  0  0  0  0  0  0  0  0  0  0
    1.2431    2.4051    0.0000 C   0  0  0  0  0  0  0  0  0  0  0  0
   -5.6750    0.2162    0.0000 C   0  0  0  0  0  0  0  0  0  0  0  0
    5.6750    0.1621    0.0000 C   0  0  0  0  0  0  0  0  0  0  0  0
   -6.0263    1.7566    0.0000 C   0  0  0  0  0  0  0  0  0  0  0  0
    5.9993    1.7295    0.0000 C   0  0  0  0  0  0  0  0  0  0  0  0
   -5.0534    2.4592    0.0000 C   0  0  0  0  0  0  0  0  0  0  0  0
   -3.6752    2.1349    0.0000 C   0  0  0  0  0  0  0  0  0  0  0  0
    3.6212    2.1349    0.0000 C   0  0  0  0  0  0  0  0  0  0  0  0
    5.0264    2.4592    0.0000 C   0  0  0  0  0  0  0  0  0  0  0  0
    0.5134   -2.0538    0.0000 C   0  0  0  0  0  0  0  0  0  0  0  0
   -0.9458   -2.0808    0.0000 C   0  0  0  0  0  0  0  0  0  0  0  0
   -0.8647   -1.4593    0.0000 C   0  0  0  0  0  0  0  0  0  0  0  0
    0.7567   -1.3782    0.0000 C   0  0  0  0  0  0  0  0  0  0  0  0
   -1.6214   -1.8376    0.0000 C   0  0  0  0  0  0  0  0  0  0  0  0
    1.5404   -1.7836    0.0000 C   0  0  0  0  0  0  0  0  0  0  0  0
   -6.4587    0.4864    0.0000 C   0  0  0  0  0  0  0  0  0  0  0  0
    6.4587    0.4324    0.0000 C   0  0  0  0  0  0  0  0  0  0  0  0
   -6.5938    1.2431    0.0000 C   0  0  0  0  0  0  0  0  0  0  0  0
    6.5938    1.2161    0.0000 C   0  0  0  0  0  0  0  0  0  0  0  0
    0.5134   -2.8916    0.0000 C   0  0  0  0  0  0  0  0  0  0  0  0
   -0.9188   -2.8916    0.0000 C   0  0  0  0  0  0  0  0  0  0  0  0
   -0.1621   -3.2699    0.0000 C   0  0  0  0  0  0  0  0  0  0  0  0
  1 27  1  0  0  0  0
  2  6  1  0  0  0  0
  2  9  1  0  0  0  0
  2 13  1  0  0  0  0
  3  7  1  0  0  0  0
  3 10  1  0  0  0  0
  3 14  1  0  0  0  0
  4 39  3  0  0  0  0
  5 40  2  3  0  0  0
  6  8  1  0  0  0  0
  6 21  2  0  0  0  0
  7  8  2  0  0  0  0
  7 22  1  0  0  0  0
  8 34  1  0  0  0  0
  9 11  2  0  0  0  0
  9 25  1  0  0  0  0
 10 12  2  0  0  0  0
 10 26  1  0  0  0  0
 11 17  1  0  0  0  0
 11 32  1  0  0  0  0
 12 18  1  0  0  0  0
 12 33  1  0  0  0  0
 13 17  2  0  0  0  0
 13 35  1  0  0  0  0
 14 18  2  0  0  0  0
 14 36  1  0  0  0  0
 15 19  1  0  0  0  0
 15 23  1  0  0  0  0
 15 25  2  0  0  0  0
 16 20  1  0  0  0  0
 16 24  1  0  0  0  0
 16 26  2  0  0  0  0
 17 37  1  0  0  0  0
 18 38  1  0  0  0  0
 19 28  1  0  0  0  0
 19 32  2  0  0  0  0
 20 29  1  0  0  0  0
 20 33  2  0  0  0  0
 21 27  1  0  0  0  0
 21 39  1  0  0  0  0
 22 27  2  0  0  0  0
 22 40  1  0  0  0  0
 23 30  1  0  0  0  0
 23 45  1  0  0  0  0
 23 46  1  0  0  0  0
 24 31  1  0  0  0  0
 24 47  1  0  0  0  0
 24 48  1  0  0  0  0
 28 30  2  0  0  0  0
 28 41  1  0  0  0  0
 29 31  2  0  0  0  0
 29 42  1  0  0  0  0
 30 43  1  0  0  0  0
 31 44  1  0  0  0  0
 34 49  2  0  0  0  0
 34 50  1  0  0  0  0
 35 51  2  0  0  0  0
 36 52  2  0  0  0  0
 37 53  2  0  0  0  0
 38 54  2  0  0  0  0
 41 55  2  0  0  0  0
 42 56  2  0  0  0  0
 43 57  2  0  0  0  0
 44 58  2  0  0  0  0
 49 59  1  0  0  0  0
 50 60  2  0  0  0  0
 51 53  1  0  0  0  0
 52 54  1  0  0  0  0
 55 57  1  0  0  0  0
 56 58  1  0  0  0  0
 59 61  2  0  0  0  0
 60 61  1  0  0  0  0
M  END
> <PUBCHEM_COMPOUND_ID_TYPE>
0

> <PUBCHEM_TOTAL_CHARGE>
0

> <PUBCHEM_SUBSTANCE_ID>
310944240

> <PUBCHEM_SUBSTANCE_VERSION>
1

> <PUBCHEM_EXT_DATASOURCE_NAME>
4488

> <PUBCHEM_EXT_DATASOURCE_REGID>
SCHEMBL16122315

> <PUBCHEM_SUBSTANCE_COMMENT>
InChI=1S/C56H39FN4/c1-55(2)43-22-12-8-18-33(43)37-26-39-35-20-10-14-24-47(35)60(49(39)28-45(37)55)53-41(30-58)52(57)42(31-59)54(51(53)32-16-6-5-7-17-32)61-48-25-15-11-21-36(48)40-27-38-34-19-9-13-23-44(34)56(3,4)46(38)29-50(40)61/h5-30,58H,1-4H3
InChIKey=QVUYNAADNUDXPJ-UHFFFAOYSA-N

> <PUBCHEM_SUBSTANCE_SYNONYM>
SCHEMBL16122315

> <PUBCHEM_XREF_EXT_ID>
SCHEMBL16122315

> <PUBCHEM_EXT_DATASOURCE_URL>
https://www.surechembl.org/

> <PUBCHEM_EXT_SUBSTANCE_URL>
https://www.surechembl.org/chemical/SCHEMBL16122315

> <PUBCHEM_CID_ASSOCIATIONS>
117610511  1

> <PUBCHEM_COORDINATE_TYPE>
1
3

$$$$
