310944767
  -OEChem-07211613022D

 70 69  0     1  0  0  0  0  0999 V2000
   -8.9344   -0.1651    0.0000 O   0  0  0  0  0  0  0  0  0  0  0  0
   -6.1123   -0.9912    0.0000 O   0  0  0  0  0  0  0  0  0  0  0  0
   -6.7868   -2.2026    0.0000 O   0  0  0  0  0  0  0  0  0  0  0  0
  -11.0544   -2.1751    0.0000 O   0  0  0  0  0  0  0  0  0  0  0  0
  -11.8253   -1.0188    0.0000 O   0  0  0  0  0  0  0  0  0  0  0  0
   -7.5164    1.5143    0.0000 O   0  0  0  0  0  0  0  0  0  0  0  0
  -11.7978    1.4180    0.0000 O   0  0  0  0  0  0  0  0  0  0  0  0
  -10.4074    1.5418    0.0000 O   0  0  0  0  0  0  0  0  0  0  0  0
   -0.2891    2.2852    0.0000 O   0  0  0  0  0  0  0  0  0  0  0  0
    2.5468    1.4318    0.0000 O   0  0  0  0  0  0  0  0  0  0  0  0
    2.5468   -0.2065    0.0000 O   0  0  0  0  0  0  0  0  0  0  0  0
    0.4405   -2.2852    0.0000 O   0  0  0  0  0  0  0  0  0  0  0  0
   -0.9774   -1.4593    0.0000 O   0  0  0  0  0  0  0  0  0  0  0  0
    4.6944    1.0325    0.0000 O   0  0  0  0  0  0  0  0  0  0  0  0
    4.6944    0.2202    0.0000 O   0  0  0  0  0  0  0  0  0  0  0  0
    6.8419   -0.2065    0.0000 O   0  0  0  0  0  0  0  0  0  0  0  0
    6.8419    1.4318    0.0000 O   0  0  0  0  0  0  0  0  0  0  0  0
    8.9482    0.2202    0.0000 O   0  0  0  0  0  0  0  0  0  0  0  0
    8.9482    1.0325    0.0000 O   0  0  0  0  0  0  0  0  0  0  0  0
   11.1095   -0.2065    0.0000 O   0  0  0  0  0  0  0  0  0  0  0  0
   11.1095    1.4318    0.0000 O   0  0  0  0  0  0  0  0  0  0  0  0
   -8.2186   -1.3904    0.0000 N   0  0  0  0  0  0  0  0  0  0  0  0
   -9.6365   -1.3904    0.0000 N   0  0  0  0  0  0  0  0  0  0  0  0
   -6.0710    1.5005    0.0000 N   0  0  0  0  0  0  0  0  0  0  0  0
    0.4268    1.0188    0.0000 N   0  0  0  0  0  0  0  0  0  0  0  0
    1.1564   -1.0463    0.0000 N   0  0  0  0  0  0  0  0  0  0  0  0
   -0.9774   -1.4593    0.0000 N   0  0  0  0  0  0  0  0  0  0  0  0
   -7.5164   -0.9224    0.0000 C   0  0  3  0  0  0  0  0  0  0  0  0
  -10.3799   -0.9361    0.0000 C   0  0  3  0  0  0  0  0  0  0  0  0
   -8.9482   -0.9361    0.0000 C   0  0  0  0  0  0  0  0  0  0  0  0
   -6.8006   -1.3767    0.0000 C   0  0  0  0  0  0  0  0  0  0  0  0
  -11.0957   -1.3767    0.0000 C   0  0  0  0  0  0  0  0  0  0  0  0
   -7.5027   -0.0826    0.0000 C   0  0  0  0  0  0  0  0  0  0  0  0
  -10.3799   -0.0826    0.0000 C   0  0  0  0  0  0  0  0  0  0  0  0
   -6.8006    0.3304    0.0000 C   0  0  0  0  0  0  0  0  0  0  0  0
  -11.0682    0.3166    0.0000 C   0  0  0  0  0  0  0  0  0  0  0  0
   -6.7731    1.1564    0.0000 C   0  0  0  0  0  0  0  0  0  0  0  0
  -11.0957    1.0875    0.0000 C   0  0  0  0  0  0  0  0  0  0  0  0
   -5.3551    1.1564    0.0000 C   0  0  0  0  0  0  0  0  0  0  0  0
   -4.6668    1.5694    0.0000 C   0  0  0  0  0  0  0  0  0  0  0  0
   -3.9234    1.1564    0.0000 C   0  0  0  0  0  0  0  0  0  0  0  0
   -3.2351    1.5694    0.0000 C   0  0  0  0  0  0  0  0  0  0  0  0
   -2.4918    1.1564    0.0000 C   0  0  0  0  0  0  0  0  0  0  0  0
   -1.8033    1.5694    0.0000 C   0  0  0  0  0  0  0  0  0  0  0  0
   -0.3029    1.4868    0.0000 C   0  0  0  0  0  0  0  0  0  0  0  0
   -0.9774    1.1013    0.0000 C   0  0  0  0  0  0  0  0  0  0  0  0
    0.4268   -1.3629    0.0000 C   0  0  0  0  0  0  0  0  0  0  0  0
    1.1288    1.5005    0.0000 C   0  0  0  0  0  0  0  0  0  0  0  0
    1.8723    1.1013    0.0000 C   0  0  0  0  0  0  0  0  0  0  0  0
   -0.3029   -0.9774    0.0000 C   0  0  0  0  0  0  0  0  0  0  0  0
    1.8447   -1.3767    0.0000 C   0  0  0  0  0  0  0  0  0  0  0  0
    2.5606   -0.9774    0.0000 C   0  0  0  0  0  0  0  0  0  0  0  0
    3.2764    1.1013    0.0000 C   0  0  0  0  0  0  0  0  0  0  0  0
    3.2626    0.2615    0.0000 C   0  0  0  0  0  0  0  0  0  0  0  0
    3.9786    1.5005    0.0000 C   0  0  0  0  0  0  0  0  0  0  0  0
    3.9786   -0.1376    0.0000 C   0  0  0  0  0  0  0  0  0  0  0  0
    5.4377   -0.1376    0.0000 C   0  0  0  0  0  0  0  0  0  0  0  0
    5.3964    1.5005    0.0000 C   0  0  0  0  0  0  0  0  0  0  0  0
    6.1123    0.2615    0.0000 C   0  0  0  0  0  0  0  0  0  0  0  0
    6.1261    1.1013    0.0000 C   0  0  0  0  0  0  0  0  0  0  0  0
    7.5440    0.2615    0.0000 C   0  0  0  0  0  0  0  0  0  0  0  0
    7.5715    1.1013    0.0000 C   0  0  0  0  0  0  0  0  0  0  0  0
    8.2874   -0.1376    0.0000 C   0  0  0  0  0  0  0  0  0  0  0  0
    8.2461    1.5005    0.0000 C   0  0  0  0  0  0  0  0  0  0  0  0
    9.7053   -0.1376    0.0000 C   0  0  0  0  0  0  0  0  0  0  0  0
   10.3936    0.2615    0.0000 C   0  0  0  0  0  0  0  0  0  0  0  0
    9.6777    1.5005    0.0000 C   0  0  0  0  0  0  0  0  0  0  0  0
   10.4212    1.1013    0.0000 C   0  0  0  0  0  0  0  0  0  0  0  0
   11.8253    0.2615    0.0000 C   0  0  0  0  0  0  0  0  0  0  0  0
   11.8253    1.0875    0.0000 C   0  0  0  0  0  0  0  0  0  0  0  0
  1 30  2  0  0  0  0
  2 31  2  0  0  0  0
  3 31  1  0  0  0  0
  4 32  2  0  0  0  0
  5 32  1  0  0  0  0
  6 37  2  0  0  0  0
  7 38  2  0  0  0  0
  8 38  1  0  0  0  0
  9 45  2  0  0  0  0
 10 49  1  0  0  0  0
 10 53  1  0  0  0  0
 11 52  1  0  0  0  0
 11 54  1  0  0  0  0
 12 47  2  0  0  0  0
 13 27  1  0  0  0  0
 13 50  1  0  0  0  0
 14 55  1  0  0  0  0
 14 58  1  0  0  0  0
 15 56  1  0  0  0  0
 15 57  1  0  0  0  0
 16 59  1  0  0  0  0
 16 61  1  0  0  0  0
 17 60  1  0  0  0  0
 17 62  1  0  0  0  0
 18 63  1  0  0  0  0
 18 65  1  0  0  0  0
 19 64  1  0  0  0  0
 19 67  1  0  0  0  0
 20 66  1  0  0  0  0
 20 69  1  0  0  0  0
 21 68  1  0  0  0  0
 21 70  1  0  0  0  0
 28 22  1  1  0  0  0
 22 30  1  0  0  0  0
 29 23  1  6  0  0  0
 23 30  1  0  0  0  0
 24 37  1  0  0  0  0
 24 39  1  0  0  0  0
 25 45  1  0  0  0  0
 25 48  1  0  0  0  0
 26 47  1  0  0  0  0
 26 51  1  0  0  0  0
 28 31  1  0  0  0  0
 28 33  1  0  0  0  0
 29 32  1  0  0  0  0
 29 34  1  0  0  0  0
 33 35  1  0  0  0  0
 34 36  1  0  0  0  0
 35 37  1  0  0  0  0
 36 38  1  0  0  0  0
 39 40  1  0  0  0  0
 40 41  1  0  0  0  0
 41 42  1  0  0  0  0
 42 43  1  0  0  0  0
 43 44  1  0  0  0  0
 44 46  1  0  0  0  0
 45 46  1  0  0  0  0
 47 50  1  0  0  0  0
 48 49  1  0  0  0  0
 51 52  1  0  0  0  0
 53 55  1  0  0  0  0
 54 56  1  0  0  0  0
 57 59  1  0  0  0  0
 58 60  1  0  0  0  0
 61 63  1  0  0  0  0
 62 64  1  0  0  0  0
 65 66  1  0  0  0  0
 67 68  1  0  0  0  0
 69 70  1  0  0  0  0
M  END
> <PUBCHEM_COMPOUND_ID_TYPE>
0

> <PUBCHEM_TOTAL_CHARGE>
0

> <PUBCHEM_SUBSTANCE_ID>
310944767

> <PUBCHEM_SUBSTANCE_VERSION>
1

> <PUBCHEM_EXT_DATASOURCE_NAME>
4488

> <PUBCHEM_EXT_DATASOURCE_REGID>
SCHEMBL16122846

> <PUBCHEM_SUBSTANCE_COMMENT>
InChI=1S/C43H80N6O21/c44-70-34-39(52)47-13-15-61-17-19-63-21-23-65-25-27-67-29-31-69-33-32-68-30-28-66-26-24-64-22-20-62-18-16-60-14-12-46-37(50)6-4-2-1-3-5-11-45-38(51)9-7-35(41(55)56)48-43(59)49-36(42(57)58)8-10-40(53)54/h35-36H,1-34,44H2,(H,45,51)(H,46,50)(H,47,52)(H,53,54)(H,55,56)(H,57,58)(H2,48,49,59)/t35-,36-/m0/s1
InChIKey=MHQDDPZPSLDYGZ-ZPGRZCPFSA-N

> <PUBCHEM_SUBSTANCE_SYNONYM>
SCHEMBL16122846

> <PUBCHEM_XREF_EXT_ID>
SCHEMBL16122846

> <PUBCHEM_EXT_DATASOURCE_URL>
https://www.surechembl.org/

> <PUBCHEM_EXT_SUBSTANCE_URL>
https://www.surechembl.org/chemical/SCHEMBL16122846

> <PUBCHEM_CID_ASSOCIATIONS>
117610983  1

> <PUBCHEM_COORDINATE_TYPE>
1
3

> <PUBCHEM_BONDANNOTATIONS>
28  22  5
29  23  6

$$$$
