310941882
  -OEChem-07211613022D

 18 19  0     1  0  0  0  0  0999 V2000
   -1.7895    1.0555    0.0000 F   0  0  0  0  0  0  0  0  0  0  0  0
   -0.6012    0.1468    0.0000 F   0  0  0  0  0  0  0  0  0  0  0  0
   -1.4400   -0.9437    0.0000 F   0  0  0  0  0  0  0  0  0  0  0  0
   -2.6422   -1.0136    0.0000 F   0  0  0  0  0  0  0  0  0  0  0  0
   -2.6981    0.2027    0.0000 F   0  0  0  0  0  0  0  0  0  0  0  0
   -0.2796   -1.3351    0.0000 O   0  0  0  0  0  0  0  0  0  0  0  0
   -0.6990    0.1748    0.0000 N   0  0  0  0  0  0  0  0  0  0  0  0
   -1.4959    0.2866    0.0000 C   0  0  0  0  0  0  0  0  0  0  0  0
   -2.0830   -0.3565    0.0000 C   0  0  0  0  0  0  0  0  0  0  0  0
    0.7130   -0.2306    0.0000 C   0  0  3  0  0  0  0  0  0  0  0  0
    0.1538    0.2167    0.0000 C   0  0  3  0  0  0  0  0  0  0  0  0
    1.3141    0.3146    0.0000 C   0  0  0  0  0  0  0  0  0  0  0  0
    0.7549    0.7759    0.0000 C   0  0  0  0  0  0  0  0  0  0  0  0
    1.9293    0.6781    0.0000 C   0  0  0  0  0  0  0  0  0  0  0  0
    0.7270   -1.0555    0.0000 C   0  0  0  0  0  0  0  0  0  0  0  0
    0.1818   -0.6221    0.0000 C   0  0  0  0  0  0  0  0  0  0  0  0
    2.6981    0.8597    0.0000 C   0  0  0  0  0  0  0  0  0  0  0  0
    2.6842    1.3351    0.0000 C   0  0  0  0  0  0  0  0  0  0  0  0
  1  8  1  0  0  0  0
  2  8  1  0  0  0  0
  3  9  1  0  0  0  0
  4  9  1  0  0  0  0
  5  9  1  0  0  0  0
  6 15  1  0  0  0  0
  6 16  1  0  0  0  0
  7  8  1  0  0  0  0
  7 10  1  0  0  0  0
  7 11  1  0  0  0  0
  8  9  1  0  0  0  0
 10 12  1  0  0  0  0
 10 15  1  0  0  0  0
 11 13  1  0  0  0  0
 11 16  1  0  0  0  0
 12 14  1  0  0  0  0
 13 14  1  0  0  0  0
 14 17  1  0  0  0  0
 17 18  1  0  0  0  0
M  END
> <PUBCHEM_COMPOUND_ID_TYPE>
0

> <PUBCHEM_TOTAL_CHARGE>
0

> <PUBCHEM_SUBSTANCE_ID>
310941882

> <PUBCHEM_SUBSTANCE_VERSION>
1

> <PUBCHEM_EXT_DATASOURCE_NAME>
4488

> <PUBCHEM_EXT_DATASOURCE_REGID>
SCHEMBL16119914

> <PUBCHEM_SUBSTANCE_COMMENT>
InChI=1S/C11H16F5NO/c1-2-7-3-8-5-18-6-9(4-7)17(8)11(15,16)10(12,13)14/h7-9H,2-6H2,1H3
InChIKey=SVEYZHWWQCIMCF-UHFFFAOYSA-N

> <PUBCHEM_SUBSTANCE_SYNONYM>
SCHEMBL16119914

> <PUBCHEM_XREF_EXT_ID>
SCHEMBL16119914

> <PUBCHEM_EXT_DATASOURCE_URL>
https://www.surechembl.org/

> <PUBCHEM_EXT_SUBSTANCE_URL>
https://www.surechembl.org/chemical/SCHEMBL16119914

> <PUBCHEM_CID_ASSOCIATIONS>
117608618  1

> <PUBCHEM_COORDINATE_TYPE>
1
3

> <PUBCHEM_BONDANNOTATIONS>
17  18  3

$$$$
