310938947
  -OEChem-07211613022D

 36 38  0     1  0  0  0  0  0999 V2000
   -2.5140   -2.5584    0.0000 S   0  0  0  0  0  0  0  0  0  0  0  0
    1.1285   -2.8134    0.0000 O   0  0  0  0  0  0  0  0  0  0  0  0
    0.4141   -1.5759    0.0000 O   0  0  0  0  0  0  0  0  0  0  0  0
   -1.7294   -0.3384    0.0000 O   0  0  0  0  0  0  0  0  0  0  0  0
   -2.4438   -1.5759    0.0000 O   0  0  0  0  0  0  0  0  0  0  0  0
   -0.3004   -3.6384    0.0000 N   0  0  0  0  0  0  0  0  0  0  0  0
   -1.0149   -1.5759    0.0000 N   0  0  0  0  0  0  0  0  0  0  0  0
   -0.3004   -2.8134    0.0000 C   0  0  3  0  0  0  0  0  0  0  0  0
   -1.0149   -2.4009    0.0000 C   0  0  3  0  0  0  0  0  0  0  0  0
    0.4141   -4.0509    0.0000 C   0  0  0  0  0  0  0  0  0  0  0  0
   -1.7294   -2.8134    0.0000 C   0  0  0  0  0  0  0  0  0  0  0  0
    0.4141   -2.4009    0.0000 C   0  0  0  0  0  0  0  0  0  0  0  0
    0.4141   -4.8759    0.0000 C   0  0  0  0  0  0  0  0  0  0  0  0
    1.1285   -3.6384    0.0000 C   0  0  0  0  0  0  0  0  0  0  0  0
   -1.7294   -3.6384    0.0000 C   0  0  0  0  0  0  0  0  0  0  0  0
   -1.7294   -1.1634    0.0000 C   0  0  0  0  0  0  0  0  0  0  0  0
    1.8430   -2.4009    0.0000 C   0  0  0  0  0  0  0  0  0  0  0  0
   -0.3004   -5.2884    0.0000 C   0  0  0  0  0  0  0  0  0  0  0  0
    1.8430   -4.0509    0.0000 C   0  0  0  0  0  0  0  0  0  0  0  0
    1.1285   -5.2884    0.0000 C   0  0  0  0  0  0  0  0  0  0  0  0
    1.1285   -2.8134    0.0000 C   0  0  0  0  0  0  0  0  0  0  0  0
   -2.9989   -3.2259    0.0000 C   0  0  0  0  0  0  0  0  0  0  0  0
   -2.5140   -3.8933    0.0000 C   0  0  0  0  0  0  0  0  0  0  0  0
   -2.4438    0.0741    0.0000 C   0  0  0  0  0  0  0  0  0  0  0  0
   -0.3004   -6.1134    0.0000 C   0  0  0  0  0  0  0  0  0  0  0  0
    2.5575   -3.6384    0.0000 C   0  0  0  0  0  0  0  0  0  0  0  0
    1.1285   -6.1134    0.0000 C   0  0  0  0  0  0  0  0  0  0  0  0
    1.8430   -2.4009    0.0000 C   0  0  0  0  0  0  0  0  0  0  0  0
    0.4141   -6.5259    0.0000 C   0  0  0  0  0  0  0  0  0  0  0  0
    2.5575   -2.8134    0.0000 C   0  0  0  0  0  0  0  0  0  0  0  0
    2.5575   -2.8134    0.0000 C   0  0  0  0  0  0  0  0  0  0  0  0
    2.5575   -1.9884    0.0000 C   0  0  0  0  0  0  0  0  0  0  0  0
    1.8430   -1.5759    0.0000 C   0  0  0  0  0  0  0  0  0  0  0  0
   -2.4438    0.8991    0.0000 C   0  0  0  0  0  0  0  0  0  0  0  0
   -3.1583    0.4866    0.0000 C   0  0  0  0  0  0  0  0  0  0  0  0
   -3.1583   -0.3384    0.0000 C   0  0  0  0  0  0  0  0  0  0  0  0
  1 11  1  0  0  0  0
  1 22  1  0  0  0  0
  2 12  1  0  0  0  0
  2 17  1  0  0  0  0
  3 12  2  0  0  0  0
  4 16  1  0  0  0  0
  4 24  1  0  0  0  0
  5 16  2  0  0  0  0
  8  6  1  1  0  0  0
  6 10  2  0  0  0  0
  9  7  1  1  0  0  0
  7 16  1  0  0  0  0
  8  9  1  0  0  0  0
  8 12  1  0  0  0  0
  9 11  1  0  0  0  0
 10 13  1  0  0  0  0
 10 14  1  0  0  0  0
 11 15  2  0  0  0  0
 13 18  2  0  0  0  0
 13 20  1  0  0  0  0
 14 19  2  0  0  0  0
 14 21  1  0  0  0  0
 15 23  1  0  0  0  0
 17 31  1  0  0  0  0
 17 32  1  0  0  0  0
 17 33  1  0  0  0  0
 18 25  1  0  0  0  0
 19 26  1  0  0  0  0
 20 27  2  0  0  0  0
 21 28  2  0  0  0  0
 22 23  2  0  0  0  0
 24 34  1  0  0  0  0
 24 35  1  0  0  0  0
 24 36  1  0  0  0  0
 25 29  2  0  0  0  0
 26 30  2  0  0  0  0
 27 29  1  0  0  0  0
 28 30  1  0  0  0  0
M  END
> <PUBCHEM_COMPOUND_ID_TYPE>
0

> <PUBCHEM_TOTAL_CHARGE>
0

> <PUBCHEM_SUBSTANCE_ID>
310938947

> <PUBCHEM_SUBSTANCE_VERSION>
1

> <PUBCHEM_EXT_DATASOURCE_NAME>
4488

> <PUBCHEM_EXT_DATASOURCE_REGID>
SCHEMBL16116866

> <PUBCHEM_SUBSTANCE_COMMENT>
InChI=1S/C29H34N2O4S/c1-28(2,3)34-26(32)25(24(22-18-13-19-36-22)31-27(33)35-29(4,5)6)30-23(20-14-9-7-10-15-20)21-16-11-8-12-17-21/h7-19,24-25H,1-6H3,(H,31,33)/t24-,25+/m1/s1
InChIKey=BFWFOTYFMORXSR-RPBOFIJWSA-N

> <PUBCHEM_SUBSTANCE_SYNONYM>
SCHEMBL16116866

> <PUBCHEM_XREF_EXT_ID>
SCHEMBL16116866

> <PUBCHEM_EXT_DATASOURCE_URL>
https://www.surechembl.org/

> <PUBCHEM_EXT_SUBSTANCE_URL>
https://www.surechembl.org/chemical/SCHEMBL16116866

> <PUBCHEM_CID_ASSOCIATIONS>
102318593  1

> <PUBCHEM_COORDINATE_TYPE>
1
3

> <PUBCHEM_BONDANNOTATIONS>
8  6  5
9  7  5

$$$$
