310929721
  -OEChem-07211613022D

 62 70  0     1  0  0  0  0  0999 V2000
    4.4845   -1.3728    0.0000 S   0  0  0  0  0  0  0  0  0  0  0  0
    2.5626   -2.3795    0.0000 O   0  0  0  0  0  0  0  0  0  0  0  0
    5.0793   -1.9677    0.0000 O   0  0  0  0  0  0  0  0  0  0  0  0
    3.8896   -0.8237    0.0000 O   0  0  0  0  0  0  0  0  0  0  0  0
    4.6675   -0.0458    0.0000 O   0  0  0  0  0  0  0  0  0  0  0  0
    7.5504   -3.3862    0.0000 O   0  0  0  0  0  0  0  0  0  0  0  0
    1.2813   -2.1049    0.0000 O   0  0  0  0  0  0  0  0  0  0  0  0
    8.5114   -6.3149    0.0000 O   0  0  0  0  0  0  0  0  0  0  0  0
    2.8829   -8.3283    0.0000 O   0  0  0  0  0  0  0  0  0  0  0  0
    1.6931   -8.7402    0.0000 O   0  0  0  0  0  0  0  0  0  0  0  0
    3.7065   -0.8237    0.0000 N   0  0  0  0  0  0  0  0  0  0  0  0
    3.9354   -1.9677    0.0000 N   0  0  0  0  0  0  0  0  0  0  0  0
    6.0861   -1.4643    0.0000 N   0  0  0  0  0  0  0  0  0  0  0  0
    8.4656   -3.8896    0.0000 N   0  0  0  0  0  0  0  0  0  0  0  0
    1.4643   -7.5504    0.0000 N   0  0  0  0  0  0  0  0  0  0  0  0
    7.1843   -8.0080    0.0000 N   0  0  0  0  0  0  0  0  0  0  0  0
    2.8829   -1.0067    0.0000 C   0  0  3  0  0  0  0  0  0  0  0  0
    2.1049   -1.3270    0.0000 C   0  0  3  0  0  0  0  0  0  0  0  0
    2.2423   -0.5033    0.0000 C   0  0  0  0  0  0  0  0  0  0  0  0
    3.1117   -1.7846    0.0000 C   0  0  0  0  0  0  0  0  0  0  0  0
    5.0793   -0.8237    0.0000 C   0  0  0  0  0  0  0  0  0  0  0  0
    4.4845   -0.8237    0.0000 C   0  0  0  0  0  0  0  0  0  0  0  0
    1.4643   -1.7846    0.0000 C   0  0  0  0  0  0  0  0  0  0  0  0
    5.2624    0.0000    0.0000 C   0  0  0  0  0  0  0  0  0  0  0  0
    5.8573   -0.5491    0.0000 C   0  0  0  0  0  0  0  0  0  0  0  0
    5.3082   -1.1440    0.0000 C   0  0  3  0  0  0  0  0  0  0  0  0
    4.3472   -0.4118    0.0000 C   0  0  0  0  0  0  0  0  0  0  0  0
    6.7267   -1.3728    0.0000 C   0  0  0  0  0  0  0  0  0  0  0  0
    7.2301   -2.7456    0.0000 C   0  0  3  0  0  0  0  0  0  0  0  0
    0.8237   -2.2880    0.0000 C   0  0  0  0  0  0  0  0  0  0  0  0
    6.7267   -1.9677    0.0000 C   0  0  0  0  0  0  0  0  0  0  0  0
    1.8761   -2.6541    0.0000 C   0  0  0  0  0  0  0  0  0  0  0  0
    7.6877   -4.2099    0.0000 C   0  0  0  0  0  0  0  0  0  0  0  0
    7.6877   -5.1708    0.0000 C   0  0  0  0  0  0  0  0  0  0  0  0
    0.8237   -6.9098    0.0000 C   0  0  3  0  0  0  0  0  0  0  0  0
    8.4656   -5.4455    0.0000 C   0  0  0  0  0  0  0  0  0  0  0  0
    9.1520   -5.1708    0.0000 C   0  0  0  0  0  0  0  0  0  0  0  0
    9.1520   -4.2099    0.0000 C   0  0  0  0  0  0  0  0  0  0  0  0
    0.3203   -3.0659    0.0000 C   0  0  0  0  0  0  0  0  0  0  0  0
    0.3203   -6.2691    0.0000 C   0  0  0  0  0  0  0  0  0  0  0  0
    7.5504   -5.9488    0.0000 C   0  0  0  0  0  0  0  0  0  0  0  0
    9.9299   -5.4455    0.0000 C   0  0  0  0  0  0  0  0  0  0  0  0
    9.9299   -3.8896    0.0000 C   0  0  0  0  0  0  0  0  0  0  0  0
    0.1830   -3.8896    0.0000 C   0  0  0  0  0  0  0  0  0  0  0  0
    2.1049   -8.0080    0.0000 C   0  0  0  0  0  0  0  0  0  0  0  0
    3.7065   -8.5114    0.0000 C   0  0  3  0  0  0  0  0  0  0  0  0
    4.4845   -8.5114    0.0000 C   0  0  3  0  0  0  0  0  0  0  0  0
    0.1830   -5.4455    0.0000 C   0  0  0  0  0  0  0  0  0  0  0  0
   10.5705   -5.1708    0.0000 C   0  0  0  0  0  0  0  0  0  0  0  0
   10.5705   -4.2099    0.0000 C   0  0  0  0  0  0  0  0  0  0  0  0
    0.0000   -4.6675    0.0000 C   0  0  0  0  0  0  0  0  0  0  0  0
    4.1642   -9.1520    0.0000 C   0  0  0  0  0  0  0  0  0  0  0  0
    7.0928   -6.4979    0.0000 C   0  0  0  0  0  0  0  0  0  0  0  0
    7.8249   -6.7267    0.0000 C   0  0  0  0  0  0  0  0  0  0  0  0
    5.3082   -8.1911    0.0000 C   0  0  0  0  0  0  0  0  0  0  0  0
    6.7267   -7.2301    0.0000 C   0  0  0  0  0  0  0  0  0  0  0  0
    6.0861   -7.8707    0.0000 C   0  0  0  0  0  0  0  0  0  0  0  0
    7.8707   -7.5504    0.0000 C   0  0  0  0  0  0  0  0  0  0  0  0
    7.0928   -8.8317    0.0000 C   0  0  0  0  0  0  0  0  0  0  0  0
    6.4064   -7.6877    0.0000 C   0  0  0  0  0  0  0  0  0  0  0  0
    6.3149   -9.0605    0.0000 C   0  0  0  0  0  0  0  0  0  0  0  0
    5.8573   -8.3283    0.0000 C   0  0  0  0  0  0  0  0  0  0  0  0
  1  3  2  0  0  0  0
  1  4  2  0  0  0  0
  1 12  1  0  0  0  0
  1 21  1  0  0  0  0
  2 20  2  0  0  0  0
  5 22  2  0  0  0  0
  6 29  1  0  0  0  0
  6 33  1  0  0  0  0
  7 32  2  0  0  0  0
  8 36  1  0  0  0  0
  8 54  1  0  0  0  0
  9 45  1  0  0  0  0
  9 46  1  0  0  0  0
 10 45  2  0  0  0  0
 11 17  1  0  0  0  0
 11 22  1  0  0  0  0
 12 20  1  0  0  0  0
 13 26  1  0  0  0  0
 13 31  1  0  0  0  0
 13 32  1  0  0  0  0
 14 33  1  0  0  0  0
 14 38  2  0  0  0  0
 15 35  1  0  0  0  0
 15 45  1  0  0  0  0
 16 58  1  0  0  0  0
 16 59  1  0  0  0  0
 16 60  1  0  0  0  0
 17 18  1  0  0  0  0
 17 19  1  0  0  0  0
 17 20  1  6  0  0  0
 18 19  1  6  0  0  0
 18 23  1  0  0  0  0
 21 24  1  0  0  0  0
 21 25  1  0  0  0  0
 21 27  1  0  0  0  0
 22 26  1  0  0  0  0
 23 30  2  3  0  0  0
 24 25  1  0  0  0  0
 26 28  1  6  0  0  0
 29 28  1  1  0  0  0
 29 31  1  0  0  0  0
 30 39  1  0  0  0  0
 32 35  1  0  0  0  0
 33 34  2  0  0  0  0
 34 36  1  0  0  0  0
 34 41  1  0  0  0  0
 35 40  1  1  0  0  0
 36 37  2  0  0  0  0
 37 38  1  0  0  0  0
 37 42  1  0  0  0  0
 38 43  1  0  0  0  0
 39 44  1  0  0  0  0
 40 48  1  0  0  0  0
 41 53  2  0  0  0  0
 42 49  2  0  0  0  0
 43 50  2  0  0  0  0
 44 51  1  0  0  0  0
 46 47  1  0  0  0  0
 46 52  1  1  0  0  0
 47 52  1  6  0  0  0
 47 55  1  0  0  0  0
 48 51  1  0  0  0  0
 49 50  1  0  0  0  0
 53 56  1  0  0  0  0
 54 58  1  0  0  0  0
 55 57  1  0  0  0  0
 56 57  1  0  0  0  0
 59 61  1  0  0  0  0
 60 62  1  0  0  0  0
 61 62  1  0  0  0  0
M  END
> <PUBCHEM_COMPOUND_ID_TYPE>
0

> <PUBCHEM_TOTAL_CHARGE>
0

> <PUBCHEM_SUBSTANCE_ID>
310929721

> <PUBCHEM_SUBSTANCE_VERSION>
1

> <PUBCHEM_EXT_DATASOURCE_NAME>
4488

> <PUBCHEM_EXT_DATASOURCE_REGID>
SCHEMBL16106919

> <PUBCHEM_SUBSTANCE_COMMENT>
InChI=1S/C46H60N6O9S/c1-45(20-21-45)62(57,58)50-43(55)46-28-31(46)15-7-3-2-4-9-19-36-42(54)52-29-32(27-37(52)40(53)49-46)60-41-34(17-8-5-6-14-30-26-38(30)61-44(56)48-36)39(33-16-10-11-18-35(33)47-41)59-25-24-51-22-12-13-23-51/h7-8,10-11,15-18,30-32,36-38H,2-6,9,12-14,19-29H2,1H3,(H,48,56)(H,49,53)(H,50,55)/b15-7-,17-8+/t30-,31-,32-,36+,37+,38-,46-/m1/s1
InChIKey=MULGOKXFSQVMOC-CARSDEKXSA-N

> <PUBCHEM_SUBSTANCE_SYNONYM>
SCHEMBL16106919

> <PUBCHEM_XREF_EXT_ID>
SCHEMBL16106919

> <PUBCHEM_EXT_DATASOURCE_URL>
https://www.surechembl.org/

> <PUBCHEM_EXT_SUBSTANCE_URL>
https://www.surechembl.org/chemical/SCHEMBL16106919

> <PUBCHEM_CID_ASSOCIATIONS>
117599017  1

> <PUBCHEM_COORDINATE_TYPE>
1
3

> <PUBCHEM_BONDANNOTATIONS>
17  20  6
18  19  6
26  28  6
29  28  5
35  40  5
46  52  5
47  52  6

$$$$
