310948024
  -OEChem-07211613022D

 60 62  0     1  0  0  0  0  0999 V2000
   -2.1712    0.7157    0.0000 O   0  0  0  0  0  0  0  0  0  0  0  0
   -2.2828   -0.7900    0.0000 O   0  0  0  0  0  0  0  0  0  0  0  0
   -3.6213    2.3888    0.0000 O   0  0  0  0  0  0  0  0  0  0  0  0
   -0.6098    0.6600    0.0000 O   0  0  0  0  0  0  0  0  0  0  0  0
   -3.6213   -0.1208    0.0000 O   0  0  0  0  0  0  0  0  0  0  0  0
    0.2455   -0.7715    0.0000 O   0  0  0  0  0  0  0  0  0  0  0  0
   -0.5725   -2.2401    0.0000 O   0  0  0  0  0  0  0  0  0  0  0  0
   -5.0713    0.7157    0.0000 O   0  0  0  0  0  0  0  0  0  0  0  0
   -2.0969    2.3888    0.0000 O   0  0  0  0  0  0  0  0  0  0  0  0
   -1.8367   -2.9651    0.0000 O   0  0  0  0  0  0  0  0  0  0  0  0
   -5.0713    3.2254    0.0000 O   0  0  0  0  0  0  0  0  0  0  0  0
    0.6731   -0.0093    0.0000 O   0  0  0  0  0  0  0  0  0  0  0  0
   -4.9970   -0.1766    0.0000 O   0  0  0  0  0  0  0  0  0  0  0  0
    0.2455   -0.7715    0.0000 O   0  0  0  0  0  0  0  0  0  0  0  0
   -1.7252   -3.0953    0.0000 O   0  0  0  0  0  0  0  0  0  0  0  0
   -5.7964    1.8869    0.0000 O   0  0  0  0  0  0  0  0  0  0  0  0
    0.2083    1.8683    0.0000 O   0  0  0  0  0  0  0  0  0  0  0  0
   -2.9892   -3.7459    0.0000 O   0  0  0  0  0  0  0  0  0  0  0  0
   -5.7964    4.3780    0.0000 O   0  0  0  0  0  0  0  0  0  0  0  0
    3.5916    0.9923    0.0000 O   0  0  0  0  0  0  0  0  0  0  0  0
    2.9135    2.1107    0.0000 O   0  0  0  0  0  0  0  0  0  0  0  0
    0.2455   -0.7715    0.0000 N   0  0  0  0  0  0  0  0  0  0  0  0
    2.4019    2.2772    0.0000 N   0  0  0  0  0  0  0  0  0  0  0  0
   -2.9149    1.1432    0.0000 C   0  0  3  0  0  0  0  0  0  0  0  0
   -1.8553   -0.0650    0.0000 C   0  0  3  0  0  0  0  0  0  0  0  0
   -1.0187   -0.0650    0.0000 C   0  0  3  0  0  0  0  0  0  0  0  0
   -3.6213    0.7342    0.0000 C   0  0  3  0  0  0  0  0  0  0  0  0
   -0.6098   -0.7529    0.0000 C   0  0  3  0  0  0  0  0  0  0  0  0
   -1.0187   -1.4965    0.0000 C   0  0  3  0  0  0  0  0  0  0  0  0
   -4.3463    1.1432    0.0000 C   0  0  3  0  0  0  0  0  0  0  0  0
   -2.8963    1.9799    0.0000 C   0  0  3  0  0  0  0  0  0  0  0  0
   -1.8553   -1.5151    0.0000 C   0  0  3  0  0  0  0  0  0  0  0  0
   -4.3277    1.9799    0.0000 C   0  0  3  0  0  0  0  0  0  0  0  0
   -2.2642   -2.2401    0.0000 C   0  0  0  0  0  0  0  0  0  0  0  0
   -5.0713    2.3702    0.0000 C   0  0  0  0  0  0  0  0  0  0  0  0
    0.2826    0.6600    0.0000 C   0  0  0  0  0  0  0  0  0  0  0  0
   -4.3463   -0.5485    0.0000 C   0  0  0  0  0  0  0  0  0  0  0  0
    0.2455   -0.7715    0.0000 C   0  0  0  0  0  0  0  0  0  0  0  0
   -0.9443   -3.0395    0.0000 C   0  0  0  0  0  0  0  0  0  0  0  0
   -5.7964    1.1247    0.0000 C   0  0  0  0  0  0  0  0  0  0  0  0
   -1.1674    1.8869    0.0000 C   0  0  0  0  0  0  0  0  0  0  0  0
   -2.2270   -3.7273    0.0000 C   0  0  0  0  0  0  0  0  0  0  0  0
    0.6358    1.3850    0.0000 C   0  0  0  0  0  0  0  0  0  0  0  0
   -4.3092   -1.3477    0.0000 C   0  0  0  0  0  0  0  0  0  0  0  0
   -5.7964    3.6343    0.0000 C   0  0  0  0  0  0  0  0  0  0  0  0
   -0.4610   -3.6901    0.0000 C   0  0  0  0  0  0  0  0  0  0  0  0
   -6.4470    0.7157    0.0000 C   0  0  0  0  0  0  0  0  0  0  0  0
   -0.5354    2.2959    0.0000 C   0  0  0  0  0  0  0  0  0  0  0  0
   -1.7995   -4.3780    0.0000 C   0  0  0  0  0  0  0  0  0  0  0  0
   -6.4470    3.2254    0.0000 C   0  0  0  0  0  0  0  0  0  0  0  0
    0.9333    2.2959    0.0000 C   0  0  0  0  0  0  0  0  0  0  0  0
    1.6769    1.8869    0.0000 C   0  0  0  0  0  0  0  0  0  0  0  0
    2.9254    1.3969    0.0000 C   0  0  0  0  0  0  0  0  0  0  0  0
    5.0312    0.9685    0.0000 C   0  0  0  0  0  0  0  0  0  0  0  0
    4.3412    1.4207    0.0000 C   0  0  0  0  0  0  0  0  0  0  0  0
    5.0312    0.1477    0.0000 C   0  0  0  0  0  0  0  0  0  0  0  0
    5.7332    1.3850    0.0000 C   0  0  0  0  0  0  0  0  0  0  0  0
    5.7332   -0.2569    0.0000 C   0  0  0  0  0  0  0  0  0  0  0  0
    6.4470    0.9805    0.0000 C   0  0  0  0  0  0  0  0  0  0  0  0
    6.4470    0.1595    0.0000 C   0  0  0  0  0  0  0  0  0  0  0  0
 24  1  1  1  0  0  0
 25  1  1  6  0  0  0
  2 25  1  0  0  0  0
  2 32  1  0  0  0  0
  3 31  1  0  0  0  0
  3 33  1  0  0  0  0
 26  4  1  1  0  0  0
  4 36  1  0  0  0  0
 27  5  1  1  0  0  0
  5 37  1  0  0  0  0
 28  6  1  1  0  0  0
  6 38  1  0  0  0  0
 29  7  1  6  0  0  0
  7 39  1  0  0  0  0
 30  8  1  6  0  0  0
  8 40  1  0  0  0  0
 31  9  1  6  0  0  0
  9 41  1  0  0  0  0
 10 34  1  0  0  0  0
 10 42  1  0  0  0  0
 11 35  1  0  0  0  0
 11 45  1  0  0  0  0
 12 36  2  0  0  0  0
 13 37  2  0  0  0  0
 14 38  2  0  0  0  0
 15 39  2  0  0  0  0
 16 40  2  0  0  0  0
 17 48  1  0  0  0  0
 17 51  1  0  0  0  0
 18 42  2  0  0  0  0
 19 45  2  0  0  0  0
 20 53  1  0  0  0  0
 20 55  1  0  0  0  0
 21 53  2  0  0  0  0
 22 38  1  0  0  0  0
 23 52  1  0  0  0  0
 23 53  1  0  0  0  0
 24 27  1  0  0  0  0
 24 31  1  0  0  0  0
 25 26  1  0  0  0  0
 26 28  1  0  0  0  0
 27 30  1  0  0  0  0
 28 29  1  0  0  0  0
 29 32  1  0  0  0  0
 30 33  1  0  0  0  0
 32 34  1  1  0  0  0
 33 35  1  6  0  0  0
 36 43  1  0  0  0  0
 37 44  1  0  0  0  0
 39 46  1  0  0  0  0
 40 47  1  0  0  0  0
 41 48  1  0  0  0  0
 42 49  1  0  0  0  0
 45 50  1  0  0  0  0
 51 52  1  0  0  0  0
 54 55  1  0  0  0  0
 54 56  2  0  0  0  0
 54 57  1  0  0  0  0
 56 58  1  0  0  0  0
 57 59  2  0  0  0  0
 58 60  2  0  0  0  0
 59 60  1  0  0  0  0
M  END
> <PUBCHEM_COMPOUND_ID_TYPE>
0

> <PUBCHEM_TOTAL_CHARGE>
0

> <PUBCHEM_SUBSTANCE_ID>
310948024

> <PUBCHEM_SUBSTANCE_VERSION>
1

> <PUBCHEM_EXT_DATASOURCE_NAME>
4488

> <PUBCHEM_EXT_DATASOURCE_REGID>
SCHEMBL16126198

> <PUBCHEM_SUBSTANCE_COMMENT>
InChI=1S/C37H50N2O21/c1-19(40)50-17-26-28(53-21(3)42)30(55-23(5)44)32(34(57-26)49-15-14-48-13-12-39-37(47)52-16-25-10-8-7-9-11-25)59-35-33(56-24(6)45)31(60-36(38)46)29(54-22(4)43)27(58-35)18-51-20(2)41/h7-11,26-35H,12-18H2,1-6H3,(H2,38,46)(H,39,47)/t26-,27+,28+,29+,30-,31-,32-,33-,34-,35+/m0/s1
InChIKey=GXJQFMILDMNGIF-KUMDMCNESA-N

> <PUBCHEM_SUBSTANCE_SYNONYM>
SCHEMBL16126198

> <PUBCHEM_XREF_EXT_ID>
SCHEMBL16126198

> <PUBCHEM_EXT_DATASOURCE_URL>
https://www.surechembl.org/

> <PUBCHEM_EXT_SUBSTANCE_URL>
https://www.surechembl.org/chemical/SCHEMBL16126198

> <PUBCHEM_CID_ASSOCIATIONS>
86666456  1

> <PUBCHEM_COORDINATE_TYPE>
1
3

> <PUBCHEM_BONDANNOTATIONS>
24  1  5
25  1  6
32  34  5
33  35  6
26  4  5
27  5  5
28  6  5
29  7  6
30  8  6
31  9  6

$$$$
