310941577
  -OEChem-07211613022D

 52 52  0     1  0  0  0  0  0999 V2000
    1.2697   -0.0656    0.0000 O   0  0  0  0  0  0  0  0  0  0  0  0
    0.4438   -0.7140    0.0000 O   0  0  0  0  0  0  0  0  0  0  0  0
    1.0459   -0.6754    0.0000 O   0  0  0  0  0  0  0  0  0  0  0  0
    0.3666   -2.1650    0.0000 O   0  0  0  0  0  0  0  0  0  0  0  0
    2.6513   -1.8486    0.0000 O   0  0  0  0  0  0  0  0  0  0  0  0
   -1.6248    0.6754    0.0000 O   0  0  0  0  0  0  0  0  0  0  0  0
    2.2576   -0.5133    0.0000 O   0  0  0  0  0  0  0  0  0  0  0  0
    1.7328    0.4206    0.0000 N   0  0  0  0  0  0  0  0  0  0  0  0
   -0.2971   -0.0270    0.0000 N   0  0  0  0  0  0  0  0  0  0  0  0
    2.3271    0.2894    0.0000 N   0  0  0  0  0  0  0  0  0  0  0  0
   -2.9523   -0.3512    0.0000 N   0  0  3  0  0  0  0  0  0  0  0  0
   -0.4592   -0.7448    0.0000 N   0  0  0  0  0  0  0  0  0  0  0  0
    1.9566   -0.6213    0.0000 N   0  0  0  0  0  0  0  0  0  0  0  0
    3.2147    0.2585    0.0000 N   0  0  0  0  0  0  0  0  0  0  0  0
    0.9224   -0.6909    0.0000 C   0  0  0  0  0  0  0  0  0  0  0  0
    0.2662   -0.0270    0.0000 C   0  0  0  0  0  0  0  0  0  0  0  0
    0.0965   -0.7217    0.0000 C   0  0  3  0  0  0  0  0  0  0  0  0
    0.8529    0.6445    0.0000 C   0  0  3  0  0  0  0  0  0  0  0  0
   -0.2817   -1.4086    0.0000 C   0  0  0  0  0  0  0  0  0  0  0  0
    1.5245    0.5674    0.0000 C   0  0  3  0  0  0  0  0  0  0  0  0
    0.6136    1.4549    0.0000 C   0  0  0  0  0  0  0  0  0  0  0  0
    0.9301   -0.0270    0.0000 C   0  0  0  0  0  0  0  0  0  0  0  0
   -0.7526   -2.8983    0.0000 C   0  0  0  0  0  0  0  0  0  0  0  0
   -0.3897   -2.1959    0.0000 C   0  0  0  0  0  0  0  0  0  0  0  0
   -2.1650   -0.6986    0.0000 C   0  0  3  0  0  0  0  0  0  0  0  0
   -0.8221   -1.4704    0.0000 C   0  0  3  0  0  0  0  0  0  0  0  0
    1.2619    2.1342    0.0000 C   0  0  0  0  0  0  0  0  0  0  0  0
    1.3623    1.3391    0.0000 C   0  0  0  0  0  0  0  0  0  0  0  0
    1.6865   -2.4738    0.0000 C   0  0  0  0  0  0  0  0  0  0  0  0
   -0.8838   -0.0270    0.0000 C   0  0  0  0  0  0  0  0  0  0  0  0
    2.0030   -1.8717    0.0000 C   0  0  0  0  0  0  0  0  0  0  0  0
   -3.5312   -0.9686    0.0000 C   0  0  0  0  0  0  0  0  0  0  0  0
   -2.2576   -1.5553    0.0000 C   0  0  0  0  0  0  0  0  0  0  0  0
   -1.1230   -1.4704    0.0000 C   0  0  0  0  0  0  0  0  0  0  0  0
    0.0888   -2.1342    0.0000 C   0  0  0  0  0  0  0  0  0  0  0  0
   -3.0990   -1.7251    0.0000 C   0  0  0  0  0  0  0  0  0  0  0  0
    1.6402   -1.2542    0.0000 C   0  0  3  0  0  0  0  0  0  0  0  0
    2.0030    1.9334    0.0000 C   0  0  0  0  0  0  0  0  0  0  0  0
   -1.4936   -0.0270    0.0000 C   0  0  0  0  0  0  0  0  0  0  0  0
   -1.6557   -1.5090    0.0000 C   0  0  0  0  0  0  0  0  0  0  0  0
    2.1110    1.9489    0.0000 C   0  0  0  0  0  0  0  0  0  0  0  0
    1.0150    2.8983    0.0000 C   0  0  0  0  0  0  0  0  0  0  0  0
    0.9224   -1.2851    0.0000 C   0  0  0  0  0  0  0  0  0  0  0  0
    2.7902    1.6865    0.0000 C   0  0  0  0  0  0  0  0  0  0  0  0
    1.8331    2.6513    0.0000 C   0  0  0  0  0  0  0  0  0  0  0  0
    1.5939   -0.0193    0.0000 C   0  0  0  0  0  0  0  0  0  0  0  0
    2.5973    0.4438    0.0000 C   0  0  3  0  0  0  0  0  0  0  0  0
    2.4507    1.0304    0.0000 C   0  0  0  0  0  0  0  0  0  0  0  0
    2.1572   -0.0193    0.0000 C   0  0  0  0  0  0  0  0  0  0  0  0
    2.9214    1.5013    0.0000 C   0  0  0  0  0  0  0  0  0  0  0  0
    3.5312    1.3314    0.0000 C   0  0  0  0  0  0  0  0  0  0  0  0
    2.7748    2.0569    0.0000 C   0  0  0  0  0  0  0  0  0  0  0  0
  1 15  2  0  0  0  0
  2 16  2  0  0  0  0
  3 22  2  0  0  0  0
  4 24  2  0  0  0  0
  5 31  2  0  0  0  0
  6 39  2  0  0  0  0
  7 49  2  0  0  0  0
  8 10  1  0  0  0  0
 18  8  1  6  0  0  0
 17  9  1  6  0  0  0
  9 23  1  0  0  0  0
 20 10  1  6  0  0  0
 11 25  1  0  0  0  0
 11 30  1  0  0  0  0
 11 32  1  0  0  0  0
 12 26  1  0  0  0  0
 12 30  1  0  0  0  0
 13 37  1  0  0  0  0
 13 46  1  0  0  0  0
 14 46  1  0  0  0  0
 47 14  1  6  0  0  0
 15 16  1  0  0  0  0
 15 17  1  0  0  0  0
 16 18  1  0  0  0  0
 17 19  1  0  0  0  0
 18 21  1  0  0  0  0
 19 34  1  0  0  0  0
 19 35  1  0  0  0  0
 20 22  1  0  0  0  0
 20 28  1  0  0  0  0
 21 27  1  0  0  0  0
 22 29  1  0  0  0  0
 23 24  1  0  0  0  0
 24 26  1  0  0  0  0
 25 33  1  0  0  0  0
 25 39  1  6  0  0  0
 26 40  1  6  0  0  0
 27 41  1  0  0  0  0
 27 42  1  0  0  0  0
 28 38  1  0  0  0  0
 29 31  1  0  0  0  0
 31 37  1  0  0  0  0
 32 36  1  0  0  0  0
 33 36  1  0  0  0  0
 37 43  1  6  0  0  0
 38 44  1  0  0  0  0
 38 45  1  0  0  0  0
 47 48  1  0  0  0  0
 47 49  1  0  0  0  0
 48 50  1  0  0  0  0
 50 51  1  0  0  0  0
 50 52  1  0  0  0  0
M  END
> <PUBCHEM_COMPOUND_ID_TYPE>
0

> <PUBCHEM_TOTAL_CHARGE>
0

> <PUBCHEM_SUBSTANCE_ID>
310941577

> <PUBCHEM_SUBSTANCE_VERSION>
1

> <PUBCHEM_EXT_DATASOURCE_NAME>
4488

> <PUBCHEM_EXT_DATASOURCE_REGID>
SCHEMBL16119608

> <PUBCHEM_SUBSTANCE_COMMENT>
InChI=1S/C38H69N7O7/c1-23(2)14-29(19-46)41-21-40-27(9)33(48)17-34(49)31(15-24(3)4)43-44-32(16-25(5)6)37(51)38(52)36(26(7)8)39-18-35(50)28(10)42-22-45-13-11-12-30(45)20-47/h19-20,23-32,36,39-44H,11-18,21-22H2,1-10H3/t27-,28-,29-,30-,31-,32-,36-/m0/s1
InChIKey=YXCXNODOGAPLEK-PVKJLKLCSA-N

> <PUBCHEM_SUBSTANCE_SYNONYM>
SCHEMBL16119608

> <PUBCHEM_XREF_EXT_ID>
SCHEMBL16119608

> <PUBCHEM_EXT_DATASOURCE_URL>
https://www.surechembl.org/

> <PUBCHEM_EXT_SUBSTANCE_URL>
https://www.surechembl.org/chemical/SCHEMBL16119608

> <PUBCHEM_CID_ASSOCIATIONS>
117608379  1

> <PUBCHEM_COORDINATE_TYPE>
1
3

> <PUBCHEM_BONDANNOTATIONS>
20  10  6
47  14  6
25  39  6
26  40  6
37  43  6
18  8  6
17  9  6

$$$$
