310947907
  -OEChem-07211613022D

 29 31  0     1  0  0  0  0  0999 V2000
    3.6598   -1.3939    0.0000 S   0  0  0  0  0  0  0  0  0  0  0  0
    3.6598   -1.3939    0.0000 O   0  0  0  0  0  0  0  0  0  0  0  0
    1.4246   -1.3939    0.0000 O   0  0  0  0  0  0  0  0  0  0  0  0
   -0.2825    1.3571    0.0000 O   0  0  0  0  0  0  0  0  0  0  0  0
    1.1298    2.1799    0.0000 O   0  0  0  0  0  0  0  0  0  0  0  0
   -3.3036   -0.9150    0.0000 O   0  0  0  0  0  0  0  0  0  0  0  0
    3.6598   -1.3939    0.0000 O   0  0  0  0  0  0  0  0  0  0  0  0
    3.6598   -1.3939    0.0000 O   0  0  0  0  0  0  0  0  0  0  0  0
    3.6598   -1.3939    0.0000 O   0  0  0  0  0  0  0  0  0  0  0  0
   -3.6598    0.5711    0.0000 O   0  0  0  0  0  0  0  0  0  0  0  0
    1.8545    0.1289    0.0000 N   0  0  0  0  0  0  0  0  0  0  0  0
    3.2790   -0.6816    0.0000 N   0  0  0  0  0  0  0  0  0  0  0  0
   -1.9772    0.3746    0.0000 N   0  0  0  0  0  0  0  0  0  0  0  0
    0.4421    0.9518    0.0000 N   0  0  0  0  0  0  0  0  0  0  0  0
    1.8545   -0.6570    0.0000 C   0  0  0  0  0  0  0  0  0  0  0  0
    3.3159    0.1535    0.0000 C   0  0  3  0  0  0  0  0  0  0  0  0
    1.8545    0.9518    0.0000 C   0  0  3  0  0  0  0  0  0  0  0  0
    2.5667   -0.2763    0.0000 C   0  0  0  0  0  0  0  0  0  0  0  0
    3.2667    0.9518    0.0000 C   0  0  0  0  0  0  0  0  0  0  0  0
    2.5544    1.3571    0.0000 C   0  0  0  0  0  0  0  0  0  0  0  0
    1.1053    1.3447    0.0000 C   0  0  0  0  0  0  0  0  0  0  0  0
   -0.9702    0.9640    0.0000 C   0  0  0  0  0  0  0  0  0  0  0  0
   -1.1913    0.1658    0.0000 C   0  0  0  0  0  0  0  0  0  0  0  0
   -1.7685    1.1606    0.0000 C   0  0  0  0  0  0  0  0  0  0  0  0
   -3.0825   -0.0307    0.0000 C   0  0  0  0  0  0  0  0  0  0  0  0
   -2.7141   -1.5658    0.0000 C   0  0  0  0  0  0  0  0  0  0  0  0
   -3.2176   -2.1553    0.0000 C   0  0  0  0  0  0  0  0  0  0  0  0
   -2.1246   -0.9886    0.0000 C   0  0  0  0  0  0  0  0  0  0  0  0
   -2.0632   -2.1799    0.0000 C   0  0  0  0  0  0  0  0  0  0  0  0
  1  2  1  0  0  0  0
  1  7  2  0  0  0  0
  1  8  2  0  0  0  0
  1  9  1  0  0  0  0
  2 12  1  0  0  0  0
  3 15  2  0  0  0  0
  4 14  1  0  0  0  0
  4 22  1  0  0  0  0
  5 21  2  0  0  0  0
  6 25  1  0  0  0  0
  6 26  1  0  0  0  0
 10 25  2  0  0  0  0
 11 15  1  0  0  0  0
 11 17  1  0  0  0  0
 11 18  1  0  0  0  0
 12 15  1  0  0  0  0
 12 16  1  0  0  0  0
 13 23  1  0  0  0  0
 13 24  1  0  0  0  0
 13 25  1  0  0  0  0
 14 21  1  0  0  0  0
 16 18  1  0  0  0  0
 16 19  1  0  0  0  0
 17 20  1  0  0  0  0
 17 21  1  6  0  0  0
 19 20  1  0  0  0  0
 22 23  1  0  0  0  0
 22 24  1  0  0  0  0
 26 27  1  0  0  0  0
 26 28  1  0  0  0  0
 26 29  1  0  0  0  0
M  END
> <PUBCHEM_COMPOUND_ID_TYPE>
0

> <PUBCHEM_TOTAL_CHARGE>
0

> <PUBCHEM_SUBSTANCE_ID>
310947907

> <PUBCHEM_SUBSTANCE_VERSION>
1

> <PUBCHEM_EXT_DATASOURCE_NAME>
4488

> <PUBCHEM_EXT_DATASOURCE_REGID>
SCHEMBL16126081

> <PUBCHEM_SUBSTANCE_COMMENT>
InChI=1S/C15H24N4O9S/c1-15(2,3)26-14(22)17-7-10(8-17)27-16-12(20)11-5-4-9-6-18(11)13(21)19(9)28-29(23,24)25/h9-11H,4-8H2,1-3H3,(H,16,20)(H,23,24,25)/t9?,11-/m0/s1
InChIKey=RSMMXVVUMSHENN-UMJHXOGRSA-N

> <PUBCHEM_SUBSTANCE_SYNONYM>
SCHEMBL16126081

> <PUBCHEM_XREF_EXT_ID>
SCHEMBL16126081

> <PUBCHEM_EXT_DATASOURCE_URL>
https://www.surechembl.org/

> <PUBCHEM_EXT_SUBSTANCE_URL>
https://www.surechembl.org/chemical/SCHEMBL16126081

> <PUBCHEM_CID_ASSOCIATIONS>
117613569  1

> <PUBCHEM_COORDINATE_TYPE>
1
3

> <PUBCHEM_BONDANNOTATIONS>
17  21  6

$$$$
