310948486
  -OEChem-07211613022D

 44 48  0     0  0  0  0  0  0999 V2000
   -0.0791   -3.3266    0.0000 S   0  0  0  0  0  0  0  0  0  0  0  0
   -2.9413   -3.3266    0.0000 F   0  0  0  0  0  0  0  0  0  0  0  0
    2.9413   -3.2634    0.0000 F   0  0  0  0  0  0  0  0  0  0  0  0
    2.4037   -2.2355    0.0000 F   0  0  0  0  0  0  0  0  0  0  0  0
    1.8977   -3.7536    0.0000 F   0  0  0  0  0  0  0  0  0  0  0  0
    0.0158    1.6547    0.0000 O   0  0  0  0  0  0  0  0  0  0  0  0
   -0.0791   -3.3266    0.0000 O   0  0  0  0  0  0  0  0  0  0  0  0
   -0.0791   -3.3266    0.0000 O   0  0  0  0  0  0  0  0  0  0  0  0
    1.3758   -2.7574    0.0000 O   0  0  0  0  0  0  0  0  0  0  0  0
   -0.7907   -4.5759    0.0000 O   0  0  0  0  0  0  0  0  0  0  0  0
   -1.5023    1.6705    0.0000 N   0  0  0  0  0  0  0  0  0  0  0  0
    1.2335    1.1170    0.0000 N   0  0  0  0  0  0  0  0  0  0  0  0
   -2.1823    2.1607    0.0000 N   0  0  0  0  0  0  0  0  0  0  0  0
   -1.7395    5.1021    0.0000 N   0  0  0  0  0  0  0  0  0  0  0  0
   -0.7907    0.4212    0.0000 C   0  0  0  0  0  0  0  0  0  0  0  0
   -0.0791    0.8482    0.0000 C   0  0  0  0  0  0  0  0  0  0  0  0
   -1.5023    0.8324    0.0000 C   0  0  0  0  0  0  0  0  0  0  0  0
    0.6800    0.5161    0.0000 C   0  0  0  0  0  0  0  0  0  0  0  0
   -1.5023   -0.8123    0.0000 C   0  0  0  0  0  0  0  0  0  0  0  0
   -0.7907   -0.4011    0.0000 C   0  0  0  0  0  0  0  0  0  0  0  0
   -1.5181   -1.6504    0.0000 C   0  0  0  0  0  0  0  0  0  0  0  0
   -0.8065   -2.8997    0.0000 C   0  0  0  0  0  0  0  0  0  0  0  0
    0.8539   -0.2904    0.0000 C   0  0  0  0  0  0  0  0  0  0  0  0
   -2.2139    0.4212    0.0000 C   0  0  0  0  0  0  0  0  0  0  0  0
   -1.5023   -3.3108    0.0000 C   0  0  0  0  0  0  0  0  0  0  0  0
    0.8065    1.8445    0.0000 C   0  0  0  0  0  0  0  0  0  0  0  0
   -0.7907   -2.0774    0.0000 C   0  0  0  0  0  0  0  0  0  0  0  0
   -2.1981   -0.4169    0.0000 C   0  0  0  0  0  0  0  0  0  0  0  0
   -2.2298   -2.8997    0.0000 C   0  0  0  0  0  0  0  0  0  0  0  0
   -2.2139   -2.0615    0.0000 C   0  0  0  0  0  0  0  0  0  0  0  0
   -0.8381    2.1607    0.0000 C   0  0  0  0  0  0  0  0  0  0  0  0
    1.6288   -0.5751    0.0000 C   0  0  0  0  0  0  0  0  0  0  0  0
    0.2688   -0.8597    0.0000 C   0  0  0  0  0  0  0  0  0  0  0  0
   -1.9292    2.9514    0.0000 C   0  0  0  0  0  0  0  0  0  0  0  0
   -1.0753    2.9356    0.0000 C   0  0  0  0  0  0  0  0  0  0  0  0
   -1.5023   -4.1490    0.0000 C   0  0  0  0  0  0  0  0  0  0  0  0
    1.2019   -1.9351    0.0000 C   0  0  0  0  0  0  0  0  0  0  0  0
    1.8028   -1.3815    0.0000 C   0  0  0  0  0  0  0  0  0  0  0  0
    0.4270   -1.6820    0.0000 C   0  0  0  0  0  0  0  0  0  0  0  0
    1.1544    2.5877    0.0000 C   0  0  0  0  0  0  0  0  0  0  0  0
    1.6425   -5.1021    0.0000 C   0  0  0  0  0  0  0  0  0  0  0  0
   -2.4037    3.6156    0.0000 C   0  0  0  0  0  0  0  0  0  0  0  0
    2.1507   -3.0104    0.0000 C   0  0  0  0  0  0  0  0  0  0  0  0
   -2.0716    4.3746    0.0000 C   0  0  0  0  0  0  0  0  0  0  0  0
  1  7  2  0  0  0  0
  1  8  2  0  0  0  0
  1 22  1  0  0  0  0
  1 41  1  0  0  0  0
  2 29  1  0  0  0  0
  3 43  1  0  0  0  0
  4 43  1  0  0  0  0
  5 43  1  0  0  0  0
  6 16  1  0  0  0  0
  6 26  1  0  0  0  0
  9 37  1  0  0  0  0
  9 43  1  0  0  0  0
 10 36  1  0  0  0  0
 11 13  1  0  0  0  0
 11 17  1  0  0  0  0
 11 31  1  0  0  0  0
 12 18  1  0  0  0  0
 12 26  2  0  0  0  0
 13 34  2  0  0  0  0
 14 44  3  0  0  0  0
 15 16  1  0  0  0  0
 15 17  1  0  0  0  0
 15 20  2  0  0  0  0
 16 18  2  0  0  0  0
 17 24  2  0  0  0  0
 18 23  1  0  0  0  0
 19 20  1  0  0  0  0
 19 21  1  0  0  0  0
 19 28  2  0  0  0  0
 21 27  2  0  0  0  0
 21 30  1  0  0  0  0
 22 25  2  0  0  0  0
 22 27  1  0  0  0  0
 23 32  2  0  0  0  0
 23 33  1  0  0  0  0
 24 28  1  0  0  0  0
 25 29  1  0  0  0  0
 25 36  1  0  0  0  0
 26 40  1  0  0  0  0
 29 30  2  0  0  0  0
 31 35  2  0  0  0  0
 32 38  1  0  0  0  0
 33 39  2  0  0  0  0
 34 35  1  0  0  0  0
 34 42  1  0  0  0  0
 37 38  2  0  0  0  0
 37 39  1  0  0  0  0
 42 44  1  0  0  0  0
M  END
> <PUBCHEM_COMPOUND_ID_TYPE>
0

> <PUBCHEM_TOTAL_CHARGE>
0

> <PUBCHEM_SUBSTANCE_ID>
310948486

> <PUBCHEM_SUBSTANCE_VERSION>
1

> <PUBCHEM_EXT_DATASOURCE_NAME>
4488

> <PUBCHEM_EXT_DATASOURCE_REGID>
SCHEMBL16126668

> <PUBCHEM_SUBSTANCE_COMMENT>
InChI=1S/C30H22F4N4O5S/c1-17-36-28(18-3-6-22(7-4-18)43-30(32,33)34)29(42-17)23-13-19(5-8-26(23)38-12-10-21(37-38)9-11-35)20-14-25(31)24(16-39)27(15-20)44(2,40)41/h3-8,10,12-15,39H,9,16H2,1-2H3
InChIKey=HPCMRANCLFNEOJ-UHFFFAOYSA-N

> <PUBCHEM_SUBSTANCE_SYNONYM>
SCHEMBL16126668

> <PUBCHEM_XREF_EXT_ID>
SCHEMBL16126668

> <PUBCHEM_EXT_DATASOURCE_URL>
https://www.surechembl.org/

> <PUBCHEM_EXT_SUBSTANCE_URL>
https://www.surechembl.org/chemical/SCHEMBL16126668

> <PUBCHEM_CID_ASSOCIATIONS>
117614044  1

> <PUBCHEM_COORDINATE_TYPE>
1
3

$$$$
