310939420
  -OEChem-07211613022D

 37 39  0     1  0  0  0  0  0999 V2000
    4.1668   -7.3605    0.0000 O   0  0  0  0  0  0  0  0  0  0  0  0
    3.4523   -6.1230    0.0000 O   0  0  0  0  0  0  0  0  0  0  0  0
    1.3089   -8.1855    0.0000 O   0  0  0  0  0  0  0  0  0  0  0  0
    0.4839   -4.5515    0.0000 O   0  0  0  0  0  0  0  0  0  0  0  0
   -1.3089   -7.0159    0.0000 O   0  0  0  0  0  0  0  0  0  0  0  0
   -2.1113   -7.8952    0.0000 O   0  0  0  0  0  0  0  0  0  0  0  0
   -2.1113   -9.3241    0.0000 O   0  0  0  0  0  0  0  0  0  0  0  0
    2.0234   -6.9480    0.0000 N   0  0  0  0  0  0  0  0  0  0  0  0
    0.0714   -6.6461    0.0000 N   0  0  0  0  0  0  0  0  0  0  0  0
   -0.8818   -8.6097    0.0000 N   0  0  0  0  0  0  0  0  0  0  0  0
    2.7378   -7.3605    0.0000 C   0  0  3  0  0  0  0  0  0  0  0  0
    2.7378   -8.1855    0.0000 C   0  0  3  0  0  0  0  0  0  0  0  0
    3.4523   -7.7730    0.0000 C   0  0  0  0  0  0  0  0  0  0  0  0
    3.4523   -6.9480    0.0000 C   0  0  0  0  0  0  0  0  0  0  0  0
    3.4589   -8.9066    0.0000 C   0  0  0  0  0  0  0  0  0  0  0  0
    1.3089   -7.3605    0.0000 C   0  0  0  0  0  0  0  0  0  0  0  0
    3.3212   -8.7689    0.0000 C   0  0  0  0  0  0  0  0  0  0  0  0
    0.8964   -6.6461    0.0000 C   0  0  3  0  0  0  0  0  0  0  0  0
    2.0234   -6.1230    0.0000 C   0  0  0  0  0  0  0  0  0  0  0  0
    3.1077   -9.5658    0.0000 C   0  0  0  0  0  0  0  0  0  0  0  0
    1.1513   -5.8614    0.0000 C   0  0  0  0  0  0  0  0  0  0  0  0
    0.4839   -5.3765    0.0000 C   0  0  3  0  0  0  0  0  0  0  0  0
   -0.5120   -7.2294    0.0000 C   0  0  0  0  0  0  0  0  0  0  0  0
   -0.1836   -5.8614    0.0000 C   0  0  0  0  0  0  0  0  0  0  0  0
    4.8812   -6.9480    0.0000 C   0  0  0  0  0  0  0  0  0  0  0  0
    2.4368   -9.2076    0.0000 C   0  0  0  0  0  0  0  0  0  0  0  0
   -0.2985   -8.0263    0.0000 C   0  0  3  0  0  0  0  0  0  0  0  0
    1.7224   -9.6201    0.0000 C   0  0  0  0  0  0  0  0  0  0  0  0
    0.4984   -8.2398    0.0000 C   0  0  0  0  0  0  0  0  0  0  0  0
   -1.6988   -8.6097    0.0000 C   0  0  0  0  0  0  0  0  0  0  0  0
    0.7120   -9.0367    0.0000 C   0  0  0  0  0  0  0  0  0  0  0  0
    1.5088   -8.8232    0.0000 C   0  0  0  0  0  0  0  0  0  0  0  0
    1.1984   -4.1390    0.0000 C   0  0  0  0  0  0  0  0  0  0  0  0
   -2.9363   -7.8952    0.0000 C   0  0  0  0  0  0  0  0  0  0  0  0
   -3.7613   -7.8952    0.0000 C   0  0  0  0  0  0  0  0  0  0  0  0
   -3.3488   -8.6097    0.0000 C   0  0  0  0  0  0  0  0  0  0  0  0
   -3.3488   -7.1807    0.0000 C   0  0  0  0  0  0  0  0  0  0  0  0
  1 14  1  0  0  0  0
  1 25  1  0  0  0  0
  2 14  2  0  0  0  0
  3 16  2  0  0  0  0
  4 22  1  0  0  0  0
  4 33  1  0  0  0  0
  5 23  2  0  0  0  0
  6 30  1  0  0  0  0
  6 34  1  0  0  0  0
  7 30  2  0  0  0  0
  8 11  1  0  0  0  0
  8 16  1  0  0  0  0
  8 19  1  0  0  0  0
  9 18  1  0  0  0  0
  9 23  1  0  0  0  0
  9 24  1  0  0  0  0
 10 27  1  0  0  0  0
 10 30  1  0  0  0  0
 11 12  1  0  0  0  0
 11 13  1  0  0  0  0
 11 14  1  0  0  0  0
 12 13  1  0  0  0  0
 12 15  1  0  0  0  0
 12 17  1  0  0  0  0
 15 20  2  0  0  0  0
 16 18  1  0  0  0  0
 18 21  1  0  0  0  0
 20 26  1  0  0  0  0
 21 22  1  0  0  0  0
 22 24  1  0  0  0  0
 23 27  1  0  0  0  0
 26 28  1  0  0  0  0
 27 29  1  0  0  0  0
 28 32  1  0  0  0  0
 29 31  1  0  0  0  0
 31 32  1  0  0  0  0
 34 35  1  0  0  0  0
 34 36  1  0  0  0  0
 34 37  1  0  0  0  0
M  END
> <PUBCHEM_COMPOUND_ID_TYPE>
0

> <PUBCHEM_TOTAL_CHARGE>
0

> <PUBCHEM_SUBSTANCE_ID>
310939420

> <PUBCHEM_SUBSTANCE_VERSION>
1

> <PUBCHEM_EXT_DATASOURCE_NAME>
4488

> <PUBCHEM_EXT_DATASOURCE_REGID>
SCHEMBL16117342

> <PUBCHEM_SUBSTANCE_COMMENT>
InChI=1S/C27H43N3O7/c1-25(2,3)37-24(34)28-19-13-11-9-8-10-12-14-26(4)17-27(26,23(33)36-7)29(5)22(32)20-15-18(35-6)16-30(20)21(19)31/h12,14,18-20H,8-11,13,15-17H2,1-7H3,(H,28,34)/b14-12-
InChIKey=UYYRJJAOIKFGSV-OWBHPGMISA-N

> <PUBCHEM_SUBSTANCE_SYNONYM>
SCHEMBL16117342

> <PUBCHEM_XREF_EXT_ID>
SCHEMBL16117342

> <PUBCHEM_EXT_DATASOURCE_URL>
https://www.surechembl.org/

> <PUBCHEM_EXT_SUBSTANCE_URL>
https://www.surechembl.org/chemical/SCHEMBL16117342

> <PUBCHEM_CID_ASSOCIATIONS>
117606747  1

> <PUBCHEM_COORDINATE_TYPE>
1
3

$$$$
