310946691
  -OEChem-07211613022D

 33 35  0     0  0  0  0  0  0999 V2000
    0.2903    0.7842    0.0000 F   0  0  0  0  0  0  0  0  0  0  0  0
   -1.1458    3.2897    0.0000 F   0  0  0  0  0  0  0  0  0  0  0  0
    1.7060    3.2897    0.0000 O   0  0  0  0  0  0  0  0  0  0  0  0
   -0.6060   -1.8944    0.0000 N   0  0  0  0  0  0  0  0  0  0  0  0
    0.5347   -1.0796    0.0000 N   0  0  0  0  0  0  0  0  0  0  0  0
   -1.1559    0.7842    0.0000 N   0  0  0  0  0  0  0  0  0  0  0  0
   -0.4940    0.2953    0.0000 N   0  0  0  0  0  0  0  0  0  0  0  0
   -0.4838   -3.2999    0.0000 N   0  0  0  0  0  0  0  0  0  0  0  0
    1.1559   -3.1471    0.0000 N   0  0  0  0  0  0  0  0  0  0  0  0
   -0.4838   -3.2999    0.0000 N   0  0  0  0  0  0  0  0  0  0  0  0
    1.1559   -3.1471    0.0000 N   0  0  0  0  0  0  0  0  0  0  0  0
   -0.4838   -3.2999    0.0000 N   0  0  0  0  0  0  0  0  0  0  0  0
    3.1522    3.2999    0.0000 N   0  0  0  0  0  0  0  0  0  0  0  0
   -1.5939   -0.4583    0.0000 C   0  0  0  0  0  0  0  0  0  0  0  0
   -0.7588   -0.4685    0.0000 C   0  0  0  0  0  0  0  0  0  0  0  0
   -0.2597   -1.1305    0.0000 C   0  0  0  0  0  0  0  0  0  0  0  0
   -1.8384    0.3157    0.0000 C   0  0  0  0  0  0  0  0  0  0  0  0
   -0.4532    2.0574    0.0000 C   0  0  0  0  0  0  0  0  0  0  0  0
   -0.1477   -2.5157    0.0000 C   0  0  0  0  0  0  0  0  0  0  0  0
    0.6773   -2.4545    0.0000 C   0  0  0  0  0  0  0  0  0  0  0  0
    0.2699    1.6295    0.0000 C   0  0  0  0  0  0  0  0  0  0  0  0
   -0.4430    2.8823    0.0000 C   0  0  0  0  0  0  0  0  0  0  0  0
   -1.1458    1.6601    0.0000 C   0  0  0  0  0  0  0  0  0  0  0  0
   -2.1235   -1.0796    0.0000 C   0  0  0  0  0  0  0  0  0  0  0  0
    0.9930   -1.7008    0.0000 C   0  0  0  0  0  0  0  0  0  0  0  0
    0.9930    2.8823    0.0000 C   0  0  0  0  0  0  0  0  0  0  0  0
   -2.6430    0.4787    0.0000 C   0  0  0  0  0  0  0  0  0  0  0  0
    0.9930    2.0471    0.0000 C   0  0  0  0  0  0  0  0  0  0  0  0
    0.2699    3.2693    0.0000 C   0  0  0  0  0  0  0  0  0  0  0  0
   -2.9485   -0.9268    0.0000 C   0  0  0  0  0  0  0  0  0  0  0  0
   -3.1522   -0.1222    0.0000 C   0  0  0  0  0  0  0  0  0  0  0  0
    2.4189    2.9129    0.0000 C   0  0  0  0  0  0  0  0  0  0  0  0
    3.1522    3.2999    0.0000 C   0  0  0  0  0  0  0  0  0  0  0  0
  1 21  1  0  0  0  0
  2 22  1  0  0  0  0
  3 26  1  0  0  0  0
  3 32  1  0  0  0  0
  4 16  2  0  0  0  0
  4 19  1  0  0  0  0
  5 16  1  0  0  0  0
  5 25  2  0  0  0  0
  6 17  1  0  0  0  0
  6 23  1  0  0  0  0
  7 15  2  3  0  0  0
  8 10  2  3  0  0  0
  8 19  1  0  0  0  0
  9 11  2  3  0  0  0
  9 20  1  0  0  0  0
 10 12  1  0  0  0  0
 13 33  2  3  0  0  0
 14 15  1  0  0  0  0
 14 17  2  0  0  0  0
 14 24  1  0  0  0  0
 15 16  1  0  0  0  0
 17 27  1  0  0  0  0
 18 21  2  0  0  0  0
 18 22  1  0  0  0  0
 18 23  1  0  0  0  0
 19 20  2  0  0  0  0
 20 25  1  0  0  0  0
 21 28  1  0  0  0  0
 22 29  2  0  0  0  0
 24 30  2  0  0  0  0
 26 28  2  0  0  0  0
 26 29  1  0  0  0  0
 27 31  2  0  0  0  0
 30 31  1  0  0  0  0
 32 33  1  0  0  0  0
M  END
> <PUBCHEM_COMPOUND_ID_TYPE>
0

> <PUBCHEM_TOTAL_CHARGE>
0

> <PUBCHEM_SUBSTANCE_ID>
310946691

> <PUBCHEM_SUBSTANCE_VERSION>
1

> <PUBCHEM_EXT_DATASOURCE_NAME>
4488

> <PUBCHEM_EXT_DATASOURCE_REGID>
SCHEMBL16124814

> <PUBCHEM_SUBSTANCE_COMMENT>
InChI=1S/C20H18F2N10O/c21-14-7-11(33-6-5-23)8-15(22)13(14)9-27-16-4-2-1-3-12(16)18(24)20-28-10-17(30-25)19(29-20)31-32-26/h1-5,7-8,10,23-25,27H,6,9H2,(H2,26,28,29,31)
InChIKey=KFUJLQXBGOFSLR-UHFFFAOYSA-N

> <PUBCHEM_SUBSTANCE_SYNONYM>
SCHEMBL16124814

> <PUBCHEM_XREF_EXT_ID>
SCHEMBL16124814

> <PUBCHEM_EXT_DATASOURCE_URL>
https://www.surechembl.org/

> <PUBCHEM_EXT_SUBSTANCE_URL>
https://www.surechembl.org/chemical/SCHEMBL16124814

> <PUBCHEM_CID_ASSOCIATIONS>
117612586  1

> <PUBCHEM_COORDINATE_TYPE>
1
3

$$$$
