310948209
  -OEChem-07211613022D

 44 48  0     0  0  0  0  0  0999 V2000
   -2.0388   -3.1476    0.0000 S   0  0  0  0  0  0  0  0  0  0  0  0
   -0.3476    4.2187    0.0000 F   0  0  0  0  0  0  0  0  0  0  0  0
    0.7611    4.4066    0.0000 F   0  0  0  0  0  0  0  0  0  0  0  0
    0.9302    3.2979    0.0000 F   0  0  0  0  0  0  0  0  0  0  0  0
    2.2644   -2.5838    0.0000 F   0  0  0  0  0  0  0  0  0  0  0  0
    2.2644   -2.5838    0.0000 F   0  0  0  0  0  0  0  0  0  0  0  0
    0.9114    1.8133    0.0000 O   0  0  0  0  0  0  0  0  0  0  0  0
   -2.4147   -2.4899    0.0000 O   0  0  0  0  0  0  0  0  0  0  0  0
   -1.6255   -3.8428    0.0000 O   0  0  0  0  0  0  0  0  0  0  0  0
    2.2644   -2.5838    0.0000 O   0  0  0  0  0  0  0  0  0  0  0  0
    0.1033   -4.4066    0.0000 O   0  0  0  0  0  0  0  0  0  0  0  0
   -0.6107    1.8321    0.0000 N   0  0  0  0  0  0  0  0  0  0  0  0
    0.0658    2.3207    0.0000 N   0  0  0  0  0  0  0  0  0  0  0  0
    2.1327    1.2684    0.0000 N   0  0  0  0  0  0  0  0  0  0  0  0
    0.1221    0.5919    0.0000 C   0  0  0  0  0  0  0  0  0  0  0  0
   -0.6107    1.0053    0.0000 C   0  0  0  0  0  0  0  0  0  0  0  0
    0.8362    1.0053    0.0000 C   0  0  0  0  0  0  0  0  0  0  0  0
    1.5879    0.6671    0.0000 C   0  0  0  0  0  0  0  0  0  0  0  0
   -0.5919   -0.6483    0.0000 C   0  0  0  0  0  0  0  0  0  0  0  0
    0.1033   -0.2536    0.0000 C   0  0  0  0  0  0  0  0  0  0  0  0
   -1.2872    2.3207    0.0000 C   0  0  0  0  0  0  0  0  0  0  0  0
   -0.1973    3.0912    0.0000 C   0  0  0  0  0  0  0  0  0  0  0  0
   -1.3060    0.5732    0.0000 C   0  0  0  0  0  0  0  0  0  0  0  0
   -0.6107   -1.4940    0.0000 C   0  0  0  0  0  0  0  0  0  0  0  0
    1.7382   -0.1597    0.0000 C   0  0  0  0  0  0  0  0  0  0  0  0
    1.7194    1.9824    0.0000 C   0  0  0  0  0  0  0  0  0  0  0  0
   -1.3060   -0.2536    0.0000 C   0  0  0  0  0  0  0  0  0  0  0  0
   -1.0053    3.0912    0.0000 C   0  0  0  0  0  0  0  0  0  0  0  0
    0.2912    3.7676    0.0000 C   0  0  0  0  0  0  0  0  0  0  0  0
   -1.3249   -2.7341    0.0000 C   0  0  0  0  0  0  0  0  0  0  0  0
   -1.3060   -1.9073    0.0000 C   0  0  0  0  0  0  0  0  0  0  0  0
   -0.5919   -3.1476    0.0000 C   0  0  0  0  0  0  0  0  0  0  0  0
    0.1033   -1.9073    0.0000 C   0  0  0  0  0  0  0  0  0  0  0  0
    1.1557   -0.7047    0.0000 C   0  0  0  0  0  0  0  0  0  0  0  0
    2.5462   -0.4227    0.0000 C   0  0  0  0  0  0  0  0  0  0  0  0
    0.1033   -2.7341    0.0000 C   0  0  0  0  0  0  0  0  0  0  0  0
   -2.0576    2.0388    0.0000 C   0  0  0  0  0  0  0  0  0  0  0  0
    2.0576    2.7717    0.0000 C   0  0  0  0  0  0  0  0  0  0  0  0
    1.3249   -1.5128    0.0000 C   0  0  0  0  0  0  0  0  0  0  0  0
    2.6966   -1.2308    0.0000 C   0  0  0  0  0  0  0  0  0  0  0  0
    2.0952   -1.7758    0.0000 C   0  0  0  0  0  0  0  0  0  0  0  0
   -0.5919   -3.9744    0.0000 C   0  0  0  0  0  0  0  0  0  0  0  0
   -2.6966   -3.5421    0.0000 C   0  0  0  0  0  0  0  0  0  0  0  0
    2.2644   -2.5838    0.0000 C   0  0  0  0  0  0  0  0  0  0  0  0
  1  8  2  0  0  0  0
  1  9  2  0  0  0  0
  1 30  1  0  0  0  0
  1 43  1  0  0  0  0
  2 29  1  0  0  0  0
  3 29  1  0  0  0  0
  4 29  1  0  0  0  0
  5 44  1  0  0  0  0
  6 44  1  0  0  0  0
  7 17  1  0  0  0  0
  7 26  1  0  0  0  0
 10 41  1  0  0  0  0
 10 44  1  0  0  0  0
 11 42  1  0  0  0  0
 12 13  1  0  0  0  0
 12 16  1  0  0  0  0
 12 21  1  0  0  0  0
 13 22  2  0  0  0  0
 14 18  1  0  0  0  0
 14 26  2  0  0  0  0
 15 16  1  0  0  0  0
 15 17  1  0  0  0  0
 15 20  2  0  0  0  0
 16 23  2  0  0  0  0
 17 18  2  0  0  0  0
 18 25  1  0  0  0  0
 19 20  1  0  0  0  0
 19 24  1  0  0  0  0
 19 27  2  0  0  0  0
 21 28  2  0  0  0  0
 21 37  1  0  0  0  0
 22 28  1  0  0  0  0
 22 29  1  0  0  0  0
 23 27  1  0  0  0  0
 24 31  2  0  0  0  0
 24 33  1  0  0  0  0
 25 34  2  0  0  0  0
 25 35  1  0  0  0  0
 26 38  1  0  0  0  0
 30 31  1  0  0  0  0
 30 32  2  0  0  0  0
 32 36  1  0  0  0  0
 32 42  1  0  0  0  0
 33 36  2  0  0  0  0
 34 39  1  0  0  0  0
 35 40  2  0  0  0  0
 39 41  2  0  0  0  0
 40 41  1  0  0  0  0
M  END
> <PUBCHEM_COMPOUND_ID_TYPE>
0

> <PUBCHEM_TOTAL_CHARGE>
0

> <PUBCHEM_SUBSTANCE_ID>
310948209

> <PUBCHEM_SUBSTANCE_VERSION>
1

> <PUBCHEM_EXT_DATASOURCE_NAME>
4488

> <PUBCHEM_EXT_DATASOURCE_REGID>
SCHEMBL16126386

> <PUBCHEM_SUBSTANCE_COMMENT>
InChI=1S/C30H24F5N3O5S/c1-16-12-26(30(33,34)35)37-38(16)24-11-8-19(20-4-5-21(15-39)25(14-20)44(3,40)41)13-23(24)28-27(36-17(2)42-28)18-6-9-22(10-7-18)43-29(31)32/h4-14,29,39H,15H2,1-3H3
InChIKey=NFFOCGAPQZKYGO-UHFFFAOYSA-N

> <PUBCHEM_SUBSTANCE_SYNONYM>
SCHEMBL16126386

> <PUBCHEM_XREF_EXT_ID>
SCHEMBL16126386

> <PUBCHEM_EXT_DATASOURCE_URL>
https://www.surechembl.org/

> <PUBCHEM_EXT_SUBSTANCE_URL>
https://www.surechembl.org/chemical/SCHEMBL16126386

> <PUBCHEM_CID_ASSOCIATIONS>
117613789  1

> <PUBCHEM_COORDINATE_TYPE>
1
3

$$$$
