310943995
  -OEChem-07211613022D

 26 27  0     0  0  0  0  0  0999 V2000
    1.8212    1.6331    0.0000 Cl  0  0  0  0  0  0  0  0  0  0  0  0
   -1.8212   -2.0390    0.0000 Cl  0  0  0  0  0  0  0  0  0  0  0  0
    1.0789   -2.8902    0.0000 Cl  0  0  0  0  0  0  0  0  0  0  0  0
   -1.8113    2.0687    0.0000 Cl  0  0  0  0  0  0  0  0  0  0  0  0
   -0.3662   -2.8704    0.0000 F   0  0  0  0  0  0  0  0  0  0  0  0
   -0.3662    2.8902    0.0000 F   0  0  0  0  0  0  0  0  0  0  0  0
    1.0887    2.8803    0.0000 O   0  0  0  0  0  0  0  0  0  0  0  0
   -1.8212   -2.0390    0.0000 O   0  0  0  0  0  0  0  0  0  0  0  0
    1.7816   -1.6232    0.0000 O   0  0  0  0  0  0  0  0  0  0  0  0
   -1.8113    2.0687    0.0000 O   0  0  0  0  0  0  0  0  0  0  0  0
   -0.3761   -0.3860    0.0000 C   0  0  0  0  0  0  0  0  0  0  0  0
   -0.3761    0.4454    0.0000 C   0  0  0  0  0  0  0  0  0  0  0  0
   -1.1185   -1.6133    0.0000 C   0  0  0  0  0  0  0  0  0  0  0  0
    0.3662    1.6727    0.0000 C   0  0  0  0  0  0  0  0  0  0  0  0
   -1.0887    1.6826    0.0000 C   0  0  0  0  0  0  0  0  0  0  0  0
    0.3465   -1.6035    0.0000 C   0  0  0  0  0  0  0  0  0  0  0  0
   -0.3761   -2.0092    0.0000 C   0  0  0  0  0  0  0  0  0  0  0  0
   -0.3860    2.0785    0.0000 C   0  0  0  0  0  0  0  0  0  0  0  0
   -1.0986   -0.7918    0.0000 C   0  0  0  0  0  0  0  0  0  0  0  0
    0.3465    0.8512    0.0000 C   0  0  0  0  0  0  0  0  0  0  0  0
   -1.0887    0.8611    0.0000 C   0  0  0  0  0  0  0  0  0  0  0  0
    0.3465   -0.7918    0.0000 C   0  0  0  0  0  0  0  0  0  0  0  0
   -1.8212   -2.0390    0.0000 C   0  0  0  0  0  0  0  0  0  0  0  0
    1.0887    2.0687    0.0000 C   0  0  0  0  0  0  0  0  0  0  0  0
   -1.8113    2.0687    0.0000 C   0  0  0  0  0  0  0  0  0  0  0  0
    1.0789   -2.0390    0.0000 C   0  0  0  0  0  0  0  0  0  0  0  0
  1 24  1  0  0  0  0
  2 23  1  0  0  0  0
  3 26  1  0  0  0  0
  4 25  1  0  0  0  0
  5 17  1  0  0  0  0
  6 18  1  0  0  0  0
  7 24  2  0  0  0  0
  8 23  2  0  0  0  0
  9 26  2  0  0  0  0
 10 25  2  0  0  0  0
 11 12  1  0  0  0  0
 11 19  2  0  0  0  0
 11 22  1  0  0  0  0
 12 20  2  0  0  0  0
 12 21  1  0  0  0  0
 13 17  2  0  0  0  0
 13 19  1  0  0  0  0
 13 23  1  0  0  0  0
 14 18  2  0  0  0  0
 14 20  1  0  0  0  0
 14 24  1  0  0  0  0
 15 18  1  0  0  0  0
 15 21  2  0  0  0  0
 15 25  1  0  0  0  0
 16 17  1  0  0  0  0
 16 22  2  0  0  0  0
 16 26  1  0  0  0  0
M  END
> <PUBCHEM_COMPOUND_ID_TYPE>
0

> <PUBCHEM_TOTAL_CHARGE>
0

> <PUBCHEM_SUBSTANCE_ID>
310943995

> <PUBCHEM_SUBSTANCE_VERSION>
1

> <PUBCHEM_EXT_DATASOURCE_NAME>
4488

> <PUBCHEM_EXT_DATASOURCE_REGID>
SCHEMBL16122066

> <PUBCHEM_SUBSTANCE_COMMENT>
InChI=1S/C16H4Cl4F2O4/c17-13(23)7-1-5(2-8(11(7)21)14(18)24)6-3-9(15(19)25)12(22)10(4-6)16(20)26/h1-4H
InChIKey=VCBLASGRTVCJPZ-UHFFFAOYSA-N

> <PUBCHEM_SUBSTANCE_SYNONYM>
SCHEMBL16122066

> <PUBCHEM_XREF_EXT_ID>
SCHEMBL16122066

> <PUBCHEM_EXT_DATASOURCE_URL>
https://www.surechembl.org/

> <PUBCHEM_EXT_SUBSTANCE_URL>
https://www.surechembl.org/chemical/SCHEMBL16122066

> <PUBCHEM_CID_ASSOCIATIONS>
117610301  1

> <PUBCHEM_COORDINATE_TYPE>
1
3

$$$$
