310942420
  -OEChem-07211613022D

 46 51  0     1  0  0  0  0  0999 V2000
   -3.3917   -2.1612    0.0000 Cl  0  0  0  0  0  0  0  0  0  0  0  0
    2.5672    1.1993    0.0000 S   0  0  0  0  0  0  0  0  0  0  0  0
   -0.3311    1.9988    0.0000 F   0  0  0  0  0  0  0  0  0  0  0  0
    0.9057    1.1993    0.0000 O   0  0  0  0  0  0  0  0  0  0  0  0
    2.1549    1.9238    0.0000 O   0  0  0  0  0  0  0  0  0  0  0  0
    2.9795    1.9238    0.0000 O   0  0  0  0  0  0  0  0  0  0  0  0
   -0.2811   -1.8489    0.0000 O   0  0  0  0  0  0  0  0  0  0  0  0
   -2.9795    0.5497    0.0000 O   0  0  0  0  0  0  0  0  0  0  0  0
   -1.2555   -2.5735    0.0000 O   0  0  0  0  0  0  0  0  0  0  0  0
    0.1062   -0.4497    0.0000 N   0  0  0  0  0  0  0  0  0  0  0  0
    2.2924    0.4872    0.0000 N   0  0  0  0  0  0  0  0  0  0  0  0
   -1.9551   -1.3242    0.0000 N   0  0  0  0  0  0  0  0  0  0  0  0
   -1.9301    1.5741    0.0000 N   0  0  0  0  0  0  0  0  0  0  0  0
   -3.1169    2.7484    0.0000 N   0  0  0  0  0  0  0  0  0  0  0  0
   -3.3917   -2.1612    0.0000 N   0  0  0  0  0  0  0  0  0  0  0  0
    0.9307   -0.2623    0.0000 C   0  0  3  0  0  0  0  0  0  0  0  0
    1.1180   -1.0119    0.0000 C   0  0  3  0  0  0  0  0  0  0  0  0
    1.7052   -0.4497    0.0000 C   0  0  0  0  0  0  0  0  0  0  0  0
    1.3430    0.4997    0.0000 C   0  0  0  0  0  0  0  0  0  0  0  0
    3.4292    1.1993    0.0000 C   0  0  0  0  0  0  0  0  0  0  0  0
   -0.4685   -1.0369    0.0000 C   0  0  0  0  0  0  0  0  0  0  0  0
    1.8427   -2.3111    0.0000 C   0  0  0  0  0  0  0  0  0  0  0  0
    4.1288    1.6115    0.0000 C   0  0  0  0  0  0  0  0  0  0  0  0
    4.1288    0.7995    0.0000 C   0  0  0  0  0  0  0  0  0  0  0  0
   -1.2930   -0.8120    0.0000 C   0  0  3  0  0  0  0  0  0  0  0  0
    3.0170    0.4872    0.0000 C   0  0  0  0  0  0  0  0  0  0  0  0
   -1.5428   -0.0500    0.0000 C   0  0  0  0  0  0  0  0  0  0  0  0
   -2.3673   -0.0375    0.0000 C   0  0  3  0  0  0  0  0  0  0  0  0
   -2.6296   -0.8245    0.0000 C   0  0  0  0  0  0  0  0  0  0  0  0
    1.4179   -3.0482    0.0000 C   0  0  0  0  0  0  0  0  0  0  0  0
   -1.9801   -2.1487    0.0000 C   0  0  0  0  0  0  0  0  0  0  0  0
   -2.7421    1.3616    0.0000 C   0  0  0  0  0  0  0  0  0  0  0  0
   -2.6671   -2.5610    0.0000 C   0  0  3  0  0  0  0  0  0  0  0  0
   -1.7177    2.3735    0.0000 C   0  0  0  0  0  0  0  0  0  0  0  0
   -3.3417    1.9488    0.0000 C   0  0  0  0  0  0  0  0  0  0  0  0
    0.6308   -3.2606    0.0000 C   0  0  0  0  0  0  0  0  0  0  0  0
   -2.3424    2.9732    0.0000 C   0  0  0  0  0  0  0  0  0  0  0  0
   -0.9432    2.5984    0.0000 C   0  0  0  0  0  0  0  0  0  0  0  0
   -2.0425   -3.3979    0.0000 C   0  0  0  0  0  0  0  0  0  0  0  0
   -2.0925    3.7603    0.0000 C   0  0  0  0  0  0  0  0  0  0  0  0
    0.2061   -3.9726    0.0000 C   0  0  0  0  0  0  0  0  0  0  0  0
   -0.7058    3.3854    0.0000 C   0  0  0  0  0  0  0  0  0  0  0  0
   -4.1288    1.7240    0.0000 C   0  0  0  0  0  0  0  0  0  0  0  0
   -1.2930    3.9726    0.0000 C   0  0  0  0  0  0  0  0  0  0  0  0
   -1.2180   -3.3979    0.0000 C   0  0  0  0  0  0  0  0  0  0  0  0
   -0.6433   -3.9726    0.0000 C   0  0  0  0  0  0  0  0  0  0  0  0
  1 15  1  0  0  0  0
  2  5  2  0  0  0  0
  2  6  2  0  0  0  0
  2 11  1  0  0  0  0
  2 20  1  0  0  0  0
  3 38  1  0  0  0  0
  4 19  2  0  0  0  0
  7 21  2  0  0  0  0
 28  8  1  6  0  0  0
  8 32  1  0  0  0  0
  9 31  2  0  0  0  0
 10 16  1  0  0  0  0
 10 21  1  0  0  0  0
 11 19  1  0  0  0  0
 12 25  1  0  0  0  0
 12 29  1  0  0  0  0
 12 31  1  0  0  0  0
 13 32  2  0  0  0  0
 13 34  1  0  0  0  0
 14 35  2  0  0  0  0
 14 37  1  0  0  0  0
 33 15  1  6  0  0  0
 16 17  1  0  0  0  0
 16 18  1  0  0  0  0
 16 19  1  1  0  0  0
 17 18  1  6  0  0  0
 17 22  1  0  0  0  0
 20 23  1  0  0  0  0
 20 24  1  0  0  0  0
 20 26  1  0  0  0  0
 21 25  1  0  0  0  0
 22 30  2  0  0  0  0
 23 24  1  0  0  0  0
 25 27  1  1  0  0  0
 27 28  1  0  0  0  0
 28 29  1  0  0  0  0
 30 36  1  0  0  0  0
 31 33  1  0  0  0  0
 32 35  1  0  0  0  0
 33 39  1  0  0  0  0
 34 37  2  0  0  0  0
 34 38  1  0  0  0  0
 35 43  1  0  0  0  0
 36 41  1  0  0  0  0
 37 40  1  0  0  0  0
 38 42  2  0  0  0  0
 39 45  1  0  0  0  0
 40 44  2  0  0  0  0
 41 46  1  0  0  0  0
 42 44  1  0  0  0  0
 45 46  1  0  0  0  0
M  END
> <PUBCHEM_COMPOUND_ID_TYPE>
0

> <PUBCHEM_TOTAL_CHARGE>
0

> <PUBCHEM_SUBSTANCE_ID>
310942420

> <PUBCHEM_SUBSTANCE_VERSION>
1

> <PUBCHEM_EXT_DATASOURCE_NAME>
4488

> <PUBCHEM_EXT_DATASOURCE_REGID>
SCHEMBL16120456

> <PUBCHEM_SUBSTANCE_COMMENT>
InChI=1S/C31H38ClFN6O6S/c1-18-27(35-25-21(33)10-8-12-22(25)34-18)45-20-15-24-26(40)36-31(29(42)38-46(43,44)30(2)13-14-30)16-19(31)9-6-4-3-5-7-11-23(37-32)28(41)39(24)17-20/h6,8-10,12,19-20,23-24,37H,3-5,7,11,13-17H2,1-2H3,(H,36,40)(H,38,42)/b9-6-/t19-,20-,23+,24+,31-/m1/s1
InChIKey=GPUANSIMJSNGEI-WNPHGWIDSA-N

> <PUBCHEM_SUBSTANCE_SYNONYM>
SCHEMBL16120456

> <PUBCHEM_XREF_EXT_ID>
SCHEMBL16120456

> <PUBCHEM_EXT_DATASOURCE_URL>
https://www.surechembl.org/

> <PUBCHEM_EXT_SUBSTANCE_URL>
https://www.surechembl.org/chemical/SCHEMBL16120456

> <PUBCHEM_CID_ASSOCIATIONS>
117609020  1

> <PUBCHEM_COORDINATE_TYPE>
1
3

> <PUBCHEM_BONDANNOTATIONS>
33  15  6
16  19  5
17  18  6
25  27  5
28  8  6

$$$$
