310948038
  -OEChem-07211613022D

 72 79  0     1  0  0  0  0  0999 V2000
    6.9137    2.1113    0.0000 Cl  0  0  0  0  0  0  0  0  0  0  0  0
   -8.3522   -1.2915    0.0000 S   0  0  0  0  0  0  0  0  0  0  0  0
   -6.9137   -3.7817    0.0000 S   0  0  0  0  0  0  0  0  0  0  0  0
    5.4753    4.6169    0.0000 F   0  0  0  0  0  0  0  0  0  0  0  0
   -6.9292   -2.1113    0.0000 O   0  0  0  0  0  0  0  0  0  0  0  0
   -8.3522   -1.2915    0.0000 O   0  0  0  0  0  0  0  0  0  0  0  0
   -8.3522   -1.2915    0.0000 O   0  0  0  0  0  0  0  0  0  0  0  0
   -8.3522   -1.2915    0.0000 O   0  0  0  0  0  0  0  0  0  0  0  0
   -6.4497   -4.4777    0.0000 O   0  0  0  0  0  0  0  0  0  0  0  0
   -7.5788   -4.2457    0.0000 O   0  0  0  0  0  0  0  0  0  0  0  0
   -7.3622   -3.1166    0.0000 O   0  0  0  0  0  0  0  0  0  0  0  0
   -3.3564   -2.6990    0.0000 O   0  0  0  0  0  0  0  0  0  0  0  0
   -4.7484   -2.7145    0.0000 O   0  0  0  0  0  0  0  0  0  0  0  0
   -2.6139    1.2141    0.0000 O   0  0  0  0  0  0  0  0  0  0  0  0
    3.3100    0.8585    0.0000 O   0  0  0  0  0  0  0  0  0  0  0  0
    4.0369    2.1113    0.0000 O   0  0  0  0  0  0  0  0  0  0  0  0
    0.4949   -1.1832    0.0000 O   0  0  0  0  0  0  0  0  0  0  0  0
   -8.3522    0.3789    0.0000 N   0  0  0  0  0  0  0  0  0  0  0  0
   -5.4753   -4.6169    0.0000 N   0  0  0  0  0  0  0  0  0  0  0  0
    6.2022    0.8585    0.0000 N   0  0  0  0  0  0  0  0  0  0  0  0
    5.4907   -0.3789    0.0000 N   0  0  0  0  0  0  0  0  0  0  0  0
   -1.8870   -0.0387    0.0000 N   0  0  0  0  0  0  0  0  0  0  0  0
    3.2171   -0.3789    0.0000 N   0  0  0  0  0  0  0  0  0  0  0  0
    6.9292   -1.2141    0.0000 N   0  0  0  0  0  0  0  0  0  0  0  0
    1.5622   -0.3789    0.0000 N   0  0  0  0  0  0  0  0  0  0  0  0
   -5.4907   -1.2606    0.0000 C   0  0  0  0  0  0  0  0  0  0  0  0
   -6.2332   -0.8275    0.0000 C   0  0  0  0  0  0  0  0  0  0  0  0
   -5.5062   -2.0803    0.0000 C   0  0  0  0  0  0  0  0  0  0  0  0
   -6.9292   -1.2451    0.0000 C   0  0  0  0  0  0  0  0  0  0  0  0
   -6.2022   -2.4979    0.0000 C   0  0  0  0  0  0  0  0  0  0  0  0
   -7.6407   -0.8275    0.0000 C   0  0  0  0  0  0  0  0  0  0  0  0
   -6.2177   -3.3332    0.0000 C   0  0  0  0  0  0  0  0  0  0  0  0
   -4.7638   -0.8275    0.0000 C   0  0  0  0  0  0  0  0  0  0  0  0
   -7.6252   -0.0232    0.0000 C   0  0  0  0  0  0  0  0  0  0  0  0
   -5.4907   -3.7353    0.0000 C   0  0  0  0  0  0  0  0  0  0  0  0
   -6.2177   -0.0077    0.0000 C   0  0  0  0  0  0  0  0  0  0  0  0
   -4.7793   -2.4979    0.0000 C   0  0  0  0  0  0  0  0  0  0  0  0
   -4.0524   -1.2451    0.0000 C   0  0  0  0  0  0  0  0  0  0  0  0
   -6.9447    0.3944    0.0000 C   0  0  0  0  0  0  0  0  0  0  0  0
   -4.7793   -3.3332    0.0000 C   0  0  0  0  0  0  0  0  0  0  0  0
   -4.7638   -0.0077    0.0000 C   0  0  0  0  0  0  0  0  0  0  0  0
   -3.3409   -0.8275    0.0000 C   0  0  0  0  0  0  0  0  0  0  0  0
   -4.0524   -2.2968    0.0000 C   0  0  0  0  0  0  0  0  0  0  0  0
   -3.3254   -0.0077    0.0000 C   0  0  0  0  0  0  0  0  0  0  0  0
   -4.0678    0.3944    0.0000 C   0  0  0  0  0  0  0  0  0  0  0  0
   -2.6294    0.3944    0.0000 C   0  0  0  0  0  0  0  0  0  0  0  0
    5.4598    1.3224    0.0000 C   0  0  3  0  0  0  0  0  0  0  0  0
    4.7638    0.9048    0.0000 C   0  0  0  0  0  0  0  0  0  0  0  0
    4.7329    0.0696    0.0000 C   0  0  0  0  0  0  0  0  0  0  0  0
    5.4753    2.1422    0.0000 C   0  0  0  0  0  0  0  0  0  0  0  0
    6.1713    0.0696    0.0000 C   0  0  0  0  0  0  0  0  0  0  0  0
    4.0214    1.2915    0.0000 C   0  0  0  0  0  0  0  0  0  0  0  0
    6.1868    2.5753    0.0000 C   0  0  0  0  0  0  0  0  0  0  0  0
    6.9137   -0.3480    0.0000 C   0  0  0  0  0  0  0  0  0  0  0  0
    4.0524   -0.3325    0.0000 C   0  0  0  0  0  0  0  0  0  0  0  0
    4.7638    2.5598    0.0000 C   0  0  0  0  0  0  0  0  0  0  0  0
    6.1868    3.3950    0.0000 C   0  0  0  0  0  0  0  0  0  0  0  0
    5.4598    3.8126    0.0000 C   0  0  0  0  0  0  0  0  0  0  0  0
   -1.1755    0.4098    0.0000 C   0  0  0  0  0  0  0  0  0  0  0  0
    4.7638    3.3950    0.0000 C   0  0  0  0  0  0  0  0  0  0  0  0
    7.6097    0.0541    0.0000 C   0  0  0  0  0  0  0  0  0  0  0  0
    2.7995    0.3634    0.0000 C   0  0  0  0  0  0  0  0  0  0  0  0
    2.7841   -1.0749    0.0000 C   0  0  0  0  0  0  0  0  0  0  0  0
   -0.5877   -0.1779    0.0000 C   0  0  0  0  0  0  0  0  0  0  0  0
    7.6097   -1.6008    0.0000 C   0  0  0  0  0  0  0  0  0  0  0  0
    8.3522   -0.3480    0.0000 C   0  0  0  0  0  0  0  0  0  0  0  0
    1.9488    0.3634    0.0000 C   0  0  0  0  0  0  0  0  0  0  0  0
    1.9488   -1.0595    0.0000 C   0  0  0  0  0  0  0  0  0  0  0  0
    0.7115   -0.3171    0.0000 C   0  0  0  0  0  0  0  0  0  0  0  0
    8.3367   -1.1832    0.0000 C   0  0  0  0  0  0  0  0  0  0  0  0
    0.1238    0.2398    0.0000 C   0  0  0  0  0  0  0  0  0  0  0  0
    2.5675    1.3070    0.0000 C   0  0  0  0  0  0  0  0  0  0  0  0
  1 53  1  0  0  0  0
  2  6  2  0  0  0  0
  2  7  2  0  0  0  0
  2  8  1  0  0  0  0
  2 31  1  0  0  0  0
  3  9  2  0  0  0  0
  3 10  2  0  0  0  0
  3 11  1  0  0  0  0
  3 32  1  0  0  0  0
  4 58  1  0  0  0  0
  5 29  1  0  0  0  0
  5 30  1  0  0  0  0
 12 43  2  0  0  0  0
 13 43  1  0  0  0  0
 14 46  2  0  0  0  0
 15 52  1  0  0  0  0
 15 72  1  0  0  0  0
 16 52  2  0  0  0  0
 17 69  2  0  0  0  0
 18 34  2  3  0  0  0
 19 35  1  0  0  0  0
 20 47  1  0  0  0  0
 20 51  2  0  0  0  0
 21 49  1  0  0  0  0
 21 51  1  0  0  0  0
 22 46  1  0  0  0  0
 22 59  1  0  0  0  0
 23 55  1  0  0  0  0
 23 62  1  0  0  0  0
 23 63  1  0  0  0  0
 24 54  2  0  0  0  0
 24 65  1  0  0  0  0
 25 67  1  0  0  0  0
 25 68  1  0  0  0  0
 25 69  1  0  0  0  0
 26 27  2  0  0  0  0
 26 28  1  0  0  0  0
 26 33  1  0  0  0  0
 27 29  1  0  0  0  0
 27 36  1  0  0  0  0
 28 30  2  0  0  0  0
 28 37  1  0  0  0  0
 29 31  2  0  0  0  0
 30 32  1  0  0  0  0
 31 34  1  0  0  0  0
 32 35  2  0  0  0  0
 33 38  1  0  0  0  0
 33 41  2  0  0  0  0
 34 39  1  0  0  0  0
 35 40  1  0  0  0  0
 36 39  2  0  0  0  0
 37 40  2  0  0  0  0
 38 42  2  0  0  0  0
 38 43  1  0  0  0  0
 41 45  1  0  0  0  0
 42 44  1  0  0  0  0
 44 45  2  0  0  0  0
 44 46  1  0  0  0  0
 47 48  1  0  0  0  0
 47 50  1  0  0  0  0
 48 49  2  0  0  0  0
 48 52  1  0  0  0  0
 49 55  1  0  0  0  0
 50 53  2  0  0  0  0
 50 56  1  0  0  0  0
 51 54  1  0  0  0  0
 53 57  1  0  0  0  0
 54 61  1  0  0  0  0
 56 60  2  0  0  0  0
 57 58  2  0  0  0  0
 58 60  1  0  0  0  0
 59 64  1  0  0  0  0
 61 66  2  0  0  0  0
 62 67  1  0  0  0  0
 63 68  1  0  0  0  0
 64 71  1  0  0  0  0
 65 70  2  0  0  0  0
 66 70  1  0  0  0  0
 69 71  1  0  0  0  0
M  END
> <PUBCHEM_COMPOUND_ID_TYPE>
0

> <PUBCHEM_TOTAL_CHARGE>
0

> <PUBCHEM_SUBSTANCE_ID>
310948038

> <PUBCHEM_SUBSTANCE_VERSION>
1

> <PUBCHEM_EXT_DATASOURCE_NAME>
4488

> <PUBCHEM_EXT_DATASOURCE_REGID>
SCHEMBL16126213

> <PUBCHEM_SUBSTANCE_COMMENT>
InChI=1S/C47H42ClFN8O13S2/c1-69-47(62)38-35(54-44(34-5-2-3-15-52-34)55-39(38)27-10-8-25(49)22-31(27)48)23-56-17-19-57(20-18-56)36(58)6-4-16-53-45(59)24-7-9-26(30(21-24)46(60)61)37-28-11-13-32(50)42(71(63,64)65)40(28)70-41-29(37)12-14-33(51)43(41)72(66,67)68/h2-3,5,7-15,21-22,39,50H,4,6,16-20,23,51H2,1H3,(H,53,59)(H,54,55)(H,60,61)(H,63,64,65)(H,66,67,68)
InChIKey=SAKULEXXRCMHGB-UHFFFAOYSA-N

> <PUBCHEM_SUBSTANCE_SYNONYM>
SCHEMBL16126213

> <PUBCHEM_XREF_EXT_ID>
SCHEMBL16126213

> <PUBCHEM_EXT_DATASOURCE_URL>
https://www.surechembl.org/

> <PUBCHEM_EXT_SUBSTANCE_URL>
https://www.surechembl.org/chemical/SCHEMBL16126213

> <PUBCHEM_CID_ASSOCIATIONS>
86275764  1

> <PUBCHEM_COORDINATE_TYPE>
1
3

$$$$
