310948426
  -OEChem-07211613022D

 44 50  0     0  0  0  0  0  0999 V2000
    3.2037   -2.1383    0.0000 S   0  0  0  0  0  0  0  0  0  0  0  0
    2.9669    3.9116    0.0000 F   0  0  0  0  0  0  0  0  0  0  0  0
    3.5136    3.2920    0.0000 F   0  0  0  0  0  0  0  0  0  0  0  0
   -1.6616    0.9595    0.0000 O   0  0  0  0  0  0  0  0  0  0  0  0
    1.8735    3.3467    0.0000 O   0  0  0  0  0  0  0  0  0  0  0  0
    2.7482    2.3262    0.0000 O   0  0  0  0  0  0  0  0  0  0  0  0
   -4.4132    0.1031    0.0000 O   0  0  0  0  0  0  0  0  0  0  0  0
    3.2037   -2.1383    0.0000 O   0  0  0  0  0  0  0  0  0  0  0  0
    3.2037   -2.1383    0.0000 O   0  0  0  0  0  0  0  0  0  0  0  0
   -1.0785    2.1623    0.0000 N   0  0  0  0  0  0  0  0  0  0  0  0
   -2.2265   -1.1906    0.0000 N   0  0  0  0  0  0  0  0  0  0  0  0
   -3.0100   -0.8991    0.0000 N   0  0  0  0  0  0  0  0  0  0  0  0
   -3.7025    1.2329    0.0000 N   0  0  0  0  0  0  0  0  0  0  0  0
   -4.5043    1.4333    0.0000 N   0  0  0  0  0  0  0  0  0  0  0  0
   -0.8416    0.8685    0.0000 C   0  0  0  0  0  0  0  0  0  0  0  0
   -0.4407    0.1396    0.0000 C   0  0  0  0  0  0  0  0  0  0  0  0
   -0.4589    1.6156    0.0000 C   0  0  0  0  0  0  0  0  0  0  0  0
   -0.8781   -0.5529    0.0000 C   0  0  0  0  0  0  0  0  0  0  0  0
   -1.7163   -0.5165    0.0000 C   0  0  0  0  0  0  0  0  0  0  0  0
    0.3428    1.7614    0.0000 C   0  0  0  0  0  0  0  0  0  0  0  0
    1.4544    2.6543    0.0000 C   0  0  0  0  0  0  0  0  0  0  0  0
    0.3975    0.0849    0.0000 C   0  0  0  0  0  0  0  0  0  0  0  0
    1.9829    2.0529    0.0000 C   0  0  0  0  0  0  0  0  0  0  0  0
    0.7620   -0.6075    0.0000 C   0  0  0  0  0  0  0  0  0  0  0  0
    0.6526    2.5085    0.0000 C   0  0  0  0  0  0  0  0  0  0  0  0
   -1.7891    1.7796    0.0000 C   0  0  0  0  0  0  0  0  0  0  0  0
    2.7117    3.1827    0.0000 C   0  0  0  0  0  0  0  0  0  0  0  0
   -0.4954   -1.2818    0.0000 C   0  0  0  0  0  0  0  0  0  0  0  0
   -2.1718    0.1396    0.0000 C   0  0  0  0  0  0  0  0  0  0  0  0
   -2.9736   -0.0609    0.0000 C   0  0  0  0  0  0  0  0  0  0  0  0
    0.8895    1.1236    0.0000 C   0  0  0  0  0  0  0  0  0  0  0  0
    0.3428   -1.3000    0.0000 C   0  0  0  0  0  0  0  0  0  0  0  0
    1.6002   -0.6440    0.0000 C   0  0  0  0  0  0  0  0  0  0  0  0
    1.6913    1.2694    0.0000 C   0  0  0  0  0  0  0  0  0  0  0  0
   -3.6478    0.4311    0.0000 C   0  0  0  0  0  0  0  0  0  0  0  0
    2.0011   -1.3547    0.0000 C   0  0  0  0  0  0  0  0  0  0  0  0
    2.8211   -1.4094    0.0000 C   0  0  0  0  0  0  0  0  0  0  0  0
    2.0558    0.0485    0.0000 C   0  0  0  0  0  0  0  0  0  0  0  0
   -1.9714   -1.9925    0.0000 C   0  0  0  0  0  0  0  0  0  0  0  0
   -2.5545    2.1258    0.0000 C   0  0  0  0  0  0  0  0  0  0  0  0
    3.2585   -0.6986    0.0000 C   0  0  0  0  0  0  0  0  0  0  0  0
    2.8758    0.0120    0.0000 C   0  0  0  0  0  0  0  0  0  0  0  0
   -4.9234    0.7227    0.0000 C   0  0  0  0  0  0  0  0  0  0  0  0
    4.9234   -3.9116    0.0000 C   0  0  0  0  0  0  0  0  0  0  0  0
  1  8  2  0  0  0  0
  1  9  2  0  0  0  0
  1 37  1  0  0  0  0
  1 44  1  0  0  0  0
  2 27  1  0  0  0  0
  3 27  1  0  0  0  0
  4 15  1  0  0  0  0
  4 26  1  0  0  0  0
  5 21  1  0  0  0  0
  5 27  1  0  0  0  0
  6 23  1  0  0  0  0
  6 27  1  0  0  0  0
  7 35  1  0  0  0  0
  7 43  1  0  0  0  0
 10 17  1  0  0  0  0
 10 26  2  0  0  0  0
 11 12  1  0  0  0  0
 11 19  1  0  0  0  0
 11 39  1  0  0  0  0
 12 30  2  0  0  0  0
 13 14  1  0  0  0  0
 13 35  2  0  0  0  0
 14 43  2  0  0  0  0
 15 16  1  0  0  0  0
 15 17  2  0  0  0  0
 16 18  1  0  0  0  0
 16 22  2  0  0  0  0
 17 20  1  0  0  0  0
 18 19  1  0  0  0  0
 18 28  2  0  0  0  0
 19 29  2  0  0  0  0
 20 25  1  0  0  0  0
 20 31  2  0  0  0  0
 21 23  1  0  0  0  0
 21 25  2  0  0  0  0
 22 24  1  0  0  0  0
 23 34  2  0  0  0  0
 24 32  2  0  0  0  0
 24 33  1  0  0  0  0
 26 40  1  0  0  0  0
 28 32  1  0  0  0  0
 29 30  1  0  0  0  0
 30 35  1  0  0  0  0
 31 34  1  0  0  0  0
 33 36  1  0  0  0  0
 33 38  2  0  0  0  0
 36 37  2  0  0  0  0
 37 41  1  0  0  0  0
 38 42  1  0  0  0  0
 41 42  2  0  0  0  0
M  END
> <PUBCHEM_COMPOUND_ID_TYPE>
0

> <PUBCHEM_TOTAL_CHARGE>
0

> <PUBCHEM_SUBSTANCE_ID>
310948426

> <PUBCHEM_SUBSTANCE_VERSION>
1

> <PUBCHEM_EXT_DATASOURCE_NAME>
4488

> <PUBCHEM_EXT_DATASOURCE_REGID>
SCHEMBL16126607

> <PUBCHEM_SUBSTANCE_COMMENT>
InChI=1S/C30H21F2N5O6S/c1-16-34-27(19-8-10-25-26(13-19)43-30(31,32)42-25)28(41-16)22-12-18(17-5-4-6-20(11-17)44(3,38)39)7-9-21(22)24-14-23(36-37(24)2)29-35-33-15-40-29/h4-15H,1-3H3
InChIKey=NWWZIMOYBBIMCF-UHFFFAOYSA-N

> <PUBCHEM_SUBSTANCE_SYNONYM>
SCHEMBL16126607

> <PUBCHEM_XREF_EXT_ID>
SCHEMBL16126607

> <PUBCHEM_EXT_DATASOURCE_URL>
https://www.surechembl.org/

> <PUBCHEM_EXT_SUBSTANCE_URL>
https://www.surechembl.org/chemical/SCHEMBL16126607

> <PUBCHEM_CID_ASSOCIATIONS>
86276051  1

> <PUBCHEM_COORDINATE_TYPE>
1
3

$$$$
