310944775
  -OEChem-07211613022D

 68 68  0     1  0  0  0  0  0999 V2000
    8.6966   -1.0905    0.0000 O   0  5  0  0  0  0  0  0  0  0  0  0
    9.4096    0.1398    0.0000 O   0  0  0  0  0  0  0  0  0  0  0  0
    5.0613    0.0838    0.0000 O   0  5  0  0  0  0  0  0  0  0  0  0
    5.8723   -1.0626    0.0000 O   0  0  0  0  0  0  0  0  0  0  0  0
    3.6492    1.0067    0.0000 O   0  0  0  0  0  0  0  0  0  0  0  0
   10.8358    1.0067    0.0000 O   0  0  0  0  0  0  0  0  0  0  0  0
  -10.0667   -0.2097    0.0000 O   0  0  0  0  0  0  0  0  0  0  0  0
   -7.2145   -1.0486    0.0000 O   0  0  0  0  0  0  0  0  0  0  0  0
   -7.9276   -2.2650    0.0000 O   0  0  0  0  0  0  0  0  0  0  0  0
  -12.2199   -2.2091    0.0000 O   0  0  0  0  0  0  0  0  0  0  0  0
  -12.9749   -1.0766    0.0000 O   0  0  0  0  0  0  0  0  0  0  0  0
    1.4820    1.3982    0.0000 O   0  0  0  0  0  0  0  0  0  0  0  0
   12.2619    0.1818    0.0000 O   0  0  0  0  0  0  0  0  0  0  0  0
   -8.6406    1.4820    0.0000 O   0  0  0  0  0  0  0  0  0  0  0  0
  -12.9610    1.3842    0.0000 O   0  0  0  0  0  0  0  0  0  0  0  0
  -11.5487    1.5099    0.0000 O   0  0  0  0  0  0  0  0  0  0  0  0
   -1.3702    2.2650    0.0000 O   0  0  0  0  0  0  0  0  0  0  0  0
   11.5208   -0.2516    0.0000 O   0  0  0  0  0  0  0  0  0  0  0  0
   10.0947   -1.0766    0.0000 O   0  0  0  0  0  0  0  0  0  0  0  0
    8.6966   -0.2516    0.0000 N   0  3  0  0  0  0  0  0  0  0  0  0
    5.8024   -0.2516    0.0000 N   0  3  0  0  0  0  0  0  0  0  0  0
    8.6966    1.3982    0.0000 N   0  0  0  0  0  0  0  0  0  0  0  0
    5.8024    1.3982    0.0000 N   0  0  0  0  0  0  0  0  0  0  0  0
   -9.3537   -1.4261    0.0000 N   0  0  0  0  0  0  0  0  0  0  0  0
  -10.7799   -1.4261    0.0000 N   0  0  0  0  0  0  0  0  0  0  0  0
   -7.1865    1.4820    0.0000 N   0  0  0  0  0  0  0  0  0  0  0  0
   -0.6572    1.0067    0.0000 N   0  0  0  0  0  0  0  0  0  0  0  0
   12.2898   -1.5099    0.0000 N   0  0  0  0  0  0  0  0  0  0  0  0
   10.0947   -1.0766    0.0000 N   0  0  0  0  0  0  0  0  0  0  0  0
    7.9555    0.2516    0.0000 C   0  0  0  0  0  0  0  0  0  0  0  0
    6.5154    0.2376    0.0000 C   0  0  0  0  0  0  0  0  0  0  0  0
    7.9555    1.0766    0.0000 C   0  0  0  0  0  0  0  0  0  0  0  0
    6.5293    1.0766    0.0000 C   0  0  0  0  0  0  0  0  0  0  0  0
    7.2285   -0.1678    0.0000 C   0  0  0  0  0  0  0  0  0  0  0  0
    7.2285    1.4680    0.0000 C   0  0  0  0  0  0  0  0  0  0  0  0
    9.4096    1.0766    0.0000 C   0  0  0  0  0  0  0  0  0  0  0  0
    5.1033    1.0766    0.0000 C   0  0  0  0  0  0  0  0  0  0  0  0
   10.0947    1.4820    0.0000 C   0  0  0  0  0  0  0  0  0  0  0  0
    4.3483    1.4820    0.0000 C   0  0  0  0  0  0  0  0  0  0  0  0
   -8.6546   -0.9508    0.0000 C   0  0  3  0  0  0  0  0  0  0  0  0
    2.9222    1.4820    0.0000 C   0  0  0  0  0  0  0  0  0  0  0  0
   11.5348    1.4820    0.0000 C   0  0  0  0  0  0  0  0  0  0  0  0
  -11.5208   -0.9648    0.0000 C   0  0  3  0  0  0  0  0  0  0  0  0
  -10.0807   -0.9648    0.0000 C   0  0  0  0  0  0  0  0  0  0  0  0
   -7.9276   -1.4261    0.0000 C   0  0  0  0  0  0  0  0  0  0  0  0
  -12.2479   -1.4261    0.0000 C   0  0  0  0  0  0  0  0  0  0  0  0
   -8.6266   -0.1119    0.0000 C   0  0  0  0  0  0  0  0  0  0  0  0
  -11.5208   -0.1259    0.0000 C   0  0  0  0  0  0  0  0  0  0  0  0
    2.2091    1.0766    0.0000 C   0  0  0  0  0  0  0  0  0  0  0  0
   12.2619    1.0626    0.0000 C   0  0  0  0  0  0  0  0  0  0  0  0
   -7.9136    0.3076    0.0000 C   0  0  0  0  0  0  0  0  0  0  0  0
  -12.2199    0.2936    0.0000 C   0  0  0  0  0  0  0  0  0  0  0  0
   -7.8996    1.1325    0.0000 C   0  0  0  0  0  0  0  0  0  0  0  0
  -12.2479    1.0486    0.0000 C   0  0  0  0  0  0  0  0  0  0  0  0
    0.7970    1.0766    0.0000 C   0  0  0  0  0  0  0  0  0  0  0  0
   12.9749   -0.1818    0.0000 C   0  0  0  0  0  0  0  0  0  0  0  0
   -6.4595    1.1465    0.0000 C   0  0  0  0  0  0  0  0  0  0  0  0
   -5.7745    1.5520    0.0000 C   0  0  0  0  0  0  0  0  0  0  0  0
    0.0559    1.4820    0.0000 C   0  0  0  0  0  0  0  0  0  0  0  0
   12.9749   -1.0067    0.0000 C   0  0  0  0  0  0  0  0  0  0  0  0
   -5.0194    1.1465    0.0000 C   0  0  0  0  0  0  0  0  0  0  0  0
   -1.3842    1.4680    0.0000 C   0  0  0  0  0  0  0  0  0  0  0  0
   11.5348   -1.0207    0.0000 C   0  0  0  0  0  0  0  0  0  0  0  0
   -4.3343    1.5520    0.0000 C   0  0  0  0  0  0  0  0  0  0  0  0
   -2.0693    1.0766    0.0000 C   0  0  0  0  0  0  0  0  0  0  0  0
   -3.5793    1.1465    0.0000 C   0  0  0  0  0  0  0  0  0  0  0  0
   -2.8942    1.5520    0.0000 C   0  0  0  0  0  0  0  0  0  0  0  0
   10.8358   -1.4121    0.0000 C   0  0  0  0  0  0  0  0  0  0  0  0
  1 20  1  0  0  0  0
  2 20  2  0  0  0  0
  3 21  1  0  0  0  0
  4 21  2  0  0  0  0
  5 39  1  0  0  0  0
  5 41  1  0  0  0  0
  6 38  1  0  0  0  0
  6 42  1  0  0  0  0
  7 44  2  0  0  0  0
  8 45  2  0  0  0  0
  9 45  1  0  0  0  0
 10 46  2  0  0  0  0
 11 46  1  0  0  0  0
 12 49  1  0  0  0  0
 12 55  1  0  0  0  0
 13 50  1  0  0  0  0
 13 56  1  0  0  0  0
 14 53  2  0  0  0  0
 15 54  2  0  0  0  0
 16 54  1  0  0  0  0
 17 62  2  0  0  0  0
 18 63  2  0  0  0  0
 19 29  1  0  0  0  0
 19 68  1  0  0  0  0
 20 30  1  0  0  0  0
 21 31  1  0  0  0  0
 22 32  1  0  0  0  0
 22 36  1  0  0  0  0
 23 33  1  0  0  0  0
 23 37  1  0  0  0  0
 40 24  1  1  0  0  0
 24 44  1  0  0  0  0
 43 25  1  6  0  0  0
 25 44  1  0  0  0  0
 26 53  1  0  0  0  0
 26 57  1  0  0  0  0
 27 59  1  0  0  0  0
 27 62  1  0  0  0  0
 28 60  1  0  0  0  0
 28 63  1  0  0  0  0
 30 32  1  0  0  0  0
 30 34  2  0  0  0  0
 31 33  2  0  0  0  0
 31 34  1  0  0  0  0
 32 35  2  0  0  0  0
 33 35  1  0  0  0  0
 36 38  1  0  0  0  0
 37 39  1  0  0  0  0
 40 45  1  0  0  0  0
 40 47  1  0  0  0  0
 41 49  1  0  0  0  0
 42 50  1  0  0  0  0
 43 46  1  0  0  0  0
 43 48  1  0  0  0  0
 47 51  1  0  0  0  0
 48 52  1  0  0  0  0
 51 53  1  0  0  0  0
 52 54  1  0  0  0  0
 55 59  1  0  0  0  0
 56 60  1  0  0  0  0
 57 58  1  0  0  0  0
 58 61  1  0  0  0  0
 61 64  1  0  0  0  0
 62 65  1  0  0  0  0
 63 68  1  0  0  0  0
 64 66  1  0  0  0  0
 65 67  1  0  0  0  0
 66 67  1  0  0  0  0
M  CHG  4   1  -1   3  -1  20   1  21   1
M  END
> <PUBCHEM_COMPOUND_ID_TYPE>
0

> <PUBCHEM_TOTAL_CHARGE>
0

> <PUBCHEM_SUBSTANCE_ID>
310944775

> <PUBCHEM_SUBSTANCE_VERSION>
1

> <PUBCHEM_EXT_DATASOURCE_NAME>
4488

> <PUBCHEM_EXT_DATASOURCE_REGID>
SCHEMBL16122854

> <PUBCHEM_SUBSTANCE_COMMENT>
InChI=1S/C39H64N10O19/c40-68-26-35(52)45-15-19-67-23-21-65-17-13-42-30-24-29(31(48(60)61)25-32(30)49(62)63)41-12-16-64-20-22-66-18-14-44-33(50)6-4-2-1-3-5-11-43-34(51)9-7-27(37(55)56)46-39(59)47-28(38(57)58)8-10-36(53)54/h24-25,27-28,41-42H,1-23,26,40H2,(H,43,51)(H,44,50)(H,45,52)(H,53,54)(H,55,56)(H,57,58)(H2,46,47,59)/t27-,28-/m0/s1
InChIKey=XGPNCFXNLIZWFB-NSOVKSMOSA-N

> <PUBCHEM_SUBSTANCE_SYNONYM>
SCHEMBL16122854

> <PUBCHEM_XREF_EXT_ID>
SCHEMBL16122854

> <PUBCHEM_EXT_DATASOURCE_URL>
https://www.surechembl.org/

> <PUBCHEM_EXT_SUBSTANCE_URL>
https://www.surechembl.org/chemical/SCHEMBL16122854

> <PUBCHEM_CID_ASSOCIATIONS>
117610991  1

> <PUBCHEM_COORDINATE_TYPE>
1
3

> <PUBCHEM_BONDANNOTATIONS>
40  24  5
43  25  6

$$$$
