310944277
  -OEChem-07211613022D

 25 25  0     0  0  0  0  0  0999 V2000
    1.9189   -0.6675    0.0000 O   0  0  0  0  0  0  0  0  0  0  0  0
    1.9282    0.7416    0.0000 O   0  0  0  0  0  0  0  0  0  0  0  0
    0.7045   -1.4089    0.0000 O   0  0  0  0  0  0  0  0  0  0  0  0
    1.9467   -0.6860    0.0000 O   0  0  0  0  0  0  0  0  0  0  0  0
   -0.7416    0.8806    0.0000 O   0  0  0  0  0  0  0  0  0  0  0  0
   -0.0463    2.0949    0.0000 O   0  0  0  0  0  0  0  0  0  0  0  0
    0.6953    0.8806    0.0000 N   0  0  0  0  0  0  0  0  0  0  0  0
   -0.7416   -1.6130    0.0000 N   0  0  0  0  0  0  0  0  0  0  0  0
    0.7045    0.0463    0.0000 C   0  0  0  0  0  0  0  0  0  0  0  0
    1.5295    0.0463    0.0000 C   0  0  0  0  0  0  0  0  0  0  0  0
    1.1124   -0.6767    0.0000 C   0  0  0  0  0  0  0  0  0  0  0  0
    0.0000   -0.3615    0.0000 C   0  0  0  0  0  0  0  0  0  0  0  0
   -0.7416    0.0371    0.0000 C   0  0  0  0  0  0  0  0  0  0  0  0
   -1.4554   -0.3615    0.0000 C   0  0  0  0  0  0  0  0  0  0  0  0
   -0.0185    1.2792    0.0000 C   0  0  0  0  0  0  0  0  0  0  0  0
   -1.4647   -1.1958    0.0000 C   0  0  0  0  0  0  0  0  0  0  0  0
   -2.1784    0.0463    0.0000 C   0  0  0  0  0  0  0  0  0  0  0  0
   -2.1877   -1.6037    0.0000 C   0  0  0  0  0  0  0  0  0  0  0  0
    2.3545   -1.3720    0.0000 C   0  0  0  0  0  0  0  0  0  0  0  0
    2.7625    0.7416    0.0000 C   0  0  0  0  0  0  0  0  0  0  0  0
   -2.8922   -0.3615    0.0000 C   0  0  0  0  0  0  0  0  0  0  0  0
   -0.6953    0.8621    0.0000 C   0  0  0  0  0  0  0  0  0  0  0  0
   -2.9015   -1.1958    0.0000 C   0  0  0  0  0  0  0  0  0  0  0  0
    1.9652   -2.0949    0.0000 C   0  0  0  0  0  0  0  0  0  0  0  0
    3.1796    0.0463    0.0000 C   0  0  0  0  0  0  0  0  0  0  0  0
  1 11  1  0  0  0  0
  1 19  1  0  0  0  0
  2 10  1  0  0  0  0
  2 20  1  0  0  0  0
  3 11  2  0  0  0  0
  4 10  2  0  0  0  0
  5 13  2  0  0  0  0
  6 15  2  0  0  0  0
  7  9  1  0  0  0  0
  7 15  1  0  0  0  0
  8 16  1  0  0  0  0
  9 10  1  0  0  0  0
  9 11  1  0  0  0  0
  9 12  1  0  0  0  0
 12 13  1  0  0  0  0
 13 14  1  0  0  0  0
 14 16  1  0  0  0  0
 14 17  2  0  0  0  0
 15 22  1  0  0  0  0
 16 18  2  0  0  0  0
 17 21  1  0  0  0  0
 18 23  1  0  0  0  0
 19 24  1  0  0  0  0
 20 25  1  0  0  0  0
 21 23  2  0  0  0  0
M  END
> <PUBCHEM_COMPOUND_ID_TYPE>
0

> <PUBCHEM_TOTAL_CHARGE>
0

> <PUBCHEM_SUBSTANCE_ID>
310944277

> <PUBCHEM_SUBSTANCE_VERSION>
1

> <PUBCHEM_EXT_DATASOURCE_NAME>
4488

> <PUBCHEM_EXT_DATASOURCE_REGID>
SCHEMBL16122352

> <PUBCHEM_SUBSTANCE_COMMENT>
InChI=1S/C17H22N2O6/c1-4-24-15(22)17(19-11(3)20,16(23)25-5-2)10-14(21)12-8-6-7-9-13(12)18/h6-9H,4-5,10,18H2,1-3H3,(H,19,20)
InChIKey=XEHUZZKTUQYTIJ-UHFFFAOYSA-N

> <PUBCHEM_SUBSTANCE_SYNONYM>
SCHEMBL16122352

> <PUBCHEM_XREF_EXT_ID>
SCHEMBL16122352

> <PUBCHEM_EXT_DATASOURCE_URL>
https://www.surechembl.org/

> <PUBCHEM_EXT_SUBSTANCE_URL>
https://www.surechembl.org/chemical/SCHEMBL16122352

> <PUBCHEM_CID_ASSOCIATIONS>
10641587  1

> <PUBCHEM_COORDINATE_TYPE>
1
3

$$$$
