310946687
  -OEChem-07211613022D

 37 40  0     0  0  0  0  0  0999 V2000
    0.2809    1.3973    0.0000 F   0  0  0  0  0  0  0  0  0  0  0  0
   -1.1597    3.9182    0.0000 F   0  0  0  0  0  0  0  0  0  0  0  0
    2.1104   -3.8894    0.0000 O   0  0  0  0  0  0  0  0  0  0  0  0
    1.7070    3.9182    0.0000 O   0  0  0  0  0  0  0  0  0  0  0  0
    0.5402   -0.4753    0.0000 N   0  0  0  0  0  0  0  0  0  0  0  0
    1.1597   -2.5497    0.0000 N   0  0  0  0  0  0  0  0  0  0  0  0
   -0.5979   -1.2821    0.0000 N   0  0  0  0  0  0  0  0  0  0  0  0
    1.8511   -1.0372    0.0000 N   0  0  0  0  0  0  0  0  0  0  0  0
   -1.1597    1.3973    0.0000 N   0  0  0  0  0  0  0  0  0  0  0  0
   -0.4825   -2.7082    0.0000 N   0  0  0  0  0  0  0  0  0  0  0  0
   -0.4825    0.9076    0.0000 N   0  0  0  0  0  0  0  0  0  0  0  0
    1.8511   -1.0372    0.0000 N   0  0  0  0  0  0  0  0  0  0  0  0
    1.8511   -1.0372    0.0000 N   0  0  0  0  0  0  0  0  0  0  0  0
    0.6555   -1.8295    0.0000 C   0  0  0  0  0  0  0  0  0  0  0  0
   -0.2809   -0.5041    0.0000 C   0  0  0  0  0  0  0  0  0  0  0  0
    1.0012   -1.0804    0.0000 C   0  0  0  0  0  0  0  0  0  0  0  0
   -0.1512   -1.9159    0.0000 C   0  0  0  0  0  0  0  0  0  0  0  0
   -0.7563    0.1441    0.0000 C   0  0  0  0  0  0  0  0  0  0  0  0
   -1.6062    0.1441    0.0000 C   0  0  0  0  0  0  0  0  0  0  0  0
   -1.8511    0.9507    0.0000 C   0  0  0  0  0  0  0  0  0  0  0  0
   -0.4537    2.6794    0.0000 C   0  0  0  0  0  0  0  0  0  0  0  0
   -2.1392   -0.4610    0.0000 C   0  0  0  0  0  0  0  0  0  0  0  0
    0.8139   -3.2844    0.0000 C   0  0  0  0  0  0  0  0  0  0  0  0
    1.9808   -2.4345    0.0000 C   0  0  0  0  0  0  0  0  0  0  0  0
    0.2665    2.2761    0.0000 C   0  0  0  0  0  0  0  0  0  0  0  0
   -0.4393    3.5149    0.0000 C   0  0  0  0  0  0  0  0  0  0  0  0
   -2.6290    1.1092    0.0000 C   0  0  0  0  0  0  0  0  0  0  0  0
   -1.1597    2.2904    0.0000 C   0  0  0  0  0  0  0  0  0  0  0  0
    0.9868    3.5005    0.0000 C   0  0  0  0  0  0  0  0  0  0  0  0
   -2.9603   -0.3025    0.0000 C   0  0  0  0  0  0  0  0  0  0  0  0
    1.0012    2.7082    0.0000 C   0  0  0  0  0  0  0  0  0  0  0  0
    0.2665    3.9038    0.0000 C   0  0  0  0  0  0  0  0  0  0  0  0
    1.2893   -3.9326    0.0000 C   0  0  0  0  0  0  0  0  0  0  0  0
    2.4561   -3.1116    0.0000 C   0  0  0  0  0  0  0  0  0  0  0  0
   -3.1764    0.5041    0.0000 C   0  0  0  0  0  0  0  0  0  0  0  0
    2.4705    3.5437    0.0000 C   0  0  0  0  0  0  0  0  0  0  0  0
    3.1764    3.9326    0.0000 C   0  0  0  0  0  0  0  0  0  0  0  0
  1 25  1  0  0  0  0
  2 26  1  0  0  0  0
  3 33  1  0  0  0  0
  3 34  1  0  0  0  0
  4 29  1  0  0  0  0
  4 36  1  0  0  0  0
  5 15  1  0  0  0  0
  5 16  2  0  0  0  0
  6 14  1  0  0  0  0
  6 23  1  0  0  0  0
  6 24  1  0  0  0  0
  7 15  2  0  0  0  0
  7 17  1  0  0  0  0
  8 12  1  0  0  0  0
  8 16  1  0  0  0  0
  9 20  1  0  0  0  0
  9 28  1  0  0  0  0
 10 17  1  0  0  0  0
 11 18  2  3  0  0  0
 12 13  2  3  0  0  0
 14 16  1  0  0  0  0
 14 17  2  0  0  0  0
 15 18  1  0  0  0  0
 18 19  1  0  0  0  0
 19 20  2  0  0  0  0
 19 22  1  0  0  0  0
 20 27  1  0  0  0  0
 21 25  2  0  0  0  0
 21 26  1  0  0  0  0
 21 28  1  0  0  0  0
 22 30  2  0  0  0  0
 23 33  1  0  0  0  0
 24 34  1  0  0  0  0
 25 31  1  0  0  0  0
 26 32  2  0  0  0  0
 27 35  2  0  0  0  0
 29 31  2  0  0  0  0
 29 32  1  0  0  0  0
 30 35  1  0  0  0  0
 36 37  1  0  0  0  0
M  END
> <PUBCHEM_COMPOUND_ID_TYPE>
0

> <PUBCHEM_TOTAL_CHARGE>
0

> <PUBCHEM_SUBSTANCE_ID>
310946687

> <PUBCHEM_SUBSTANCE_VERSION>
1

> <PUBCHEM_EXT_DATASOURCE_NAME>
4488

> <PUBCHEM_EXT_DATASOURCE_REGID>
SCHEMBL16124810

> <PUBCHEM_SUBSTANCE_COMMENT>
InChI=1S/C24H27F2N9O2/c1-2-37-14-11-17(25)16(18(26)12-14)13-30-19-6-4-3-5-15(19)20(27)23-31-22(28)21(24(32-23)33-34-29)35-7-9-36-10-8-35/h3-6,11-12,27,30H,2,7-10,13H2,1H3,(H4,28,29,31,32,33)
InChIKey=ZMVQKFDZCGMAEO-UHFFFAOYSA-N

> <PUBCHEM_SUBSTANCE_SYNONYM>
SCHEMBL16124810

> <PUBCHEM_XREF_EXT_ID>
SCHEMBL16124810

> <PUBCHEM_EXT_DATASOURCE_URL>
https://www.surechembl.org/

> <PUBCHEM_EXT_SUBSTANCE_URL>
https://www.surechembl.org/chemical/SCHEMBL16124810

> <PUBCHEM_CID_ASSOCIATIONS>
117612584  1

> <PUBCHEM_COORDINATE_TYPE>
1
3

$$$$
