310943970
  -OEChem-07211613022D

 15 15  0     0  0  0  0  0  0999 V2000
    1.0852   -0.8201    0.0000 Cl  0  0  0  0  0  0  0  0  0  0  0  0
   -0.3683   -1.6450    0.0000 Cl  0  0  0  0  0  0  0  0  0  0  0  0
    1.8022    0.3977    0.0000 Cl  0  0  0  0  0  0  0  0  0  0  0  0
   -1.8022    0.8201    0.0000 Cl  0  0  0  0  0  0  0  0  0  0  0  0
   -0.3585    1.6450    0.0000 F   0  0  0  0  0  0  0  0  0  0  0  0
    1.0754    1.6352    0.0000 O   0  0  0  0  0  0  0  0  0  0  0  0
   -1.8022    0.8201    0.0000 O   0  0  0  0  0  0  0  0  0  0  0  0
    0.3585    0.4370    0.0000 C   0  0  0  0  0  0  0  0  0  0  0  0
   -0.3683    0.8397    0.0000 C   0  0  0  0  0  0  0  0  0  0  0  0
   -1.0852    0.4370    0.0000 C   0  0  0  0  0  0  0  0  0  0  0  0
    0.3487   -0.3879    0.0000 C   0  0  0  0  0  0  0  0  0  0  0  0
   -0.3683   -0.8004    0.0000 C   0  0  0  0  0  0  0  0  0  0  0  0
   -1.0852   -0.3781    0.0000 C   0  0  0  0  0  0  0  0  0  0  0  0
    1.0754    0.8299    0.0000 C   0  0  0  0  0  0  0  0  0  0  0  0
   -1.8022    0.8201    0.0000 C   0  0  0  0  0  0  0  0  0  0  0  0
  1 11  1  0  0  0  0
  2 12  1  0  0  0  0
  3 14  1  0  0  0  0
  4 15  1  0  0  0  0
  5  9  1  0  0  0  0
  6 14  2  0  0  0  0
  7 15  2  0  0  0  0
  8  9  2  0  0  0  0
  8 11  1  0  0  0  0
  8 14  1  0  0  0  0
  9 10  1  0  0  0  0
 10 13  2  0  0  0  0
 10 15  1  0  0  0  0
 11 12  2  0  0  0  0
 12 13  1  0  0  0  0
M  END
> <PUBCHEM_COMPOUND_ID_TYPE>
0

> <PUBCHEM_TOTAL_CHARGE>
0

> <PUBCHEM_SUBSTANCE_ID>
310943970

> <PUBCHEM_SUBSTANCE_VERSION>
1

> <PUBCHEM_EXT_DATASOURCE_NAME>
4488

> <PUBCHEM_EXT_DATASOURCE_REGID>
SCHEMBL16122041

> <PUBCHEM_SUBSTANCE_COMMENT>
InChI=1S/C8HCl4FO2/c9-3-1-2(7(11)14)6(13)4(5(3)10)8(12)15/h1H
InChIKey=WINYMGQXTVZPBB-UHFFFAOYSA-N

> <PUBCHEM_SUBSTANCE_SYNONYM>
SCHEMBL16122041

> <PUBCHEM_XREF_EXT_ID>
SCHEMBL16122041

> <PUBCHEM_EXT_DATASOURCE_URL>
https://www.surechembl.org/

> <PUBCHEM_EXT_SUBSTANCE_URL>
https://www.surechembl.org/chemical/SCHEMBL16122041

> <PUBCHEM_CID_ASSOCIATIONS>
117610277  1

> <PUBCHEM_COORDINATE_TYPE>
1
3

$$$$
