310948380
  -OEChem-07211613022D

 45 46  0     1  0  0  0  0  0999 V2000
   -4.4885    0.3556    0.0000 O   0  0  0  0  0  0  0  0  0  0  0  0
   -3.6400    1.8029    0.0000 O   0  0  0  0  0  0  0  0  0  0  0  0
   -1.1446    0.3556    0.0000 N   0  0  0  0  0  0  0  0  0  0  0  0
    2.1868    0.3556    0.0000 N   0  0  0  0  0  0  0  0  0  0  0  0
   -3.6400    1.8029    0.0000 N   0  0  0  0  0  0  0  0  0  0  0  0
   -1.9931    0.3681    0.0000 C   0  0  0  0  0  0  0  0  0  0  0  0
   -2.4048   -0.3556    0.0000 C   0  0  0  0  0  0  0  0  0  0  0  0
   -3.2283    1.0793    0.0000 C   0  0  0  0  0  0  0  0  0  0  0  0
   -3.2283   -0.3556    0.0000 C   0  0  0  0  0  0  0  0  0  0  0  0
   -3.6276    0.3681    0.0000 C   0  0  0  0  0  0  0  0  0  0  0  0
   -0.3086    0.3681    0.0000 C   0  0  0  0  0  0  0  0  0  0  0  0
   -2.3923    1.0668    0.0000 C   0  0  0  0  0  0  0  0  0  0  0  0
   -3.6400    1.8029    0.0000 C   0  0  0  0  0  0  0  0  0  0  0  0
    0.1031   -0.3431    0.0000 C   0  0  0  0  0  0  0  0  0  0  0  0
    0.0906    1.0917    0.0000 C   0  0  0  0  0  0  0  0  0  0  0  0
    1.3383    0.3681    0.0000 C   0  0  0  0  0  0  0  0  0  0  0  0
    0.9265   -0.3556    0.0000 C   0  0  0  0  0  0  0  0  0  0  0  0
    0.9391    1.0668    0.0000 C   0  0  0  0  0  0  0  0  0  0  0  0
   -1.9806   -1.0793    0.0000 C   0  0  0  0  0  0  0  0  0  0  0  0
   -3.8147   -1.0793    0.0000 C   0  0  0  0  0  0  0  0  0  0  0  0
   -0.5707   -1.0793    0.0000 C   0  0  0  0  0  0  0  0  0  0  0  0
   -0.5707    1.8029    0.0000 C   0  0  0  0  0  0  0  0  0  0  0  0
    2.5985   -0.3681    0.0000 C   0  0  0  0  0  0  0  0  0  0  0  0
    2.5985    1.0793    0.0000 C   0  0  0  0  0  0  0  0  0  0  0  0
   -1.2657    1.2001    0.0000 C   0  0  0  0  0  0  0  0  0  0  0  0
   -2.3799   -1.8029    0.0000 C   0  0  0  0  0  0  0  0  0  0  0  0
   -4.6257   -0.9545    0.0000 C   0  0  0  0  0  0  0  0  0  0  0  0
    2.5985   -0.3681    0.0000 C   0  0  3  0  0  0  0  0  0  0  0  0
    2.5985    1.0793    0.0000 C   0  0  3  0  0  0  0  0  0  0  0  0
   -2.8526    0.9910    0.0000 C   0  0  0  0  0  0  0  0  0  0  0  0
   -1.9054    1.6307    0.0000 C   0  0  0  0  0  0  0  0  0  0  0  0
    4.6257   -0.8828    0.0000 C   0  0  0  0  0  0  0  0  0  0  0  0
    4.6247    0.5648    0.0000 C   0  0  0  0  0  0  0  0  0  0  0  0
    3.5753   -1.5130    0.0000 C   0  0  0  0  0  0  0  0  0  0  0  0
    3.5748   -0.0651    0.0000 C   0  0  0  0  0  0  0  0  0  0  0  0
   -2.5697    1.2124    0.0000 C   0  0  0  0  0  0  0  0  0  0  0  0
    4.0795   -0.5151    0.0000 C   0  0  0  0  0  0  0  0  0  0  0  0
    4.0788    0.9323    0.0000 C   0  0  0  0  0  0  0  0  0  0  0  0
    3.9009   -1.5130    0.0000 C   0  0  0  0  0  0  0  0  0  0  0  0
    3.9003   -0.0651    0.0000 C   0  0  0  0  0  0  0  0  0  0  0  0
    3.5123   -0.8722    0.0000 C   0  0  0  0  0  0  0  0  0  0  0  0
    3.5119    0.5753    0.0000 C   0  0  0  0  0  0  0  0  0  0  0  0
   -3.2586    1.6307    0.0000 C   0  0  0  0  0  0  0  0  0  0  0  0
    2.9241   -0.5151    0.0000 C   0  0  0  0  0  0  0  0  0  0  0  0
    2.9239    0.9323    0.0000 C   0  0  0  0  0  0  0  0  0  0  0  0
  1 10  2  0  0  0  0
  2 13  2  0  0  0  0
  3  6  2  3  0  0  0
  3 11  1  0  0  0  0
  4 16  1  0  0  0  0
  4 23  1  0  0  0  0
  4 24  1  0  0  0  0
  5 13  1  0  0  0  0
  5 25  1  0  0  0  0
  5 30  1  0  0  0  0
  6  7  1  0  0  0  0
  6 12  1  0  0  0  0
  7  9  2  0  0  0  0
  7 19  1  0  0  0  0
  8 10  1  0  0  0  0
  8 12  2  0  0  0  0
  8 13  1  0  0  0  0
  9 10  1  0  0  0  0
  9 20  1  0  0  0  0
 11 14  2  0  0  0  0
 11 15  1  0  0  0  0
 14 17  1  0  0  0  0
 14 21  1  0  0  0  0
 15 18  2  0  0  0  0
 15 22  1  0  0  0  0
 16 17  2  0  0  0  0
 16 18  1  0  0  0  0
 19 26  1  0  0  0  0
 20 27  1  0  0  0  0
 23 28  1  0  0  0  0
 24 29  1  0  0  0  0
 25 31  1  0  0  0  0
 28 32  1  0  0  0  0
 28 34  1  0  0  0  0
 29 33  1  0  0  0  0
 29 35  1  0  0  0  0
 31 36  1  0  0  0  0
 32 37  1  0  0  0  0
 33 38  1  0  0  0  0
 34 39  1  0  0  0  0
 35 40  1  0  0  0  0
 36 43  1  0  0  0  0
 37 41  1  0  0  0  0
 38 42  1  0  0  0  0
 41 44  1  0  0  0  0
 42 45  1  0  0  0  0
M  END
> <PUBCHEM_COMPOUND_ID_TYPE>
0

> <PUBCHEM_TOTAL_CHARGE>
0

> <PUBCHEM_SUBSTANCE_ID>
310948380

> <PUBCHEM_SUBSTANCE_VERSION>
1

> <PUBCHEM_EXT_DATASOURCE_NAME>
4488

> <PUBCHEM_EXT_DATASOURCE_REGID>
SCHEMBL16126561

> <PUBCHEM_SUBSTANCE_COMMENT>
InChI=1S/C40H65N3O2/c1-11-18-21-31(14-4)27-43(28-32(15-5)22-19-12-2)33-24-29(8)38(30(9)25-33)41-37-26-36(40(45)42(10)23-20-13-3)39(44)35(17-7)34(37)16-6/h24-26,31-32H,11-23,27-28H2,1-10H3
InChIKey=HXNBZFHGDAYVJV-UHFFFAOYSA-N

> <PUBCHEM_SUBSTANCE_SYNONYM>
SCHEMBL16126561

> <PUBCHEM_XREF_EXT_ID>
SCHEMBL16126561

> <PUBCHEM_EXT_DATASOURCE_URL>
https://www.surechembl.org/

> <PUBCHEM_EXT_SUBSTANCE_URL>
https://www.surechembl.org/chemical/SCHEMBL16126561

> <PUBCHEM_CID_ASSOCIATIONS>
117613943  1

> <PUBCHEM_COORDINATE_TYPE>
1
3

$$$$
