310945648
  -OEChem-07211613022D

 38 41  0     1  0  0  0  0  0999 V2000
   -5.8328   -0.6779    0.0000 S   0  0  0  0  0  0  0  0  0  0  0  0
    5.7305    0.8314    0.0000 O   0  0  0  0  0  0  0  0  0  0  0  0
    2.7629    0.9849    0.0000 O   0  0  0  0  0  0  0  0  0  0  0  0
   -2.9676   -0.6779    0.0000 O   0  0  0  0  0  0  0  0  0  0  0  0
    7.2399   -0.9082    0.0000 O   0  0  0  0  0  0  0  0  0  0  0  0
    7.0863   -2.2384    0.0000 O   0  0  0  0  0  0  0  0  0  0  0  0
   -6.2677   -1.3942    0.0000 O   0  0  0  0  0  0  0  0  0  0  0  0
   -5.8328   -0.6779    0.0000 O   0  0  0  0  0  0  0  0  0  0  0  0
   -6.5747   -0.2686    0.0000 N   0  0  0  0  0  0  0  0  0  0  0  0
    4.9118   -0.2174    0.0000 C   0  0  0  0  0  0  0  0  0  0  0  0
    4.9630    0.6012    0.0000 C   0  0  0  0  0  0  0  0  0  0  0  0
   -0.8187    0.6012    0.0000 C   0  0  0  0  0  0  0  0  0  0  0  0
    5.7049   -0.4989    0.0000 C   0  0  3  0  0  0  0  0  0  0  0  0
   -0.1024    1.0105    0.0000 C   0  0  0  0  0  0  0  0  0  0  0  0
   -0.8442   -0.2174    0.0000 C   0  0  0  0  0  0  0  0  0  0  0  0
   -1.5350    1.0105    0.0000 C   0  0  0  0  0  0  0  0  0  0  0  0
    3.5048    0.6012    0.0000 C   0  0  0  0  0  0  0  0  0  0  0  0
    4.1955    0.9849    0.0000 C   0  0  0  0  0  0  0  0  0  0  0  0
    4.2211   -0.6268    0.0000 C   0  0  0  0  0  0  0  0  0  0  0  0
    6.2165    0.1663    0.0000 C   0  0  0  0  0  0  0  0  0  0  0  0
    3.5048   -0.2430    0.0000 C   0  0  0  0  0  0  0  0  0  0  0  0
   -2.2513   -0.2430    0.0000 C   0  0  0  0  0  0  0  0  0  0  0  0
    0.6652    0.6268    0.0000 C   0  0  0  0  0  0  0  0  0  0  0  0
    1.3047    1.0105    0.0000 C   0  0  0  0  0  0  0  0  0  0  0  0
   -1.5094   -0.6268    0.0000 C   0  0  0  0  0  0  0  0  0  0  0  0
   -2.2257    0.6012    0.0000 C   0  0  0  0  0  0  0  0  0  0  0  0
    5.9863   -1.2919    0.0000 C   0  0  0  0  0  0  0  0  0  0  0  0
   -0.0768    1.8548    0.0000 C   0  0  0  0  0  0  0  0  0  0  0  0
    2.0978    0.6012    0.0000 C   0  0  0  0  0  0  0  0  0  0  0  0
    1.3303    1.8292    0.0000 C   0  0  0  0  0  0  0  0  0  0  0  0
    0.6139    2.2384    0.0000 C   0  0  0  0  0  0  0  0  0  0  0  0
    6.7793   -1.4710    0.0000 C   0  0  0  0  0  0  0  0  0  0  0  0
   -0.0768   -0.6523    0.0000 C   0  0  0  0  0  0  0  0  0  0  0  0
   -1.5094    1.8548    0.0000 C   0  0  0  0  0  0  0  0  0  0  0  0
   -3.6839   -0.2430    0.0000 C   0  0  0  0  0  0  0  0  0  0  0  0
   -4.4001   -0.6523    0.0000 C   0  0  0  0  0  0  0  0  0  0  0  0
   -5.1165   -0.2430    0.0000 C   0  0  0  0  0  0  0  0  0  0  0  0
   -7.2399   -0.6779    0.0000 C   0  0  0  0  0  0  0  0  0  0  0  0
  1  7  2  0  0  0  0
  1  8  2  0  0  0  0
  1  9  1  0  0  0  0
  1 37  1  0  0  0  0
  2 11  1  0  0  0  0
  2 20  1  0  0  0  0
  3 17  1  0  0  0  0
  3 29  1  0  0  0  0
  4 22  1  0  0  0  0
  4 35  1  0  0  0  0
  5 32  2  0  0  0  0
  6 32  1  0  0  0  0
  9 38  1  0  0  0  0
 10 11  1  0  0  0  0
 10 13  1  0  0  0  0
 10 19  2  0  0  0  0
 11 18  2  0  0  0  0
 12 14  1  0  0  0  0
 12 15  2  0  0  0  0
 12 16  1  0  0  0  0
 13 20  1  0  0  0  0
 13 27  1  0  0  0  0
 14 23  2  0  0  0  0
 14 28  1  0  0  0  0
 15 25  1  0  0  0  0
 15 33  1  0  0  0  0
 16 26  2  0  0  0  0
 16 34  1  0  0  0  0
 17 18  1  0  0  0  0
 17 21  2  0  0  0  0
 19 21  1  0  0  0  0
 22 25  2  0  0  0  0
 22 26  1  0  0  0  0
 23 24  1  0  0  0  0
 24 29  1  0  0  0  0
 24 30  2  0  0  0  0
 27 32  1  0  0  0  0
 28 31  2  0  0  0  0
 30 31  1  0  0  0  0
 35 36  1  0  0  0  0
 36 37  1  0  0  0  0
M  END
> <PUBCHEM_COMPOUND_ID_TYPE>
0

> <PUBCHEM_TOTAL_CHARGE>
0

> <PUBCHEM_SUBSTANCE_ID>
310945648

> <PUBCHEM_SUBSTANCE_VERSION>
1

> <PUBCHEM_EXT_DATASOURCE_NAME>
4488

> <PUBCHEM_EXT_DATASOURCE_REGID>
SCHEMBL16123747

> <PUBCHEM_SUBSTANCE_COMMENT>
InChI=1S/C29H33NO7S/c1-19-12-25(35-10-5-11-38(33,34)30-3)13-20(2)29(19)22-7-4-6-21(14-22)17-36-24-8-9-26-23(15-28(31)32)18-37-27(26)16-24/h4,6-9,12-14,16,23,30H,5,10-11,15,17-18H2,1-3H3,(H,31,32)
InChIKey=AVLTWQKAULLDNW-UHFFFAOYSA-N

> <PUBCHEM_SUBSTANCE_SYNONYM>
SCHEMBL16123747

> <PUBCHEM_XREF_EXT_ID>
SCHEMBL16123747

> <PUBCHEM_EXT_DATASOURCE_URL>
https://www.surechembl.org/

> <PUBCHEM_EXT_SUBSTANCE_URL>
https://www.surechembl.org/chemical/SCHEMBL16123747

> <PUBCHEM_CID_ASSOCIATIONS>
86269040  1

> <PUBCHEM_COORDINATE_TYPE>
1
3

$$$$
