310948120
  -OEChem-07211613022D

 41 45  0     0  0  0  0  0  0999 V2000
   -0.4366   -2.9568    0.0000 S   0  0  0  0  0  0  0  0  0  0  0  0
    2.5637   -2.8933    0.0000 F   0  0  0  0  0  0  0  0  0  0  0  0
    2.0080   -1.8615    0.0000 F   0  0  0  0  0  0  0  0  0  0  0  0
    1.5159   -3.3855    0.0000 F   0  0  0  0  0  0  0  0  0  0  0  0
    0.8652    1.4720    0.0000 O   0  0  0  0  0  0  0  0  0  0  0  0
    0.9922   -2.3854    0.0000 O   0  0  0  0  0  0  0  0  0  0  0  0
   -0.4366   -2.9568    0.0000 O   0  0  0  0  0  0  0  0  0  0  0  0
   -0.4366   -2.9568    0.0000 O   0  0  0  0  0  0  0  0  0  0  0  0
   -0.1508    3.8690    0.0000 O   0  0  0  0  0  0  0  0  0  0  0  0
   -1.8652    2.0276    0.0000 N   0  0  0  0  0  0  0  0  0  0  0  0
   -0.3572    2.0117    0.0000 N   0  0  0  0  0  0  0  0  0  0  0  0
   -1.1985    2.5038    0.0000 N   0  0  0  0  0  0  0  0  0  0  0  0
   -1.3096    4.7262    0.0000 N   0  0  0  0  0  0  0  0  0  0  0  0
   -1.1509    0.7736    0.0000 C   0  0  0  0  0  0  0  0  0  0  0  0
   -0.4366    1.2021    0.0000 C   0  0  0  0  0  0  0  0  0  0  0  0
   -1.8652    1.1862    0.0000 C   0  0  0  0  0  0  0  0  0  0  0  0
    0.3096    0.8529    0.0000 C   0  0  0  0  0  0  0  0  0  0  0  0
   -1.1509   -0.0360    0.0000 C   0  0  0  0  0  0  0  0  0  0  0  0
   -1.8493   -0.4487    0.0000 C   0  0  0  0  0  0  0  0  0  0  0  0
    0.4842    0.0592    0.0000 C   0  0  0  0  0  0  0  0  0  0  0  0
    0.4524    2.1863    0.0000 C   0  0  0  0  0  0  0  0  0  0  0  0
   -2.5637    0.7736    0.0000 C   0  0  0  0  0  0  0  0  0  0  0  0
   -1.8810   -1.2901    0.0000 C   0  0  0  0  0  0  0  0  0  0  0  0
   -2.5478   -0.0519    0.0000 C   0  0  0  0  0  0  0  0  0  0  0  0
   -2.5160    2.5038    0.0000 C   0  0  0  0  0  0  0  0  0  0  0  0
   -1.4524    3.2816    0.0000 C   0  0  0  0  0  0  0  0  0  0  0  0
   -0.1191   -0.5122    0.0000 C   0  0  0  0  0  0  0  0  0  0  0  0
    1.2620   -0.2265    0.0000 C   0  0  0  0  0  0  0  0  0  0  0  0
   -1.1509   -1.7028    0.0000 C   0  0  0  0  0  0  0  0  0  0  0  0
   -1.1667   -2.5282    0.0000 C   0  0  0  0  0  0  0  0  0  0  0  0
   -2.2779    3.2816    0.0000 C   0  0  0  0  0  0  0  0  0  0  0  0
   -2.5637   -1.7028    0.0000 C   0  0  0  0  0  0  0  0  0  0  0  0
    0.8175   -1.5758    0.0000 C   0  0  0  0  0  0  0  0  0  0  0  0
    0.0556   -1.3218    0.0000 C   0  0  0  0  0  0  0  0  0  0  0  0
    1.4366   -1.0202    0.0000 C   0  0  0  0  0  0  0  0  0  0  0  0
    0.7858    2.9483    0.0000 C   0  0  0  0  0  0  0  0  0  0  0  0
   -0.9763    3.9801    0.0000 C   0  0  0  0  0  0  0  0  0  0  0  0
   -1.8493   -2.9410    0.0000 C   0  0  0  0  0  0  0  0  0  0  0  0
   -2.5637   -2.5441    0.0000 C   0  0  0  0  0  0  0  0  0  0  0  0
    1.7858   -2.6393    0.0000 C   0  0  0  0  0  0  0  0  0  0  0  0
    1.2792   -4.7262    0.0000 C   0  0  0  0  0  0  0  0  0  0  0  0
  1  7  2  0  0  0  0
  1  8  2  0  0  0  0
  1 30  1  0  0  0  0
  1 41  1  0  0  0  0
  2 40  1  0  0  0  0
  3 40  1  0  0  0  0
  4 40  1  0  0  0  0
  5 17  1  0  0  0  0
  5 21  1  0  0  0  0
  6 33  1  0  0  0  0
  6 40  1  0  0  0  0
  9 37  2  0  0  0  0
 10 12  1  0  0  0  0
 10 16  1  0  0  0  0
 10 25  1  0  0  0  0
 11 15  1  0  0  0  0
 11 21  2  0  0  0  0
 12 26  2  0  0  0  0
 13 37  1  0  0  0  0
 14 15  1  0  0  0  0
 14 16  1  0  0  0  0
 14 18  2  0  0  0  0
 15 17  2  0  0  0  0
 16 22  2  0  0  0  0
 17 20  1  0  0  0  0
 18 19  1  0  0  0  0
 19 23  1  0  0  0  0
 19 24  2  0  0  0  0
 20 27  2  0  0  0  0
 20 28  1  0  0  0  0
 21 36  1  0  0  0  0
 22 24  1  0  0  0  0
 23 29  2  0  0  0  0
 23 32  1  0  0  0  0
 25 31  2  0  0  0  0
 26 31  1  0  0  0  0
 26 37  1  0  0  0  0
 27 34  1  0  0  0  0
 28 35  2  0  0  0  0
 29 30  1  0  0  0  0
 30 38  2  0  0  0  0
 32 39  2  0  0  0  0
 33 34  2  0  0  0  0
 33 35  1  0  0  0  0
 38 39  1  0  0  0  0
M  END
> <PUBCHEM_COMPOUND_ID_TYPE>
0

> <PUBCHEM_TOTAL_CHARGE>
0

> <PUBCHEM_SUBSTANCE_ID>
310948120

> <PUBCHEM_SUBSTANCE_VERSION>
1

> <PUBCHEM_EXT_DATASOURCE_NAME>
4488

> <PUBCHEM_EXT_DATASOURCE_REGID>
SCHEMBL16126296

> <PUBCHEM_SUBSTANCE_COMMENT>
InChI=1S/C28H21F3N4O5S/c1-16-33-25(26(39-16)17-6-9-20(10-7-17)40-28(29,30)31)22-15-19(18-4-3-5-21(14-18)41(2,37)38)8-11-24(22)35-13-12-23(34-35)27(32)36/h3-15H,1-2H3,(H2,32,36)
InChIKey=SJOLIGOXGIODHE-UHFFFAOYSA-N

> <PUBCHEM_SUBSTANCE_SYNONYM>
SCHEMBL16126296

> <PUBCHEM_XREF_EXT_ID>
SCHEMBL16126296

> <PUBCHEM_EXT_DATASOURCE_URL>
https://www.surechembl.org/

> <PUBCHEM_EXT_SUBSTANCE_URL>
https://www.surechembl.org/chemical/SCHEMBL16126296

> <PUBCHEM_CID_ASSOCIATIONS>
117613737  1

> <PUBCHEM_COORDINATE_TYPE>
1
3

$$$$
