310948554
  -OEChem-07211613022D

 41 46  0     0  0  0  0  0  0999 V2000
    2.8578   -1.5136    0.0000 S   0  0  0  0  0  0  0  0  0  0  0  0
    3.2296    1.2180    0.0000 F   0  0  0  0  0  0  0  0  0  0  0  0
    3.5206    1.9939    0.0000 F   0  0  0  0  0  0  0  0  0  0  0  0
   -1.9751    1.6060    0.0000 O   0  0  0  0  0  0  0  0  0  0  0  0
    2.0173    1.3797    0.0000 O   0  0  0  0  0  0  0  0  0  0  0  0
    2.4700    2.6243    0.0000 O   0  0  0  0  0  0  0  0  0  0  0  0
    2.8578   -1.5136    0.0000 O   0  0  0  0  0  0  0  0  0  0  0  0
    2.8578   -1.5136    0.0000 O   0  0  0  0  0  0  0  0  0  0  0  0
   -1.3932    2.8021    0.0000 N   0  0  0  0  0  0  0  0  0  0  0  0
   -2.5408   -0.5600    0.0000 N   0  0  0  0  0  0  0  0  0  0  0  0
   -3.3167   -0.2690    0.0000 N   0  0  0  0  0  0  0  0  0  0  0  0
   -4.5775    1.5252    0.0000 N   0  0  0  0  0  0  0  0  0  0  0  0
   -1.1669    1.5090    0.0000 C   0  0  0  0  0  0  0  0  0  0  0  0
   -0.7628    0.7816    0.0000 C   0  0  0  0  0  0  0  0  0  0  0  0
   -0.7790    2.2525    0.0000 C   0  0  0  0  0  0  0  0  0  0  0  0
   -1.1992    0.0866    0.0000 C   0  0  0  0  0  0  0  0  0  0  0  0
    0.0130    2.3980    0.0000 C   0  0  0  0  0  0  0  0  0  0  0  0
   -2.0397    0.1027    0.0000 C   0  0  0  0  0  0  0  0  0  0  0  0
    1.3385    1.8970    0.0000 C   0  0  0  0  0  0  0  0  0  0  0  0
    1.6456    2.6889    0.0000 C   0  0  0  0  0  0  0  0  0  0  0  0
    0.0615    0.7331    0.0000 C   0  0  0  0  0  0  0  0  0  0  0  0
    0.5464    1.7676    0.0000 C   0  0  0  0  0  0  0  0  0  0  0  0
    0.4494    0.0220    0.0000 C   0  0  0  0  0  0  0  0  0  0  0  0
    2.7124    1.8646    0.0000 C   0  0  0  0  0  0  0  0  0  0  0  0
   -2.1044    2.4304    0.0000 C   0  0  0  0  0  0  0  0  0  0  0  0
   -0.8113   -0.6570    0.0000 C   0  0  0  0  0  0  0  0  0  0  0  0
    0.3201    3.1577    0.0000 C   0  0  0  0  0  0  0  0  0  0  0  0
    1.1122    3.2870    0.0000 C   0  0  0  0  0  0  0  0  0  0  0  0
    1.2738   -0.0104    0.0000 C   0  0  0  0  0  0  0  0  0  0  0  0
    0.0130   -0.6731    0.0000 C   0  0  0  0  0  0  0  0  0  0  0  0
   -2.4762    0.7655    0.0000 C   0  0  0  0  0  0  0  0  0  0  0  0
   -3.2844    0.5554    0.0000 C   0  0  0  0  0  0  0  0  0  0  0  0
    1.6617   -0.7378    0.0000 C   0  0  0  0  0  0  0  0  0  0  0  0
    2.4861   -0.7863    0.0000 C   0  0  0  0  0  0  0  0  0  0  0  0
    1.7264    0.6846    0.0000 C   0  0  0  0  0  0  0  0  0  0  0  0
   -2.8641    2.7698    0.0000 C   0  0  0  0  0  0  0  0  0  0  0  0
   -2.2984   -1.3682    0.0000 C   0  0  0  0  0  0  0  0  0  0  0  0
   -3.9471    1.0564    0.0000 C   0  0  0  0  0  0  0  0  0  0  0  0
    2.9225   -0.0912    0.0000 C   0  0  0  0  0  0  0  0  0  0  0  0
    2.5346    0.6523    0.0000 C   0  0  0  0  0  0  0  0  0  0  0  0
    4.5775   -3.2870    0.0000 C   0  0  0  0  0  0  0  0  0  0  0  0
  1  7  2  0  0  0  0
  1  8  2  0  0  0  0
  1 34  1  0  0  0  0
  1 41  1  0  0  0  0
  2 24  1  0  0  0  0
  3 24  1  0  0  0  0
  4 13  1  0  0  0  0
  4 25  1  0  0  0  0
  5 19  1  0  0  0  0
  5 24  1  0  0  0  0
  6 20  1  0  0  0  0
  6 24  1  0  0  0  0
  9 15  1  0  0  0  0
  9 25  2  0  0  0  0
 10 11  1  0  0  0  0
 10 18  1  0  0  0  0
 10 37  1  0  0  0  0
 11 32  2  0  0  0  0
 12 38  3  0  0  0  0
 13 14  1  0  0  0  0
 13 15  2  0  0  0  0
 14 16  1  0  0  0  0
 14 21  2  0  0  0  0
 15 17  1  0  0  0  0
 16 18  1  0  0  0  0
 16 26  2  0  0  0  0
 17 22  1  0  0  0  0
 17 27  2  0  0  0  0
 18 31  2  0  0  0  0
 19 20  1  0  0  0  0
 19 22  2  0  0  0  0
 20 28  2  0  0  0  0
 21 23  1  0  0  0  0
 23 29  1  0  0  0  0
 23 30  2  0  0  0  0
 25 36  1  0  0  0  0
 26 30  1  0  0  0  0
 27 28  1  0  0  0  0
 29 33  1  0  0  0  0
 29 35  2  0  0  0  0
 31 32  1  0  0  0  0
 32 38  1  0  0  0  0
 33 34  2  0  0  0  0
 34 39  1  0  0  0  0
 35 40  1  0  0  0  0
 39 40  2  0  0  0  0
M  END
> <PUBCHEM_COMPOUND_ID_TYPE>
0

> <PUBCHEM_TOTAL_CHARGE>
0

> <PUBCHEM_SUBSTANCE_ID>
310948554

> <PUBCHEM_SUBSTANCE_VERSION>
1

> <PUBCHEM_EXT_DATASOURCE_NAME>
4488

> <PUBCHEM_EXT_DATASOURCE_REGID>
SCHEMBL16126736

> <PUBCHEM_SUBSTANCE_COMMENT>
InChI=1S/C29H20F2N4O5S/c1-16-33-27(19-8-10-25-26(13-19)40-29(30,31)39-25)28(38-16)23-12-18(17-5-4-6-21(11-17)41(3,36)37)7-9-22(23)24-14-20(15-32)34-35(24)2/h4-14H,1-3H3
InChIKey=IXFAVUCWKGBJJN-UHFFFAOYSA-N

> <PUBCHEM_SUBSTANCE_SYNONYM>
SCHEMBL16126736

> <PUBCHEM_XREF_EXT_ID>
SCHEMBL16126736

> <PUBCHEM_EXT_DATASOURCE_URL>
https://www.surechembl.org/

> <PUBCHEM_EXT_SUBSTANCE_URL>
https://www.surechembl.org/chemical/SCHEMBL16126736

> <PUBCHEM_CID_ASSOCIATIONS>
117614105  1

> <PUBCHEM_COORDINATE_TYPE>
1
3

$$$$
