310948622
  -OEChem-07211613022D

 26 27  0     1  0  0  0  0  0999 V2000
    1.0587    0.7700    0.0000 O   0  0  0  0  0  0  0  0  0  0  0  0
    0.3438   -0.4537    0.0000 O   0  0  0  0  0  0  0  0  0  0  0  0
   -0.3574    2.4062    0.0000 O   0  0  0  0  0  0  0  0  0  0  0  0
    2.4750   -1.6775    0.0000 O   0  0  0  0  0  0  0  0  0  0  0  0
    2.4750   -0.0412    0.0000 O   0  0  0  0  0  0  0  0  0  0  0  0
    1.0587   -2.5025    0.0000 O   0  0  0  0  0  0  0  0  0  0  0  0
   -0.3574   -0.0412    0.0000 O   0  0  0  0  0  0  0  0  0  0  0  0
   -1.7737    0.7700    0.0000 O   0  0  0  0  0  0  0  0  0  0  0  0
   -0.3574   -2.5025    0.0000 O   0  0  0  0  0  0  0  0  0  0  0  0
    2.4750   -1.6775    0.0000 O   0  0  0  0  0  0  0  0  0  0  0  0
   -2.4750    1.9938    0.0000 O   0  0  0  0  0  0  0  0  0  0  0  0
    2.4750   -1.6775    0.0000 N   0  0  0  0  0  0  0  0  0  0  0  0
    1.0450   -0.0412    0.0000 C   0  0  3  0  0  0  0  0  0  0  0  0
    1.7737   -0.4400    0.0000 C   0  0  3  0  0  0  0  0  0  0  0  0
    0.3438    1.1824    0.0000 C   0  0  3  0  0  0  0  0  0  0  0  0
    1.7462   -1.2787    0.0000 C   0  0  3  0  0  0  0  0  0  0  0  0
    1.0587   -1.6775    0.0000 C   0  0  3  0  0  0  0  0  0  0  0  0
    0.3438   -1.2650    0.0000 C   0  0  3  0  0  0  0  0  0  0  0  0
   -0.3574    0.7838    0.0000 C   0  0  3  0  0  0  0  0  0  0  0  0
    0.3574    2.0074    0.0000 C   0  0  3  0  0  0  0  0  0  0  0  0
   -1.0725    1.1824    0.0000 C   0  0  3  0  0  0  0  0  0  0  0  0
   -1.0587    2.0074    0.0000 C   0  0  3  0  0  0  0  0  0  0  0  0
   -0.3574   -1.6775    0.0000 C   0  0  0  0  0  0  0  0  0  0  0  0
    2.4750   -1.6775    0.0000 C   0  0  0  0  0  0  0  0  0  0  0  0
   -1.7599    2.4200    0.0000 C   0  0  0  0  0  0  0  0  0  0  0  0
    1.0725    2.4200    0.0000 C   0  0  0  0  0  0  0  0  0  0  0  0
 13  1  1  6  0  0  0
 15  1  1  1  0  0  0
  2 13  1  0  0  0  0
  2 18  1  0  0  0  0
  3 20  1  0  0  0  0
  3 22  1  0  0  0  0
 16  4  1  1  0  0  0
  4 24  1  0  0  0  0
 14  5  1  1  0  0  0
 17  6  1  6  0  0  0
 19  7  1  1  0  0  0
 21  8  1  6  0  0  0
  9 23  1  0  0  0  0
 10 24  2  0  0  0  0
 11 25  1  0  0  0  0
 12 24  1  0  0  0  0
 13 14  1  0  0  0  0
 14 16  1  0  0  0  0
 15 19  1  0  0  0  0
 15 20  1  0  0  0  0
 16 17  1  0  0  0  0
 17 18  1  0  0  0  0
 18 23  1  1  0  0  0
 19 21  1  0  0  0  0
 20 26  1  0  0  0  0
 21 22  1  0  0  0  0
 22 25  1  6  0  0  0
M  END
> <PUBCHEM_COMPOUND_ID_TYPE>
0

> <PUBCHEM_TOTAL_CHARGE>
0

> <PUBCHEM_SUBSTANCE_ID>
310948622

> <PUBCHEM_SUBSTANCE_VERSION>
1

> <PUBCHEM_EXT_DATASOURCE_NAME>
4488

> <PUBCHEM_EXT_DATASOURCE_REGID>
SCHEMBL16126805

> <PUBCHEM_SUBSTANCE_COMMENT>
InChI=1S/C14H25NO11/c1-4-11(9(20)7(18)5(2-16)23-4)25-13-10(21)12(26-14(15)22)8(19)6(3-17)24-13/h4-13,16-21H,2-3H2,1H3,(H2,15,22)/t4?,5-,6+,7+,8+,9-,10-,11+,12-,13+/m0/s1
InChIKey=RVYADJZEJWGBDN-FAAMWKNQSA-N

> <PUBCHEM_SUBSTANCE_SYNONYM>
SCHEMBL16126805

> <PUBCHEM_XREF_EXT_ID>
SCHEMBL16126805

> <PUBCHEM_EXT_DATASOURCE_URL>
https://www.surechembl.org/

> <PUBCHEM_EXT_SUBSTANCE_URL>
https://www.surechembl.org/chemical/SCHEMBL16126805

> <PUBCHEM_CID_ASSOCIATIONS>
117614166  1

> <PUBCHEM_COORDINATE_TYPE>
1
3

> <PUBCHEM_BONDANNOTATIONS>
13  1  6
15  1  5
18  23  5
22  25  6
16  4  5
14  5  5
17  6  6
19  7  5
21  8  6

$$$$
