310938934
  -OEChem-07211613022D

 38 40  0     1  0  0  0  0  0999 V2000
    1.8626   -8.8655    0.0000 O   0  0  0  0  0  0  0  0  0  0  0  0
    1.1481   -7.6280    0.0000 O   0  0  0  0  0  0  0  0  0  0  0  0
   -0.9953   -6.3905    0.0000 O   0  0  0  0  0  0  0  0  0  0  0  0
   -1.7098   -7.6280    0.0000 O   0  0  0  0  0  0  0  0  0  0  0  0
    0.4337   -9.6905    0.0000 N   0  0  0  0  0  0  0  0  0  0  0  0
   -0.2808   -7.6280    0.0000 N   0  0  0  0  0  0  0  0  0  0  0  0
    0.4337   -8.8655    0.0000 C   0  0  3  0  0  0  0  0  0  0  0  0
   -0.2808   -8.4530    0.0000 C   0  0  3  0  0  0  0  0  0  0  0  0
    1.1481  -10.1030    0.0000 C   0  0  0  0  0  0  0  0  0  0  0  0
   -0.9953   -8.8655    0.0000 C   0  0  0  0  0  0  0  0  0  0  0  0
    1.1481   -8.4530    0.0000 C   0  0  0  0  0  0  0  0  0  0  0  0
    1.1481  -10.9280    0.0000 C   0  0  0  0  0  0  0  0  0  0  0  0
    1.8626   -9.6905    0.0000 C   0  0  0  0  0  0  0  0  0  0  0  0
   -1.7098   -8.4530    0.0000 C   0  0  0  0  0  0  0  0  0  0  0  0
   -0.9953   -9.6905    0.0000 C   0  0  0  0  0  0  0  0  0  0  0  0
   -0.9953   -7.2155    0.0000 C   0  0  0  0  0  0  0  0  0  0  0  0
    2.5771   -8.4530    0.0000 C   0  0  0  0  0  0  0  0  0  0  0  0
    0.4337  -11.3405    0.0000 C   0  0  0  0  0  0  0  0  0  0  0  0
    2.5771  -10.1030    0.0000 C   0  0  0  0  0  0  0  0  0  0  0  0
    1.8626  -11.3405    0.0000 C   0  0  0  0  0  0  0  0  0  0  0  0
    1.8626   -8.8655    0.0000 C   0  0  0  0  0  0  0  0  0  0  0  0
   -2.4242   -8.8655    0.0000 C   0  0  0  0  0  0  0  0  0  0  0  0
   -1.7098  -10.1030    0.0000 C   0  0  0  0  0  0  0  0  0  0  0  0
   -2.4242   -9.6905    0.0000 C   0  0  0  0  0  0  0  0  0  0  0  0
   -1.7098   -5.9780    0.0000 C   0  0  0  0  0  0  0  0  0  0  0  0
    0.4337  -12.1655    0.0000 C   0  0  0  0  0  0  0  0  0  0  0  0
    3.2915   -9.6905    0.0000 C   0  0  0  0  0  0  0  0  0  0  0  0
    1.8626  -12.1655    0.0000 C   0  0  0  0  0  0  0  0  0  0  0  0
    2.5771   -8.4530    0.0000 C   0  0  0  0  0  0  0  0  0  0  0  0
    1.1481  -12.5780    0.0000 C   0  0  0  0  0  0  0  0  0  0  0  0
    3.2915   -8.8655    0.0000 C   0  0  0  0  0  0  0  0  0  0  0  0
    3.2915   -8.8655    0.0000 C   0  0  0  0  0  0  0  0  0  0  0  0
    3.2915   -8.0405    0.0000 C   0  0  0  0  0  0  0  0  0  0  0  0
    2.5771   -7.6280    0.0000 C   0  0  0  0  0  0  0  0  0  0  0  0
   -3.1387  -10.1030    0.0000 C   0  0  0  0  0  0  0  0  0  0  0  0
   -1.7098   -5.1530    0.0000 C   0  0  0  0  0  0  0  0  0  0  0  0
   -2.4242   -5.5655    0.0000 C   0  0  0  0  0  0  0  0  0  0  0  0
   -2.4242   -6.3905    0.0000 C   0  0  0  0  0  0  0  0  0  0  0  0
  1 11  1  0  0  0  0
  1 17  1  0  0  0  0
  2 11  2  0  0  0  0
  3 16  1  0  0  0  0
  3 25  1  0  0  0  0
  4 16  2  0  0  0  0
  7  5  1  1  0  0  0
  5  9  2  0  0  0  0
  8  6  1  1  0  0  0
  6 16  1  0  0  0  0
  7  8  1  0  0  0  0
  7 11  1  0  0  0  0
  8 10  1  0  0  0  0
  9 12  1  0  0  0  0
  9 13  1  0  0  0  0
 10 14  2  0  0  0  0
 10 15  1  0  0  0  0
 12 18  2  0  0  0  0
 12 20  1  0  0  0  0
 13 19  2  0  0  0  0
 13 21  1  0  0  0  0
 14 22  1  0  0  0  0
 15 23  2  0  0  0  0
 17 32  1  0  0  0  0
 17 33  1  0  0  0  0
 17 34  1  0  0  0  0
 18 26  1  0  0  0  0
 19 27  1  0  0  0  0
 20 28  2  0  0  0  0
 21 29  2  0  0  0  0
 22 24  2  0  0  0  0
 23 24  1  0  0  0  0
 24 35  1  0  0  0  0
 25 36  1  0  0  0  0
 25 37  1  0  0  0  0
 25 38  1  0  0  0  0
 26 30  2  0  0  0  0
 27 31  2  0  0  0  0
 28 30  1  0  0  0  0
 29 31  1  0  0  0  0
M  END
> <PUBCHEM_COMPOUND_ID_TYPE>
0

> <PUBCHEM_TOTAL_CHARGE>
0

> <PUBCHEM_SUBSTANCE_ID>
310938934

> <PUBCHEM_SUBSTANCE_VERSION>
1

> <PUBCHEM_EXT_DATASOURCE_NAME>
4488

> <PUBCHEM_EXT_DATASOURCE_REGID>
SCHEMBL16116853

> <PUBCHEM_SUBSTANCE_COMMENT>
InChI=1S/C32H38N2O4/c1-22-18-20-25(21-19-22)27(34-30(36)38-32(5,6)7)28(29(35)37-31(2,3)4)33-26(23-14-10-8-11-15-23)24-16-12-9-13-17-24/h8-21,27-28H,1-7H3,(H,34,36)/t27-,28+/m1/s1
InChIKey=PVSHXZAXJNECEQ-IZLXSDGUSA-N

> <PUBCHEM_SUBSTANCE_SYNONYM>
SCHEMBL16116853

> <PUBCHEM_XREF_EXT_ID>
SCHEMBL16116853

> <PUBCHEM_EXT_DATASOURCE_URL>
https://www.surechembl.org/

> <PUBCHEM_EXT_SUBSTANCE_URL>
https://www.surechembl.org/chemical/SCHEMBL16116853

> <PUBCHEM_CID_ASSOCIATIONS>
101764159  1

> <PUBCHEM_COORDINATE_TYPE>
1
3

> <PUBCHEM_BONDANNOTATIONS>
7  5  5
8  6  5

$$$$
