310941215
  -OEChem-07211613022D

 23 25  0     1  0  0  0  0  0999 V2000
    0.4435    1.5370    0.0000 O   0  0  0  0  0  0  0  0  0  0  0  0
    0.9101   -1.0443    0.0000 O   0  0  0  0  0  0  0  0  0  0  0  0
    0.4435    1.5370    0.0000 O   0  0  0  0  0  0  0  0  0  0  0  0
    0.2283    0.0800    0.0000 O   0  0  0  0  0  0  0  0  0  0  0  0
   -0.2860    0.2475    0.0000 N   0  0  0  0  0  0  0  0  0  0  0  0
   -1.7620    1.1128    0.0000 C   0  0  3  0  0  0  0  0  0  0  0  0
   -2.5256    0.7056    0.0000 C   0  0  3  0  0  0  0  0  0  0  0  0
   -2.4746    1.5029    0.0000 C   0  0  3  0  0  0  0  0  0  0  0  0
   -1.0325    1.4181    0.0000 C   0  0  0  0  0  0  0  0  0  0  0  0
   -3.2890    0.4342    0.0000 C   0  0  0  0  0  0  0  0  0  0  0  0
   -3.3060    1.7745    0.0000 C   0  0  0  0  0  0  0  0  0  0  0  0
   -0.2860    1.1128    0.0000 C   0  0  0  0  0  0  0  0  0  0  0  0
   -3.7811    1.1128    0.0000 C   0  0  0  0  0  0  0  0  0  0  0  0
    0.4435    1.5370    0.0000 C   0  0  0  0  0  0  0  0  0  0  0  0
    0.2403   -0.6377    0.0000 C   0  0  0  0  0  0  0  0  0  0  0  0
    2.3575   -1.0684    0.0000 C   0  0  0  0  0  0  0  0  0  0  0  0
    1.6637   -0.6137    0.0000 C   0  0  0  0  0  0  0  0  0  0  0  0
    2.3575   -1.8937    0.0000 C   0  0  0  0  0  0  0  0  0  0  0  0
    3.0633   -0.6497    0.0000 C   0  0  0  0  0  0  0  0  0  0  0  0
    2.1831   -0.2571    0.0000 C   0  0  0  0  0  0  0  0  0  0  0  0
    3.0633   -2.3004    0.0000 C   0  0  0  0  0  0  0  0  0  0  0  0
    3.7811   -1.0563    0.0000 C   0  0  0  0  0  0  0  0  0  0  0  0
    3.7811   -1.8817    0.0000 C   0  0  0  0  0  0  0  0  0  0  0  0
  1 14  1  0  0  0  0
  1 20  1  0  0  0  0
  2 15  1  0  0  0  0
  2 17  1  0  0  0  0
  3 14  2  0  0  0  0
  4 15  2  0  0  0  0
  5 12  1  0  0  0  0
  5 15  1  0  0  0  0
  6  7  1  0  0  0  0
  6  8  1  0  0  0  0
  6  9  1  6  0  0  0
  7  8  1  0  0  0  0
  7 10  1  1  0  0  0
  8 11  1  1  0  0  0
  9 12  2  0  0  0  0
 10 13  2  0  0  0  0
 11 13  1  0  0  0  0
 12 14  1  0  0  0  0
 16 17  1  0  0  0  0
 16 18  2  0  0  0  0
 16 19  1  0  0  0  0
 18 21  1  0  0  0  0
 19 22  2  0  0  0  0
 21 23  2  0  0  0  0
 22 23  1  0  0  0  0
M  END
> <PUBCHEM_COMPOUND_ID_TYPE>
0

> <PUBCHEM_TOTAL_CHARGE>
0

> <PUBCHEM_SUBSTANCE_ID>
310941215

> <PUBCHEM_SUBSTANCE_VERSION>
1

> <PUBCHEM_EXT_DATASOURCE_NAME>
4488

> <PUBCHEM_EXT_DATASOURCE_REGID>
SCHEMBL16119175

> <PUBCHEM_SUBSTANCE_COMMENT>
InChI=1S/C18H19NO4/c1-22-17(20)16(10-15-13-8-5-9-14(13)15)19-18(21)23-11-12-6-3-2-4-7-12/h2-8,10,13-15H,9,11H2,1H3,(H,19,21)/b16-10-/t13-,14+,15+/m0/s1
InChIKey=UTCVSXIVFQLZPL-APYCEJNPSA-N

> <PUBCHEM_SUBSTANCE_SYNONYM>
SCHEMBL16119175

> <PUBCHEM_XREF_EXT_ID>
SCHEMBL16119175

> <PUBCHEM_EXT_DATASOURCE_URL>
https://www.surechembl.org/

> <PUBCHEM_EXT_SUBSTANCE_URL>
https://www.surechembl.org/chemical/SCHEMBL16119175

> <PUBCHEM_CID_ASSOCIATIONS>
117608086  1

> <PUBCHEM_COORDINATE_TYPE>
1
3

> <PUBCHEM_BONDANNOTATIONS>
6  9  6
7  10  5
8  11  5

$$$$
