310949848
  -OEChem-07211613022D

 30 32  0     0  0  0  0  0  0999 V2000
   -1.5159    1.2414    0.0000 O   0  0  0  0  0  0  0  0  0  0  0  0
    2.8010    0.4180    0.0000 O   0  0  0  0  0  0  0  0  0  0  0  0
   -3.6869    1.6657    0.0000 O   0  0  0  0  0  0  0  0  0  0  0  0
    3.5246    2.4891    0.0000 O   0  0  0  0  0  0  0  0  0  0  0  0
    4.3856    1.2414    0.0000 O   0  0  0  0  0  0  0  0  0  0  0  0
   -2.2146    0.0062    0.0000 N   0  0  0  0  0  0  0  0  0  0  0  0
   -3.6619   -0.8297    0.0000 N   0  0  0  0  0  0  0  0  0  0  0  0
    2.0899    1.6657    0.0000 N   0  0  0  0  0  0  0  0  0  0  0  0
    4.3856    1.2414    0.0000 N   0  0  0  0  0  0  0  0  0  0  0  0
   -2.2396   -0.8297    0.0000 C   0  0  0  0  0  0  0  0  0  0  0  0
   -2.9507   -1.2414    0.0000 C   0  0  0  0  0  0  0  0  0  0  0  0
   -2.9507   -2.0773    0.0000 C   0  0  0  0  0  0  0  0  0  0  0  0
   -1.5034    0.3930    0.0000 C   0  0  0  0  0  0  0  0  0  0  0  0
   -1.5034   -1.2539    0.0000 C   0  0  0  0  0  0  0  0  0  0  0  0
   -2.2146   -2.4891    0.0000 C   0  0  0  0  0  0  0  0  0  0  0  0
   -0.7798    0.0062    0.0000 C   0  0  0  0  0  0  0  0  0  0  0  0
   -3.6619   -2.4891    0.0000 C   0  0  0  0  0  0  0  0  0  0  0  0
   -1.5034   -2.0773    0.0000 C   0  0  0  0  0  0  0  0  0  0  0  0
   -2.9507    0.4180    0.0000 C   0  0  0  0  0  0  0  0  0  0  0  0
   -0.0687    0.4180    0.0000 C   0  0  0  0  0  0  0  0  0  0  0  0
   -4.3731   -1.2414    0.0000 C   0  0  0  0  0  0  0  0  0  0  0  0
   -4.3856   -2.0773    0.0000 C   0  0  0  0  0  0  0  0  0  0  0  0
    1.3787    1.2539    0.0000 C   0  0  0  0  0  0  0  0  0  0  0  0
   -0.0561    1.2414    0.0000 C   0  0  0  0  0  0  0  0  0  0  0  0
    0.6675    0.0062    0.0000 C   0  0  0  0  0  0  0  0  0  0  0  0
    0.6550    1.6532    0.0000 C   0  0  0  0  0  0  0  0  0  0  0  0
    1.3787    0.4180    0.0000 C   0  0  0  0  0  0  0  0  0  0  0  0
   -2.9507    1.2539    0.0000 C   0  0  0  0  0  0  0  0  0  0  0  0
    2.8135    1.2664    0.0000 C   0  0  0  0  0  0  0  0  0  0  0  0
    3.5371    1.6407    0.0000 C   0  0  0  0  0  0  0  0  0  0  0  0
  1 13  2  0  0  0  0
  2 29  2  0  0  0  0
  3 28  1  0  0  0  0
  4 30  2  0  0  0  0
  5  9  1  0  0  0  0
  6 10  1  0  0  0  0
  6 13  1  0  0  0  0
  6 19  1  0  0  0  0
  7 11  1  0  0  0  0
  7 21  2  0  0  0  0
  8 23  1  0  0  0  0
  8 29  1  0  0  0  0
  9 30  1  0  0  0  0
 10 11  2  0  0  0  0
 10 14  1  0  0  0  0
 11 12  1  0  0  0  0
 12 15  2  0  0  0  0
 12 17  1  0  0  0  0
 13 16  1  0  0  0  0
 14 18  2  0  0  0  0
 15 18  1  0  0  0  0
 16 20  1  0  0  0  0
 17 22  2  0  0  0  0
 19 28  1  0  0  0  0
 20 24  2  0  0  0  0
 20 25  1  0  0  0  0
 21 22  1  0  0  0  0
 23 26  2  0  0  0  0
 23 27  1  0  0  0  0
 24 26  1  0  0  0  0
 25 27  2  0  0  0  0
 29 30  1  0  0  0  0
M  END
> <PUBCHEM_COMPOUND_ID_TYPE>
0

> <PUBCHEM_TOTAL_CHARGE>
0

> <PUBCHEM_SUBSTANCE_ID>
310949848

> <PUBCHEM_SUBSTANCE_VERSION>
1

> <PUBCHEM_EXT_DATASOURCE_NAME>
4488

> <PUBCHEM_EXT_DATASOURCE_REGID>
SCHEMBL16128052

> <PUBCHEM_SUBSTANCE_COMMENT>
InChI=1S/C21H20N4O5/c26-12-11-25(17-5-1-3-15-4-2-10-22-19(15)17)18(27)13-14-6-8-16(9-7-14)23-20(28)21(29)24-30/h1-10,26,30H,11-13H2,(H,23,28)(H,24,29)
InChIKey=COUGFSBKCZDVPJ-UHFFFAOYSA-N

> <PUBCHEM_SUBSTANCE_SYNONYM>
SCHEMBL16128052

> <PUBCHEM_XREF_EXT_ID>
SCHEMBL16128052

> <PUBCHEM_EXT_DATASOURCE_URL>
https://www.surechembl.org/

> <PUBCHEM_EXT_SUBSTANCE_URL>
https://www.surechembl.org/chemical/SCHEMBL16128052

> <PUBCHEM_CID_ASSOCIATIONS>
71523397  1

> <PUBCHEM_COORDINATE_TYPE>
1
3

$$$$
