310948033
  -OEChem-07211613022D

 62 67  0     0  0  0  0  0  0999 V2000
    1.1587   -2.4909    0.0000 S   0  0  0  0  0  0  0  0  0  0  0  0
   -0.2789   -0.0124    0.0000 O   0  0  0  0  0  0  0  0  0  0  0  0
    1.1587   -2.4909    0.0000 O   0  0  0  0  0  0  0  0  0  0  0  0
    1.1587   -2.4909    0.0000 O   0  0  0  0  0  0  0  0  0  0  0  0
    1.1587   -2.4909    0.0000 O   0  0  0  0  0  0  0  0  0  0  0  0
    5.4341    2.4661    0.0000 O   0  0  0  0  0  0  0  0  0  0  0  0
   -6.0041    2.4661    0.0000 O   0  0  0  0  0  0  0  0  0  0  0  0
    2.7202   -0.0124    0.0000 N   0  0  0  0  0  0  0  0  0  0  0  0
   -3.0052   -0.0124    0.0000 N   0  0  0  0  0  0  0  0  0  0  0  0
    4.0337    2.4661    0.0000 N   0  0  0  0  0  0  0  0  0  0  0  0
   -4.4303    2.4661    0.0000 N   0  0  0  0  0  0  0  0  0  0  0  0
   -0.2664   -1.6482    0.0000 C   0  0  0  0  0  0  0  0  0  0  0  0
    0.4399   -1.2392    0.0000 C   0  0  0  0  0  0  0  0  0  0  0  0
   -0.9976   -1.2392    0.0000 C   0  0  0  0  0  0  0  0  0  0  0  0
   -0.2664   -2.4909    0.0000 C   0  0  0  0  0  0  0  0  0  0  0  0
    0.4523   -0.4213    0.0000 C   0  0  0  0  0  0  0  0  0  0  0  0
   -0.9852   -0.4090    0.0000 C   0  0  0  0  0  0  0  0  0  0  0  0
    0.4399   -2.8875    0.0000 C   0  0  0  0  0  0  0  0  0  0  0  0
    1.1463   -1.6482    0.0000 C   0  0  0  0  0  0  0  0  0  0  0  0
   -1.7163   -1.6482    0.0000 C   0  0  0  0  0  0  0  0  0  0  0  0
    1.1711   -0.0124    0.0000 C   0  0  0  0  0  0  0  0  0  0  0  0
   -1.7040   -0.0124    0.0000 C   0  0  0  0  0  0  0  0  0  0  0  0
    1.8775   -0.4090    0.0000 C   0  0  0  0  0  0  0  0  0  0  0  0
   -2.4103   -0.4213    0.0000 C   0  0  0  0  0  0  0  0  0  0  0  0
   -0.9728   -2.8998    0.0000 C   0  0  0  0  0  0  0  0  0  0  0  0
    3.3026    0.4090    0.0000 C   0  0  0  0  0  0  0  0  0  0  0  0
    1.8775   -1.2392    0.0000 C   0  0  0  0  0  0  0  0  0  0  0  0
   -2.4103   -1.2392    0.0000 C   0  0  0  0  0  0  0  0  0  0  0  0
   -3.8602    0.4090    0.0000 C   0  0  0  0  0  0  0  0  0  0  0  0
    0.4399   -3.7177    0.0000 C   0  0  0  0  0  0  0  0  0  0  0  0
    3.3026    1.2269    0.0000 C   0  0  0  0  0  0  0  0  0  0  0  0
   -3.8479    1.2392    0.0000 C   0  0  0  0  0  0  0  0  0  0  0  0
    4.0214    0.0000    0.0000 C   0  0  0  0  0  0  0  0  0  0  0  0
   -4.5667    0.0000    0.0000 C   0  0  0  0  0  0  0  0  0  0  0  0
    4.0214    1.6358    0.0000 C   0  0  0  0  0  0  0  0  0  0  0  0
   -4.5667    1.6482    0.0000 C   0  0  0  0  0  0  0  0  0  0  0  0
    4.7277    0.4090    0.0000 C   0  0  0  0  0  0  0  0  0  0  0  0
   -5.2854    0.4090    0.0000 C   0  0  0  0  0  0  0  0  0  0  0  0
    4.7401    1.2392    0.0000 C   0  0  0  0  0  0  0  0  0  0  0  0
   -5.2730    1.2392    0.0000 C   0  0  0  0  0  0  0  0  0  0  0  0
   -0.9728   -3.7177    0.0000 C   0  0  0  0  0  0  0  0  0  0  0  0
   -0.2789   -4.1267    0.0000 C   0  0  0  0  0  0  0  0  0  0  0  0
    5.4465   -0.0124    0.0000 C   0  0  0  0  0  0  0  0  0  0  0  0
   -6.1528   -0.0124    0.0000 C   0  0  0  0  0  0  0  0  0  0  0  0
    2.5962    1.6482    0.0000 C   0  0  0  0  0  0  0  0  0  0  0  0
   -3.1291    1.6482    0.0000 C   0  0  0  0  0  0  0  0  0  0  0  0
    4.0214   -0.8303    0.0000 C   0  0  0  0  0  0  0  0  0  0  0  0
   -4.5667   -0.8303    0.0000 C   0  0  0  0  0  0  0  0  0  0  0  0
    5.4465    1.6482    0.0000 C   0  0  0  0  0  0  0  0  0  0  0  0
   -5.9918    1.6482    0.0000 C   0  0  0  0  0  0  0  0  0  0  0  0
    4.7154    2.8875    0.0000 C   0  0  0  0  0  0  0  0  0  0  0  0
   -5.2730    2.8875    0.0000 C   0  0  0  0  0  0  0  0  0  0  0  0
    6.1528    0.3717    0.0000 C   0  0  0  0  0  0  0  0  0  0  0  0
   -6.1157   -0.8179    0.0000 C   0  0  0  0  0  0  0  0  0  0  0  0
    4.7277    3.7054    0.0000 C   0  0  0  0  0  0  0  0  0  0  0  0
   -5.2978    3.7054    0.0000 C   0  0  0  0  0  0  0  0  0  0  0  0
    6.8468   -0.0743    0.0000 C   0  0  0  0  0  0  0  0  0  0  0  0
   -6.8468   -1.2269    0.0000 C   0  0  0  0  0  0  0  0  0  0  0  0
    5.4465    4.1267    0.0000 C   0  0  0  0  0  0  0  0  0  0  0  0
    4.0214    4.1267    0.0000 C   0  0  0  0  0  0  0  0  0  0  0  0
   -4.5667    4.1267    0.0000 C   0  0  0  0  0  0  0  0  0  0  0  0
   -5.9918    4.1267    0.0000 C   0  0  0  0  0  0  0  0  0  0  0  0
  1  3  2  0  0  0  0
  1  4  2  0  0  0  0
  1  5  1  0  0  0  0
  1 18  1  0  0  0  0
  2 16  1  0  0  0  0
  2 17  1  0  0  0  0
  6 51  2  0  0  0  0
  7 52  2  0  0  0  0
  8 23  2  0  0  0  0
  8 26  1  0  0  0  0
  9 24  1  0  0  0  0
  9 29  1  0  0  0  0
 10 35  1  0  0  0  0
 10 51  1  0  0  0  0
 11 36  1  0  0  0  0
 11 52  1  0  0  0  0
 12 13  2  0  0  0  0
 12 14  1  0  0  0  0
 12 15  1  0  0  0  0
 13 16  1  0  0  0  0
 13 19  1  0  0  0  0
 14 17  2  0  0  0  0
 14 20  1  0  0  0  0
 15 18  1  0  0  0  0
 15 25  2  0  0  0  0
 16 21  2  0  0  0  0
 17 22  1  0  0  0  0
 18 30  2  0  0  0  0
 19 27  2  0  0  0  0
 20 28  2  0  0  0  0
 21 23  1  0  0  0  0
 22 24  2  0  0  0  0
 23 27  1  0  0  0  0
 24 28  1  0  0  0  0
 25 41  1  0  0  0  0
 26 31  1  0  0  0  0
 26 33  2  0  0  0  0
 29 32  2  0  0  0  0
 29 34  1  0  0  0  0
 30 42  1  0  0  0  0
 31 35  2  0  0  0  0
 31 45  1  0  0  0  0
 32 36  1  0  0  0  0
 32 46  1  0  0  0  0
 33 37  1  0  0  0  0
 33 47  1  0  0  0  0
 34 38  2  0  0  0  0
 34 48  1  0  0  0  0
 35 39  1  0  0  0  0
 36 40  2  0  0  0  0
 37 39  2  0  0  0  0
 37 43  1  0  0  0  0
 38 40  1  0  0  0  0
 38 44  1  0  0  0  0
 39 49  1  0  0  0  0
 40 50  1  0  0  0  0
 41 42  2  0  0  0  0
 43 53  1  0  0  0  0
 44 54  1  0  0  0  0
 51 55  1  0  0  0  0
 52 56  1  0  0  0  0
 53 57  1  0  0  0  0
 54 58  1  0  0  0  0
 55 59  1  0  0  0  0
 55 60  1  0  0  0  0
 56 61  1  0  0  0  0
 56 62  1  0  0  0  0
M  END
> <PUBCHEM_COMPOUND_ID_TYPE>
0

> <PUBCHEM_TOTAL_CHARGE>
0

> <PUBCHEM_SUBSTANCE_ID>
310948033

> <PUBCHEM_SUBSTANCE_VERSION>
1

> <PUBCHEM_EXT_DATASOURCE_NAME>
4488

> <PUBCHEM_EXT_DATASOURCE_REGID>
SCHEMBL16126208

> <PUBCHEM_SUBSTANCE_COMMENT>
InChI=1S/C51H60N4O6S/c1-13-17-37-29(7)46(33(11)48(31(37)9)54-50(56)27(3)4)52-35-21-23-39-42(25-35)61-43-26-36(22-24-40(43)45(39)41-19-15-16-20-44(41)62(58,59)60)53-47-30(8)38(18-14-2)32(10)49(34(47)12)55-51(57)28(5)6/h15-16,19-28,52H,13-14,17-18H2,1-12H3,(H,54,56)(H,55,57)(H,58,59,60)/b53-36-
InChIKey=PJPALSPPWYYACP-TYUQNTISSA-N

> <PUBCHEM_SUBSTANCE_SYNONYM>
SCHEMBL16126208

> <PUBCHEM_XREF_EXT_ID>
SCHEMBL16126208

> <PUBCHEM_EXT_DATASOURCE_URL>
https://www.surechembl.org/

> <PUBCHEM_EXT_SUBSTANCE_URL>
https://www.surechembl.org/chemical/SCHEMBL16126208

> <PUBCHEM_CID_ASSOCIATIONS>
117613668  1

> <PUBCHEM_COORDINATE_TYPE>
1
3

$$$$
