310943825
  -OEChem-07211613022D

 43 47  0     1  0  0  0  0  0999 V2000
    2.2227   -2.0107    0.0000 O   0  0  0  0  0  0  0  0  0  0  0  0
    2.0164    3.3741    0.0000 O   0  0  0  0  0  0  0  0  0  0  0  0
    0.6072   -2.9616    0.0000 O   0  0  0  0  0  0  0  0  0  0  0  0
    2.8184    1.9076    0.0000 N   0  0  0  0  0  0  0  0  0  0  0  0
   -3.6892   -0.1891    0.0000 N   0  0  3  0  0  0  0  0  0  0  0  0
   -1.5696    2.9273    0.0000 N   0  0  0  0  0  0  0  0  0  0  0  0
    4.5714    1.3692    0.0000 N   0  0  3  0  0  0  0  0  0  0  0  0
   -5.4765    0.3495    0.0000 N   0  0  3  0  0  0  0  0  0  0  0  0
   -0.1261    1.0827    0.0000 C   0  0  0  0  0  0  0  0  0  0  0  0
    0.6187    0.6817    0.0000 C   0  0  0  0  0  0  0  0  0  0  0  0
   -0.8249    0.6588    0.0000 C   0  0  0  0  0  0  0  0  0  0  0  0
    0.6072   -0.2693    0.0000 C   0  0  0  0  0  0  0  0  0  0  0  0
    1.3061    1.9305    0.0000 C   0  0  0  0  0  0  0  0  0  0  0  0
    1.2947    1.1056    0.0000 C   0  0  0  0  0  0  0  0  0  0  0  0
   -1.5581    1.0713    0.0000 C   0  0  0  0  0  0  0  0  0  0  0  0
   -0.1146    1.9076    0.0000 C   0  0  0  0  0  0  0  0  0  0  0  0
    0.6187    2.3086    0.0000 C   0  0  0  0  0  0  0  0  0  0  0  0
    2.0050    2.3316    0.0000 C   0  0  0  0  0  0  0  0  0  0  0  0
    1.3176   -0.6702    0.0000 C   0  0  0  0  0  0  0  0  0  0  0  0
   -0.8363   -0.1661    0.0000 C   0  0  0  0  0  0  0  0  0  0  0  0
   -0.1031   -0.6817    0.0000 C   0  0  0  0  0  0  0  0  0  0  0  0
    1.3176   -1.4837    0.0000 C   0  0  0  0  0  0  0  0  0  0  0  0
   -2.2571    0.6588    0.0000 C   0  0  0  0  0  0  0  0  0  0  0  0
   -2.2571   -0.1661    0.0000 C   0  0  0  0  0  0  0  0  0  0  0  0
    0.6187   -1.9076    0.0000 C   0  0  0  0  0  0  0  0  0  0  0  0
   -1.5353   -0.5672    0.0000 C   0  0  0  0  0  0  0  0  0  0  0  0
   -0.1031   -1.5066    0.0000 C   0  0  0  0  0  0  0  0  0  0  0  0
   -1.5696    2.1024    0.0000 C   0  0  0  0  0  0  0  0  0  0  0  0
   -2.9789   -0.5786    0.0000 C   0  0  0  0  0  0  0  0  0  0  0  0
    3.1163    1.1515    0.0000 C   0  0  0  0  0  0  0  0  0  0  0  0
    3.2195    2.6294    0.0000 C   0  0  0  0  0  0  0  0  0  0  0  0
    3.9069    0.8994    0.0000 C   0  0  0  0  0  0  0  0  0  0  0  0
    4.0444    2.7325    0.0000 C   0  0  0  0  0  0  0  0  0  0  0  0
   -4.3537   -0.6473    0.0000 C   0  0  0  0  0  0  0  0  0  0  0  0
   -3.6319    0.6244    0.0000 C   0  0  0  0  0  0  0  0  0  0  0  0
    4.6401    2.1826    0.0000 C   0  0  0  0  0  0  0  0  0  0  0  0
    2.9559   -1.5983    0.0000 C   0  0  0  0  0  0  0  0  0  0  0  0
   -0.1146   -3.3741    0.0000 C   0  0  0  0  0  0  0  0  0  0  0  0
   -5.1671   -0.4067    0.0000 C   0  0  0  0  0  0  0  0  0  0  0  0
   -4.2392    1.1972    0.0000 C   0  0  0  0  0  0  0  0  0  0  0  0
   -5.0641    1.0827    0.0000 C   0  0  0  0  0  0  0  0  0  0  0  0
    5.4765    0.8536    0.0000 C   0  0  0  0  0  0  0  0  0  0  0  0
   -5.4765    0.3495    0.0000 C   0  0  0  0  0  0  0  0  0  0  0  0
  1 22  1  0  0  0  0
  1 37  1  0  0  0  0
  2 18  2  0  0  0  0
  3 25  1  0  0  0  0
  3 38  1  0  0  0  0
  4 18  1  0  0  0  0
  4 30  1  0  0  0  0
  4 31  1  0  0  0  0
  5 29  1  0  0  0  0
  5 34  1  0  0  0  0
  5 35  1  0  0  0  0
  6 28  3  0  0  0  0
  7 32  1  0  0  0  0
  7 36  1  0  0  0  0
  7 42  1  0  0  0  0
  8 39  1  0  0  0  0
  8 41  1  0  0  0  0
  8 43  1  0  0  0  0
  9 10  2  0  0  0  0
  9 11  1  0  0  0  0
  9 16  1  0  0  0  0
 10 12  1  0  0  0  0
 10 14  1  0  0  0  0
 11 15  2  0  0  0  0
 11 20  1  0  0  0  0
 12 19  2  0  0  0  0
 12 21  1  0  0  0  0
 13 14  2  0  0  0  0
 13 17  1  0  0  0  0
 13 18  1  0  0  0  0
 15 23  1  0  0  0  0
 15 28  1  0  0  0  0
 16 17  2  0  0  0  0
 19 22  1  0  0  0  0
 20 26  2  0  0  0  0
 21 27  2  0  0  0  0
 22 25  2  0  0  0  0
 23 24  2  0  0  0  0
 24 26  1  0  0  0  0
 24 29  1  0  0  0  0
 25 27  1  0  0  0  0
 30 32  1  0  0  0  0
 31 33  1  0  0  0  0
 33 36  1  0  0  0  0
 34 39  1  0  0  0  0
 35 40  1  0  0  0  0
 40 41  1  0  0  0  0
M  END
> <PUBCHEM_COMPOUND_ID_TYPE>
0

> <PUBCHEM_TOTAL_CHARGE>
0

> <PUBCHEM_SUBSTANCE_ID>
310943825

> <PUBCHEM_SUBSTANCE_VERSION>
1

> <PUBCHEM_EXT_DATASOURCE_NAME>
4488

> <PUBCHEM_EXT_DATASOURCE_REGID>
SCHEMBL16121896

> <PUBCHEM_SUBSTANCE_COMMENT>
InChI=1S/C35H43N5O3/c1-37-13-5-15-39(19-17-37)25-26-7-10-30(29(21-26)24-36)31-11-8-28(35(41)40-16-6-14-38(2)18-20-40)22-32(31)27-9-12-33(42-3)34(23-27)43-4/h7-12,21-23H,5-6,13-20,25H2,1-4H3
InChIKey=ACWNNONOFJMGAI-UHFFFAOYSA-N

> <PUBCHEM_SUBSTANCE_SYNONYM>
SCHEMBL16121896

> <PUBCHEM_XREF_EXT_ID>
SCHEMBL16121896

> <PUBCHEM_EXT_DATASOURCE_URL>
https://www.surechembl.org/

> <PUBCHEM_EXT_SUBSTANCE_URL>
https://www.surechembl.org/chemical/SCHEMBL16121896

> <PUBCHEM_CID_ASSOCIATIONS>
117610168  1

> <PUBCHEM_COORDINATE_TYPE>
1
3

$$$$
