310941689
  -OEChem-07211613022D

 23 22  0     1  0  0  0  0  0999 V2000
    2.8836   -1.9442    0.0000 O   0  0  0  0  0  0  0  0  0  0  0  0
    1.2243   -0.5921    0.0000 O   0  0  0  0  0  0  0  0  0  0  0  0
    2.3135   -0.4093    0.0000 O   0  0  0  0  0  0  0  0  0  0  0  0
    2.0868   -0.5408    0.0000 N   0  0  0  0  0  0  0  0  0  0  0  0
    3.4318    0.4459    0.0000 N   0  0  0  0  0  0  0  0  0  0  0  0
    2.6643    0.6286    0.0000 N   0  0  0  0  0  0  0  0  0  0  0  0
    2.1380   -1.9736    0.0000 C   0  0  0  0  0  0  0  0  0  0  0  0
    1.0490    0.1608    0.0000 C   0  0  0  0  0  0  0  0  0  0  0  0
    1.7287   -1.2572    0.0000 C   0  0  3  0  0  0  0  0  0  0  0  0
    1.7725   -2.6607    0.0000 C   0  0  0  0  0  0  0  0  0  0  0  0
    1.6995    0.8918    0.0000 C   0  0  3  0  0  0  0  0  0  0  0  0
    1.4582    1.7835    0.0000 C   0  0  0  0  0  0  0  0  0  0  0  0
    2.7301    0.6797    0.0000 C   0  0  3  0  0  0  0  0  0  0  0  0
    1.6776    0.1608    0.0000 C   0  0  0  0  0  0  0  0  0  0  0  0
    2.1746    2.5144    0.0000 C   0  0  0  0  0  0  0  0  0  0  0  0
    0.9028   -1.2866    0.0000 C   0  0  0  0  0  0  0  0  0  0  0  0
    2.5839    1.3523    0.0000 C   0  0  0  0  0  0  0  0  0  0  0  0
    2.2111    0.1608    0.0000 C   0  0  0  0  0  0  0  0  0  0  0  0
    3.1395    1.8712    0.0000 C   0  0  0  0  0  0  0  0  0  0  0  0
    3.1029    2.2879    0.0000 C   0  0  0  0  0  0  0  0  0  0  0  0
    1.9260    3.3623    0.0000 C   0  0  0  0  0  0  0  0  0  0  0  0
    3.8192    1.6738    0.0000 C   0  0  0  0  0  0  0  0  0  0  0  0
    2.9859    2.5144    0.0000 C   0  0  0  0  0  0  0  0  0  0  0  0
  1  7  2  0  0  0  0
  2  8  2  0  0  0  0
  3 18  2  0  0  0  0
  4  9  1  0  0  0  0
  4 14  1  0  0  0  0
 13  5  1  6  0  0  0
  5 14  1  0  0  0  0
 11  6  1  6  0  0  0
  7  9  1  0  0  0  0
  7 10  1  0  0  0  0
  8 10  1  0  0  0  0
  8 11  1  0  0  0  0
  9 16  1  6  0  0  0
 11 12  1  0  0  0  0
 12 15  1  0  0  0  0
 13 17  1  0  0  0  0
 13 18  1  0  0  0  0
 15 20  1  0  0  0  0
 15 21  1  0  0  0  0
 17 19  1  0  0  0  0
 19 22  1  0  0  0  0
 19 23  1  0  0  0  0
M  END
> <PUBCHEM_COMPOUND_ID_TYPE>
0

> <PUBCHEM_TOTAL_CHARGE>
0

> <PUBCHEM_SUBSTANCE_ID>
310941689

> <PUBCHEM_SUBSTANCE_VERSION>
1

> <PUBCHEM_EXT_DATASOURCE_NAME>
4488

> <PUBCHEM_EXT_DATASOURCE_REGID>
SCHEMBL16119720

> <PUBCHEM_SUBSTANCE_COMMENT>
InChI=1S/C17H33N3O3/c1-11(2)6-14(9-21)20-10-19-13(5)16(22)8-17(23)15(18)7-12(3)4/h9,11-15,19-20H,6-8,10,18H2,1-5H3/t13-,14-,15-/m0/s1
InChIKey=NDVGZWNRWIRJIY-KKUMJFAQSA-N

> <PUBCHEM_SUBSTANCE_SYNONYM>
SCHEMBL16119720

> <PUBCHEM_XREF_EXT_ID>
SCHEMBL16119720

> <PUBCHEM_EXT_DATASOURCE_URL>
https://www.surechembl.org/

> <PUBCHEM_EXT_SUBSTANCE_URL>
https://www.surechembl.org/chemical/SCHEMBL16119720

> <PUBCHEM_CID_ASSOCIATIONS>
117608463  1

> <PUBCHEM_COORDINATE_TYPE>
1
3

> <PUBCHEM_BONDANNOTATIONS>
13  5  6
11  6  6
9  16  6

$$$$
