310945752
  -OEChem-07211613022D

 30 33  0     1  0  0  0  0  0999 V2000
    0.2252    2.6402    0.0000 F   0  0  0  0  0  0  0  0  0  0  0  0
    0.5526    1.5759    0.0000 F   0  0  0  0  0  0  0  0  0  0  0  0
   -0.5321    1.2485    0.0000 F   0  0  0  0  0  0  0  0  0  0  0  0
   -2.2923   -2.7221    0.0000 O   0  0  0  0  0  0  0  0  0  0  0  0
   -1.5964   -1.4531    0.0000 N   0  0  0  0  0  0  0  0  0  0  0  0
   -0.1433   -3.5818    0.0000 N   0  0  0  0  0  0  0  0  0  0  0  0
    1.4941   -1.9035    0.0000 N   0  0  3  0  0  0  0  0  0  0  0  0
   -0.1433   -3.5818    0.0000 N   0  0  0  0  0  0  0  0  0  0  0  0
   -1.2076   -0.1638    0.0000 C   0  0  3  0  0  0  0  0  0  0  0  0
   -2.0058   -0.1433    0.0000 C   0  0  3  0  0  0  0  0  0  0  0  0
   -1.5964    1.1257    0.0000 C   0  0  0  0  0  0  0  0  0  0  0  0
   -1.5759    1.9853    0.0000 C   0  0  0  0  0  0  0  0  0  0  0  0
   -0.9415    0.6140    0.0000 C   0  0  0  0  0  0  0  0  0  0  0  0
   -2.2309    0.6550    0.0000 C   0  0  0  0  0  0  0  0  0  0  0  0
   -0.9415   -0.9824    0.0000 C   0  0  0  0  0  0  0  0  0  0  0  0
   -2.2719   -0.9619    0.0000 C   0  0  0  0  0  0  0  0  0  0  0  0
   -0.8801    2.3537    0.0000 C   0  0  0  0  0  0  0  0  0  0  0  0
   -1.5759   -2.2309    0.0000 C   0  0  0  0  0  0  0  0  0  0  0  0
   -0.1638    1.9444    0.0000 C   0  0  0  0  0  0  0  0  0  0  0  0
   -0.8596   -2.6607    0.0000 C   0  0  0  0  0  0  0  0  0  0  0  0
   -2.2923    2.3947    0.0000 C   0  0  0  0  0  0  0  0  0  0  0  0
   -0.1228   -2.2923    0.0000 C   0  0  0  0  0  0  0  0  0  0  0  0
   -0.8801    3.1928    0.0000 C   0  0  0  0  0  0  0  0  0  0  0  0
   -2.2719    3.1928    0.0000 C   0  0  0  0  0  0  0  0  0  0  0  0
   -1.5964    3.5818    0.0000 C   0  0  0  0  0  0  0  0  0  0  0  0
    0.4298   -2.9268    0.0000 C   0  0  0  0  0  0  0  0  0  0  0  0
    0.0819   -1.5145    0.0000 C   0  0  0  0  0  0  0  0  0  0  0  0
    1.2485   -2.7016    0.0000 C   0  0  0  0  0  0  0  0  0  0  0  0
    0.8392   -1.3099    0.0000 C   0  0  0  0  0  0  0  0  0  0  0  0
    2.2923   -1.6578    0.0000 C   0  0  0  0  0  0  0  0  0  0  0  0
  1 19  1  0  0  0  0
  2 19  1  0  0  0  0
  3 19  1  0  0  0  0
  4 18  2  0  0  0  0
  5 15  1  0  0  0  0
  5 16  1  0  0  0  0
  5 18  1  0  0  0  0
  6  8  1  0  0  0  0
  6 20  2  3  0  0  0
  7 28  1  0  0  0  0
  7 29  1  0  0  0  0
  7 30  1  0  0  0  0
  9 10  1  0  0  0  0
  9 13  1  0  0  0  0
  9 15  1  1  0  0  0
 10 14  1  0  0  0  0
 10 16  1  0  0  0  0
 11 12  1  0  0  0  0
 11 13  1  0  0  0  0
 11 14  1  0  0  0  0
 12 17  2  0  0  0  0
 12 21  1  0  0  0  0
 17 19  1  0  0  0  0
 17 23  1  0  0  0  0
 18 20  1  0  0  0  0
 20 22  1  0  0  0  0
 21 24  2  0  0  0  0
 22 26  2  0  0  0  0
 22 27  1  0  0  0  0
 23 25  2  0  0  0  0
 24 25  1  0  0  0  0
 26 28  1  0  0  0  0
 27 29  1  0  0  0  0
M  END
> <PUBCHEM_COMPOUND_ID_TYPE>
0

> <PUBCHEM_TOTAL_CHARGE>
0

> <PUBCHEM_SUBSTANCE_ID>
310945752

> <PUBCHEM_SUBSTANCE_VERSION>
1

> <PUBCHEM_EXT_DATASOURCE_NAME>
4488

> <PUBCHEM_EXT_DATASOURCE_REGID>
SCHEMBL16123856

> <PUBCHEM_SUBSTANCE_COMMENT>
InChI=1S/C22H27F3N4O/c1-28-8-6-14(7-9-28)20(27-26)21(30)29-12-16-10-15(11-17(16)13-29)18-4-2-3-5-19(18)22(23,24)25/h2-6,15-17H,7-13,26H2,1H3/b27-20-/t15?,16-,17?/m0/s1
InChIKey=UKIZCNYQSXGRGS-BOOYDITRSA-N

> <PUBCHEM_SUBSTANCE_SYNONYM>
SCHEMBL16123856

> <PUBCHEM_XREF_EXT_ID>
SCHEMBL16123856

> <PUBCHEM_EXT_DATASOURCE_URL>
https://www.surechembl.org/

> <PUBCHEM_EXT_SUBSTANCE_URL>
https://www.surechembl.org/chemical/SCHEMBL16123856

> <PUBCHEM_CID_ASSOCIATIONS>
117611745  1

> <PUBCHEM_COORDINATE_TYPE>
1
3

> <PUBCHEM_BONDANNOTATIONS>
9  15  5

$$$$
