310942288
  -OEChem-07211613022D

 22 23  0     1  0  0  0  0  0999 V2000
    0.8685    1.3358    0.0000 S   0  0  0  0  0  0  0  0  0  0  0  0
   -2.5079   -0.6146    0.0000 O   0  0  0  0  0  0  0  0  0  0  0  0
   -1.7867   -1.8275    0.0000 O   0  0  0  0  0  0  0  0  0  0  0  0
    0.8685    1.3358    0.0000 O   0  0  0  0  0  0  0  0  0  0  0  0
    0.8685    1.3358    0.0000 O   0  0  0  0  0  0  0  0  0  0  0  0
    0.2129   -0.2377    0.0000 N   0  0  0  0  0  0  0  0  0  0  0  0
    1.0324   -0.3524    0.0000 N   0  0  0  0  0  0  0  0  0  0  0  0
    0.8685    1.3358    0.0000 N   0  0  0  0  0  0  0  0  0  0  0  0
   -0.2461    0.4507    0.0000 C   0  0  0  0  0  0  0  0  0  0  0  0
   -1.0983   -0.5654    0.0000 C   0  0  0  0  0  0  0  0  0  0  0  0
   -0.3116   -0.8605    0.0000 C   0  0  0  0  0  0  0  0  0  0  0  0
   -1.0163    0.2377    0.0000 C   0  0  0  0  0  0  0  0  0  0  0  0
    0.0490    1.2211    0.0000 C   0  0  3  0  0  0  0  0  0  0  0  0
   -1.7702   -0.9916    0.0000 C   0  0  0  0  0  0  0  0  0  0  0  0
   -0.0002   -1.6143    0.0000 C   0  0  0  0  0  0  0  0  0  0  0  0
   -1.7211    0.7785    0.0000 C   0  0  0  0  0  0  0  0  0  0  0  0
    1.3439   -1.1063    0.0000 C   0  0  0  0  0  0  0  0  0  0  0  0
    0.8193   -1.7455    0.0000 C   0  0  0  0  0  0  0  0  0  0  0  0
   -0.4919    1.8766    0.0000 C   0  0  0  0  0  0  0  0  0  0  0  0
   -3.1634   -1.0735    0.0000 C   0  0  0  0  0  0  0  0  0  0  0  0
    3.1634   -1.0308    0.0000 C   0  0  0  0  0  0  0  0  0  0  0  0
   -3.0814   -1.8766    0.0000 C   0  0  0  0  0  0  0  0  0  0  0  0
  1  4  2  0  0  0  0
  1  5  2  0  0  0  0
  1  8  1  0  0  0  0
  1 21  1  0  0  0  0
  2 14  1  0  0  0  0
  2 20  1  0  0  0  0
  3 14  2  0  0  0  0
  6  7  1  0  0  0  0
  6  9  1  0  0  0  0
  6 11  1  0  0  0  0
  7 17  2  0  0  0  0
  8 13  1  0  0  0  0
  9 12  2  0  0  0  0
  9 13  1  0  0  0  0
 10 11  2  0  0  0  0
 10 12  1  0  0  0  0
 10 14  1  0  0  0  0
 11 15  1  0  0  0  0
 12 16  1  0  0  0  0
 13 19  1  0  0  0  0
 15 18  2  0  0  0  0
 17 18  1  0  0  0  0
 20 22  1  0  0  0  0
M  END
> <PUBCHEM_COMPOUND_ID_TYPE>
0

> <PUBCHEM_TOTAL_CHARGE>
0

> <PUBCHEM_SUBSTANCE_ID>
310942288

> <PUBCHEM_SUBSTANCE_VERSION>
1

> <PUBCHEM_EXT_DATASOURCE_NAME>
4488

> <PUBCHEM_EXT_DATASOURCE_REGID>
SCHEMBL16120323

> <PUBCHEM_SUBSTANCE_COMMENT>
InChI=1S/C14H19N3O4S/c1-5-21-14(18)12-9(2)13(10(3)16-22(4,19)20)17-11(12)7-6-8-15-17/h6-8,10,16H,5H2,1-4H3
InChIKey=IPTCCIQPOCDILU-UHFFFAOYSA-N

> <PUBCHEM_SUBSTANCE_SYNONYM>
SCHEMBL16120323

> <PUBCHEM_XREF_EXT_ID>
SCHEMBL16120323

> <PUBCHEM_EXT_DATASOURCE_URL>
https://www.surechembl.org/

> <PUBCHEM_EXT_SUBSTANCE_URL>
https://www.surechembl.org/chemical/SCHEMBL16120323

> <PUBCHEM_CID_ASSOCIATIONS>
117608937  1

> <PUBCHEM_COORDINATE_TYPE>
1
3

$$$$
