310948489
  -OEChem-07211613022D

 41 45  0     0  0  0  0  0  0999 V2000
   -0.3456   -3.3242    0.0000 S   0  0  0  0  0  0  0  0  0  0  0  0
    2.6651   -3.2628    0.0000 F   0  0  0  0  0  0  0  0  0  0  0  0
    2.1122   -2.2182    0.0000 F   0  0  0  0  0  0  0  0  0  0  0  0
    1.6052   -3.7543    0.0000 F   0  0  0  0  0  0  0  0  0  0  0  0
   -0.2688    1.6528    0.0000 O   0  0  0  0  0  0  0  0  0  0  0  0
    1.0829   -2.7404    0.0000 O   0  0  0  0  0  0  0  0  0  0  0  0
   -0.3456   -3.3242    0.0000 O   0  0  0  0  0  0  0  0  0  0  0  0
   -0.3456   -3.3242    0.0000 O   0  0  0  0  0  0  0  0  0  0  0  0
   -1.7742    1.6682    0.0000 N   0  0  0  0  0  0  0  0  0  0  0  0
    0.9447    1.1152    0.0000 N   0  0  0  0  0  0  0  0  0  0  0  0
   -2.4348    2.1598    0.0000 N   0  0  0  0  0  0  0  0  0  0  0  0
   -1.9893    5.0937    0.0000 N   0  0  0  0  0  0  0  0  0  0  0  0
   -1.0522    0.4239    0.0000 C   0  0  0  0  0  0  0  0  0  0  0  0
   -0.3610    0.8387    0.0000 C   0  0  0  0  0  0  0  0  0  0  0  0
   -1.7895    0.8387    0.0000 C   0  0  0  0  0  0  0  0  0  0  0  0
    0.3917    0.5007    0.0000 C   0  0  0  0  0  0  0  0  0  0  0  0
   -1.0676   -0.3902    0.0000 C   0  0  0  0  0  0  0  0  0  0  0  0
   -1.7742   -0.8050    0.0000 C   0  0  0  0  0  0  0  0  0  0  0  0
    0.5606   -0.3134    0.0000 C   0  0  0  0  0  0  0  0  0  0  0  0
    0.5453    1.8218    0.0000 C   0  0  0  0  0  0  0  0  0  0  0  0
   -2.4808    0.4239    0.0000 C   0  0  0  0  0  0  0  0  0  0  0  0
   -1.7742   -1.6344    0.0000 C   0  0  0  0  0  0  0  0  0  0  0  0
   -2.4808   -0.3902    0.0000 C   0  0  0  0  0  0  0  0  0  0  0  0
   -1.1137    2.1444    0.0000 C   0  0  0  0  0  0  0  0  0  0  0  0
    1.3441   -0.5745    0.0000 C   0  0  0  0  0  0  0  0  0  0  0  0
   -0.0230   -0.8511    0.0000 C   0  0  0  0  0  0  0  0  0  0  0  0
   -2.1736    2.9585    0.0000 C   0  0  0  0  0  0  0  0  0  0  0  0
   -1.0676   -2.0646    0.0000 C   0  0  0  0  0  0  0  0  0  0  0  0
   -1.0676   -2.8787    0.0000 C   0  0  0  0  0  0  0  0  0  0  0  0
   -2.4808   -2.0646    0.0000 C   0  0  0  0  0  0  0  0  0  0  0  0
   -1.3594    2.9431    0.0000 C   0  0  0  0  0  0  0  0  0  0  0  0
    0.9140   -1.9264    0.0000 C   0  0  0  0  0  0  0  0  0  0  0  0
    1.5131   -1.3733    0.0000 C   0  0  0  0  0  0  0  0  0  0  0  0
    0.1305   -1.6651    0.0000 C   0  0  0  0  0  0  0  0  0  0  0  0
    0.8679    2.5899    0.0000 C   0  0  0  0  0  0  0  0  0  0  0  0
   -1.7434   -3.2935    0.0000 C   0  0  0  0  0  0  0  0  0  0  0  0
   -2.4808   -2.8940    0.0000 C   0  0  0  0  0  0  0  0  0  0  0  0
   -2.6651    3.6191    0.0000 C   0  0  0  0  0  0  0  0  0  0  0  0
    1.8665   -3.0015    0.0000 C   0  0  0  0  0  0  0  0  0  0  0  0
    1.3703   -5.0937    0.0000 C   0  0  0  0  0  0  0  0  0  0  0  0
   -2.3273    4.3718    0.0000 C   0  0  0  0  0  0  0  0  0  0  0  0
  1  7  2  0  0  0  0
  1  8  2  0  0  0  0
  1 29  1  0  0  0  0
  1 40  1  0  0  0  0
  2 39  1  0  0  0  0
  3 39  1  0  0  0  0
  4 39  1  0  0  0  0
  5 14  1  0  0  0  0
  5 20  1  0  0  0  0
  6 32  1  0  0  0  0
  6 39  1  0  0  0  0
  9 11  1  0  0  0  0
  9 15  1  0  0  0  0
  9 24  1  0  0  0  0
 10 16  1  0  0  0  0
 10 20  2  0  0  0  0
 11 27  2  0  0  0  0
 12 41  3  0  0  0  0
 13 14  1  0  0  0  0
 13 15  1  0  0  0  0
 13 17  2  0  0  0  0
 14 16  2  0  0  0  0
 15 21  2  0  0  0  0
 16 19  1  0  0  0  0
 17 18  1  0  0  0  0
 18 22  1  0  0  0  0
 18 23  2  0  0  0  0
 19 25  2  0  0  0  0
 19 26  1  0  0  0  0
 20 35  1  0  0  0  0
 21 23  1  0  0  0  0
 22 28  2  0  0  0  0
 22 30  1  0  0  0  0
 24 31  2  0  0  0  0
 25 33  1  0  0  0  0
 26 34  2  0  0  0  0
 27 31  1  0  0  0  0
 27 38  1  0  0  0  0
 28 29  1  0  0  0  0
 29 36  2  0  0  0  0
 30 37  2  0  0  0  0
 32 33  2  0  0  0  0
 32 34  1  0  0  0  0
 36 37  1  0  0  0  0
 38 41  1  0  0  0  0
M  END
> <PUBCHEM_COMPOUND_ID_TYPE>
0

> <PUBCHEM_TOTAL_CHARGE>
0

> <PUBCHEM_SUBSTANCE_ID>
310948489

> <PUBCHEM_SUBSTANCE_VERSION>
1

> <PUBCHEM_EXT_DATASOURCE_NAME>
4488

> <PUBCHEM_EXT_DATASOURCE_REGID>
SCHEMBL16126671

> <PUBCHEM_SUBSTANCE_COMMENT>
InChI=1S/C29H21F3N4O4S/c1-18-34-27(19-6-9-23(10-7-19)40-29(30,31)32)28(39-18)25-17-21(20-4-3-5-24(16-20)41(2,37)38)8-11-26(25)36-15-13-22(35-36)12-14-33/h3-11,13,15-17H,12H2,1-2H3
InChIKey=NKHWNVOJKJTWRE-UHFFFAOYSA-N

> <PUBCHEM_SUBSTANCE_SYNONYM>
SCHEMBL16126671

> <PUBCHEM_XREF_EXT_ID>
SCHEMBL16126671

> <PUBCHEM_EXT_DATASOURCE_URL>
https://www.surechembl.org/

> <PUBCHEM_EXT_SUBSTANCE_URL>
https://www.surechembl.org/chemical/SCHEMBL16126671

> <PUBCHEM_CID_ASSOCIATIONS>
117614046  1

> <PUBCHEM_COORDINATE_TYPE>
1
3

$$$$
