310948318
  -OEChem-07211613022D

 43 47  0     0  0  0  0  0  0999 V2000
    0.1417   -2.9231    0.0000 S   0  0  0  0  0  0  0  0  0  0  0  0
    2.8343   -1.2539    0.0000 F   0  0  0  0  0  0  0  0  0  0  0  0
    0.0157   -1.8523    0.0000 F   0  0  0  0  0  0  0  0  0  0  0  0
   -2.8343    3.4385    0.0000 F   0  0  0  0  0  0  0  0  0  0  0  0
   -2.6926    4.5722    0.0000 F   0  0  0  0  0  0  0  0  0  0  0  0
   -1.5747    4.4147    0.0000 F   0  0  0  0  0  0  0  0  0  0  0  0
    1.6062   -2.3719    0.0000 F   0  0  0  0  0  0  0  0  0  0  0  0
    1.6062   -2.3719    0.0000 F   0  0  0  0  0  0  0  0  0  0  0  0
    1.4644    1.4702    0.0000 O   0  0  0  0  0  0  0  0  0  0  0  0
    1.6062   -2.3719    0.0000 O   0  0  0  0  0  0  0  0  0  0  0  0
    0.1417   -2.9231    0.0000 O   0  0  0  0  0  0  0  0  0  0  0  0
    0.1417   -2.9231    0.0000 O   0  0  0  0  0  0  0  0  0  0  0  0
   -1.2912    2.0213    0.0000 N   0  0  0  0  0  0  0  0  0  0  0  0
    0.2362    2.0213    0.0000 N   0  0  0  0  0  0  0  0  0  0  0  0
   -1.9683    2.5095    0.0000 N   0  0  0  0  0  0  0  0  0  0  0  0
    0.1417    1.2025    0.0000 C   0  0  0  0  0  0  0  0  0  0  0  0
   -0.5669    0.7931    0.0000 C   0  0  0  0  0  0  0  0  0  0  0  0
    0.9133    0.8561    0.0000 C   0  0  0  0  0  0  0  0  0  0  0  0
   -1.2912    1.2025    0.0000 C   0  0  0  0  0  0  0  0  0  0  0  0
    1.0865    0.0845    0.0000 C   0  0  0  0  0  0  0  0  0  0  0  0
   -0.5826   -0.0415    0.0000 C   0  0  0  0  0  0  0  0  0  0  0  0
   -1.2755   -0.4351    0.0000 C   0  0  0  0  0  0  0  0  0  0  0  0
    1.0550    2.1945    0.0000 C   0  0  0  0  0  0  0  0  0  0  0  0
   -1.9998    0.7931    0.0000 C   0  0  0  0  0  0  0  0  0  0  0  0
   -1.7164    3.2968    0.0000 C   0  0  0  0  0  0  0  0  0  0  0  0
   -1.3070   -1.2697    0.0000 C   0  0  0  0  0  0  0  0  0  0  0  0
   -1.9998   -0.0415    0.0000 C   0  0  0  0  0  0  0  0  0  0  0  0
    1.8738   -0.1989    0.0000 C   0  0  0  0  0  0  0  0  0  0  0  0
    0.4724   -0.4981    0.0000 C   0  0  0  0  0  0  0  0  0  0  0  0
   -0.6298    2.5252    0.0000 C   0  0  0  0  0  0  0  0  0  0  0  0
    1.4329   -1.5374    0.0000 C   0  0  0  0  0  0  0  0  0  0  0  0
    2.0470   -0.9862    0.0000 C   0  0  0  0  0  0  0  0  0  0  0  0
    0.6456   -1.2854    0.0000 C   0  0  0  0  0  0  0  0  0  0  0  0
   -2.2045    3.9423    0.0000 C   0  0  0  0  0  0  0  0  0  0  0  0
   -0.8660    3.2810    0.0000 C   0  0  0  0  0  0  0  0  0  0  0  0
   -0.5826   -1.6791    0.0000 C   0  0  0  0  0  0  0  0  0  0  0  0
   -0.5826   -2.4979    0.0000 C   0  0  0  0  0  0  0  0  0  0  0  0
   -1.9998   -1.6791    0.0000 C   0  0  0  0  0  0  0  0  0  0  0  0
    1.3857    2.9503    0.0000 C   0  0  0  0  0  0  0  0  0  0  0  0
   -1.2755   -2.9073    0.0000 C   0  0  0  0  0  0  0  0  0  0  0  0
   -1.9998   -2.5136    0.0000 C   0  0  0  0  0  0  0  0  0  0  0  0
    1.6062   -2.3719    0.0000 C   0  0  0  0  0  0  0  0  0  0  0  0
    1.7409   -4.5722    0.0000 C   0  0  0  0  0  0  0  0  0  0  0  0
  1 11  2  0  0  0  0
  1 12  2  0  0  0  0
  1 37  1  0  0  0  0
  1 43  1  0  0  0  0
  2 32  1  0  0  0  0
  3 33  1  0  0  0  0
  4 34  1  0  0  0  0
  5 34  1  0  0  0  0
  6 34  1  0  0  0  0
  7 42  1  0  0  0  0
  8 42  1  0  0  0  0
  9 18  1  0  0  0  0
  9 23  1  0  0  0  0
 10 31  1  0  0  0  0
 10 42  1  0  0  0  0
 13 15  1  0  0  0  0
 13 19  1  0  0  0  0
 13 30  1  0  0  0  0
 14 16  1  0  0  0  0
 14 23  2  0  0  0  0
 15 25  2  0  0  0  0
 16 17  1  0  0  0  0
 16 18  2  0  0  0  0
 17 19  1  0  0  0  0
 17 21  2  0  0  0  0
 18 20  1  0  0  0  0
 19 24  2  0  0  0  0
 20 28  2  0  0  0  0
 20 29  1  0  0  0  0
 21 22  1  0  0  0  0
 22 26  1  0  0  0  0
 22 27  2  0  0  0  0
 23 39  1  0  0  0  0
 24 27  1  0  0  0  0
 25 34  1  0  0  0  0
 25 35  1  0  0  0  0
 26 36  2  0  0  0  0
 26 38  1  0  0  0  0
 28 32  1  0  0  0  0
 29 33  2  0  0  0  0
 30 35  2  0  0  0  0
 31 32  2  0  0  0  0
 31 33  1  0  0  0  0
 36 37  1  0  0  0  0
 37 40  2  0  0  0  0
 38 41  2  0  0  0  0
 40 41  1  0  0  0  0
M  END
> <PUBCHEM_COMPOUND_ID_TYPE>
0

> <PUBCHEM_TOTAL_CHARGE>
0

> <PUBCHEM_SUBSTANCE_ID>
310948318

> <PUBCHEM_SUBSTANCE_VERSION>
1

> <PUBCHEM_EXT_DATASOURCE_NAME>
4488

> <PUBCHEM_EXT_DATASOURCE_REGID>
SCHEMBL16126496

> <PUBCHEM_SUBSTANCE_COMMENT>
InChI=1S/C28H18F7N3O4S/c1-14-36-24(25(41-14)17-12-20(29)26(21(30)13-17)42-27(31)32)19-11-16(15-4-3-5-18(10-15)43(2,39)40)6-7-22(19)38-9-8-23(37-38)28(33,34)35/h3-13,27H,1-2H3
InChIKey=QPUDKIOHBOCQJC-UHFFFAOYSA-N

> <PUBCHEM_SUBSTANCE_SYNONYM>
SCHEMBL16126496

> <PUBCHEM_XREF_EXT_ID>
SCHEMBL16126496

> <PUBCHEM_EXT_DATASOURCE_URL>
https://www.surechembl.org/

> <PUBCHEM_EXT_SUBSTANCE_URL>
https://www.surechembl.org/chemical/SCHEMBL16126496

> <PUBCHEM_CID_ASSOCIATIONS>
117613883  1

> <PUBCHEM_COORDINATE_TYPE>
1
3

$$$$
