310947496
  -OEChem-07211613022D

 34 33  0     1  0  0  0  0  0999 V2000
   -6.7779    7.1750    0.0000 O   0  0  0  0  0  0  0  0  0  0  0  0
   -6.7528    5.7463    0.0000 O   0  0  0  0  0  0  0  0  0  0  0  0
   -7.5486    7.1363    0.0000 O   0  0  0  0  0  0  0  0  0  0  0  0
   -8.2631    8.3738    0.0000 O   0  0  0  0  0  0  0  0  0  0  0  0
   -9.8383    8.2619    0.0000 O   0  0  0  0  0  0  0  0  0  0  0  0
   -8.0027    6.4389    0.0000 N   0  0  0  0  0  0  0  0  0  0  0  0
   -8.8527    7.8531    0.0000 N   0  0  0  0  0  0  0  0  0  0  0  0
   -8.8024    4.9956    0.0000 N   0  0  0  0  0  0  0  0  0  0  0  0
   -8.9776    7.1363    0.0000 N   0  0  0  0  0  0  0  0  0  0  0  0
   -9.1239    7.0244    0.0000 N   0  0  0  0  0  0  0  0  0  0  0  0
   -8.0782   10.7250    0.0000 N   0  0  0  0  0  0  0  0  0  0  0  0
   -7.9272    2.1527    0.0000 N   0  0  0  0  0  0  0  0  0  0  0  0
   -6.8534   11.4612    0.0000 N   0  0  0  0  0  0  0  0  0  0  0  0
   -8.1033   12.1538    0.0000 N   0  0  0  0  0  0  0  0  0  0  0  0
   -6.6773    1.4602    0.0000 N   0  0  0  0  0  0  0  0  0  0  0  0
   -7.9020    0.7240    0.0000 N   0  0  0  0  0  0  0  0  0  0  0  0
   -7.6028    7.1605    0.0000 C   0  0  0  0  0  0  0  0  0  0  0  0
   -7.5777    5.7318    0.0000 C   0  0  0  0  0  0  0  0  0  0  0  0
   -8.0278    7.8676    0.0000 C   0  0  3  0  0  0  0  0  0  0  0  0
   -7.9775    5.0102    0.0000 C   0  0  3  0  0  0  0  0  0  0  0  0
   -7.6280    8.5892    0.0000 C   0  0  0  0  0  0  0  0  0  0  0  0
   -7.5525    4.3031    0.0000 C   0  0  0  0  0  0  0  0  0  0  0  0
   -7.7276    6.4292    0.0000 C   0  0  0  0  0  0  0  0  0  0  0  0
   -8.0530    9.2963    0.0000 C   0  0  0  0  0  0  0  0  0  0  0  0
   -7.9523    3.5814    0.0000 C   0  0  0  0  0  0  0  0  0  0  0  0
   -8.2631    7.5488    0.0000 C   0  0  0  0  0  0  0  0  0  0  0  0
   -9.8383    7.4369    0.0000 C   0  0  0  0  0  0  0  0  0  0  0  0
   -7.6531   10.0180    0.0000 C   0  0  0  0  0  0  0  0  0  0  0  0
   -7.5273    2.8743    0.0000 C   0  0  0  0  0  0  0  0  0  0  0  0
  -10.5528    7.0244    0.0000 C   0  0  0  0  0  0  0  0  0  0  0  0
   -6.8342    7.5488    0.0000 C   0  0  0  0  0  0  0  0  0  0  0  0
   -7.6783   11.4467    0.0000 C   0  0  0  0  0  0  0  0  0  0  0  0
   -7.5022    1.4456    0.0000 C   0  0  0  0  0  0  0  0  0  0  0  0
   -6.1197    7.1363    0.0000 C   0  0  0  0  0  0  0  0  0  0  0  0
  1 17  2  0  0  0  0
  2 18  2  0  0  0  0
  3 26  1  0  0  0  0
  3 31  1  0  0  0  0
  4 26  2  0  0  0  0
  5 27  2  0  0  0  0
  6 17  1  0  0  0  0
  6 18  1  0  0  0  0
  6 23  1  0  0  0  0
  7  9  1  0  0  0  0
 19  7  1  1  0  0  0
  8 10  1  0  0  0  0
 20  8  1  6  0  0  0
  9 26  1  0  0  0  0
 10 27  1  0  0  0  0
 11 28  1  0  0  0  0
 11 32  1  0  0  0  0
 12 29  1  0  0  0  0
 12 33  1  0  0  0  0
 13 32  2  3  0  0  0
 14 32  1  0  0  0  0
 15 33  2  3  0  0  0
 16 33  1  0  0  0  0
 17 19  1  0  0  0  0
 18 20  1  0  0  0  0
 19 21  1  0  0  0  0
 20 22  1  0  0  0  0
 21 24  1  0  0  0  0
 22 25  1  0  0  0  0
 24 28  1  0  0  0  0
 25 29  1  0  0  0  0
 27 30  1  0  0  0  0
 31 34  1  0  0  0  0
M  END
> <PUBCHEM_COMPOUND_ID_TYPE>
0

> <PUBCHEM_TOTAL_CHARGE>
0

> <PUBCHEM_SUBSTANCE_ID>
310947496

> <PUBCHEM_SUBSTANCE_VERSION>
1

> <PUBCHEM_EXT_DATASOURCE_NAME>
4488

> <PUBCHEM_EXT_DATASOURCE_REGID>
SCHEMBL16125658

> <PUBCHEM_SUBSTANCE_COMMENT>
InChI=1S/C18H37N11O5/c1-4-34-18(33)28-27-13(8-6-10-24-17(21)22)15(32)29(3)14(31)12(26-25-11(2)30)7-5-9-23-16(19)20/h12-13,26-27H,4-10H2,1-3H3,(H,25,30)(H,28,33)(H4,19,20,23)(H4,21,22,24)/t12-,13-/m0/s1
InChIKey=ZGPIAIRXGHBKTM-STQMWFEESA-N

> <PUBCHEM_SUBSTANCE_SYNONYM>
SCHEMBL16125658

> <PUBCHEM_XREF_EXT_ID>
SCHEMBL16125658

> <PUBCHEM_EXT_DATASOURCE_URL>
https://www.surechembl.org/

> <PUBCHEM_EXT_SUBSTANCE_URL>
https://www.surechembl.org/chemical/SCHEMBL16125658

> <PUBCHEM_CID_ASSOCIATIONS>
117613222  1

> <PUBCHEM_COORDINATE_TYPE>
1
3

> <PUBCHEM_BONDANNOTATIONS>
19  7  5
20  8  6

$$$$
