310948679
  -OEChem-07211613022D

 86 91  0     1  0  0  0  0  0999 V2000
    5.1129   -5.9531    0.0000 S   0  0  0  0  0  0  0  0  0  0  0  0
    6.0324    5.1921    0.0000 S   0  0  0  0  0  0  0  0  0  0  0  0
    0.6580   -4.8592    0.0000 S   0  0  0  0  0  0  0  0  0  0  0  0
    2.6080    0.4360    0.0000 S   0  0  0  0  0  0  0  0  0  0  0  0
    5.1129   -5.9531    0.0000 O   0  0  0  0  0  0  0  0  0  0  0  0
    5.1129   -5.9531    0.0000 O   0  0  0  0  0  0  0  0  0  0  0  0
    5.1129   -5.9531    0.0000 O   0  0  0  0  0  0  0  0  0  0  0  0
    5.2714    5.3348    0.0000 O   0  0  0  0  0  0  0  0  0  0  0  0
    6.8251    5.0336    0.0000 O   0  0  0  0  0  0  0  0  0  0  0  0
    6.1909    5.9531    0.0000 O   0  0  0  0  0  0  0  0  0  0  0  0
   -3.7653   -0.3567    0.0000 O   0  0  0  0  0  0  0  0  0  0  0  0
   -5.1921    1.2921    0.0000 O   0  0  0  0  0  0  0  0  0  0  0  0
   -4.4787   -1.5933    0.0000 O   0  0  0  0  0  0  0  0  0  0  0  0
   -3.7653    1.2921    0.0000 O   0  0  0  0  0  0  0  0  0  0  0  0
   -5.1921   -1.1811    0.0000 O   0  0  0  0  0  0  0  0  0  0  0  0
    1.3079   -5.3665    0.0000 O   0  0  0  0  0  0  0  0  0  0  0  0
    0.1823   -5.5092    0.0000 O   0  0  0  0  0  0  0  0  0  0  0  0
    0.0238   -4.3836    0.0000 O   0  0  0  0  0  0  0  0  0  0  0  0
   -6.6031   -0.3567    0.0000 O   0  0  0  0  0  0  0  0  0  0  0  0
   -2.3543   -1.1811    0.0000 O   0  0  0  0  0  0  0  0  0  0  0  0
    1.8945    0.0396    0.0000 O   0  0  0  0  0  0  0  0  0  0  0  0
    2.2275    1.1177    0.0000 O   0  0  0  0  0  0  0  0  0  0  0  0
    3.3055    0.8165    0.0000 O   0  0  0  0  0  0  0  0  0  0  0  0
   -2.3543   -2.8458    0.0000 O   0  0  0  0  0  0  0  0  0  0  0  0
   -3.7653   -3.6701    0.0000 O   0  0  0  0  0  0  0  0  0  0  0  0
   -7.3165    0.8799    0.0000 O   0  0  0  0  0  0  0  0  0  0  0  0
   -5.1921   -3.6701    0.0000 O   0  0  0  0  0  0  0  0  0  0  0  0
    1.1177    2.6713    0.0000 O   0  0  0  0  0  0  0  0  0  0  0  0
   -1.6409    0.8799    0.0000 O   0  0  0  0  0  0  0  0  0  0  0  0
    4.1934   -2.2750    0.0000 N   0  3  0  0  0  0  0  0  0  0  0  0
    5.3348    1.8787    0.0000 N   0  0  0  0  0  0  0  0  0  0  0  0
    0.4835    1.2921    0.0000 N   0  0  0  0  0  0  0  0  0  0  0  0
    3.7970   -3.1787    0.0000 C   0  0  3  0  0  0  0  0  0  0  0  0
    4.4153   -3.7811    0.0000 C   0  0  0  0  0  0  0  0  0  0  0  0
    5.1446   -3.4006    0.0000 C   0  0  0  0  0  0  0  0  0  0  0  0
    5.0178   -2.5604    0.0000 C   0  0  0  0  0  0  0  0  0  0  0  0
    6.6666    2.2591    0.0000 C   0  0  0  0  0  0  0  0  0  0  0  0
    6.1751    2.9726    0.0000 C   0  0  0  0  0  0  0  0  0  0  0  0
    6.1275    1.5774    0.0000 C   0  0  0  0  0  0  0  0  0  0  0  0
    5.3824    2.7665    0.0000 C   0  0  0  0  0  0  0  0  0  0  0  0
    4.4153   -4.6531    0.0000 C   0  0  0  0  0  0  0  0  0  0  0  0
    3.3055   -3.7970    0.0000 C   0  0  0  0  0  0  0  0  0  0  0  0
    5.1446   -5.0970    0.0000 C   0  0  0  0  0  0  0  0  0  0  0  0
    5.9055   -3.8763    0.0000 C   0  0  0  0  0  0  0  0  0  0  0  0
    3.8287   -1.7043    0.0000 C   0  0  0  0  0  0  0  0  0  0  0  0
    3.1153   -2.7507    0.0000 C   0  0  0  0  0  0  0  0  0  0  0  0
    5.6043   -1.9579    0.0000 C   0  0  0  0  0  0  0  0  0  0  0  0
    6.4129    3.7970    0.0000 C   0  0  0  0  0  0  0  0  0  0  0  0
    5.9055   -4.7165    0.0000 C   0  0  0  0  0  0  0  0  0  0  0  0
    5.8104    4.4153    0.0000 C   0  0  0  0  0  0  0  0  0  0  0  0
    4.7958    3.3531    0.0000 C   0  0  0  0  0  0  0  0  0  0  0  0
    6.3336    0.8165    0.0000 C   0  0  0  0  0  0  0  0  0  0  0  0
    4.6531    1.4506    0.0000 C   0  0  0  0  0  0  0  0  0  0  0  0
    7.3165    2.7507    0.0000 C   0  0  0  0  0  0  0  0  0  0  0  0
    7.2373    1.6409    0.0000 C   0  0  0  0  0  0  0  0  0  0  0  0
    5.0019    4.1775    0.0000 C   0  0  0  0  0  0  0  0  0  0  0  0
    2.4811   -3.7019    0.0000 C   0  0  0  0  0  0  0  0  0  0  0  0
    5.4141   -1.1652    0.0000 C   0  0  0  0  0  0  0  0  0  0  0  0
    4.2250   -0.9592    0.0000 C   0  0  0  0  0  0  0  0  0  0  0  0
    5.7629    0.1823    0.0000 C   0  0  0  0  0  0  0  0  0  0  0  0
    5.9690   -0.5786    0.0000 C   0  0  0  0  0  0  0  0  0  0  0  0
    3.9238    1.8470    0.0000 C   0  0  0  0  0  0  0  0  0  0  0  0
    1.9738   -4.3360    0.0000 C   0  0  0  0  0  0  0  0  0  0  0  0
    3.8287   -0.2616    0.0000 C   0  0  0  0  0  0  0  0  0  0  0  0
    3.2421    1.4506    0.0000 C   0  0  0  0  0  0  0  0  0  0  0  0
    1.1652   -4.2092    0.0000 C   0  0  0  0  0  0  0  0  0  0  0  0
    3.0043   -0.2458    0.0000 C   0  0  0  0  0  0  0  0  0  0  0  0
   -4.4945    0.0713    0.0000 C   0  0  3  0  0  0  0  0  0  0  0  0
   -3.7811   -1.1811    0.0000 C   0  0  3  0  0  0  0  0  0  0  0  0
   -5.1762   -0.3409    0.0000 C   0  0  3  0  0  0  0  0  0  0  0  0
   -4.4787    0.8957    0.0000 C   0  0  3  0  0  0  0  0  0  0  0  0
   -5.8897    0.0713    0.0000 C   0  0  3  0  0  0  0  0  0  0  0  0
   -3.0519   -1.5774    0.0000 C   0  0  3  0  0  0  0  0  0  0  0  0
   -5.8897    0.9116    0.0000 C   0  0  3  0  0  0  0  0  0  0  0  0
   -3.0835   -2.4018    0.0000 C   0  0  3  0  0  0  0  0  0  0  0  0
   -3.7495   -2.8140    0.0000 C   0  0  3  0  0  0  0  0  0  0  0  0
    2.5129    1.8470    0.0000 C   0  0  0  0  0  0  0  0  0  0  0  0
   -4.4945   -2.4018    0.0000 C   0  0  3  0  0  0  0  0  0  0  0  0
   -6.5872    1.2921    0.0000 C   0  0  0  0  0  0  0  0  0  0  0  0
    1.8153    1.4506    0.0000 C   0  0  0  0  0  0  0  0  0  0  0  0
   -5.1762   -2.8140    0.0000 C   0  0  0  0  0  0  0  0  0  0  0  0
   -3.0360    0.9116    0.0000 C   0  0  0  0  0  0  0  0  0  0  0  0
    1.1019    1.8311    0.0000 C   0  0  0  0  0  0  0  0  0  0  0  0
   -2.3702    1.3079    0.0000 C   0  0  0  0  0  0  0  0  0  0  0  0
   -0.1982    0.9116    0.0000 C   0  0  0  0  0  0  0  0  0  0  0  0
   -0.9433    1.3079    0.0000 C   0  0  0  0  0  0  0  0  0  0  0  0
  1  5  2  0  0  0  0
  1  6  2  0  0  0  0
  1  7  1  0  0  0  0
  1 43  1  0  0  0  0
  2  8  2  0  0  0  0
  2  9  2  0  0  0  0
  2 10  1  0  0  0  0
  2 50  1  0  0  0  0
  3 16  2  0  0  0  0
  3 17  2  0  0  0  0
  3 18  1  0  0  0  0
  3 66  1  0  0  0  0
  4 21  2  0  0  0  0
  4 22  2  0  0  0  0
  4 23  1  0  0  0  0
  4 67  1  0  0  0  0
 68 11  1  1  0  0  0
 69 11  1  6  0  0  0
 12 71  1  0  0  0  0
 12 74  1  0  0  0  0
 13 69  1  0  0  0  0
 13 78  1  0  0  0  0
 71 14  1  6  0  0  0
 14 82  1  0  0  0  0
 70 15  1  1  0  0  0
 72 19  1  6  0  0  0
 73 20  1  1  0  0  0
 75 24  1  1  0  0  0
 76 25  1  6  0  0  0
 26 79  1  0  0  0  0
 27 81  1  0  0  0  0
 28 83  2  0  0  0  0
 29 84  1  0  0  0  0
 29 86  1  0  0  0  0
 30 33  1  0  0  0  0
 30 36  2  0  0  0  0
 30 45  1  0  0  0  0
 31 39  1  0  0  0  0
 31 40  1  0  0  0  0
 31 53  1  0  0  0  0
 32 83  1  0  0  0  0
 32 85  1  0  0  0  0
 33 34  1  0  0  0  0
 33 42  1  0  0  0  0
 33 46  1  0  0  0  0
 34 35  2  0  0  0  0
 34 41  1  0  0  0  0
 35 36  1  0  0  0  0
 35 44  1  0  0  0  0
 36 47  1  0  0  0  0
 37 38  1  0  0  0  0
 37 39  1  0  0  0  0
 37 54  1  0  0  0  0
 37 55  1  0  0  0  0
 38 40  2  0  0  0  0
 38 48  1  0  0  0  0
 39 52  2  0  0  0  0
 40 51  1  0  0  0  0
 41 43  2  0  0  0  0
 42 57  1  0  0  0  0
 43 49  1  0  0  0  0
 44 49  2  0  0  0  0
 45 59  1  0  0  0  0
 47 58  2  0  0  0  0
 48 50  2  0  0  0  0
 50 56  1  0  0  0  0
 51 56  2  0  0  0  0
 52 60  1  0  0  0  0
 53 62  1  0  0  0  0
 57 63  1  0  0  0  0
 58 61  1  0  0  0  0
 59 64  1  0  0  0  0
 60 61  2  0  0  0  0
 62 65  1  0  0  0  0
 63 66  1  0  0  0  0
 64 67  1  0  0  0  0
 65 77  1  0  0  0  0
 68 70  1  0  0  0  0
 68 71  1  0  0  0  0
 69 73  1  0  0  0  0
 70 72  1  0  0  0  0
 72 74  1  0  0  0  0
 73 75  1  0  0  0  0
 74 79  1  6  0  0  0
 75 76  1  0  0  0  0
 76 78  1  0  0  0  0
 77 80  1  0  0  0  0
 78 81  1  1  0  0  0
 80 83  1  0  0  0  0
 82 84  1  0  0  0  0
 85 86  1  0  0  0  0
M  CHG  1  30   1
M  END
> <PUBCHEM_COMPOUND_ID_TYPE>
0

> <PUBCHEM_TOTAL_CHARGE>
1

> <PUBCHEM_SUBSTANCE_ID>
310948679

> <PUBCHEM_SUBSTANCE_VERSION>
1

> <PUBCHEM_EXT_DATASOURCE_NAME>
4488

> <PUBCHEM_EXT_DATASOURCE_REGID>
SCHEMBL16126863

> <PUBCHEM_SUBSTANCE_COMMENT>
InChI=1S/C54H79N3O25S4/c1-53(2)38-31-35(86(75,76)77)18-20-40(38)56(23-10-5-8-16-44(60)55-22-25-78-26-27-79-52-50(48(64)46(62)42(33-59)81-52)82-51-49(65)47(63)45(61)41(32-58)80-51)43(53)15-7-4-6-14-39-36-19-17-34(85(72,73)74)30-37(36)54(3,21-9-12-28-83(66,67)68)57(39)24-11-13-29-84(69,70)71/h4,6-7,14-15,17-20,30-31,41-42,45-52,58-59,61-65H,5,8-13,16,21-29,32-33H2,1-3H3,(H4-,55,60,66,67,68,69,70,71,72,73,74,75,76,77)/p+1/t41-,42+,45-,46-,47+,48+,49+,50+,51-,52+,54?/m1/s1
InChIKey=TVQVPSGDCAYQND-HDFZSRMMSA-O

> <PUBCHEM_SUBSTANCE_SYNONYM>
SCHEMBL16126863

> <PUBCHEM_XREF_EXT_ID>
SCHEMBL16126863

> <PUBCHEM_EXT_DATASOURCE_URL>
https://www.surechembl.org/

> <PUBCHEM_EXT_SUBSTANCE_URL>
https://www.surechembl.org/chemical/SCHEMBL16126863

> <PUBCHEM_CID_ASSOCIATIONS>
117614220  1

> <PUBCHEM_COORDINATE_TYPE>
1
3

> <PUBCHEM_BONDANNOTATIONS>
68  11  5
69  11  6
71  14  6
70  15  5
72  19  6
73  20  5
75  24  5
76  25  6
74  79  6
78  81  5

$$$$
