310948102
  -OEChem-07211613022D

 42 47  0     0  0  0  0  0  0999 V2000
   -0.1005   -2.9712    0.0000 S   0  0  0  0  0  0  0  0  0  0  0  0
    3.0828   -2.6864    0.0000 F   0  0  0  0  0  0  0  0  0  0  0  0
    2.4461   -3.2225    0.0000 F   0  0  0  0  0  0  0  0  0  0  0  0
    0.1005    1.9545    0.0000 O   0  0  0  0  0  0  0  0  0  0  0  0
    2.4963   -1.5806    0.0000 O   0  0  0  0  0  0  0  0  0  0  0  0
    1.4744   -2.4518    0.0000 O   0  0  0  0  0  0  0  0  0  0  0  0
   -3.0828    3.9483    0.0000 O   0  0  0  0  0  0  0  0  0  0  0  0
   -0.1005   -2.9712    0.0000 O   0  0  0  0  0  0  0  0  0  0  0  0
   -0.1005   -2.9712    0.0000 O   0  0  0  0  0  0  0  0  0  0  0  0
   -1.4241    2.0215    0.0000 N   0  0  0  0  0  0  0  0  0  0  0  0
    1.3068    1.3681    0.0000 N   0  0  0  0  0  0  0  0  0  0  0  0
   -2.0775    2.5242    0.0000 N   0  0  0  0  0  0  0  0  0  0  0  0
   -0.0168    1.1503    0.0000 C   0  0  0  0  0  0  0  0  0  0  0  0
   -0.7372    0.7482    0.0000 C   0  0  0  0  0  0  0  0  0  0  0  0
    0.7205    0.7817    0.0000 C   0  0  0  0  0  0  0  0  0  0  0  0
   -1.4576    1.2005    0.0000 C   0  0  0  0  0  0  0  0  0  0  0  0
    0.8712   -0.0392    0.0000 C   0  0  0  0  0  0  0  0  0  0  0  0
    1.7927   -1.1282    0.0000 C   0  0  0  0  0  0  0  0  0  0  0  0
    1.1728   -1.6811    0.0000 C   0  0  0  0  0  0  0  0  0  0  0  0
   -0.7707   -0.0727    0.0000 C   0  0  0  0  0  0  0  0  0  0  0  0
    1.6587   -0.3408    0.0000 C   0  0  0  0  0  0  0  0  0  0  0  0
   -1.5079   -0.4581    0.0000 C   0  0  0  0  0  0  0  0  0  0  0  0
    2.3121   -2.4016    0.0000 C   0  0  0  0  0  0  0  0  0  0  0  0
    0.9215    2.0886    0.0000 C   0  0  0  0  0  0  0  0  0  0  0  0
   -2.1613    0.7984    0.0000 C   0  0  0  0  0  0  0  0  0  0  0  0
    0.2513   -0.5753    0.0000 C   0  0  0  0  0  0  0  0  0  0  0  0
    0.4021   -1.3963    0.0000 C   0  0  0  0  0  0  0  0  0  0  0  0
   -1.5414   -1.2958    0.0000 C   0  0  0  0  0  0  0  0  0  0  0  0
   -2.1948   -0.0392    0.0000 C   0  0  0  0  0  0  0  0  0  0  0  0
   -1.7927    3.3283    0.0000 C   0  0  0  0  0  0  0  0  0  0  0  0
   -0.7372    2.5074    0.0000 C   0  0  0  0  0  0  0  0  0  0  0  0
   -0.9550    3.2781    0.0000 C   0  0  0  0  0  0  0  0  0  0  0  0
   -2.2450    4.0153    0.0000 C   0  0  0  0  0  0  0  0  0  0  0  0
   -0.8210   -1.7314    0.0000 C   0  0  0  0  0  0  0  0  0  0  0  0
   -0.8210   -2.5524    0.0000 C   0  0  0  0  0  0  0  0  0  0  0  0
   -2.2450   -1.7314    0.0000 C   0  0  0  0  0  0  0  0  0  0  0  0
    1.2733    2.8425    0.0000 C   0  0  0  0  0  0  0  0  0  0  0  0
   -1.5414   -2.9545    0.0000 C   0  0  0  0  0  0  0  0  0  0  0  0
   -2.2283   -2.5524    0.0000 C   0  0  0  0  0  0  0  0  0  0  0  0
   -1.8932    4.7525    0.0000 C   0  0  0  0  0  0  0  0  0  0  0  0
   -1.4241    4.0488    0.0000 C   0  0  0  0  0  0  0  0  0  0  0  0
    1.6268   -4.7525    0.0000 C   0  0  0  0  0  0  0  0  0  0  0  0
  1  8  2  0  0  0  0
  1  9  2  0  0  0  0
  1 35  1  0  0  0  0
  1 42  1  0  0  0  0
  2 23  1  0  0  0  0
  3 23  1  0  0  0  0
  4 13  1  0  0  0  0
  4 24  1  0  0  0  0
  5 18  1  0  0  0  0
  5 23  1  0  0  0  0
  6 19  1  0  0  0  0
  6 23  1  0  0  0  0
  7 33  1  0  0  0  0
 10 12  1  0  0  0  0
 10 16  1  0  0  0  0
 10 31  1  0  0  0  0
 11 15  1  0  0  0  0
 11 24  2  0  0  0  0
 12 30  2  0  0  0  0
 13 14  1  0  0  0  0
 13 15  2  0  0  0  0
 14 16  1  0  0  0  0
 14 20  2  0  0  0  0
 15 17  1  0  0  0  0
 16 25  2  0  0  0  0
 17 21  2  0  0  0  0
 17 26  1  0  0  0  0
 18 19  2  0  0  0  0
 18 21  1  0  0  0  0
 19 27  1  0  0  0  0
 20 22  1  0  0  0  0
 22 28  1  0  0  0  0
 22 29  2  0  0  0  0
 24 37  1  0  0  0  0
 25 29  1  0  0  0  0
 26 27  2  0  0  0  0
 28 34  2  0  0  0  0
 28 36  1  0  0  0  0
 30 32  1  0  0  0  0
 30 33  1  0  0  0  0
 31 32  2  0  0  0  0
 33 40  1  0  0  0  0
 33 41  1  0  0  0  0
 34 35  1  0  0  0  0
 35 38  2  0  0  0  0
 36 39  2  0  0  0  0
 38 39  1  0  0  0  0
M  END
> <PUBCHEM_COMPOUND_ID_TYPE>
0

> <PUBCHEM_TOTAL_CHARGE>
0

> <PUBCHEM_SUBSTANCE_ID>
310948102

> <PUBCHEM_SUBSTANCE_VERSION>
1

> <PUBCHEM_EXT_DATASOURCE_NAME>
4488

> <PUBCHEM_EXT_DATASOURCE_REGID>
SCHEMBL16126278

> <PUBCHEM_SUBSTANCE_COMMENT>
InChI=1S/C30H25F2N3O6S/c1-17-33-27(20-9-11-24-25(16-20)41-30(31,32)40-24)28(39-17)22-15-19(18-6-5-7-21(14-18)42(4,37)38)8-10-23(22)35-13-12-26(34-35)29(2,3)36/h5-16,36H,1-4H3
InChIKey=XBMZQVPBAWKHNS-UHFFFAOYSA-N

> <PUBCHEM_SUBSTANCE_SYNONYM>
SCHEMBL16126278

> <PUBCHEM_XREF_EXT_ID>
SCHEMBL16126278

> <PUBCHEM_EXT_DATASOURCE_URL>
https://www.surechembl.org/

> <PUBCHEM_EXT_SUBSTANCE_URL>
https://www.surechembl.org/chemical/SCHEMBL16126278

> <PUBCHEM_CID_ASSOCIATIONS>
117613720  1

> <PUBCHEM_COORDINATE_TYPE>
1
3

$$$$
