310945451
  -OEChem-07211613022D

 28 30  0     0  0  0  0  0  0999 V2000
   -0.6806    1.4576    0.0000 F   0  0  0  0  0  0  0  0  0  0  0  0
    0.0344    1.8563    0.0000 F   0  0  0  0  0  0  0  0  0  0  0  0
    0.7632    1.4576    0.0000 F   0  0  0  0  0  0  0  0  0  0  0  0
    3.5820   -2.6813    0.0000 F   0  0  0  0  0  0  0  0  0  0  0  0
    0.7357   -0.1925    0.0000 N   0  0  0  0  0  0  0  0  0  0  0  0
    0.0069   -1.4300    0.0000 N   0  0  0  0  0  0  0  0  0  0  0  0
   -1.4369    0.2475    0.0000 N   0  0  0  0  0  0  0  0  0  0  0  0
   -1.4369   -1.4026    0.0000 N   0  0  0  0  0  0  0  0  0  0  0  0
   -1.4094    1.0588    0.0000 N   0  0  0  0  0  0  0  0  0  0  0  0
   -1.4369   -1.4026    0.0000 N   0  0  0  0  0  0  0  0  0  0  0  0
   -1.4369   -1.4026    0.0000 N   0  0  0  0  0  0  0  0  0  0  0  0
    0.0069    0.2200    0.0000 C   0  0  0  0  0  0  0  0  0  0  0  0
   -0.7081   -0.1788    0.0000 C   0  0  0  0  0  0  0  0  0  0  0  0
   -0.7357   -1.0176    0.0000 C   0  0  0  0  0  0  0  0  0  0  0  0
    0.0344    1.0450    0.0000 C   0  0  0  0  0  0  0  0  0  0  0  0
    0.7219   -1.0313    0.0000 C   0  0  0  0  0  0  0  0  0  0  0  0
    1.4507   -1.4438    0.0000 C   0  0  0  0  0  0  0  0  0  0  0  0
    1.4507   -2.2688    0.0000 C   0  0  0  0  0  0  0  0  0  0  0  0
    2.1519   -1.0450    0.0000 C   0  0  0  0  0  0  0  0  0  0  0  0
    2.1795   -2.6813    0.0000 C   0  0  0  0  0  0  0  0  0  0  0  0
    2.8670   -1.4713    0.0000 C   0  0  0  0  0  0  0  0  0  0  0  0
   -2.1382    1.4713    0.0000 C   0  0  0  0  0  0  0  0  0  0  0  0
    2.8532   -2.2826    0.0000 C   0  0  0  0  0  0  0  0  0  0  0  0
   -2.1245    2.2826    0.0000 C   0  0  0  0  0  0  0  0  0  0  0  0
   -2.8395    1.0725    0.0000 C   0  0  0  0  0  0  0  0  0  0  0  0
   -2.8532    2.6813    0.0000 C   0  0  0  0  0  0  0  0  0  0  0  0
   -3.5820    1.4713    0.0000 C   0  0  0  0  0  0  0  0  0  0  0  0
   -3.5683    2.2826    0.0000 C   0  0  0  0  0  0  0  0  0  0  0  0
  1 15  1  0  0  0  0
  2 15  1  0  0  0  0
  3 15  1  0  0  0  0
  4 23  1  0  0  0  0
  5 12  2  0  0  0  0
  5 16  1  0  0  0  0
  6 14  1  0  0  0  0
  6 16  2  0  0  0  0
  7  9  2  0  0  0  0
  7 13  1  0  0  0  0
  8 10  2  3  0  0  0
  8 14  1  0  0  0  0
  9 22  1  0  0  0  0
 10 11  1  0  0  0  0
 12 13  1  0  0  0  0
 12 15  1  0  0  0  0
 13 14  2  0  0  0  0
 16 17  1  0  0  0  0
 17 18  2  0  0  0  0
 17 19  1  0  0  0  0
 18 20  1  0  0  0  0
 19 21  2  0  0  0  0
 20 23  2  0  0  0  0
 21 23  1  0  0  0  0
 22 24  2  0  0  0  0
 22 25  1  0  0  0  0
 24 26  1  0  0  0  0
 25 27  2  0  0  0  0
 26 28  2  0  0  0  0
 27 28  1  0  0  0  0
M  END
> <PUBCHEM_COMPOUND_ID_TYPE>
0

> <PUBCHEM_TOTAL_CHARGE>
0

> <PUBCHEM_SUBSTANCE_ID>
310945451

> <PUBCHEM_SUBSTANCE_VERSION>
1

> <PUBCHEM_EXT_DATASOURCE_NAME>
4488

> <PUBCHEM_EXT_DATASOURCE_REGID>
SCHEMBL16123549

> <PUBCHEM_SUBSTANCE_COMMENT>
InChI=1S/C17H11F4N7/c18-11-8-6-10(7-9-11)15-23-14(17(19,20)21)13(16(24-15)27-28-22)26-25-12-4-2-1-3-5-12/h1-9H,(H2,22,23,24,27)/b26-25+
InChIKey=JJQKPOALUOWVIX-OCEACIFDSA-N

> <PUBCHEM_SUBSTANCE_SYNONYM>
SCHEMBL16123549

> <PUBCHEM_XREF_EXT_ID>
SCHEMBL16123549

> <PUBCHEM_EXT_DATASOURCE_URL>
https://www.surechembl.org/

> <PUBCHEM_EXT_SUBSTANCE_URL>
https://www.surechembl.org/chemical/SCHEMBL16123549

> <PUBCHEM_CID_ASSOCIATIONS>
117611496  1

> <PUBCHEM_COORDINATE_TYPE>
1
3

$$$$
