310948088
  -OEChem-07211613022D

 45 50  0     0  0  0  0  0  0999 V2000
   -0.1802   -2.9070    0.0000 S   0  0  0  0  0  0  0  0  0  0  0  0
    3.0475   -2.2803    0.0000 F   0  0  0  0  0  0  0  0  0  0  0  0
    2.2328   -3.0323    0.0000 F   0  0  0  0  0  0  0  0  0  0  0  0
   -1.3397    4.4729    0.0000 F   0  0  0  0  0  0  0  0  0  0  0  0
   -0.2272    4.6766    0.0000 F   0  0  0  0  0  0  0  0  0  0  0  0
   -0.0549    3.5484    0.0000 F   0  0  0  0  0  0  0  0  0  0  0  0
   -0.0862    2.0599    0.0000 O   0  0  0  0  0  0  0  0  0  0  0  0
    2.4208   -1.3871    0.0000 O   0  0  0  0  0  0  0  0  0  0  0  0
    1.4337   -2.2960    0.0000 O   0  0  0  0  0  0  0  0  0  0  0  0
   -0.1802   -2.9070    0.0000 O   0  0  0  0  0  0  0  0  0  0  0  0
   -0.1802   -2.9070    0.0000 O   0  0  0  0  0  0  0  0  0  0  0  0
   -0.8696   -4.1605    0.0000 O   0  0  0  0  0  0  0  0  0  0  0  0
   -1.5903    2.0756    0.0000 N   0  0  0  0  0  0  0  0  0  0  0  0
    1.1203    1.5272    0.0000 N   0  0  0  0  0  0  0  0  0  0  0  0
   -0.9323    2.5613    0.0000 N   0  0  0  0  0  0  0  0  0  0  0  0
   -0.8696    0.8378    0.0000 C   0  0  0  0  0  0  0  0  0  0  0  0
   -0.1802    1.2452    0.0000 C   0  0  0  0  0  0  0  0  0  0  0  0
   -1.5903    1.2452    0.0000 C   0  0  0  0  0  0  0  0  0  0  0  0
    0.5719    0.9161    0.0000 C   0  0  0  0  0  0  0  0  0  0  0  0
    0.7599    0.1014    0.0000 C   0  0  0  0  0  0  0  0  0  0  0  0
   -0.8853    0.0074    0.0000 C   0  0  0  0  0  0  0  0  0  0  0  0
   -1.5747   -0.4000    0.0000 C   0  0  0  0  0  0  0  0  0  0  0  0
    1.7000   -0.9798    0.0000 C   0  0  0  0  0  0  0  0  0  0  0  0
   -2.2641    2.5613    0.0000 C   0  0  0  0  0  0  0  0  0  0  0  0
    1.0890   -1.5282    0.0000 C   0  0  0  0  0  0  0  0  0  0  0  0
   -2.2955    0.8221    0.0000 C   0  0  0  0  0  0  0  0  0  0  0  0
    0.7129    2.2480    0.0000 C   0  0  0  0  0  0  0  0  0  0  0  0
   -1.1830    3.3447    0.0000 C   0  0  0  0  0  0  0  0  0  0  0  0
    1.5277   -0.1650    0.0000 C   0  0  0  0  0  0  0  0  0  0  0  0
    2.2484   -2.2019    0.0000 C   0  0  0  0  0  0  0  0  0  0  0  0
   -1.6061   -1.2461    0.0000 C   0  0  0  0  0  0  0  0  0  0  0  0
   -2.2797   -0.0083    0.0000 C   0  0  0  0  0  0  0  0  0  0  0  0
    0.1489   -0.4627    0.0000 C   0  0  0  0  0  0  0  0  0  0  0  0
   -1.9978    3.3447    0.0000 C   0  0  0  0  0  0  0  0  0  0  0  0
    0.3212   -1.2618    0.0000 C   0  0  0  0  0  0  0  0  0  0  0  0
   -0.6972    4.0185    0.0000 C   0  0  0  0  0  0  0  0  0  0  0  0
   -0.9009   -2.4840    0.0000 C   0  0  0  0  0  0  0  0  0  0  0  0
   -0.8853   -1.6692    0.0000 C   0  0  0  0  0  0  0  0  0  0  0  0
   -2.2955   -1.6692    0.0000 C   0  0  0  0  0  0  0  0  0  0  0  0
   -1.5747   -2.8914    0.0000 C   0  0  0  0  0  0  0  0  0  0  0  0
   -3.0475    2.2793    0.0000 C   0  0  0  0  0  0  0  0  0  0  0  0
   -2.2797   -2.4996    0.0000 C   0  0  0  0  0  0  0  0  0  0  0  0
    1.0576    3.0157    0.0000 C   0  0  0  0  0  0  0  0  0  0  0  0
   -1.5903   -3.7217    0.0000 C   0  0  0  0  0  0  0  0  0  0  0  0
    1.5358   -4.6766    0.0000 C   0  0  0  0  0  0  0  0  0  0  0  0
  1 10  2  0  0  0  0
  1 11  2  0  0  0  0
  1 37  1  0  0  0  0
  1 45  1  0  0  0  0
  2 30  1  0  0  0  0
  3 30  1  0  0  0  0
  4 36  1  0  0  0  0
  5 36  1  0  0  0  0
  6 36  1  0  0  0  0
  7 17  1  0  0  0  0
  7 27  1  0  0  0  0
  8 23  1  0  0  0  0
  8 30  1  0  0  0  0
  9 25  1  0  0  0  0
  9 30  1  0  0  0  0
 12 44  1  0  0  0  0
 13 15  1  0  0  0  0
 13 18  1  0  0  0  0
 13 24  1  0  0  0  0
 14 19  1  0  0  0  0
 14 27  2  0  0  0  0
 15 28  2  0  0  0  0
 16 17  1  0  0  0  0
 16 18  1  0  0  0  0
 16 21  2  0  0  0  0
 17 19  2  0  0  0  0
 18 26  2  0  0  0  0
 19 20  1  0  0  0  0
 20 29  1  0  0  0  0
 20 33  2  0  0  0  0
 21 22  1  0  0  0  0
 22 31  1  0  0  0  0
 22 32  2  0  0  0  0
 23 25  1  0  0  0  0
 23 29  2  0  0  0  0
 24 34  2  0  0  0  0
 24 41  1  0  0  0  0
 25 35  2  0  0  0  0
 26 32  1  0  0  0  0
 27 43  1  0  0  0  0
 28 34  1  0  0  0  0
 28 36  1  0  0  0  0
 31 38  1  0  0  0  0
 31 39  2  0  0  0  0
 33 35  1  0  0  0  0
 37 38  2  0  0  0  0
 37 40  1  0  0  0  0
 39 42  1  0  0  0  0
 40 42  2  0  0  0  0
 40 44  1  0  0  0  0
M  END
> <PUBCHEM_COMPOUND_ID_TYPE>
0

> <PUBCHEM_TOTAL_CHARGE>
0

> <PUBCHEM_SUBSTANCE_ID>
310948088

> <PUBCHEM_SUBSTANCE_VERSION>
1

> <PUBCHEM_EXT_DATASOURCE_NAME>
4488

> <PUBCHEM_EXT_DATASOURCE_REGID>
SCHEMBL16126264

> <PUBCHEM_SUBSTANCE_COMMENT>
InChI=1S/C30H22F5N3O6S/c1-15-10-26(29(31,32)33)37-38(15)22-8-6-17(18-4-5-20(14-39)25(13-18)45(3,40)41)11-21(22)28-27(36-16(2)42-28)19-7-9-23-24(12-19)44-30(34,35)43-23/h4-13,39H,14H2,1-3H3
InChIKey=LGMFONUKKOVMMR-UHFFFAOYSA-N

> <PUBCHEM_SUBSTANCE_SYNONYM>
SCHEMBL16126264

> <PUBCHEM_XREF_EXT_ID>
SCHEMBL16126264

> <PUBCHEM_EXT_DATASOURCE_URL>
https://www.surechembl.org/

> <PUBCHEM_EXT_SUBSTANCE_URL>
https://www.surechembl.org/chemical/SCHEMBL16126264

> <PUBCHEM_CID_ASSOCIATIONS>
117613707  1

> <PUBCHEM_COORDINATE_TYPE>
1
3

$$$$
