310948885
  -OEChem-07211613022D

 80 84  0     1  0  0  0  0  0999 V2000
    2.6247   -4.5643    0.0000 S   0  0  0  0  0  0  0  0  0  0  0  0
    7.6595    4.5643    0.0000 S   0  0  0  0  0  0  0  0  0  0  0  0
   -1.7333   -0.6191    0.0000 S   0  0  0  0  0  0  0  0  0  0  0  0
    7.2799   -1.0482    0.0000 S   0  0  0  0  0  0  0  0  0  0  0  0
    3.3840   -4.8449    0.0000 O   0  0  0  0  0  0  0  0  0  0  0  0
    2.3771   -5.3236    0.0000 O   0  0  0  0  0  0  0  0  0  0  0  0
    1.8818   -4.3167    0.0000 O   0  0  0  0  0  0  0  0  0  0  0  0
    7.5439    5.3236    0.0000 O   0  0  0  0  0  0  0  0  0  0  0  0
    7.7916    3.7720    0.0000 O   0  0  0  0  0  0  0  0  0  0  0  0
    8.4518    4.6799    0.0000 O   0  0  0  0  0  0  0  0  0  0  0  0
   -6.3058    4.2507    0.0000 O   0  0  0  0  0  0  0  0  0  0  0  0
   -1.9974   -1.3618    0.0000 O   0  0  0  0  0  0  0  0  0  0  0  0
   -1.4527    0.1238    0.0000 O   0  0  0  0  0  0  0  0  0  0  0  0
   -2.4761   -0.3549    0.0000 O   0  0  0  0  0  0  0  0  0  0  0  0
   -4.8697    2.5999    0.0000 O   0  0  0  0  0  0  0  0  0  0  0  0
    6.9166   -0.3714    0.0000 O   0  0  0  0  0  0  0  0  0  0  0  0
    7.6760   -1.7581    0.0000 O   0  0  0  0  0  0  0  0  0  0  0  0
    7.9896   -0.6686    0.0000 O   0  0  0  0  0  0  0  0  0  0  0  0
   -4.8202    4.2012    0.0000 O   0  0  0  0  0  0  0  0  0  0  0  0
   -6.3058    1.7745    0.0000 O   0  0  0  0  0  0  0  0  0  0  0  0
   -7.7421    2.5999    0.0000 O   0  0  0  0  0  0  0  0  0  0  0  0
   -4.8697    2.5999    0.0000 O   0  0  0  0  0  0  0  0  0  0  0  0
   -8.4518    3.8380    0.0000 O   0  0  0  0  0  0  0  0  0  0  0  0
    0.1816    2.9466    0.0000 O   0  0  0  0  0  0  0  0  0  0  0  0
   -2.6742    3.7884    0.0000 O   0  0  0  0  0  0  0  0  0  0  0  0
    3.5821   -1.4609    0.0000 N   0  3  0  0  0  0  0  0  0  0  0  0
    4.4735    3.7555    0.0000 N   0  0  0  0  0  0  0  0  0  0  0  0
   -4.8697    2.5999    0.0000 N   0  0  0  0  0  0  0  0  0  0  0  0
   -0.5282    4.1847    0.0000 N   0  0  0  0  0  0  0  0  0  0  0  0
    2.3440   -1.6260    0.0000 C   0  0  3  0  0  0  0  0  0  0  0  0
    2.7238   -2.3358    0.0000 C   0  0  0  0  0  0  0  0  0  0  0  0
    2.9548   -1.0482    0.0000 C   0  0  0  0  0  0  0  0  0  0  0  0
    3.5326   -2.2533    0.0000 C   0  0  0  0  0  0  0  0  0  0  0  0
    5.3484    2.7650    0.0000 C   0  0  0  0  0  0  0  0  0  0  0  0
    5.7612    3.5078    0.0000 C   0  0  0  0  0  0  0  0  0  0  0  0
    4.5396    2.9796    0.0000 C   0  0  0  0  0  0  0  0  0  0  0  0
    5.2164    4.1021    0.0000 C   0  0  0  0  0  0  0  0  0  0  0  0
    2.4431   -3.1282    0.0000 C   0  0  0  0  0  0  0  0  0  0  0  0
    1.7498   -1.0978    0.0000 C   0  0  0  0  0  0  0  0  0  0  0  0
    2.9218   -3.7720    0.0000 C   0  0  0  0  0  0  0  0  0  0  0  0
    4.0443   -2.8805    0.0000 C   0  0  0  0  0  0  0  0  0  0  0  0
    2.8723   -0.2229    0.0000 C   0  0  0  0  0  0  0  0  0  0  0  0
    1.6012   -1.9231    0.0000 C   0  0  0  0  0  0  0  0  0  0  0  0
    4.4240   -1.0317    0.0000 C   0  0  0  0  0  0  0  0  0  0  0  0
    6.5700    3.6564    0.0000 C   0  0  0  0  0  0  0  0  0  0  0  0
    3.7472   -3.6564    0.0000 C   0  0  0  0  0  0  0  0  0  0  0  0
    6.8506    4.4323    0.0000 C   0  0  0  0  0  0  0  0  0  0  0  0
    5.4970    4.8779    0.0000 C   0  0  0  0  0  0  0  0  0  0  0  0
    3.9288    2.4348    0.0000 C   0  0  0  0  0  0  0  0  0  0  0  0
    3.7472    4.2012    0.0000 C   0  0  0  0  0  0  0  0  0  0  0  0
    6.0087    2.2533    0.0000 C   0  0  0  0  0  0  0  0  0  0  0  0
    5.2659    1.9396    0.0000 C   0  0  0  0  0  0  0  0  0  0  0  0
    6.3059    5.0430    0.0000 C   0  0  0  0  0  0  0  0  0  0  0  0
    0.9904   -1.3618    0.0000 C   0  0  0  0  0  0  0  0  0  0  0  0
    3.4996    0.2888    0.0000 C   0  0  0  0  0  0  0  0  0  0  0  0
    5.1173   -1.4444    0.0000 C   0  0  0  0  0  0  0  0  0  0  0  0
    4.0278    1.5930    0.0000 C   0  0  0  0  0  0  0  0  0  0  0  0
    3.4005    1.1143    0.0000 C   0  0  0  0  0  0  0  0  0  0  0  0
    3.0374    3.8049    0.0000 C   0  0  0  0  0  0  0  0  0  0  0  0
    0.3301   -0.8666    0.0000 C   0  0  0  0  0  0  0  0  0  0  0  0
    5.8436   -1.0317    0.0000 C   0  0  0  0  0  0  0  0  0  0  0  0
    2.3110    4.2012    0.0000 C   0  0  0  0  0  0  0  0  0  0  0  0
   -0.4127   -1.1143    0.0000 C   0  0  0  0  0  0  0  0  0  0  0  0
    6.5865   -1.4279    0.0000 C   0  0  0  0  0  0  0  0  0  0  0  0
    1.6178    3.8049    0.0000 C   0  0  0  0  0  0  0  0  0  0  0  0
   -5.6126    3.0291    0.0000 C   0  0  3  0  0  0  0  0  0  0  0  0
   -6.3058    2.6165    0.0000 C   0  0  3  0  0  0  0  0  0  0  0  0
   -5.5961    3.8545    0.0000 C   0  0  3  0  0  0  0  0  0  0  0  0
   -7.0322    3.0291    0.0000 C   0  0  3  0  0  0  0  0  0  0  0  0
   -7.0157    3.8710    0.0000 C   0  0  3  0  0  0  0  0  0  0  0  0
    0.8749    4.2012    0.0000 C   0  0  0  0  0  0  0  0  0  0  0  0
   -4.8697    2.5999    0.0000 C   0  0  0  0  0  0  0  0  0  0  0  0
   -7.7586    4.2672    0.0000 C   0  0  0  0  0  0  0  0  0  0  0  0
    0.1816    3.8215    0.0000 C   0  0  0  0  0  0  0  0  0  0  0  0
   -4.0939    3.8049    0.0000 C   0  0  0  0  0  0  0  0  0  0  0  0
   -3.4005    4.2012    0.0000 C   0  0  0  0  0  0  0  0  0  0  0  0
   -3.4337    1.1191    0.0000 C   0  0  0  0  0  0  0  0  0  0  0  0
   -3.4337    1.1191    0.0000 C   0  0  0  0  0  0  0  0  0  0  0  0
   -1.2381    3.8049    0.0000 C   0  0  0  0  0  0  0  0  0  0  0  0
   -1.9974    4.2012    0.0000 C   0  0  0  0  0  0  0  0  0  0  0  0
  1  5  2  0  0  0  0
  1  6  2  0  0  0  0
  1  7  1  0  0  0  0
  1 40  1  0  0  0  0
  2  8  2  0  0  0  0
  2  9  2  0  0  0  0
  2 10  1  0  0  0  0
  2 47  1  0  0  0  0
  3 12  2  0  0  0  0
  3 13  2  0  0  0  0
  3 14  1  0  0  0  0
  3 63  1  0  0  0  0
  4 16  2  0  0  0  0
  4 17  2  0  0  0  0
  4 18  1  0  0  0  0
  4 64  1  0  0  0  0
 11 68  1  0  0  0  0
 11 70  1  0  0  0  0
 66 15  1  1  0  0  0
 15 72  1  0  0  0  0
 68 19  1  6  0  0  0
 19 75  1  0  0  0  0
 67 20  1  1  0  0  0
 69 21  1  6  0  0  0
 22 72  2  0  0  0  0
 23 73  1  0  0  0  0
 24 74  2  0  0  0  0
 25 76  1  0  0  0  0
 25 80  1  0  0  0  0
 26 32  2  0  0  0  0
 26 33  1  0  0  0  0
 26 44  1  0  0  0  0
 27 36  1  0  0  0  0
 27 37  1  0  0  0  0
 27 50  1  0  0  0  0
 28 72  1  0  0  0  0
 28 77  1  0  0  0  0
 28 78  1  0  0  0  0
 29 74  1  0  0  0  0
 29 79  1  0  0  0  0
 30 31  1  0  0  0  0
 30 32  1  0  0  0  0
 30 39  1  0  0  0  0
 30 43  1  0  0  0  0
 31 33  1  0  0  0  0
 31 38  2  0  0  0  0
 32 42  1  0  0  0  0
 33 41  2  0  0  0  0
 34 35  1  0  0  0  0
 34 36  1  0  0  0  0
 34 51  1  0  0  0  0
 34 52  1  0  0  0  0
 35 37  2  0  0  0  0
 35 45  1  0  0  0  0
 36 49  2  0  0  0  0
 37 48  1  0  0  0  0
 38 40  1  0  0  0  0
 39 54  1  0  0  0  0
 40 46  2  0  0  0  0
 41 46  1  0  0  0  0
 42 55  2  0  0  0  0
 44 56  1  0  0  0  0
 45 47  2  0  0  0  0
 47 53  1  0  0  0  0
 48 53  2  0  0  0  0
 49 57  1  0  0  0  0
 50 59  1  0  0  0  0
 54 60  1  0  0  0  0
 55 58  1  0  0  0  0
 56 61  1  0  0  0  0
 57 58  2  0  0  0  0
 59 62  1  0  0  0  0
 60 63  1  0  0  0  0
 61 64  1  0  0  0  0
 62 65  1  0  0  0  0
 65 71  1  0  0  0  0
 66 67  1  0  0  0  0
 66 68  1  0  0  0  0
 67 69  1  0  0  0  0
 69 70  1  0  0  0  0
 70 73  1  1  0  0  0
 71 74  1  0  0  0  0
 75 76  1  0  0  0  0
 79 80  1  0  0  0  0
M  CHG  1  26   1
M  END
> <PUBCHEM_COMPOUND_ID_TYPE>
0

> <PUBCHEM_TOTAL_CHARGE>
1

> <PUBCHEM_SUBSTANCE_ID>
310948885

> <PUBCHEM_SUBSTANCE_VERSION>
1

> <PUBCHEM_EXT_DATASOURCE_NAME>
4488

> <PUBCHEM_EXT_DATASOURCE_REGID>
SCHEMBL16127070

> <PUBCHEM_SUBSTANCE_COMMENT>
InChI=1S/C51H74N4O21S4/c1-50(2)37-32-35(79(67,68)69)19-21-39(37)54(25-12-7-10-18-44(57)52-24-27-73-28-29-74-48-47(76-49(60)53(4)5)46(59)45(58)41(34-56)75-48)42(50)16-8-6-9-17-43-51(3,23-11-14-30-77(61,62)63)38-33-36(80(70,71)72)20-22-40(38)55(43)26-13-15-31-78(64,65)66/h6,8-9,16-17,19-22,32-33,41,45-48,56,58-59H,7,10-15,18,23-31,34H2,1-5H3,(H4-,52,57,61,62,63,64,65,66,67,68,69,70,71,72)/p+1/t41-,45-,46+,47+,48+,51?/m1/s1
InChIKey=HAABUGNUQPSGIL-SZPWTJKUSA-O

> <PUBCHEM_SUBSTANCE_SYNONYM>
SCHEMBL16127070

> <PUBCHEM_XREF_EXT_ID>
SCHEMBL16127070

> <PUBCHEM_EXT_DATASOURCE_URL>
https://www.surechembl.org/

> <PUBCHEM_EXT_SUBSTANCE_URL>
https://www.surechembl.org/chemical/SCHEMBL16127070

> <PUBCHEM_CID_ASSOCIATIONS>
117614415  1

> <PUBCHEM_COORDINATE_TYPE>
1
3

> <PUBCHEM_BONDANNOTATIONS>
66  15  5
68  19  6
67  20  5
69  21  6
70  73  5

$$$$
