310948483
  -OEChem-07211613022D

 43 48  0     0  0  0  0  0  0999 V2000
    0.0608   -2.9669    0.0000 S   0  0  0  0  0  0  0  0  0  0  0  0
    3.1000   -2.9148    0.0000 F   0  0  0  0  0  0  0  0  0  0  0  0
    2.5616   -1.8728    0.0000 F   0  0  0  0  0  0  0  0  0  0  0  0
    2.0406   -3.4011    0.0000 F   0  0  0  0  0  0  0  0  0  0  0  0
    0.1650    2.0174    0.0000 O   0  0  0  0  0  0  0  0  0  0  0  0
    1.5196   -2.3938    0.0000 O   0  0  0  0  0  0  0  0  0  0  0  0
    0.0608   -2.9669    0.0000 O   0  0  0  0  0  0  0  0  0  0  0  0
    0.0608   -2.9669    0.0000 O   0  0  0  0  0  0  0  0  0  0  0  0
   -3.1000    3.8930    0.0000 O   0  0  0  0  0  0  0  0  0  0  0  0
    1.3980    1.4964    0.0000 N   0  0  0  0  0  0  0  0  0  0  0  0
   -1.3633    2.0348    0.0000 N   0  0  0  0  0  0  0  0  0  0  0  0
   -2.0406    2.5211    0.0000 N   0  0  0  0  0  0  0  0  0  0  0  0
   -1.9364    4.7440    0.0000 N   0  0  0  0  0  0  0  0  0  0  0  0
    0.0608    1.2185    0.0000 C   0  0  0  0  0  0  0  0  0  0  0  0
   -0.6513    0.8017    0.0000 C   0  0  0  0  0  0  0  0  0  0  0  0
    0.8249    0.8712    0.0000 C   0  0  0  0  0  0  0  0  0  0  0  0
   -1.3633    1.2185    0.0000 C   0  0  0  0  0  0  0  0  0  0  0  0
    0.9812    2.1910    0.0000 C   0  0  0  0  0  0  0  0  0  0  0  0
    1.3112    2.9900    0.0000 C   0  0  0  0  0  0  0  0  0  0  0  0
    1.0160    0.0723    0.0000 C   0  0  0  0  0  0  0  0  0  0  0  0
   -0.6513   -0.0319    0.0000 C   0  0  0  0  0  0  0  0  0  0  0  0
   -1.3633   -0.4487    0.0000 C   0  0  0  0  0  0  0  0  0  0  0  0
   -2.0754    0.8017    0.0000 C   0  0  0  0  0  0  0  0  0  0  0  0
   -1.3807   -1.2824    0.0000 C   0  0  0  0  0  0  0  0  0  0  0  0
   -2.0754   -0.0319    0.0000 C   0  0  0  0  0  0  0  0  0  0  0  0
    1.2418    3.7714    0.0000 C   0  0  0  0  0  0  0  0  0  0  0  0
    1.9711    3.4415    0.0000 C   0  0  0  0  0  0  0  0  0  0  0  0
   -0.7033    2.5557    0.0000 C   0  0  0  0  0  0  0  0  0  0  0  0
    1.7975   -0.2056    0.0000 C   0  0  0  0  0  0  0  0  0  0  0  0
    0.3907   -0.5008    0.0000 C   0  0  0  0  0  0  0  0  0  0  0  0
   -1.7801    3.3373    0.0000 C   0  0  0  0  0  0  0  0  0  0  0  0
   -0.6513   -1.7165    0.0000 C   0  0  0  0  0  0  0  0  0  0  0  0
   -0.9465    3.3199    0.0000 C   0  0  0  0  0  0  0  0  0  0  0  0
   -0.6687   -2.5154    0.0000 C   0  0  0  0  0  0  0  0  0  0  0  0
   -2.0754   -1.6991    0.0000 C   0  0  0  0  0  0  0  0  0  0  0  0
    1.3459   -1.5602    0.0000 C   0  0  0  0  0  0  0  0  0  0  0  0
    1.9538   -1.0218    0.0000 C   0  0  0  0  0  0  0  0  0  0  0  0
    0.5645   -1.2997    0.0000 C   0  0  0  0  0  0  0  0  0  0  0  0
   -2.2490    3.9972    0.0000 C   0  0  0  0  0  0  0  0  0  0  0  0
   -1.3807   -2.9321    0.0000 C   0  0  0  0  0  0  0  0  0  0  0  0
   -2.0754   -2.5328    0.0000 C   0  0  0  0  0  0  0  0  0  0  0  0
    2.3185   -2.6543    0.0000 C   0  0  0  0  0  0  0  0  0  0  0  0
    1.7840   -4.7440    0.0000 C   0  0  0  0  0  0  0  0  0  0  0  0
  1  7  2  0  0  0  0
  1  8  2  0  0  0  0
  1 34  1  0  0  0  0
  1 43  1  0  0  0  0
  2 42  1  0  0  0  0
  3 42  1  0  0  0  0
  4 42  1  0  0  0  0
  5 14  1  0  0  0  0
  5 18  1  0  0  0  0
  6 36  1  0  0  0  0
  6 42  1  0  0  0  0
  9 39  2  0  0  0  0
 10 16  1  0  0  0  0
 10 18  2  0  0  0  0
 11 12  1  0  0  0  0
 11 17  1  0  0  0  0
 11 28  1  0  0  0  0
 12 31  2  0  0  0  0
 13 39  1  0  0  0  0
 14 15  1  0  0  0  0
 14 16  2  0  0  0  0
 15 17  1  0  0  0  0
 15 21  2  0  0  0  0
 16 20  1  0  0  0  0
 17 23  2  0  0  0  0
 18 19  1  0  0  0  0
 19 26  1  0  0  0  0
 19 27  1  0  0  0  0
 20 29  2  0  0  0  0
 20 30  1  0  0  0  0
 21 22  1  0  0  0  0
 22 24  1  0  0  0  0
 22 25  2  0  0  0  0
 23 25  1  0  0  0  0
 24 32  2  0  0  0  0
 24 35  1  0  0  0  0
 26 27  1  0  0  0  0
 28 33  2  0  0  0  0
 29 37  1  0  0  0  0
 30 38  2  0  0  0  0
 31 33  1  0  0  0  0
 31 39  1  0  0  0  0
 32 34  1  0  0  0  0
 34 40  2  0  0  0  0
 35 41  2  0  0  0  0
 36 37  2  0  0  0  0
 36 38  1  0  0  0  0
 40 41  1  0  0  0  0
M  END
> <PUBCHEM_COMPOUND_ID_TYPE>
0

> <PUBCHEM_TOTAL_CHARGE>
0

> <PUBCHEM_SUBSTANCE_ID>
310948483

> <PUBCHEM_SUBSTANCE_VERSION>
1

> <PUBCHEM_EXT_DATASOURCE_NAME>
4488

> <PUBCHEM_EXT_DATASOURCE_REGID>
SCHEMBL16126665

> <PUBCHEM_SUBSTANCE_COMMENT>
InChI=1S/C30H23F3N4O5S/c1-43(39,40)22-4-2-3-19(15-22)20-9-12-25(37-14-13-24(36-37)28(34)38)23(16-20)27-26(35-29(41-27)18-5-6-18)17-7-10-21(11-8-17)42-30(31,32)33/h2-4,7-16,18H,5-6H2,1H3,(H2,34,38)
InChIKey=BUKTUPJZFGTBLL-UHFFFAOYSA-N

> <PUBCHEM_SUBSTANCE_SYNONYM>
SCHEMBL16126665

> <PUBCHEM_XREF_EXT_ID>
SCHEMBL16126665

> <PUBCHEM_EXT_DATASOURCE_URL>
https://www.surechembl.org/

> <PUBCHEM_EXT_SUBSTANCE_URL>
https://www.surechembl.org/chemical/SCHEMBL16126665

> <PUBCHEM_CID_ASSOCIATIONS>
117614041  1

> <PUBCHEM_COORDINATE_TYPE>
1
3

$$$$
