310948873
  -OEChem-07211613022D

 24 24  0     1  0  0  0  0  0999 V2000
   -0.0141    0.8648    0.0000 O   0  0  0  0  0  0  0  0  0  0  0  0
   -0.0141   -1.6382    0.0000 O   0  0  0  0  0  0  0  0  0  0  0  0
   -1.4624   -0.8086    0.0000 O   0  0  0  0  0  0  0  0  0  0  0  0
    1.4343   -0.8086    0.0000 O   0  0  0  0  0  0  0  0  0  0  0  0
    1.4343    0.8648    0.0000 O   0  0  0  0  0  0  0  0  0  0  0  0
   -1.4624    1.6945    0.0000 O   0  0  0  0  0  0  0  0  0  0  0  0
   -1.4062   -1.6804    0.0000 O   0  0  0  0  0  0  0  0  0  0  0  0
   -1.4624   -0.8086    0.0000 O   0  0  0  0  0  0  0  0  0  0  0  0
    2.8686   -0.7804    0.0000 O   0  0  0  0  0  0  0  0  0  0  0  0
   -2.1936    2.8615    0.0000 O   0  0  0  0  0  0  0  0  0  0  0  0
   -1.4624   -0.8086    0.0000 N   0  0  0  0  0  0  0  0  0  0  0  0
   -0.0141   -0.7945    0.0000 C   0  0  3  0  0  0  0  0  0  0  0  0
   -0.7453   -0.3867    0.0000 C   0  0  3  0  0  0  0  0  0  0  0  0
    0.7031   -0.3867    0.0000 C   0  0  3  0  0  0  0  0  0  0  0  0
   -0.7312    0.4570    0.0000 C   0  0  3  0  0  0  0  0  0  0  0  0
    0.7172    0.4289    0.0000 C   0  0  3  0  0  0  0  0  0  0  0  0
   -1.4624    0.8648    0.0000 C   0  0  0  0  0  0  0  0  0  0  0  0
   -0.7312   -2.0741    0.0000 C   0  0  0  0  0  0  0  0  0  0  0  0
   -1.4624   -0.8086    0.0000 C   0  0  0  0  0  0  0  0  0  0  0  0
    2.1936   -0.3867    0.0000 C   0  0  0  0  0  0  0  0  0  0  0  0
   -2.1936    2.1022    0.0000 C   0  0  0  0  0  0  0  0  0  0  0  0
   -0.7172   -2.8615    0.0000 C   0  0  0  0  0  0  0  0  0  0  0  0
    2.1515    0.4289    0.0000 C   0  0  0  0  0  0  0  0  0  0  0  0
   -2.8686    1.6945    0.0000 C   0  0  0  0  0  0  0  0  0  0  0  0
  1 15  1  0  0  0  0
  1 16  1  0  0  0  0
 12  2  1  1  0  0  0
  2 18  1  0  0  0  0
 13  3  1  6  0  0  0
  3 19  1  0  0  0  0
 14  4  1  1  0  0  0
  4 20  1  0  0  0  0
  5 16  1  0  0  0  0
  6 17  1  0  0  0  0
  6 21  1  0  0  0  0
  7 18  2  0  0  0  0
  8 19  2  0  0  0  0
  9 20  2  0  0  0  0
 10 21  2  0  0  0  0
 11 19  1  0  0  0  0
 12 13  1  0  0  0  0
 12 14  1  0  0  0  0
 13 15  1  0  0  0  0
 14 16  1  0  0  0  0
 15 17  1  1  0  0  0
 18 22  1  0  0  0  0
 20 23  1  0  0  0  0
 21 24  1  0  0  0  0
M  END
> <PUBCHEM_COMPOUND_ID_TYPE>
0

> <PUBCHEM_TOTAL_CHARGE>
0

> <PUBCHEM_SUBSTANCE_ID>
310948873

> <PUBCHEM_SUBSTANCE_VERSION>
1

> <PUBCHEM_EXT_DATASOURCE_NAME>
4488

> <PUBCHEM_EXT_DATASOURCE_REGID>
SCHEMBL16127058

> <PUBCHEM_SUBSTANCE_COMMENT>
InChI=1S/C13H19NO10/c1-5(15)20-4-8-9(24-13(14)19)10(21-6(2)16)11(12(18)23-8)22-7(3)17/h8-12,18H,4H2,1-3H3,(H2,14,19)/t8-,9-,10+,11+,12?/m1/s1
InChIKey=UIVIQUCMDGAFES-IKQSSVLVSA-N

> <PUBCHEM_SUBSTANCE_SYNONYM>
SCHEMBL16127058

> <PUBCHEM_XREF_EXT_ID>
SCHEMBL16127058

> <PUBCHEM_EXT_DATASOURCE_URL>
https://www.surechembl.org/

> <PUBCHEM_EXT_SUBSTANCE_URL>
https://www.surechembl.org/chemical/SCHEMBL16127058

> <PUBCHEM_CID_ASSOCIATIONS>
117614403  1

> <PUBCHEM_COORDINATE_TYPE>
1
3

> <PUBCHEM_BONDANNOTATIONS>
15  17  5
12  2  5
13  3  6
14  4  5
16  5  3

$$$$
