310948559
  -OEChem-07211613022D

 44 49  0     0  0  0  0  0  0999 V2000
    2.8601   -2.1632    0.0000 S   0  0  0  0  0  0  0  0  0  0  0  0
    2.6195    3.9361    0.0000 F   0  0  0  0  0  0  0  0  0  0  0  0
    3.1522    3.3004    0.0000 F   0  0  0  0  0  0  0  0  0  0  0  0
    2.9632    0.7232    0.0000 F   0  0  0  0  0  0  0  0  0  0  0  0
   -1.9850    0.9637    0.0000 O   0  0  0  0  0  0  0  0  0  0  0  0
    1.5543    3.3519    0.0000 O   0  0  0  0  0  0  0  0  0  0  0  0
    2.4134    2.3210    0.0000 O   0  0  0  0  0  0  0  0  0  0  0  0
    2.8601   -2.1632    0.0000 O   0  0  0  0  0  0  0  0  0  0  0  0
    2.8601   -2.1632    0.0000 O   0  0  0  0  0  0  0  0  0  0  0  0
    4.1830   -0.0499    0.0000 O   0  0  0  0  0  0  0  0  0  0  0  0
   -1.3836    2.1664    0.0000 N   0  0  0  0  0  0  0  0  0  0  0  0
   -2.5347   -1.1838    0.0000 N   0  0  0  0  0  0  0  0  0  0  0  0
   -3.3251   -0.9090    0.0000 N   0  0  0  0  0  0  0  0  0  0  0  0
   -4.5793    0.8779    0.0000 N   0  0  0  0  0  0  0  0  0  0  0  0
   -0.7651    0.1391    0.0000 C   0  0  0  0  0  0  0  0  0  0  0  0
   -1.1602    0.8606    0.0000 C   0  0  0  0  0  0  0  0  0  0  0  0
   -0.7822    1.5994    0.0000 C   0  0  0  0  0  0  0  0  0  0  0  0
   -1.1946   -0.5825    0.0000 C   0  0  0  0  0  0  0  0  0  0  0  0
    0.0081    1.7369    0.0000 C   0  0  0  0  0  0  0  0  0  0  0  0
   -2.0365   -0.5310    0.0000 C   0  0  0  0  0  0  0  0  0  0  0  0
    0.4376   -0.6169    0.0000 C   0  0  0  0  0  0  0  0  0  0  0  0
    0.0596    0.0875    0.0000 C   0  0  0  0  0  0  0  0  0  0  0  0
    1.1076    2.6475    0.0000 C   0  0  0  0  0  0  0  0  0  0  0  0
    1.6403    2.0461    0.0000 C   0  0  0  0  0  0  0  0  0  0  0  0
    1.2794   -0.6685    0.0000 C   0  0  0  0  0  0  0  0  0  0  0  0
    0.3173    2.5100    0.0000 C   0  0  0  0  0  0  0  0  0  0  0  0
   -2.1052    1.7885    0.0000 C   0  0  0  0  0  0  0  0  0  0  0  0
    2.3619    3.1801    0.0000 C   0  0  0  0  0  0  0  0  0  0  0  0
   -0.8166   -1.2870    0.0000 C   0  0  0  0  0  0  0  0  0  0  0  0
    2.4822   -1.4244    0.0000 C   0  0  0  0  0  0  0  0  0  0  0  0
    0.0081   -1.3213    0.0000 C   0  0  0  0  0  0  0  0  0  0  0  0
    0.5579    1.1184    0.0000 C   0  0  0  0  0  0  0  0  0  0  0  0
    2.9116   -0.7028    0.0000 C   0  0  0  0  0  0  0  0  0  0  0  0
    1.6574   -1.3729    0.0000 C   0  0  0  0  0  0  0  0  0  0  0  0
    1.3654    1.2730    0.0000 C   0  0  0  0  0  0  0  0  0  0  0  0
   -2.5004    0.1391    0.0000 C   0  0  0  0  0  0  0  0  0  0  0  0
    1.7090    0.0360    0.0000 C   0  0  0  0  0  0  0  0  0  0  0  0
    2.5165    0.0188    0.0000 C   0  0  0  0  0  0  0  0  0  0  0  0
   -3.2907   -0.0843    0.0000 C   0  0  0  0  0  0  0  0  0  0  0  0
   -2.8611    2.1321    0.0000 C   0  0  0  0  0  0  0  0  0  0  0  0
    3.7363   -0.7543    0.0000 C   0  0  0  0  0  0  0  0  0  0  0  0
   -2.2942   -2.0086    0.0000 C   0  0  0  0  0  0  0  0  0  0  0  0
   -3.9436    0.4139    0.0000 C   0  0  0  0  0  0  0  0  0  0  0  0
    4.5793   -3.9361    0.0000 C   0  0  0  0  0  0  0  0  0  0  0  0
  1  8  2  0  0  0  0
  1  9  2  0  0  0  0
  1 30  1  0  0  0  0
  1 44  1  0  0  0  0
  2 28  1  0  0  0  0
  3 28  1  0  0  0  0
  4 38  1  0  0  0  0
  5 16  1  0  0  0  0
  5 27  1  0  0  0  0
  6 23  1  0  0  0  0
  6 28  1  0  0  0  0
  7 24  1  0  0  0  0
  7 28  1  0  0  0  0
 10 41  1  0  0  0  0
 11 17  1  0  0  0  0
 11 27  2  0  0  0  0
 12 13  1  0  0  0  0
 12 20  1  0  0  0  0
 12 42  1  0  0  0  0
 13 39  2  0  0  0  0
 14 43  3  0  0  0  0
 15 16  1  0  0  0  0
 15 18  1  0  0  0  0
 15 22  2  0  0  0  0
 16 17  2  0  0  0  0
 17 19  1  0  0  0  0
 18 20  1  0  0  0  0
 18 29  2  0  0  0  0
 19 26  1  0  0  0  0
 19 32  2  0  0  0  0
 20 36  2  0  0  0  0
 21 22  1  0  0  0  0
 21 25  1  0  0  0  0
 21 31  2  0  0  0  0
 23 24  1  0  0  0  0
 23 26  2  0  0  0  0
 24 35  2  0  0  0  0
 25 34  1  0  0  0  0
 25 37  2  0  0  0  0
 27 40  1  0  0  0  0
 29 31  1  0  0  0  0
 30 33  1  0  0  0  0
 30 34  2  0  0  0  0
 32 35  1  0  0  0  0
 33 38  2  0  0  0  0
 33 41  1  0  0  0  0
 36 39  1  0  0  0  0
 37 38  1  0  0  0  0
 39 43  1  0  0  0  0
M  END
> <PUBCHEM_COMPOUND_ID_TYPE>
0

> <PUBCHEM_TOTAL_CHARGE>
0

> <PUBCHEM_SUBSTANCE_ID>
310948559

> <PUBCHEM_SUBSTANCE_VERSION>
1

> <PUBCHEM_EXT_DATASOURCE_NAME>
4488

> <PUBCHEM_EXT_DATASOURCE_REGID>
SCHEMBL16126741

> <PUBCHEM_SUBSTANCE_COMMENT>
InChI=1S/C30H21F3N4O6S/c1-15-35-28(17-5-7-25-26(10-17)43-30(32,33)42-25)29(41-15)21-8-16(4-6-20(21)24-12-19(13-34)36-37(24)2)18-9-23(31)22(14-38)27(11-18)44(3,39)40/h4-12,38H,14H2,1-3H3
InChIKey=MZNGHLLHONZWKR-UHFFFAOYSA-N

> <PUBCHEM_SUBSTANCE_SYNONYM>
SCHEMBL16126741

> <PUBCHEM_XREF_EXT_ID>
SCHEMBL16126741

> <PUBCHEM_EXT_DATASOURCE_URL>
https://www.surechembl.org/

> <PUBCHEM_EXT_SUBSTANCE_URL>
https://www.surechembl.org/chemical/SCHEMBL16126741

> <PUBCHEM_CID_ASSOCIATIONS>
117614109  1

> <PUBCHEM_COORDINATE_TYPE>
1
3

$$$$
