310948563
  -OEChem-07211613022D

 46 51  0     0  0  0  0  0  0999 V2000
   -4.6760   -0.4655    0.0000 Cl  0  0  0  0  0  0  0  0  0  0  0  0
    2.9249    0.0095    0.0000 S   0  0  0  0  0  0  0  0  0  0  0  0
    3.6279    2.3467    0.0000 F   0  0  0  0  0  0  0  0  0  0  0  0
    3.8560    1.5487    0.0000 F   0  0  0  0  0  0  0  0  0  0  0  0
   -4.5050    0.7506    0.0000 F   0  0  0  0  0  0  0  0  0  0  0  0
   -4.4289    1.8717    0.0000 F   0  0  0  0  0  0  0  0  0  0  0  0
   -3.2889    1.7767    0.0000 F   0  0  0  0  0  0  0  0  0  0  0  0
    2.2408   -2.8788    0.0000 F   0  0  0  0  0  0  0  0  0  0  0  0
   -1.8067    1.4537    0.0000 O   0  0  0  0  0  0  0  0  0  0  0  0
    2.3928    2.2707    0.0000 O   0  0  0  0  0  0  0  0  0  0  0  0
    2.7348    0.9786    0.0000 O   0  0  0  0  0  0  0  0  0  0  0  0
    2.9249    0.0095    0.0000 O   0  0  0  0  0  0  0  0  0  0  0  0
    2.9249    0.0095    0.0000 O   0  0  0  0  0  0  0  0  0  0  0  0
    4.1790   -0.9406    0.0000 O   0  0  0  0  0  0  0  0  0  0  0  0
   -2.2437   -0.0855    0.0000 N   0  0  0  0  0  0  0  0  0  0  0  0
   -0.8756    2.4038    0.0000 N   0  0  0  0  0  0  0  0  0  0  0  0
   -2.5477    0.6936    0.0000 N   0  0  0  0  0  0  0  0  0  0  0  0
   -0.8566    0.3135    0.0000 C   0  0  0  0  0  0  0  0  0  0  0  0
   -1.0656    1.0736    0.0000 C   0  0  0  0  0  0  0  0  0  0  0  0
   -1.4456   -0.2945    0.0000 C   0  0  0  0  0  0  0  0  0  0  0  0
   -0.4955    1.7007    0.0000 C   0  0  0  0  0  0  0  0  0  0  0  0
    0.3026    1.4537    0.0000 C   0  0  0  0  0  0  0  0  0  0  0  0
    0.1505   -0.7126    0.0000 C   0  0  0  0  0  0  0  0  0  0  0  0
   -0.0585    0.0665    0.0000 C   0  0  0  0  0  0  0  0  0  0  0  0
    1.7087    1.8147    0.0000 C   0  0  0  0  0  0  0  0  0  0  0  0
   -3.3648    0.6556    0.0000 C   0  0  0  0  0  0  0  0  0  0  0  0
    0.9487   -0.9406    0.0000 C   0  0  0  0  0  0  0  0  0  0  0  0
   -1.2176   -1.0926    0.0000 C   0  0  0  0  0  0  0  0  0  0  0  0
    1.8988    1.0356    0.0000 C   0  0  0  0  0  0  0  0  0  0  0  0
   -1.6927    2.2897    0.0000 C   0  0  0  0  0  0  0  0  0  0  0  0
    0.9107    2.0237    0.0000 C   0  0  0  0  0  0  0  0  0  0  0  0
   -3.5929   -0.1425    0.0000 C   0  0  0  0  0  0  0  0  0  0  0  0
   -2.8898   -0.5986    0.0000 C   0  0  0  0  0  0  0  0  0  0  0  0
   -0.4195   -1.3016    0.0000 C   0  0  0  0  0  0  0  0  0  0  0  0
    3.0579    1.7767    0.0000 C   0  0  0  0  0  0  0  0  0  0  0  0
    2.3548   -0.5796    0.0000 C   0  0  0  0  0  0  0  0  0  0  0  0
    0.5496    0.6556    0.0000 C   0  0  0  0  0  0  0  0  0  0  0  0
   -3.8969    1.2826    0.0000 C   0  0  0  0  0  0  0  0  0  0  0  0
    1.5567   -0.3705    0.0000 C   0  0  0  0  0  0  0  0  0  0  0  0
    2.5448   -1.3586    0.0000 C   0  0  0  0  0  0  0  0  0  0  0  0
    1.3477    0.4655    0.0000 C   0  0  0  0  0  0  0  0  0  0  0  0
    1.1956   -1.7387    0.0000 C   0  0  0  0  0  0  0  0  0  0  0  0
    1.9748   -1.9477    0.0000 C   0  0  0  0  0  0  0  0  0  0  0  0
   -2.2437    2.8788    0.0000 C   0  0  0  0  0  0  0  0  0  0  0  0
    3.5140   -1.6057    0.0000 C   0  0  0  0  0  0  0  0  0  0  0  0
    4.6760   -1.7964    0.0000 C   0  0  0  0  0  0  0  0  0  0  0  0
  1 32  1  0  0  0  0
  2 12  2  0  0  0  0
  2 13  2  0  0  0  0
  2 36  1  0  0  0  0
  2 46  1  0  0  0  0
  3 35  1  0  0  0  0
  4 35  1  0  0  0  0
  5 38  1  0  0  0  0
  6 38  1  0  0  0  0
  7 38  1  0  0  0  0
  8 43  1  0  0  0  0
  9 19  1  0  0  0  0
  9 30  1  0  0  0  0
 10 25  1  0  0  0  0
 10 35  1  0  0  0  0
 11 29  1  0  0  0  0
 11 35  1  0  0  0  0
 14 45  1  0  0  0  0
 15 17  1  0  0  0  0
 15 20  1  0  0  0  0
 15 33  1  0  0  0  0
 16 21  1  0  0  0  0
 16 30  2  0  0  0  0
 17 26  2  0  0  0  0
 18 19  1  0  0  0  0
 18 20  1  0  0  0  0
 18 24  2  0  0  0  0
 19 21  2  0  0  0  0
 20 28  2  0  0  0  0
 21 22  1  0  0  0  0
 22 31  2  0  0  0  0
 22 37  1  0  0  0  0
 23 24  1  0  0  0  0
 23 27  1  0  0  0  0
 23 34  2  0  0  0  0
 25 29  2  0  0  0  0
 25 31  1  0  0  0  0
 26 32  1  0  0  0  0
 26 38  1  0  0  0  0
 27 39  2  0  0  0  0
 27 42  1  0  0  0  0
 28 34  1  0  0  0  0
 29 41  1  0  0  0  0
 30 44  1  0  0  0  0
 32 33  2  0  0  0  0
 36 39  1  0  0  0  0
 36 40  2  0  0  0  0
 37 41  2  0  0  0  0
 40 43  1  0  0  0  0
 40 45  1  0  0  0  0
 42 43  2  0  0  0  0
M  END
> <PUBCHEM_COMPOUND_ID_TYPE>
0

> <PUBCHEM_TOTAL_CHARGE>
0

> <PUBCHEM_SUBSTANCE_ID>
310948563

> <PUBCHEM_SUBSTANCE_VERSION>
1

> <PUBCHEM_EXT_DATASOURCE_NAME>
4488

> <PUBCHEM_EXT_DATASOURCE_REGID>
SCHEMBL16126745

> <PUBCHEM_SUBSTANCE_COMMENT>
InChI=1S/C29H18ClF6N3O6S/c1-13-37-25(15-4-6-22-23(9-15)45-29(35,36)44-22)26(43-13)17-7-14(16-8-20(31)18(12-40)24(10-16)46(2,41)42)3-5-21(17)39-11-19(30)27(38-39)28(32,33)34/h3-11,40H,12H2,1-2H3
InChIKey=GVHGESDIRVMHOF-UHFFFAOYSA-N

> <PUBCHEM_SUBSTANCE_SYNONYM>
SCHEMBL16126745

> <PUBCHEM_XREF_EXT_ID>
SCHEMBL16126745

> <PUBCHEM_EXT_DATASOURCE_URL>
https://www.surechembl.org/

> <PUBCHEM_EXT_SUBSTANCE_URL>
https://www.surechembl.org/chemical/SCHEMBL16126745

> <PUBCHEM_CID_ASSOCIATIONS>
117614113  1

> <PUBCHEM_COORDINATE_TYPE>
1
3

$$$$
