310940886
  -OEChem-07211613022D

 22 23  0     1  0  0  0  0  0999 V2000
    0.2029   -0.1909    0.0000 O   0  0  0  0  0  0  0  0  0  0  0  0
    0.2029    1.5107    0.0000 O   0  0  0  0  0  0  0  0  0  0  0  0
    0.2029   -0.1909    0.0000 O   0  0  0  0  0  0  0  0  0  0  0  0
   -3.4955    2.7904    0.0000 O   0  0  0  0  0  0  0  0  0  0  0  0
   -1.2736   -0.1909    0.0000 N   0  0  0  0  0  0  0  0  0  0  0  0
   -0.5284    1.0888    0.0000 C   0  0  3  0  0  0  0  0  0  0  0  0
   -1.2877    1.5247    0.0000 C   0  0  0  0  0  0  0  0  0  0  0  0
   -0.5424    0.2450    0.0000 C   0  0  3  0  0  0  0  0  0  0  0  0
    0.2029   -0.1909    0.0000 C   0  0  0  0  0  0  0  0  0  0  0  0
   -1.2877    2.3685    0.0000 C   0  0  0  0  0  0  0  0  0  0  0  0
   -1.9908    1.1028    0.0000 C   0  0  0  0  0  0  0  0  0  0  0  0
   -2.7502    2.3685    0.0000 C   0  0  0  0  0  0  0  0  0  0  0  0
   -2.0330    2.7763    0.0000 C   0  0  0  0  0  0  0  0  0  0  0  0
   -2.7502    1.5247    0.0000 C   0  0  0  0  0  0  0  0  0  0  0  0
    2.9509   -2.3893    0.0000 C   0  0  0  0  0  0  0  0  0  0  0  0
    2.2380   -2.7904    0.0000 C   0  0  0  0  0  0  0  0  0  0  0  0
    2.9509   -1.6615    0.0000 C   0  0  0  0  0  0  0  0  0  0  0  0
    3.5748   -2.7458    0.0000 C   0  0  0  0  0  0  0  0  0  0  0  0
    3.5748   -1.2901    0.0000 C   0  0  0  0  0  0  0  0  0  0  0  0
    4.1987   -2.3745    0.0000 C   0  0  0  0  0  0  0  0  0  0  0  0
    4.1987   -1.6466    0.0000 C   0  0  0  0  0  0  0  0  0  0  0  0
   -4.1987    2.3403    0.0000 C   0  0  0  0  0  0  0  0  0  0  0  0
  1  9  1  0  0  0  0
  1 16  1  0  0  0  0
  6  2  1  1  0  0  0
  3  9  2  0  0  0  0
  4 12  1  0  0  0  0
  4 22  1  0  0  0  0
  8  5  1  1  0  0  0
  6  7  1  0  0  0  0
  6  8  1  0  0  0  0
  7 10  2  0  0  0  0
  7 11  1  0  0  0  0
  8  9  1  0  0  0  0
 10 13  1  0  0  0  0
 11 14  2  0  0  0  0
 12 13  2  0  0  0  0
 12 14  1  0  0  0  0
 15 16  1  0  0  0  0
 15 17  2  0  0  0  0
 15 18  1  0  0  0  0
 17 19  1  0  0  0  0
 18 20  2  0  0  0  0
 19 21  2  0  0  0  0
 20 21  1  0  0  0  0
M  END
> <PUBCHEM_COMPOUND_ID_TYPE>
0

> <PUBCHEM_TOTAL_CHARGE>
0

> <PUBCHEM_SUBSTANCE_ID>
310940886

> <PUBCHEM_SUBSTANCE_VERSION>
1

> <PUBCHEM_EXT_DATASOURCE_NAME>
4488

> <PUBCHEM_EXT_DATASOURCE_REGID>
SCHEMBL16118845

> <PUBCHEM_SUBSTANCE_COMMENT>
InChI=1S/C17H19NO4/c1-21-14-9-7-13(8-10-14)16(19)15(18)17(20)22-11-12-5-3-2-4-6-12/h2-10,15-16,19H,11,18H2,1H3/t15-,16+/m0/s1
InChIKey=KKUYHCUCMRHMPB-JKSUJKDBSA-N

> <PUBCHEM_SUBSTANCE_SYNONYM>
SCHEMBL16118845

> <PUBCHEM_XREF_EXT_ID>
SCHEMBL16118845

> <PUBCHEM_EXT_DATASOURCE_URL>
https://www.surechembl.org/

> <PUBCHEM_EXT_SUBSTANCE_URL>
https://www.surechembl.org/chemical/SCHEMBL16118845

> <PUBCHEM_CID_ASSOCIATIONS>
117607803  1

> <PUBCHEM_COORDINATE_TYPE>
1
3

> <PUBCHEM_BONDANNOTATIONS>
6  2  5
8  5  5

$$$$
