310946818
  -OEChem-07211613022D

 38 39  0     1  0  0  0  0  0999 V2000
   -2.6419    3.2595    0.0000 O   0  0  0  0  0  0  0  0  0  0  0  0
   -3.8391    4.2289    0.0000 N   0  0  0  0  0  0  0  0  0  0  0  0
   -3.8391    5.0539    0.0000 N   0  0  0  0  0  0  0  0  0  0  0  0
   -1.7445    4.6414    0.0000 N   0  0  0  0  0  0  0  0  0  0  0  0
    1.5555    4.6414    0.0000 N   0  0  0  0  0  0  0  0  0  0  0  0
   -2.2294    6.7378    0.0000 N   0  0  0  0  0  0  0  0  0  0  0  0
   -2.5695    4.6414    0.0000 C   0  0  0  0  0  0  0  0  0  0  0  0
   -3.0544    3.9740    0.0000 C   0  0  0  0  0  0  0  0  0  0  0  0
   -3.0544    5.3089    0.0000 C   0  0  0  0  0  0  0  0  0  0  0  0
   -4.5535    3.8164    0.0000 C   0  0  0  0  0  0  0  0  0  0  0  0
   -0.9195    4.6414    0.0000 C   0  0  0  0  0  0  0  0  0  0  0  0
   -0.5070    3.9270    0.0000 C   0  0  0  0  0  0  0  0  0  0  0  0
   -0.5070    5.3559    0.0000 C   0  0  0  0  0  0  0  0  0  0  0  0
    0.7305    4.6414    0.0000 C   0  0  0  0  0  0  0  0  0  0  0  0
    0.3180    3.9270    0.0000 C   0  0  0  0  0  0  0  0  0  0  0  0
    0.3180    5.3559    0.0000 C   0  0  0  0  0  0  0  0  0  0  0  0
   -2.6419    6.0234    0.0000 C   0  0  0  0  0  0  0  0  0  0  0  0
   -4.1410    3.1020    0.0000 C   0  0  0  0  0  0  0  0  0  0  0  0
   -5.2680    3.4039    0.0000 C   0  0  0  0  0  0  0  0  0  0  0  0
   -4.9660    4.5309    0.0000 C   0  0  0  0  0  0  0  0  0  0  0  0
   -0.9195    3.2125    0.0000 C   0  0  0  0  0  0  0  0  0  0  0  0
   -0.9195    6.0704    0.0000 C   0  0  0  0  0  0  0  0  0  0  0  0
    1.9680    3.9270    0.0000 C   0  0  0  0  0  0  0  0  0  0  0  0
    1.9680    5.3559    0.0000 C   0  0  0  0  0  0  0  0  0  0  0  0
    1.5555    3.2125    0.0000 C   0  0  3  0  0  0  0  0  0  0  0  0
    2.7930    5.3559    0.0000 C   0  0  3  0  0  0  0  0  0  0  0  0
    1.9680    2.4980    0.0000 C   0  0  0  0  0  0  0  0  0  0  0  0
    3.2055    6.0704    0.0000 C   0  0  0  0  0  0  0  0  0  0  0  0
    0.7305    3.2125    0.0000 C   0  0  0  0  0  0  0  0  0  0  0  0
    3.2055    4.6415    0.0000 C   0  0  0  0  0  0  0  0  0  0  0  0
    1.5555    1.7836    0.0000 C   0  0  0  0  0  0  0  0  0  0  0  0
    4.0305    6.0704    0.0000 C   0  0  0  0  0  0  0  0  0  0  0  0
    0.3180    3.9270    0.0000 C   0  0  0  0  0  0  0  0  0  0  0  0
    2.7930    3.9270    0.0000 C   0  0  0  0  0  0  0  0  0  0  0  0
    1.9680    1.0691    0.0000 C   0  0  0  0  0  0  0  0  0  0  0  0
    4.4430    6.7849    0.0000 C   0  0  0  0  0  0  0  0  0  0  0  0
    1.5555    0.3546    0.0000 C   0  0  0  0  0  0  0  0  0  0  0  0
    5.2680    6.7849    0.0000 C   0  0  0  0  0  0  0  0  0  0  0  0
  1  8  2  0  0  0  0
  2  3  1  0  0  0  0
  2  8  1  0  0  0  0
  2 10  1  0  0  0  0
  3  9  2  0  0  0  0
  4  7  2  3  0  0  0
  4 11  1  0  0  0  0
  5 14  1  0  0  0  0
  5 23  1  0  0  0  0
  5 24  1  0  0  0  0
  6 17  3  0  0  0  0
  7  8  1  0  0  0  0
  7  9  1  0  0  0  0
  9 17  1  0  0  0  0
 10 18  1  0  0  0  0
 10 19  1  0  0  0  0
 10 20  1  0  0  0  0
 11 12  2  0  0  0  0
 11 13  1  0  0  0  0
 12 15  1  0  0  0  0
 12 21  1  0  0  0  0
 13 16  2  0  0  0  0
 13 22  1  0  0  0  0
 14 15  2  0  0  0  0
 14 16  1  0  0  0  0
 23 25  1  0  0  0  0
 24 26  1  0  0  0  0
 25 27  1  0  0  0  0
 25 29  1  0  0  0  0
 26 28  1  0  0  0  0
 26 30  1  0  0  0  0
 27 31  1  0  0  0  0
 28 32  1  0  0  0  0
 29 33  1  0  0  0  0
 30 34  1  0  0  0  0
 31 35  1  0  0  0  0
 32 36  1  0  0  0  0
 35 37  1  0  0  0  0
 36 38  1  0  0  0  0
M  END
> <PUBCHEM_COMPOUND_ID_TYPE>
0

> <PUBCHEM_TOTAL_CHARGE>
0

> <PUBCHEM_SUBSTANCE_ID>
310946818

> <PUBCHEM_SUBSTANCE_VERSION>
1

> <PUBCHEM_EXT_DATASOURCE_NAME>
4488

> <PUBCHEM_EXT_DATASOURCE_REGID>
SCHEMBL16124942

> <PUBCHEM_SUBSTANCE_COMMENT>
InChI=1S/C32H51N5O/c1-10-14-16-25(12-3)21-36(22-26(13-4)17-15-11-2)27-18-23(5)29(24(6)19-27)34-30-28(20-33)35-37(31(30)38)32(7,8)9/h18-19,25-26H,10-17,21-22H2,1-9H3
InChIKey=DUVKWYTYVQIFHL-UHFFFAOYSA-N

> <PUBCHEM_SUBSTANCE_SYNONYM>
SCHEMBL16124942

> <PUBCHEM_XREF_EXT_ID>
SCHEMBL16124942

> <PUBCHEM_EXT_DATASOURCE_URL>
https://www.surechembl.org/

> <PUBCHEM_EXT_SUBSTANCE_URL>
https://www.surechembl.org/chemical/SCHEMBL16124942

> <PUBCHEM_CID_ASSOCIATIONS>
117612678  1

> <PUBCHEM_COORDINATE_TYPE>
1
3

$$$$
