310938955
  -OEChem-07211613022D

 37 39  0     1  0  0  0  0  0999 V2000
    1.2067  -15.0917    0.0000 O   0  0  0  0  0  0  0  0  0  0  0  0
    0.4922  -13.8542    0.0000 O   0  0  0  0  0  0  0  0  0  0  0  0
   -1.6512  -12.6167    0.0000 O   0  0  0  0  0  0  0  0  0  0  0  0
   -2.3657  -13.8542    0.0000 O   0  0  0  0  0  0  0  0  0  0  0  0
   -0.2222  -15.9167    0.0000 N   0  0  0  0  0  0  0  0  0  0  0  0
   -0.9367  -13.8542    0.0000 N   0  0  0  0  0  0  0  0  0  0  0  0
   -2.3657  -16.3292    0.0000 N   0  0  0  0  0  0  0  0  0  0  0  0
   -0.2222  -15.0917    0.0000 C   0  0  3  0  0  0  0  0  0  0  0  0
   -0.9367  -14.6792    0.0000 C   0  0  3  0  0  0  0  0  0  0  0  0
    0.4922  -16.3292    0.0000 C   0  0  0  0  0  0  0  0  0  0  0  0
    0.4922  -14.6792    0.0000 C   0  0  0  0  0  0  0  0  0  0  0  0
   -1.6512  -15.0917    0.0000 C   0  0  0  0  0  0  0  0  0  0  0  0
    0.4922  -17.1542    0.0000 C   0  0  0  0  0  0  0  0  0  0  0  0
    1.2067  -15.9167    0.0000 C   0  0  0  0  0  0  0  0  0  0  0  0
   -1.6512  -13.4417    0.0000 C   0  0  0  0  0  0  0  0  0  0  0  0
   -1.6512  -15.9167    0.0000 C   0  0  0  0  0  0  0  0  0  0  0  0
   -2.3657  -14.6792    0.0000 C   0  0  0  0  0  0  0  0  0  0  0  0
    1.9212  -14.6792    0.0000 C   0  0  0  0  0  0  0  0  0  0  0  0
   -0.2222  -17.5667    0.0000 C   0  0  0  0  0  0  0  0  0  0  0  0
    1.9212  -16.3292    0.0000 C   0  0  0  0  0  0  0  0  0  0  0  0
    1.2067  -17.5667    0.0000 C   0  0  0  0  0  0  0  0  0  0  0  0
    1.2067  -15.0917    0.0000 C   0  0  0  0  0  0  0  0  0  0  0  0
   -3.0801  -15.0917    0.0000 C   0  0  0  0  0  0  0  0  0  0  0  0
   -2.3657  -12.2042    0.0000 C   0  0  0  0  0  0  0  0  0  0  0  0
   -0.2222  -18.3917    0.0000 C   0  0  0  0  0  0  0  0  0  0  0  0
    2.6356  -15.9167    0.0000 C   0  0  0  0  0  0  0  0  0  0  0  0
    1.2067  -18.3917    0.0000 C   0  0  0  0  0  0  0  0  0  0  0  0
    1.9212  -14.6792    0.0000 C   0  0  0  0  0  0  0  0  0  0  0  0
   -3.0801  -15.9167    0.0000 C   0  0  0  0  0  0  0  0  0  0  0  0
    0.4922  -18.8042    0.0000 C   0  0  0  0  0  0  0  0  0  0  0  0
    2.6356  -15.0917    0.0000 C   0  0  0  0  0  0  0  0  0  0  0  0
    2.6356  -15.0917    0.0000 C   0  0  0  0  0  0  0  0  0  0  0  0
    2.6356  -14.2667    0.0000 C   0  0  0  0  0  0  0  0  0  0  0  0
    1.9212  -13.8542    0.0000 C   0  0  0  0  0  0  0  0  0  0  0  0
   -2.3657  -11.3792    0.0000 C   0  0  0  0  0  0  0  0  0  0  0  0
   -3.0801  -11.7917    0.0000 C   0  0  0  0  0  0  0  0  0  0  0  0
   -3.0801  -12.6167    0.0000 C   0  0  0  0  0  0  0  0  0  0  0  0
  1 11  1  0  0  0  0
  1 18  1  0  0  0  0
  2 11  2  0  0  0  0
  3 15  1  0  0  0  0
  3 24  1  0  0  0  0
  4 15  2  0  0  0  0
  8  5  1  1  0  0  0
  5 10  2  0  0  0  0
  9  6  1  1  0  0  0
  6 15  1  0  0  0  0
  7 16  2  0  0  0  0
  7 29  1  0  0  0  0
  8  9  1  0  0  0  0
  8 11  1  0  0  0  0
  9 12  1  0  0  0  0
 10 13  1  0  0  0  0
 10 14  1  0  0  0  0
 12 16  1  0  0  0  0
 12 17  2  0  0  0  0
 13 19  2  0  0  0  0
 13 21  1  0  0  0  0
 14 20  2  0  0  0  0
 14 22  1  0  0  0  0
 17 23  1  0  0  0  0
 18 32  1  0  0  0  0
 18 33  1  0  0  0  0
 18 34  1  0  0  0  0
 19 25  1  0  0  0  0
 20 26  1  0  0  0  0
 21 27  2  0  0  0  0
 22 28  2  0  0  0  0
 23 29  2  0  0  0  0
 24 35  1  0  0  0  0
 24 36  1  0  0  0  0
 24 37  1  0  0  0  0
 25 30  2  0  0  0  0
 26 31  2  0  0  0  0
 27 30  1  0  0  0  0
 28 31  1  0  0  0  0
M  END
> <PUBCHEM_COMPOUND_ID_TYPE>
0

> <PUBCHEM_TOTAL_CHARGE>
0

> <PUBCHEM_SUBSTANCE_ID>
310938955

> <PUBCHEM_SUBSTANCE_VERSION>
1

> <PUBCHEM_EXT_DATASOURCE_NAME>
4488

> <PUBCHEM_EXT_DATASOURCE_REGID>
SCHEMBL16116874

> <PUBCHEM_SUBSTANCE_COMMENT>
InChI=1S/C30H35N3O4/c1-29(2,3)36-27(34)26(25(23-18-13-19-31-20-23)33-28(35)37-30(4,5)6)32-24(21-14-9-7-10-15-21)22-16-11-8-12-17-22/h7-20,25-26H,1-6H3,(H,33,35)/t25-,26+/m1/s1
InChIKey=HFNJTYUAXSIWRZ-FTJBHMTQSA-N

> <PUBCHEM_SUBSTANCE_SYNONYM>
SCHEMBL16116874

> <PUBCHEM_XREF_EXT_ID>
SCHEMBL16116874

> <PUBCHEM_EXT_DATASOURCE_URL>
https://www.surechembl.org/

> <PUBCHEM_EXT_SUBSTANCE_URL>
https://www.surechembl.org/chemical/SCHEMBL16116874

> <PUBCHEM_CID_ASSOCIATIONS>
117606345  1

> <PUBCHEM_COORDINATE_TYPE>
1
3

> <PUBCHEM_BONDANNOTATIONS>
8  5  5
9  6  5

$$$$
