310947390
  -OEChem-07211613022D

 19 23  0     1  0  0  0  0  0999 V2000
    2.0637   15.8701    0.0000 O   0  0  0  0  0  0  0  0  0  0  0  0
    2.7782   14.6326    0.0000 O   0  0  0  0  0  0  0  0  0  0  0  0
    0.7942   15.4576    0.0000 C   0  0  3  0  0  0  0  0  0  0  0  0
    0.0797   15.8701    0.0000 C   0  0  3  0  0  0  0  0  0  0  0  0
   -0.6348   15.4576    0.0000 C   0  0  3  0  0  0  0  0  0  0  0  0
   -0.6348   14.6326    0.0000 C   0  0  3  0  0  0  0  0  0  0  0  0
    0.0797   14.2201    0.0000 C   0  0  3  0  0  0  0  0  0  0  0  0
    0.7942   14.6326    0.0000 C   0  0  0  0  0  0  0  0  0  0  0  0
   -1.3492   14.2201    0.0000 C   0  0  3  0  0  0  0  0  0  0  0  0
   -1.3492   15.8701    0.0000 C   0  0  3  0  0  0  0  0  0  0  0  0
    0.2932   15.0732    0.0000 C   0  0  0  0  0  0  0  0  0  0  0  0
    1.2791   16.1251    0.0000 C   0  0  3  0  0  0  0  0  0  0  0  0
    1.2791   14.7902    0.0000 C   0  0  0  0  0  0  0  0  0  0  0  0
   -1.1357   15.0732    0.0000 C   0  0  0  0  0  0  0  0  0  0  0  0
   -2.0637   14.6326    0.0000 C   0  0  3  0  0  0  0  0  0  0  0  0
   -2.0637   15.4576    0.0000 C   0  0  0  0  0  0  0  0  0  0  0  0
    2.0637   15.0451    0.0000 C   0  0  0  0  0  0  0  0  0  0  0  0
    1.2419   16.0699    0.0000 C   0  0  0  0  0  0  0  0  0  0  0  0
   -2.7782   15.0451    0.0000 C   0  0  0  0  0  0  0  0  0  0  0  0
  1 12  1  0  0  0  0
  1 17  1  0  0  0  0
  2 17  2  0  0  0  0
  3  4  1  0  0  0  0
  3  8  1  0  0  0  0
  3 12  1  0  0  0  0
  3 13  1  0  0  0  0
  4  5  1  0  0  0  0
  4 11  1  0  0  0  0
  5  6  1  0  0  0  0
  5 10  1  0  0  0  0
  6  7  1  0  0  0  0
  6  9  1  0  0  0  0
  7  8  1  0  0  0  0
  7 11  1  0  0  0  0
  9 14  1  0  0  0  0
  9 15  1  0  0  0  0
 10 14  1  0  0  0  0
 10 16  1  0  0  0  0
 12 18  1  0  0  0  0
 13 17  1  0  0  0  0
 15 16  1  0  0  0  0
 15 19  1  0  0  0  0
M  END
> <PUBCHEM_COMPOUND_ID_TYPE>
0

> <PUBCHEM_TOTAL_CHARGE>
0

> <PUBCHEM_SUBSTANCE_ID>
310947390

> <PUBCHEM_SUBSTANCE_VERSION>
1

> <PUBCHEM_EXT_DATASOURCE_NAME>
4488

> <PUBCHEM_EXT_DATASOURCE_REGID>
SCHEMBL16125546

> <PUBCHEM_SUBSTANCE_COMMENT>
InChI=1S/C17H24O2/c1-8-3-10-4-12(8)15-11-5-13(16(10)15)17(6-11)7-14(18)19-9(17)2/h8-13,15-16H,3-7H2,1-2H3
InChIKey=BJLLNAFXGLPVLC-UHFFFAOYSA-N

> <PUBCHEM_SUBSTANCE_SYNONYM>
SCHEMBL16125546

> <PUBCHEM_XREF_EXT_ID>
SCHEMBL16125546

> <PUBCHEM_EXT_DATASOURCE_URL>
https://www.surechembl.org/

> <PUBCHEM_EXT_SUBSTANCE_URL>
https://www.surechembl.org/chemical/SCHEMBL16125546

> <PUBCHEM_CID_ASSOCIATIONS>
117613133  1

> <PUBCHEM_COORDINATE_TYPE>
1
3

$$$$
