310947899
  -OEChem-07211613022D

 41 43  0     1  0  0  0  0  0999 V2000
    0.7905   -0.1018    0.0000 S   0  0  0  0  0  0  0  0  0  0  0  0
    0.7905   -0.1018    0.0000 O   0  0  0  0  0  0  0  0  0  0  0  0
    0.7905   -0.1018    0.0000 O   0  0  0  0  0  0  0  0  0  0  0  0
   -1.6183   -0.1018    0.0000 O   0  0  0  0  0  0  0  0  0  0  0  0
    0.7905   -0.1018    0.0000 O   0  0  0  0  0  0  0  0  0  0  0  0
    0.7905   -0.1018    0.0000 O   0  0  0  0  0  0  0  0  0  0  0  0
   -1.6183    2.6720    0.0000 O   0  0  0  0  0  0  0  0  0  0  0  0
   -2.8175    1.9837    0.0000 O   0  0  0  0  0  0  0  0  0  0  0  0
   -4.0167    0.5864    0.0000 O   0  0  0  0  0  0  0  0  0  0  0  0
    0.2066    0.2423    0.0000 N   0  0  0  0  0  0  0  0  0  0  0  0
   -0.9926    0.9409    0.0000 N   0  0  0  0  0  0  0  0  0  0  0  0
    0.7905   -0.1018    0.0000 N   0  0  0  0  0  0  0  0  0  0  0  0
   -2.2022    1.6396    0.0000 N   0  0  0  0  0  0  0  0  0  0  0  0
    2.4924   -1.9600    0.0000 C   0  0  3  0  0  0  0  0  0  0  0  0
    2.4924   -1.9600    0.0000 C   0  0  3  0  0  0  0  0  0  0  0  0
   -0.9926    0.2632    0.0000 C   0  0  0  0  0  0  0  0  0  0  0  0
    0.2483    0.9513    0.0000 C   0  0  3  0  0  0  0  0  0  0  0  0
   -0.9926    1.6396    0.0000 C   0  0  3  0  0  0  0  0  0  0  0  0
   -0.3878    0.5968    0.0000 C   0  0  0  0  0  0  0  0  0  0  0  0
    0.2066    1.6292    0.0000 C   0  0  0  0  0  0  0  0  0  0  0  0
   -0.3982    1.9837    0.0000 C   0  0  0  0  0  0  0  0  0  0  0  0
    2.4924   -1.9600    0.0000 C   0  0  0  0  0  0  0  0  0  0  0  0
    3.3607   -1.9600    0.0000 C   0  0  0  0  0  0  0  0  0  0  0  0
   -1.6391    1.9733    0.0000 C   0  0  0  0  0  0  0  0  0  0  0  0
    2.4924   -1.9600    0.0000 C   0  0  0  0  0  0  0  0  0  0  0  0
    3.3607   -1.9600    0.0000 C   0  0  0  0  0  0  0  0  0  0  0  0
    3.3607   -1.9600    0.0000 C   0  0  0  0  0  0  0  0  0  0  0  0
    3.7775   -2.6720    0.0000 C   0  0  0  0  0  0  0  0  0  0  0  0
    3.3607   -1.9600    0.0000 C   0  0  0  0  0  0  0  0  0  0  0  0
    3.7775   -2.6720    0.0000 C   0  0  0  0  0  0  0  0  0  0  0  0
    3.7775   -2.6720    0.0000 C   0  0  0  0  0  0  0  0  0  0  0  0
    3.7775   -2.6720    0.0000 C   0  0  0  0  0  0  0  0  0  0  0  0
    4.6110   -2.6546    0.0000 C   0  0  0  0  0  0  0  0  0  0  0  0
   -3.4014    1.6396    0.0000 C   0  0  3  0  0  0  0  0  0  0  0  0
    4.6110   -2.6546    0.0000 C   0  0  0  0  0  0  0  0  0  0  0  0
   -3.4014    0.9409    0.0000 C   0  0  0  0  0  0  0  0  0  0  0  0
   -4.0063    1.9837    0.0000 C   0  0  0  0  0  0  0  0  0  0  0  0
    4.6110   -2.6546    0.0000 C   0  0  0  0  0  0  0  0  0  0  0  0
    4.6110   -2.6546    0.0000 C   0  0  0  0  0  0  0  0  0  0  0  0
   -4.6006    1.6396    0.0000 C   0  0  0  0  0  0  0  0  0  0  0  0
   -4.6110    0.9409    0.0000 C   0  0  0  0  0  0  0  0  0  0  0  0
  1  2  1  0  0  0  0
  1  3  1  0  0  0  0
  1  5  2  0  0  0  0
  1  6  2  0  0  0  0
  2 14  1  0  0  0  0
  3 10  1  0  0  0  0
  4 16  2  0  0  0  0
  7 24  2  0  0  0  0
  8 13  1  0  0  0  0
  8 34  1  0  0  0  0
  9 36  1  0  0  0  0
  9 41  1  0  0  0  0
 10 16  1  0  0  0  0
 10 17  1  0  0  0  0
 11 16  1  0  0  0  0
 11 18  1  0  0  0  0
 11 19  1  0  0  0  0
 12 15  1  0  0  0  0
 13 24  1  0  0  0  0
 14 15  1  0  0  0  0
 14 22  1  0  0  0  0
 14 23  1  0  0  0  0
 15 25  1  0  0  0  0
 15 26  1  0  0  0  0
 17 19  1  6  0  0  0
 17 20  1  0  0  0  0
 18 21  1  0  0  0  0
 18 24  1  6  0  0  0
 20 21  1  0  0  0  0
 22 27  1  0  0  0  0
 23 28  1  0  0  0  0
 25 29  1  0  0  0  0
 26 30  1  0  0  0  0
 27 31  1  0  0  0  0
 28 33  1  0  0  0  0
 29 32  1  0  0  0  0
 30 35  1  0  0  0  0
 31 38  1  0  0  0  0
 32 39  1  0  0  0  0
 34 36  1  0  0  0  0
 34 37  1  0  0  0  0
 37 40  1  0  0  0  0
 40 41  1  0  0  0  0
M  END
> <PUBCHEM_COMPOUND_ID_TYPE>
0

> <PUBCHEM_TOTAL_CHARGE>
0

> <PUBCHEM_SUBSTANCE_ID>
310947899

> <PUBCHEM_SUBSTANCE_VERSION>
1

> <PUBCHEM_EXT_DATASOURCE_NAME>
4488

> <PUBCHEM_EXT_DATASOURCE_REGID>
SCHEMBL16126073

> <PUBCHEM_SUBSTANCE_COMMENT>
InChI=1S/C28H52N4O8S/c1-5-9-17-27(29,15-7-3)28(16-8-4,18-10-6-2)39-41(35,36)40-32-22-13-14-24(31(20-22)26(32)34)25(33)30-38-23-12-11-19-37-21-23/h22-24H,5-21,29H2,1-4H3,(H,30,33)/t22-,23?,24+,27?,28?/m1/s1
InChIKey=DEPHOUZJFBJPKH-GFEBVIKESA-N

> <PUBCHEM_SUBSTANCE_SYNONYM>
SCHEMBL16126073

> <PUBCHEM_XREF_EXT_ID>
SCHEMBL16126073

> <PUBCHEM_EXT_DATASOURCE_URL>
https://www.surechembl.org/

> <PUBCHEM_EXT_SUBSTANCE_URL>
https://www.surechembl.org/chemical/SCHEMBL16126073

> <PUBCHEM_CID_ASSOCIATIONS>
117613563  1

> <PUBCHEM_COORDINATE_TYPE>
1
3

> <PUBCHEM_BONDANNOTATIONS>
17  19  6
18  24  6

$$$$
