310941850
  -OEChem-07211613022D

 17 18  0     1  0  0  0  0  0999 V2000
   -1.7676    1.1852    0.0000 F   0  0  0  0  0  0  0  0  0  0  0  0
   -0.5618    0.2672    0.0000 F   0  0  0  0  0  0  0  0  0  0  0  0
   -1.3703   -0.8290    0.0000 F   0  0  0  0  0  0  0  0  0  0  0  0
   -2.6035   -0.8975    0.0000 F   0  0  0  0  0  0  0  0  0  0  0  0
   -2.6583    0.3494    0.0000 F   0  0  0  0  0  0  0  0  0  0  0  0
   -0.2604   -1.1852    0.0000 O   0  0  0  0  0  0  0  0  0  0  0  0
   -0.6714    0.3083    0.0000 N   0  0  0  0  0  0  0  0  0  0  0  0
   -1.4662    0.4043    0.0000 C   0  0  0  0  0  0  0  0  0  0  0  0
   -2.0279   -0.2261    0.0000 C   0  0  0  0  0  0  0  0  0  0  0  0
    0.7125   -0.1028    0.0000 C   0  0  3  0  0  0  0  0  0  0  0  0
    0.1507    0.3494    0.0000 C   0  0  3  0  0  0  0  0  0  0  0  0
    1.3018    0.4453    0.0000 C   0  0  0  0  0  0  0  0  0  0  0  0
    0.7673    0.8975    0.0000 C   0  0  0  0  0  0  0  0  0  0  0  0
    0.7125   -0.9112    0.0000 C   0  0  0  0  0  0  0  0  0  0  0  0
    0.1782   -0.5002    0.0000 C   0  0  0  0  0  0  0  0  0  0  0  0
    1.9046    0.8153    0.0000 C   0  0  0  0  0  0  0  0  0  0  0  0
    2.6583    0.9934    0.0000 C   0  0  0  0  0  0  0  0  0  0  0  0
  1  8  1  0  0  0  0
  2  8  1  0  0  0  0
  3  9  1  0  0  0  0
  4  9  1  0  0  0  0
  5  9  1  0  0  0  0
  6 14  1  0  0  0  0
  6 15  1  0  0  0  0
  7  8  1  0  0  0  0
  7 10  1  0  0  0  0
  7 11  1  0  0  0  0
  8  9  1  0  0  0  0
 10 12  1  0  0  0  0
 10 14  1  0  0  0  0
 11 13  1  0  0  0  0
 11 15  1  0  0  0  0
 12 16  1  0  0  0  0
 13 16  1  0  0  0  0
 16 17  1  0  0  0  0
M  END
> <PUBCHEM_COMPOUND_ID_TYPE>
0

> <PUBCHEM_TOTAL_CHARGE>
0

> <PUBCHEM_SUBSTANCE_ID>
310941850

> <PUBCHEM_SUBSTANCE_VERSION>
1

> <PUBCHEM_EXT_DATASOURCE_NAME>
4488

> <PUBCHEM_EXT_DATASOURCE_REGID>
SCHEMBL16119882

> <PUBCHEM_SUBSTANCE_COMMENT>
InChI=1S/C10H14F5NO/c1-6-2-7-4-17-5-8(3-6)16(7)10(14,15)9(11,12)13/h6-8H,2-5H2,1H3
InChIKey=CULPIPLWLJUXBI-UHFFFAOYSA-N

> <PUBCHEM_SUBSTANCE_SYNONYM>
SCHEMBL16119882

> <PUBCHEM_XREF_EXT_ID>
SCHEMBL16119882

> <PUBCHEM_EXT_DATASOURCE_URL>
https://www.surechembl.org/

> <PUBCHEM_EXT_SUBSTANCE_URL>
https://www.surechembl.org/chemical/SCHEMBL16119882

> <PUBCHEM_CID_ASSOCIATIONS>
117608591  1

> <PUBCHEM_COORDINATE_TYPE>
1
3

$$$$
