310941448
  -OEChem-07211613022D

 83 90  0     1  0  0  0  0  0999 V2000
    8.4355   -1.7858    0.0000 S   0  0  0  0  0  0  0  0  0  0  0  0
    2.2415    2.4101    0.0000 S   0  0  0  0  0  0  0  0  0  0  0  0
   -0.2435    3.8463    0.0000 S   0  0  0  0  0  0  0  0  0  0  0  0
   -8.8725    2.4101    0.0000 S   0  0  0  0  0  0  0  0  0  0  0  0
   -6.3875    3.8463    0.0000 S   0  0  0  0  0  0  0  0  0  0  0  0
    6.2251   -3.4591    0.0000 O   0  0  0  0  0  0  0  0  0  0  0  0
    8.0608   -4.5207    0.0000 O   0  0  0  0  0  0  0  0  0  0  0  0
    9.4470   -4.1460    0.0000 O   0  0  0  0  0  0  0  0  0  0  0  0
    2.2540    3.1969    0.0000 O   0  0  0  0  0  0  0  0  0  0  0  0
    2.2415    1.5984    0.0000 O   0  0  0  0  0  0  0  0  0  0  0  0
    3.0533    2.4101    0.0000 O   0  0  0  0  0  0  0  0  0  0  0  0
   -0.9679    3.4467    0.0000 O   0  0  0  0  0  0  0  0  0  0  0  0
   -0.6431    4.5207    0.0000 O   0  0  0  0  0  0  0  0  0  0  0  0
    0.4558    4.2458    0.0000 O   0  0  0  0  0  0  0  0  0  0  0  0
    5.3636   -2.8722    0.0000 O   0  0  0  0  0  0  0  0  0  0  0  0
   -8.8725    1.5735    0.0000 O   0  0  0  0  0  0  0  0  0  0  0  0
   -9.6593    2.3852    0.0000 O   0  0  0  0  0  0  0  0  0  0  0  0
   -8.8850    3.2094    0.0000 O   0  0  0  0  0  0  0  0  0  0  0  0
   -6.3875    3.8463    0.0000 O   0  0  0  0  0  0  0  0  0  0  0  0
   -6.3875    3.8463    0.0000 O   0  0  0  0  0  0  0  0  0  0  0  0
   -6.3875    3.8463    0.0000 O   0  0  0  0  0  0  0  0  0  0  0  0
    3.9274    0.4621    0.0000 O   0  0  0  0  0  0  0  0  0  0  0  0
    7.6613   -2.8722    0.0000 N   0  0  0  0  0  0  0  0  0  0  0  0
   -0.3809   -0.3747    0.0000 N   0  0  0  0  0  0  0  0  0  0  0  0
    6.1003   -1.6234    0.0000 N   0  0  0  0  0  0  0  0  0  0  0  0
    4.7891   -0.7868    0.0000 N   0  0  0  0  0  0  0  0  0  0  0  0
   -0.2435    0.9616    0.0000 C   0  0  0  0  0  0  0  0  0  0  0  0
    7.6487   -2.0355    0.0000 C   0  0  3  0  0  0  0  0  0  0  0  0
   -1.0552    0.7993    0.0000 C   0  0  0  0  0  0  0  0  0  0  0  0
    8.4355   -3.1345    0.0000 C   0  0  3  0  0  0  0  0  0  0  0  0
    8.9475   -2.4476    0.0000 C   0  0  0  0  0  0  0  0  0  0  0  0
    6.8246   -2.0355    0.0000 C   0  0  3  0  0  0  0  0  0  0  0  0
    0.1686    0.2622    0.0000 C   0  0  0  0  0  0  0  0  0  0  0  0
    6.8371   -2.8472    0.0000 C   0  0  0  0  0  0  0  0  0  0  0  0
    0.1686    1.6858    0.0000 C   0  0  0  0  0  0  0  0  0  0  0  0
   -1.1552   -0.0249    0.0000 C   0  0  0  0  0  0  0  0  0  0  0  0
    0.9928    1.6858    0.0000 C   0  0  0  0  0  0  0  0  0  0  0  0
    1.4049    2.4226    0.0000 C   0  0  0  0  0  0  0  0  0  0  0  0
    1.0053    0.2497    0.0000 C   0  0  0  0  0  0  0  0  0  0  0  0
    8.6728   -3.9087    0.0000 C   0  0  0  0  0  0  0  0  0  0  0  0
   -0.2310    2.3977    0.0000 C   0  0  0  0  0  0  0  0  0  0  0  0
    1.4173    0.9741    0.0000 C   0  0  0  0  0  0  0  0  0  0  0  0
    0.1686    3.1345    0.0000 C   0  0  0  0  0  0  0  0  0  0  0  0
    1.0053    3.1220    0.0000 C   0  0  0  0  0  0  0  0  0  0  0  0
   -1.8544   -0.4495    0.0000 C   0  0  0  0  0  0  0  0  0  0  0  0
   -1.8544    0.9990    0.0000 C   0  0  0  0  0  0  0  0  0  0  0  0
   -1.2799    1.5859    0.0000 C   0  0  0  0  0  0  0  0  0  0  0  0
    0.3310   -0.7868    0.0000 C   0  0  0  0  0  0  0  0  0  0  0  0
    9.6593   -2.0355    0.0000 C   0  0  0  0  0  0  0  0  0  0  0  0
    9.6593   -2.8722    0.0000 C   0  0  0  0  0  0  0  0  0  0  0  0
    5.3760   -2.0230    0.0000 C   0  0  0  0  0  0  0  0  0  0  0  0
   -6.7996    1.6858    0.0000 C   0  0  0  0  0  0  0  0  0  0  0  0
   -6.3750    0.9741    0.0000 C   0  0  0  0  0  0  0  0  0  0  0  0
    4.6517   -1.6234    0.0000 C   0  0  3  0  0  0  0  0  0  0  0  0
   -2.6037   -0.0374    0.0000 C   0  0  0  0  0  0  0  0  0  0  0  0
   -7.6238    1.6858    0.0000 C   0  0  0  0  0  0  0  0  0  0  0  0
    1.0428   -0.3747    0.0000 C   0  0  0  0  0  0  0  0  0  0  0  0
   -5.5509    0.7993    0.0000 C   0  0  0  0  0  0  0  0  0  0  0  0
   -8.0359    2.4101    0.0000 C   0  0  0  0  0  0  0  0  0  0  0  0
   -6.7871    0.2497    0.0000 C   0  0  0  0  0  0  0  0  0  0  0  0
   -6.7996    3.1345    0.0000 C   0  0  0  0  0  0  0  0  0  0  0  0
   -6.3750    2.4101    0.0000 C   0  0  0  0  0  0  0  0  0  0  0  0
   -7.6238    3.1220    0.0000 C   0  0  0  0  0  0  0  0  0  0  0  0
    3.9400   -2.0355    0.0000 C   0  0  0  0  0  0  0  0  0  0  0  0
   -5.4883   -0.0249    0.0000 C   0  0  0  0  0  0  0  0  0  0  0  0
   -8.0359    0.9741    0.0000 C   0  0  0  0  0  0  0  0  0  0  0  0
   -3.3155   -0.4495    0.0000 C   0  0  0  0  0  0  0  0  0  0  0  0
   -7.6238    0.2622    0.0000 C   0  0  0  0  0  0  0  0  0  0  0  0
    1.7796   -0.7868    0.0000 C   0  0  0  0  0  0  0  0  0  0  0  0
   -5.1388    1.5110    0.0000 C   0  0  0  0  0  0  0  0  0  0  0  0
   -4.7267    0.7993    0.0000 C   0  0  0  0  0  0  0  0  0  0  0  0
   -4.7391   -0.4495    0.0000 C   0  0  0  0  0  0  0  0  0  0  0  0
   -4.0398   -0.0374    0.0000 C   0  0  0  0  0  0  0  0  0  0  0  0
    3.9400   -0.3747    0.0000 C   0  0  0  0  0  0  0  0  0  0  0  0
    3.2032   -1.6359    0.0000 C   0  0  0  0  0  0  0  0  0  0  0  0
    3.9400   -2.8597    0.0000 C   0  0  0  0  0  0  0  0  0  0  0  0
   -6.4000   -0.1748    0.0000 C   0  0  0  0  0  0  0  0  0  0  0  0
    2.4913   -0.3747    0.0000 C   0  0  0  0  0  0  0  0  0  0  0  0
   -5.9130   -0.1748    0.0000 C   0  0  0  0  0  0  0  0  0  0  0  0
    3.2281   -0.7868    0.0000 C   0  0  0  0  0  0  0  0  0  0  0  0
    2.5038   -2.0355    0.0000 C   0  0  0  0  0  0  0  0  0  0  0  0
    3.2281   -3.2843    0.0000 C   0  0  0  0  0  0  0  0  0  0  0  0
    2.5038   -2.8597    0.0000 C   0  0  0  0  0  0  0  0  0  0  0  0
  1 28  1  0  0  0  0
  1 31  1  0  0  0  0
  2  9  2  0  0  0  0
  2 10  2  0  0  0  0
  2 11  1  0  0  0  0
  2 38  1  0  0  0  0
  3 12  2  0  0  0  0
  3 13  2  0  0  0  0
  3 14  1  0  0  0  0
  3 43  1  0  0  0  0
  4 16  2  0  0  0  0
  4 17  2  0  0  0  0
  4 18  1  0  0  0  0
  4 59  1  0  0  0  0
  5 19  2  0  0  0  0
  5 20  2  0  0  0  0
  5 21  1  0  0  0  0
  5 61  1  0  0  0  0
  6 34  2  0  0  0  0
  7 40  2  0  0  0  0
  8 40  1  0  0  0  0
 15 51  2  0  0  0  0
 22 74  2  0  0  0  0
 28 23  1  1  0  0  0
 23 30  1  0  0  0  0
 23 34  1  0  0  0  0
 24 33  1  0  0  0  0
 24 36  1  0  0  0  0
 24 48  1  0  0  0  0
 32 25  1  1  0  0  0
 25 51  1  0  0  0  0
 26 54  1  0  0  0  0
 26 74  1  0  0  0  0
 27 29  1  0  0  0  0
 27 33  2  0  0  0  0
 27 35  1  0  0  0  0
 28 32  1  0  0  0  0
 29 36  1  0  0  0  0
 29 46  1  0  0  0  0
 29 47  1  0  0  0  0
 30 31  1  0  0  0  0
 30 40  1  6  0  0  0
 31 49  1  0  0  0  0
 31 50  1  0  0  0  0
 32 34  1  0  0  0  0
 33 39  1  0  0  0  0
 35 37  2  0  0  0  0
 35 41  1  0  0  0  0
 36 45  2  0  0  0  0
 37 38  1  0  0  0  0
 37 42  1  0  0  0  0
 38 44  2  0  0  0  0
 39 42  2  0  0  0  0
 41 43  2  0  0  0  0
 43 44  1  0  0  0  0
 45 55  1  0  0  0  0
 48 57  1  0  0  0  0
 51 54  1  0  0  0  0
 52 53  1  0  0  0  0
 52 56  1  0  0  0  0
 52 62  2  0  0  0  0
 53 58  1  0  0  0  0
 53 60  2  0  0  0  0
 54 64  1  0  0  0  0
 55 67  2  0  0  0  0
 56 59  2  0  0  0  0
 56 66  1  0  0  0  0
 57 69  1  0  0  0  0
 58 65  1  0  0  0  0
 58 70  1  0  0  0  0
 58 71  1  0  0  0  0
 59 63  1  0  0  0  0
 60 68  1  0  0  0  0
 60 77  1  0  0  0  0
 61 62  1  0  0  0  0
 61 63  2  0  0  0  0
 64 75  2  0  0  0  0
 64 76  1  0  0  0  0
 65 72  1  0  0  0  0
 65 79  2  0  0  0  0
 66 68  2  0  0  0  0
 67 73  1  0  0  0  0
 69 78  1  0  0  0  0
 72 73  2  0  0  0  0
 74 80  1  0  0  0  0
 75 81  1  0  0  0  0
 76 82  2  0  0  0  0
 78 80  1  0  0  0  0
 81 83  2  0  0  0  0
 82 83  1  0  0  0  0
M  END
> <PUBCHEM_COMPOUND_ID_TYPE>
0

> <PUBCHEM_TOTAL_CHARGE>
0

> <PUBCHEM_SUBSTANCE_ID>
310941448

> <PUBCHEM_SUBSTANCE_VERSION>
1

> <PUBCHEM_EXT_DATASOURCE_NAME>
4488

> <PUBCHEM_EXT_DATASOURCE_REGID>
SCHEMBL16119409

> <PUBCHEM_SUBSTANCE_COMMENT>
InChI=1S/C57H62N4O17S5/c1-32-23-24-37-39(28-35(80(67,68)69)30-42(37)82(73,74)75)46(32)55(3,4)33(2)18-12-9-15-21-44-56(5,6)47-40-29-36(81(70,71)72)31-43(83(76,77)78)38(40)25-26-41(47)60(44)27-17-11-16-22-45(62)58-48(34-19-13-10-14-20-34)51(63)59-49-52(64)61-50(54(65)66)57(7,8)79-53(49)61/h9-10,12-15,18-21,23-26,28-31,48-50,53H,2,11,16-17,22,27H2,1,3-8H3,(H,58,62)(H,59,63)(H,65,66)(H,67,68,69)(H,70,71,72)(H,73,74,75)(H,76,77,78)/b15-9+,18-12+,44-21+/t48?,49-,50+,53-/m1/s1
InChIKey=RNYZHFGEUGQBBJ-LSLDVYAZSA-N

> <PUBCHEM_SUBSTANCE_SYNONYM>
SCHEMBL16119409

> <PUBCHEM_XREF_EXT_ID>
SCHEMBL16119409

> <PUBCHEM_EXT_DATASOURCE_URL>
https://www.surechembl.org/

> <PUBCHEM_EXT_SUBSTANCE_URL>
https://www.surechembl.org/chemical/SCHEMBL16119409

> <PUBCHEM_CID_ASSOCIATIONS>
117608272  1

> <PUBCHEM_COORDINATE_TYPE>
1
3

> <PUBCHEM_BONDANNOTATIONS>
28  23  5
32  25  5
30  40  6

$$$$
