310946373
  -OEChem-07211613022D

 39 41  0     1  0  0  0  0  0999 V2000
   -9.1132   -0.8864    0.0000 I   0  0  0  0  0  0  0  0  0  0  0  0
   -7.6843    1.5887    0.0000 I   0  0  0  0  0  0  0  0  0  0  0  0
   -9.1132    0.7637    0.0000 O   0  0  0  0  0  0  0  0  0  0  0  0
  -11.9712   -0.8864    0.0000 O   0  0  0  0  0  0  0  0  0  0  0  0
   -6.2552    1.5887    0.0000 O   0  0  0  0  0  0  0  0  0  0  0  0
   -6.9696    0.3511    0.0000 O   0  0  0  0  0  0  0  0  0  0  0  0
  -12.6857    2.8072    0.0000 O   0  0  0  0  0  0  0  0  0  0  0  0
   -5.5407    0.3511    0.0000 N   0  0  0  0  0  0  0  0  0  0  0  0
   -4.1116   -0.4738    0.0000 N   0  0  0  0  0  0  0  0  0  0  0  0
   -4.1116    0.3464    0.0000 N   0  3  0  0  0  0  0  0  0  0  0  0
   -4.1116    1.1667    0.0000 N   0  5  0  0  0  0  0  0  0  0  0  0
   -8.3987    0.3511    0.0000 C   0  0  0  0  0  0  0  0  0  0  0  0
   -8.3987   -0.4738    0.0000 C   0  0  0  0  0  0  0  0  0  0  0  0
   -7.6843    0.7637    0.0000 C   0  0  0  0  0  0  0  0  0  0  0  0
   -6.9696   -0.4738    0.0000 C   0  0  0  0  0  0  0  0  0  0  0  0
   -7.6843   -0.8864    0.0000 C   0  0  0  0  0  0  0  0  0  0  0  0
   -6.9696    0.3511    0.0000 C   0  0  0  0  0  0  0  0  0  0  0  0
   -9.8276    0.3511    0.0000 C   0  0  0  0  0  0  0  0  0  0  0  0
   -6.2552   -0.8864    0.0000 C   0  0  0  0  0  0  0  0  0  0  0  0
   -5.5407   -0.4738    0.0000 C   0  0  3  0  0  0  0  0  0  0  0  0
  -10.5422    0.7637    0.0000 C   0  0  0  0  0  0  0  0  0  0  0  0
   -9.8276   -0.4738    0.0000 C   0  0  0  0  0  0  0  0  0  0  0  0
  -11.2567   -0.4738    0.0000 C   0  0  0  0  0  0  0  0  0  0  0  0
  -11.2567    0.3511    0.0000 C   0  0  0  0  0  0  0  0  0  0  0  0
  -10.5422   -0.8864    0.0000 C   0  0  0  0  0  0  0  0  0  0  0  0
   -6.2552    0.7637    0.0000 C   0  0  0  0  0  0  0  0  0  0  0  0
   -4.8263   -0.8864    0.0000 C   0  0  0  0  0  0  0  0  0  0  0  0
  -12.6857    0.3464    0.0000 C   0  0  0  0  0  0  0  0  0  0  0  0
   -6.9696    2.0012    0.0000 C   0  0  0  0  0  0  0  0  0  0  0  0
  -12.6857   -0.4738    0.0000 C   0  0  0  0  0  0  0  0  0  0  0  0
  -11.9753    0.7566    0.0000 C   0  0  0  0  0  0  0  0  0  0  0  0
  -13.3960    0.7566    0.0000 C   0  0  0  0  0  0  0  0  0  0  0  0
  -12.6857    1.9869    0.0000 C   0  0  0  0  0  0  0  0  0  0  0  0
  -11.9753    1.5768    0.0000 C   0  0  0  0  0  0  0  0  0  0  0  0
  -13.3960    1.5768    0.0000 C   0  0  0  0  0  0  0  0  0  0  0  0
   -6.9696    2.8263    0.0000 C   0  0  0  0  0  0  0  0  0  0  0  0
   -7.6843    2.4138    0.0000 C   0  0  0  0  0  0  0  0  0  0  0  0
   -7.6843    1.5887    0.0000 C   0  0  0  0  0  0  0  0  0  0  0  0
  -13.3960    3.2173    0.0000 C   0  0  0  0  0  0  0  0  0  0  0  0
  1 13  1  0  0  0  0
  2 14  1  0  0  0  0
  3 12  1  0  0  0  0
  3 18  1  0  0  0  0
  4 23  1  0  0  0  0
  4 30  1  0  0  0  0
  5 26  1  0  0  0  0
  5 29  1  0  0  0  0
  6 26  2  0  0  0  0
  7 33  1  0  0  0  0
  7 39  1  0  0  0  0
 20  8  1  6  0  0  0
  8 26  1  0  0  0  0
  9 10  2  0  0  0  0
  9 27  1  0  0  0  0
 10 11  2  0  0  0  0
 12 13  2  0  0  0  0
 12 14  1  0  0  0  0
 13 16  1  0  0  0  0
 14 17  2  0  0  0  0
 15 16  2  0  0  0  0
 15 17  1  0  0  0  0
 15 19  1  0  0  0  0
 18 21  2  0  0  0  0
 18 22  1  0  0  0  0
 19 20  1  0  0  0  0
 20 27  1  0  0  0  0
 21 24  1  0  0  0  0
 22 25  2  0  0  0  0
 23 24  2  0  0  0  0
 23 25  1  0  0  0  0
 28 30  1  0  0  0  0
 28 31  2  0  0  0  0
 28 32  1  0  0  0  0
 29 36  1  0  0  0  0
 29 37  1  0  0  0  0
 29 38  1  0  0  0  0
 31 34  1  0  0  0  0
 32 35  2  0  0  0  0
 33 34  2  0  0  0  0
 33 35  1  0  0  0  0
M  CHG  2  10   1  11  -1
M  END
> <PUBCHEM_COMPOUND_ID_TYPE>
0

> <PUBCHEM_TOTAL_CHARGE>
0

> <PUBCHEM_SUBSTANCE_ID>
310946373

> <PUBCHEM_SUBSTANCE_VERSION>
1

> <PUBCHEM_EXT_DATASOURCE_NAME>
4488

> <PUBCHEM_EXT_DATASOURCE_REGID>
SCHEMBL16124492

> <PUBCHEM_SUBSTANCE_COMMENT>
InChI=1S/C28H30I2N4O5/c1-28(2,3)39-27(35)33-20(16-32-34-31)13-19-14-24(29)26(25(30)15-19)38-23-11-9-22(10-12-23)37-17-18-5-7-21(36-4)8-6-18/h5-12,14-15,20H,13,16-17H2,1-4H3,(H,33,35)/t20-/m0/s1
InChIKey=UHIOJCDXMOLWTD-FQEVSTJZSA-N

> <PUBCHEM_SUBSTANCE_SYNONYM>
SCHEMBL16124492

> <PUBCHEM_XREF_EXT_ID>
SCHEMBL16124492

> <PUBCHEM_EXT_DATASOURCE_URL>
https://www.surechembl.org/

> <PUBCHEM_EXT_SUBSTANCE_URL>
https://www.surechembl.org/chemical/SCHEMBL16124492

> <PUBCHEM_CID_ASSOCIATIONS>
117612295  1

> <PUBCHEM_COORDINATE_TYPE>
1
3

> <PUBCHEM_BONDANNOTATIONS>
20  8  6

$$$$
