310932439
  -OEChem-07211613022D

 29 30  0     0  0  0  0  0  0999 V2000
    4.9843   -2.0625    0.0000 Br  0  0  0  0  0  0  0  0  0  0  0  0
    2.0969   -4.4686    0.0000 O   0  0  0  0  0  0  0  0  0  0  0  0
    1.4093   -4.8468    0.0000 O   0  0  0  0  0  0  0  0  0  0  0  0
    4.2624   -0.8250    0.0000 O   0  0  0  0  0  0  0  0  0  0  0  0
    1.4093   -5.6374    0.0000 O   0  0  0  0  0  0  0  0  0  0  0  0
    0.6875   -6.8749    0.0000 O   0  0  0  0  0  0  0  0  0  0  0  0
    1.4093   -3.2312    0.0000 N   0  0  0  0  0  0  0  0  0  0  0  0
    0.0000   -4.8468    0.0000 N   0  0  0  0  0  0  0  0  0  0  0  0
    2.0969   -3.6437    0.0000 C   0  0  0  0  0  0  0  0  0  0  0  0
    2.8187   -3.2656    0.0000 C   0  0  0  0  0  0  0  0  0  0  0  0
    1.4437   -2.4062    0.0000 C   0  0  0  0  0  0  0  0  0  0  0  0
    2.1312   -1.9937    0.0000 C   0  0  0  0  0  0  0  0  0  0  0  0
    0.6875   -3.6093    0.0000 C   0  0  0  0  0  0  0  0  0  0  0  0
    3.5062   -3.6780    0.0000 C   0  0  0  0  0  0  0  0  0  0  0  0
    2.8187   -2.4406    0.0000 C   0  0  0  0  0  0  0  0  0  0  0  0
    0.6875   -4.4343    0.0000 C   0  0  0  0  0  0  0  0  0  0  0  0
    2.9906   -2.5781    0.0000 C   0  0  0  0  0  0  0  0  0  0  0  0
    2.1656   -1.1687    0.0000 C   0  0  0  0  0  0  0  0  0  0  0  0
    4.2624   -2.4406    0.0000 C   0  0  0  0  0  0  0  0  0  0  0  0
    4.2280   -3.2656    0.0000 C   0  0  0  0  0  0  0  0  0  0  0  0
    3.5406   -2.0281    0.0000 C   0  0  0  0  0  0  0  0  0  0  0  0
    3.5749   -1.2031    0.0000 C   0  0  0  0  0  0  0  0  0  0  0  0
    3.7124   -2.1999    0.0000 C   0  0  0  0  0  0  0  0  0  0  0  0
    2.8531   -0.7906    0.0000 C   0  0  0  0  0  0  0  0  0  0  0  0
    0.0000   -5.6374    0.0000 C   0  0  0  0  0  0  0  0  0  0  0  0
    0.6875   -6.0499    0.0000 C   0  0  0  0  0  0  0  0  0  0  0  0
    4.2968    0.0000    0.0000 C   0  0  0  0  0  0  0  0  0  0  0  0
    2.0969   -6.0499    0.0000 C   0  0  0  0  0  0  0  0  0  0  0  0
    2.8187   -5.6374    0.0000 C   0  0  0  0  0  0  0  0  0  0  0  0
  1 19  1  0  0  0  0
  2  9  2  0  0  0  0
  3 16  2  0  0  0  0
  4 22  1  0  0  0  0
  4 27  1  0  0  0  0
  5 26  1  0  0  0  0
  5 28  1  0  0  0  0
  6 26  2  0  0  0  0
  7  9  1  0  0  0  0
  7 11  1  0  0  0  0
  7 13  1  0  0  0  0
  8 16  1  0  0  0  0
  8 25  1  0  0  0  0
  9 10  1  0  0  0  0
 10 14  2  0  0  0  0
 10 15  1  0  0  0  0
 11 12  1  0  0  0  0
 12 17  2  0  0  0  0
 12 18  1  0  0  0  0
 13 16  1  0  0  0  0
 14 20  1  0  0  0  0
 15 21  2  0  0  0  0
 17 23  1  0  0  0  0
 18 24  2  0  0  0  0
 19 20  2  0  0  0  0
 19 21  1  0  0  0  0
 22 23  2  0  0  0  0
 22 24  1  0  0  0  0
 25 26  1  0  0  0  0
 28 29  1  0  0  0  0
M  END
> <PUBCHEM_COMPOUND_ID_TYPE>
0

> <PUBCHEM_TOTAL_CHARGE>
0

> <PUBCHEM_SUBSTANCE_ID>
310932439

> <PUBCHEM_SUBSTANCE_VERSION>
1

> <PUBCHEM_EXT_DATASOURCE_NAME>
4488

> <PUBCHEM_EXT_DATASOURCE_REGID>
SCHEMBL16109809

> <PUBCHEM_SUBSTANCE_COMMENT>
InChI=1S/C21H23BrN2O5/c1-3-29-20(26)12-23-19(25)14-24(13-15-4-10-18(28-2)11-5-15)21(27)16-6-8-17(22)9-7-16/h4-11H,3,12-14H2,1-2H3,(H,23,25)
InChIKey=KBHAVCKWFFJAHZ-UHFFFAOYSA-N

> <PUBCHEM_SUBSTANCE_SYNONYM>
SCHEMBL16109809

> <PUBCHEM_XREF_EXT_ID>
SCHEMBL16109809

> <PUBCHEM_EXT_DATASOURCE_URL>
https://www.surechembl.org/

> <PUBCHEM_EXT_SUBSTANCE_URL>
https://www.surechembl.org/chemical/SCHEMBL16109809

> <PUBCHEM_CID_ASSOCIATIONS>
86296751  1

> <PUBCHEM_COORDINATE_TYPE>
1
3

$$$$
