310949047
  -OEChem-07211613022D

 78 90  0     0  0  0  0  0  0999 V2000
   -2.2084   -2.9719    0.0000 N   0  0  0  0  0  0  0  0  0  0  0  0
    2.1849    2.9719    0.0000 N   0  0  0  0  0  0  0  0  0  0  0  0
   -4.3463   -2.5491    0.0000 N   0  0  0  0  0  0  0  0  0  0  0  0
    3.6650    2.1731    0.0000 N   0  0  0  0  0  0  0  0  0  0  0  0
   -2.2319    1.1394    0.0000 N   0  0  0  0  0  0  0  0  0  0  0  0
    2.1614   -1.1629    0.0000 N   0  0  0  0  0  0  0  0  0  0  0  0
   -2.8662   -3.4653    0.0000 C   0  0  0  0  0  0  0  0  0  0  0  0
   -1.5036   -3.4418    0.0000 C   0  0  0  0  0  0  0  0  0  0  0  0
    2.8662    3.4888    0.0000 C   0  0  0  0  0  0  0  0  0  0  0  0
    1.4566    3.4888    0.0000 C   0  0  0  0  0  0  0  0  0  0  0  0
   -2.6783   -4.2641    0.0000 C   0  0  0  0  0  0  0  0  0  0  0  0
   -1.8090   -4.2406    0.0000 C   0  0  0  0  0  0  0  0  0  0  0  0
    2.6078    4.2641    0.0000 C   0  0  0  0  0  0  0  0  0  0  0  0
    1.7620    4.2641    0.0000 C   0  0  0  0  0  0  0  0  0  0  0  0
   -2.2319   -2.1027    0.0000 C   0  0  0  0  0  0  0  0  0  0  0  0
    2.1849    2.1497    0.0000 C   0  0  0  0  0  0  0  0  0  0  0  0
   -2.9602   -1.7268    0.0000 C   0  0  0  0  0  0  0  0  0  0  0  0
    2.9132    1.7267    0.0000 C   0  0  0  0  0  0  0  0  0  0  0  0
   -1.5036   -0.8341    0.0000 C   0  0  0  0  0  0  0  0  0  0  0  0
    1.4566    0.8341    0.0000 C   0  0  0  0  0  0  0  0  0  0  0  0
   -0.6813   -3.2773    0.0000 C   0  0  0  0  0  0  0  0  0  0  0  0
   -3.6650   -3.3009    0.0000 C   0  0  0  0  0  0  0  0  0  0  0  0
    0.6813    3.3009    0.0000 C   0  0  0  0  0  0  0  0  0  0  0  0
    3.6885    3.3479    0.0000 C   0  0  0  0  0  0  0  0  0  0  0  0
   -1.4801   -1.6563    0.0000 C   0  0  0  0  0  0  0  0  0  0  0  0
    1.4801    1.7503    0.0000 C   0  0  0  0  0  0  0  0  0  0  0  0
   -1.2452   -4.8280    0.0000 C   0  0  0  0  0  0  0  0  0  0  0  0
   -3.1951   -4.8514    0.0000 C   0  0  0  0  0  0  0  0  0  0  0  0
    3.1717    4.8514    0.0000 C   0  0  0  0  0  0  0  0  0  0  0  0
    1.2216    4.8280    0.0000 C   0  0  0  0  0  0  0  0  0  0  0  0
   -0.7518   -0.4347    0.0000 C   0  0  0  0  0  0  0  0  0  0  0  0
    0.7283    0.3877    0.0000 C   0  0  0  0  0  0  0  0  0  0  0  0
   -0.1645   -3.8412    0.0000 C   0  0  0  0  0  0  0  0  0  0  0  0
   -4.2993   -3.9117    0.0000 C   0  0  0  0  0  0  0  0  0  0  0  0
    4.2758    3.9822    0.0000 C   0  0  0  0  0  0  0  0  0  0  0  0
    0.0705    3.9117    0.0000 C   0  0  0  0  0  0  0  0  0  0  0  0
   -2.2319   -0.4581    0.0000 C   0  0  0  0  0  0  0  0  0  0  0  0
    2.1849    0.5051    0.0000 C   0  0  0  0  0  0  0  0  0  0  0  0
   -2.9367   -0.8810    0.0000 C   0  0  0  0  0  0  0  0  0  0  0  0
    2.9132    0.9280    0.0000 C   0  0  0  0  0  0  0  0  0  0  0  0
   -0.4229   -4.6635    0.0000 C   0  0  0  0  0  0  0  0  0  0  0  0
   -4.0174   -4.6870    0.0000 C   0  0  0  0  0  0  0  0  0  0  0  0
    3.9704    4.7105    0.0000 C   0  0  0  0  0  0  0  0  0  0  0  0
    0.3759    4.6635    0.0000 C   0  0  0  0  0  0  0  0  0  0  0  0
   -0.0470   -0.8575    0.0000 C   0  0  0  0  0  0  0  0  0  0  0  0
   -0.0470    0.8105    0.0000 C   0  0  0  0  0  0  0  0  0  0  0  0
   -0.7283    0.3877    0.0000 C   0  0  0  0  0  0  0  0  0  0  0  0
    0.7283   -0.4111    0.0000 C   0  0  0  0  0  0  0  0  0  0  0  0
    0.6813   -3.6767    0.0000 C   0  0  0  0  0  0  0  0  0  0  0  0
   -5.1451   -3.7707    0.0000 C   0  0  0  0  0  0  0  0  0  0  0  0
    5.0981    3.7942    0.0000 C   0  0  0  0  0  0  0  0  0  0  0  0
   -0.7283    3.7237    0.0000 C   0  0  0  0  0  0  0  0  0  0  0  0
   -3.6885   -2.1497    0.0000 C   0  0  0  0  0  0  0  0  0  0  0  0
    3.6650    2.1731    0.0000 C   0  0  0  0  0  0  0  0  0  0  0  0
   -2.2319    0.3641    0.0000 C   0  0  0  0  0  0  0  0  0  0  0  0
    2.1614   -0.3641    0.0000 C   0  0  0  0  0  0  0  0  0  0  0  0
    0.0235   -1.6798    0.0000 C   0  0  0  0  0  0  0  0  0  0  0  0
   -0.0470    1.6563    0.0000 C   0  0  0  0  0  0  0  0  0  0  0  0
    1.2686   -4.2876    0.0000 C   0  0  0  0  0  0  0  0  0  0  0  0
   -5.3565   -2.9954    0.0000 C   0  0  0  0  0  0  0  0  0  0  0  0
    0.9867   -2.9249    0.0000 C   0  0  0  0  0  0  0  0  0  0  0  0
   -5.7089   -4.3580    0.0000 C   0  0  0  0  0  0  0  0  0  0  0  0
    5.3800    3.0189    0.0000 C   0  0  0  0  0  0  0  0  0  0  0  0
   -1.2922    4.3111    0.0000 C   0  0  0  0  0  0  0  0  0  0  0  0
    5.6855    4.3816    0.0000 C   0  0  0  0  0  0  0  0  0  0  0  0
   -0.9867    2.9249    0.0000 C   0  0  0  0  0  0  0  0  0  0  0  0
    2.0674   -4.0996    0.0000 C   0  0  0  0  0  0  0  0  0  0  0  0
   -6.2023   -2.8310    0.0000 C   0  0  0  0  0  0  0  0  0  0  0  0
    1.7620   -2.7135    0.0000 C   0  0  0  0  0  0  0  0  0  0  0  0
   -6.4843   -4.2171    0.0000 C   0  0  0  0  0  0  0  0  0  0  0  0
   -2.1144    4.0996    0.0000 C   0  0  0  0  0  0  0  0  0  0  0  0
    6.1788    2.8545    0.0000 C   0  0  0  0  0  0  0  0  0  0  0  0
   -1.8325    2.7840    0.0000 C   0  0  0  0  0  0  0  0  0  0  0  0
    6.4843    4.1936    0.0000 C   0  0  0  0  0  0  0  0  0  0  0  0
    2.3493   -3.3009    0.0000 C   0  0  0  0  0  0  0  0  0  0  0  0
   -6.7192   -3.4418    0.0000 C   0  0  0  0  0  0  0  0  0  0  0  0
   -2.3963    3.3479    0.0000 C   0  0  0  0  0  0  0  0  0  0  0  0
    6.7192    3.3948    0.0000 C   0  0  0  0  0  0  0  0  0  0  0  0
  1  7  1  0  0  0  0
  1  8  1  0  0  0  0
  1 15  1  0  0  0  0
  2  9  1  0  0  0  0
  2 10  1  0  0  0  0
  2 16  1  0  0  0  0
  3 53  3  0  0  0  0
  4 54  2  3  0  0  0
  5 55  3  0  0  0  0
  6 56  3  0  0  0  0
  7 11  2  0  0  0  0
  7 22  1  0  0  0  0
  8 12  2  0  0  0  0
  8 21  1  0  0  0  0
  9 13  2  0  0  0  0
  9 24  1  0  0  0  0
 10 14  2  0  0  0  0
 10 23  1  0  0  0  0
 11 12  1  0  0  0  0
 11 28  1  0  0  0  0
 12 27  1  0  0  0  0
 13 14  1  0  0  0  0
 13 29  1  0  0  0  0
 14 30  1  0  0  0  0
 15 17  1  0  0  0  0
 15 25  2  0  0  0  0
 16 18  2  0  0  0  0
 16 26  1  0  0  0  0
 17 39  2  0  0  0  0
 17 53  1  0  0  0  0
 18 40  1  0  0  0  0
 18 54  1  0  0  0  0
 19 25  1  0  0  0  0
 19 31  1  0  0  0  0
 19 37  2  0  0  0  0
 20 26  2  0  0  0  0
 20 32  1  0  0  0  0
 20 38  1  0  0  0  0
 21 33  2  0  0  0  0
 22 34  2  0  0  0  0
 23 36  2  0  0  0  0
 24 35  2  0  0  0  0
 27 41  2  0  0  0  0
 28 42  2  0  0  0  0
 29 43  2  0  0  0  0
 30 44  2  0  0  0  0
 31 45  2  0  0  0  0
 31 47  1  0  0  0  0
 32 46  1  0  0  0  0
 32 48  2  0  0  0  0
 33 41  1  0  0  0  0
 33 49  1  0  0  0  0
 34 42  1  0  0  0  0
 34 50  1  0  0  0  0
 35 43  1  0  0  0  0
 35 51  1  0  0  0  0
 36 44  1  0  0  0  0
 36 52  1  0  0  0  0
 37 39  1  0  0  0  0
 37 55  1  0  0  0  0
 38 40  2  0  0  0  0
 38 56  1  0  0  0  0
 45 48  1  0  0  0  0
 45 57  1  0  0  0  0
 46 47  2  0  0  0  0
 46 58  1  0  0  0  0
 49 59  2  0  0  0  0
 49 61  1  0  0  0  0
 50 60  2  0  0  0  0
 50 62  1  0  0  0  0
 51 63  2  0  0  0  0
 51 65  1  0  0  0  0
 52 64  2  0  0  0  0
 52 66  1  0  0  0  0
 59 67  1  0  0  0  0
 60 68  1  0  0  0  0
 61 69  2  0  0  0  0
 62 70  2  0  0  0  0
 63 72  1  0  0  0  0
 64 71  1  0  0  0  0
 65 74  2  0  0  0  0
 66 73  2  0  0  0  0
 67 75  2  0  0  0  0
 68 76  2  0  0  0  0
 69 75  1  0  0  0  0
 70 76  1  0  0  0  0
 71 77  2  0  0  0  0
 72 78  2  0  0  0  0
 73 77  1  0  0  0  0
 74 78  1  0  0  0  0
M  END
> <PUBCHEM_COMPOUND_ID_TYPE>
0

> <PUBCHEM_TOTAL_CHARGE>
0

> <PUBCHEM_SUBSTANCE_ID>
310949047

> <PUBCHEM_SUBSTANCE_VERSION>
1

> <PUBCHEM_EXT_DATASOURCE_NAME>
4488

> <PUBCHEM_EXT_DATASOURCE_REGID>
SCHEMBL16127237

> <PUBCHEM_SUBSTANCE_COMMENT>
InChI=1S/C72H46N6/c1-45-31-64(66-40-68(58(44-76)34-56(66)42-74)78-71-37-53(49-19-11-5-12-20-49)25-29-61(71)62-30-26-54(38-72(62)78)50-21-13-6-14-22-50)46(2)32-63(45)65-39-67(57(43-75)33-55(65)41-73)77-69-35-51(47-15-7-3-8-16-47)23-27-59(69)60-28-24-52(36-70(60)77)48-17-9-4-10-18-48/h3-40,43,75H,1-2H3
InChIKey=KXGYCSYWCVRYDI-UHFFFAOYSA-N

> <PUBCHEM_SUBSTANCE_SYNONYM>
SCHEMBL16127237

> <PUBCHEM_XREF_EXT_ID>
SCHEMBL16127237

> <PUBCHEM_EXT_DATASOURCE_URL>
https://www.surechembl.org/

> <PUBCHEM_EXT_SUBSTANCE_URL>
https://www.surechembl.org/chemical/SCHEMBL16127237

> <PUBCHEM_CID_ASSOCIATIONS>
117614552  1

> <PUBCHEM_COORDINATE_TYPE>
1
3

$$$$
