310945616
  -OEChem-07211613022D

 40 45  0     0  0  0  0  0  0999 V2000
    2.6936    2.3075    0.0000 Cl  0  0  0  0  0  0  0  0  0  0  0  0
    5.4549   -2.4234    0.0000 O   0  0  0  0  0  0  0  0  0  0  0  0
    5.7831   -0.0289    0.0000 O   0  0  0  0  0  0  0  0  0  0  0  0
   -3.2729    3.0026    0.0000 O   0  0  0  0  0  0  0  0  0  0  0  0
    1.6896    1.5158    0.0000 N   0  0  0  0  0  0  0  0  0  0  0  0
    1.6896    0.0289    0.0000 N   0  0  0  0  0  0  0  0  0  0  0  0
    0.2220   -0.1449    0.0000 N   0  0  0  0  0  0  0  0  0  0  0  0
    4.5667   -0.8013    0.0000 N   0  0  0  0  0  0  0  0  0  0  0  0
    4.5667   -0.8013    0.0000 N   0  0  0  0  0  0  0  0  0  0  0  0
   -5.3583    2.5392    0.0000 N   0  0  0  0  0  0  0  0  0  0  0  0
    2.1723    0.7627    0.0000 C   0  0  0  0  0  0  0  0  0  0  0  0
    0.9365    1.2068    0.0000 C   0  0  0  0  0  0  0  0  0  0  0  0
    2.9447    0.7434    0.0000 C   0  0  0  0  0  0  0  0  0  0  0  0
    0.8979    0.2993    0.0000 C   0  0  0  0  0  0  0  0  0  0  0  0
    3.3695    1.5351    0.0000 C   0  0  0  0  0  0  0  0  0  0  0  0
   -0.4924    1.2262    0.0000 C   0  0  0  0  0  0  0  0  0  0  0  0
    4.1805   -0.0289    0.0000 C   0  0  0  0  0  0  0  0  0  0  0  0
    0.2027    1.6316    0.0000 C   0  0  0  0  0  0  0  0  0  0  0  0
    3.3695   -0.0289    0.0000 C   0  0  0  0  0  0  0  0  0  0  0  0
   -0.4731    0.2993    0.0000 C   0  0  0  0  0  0  0  0  0  0  0  0
   -1.1875    1.6703    0.0000 C   0  0  0  0  0  0  0  0  0  0  0  0
    4.1805    1.5158    0.0000 C   0  0  0  0  0  0  0  0  0  0  0  0
    4.5474    0.7820    0.0000 C   0  0  0  0  0  0  0  0  0  0  0  0
    5.3583   -0.8399    0.0000 C   0  0  0  0  0  0  0  0  0  0  0  0
    5.7638   -1.5736    0.0000 C   0  0  0  0  0  0  0  0  0  0  0  0
   -1.8634    1.2262    0.0000 C   0  0  0  0  0  0  0  0  0  0  0  0
   -1.1682    2.5392    0.0000 C   0  0  0  0  0  0  0  0  0  0  0  0
   -2.5585    2.5585    0.0000 C   0  0  0  0  0  0  0  0  0  0  0  0
   -2.5585    1.6509    0.0000 C   0  0  0  0  0  0  0  0  0  0  0  0
   -1.8634    2.9833    0.0000 C   0  0  0  0  0  0  0  0  0  0  0  0
    6.5749   -1.6896    0.0000 C   0  0  0  0  0  0  0  0  0  0  0  0
    6.0728   -3.0026    0.0000 C   0  0  0  0  0  0  0  0  0  0  0  0
    6.7294   -2.5779    0.0000 C   0  0  0  0  0  0  0  0  0  0  0  0
   -3.9681    2.5585    0.0000 C   0  0  0  0  0  0  0  0  0  0  0  0
   -4.6439    2.9833    0.0000 C   0  0  0  0  0  0  0  0  0  0  0  0
   -6.0535    2.9833    0.0000 C   0  0  0  0  0  0  0  0  0  0  0  0
   -5.3390    1.6509    0.0000 C   0  0  0  0  0  0  0  0  0  0  0  0
   -6.7294    2.5585    0.0000 C   0  0  0  0  0  0  0  0  0  0  0  0
   -6.0342    1.2068    0.0000 C   0  0  0  0  0  0  0  0  0  0  0  0
   -6.7294    1.6509    0.0000 C   0  0  0  0  0  0  0  0  0  0  0  0
  1 15  1  0  0  0  0
  2 25  1  0  0  0  0
  2 32  1  0  0  0  0
  3 24  2  0  0  0  0
  4 28  1  0  0  0  0
  4 34  1  0  0  0  0
  5 11  1  0  0  0  0
  5 12  1  0  0  0  0
  6 11  2  0  0  0  0
  6 14  1  0  0  0  0
  7 14  2  0  0  0  0
  7 20  1  0  0  0  0
  8  9  1  0  0  0  0
  8 17  1  0  0  0  0
  8 24  1  0  0  0  0
 10 35  1  0  0  0  0
 10 36  1  0  0  0  0
 10 37  1  0  0  0  0
 11 13  1  0  0  0  0
 12 14  1  0  0  0  0
 12 18  2  0  0  0  0
 13 15  1  0  0  0  0
 13 19  2  0  0  0  0
 15 22  2  0  0  0  0
 16 18  1  0  0  0  0
 16 20  2  0  0  0  0
 16 21  1  0  0  0  0
 17 19  1  0  0  0  0
 17 23  2  0  0  0  0
 21 26  2  0  0  0  0
 21 27  1  0  0  0  0
 22 23  1  0  0  0  0
 24 25  1  0  0  0  0
 25 31  2  0  0  0  0
 26 29  1  0  0  0  0
 27 30  2  0  0  0  0
 28 29  2  0  0  0  0
 28 30  1  0  0  0  0
 31 33  1  0  0  0  0
 32 33  2  0  0  0  0
 34 35  1  0  0  0  0
 36 38  1  0  0  0  0
 37 39  1  0  0  0  0
 38 40  1  0  0  0  0
 39 40  1  0  0  0  0
M  END
> <PUBCHEM_COMPOUND_ID_TYPE>
0

> <PUBCHEM_TOTAL_CHARGE>
0

> <PUBCHEM_SUBSTANCE_ID>
310945616

> <PUBCHEM_SUBSTANCE_VERSION>
1

> <PUBCHEM_EXT_DATASOURCE_NAME>
4488

> <PUBCHEM_EXT_DATASOURCE_REGID>
SCHEMBL16123715

> <PUBCHEM_SUBSTANCE_COMMENT>
InChI=1S/C30H29ClN6O3/c31-25-11-8-22(37(32)30(38)27-5-4-15-40-27)18-24(25)28-34-26-17-21(19-33-29(26)35-28)20-6-9-23(10-7-20)39-16-14-36-12-2-1-3-13-36/h4-11,15,17-19H,1-3,12-14,16,32H2,(H,33,34,35)
InChIKey=VJDWGYJJPSVNFR-UHFFFAOYSA-N

> <PUBCHEM_SUBSTANCE_SYNONYM>
SCHEMBL16123715

> <PUBCHEM_XREF_EXT_ID>
SCHEMBL16123715

> <PUBCHEM_EXT_DATASOURCE_URL>
https://www.surechembl.org/

> <PUBCHEM_EXT_SUBSTANCE_URL>
https://www.surechembl.org/chemical/SCHEMBL16123715

> <PUBCHEM_CID_ASSOCIATIONS>
117611634  1

> <PUBCHEM_COORDINATE_TYPE>
1
3

$$$$
