310940143
  -OEChem-07211613022D

 41 44  0     1  0  0  0  0  0999 V2000
    2.1783   -3.1423    0.0000 S   0  0  0  0  0  0  0  0  0  0  0  0
   -2.9013    2.3452    0.0000 F   0  0  0  0  0  0  0  0  0  0  0  0
   -3.3277    3.0681    0.0000 F   0  0  0  0  0  0  0  0  0  0  0  0
   -2.8086   -2.6603    0.0000 O   0  0  0  0  0  0  0  0  0  0  0  0
    1.7704   -3.8653    0.0000 O   0  0  0  0  0  0  0  0  0  0  0  0
    2.9013   -3.5687    0.0000 O   0  0  0  0  0  0  0  0  0  0  0  0
   -1.1031    3.4390    0.0000 O   0  0  0  0  0  0  0  0  0  0  0  0
   -1.3070   -0.3244    0.0000 N   0  0  0  0  0  0  0  0  0  0  0  0
   -0.8250   -0.9918    0.0000 N   0  0  0  0  0  0  0  0  0  0  0  0
   -1.0475   -2.4563    0.0000 N   0  0  0  0  0  0  0  0  0  0  0  0
   -1.4738    2.0486    0.0000 N   0  0  0  0  0  0  0  0  0  0  0  0
   -3.5316   -1.4182    0.0000 N   0  0  0  0  0  0  0  0  0  0  0  0
    2.7345   -2.5306    0.0000 N   0  0  3  0  0  0  0  0  0  0  0  0
    1.1031    0.8620    0.0000 N   0  0  0  0  0  0  0  0  0  0  0  0
   -1.0475    0.4542    0.0000 C   0  0  0  0  0  0  0  0  0  0  0  0
   -2.0856   -0.5840    0.0000 C   0  0  0  0  0  0  0  0  0  0  0  0
   -2.1041   -1.3997    0.0000 C   0  0  0  0  0  0  0  0  0  0  0  0
   -1.3070   -1.6777    0.0000 C   0  0  0  0  0  0  0  0  0  0  0  0
   -2.8086   -1.8075    0.0000 C   0  0  0  0  0  0  0  0  0  0  0  0
   -1.8446    0.6766    0.0000 C   0  0  0  0  0  0  0  0  0  0  0  0
   -0.4727    1.0659    0.0000 C   0  0  0  0  0  0  0  0  0  0  0  0
   -2.8272   -0.1761    0.0000 C   0  0  0  0  0  0  0  0  0  0  0  0
   -0.3244    0.0464    0.0000 C   0  0  0  0  0  0  0  0  0  0  0  0
   -2.0670    1.4368    0.0000 C   0  0  0  0  0  0  0  0  0  0  0  0
   -0.6766    1.8261    0.0000 C   0  0  0  0  0  0  0  0  0  0  0  0
   -0.2502   -2.6232    0.0000 C   0  0  0  0  0  0  0  0  0  0  0  0
   -3.5316   -0.5840    0.0000 C   0  0  0  0  0  0  0  0  0  0  0  0
    1.3626   -2.9569    0.0000 C   0  0  0  0  0  0  0  0  0  0  0  0
   -1.7148    2.8272    0.0000 C   0  0  0  0  0  0  0  0  0  0  0  0
    0.4171    0.4357    0.0000 C   0  0  0  0  0  0  0  0  0  0  0  0
    0.0093   -3.4019    0.0000 C   0  0  0  0  0  0  0  0  0  0  0  0
    0.3059   -2.0115    0.0000 C   0  0  0  0  0  0  0  0  0  0  0  0
   -2.5120    3.0681    0.0000 C   0  0  0  0  0  0  0  0  0  0  0  0
    0.8250   -3.5687    0.0000 C   0  0  0  0  0  0  0  0  0  0  0  0
    1.1216   -2.1783    0.0000 C   0  0  0  0  0  0  0  0  0  0  0  0
    2.1413   -1.7334    0.0000 C   0  0  0  0  0  0  0  0  0  0  0  0
    3.5316   -2.7159    0.0000 C   0  0  0  0  0  0  0  0  0  0  0  0
   -3.1052    3.8653    0.0000 C   0  0  0  0  0  0  0  0  0  0  0  0
    2.7901   -1.2884    0.0000 C   0  0  0  0  0  0  0  0  0  0  0  0
    2.6232   -2.4008    0.0000 C   0  0  0  0  0  0  0  0  0  0  0  0
    1.4924   -2.2154    0.0000 C   0  0  0  0  0  0  0  0  0  0  0  0
  1  5  2  0  0  0  0
  1  6  2  0  0  0  0
  1 13  1  0  0  0  0
  1 28  1  0  0  0  0
  2 33  1  0  0  0  0
  3 33  1  0  0  0  0
  4 19  2  0  0  0  0
  7 29  2  0  0  0  0
  8  9  1  0  0  0  0
  8 15  1  0  0  0  0
  8 16  1  0  0  0  0
  9 18  2  0  0  0  0
 10 18  1  0  0  0  0
 10 26  1  0  0  0  0
 11 24  1  0  0  0  0
 11 25  1  0  0  0  0
 11 29  1  0  0  0  0
 12 19  1  0  0  0  0
 12 27  1  0  0  0  0
 13 36  1  0  0  0  0
 13 37  1  0  0  0  0
 14 30  3  0  0  0  0
 15 20  1  0  0  0  0
 15 21  1  0  0  0  0
 15 23  1  0  0  0  0
 16 17  2  0  0  0  0
 16 22  1  0  0  0  0
 17 18  1  0  0  0  0
 17 19  1  0  0  0  0
 20 24  1  0  0  0  0
 21 25  1  0  0  0  0
 22 27  2  0  0  0  0
 23 30  1  0  0  0  0
 26 31  2  0  0  0  0
 26 32  1  0  0  0  0
 28 34  2  0  0  0  0
 28 35  1  0  0  0  0
 29 33  1  0  0  0  0
 31 34  1  0  0  0  0
 32 35  2  0  0  0  0
 33 38  1  0  0  0  0
 36 39  1  0  0  0  0
 36 40  1  0  0  0  0
 36 41  1  0  0  0  0
M  END
> <PUBCHEM_COMPOUND_ID_TYPE>
0

> <PUBCHEM_TOTAL_CHARGE>
0

> <PUBCHEM_SUBSTANCE_ID>
310940143

> <PUBCHEM_SUBSTANCE_VERSION>
1

> <PUBCHEM_EXT_DATASOURCE_NAME>
4488

> <PUBCHEM_EXT_DATASOURCE_REGID>
SCHEMBL16118076

> <PUBCHEM_SUBSTANCE_COMMENT>
InChI=1S/C27H33F2N7O4S/c1-25(2,3)34(5)41(39,40)19-8-6-18(7-9-19)32-22-21-20(10-15-31-23(21)37)36(33-22)27(11-14-30)12-16-35(17-13-27)24(38)26(4,28)29/h6-10,15H,11-13,16-17H2,1-5H3,(H,31,37)(H,32,33)
InChIKey=FCADPBTUHLRKNC-UHFFFAOYSA-N

> <PUBCHEM_SUBSTANCE_SYNONYM>
SCHEMBL16118076

> <PUBCHEM_XREF_EXT_ID>
SCHEMBL16118076

> <PUBCHEM_EXT_DATASOURCE_URL>
https://www.surechembl.org/

> <PUBCHEM_EXT_SUBSTANCE_URL>
https://www.surechembl.org/chemical/SCHEMBL16118076

> <PUBCHEM_CID_ASSOCIATIONS>
117607268  1

> <PUBCHEM_COORDINATE_TYPE>
1
3

$$$$
